PCCDB-ID:  1
public computational chemistry database (PCCDB) project, http://pccdb.org

 31 30  0  0  1  0  0  0  0  0999 V2000
    4.5322   -3.4333   -2.9534 C   0  0  0  0  0  0  0  0  0  0  0  0
    7.6658   -0.8281    1.9008 C   0  0  0  0  0  0  0  0  0  0  0  0
    7.1317   -2.9727    2.9377 C   0  0  0  0  0  0  0  0  0  0  0  0
    7.9545   -2.9319    0.6286 C   0  0  0  0  0  0  0  0  0  0  0  0
    4.1132   -0.4153    0.2069 C   0  0  0  0  0  0  0  0  0  0  0  0
    5.6431   -2.1618    1.1867 C   0  0  0  0  0  0  0  0  0  0  0  0
    4.4940   -2.9881   -1.5089 C   0  0  0  0  0  0  0  0  0  0  0  0
    5.3684   -1.2588   -0.0203 C   0  0  1  0  0  0  0  0  0  0  0  0
    4.3759    0.6590    1.3449 C   0  0  0  0  0  0  0  0  0  0  0  0
    7.1121   -2.2172    1.6397 N   0  0  0  0  0  0  0  0  0  0  0  0
    3.7569   -3.4490   -0.6626 O   0  0  0  0  0  0  0  0  0  0  0  0
    4.0444    1.8169    1.0816 O   0  0  0  0  0  0  0  0  0  0  0  0
    4.9167    0.1989    2.4103 O   0  0  0  0  0  0  0  0  0  0  0  0
    5.3886   -1.9959   -1.2925 O   0  0  0  0  0  0  0  0  0  0  0  0
    4.0891   -4.4263   -3.0433 H   0  0  0  0  0  0  0  0  0  0  0  0
    5.5536   -3.4293   -3.3431 H   0  0  0  0  0  0  0  0  0  0  0  0
    3.9462   -2.7299   -3.5564 H   0  0  0  0  0  0  0  0  0  0  0  0
    8.5290   -0.9284    2.5621 H   0  0  0  0  0  0  0  0  0  0  0  0
    6.8535   -0.2240    2.3329 H   0  0  0  0  0  0  0  0  0  0  0  0
    7.9880   -0.3931    0.9550 H   0  0  0  0  0  0  0  0  0  0  0  0
    8.1669   -3.1139    3.2552 H   0  0  0  0  0  0  0  0  0  0  0  0
    6.6476   -3.9403    2.7933 H   0  0  0  0  0  0  0  0  0  0  0  0
    6.5836   -2.3893    3.6786 H   0  0  0  0  0  0  0  0  0  0  0  0
    8.9978   -2.9090    0.9515 H   0  0  0  0  0  0  0  0  0  0  0  0
    7.8468   -2.4345   -0.3356 H   0  0  0  0  0  0  0  0  0  0  0  0
    7.6087   -3.9643    0.5451 H   0  0  0  0  0  0  0  0  0  0  0  0
    3.2710   -1.0584    0.4849 H   0  0  0  0  0  0  0  0  0  0  0  0
    3.8603    0.1128   -0.7152 H   0  0  0  0  0  0  0  0  0  0  0  0
    5.3365   -3.1910    1.0076 H   0  0  0  0  0  0  0  0  0  0  0  0
    5.1150   -1.6984    2.0272 H   0  0  0  0  0  0  0  0  0  0  0  0
    6.1975   -0.5659   -0.1805 H   0  0  0  0  0  0  0  0  0  0  0  0
  1  7  1  0  0  0  0
  2 19  1  0  0  0  0
  2 18  1  0  0  0  0
  3 21  1  0  0  0  0
  3 23  1  0  0  0  0
  4 24  1  0  0  0  0
  4 10  1  0  0  0  0
  5 27  1  0  0  0  0
  5  9  1  0  0  0  0
  6 10  1  0  0  0  0
  6 30  1  0  0  0  0
  7 14  1  0  0  0  0
  7 11  2  0  0  0  0
  8 31  1  6  0  0  0
  8  5  1  0  0  0  0
  8  6  1  0  0  0  0
  9 13  1  0  0  0  0
 10  2  1  0  0  0  0
 10  3  1  0  0  0  0
 12  9  2  0  0  0  0
 14  8  1  0  0  0  0
 15  1  1  0  0  0  0
 16  1  1  0  0  0  0
 17  1  1  0  0  0  0
 20  2  1  0  0  0  0
 22  3  1  0  0  0  0
 25  4  1  0  0  0  0
 26  4  1  0  0  0  0
 28  5  1  0  0  0  0
 29  6  1  0  0  0  0
M  RAD  1  13   2
M  END
>  <HBA>
4

>  <HBD>
0

>  <TPSA>
66.43

>  <cid>
1

>  <dipole>
13.92

>  <excitation_energy_1>
3.749

>  <excitation_energy_2>
3.989

>  <excitation_energy_3>
4.144

>  <excitation_energy_4>
4.333

>  <homo_energy>
-4.528

>  <homo_lumo_gap>
4.512

>  <logP>
-1.236

>  <lumo_energy>
-0.016

>  <melting_point>
90.67

>  <molecular_refractivity>
48.87

>  <oscillator_strength_1>
0.0006

>  <oscillator_strength_2>
0.0042

>  <oscillator_strength_3>
0.0142

>  <oscillator_strength_4>
0.002

>  <open_babel_can_smiles>
[O]C(=O)C[C@@H](C[N](C)(C)C)OC(=O)C

>  <mulliken_charges>
31
1   -0.522693
2   -0.372027
3   -0.324678
4   -0.322011
5   -0.38868
6   -0.194723
7   0.604202
8   0.108074
9   0.554417
10   -0.358451
11   -0.470316
12   -0.542438
13   -0.61912
14   -0.488908
15   0.182024
16   0.17024
17   0.196206
18   0.171016
19   0.294811
20   0.187917
21   0.184959
22   0.196141
23   0.236109
24   0.186764
25   0.219837
26   0.192451
27   0.164549
28   0.152683
29   0.191468
30   0.252514
31   0.157663

>  <lowdin_charges>
31
1   -0.464757
2   -0.379038
3   -0.349974
4   -0.354173
5   -0.344264
6   -0.234414
7   0.202921
8   -9.4e-05
9   0.127389
10   0.075931
11   -0.270678
12   -0.360198
13   -0.47793
14   -0.213454
15   0.175127
16   0.169792
17   0.187473
18   0.165488
19   0.227793
20   0.172758
21   0.169066
22   0.176358
23   0.199144
24   0.170118
25   0.187374
26   0.173943
27   0.162766
28   0.160274
29   0.172576
30   0.215295
31   0.157389

$$$$

PCCDB-ID:  3
public computational chemistry database (PCCDB) project, http://pccdb.org

 19 19  0  0  1  0  0  0  0  0999 V2000
    1.0657    0.8358    0.2463 C   0  0  0  0  0  0  0  0  0  0  0  0
   -0.2923    1.3182    0.0023 C   0  0  0  0  0  0  0  0  0  0  0  0
    1.3550   -0.4791    0.2035 C   0  0  0  0  0  0  0  0  0  0  0  0
   -1.3396    0.4661   -0.0834 C   0  0  0  0  0  0  0  0  0  0  0  0
    0.2902   -1.4890   -0.1535 C   0  0  1  0  0  0  0  0  0  0  0  0
   -1.1337   -1.0073    0.1976 C   0  0  1  0  0  0  0  0  0  0  0  0
   -2.7176    0.9187   -0.3757 C   0  0  0  0  0  0  0  0  0  0  0  0
    0.4209   -1.8479   -1.5346 O   0  0  0  0  0  0  0  0  0  0  0  0
   -1.4342   -1.2858    1.5715 O   0  0  0  0  0  0  0  0  0  0  0  0
   -2.8496    2.2737   -0.3949 O   0  0  0  0  0  0  0  0  0  0  0  0
   -3.6545    0.1776   -0.5972 O   0  0  0  0  0  0  0  0  0  0  0  0
    1.8445    1.5729    0.4255 H   0  0  0  0  0  0  0  0  0  0  0  0
   -0.4485    2.3855   -0.1219 H   0  0  0  0  0  0  0  0  0  0  0  0
    2.3749   -0.8339    0.3278 H   0  0  0  0  0  0  0  0  0  0  0  0
    0.4406   -2.4224    0.3972 H   0  0  0  0  0  0  0  0  0  0  0  0
   -1.8433   -1.6048   -0.3782 H   0  0  0  0  0  0  0  0  0  0  0  0
    0.4031   -1.0240   -2.0489 H   0  0  0  0  0  0  0  0  0  0  0  0
   -0.9164   -0.6664    2.1118 H   0  0  0  0  0  0  0  0  0  0  0  0
   -3.7847    2.4403   -0.6145 H   0  0  0  0  0  0  0  0  0  0  0  0
  1 12  1  0  0  0  0
  2  1  1  0  0  0  0
  3  1  2  0  0  0  0
  3 14  1  0  0  0  0
  4  2  2  0  0  0  0
  4  6  1  0  0  0  0
  5  6  1  0  0  0  0
  5  3  1  0  0  0  0
  5 15  1  1  0  0  0
  6 16  1  6  0  0  0
  6  9  1  0  0  0  0
  7  4  1  0  0  0  0
  8  5  1  0  0  0  0
  9 18  1  0  0  0  0
 10  7  1  0  0  0  0
 11  7  2  0  0  0  0
 13  2  1  0  0  0  0
 17  8  1  0  0  0  0
 19 10  1  0  0  0  0
M  END
>  <HBA>
4

>  <HBD>
3

>  <TPSA>
77.76

>  <cid>
3

>  <dipole>
4.4

>  <excitation_energy_1>
3.854

>  <excitation_energy_2>
4.276

>  <excitation_energy_3>
4.356

>  <excitation_energy_4>
5.105

>  <homo_energy>
-6.729

>  <homo_lumo_gap>
4.528

>  <logP>
-0.711

>  <lumo_energy>
-2.201

>  <melting_point>
132.75

>  <molecular_refractivity>
36.8

>  <oscillator_strength_1>
0.0299

>  <oscillator_strength_2>
0.0188

>  <oscillator_strength_3>
0.193

>  <oscillator_strength_4>
0.0162

>  <open_babel_can_smiles>
O[C@H]1C=CC=C([C@@H]1O)C(=O)O

>  <mulliken_charges>
19
1   -0.126843
2   -0.167698
3   -0.149307
4   0.029338
5   0.071841
6   0.047905
7   0.551868
8   -0.609223
9   -0.610471
10   -0.58771
11   -0.464566
12   0.145904
13   0.172716
14   0.1539
15   0.163632
16   0.18275
17   0.393281
18   0.390155
19   0.41253

>  <lowdin_charges>
19
1   -0.177586
2   -0.130328
3   -0.157261
4   -0.072111
5   -0.018634
6   -0.014572
7   0.195218
8   -0.447473
9   -0.449084
10   -0.368315
11   -0.262187
12   0.166273
13   0.176094
14   0.167126
15   0.164229
16   0.176665
17   0.345174
18   0.344452
19   0.362319

$$$$

PCCDB-ID:  4
public computational chemistry database (PCCDB) project, http://pccdb.org

 14 13  0  0  1  0  0  0  0  0999 V2000
    0.8689    0.0380    0.0621 C   0  0  0  0  0  0  0  0  0  0  0  0
    2.8657    0.3580   -1.4903 C   0  0  0  0  0  0  0  0  0  0  0  0
    2.3903    0.0909   -0.0597 C   0  0  1  0  0  0  0  0  0  0  0  0
    4.3234    0.2727   -1.5459 N   0  0  0  0  0  0  0  0  0  0  0  0
    2.9508    1.0630    0.8357 O   0  0  0  0  0  0  0  0  0  0  0  0
    0.4499   -0.7761   -0.5404 H   0  0  0  0  0  0  0  0  0  0  0  0
    0.4133    0.9763   -0.2841 H   0  0  0  0  0  0  0  0  0  0  0  0
    0.5779   -0.1176    1.1056 H   0  0  0  0  0  0  0  0  0  0  0  0
    2.4485    1.3357   -1.8105 H   0  0  0  0  0  0  0  0  0  0  0  0
    2.4388   -0.3982   -2.1623 H   0  0  0  0  0  0  0  0  0  0  0  0
    2.8255   -0.8588    0.2697 H   0  0  0  0  0  0  0  0  0  0  0  0
    4.7026    0.8977   -0.8359 H   0  0  0  0  0  0  0  0  0  0  0  0
    4.6649    0.6019   -2.4466 H   0  0  0  0  0  0  0  0  0  0  0  0
    2.5103    1.9087    0.6481 H   0  0  0  0  0  0  0  0  0  0  0  0
  1  8  1  0  0  0  0
  2  3  1  0  0  0  0
  3  1  1  0  0  0  0
  3 11  1  1  0  0  0
  3  5  1  0  0  0  0
  4  2  1  0  0  0  0
  4 12  1  0  0  0  0
  6  1  1  0  0  0  0
  7  1  1  0  0  0  0
  9  2  1  0  0  0  0
 10  2  1  0  0  0  0
 13  4  1  0  0  0  0
 14  5  1  0  0  0  0
M  END
>  <HBA>
2

>  <HBD>
2

>  <TPSA>
46.25

>  <cid>
4

>  <dipole>
2.47

>  <excitation_energy_1>
5.596

>  <excitation_energy_2>
6.262

>  <excitation_energy_3>
6.46

>  <excitation_energy_4>
6.642

>  <homo_energy>
-6.188

>  <homo_lumo_gap>
8.036

>  <logP>
0.026

>  <lumo_energy>
1.848

>  <melting_point>
48.3

>  <molecular_refractivity>
20.4

>  <oscillator_strength_1>
0.0039

>  <oscillator_strength_2>
0.0227

>  <oscillator_strength_3>
0.0011

>  <oscillator_strength_4>
0.0442

>  <open_babel_can_smiles>
C[C@@H](CN)O

>  <mulliken_charges>
14
1   -0.464472
2   -0.129213
3   0.131922
4   -0.720924
5   -0.622405
6   0.148951
7   0.131458
8   0.161801
9   0.092821
10   0.136684
11   0.153963
12   0.30602
13   0.292737
14   0.380656

>  <lowdin_charges>
14
1   -0.461103
2   -0.221347
3   -0.003749
4   -0.562056
5   -0.466274
6   0.157431
7   0.143024
8   0.159247
9   0.108165
10   0.145349
11   0.151923
12   0.259173
13   0.253554
14   0.336663

$$$$

PCCDB-ID:  5
public computational chemistry database (PCCDB) project, http://pccdb.org

 18 17  0  0  0  0  0  0  0  0999 V2000
   -1.0662   -1.2812    0.3603 C   0  0  0  0  0  0  0  0  0  0  0  0
    1.4271   -1.8811   -0.0791 C   0  0  0  0  0  0  0  0  0  0  0  0
    0.2944   -0.8668   -0.1980 C   0  0  0  0  0  0  0  0  0  0  0  0
   -2.1760   -0.3971    0.0610 N   0  0  0  0  0  0  0  0  0  0  0  0
    0.4527    0.2234   -0.7259 O   0  0  0  0  0  0  0  0  0  0  0  0
    2.9186    0.5668   -1.9866 O   0  0  0  0  0  0  0  0  0  0  0  0
    4.7953   -0.9870   -1.6721 O   0  0  0  0  0  0  0  0  0  0  0  0
    2.6329   -1.9537   -2.7880 O   0  0  0  0  0  0  0  0  0  0  0  0
    2.7065   -1.3027   -0.2782 O   0  0  0  0  0  0  0  0  0  0  0  0
    3.1950   -0.9937   -1.8099 P   0  0  0  0  0  0  0  0  0  0  0  0
   -0.9552   -1.3726    1.4517 H   0  0  0  0  0  0  0  0  0  0  0  0
   -1.2961   -2.2966    0.0081 H   0  0  0  0  0  0  0  0  0  0  0  0
    1.2410   -2.6837   -0.8074 H   0  0  0  0  0  0  0  0  0  0  0  0
    1.4255   -2.3260    0.9221 H   0  0  0  0  0  0  0  0  0  0  0  0
   -1.9306    0.5523    0.3380 H   0  0  0  0  0  0  0  0  0  0  0  0
   -2.3121   -0.3540   -0.9479 H   0  0  0  0  0  0  0  0  0  0  0  0
    2.0354    0.7601   -1.5950 H   0  0  0  0  0  0  0  0  0  0  0  0
    5.1582   -1.8007   -2.0588 H   0  0  0  0  0  0  0  0  0  0  0  0
  1 11  1  0  0  0  0
  2 14  1  0  0  0  0
  3  2  1  0  0  0  0
  3  1  1  0  0  0  0
  4 15  1  0  0  0  0
  4  1  1  0  0  0  0
  5  3  2  0  0  0  0
  6 10  1  0  0  0  0
  6 17  1  0  0  0  0
  8 10  2  0  0  0  0
  9  2  1  0  0  0  0
 10  7  1  0  0  0  0
 10  9  1  0  0  0  0
 12  1  1  0  0  0  0
 13  2  1  0  0  0  0
 16  4  1  0  0  0  0
 18  7  1  0  0  0  0
M  END
>  <HBA>
6

>  <HBD>
3

>  <TPSA>
119.66

>  <cid>
5

>  <dipole>
3.46

>  <excitation_energy_1>
4.245

>  <excitation_energy_2>
5.121

>  <excitation_energy_3>
5.732

>  <excitation_energy_4>
5.876

>  <homo_energy>
-7.029

>  <homo_lumo_gap>
5.567

>  <logP>
-0.676

>  <lumo_energy>
-1.461

>  <melting_point>
130.8

>  <molecular_refractivity>
31.51

>  <oscillator_strength_1>
0.0001

>  <oscillator_strength_2>
0.0001

>  <oscillator_strength_3>
0.0018

>  <oscillator_strength_4>
0.0098

>  <open_babel_can_smiles>
NCC(=O)COP(=O)(O)O

>  <mulliken_charges>
18
1   -0.245504
2   -0.126751
3   0.439452
4   -0.683042
5   -0.462317
6   -0.642377
7   -0.613135
8   -0.563443
9   -0.519854
10   1.130502
11   0.183548
12   0.180534
13   0.207595
14   0.182627
15   0.314094
16   0.311711
17   0.462776
18   0.443585

>  <lowdin_charges>
18
1   -0.237996
2   -0.161494
3   0.15065
4   -0.526728
5   -0.238137
6   -0.559023
7   -0.548562
8   -0.598981
9   -0.388809
10   1.118539
11   0.17026
12   0.16897
13   0.186922
14   0.17241
15   0.26471
16   0.262639
17   0.376887
18   0.387741

$$$$

PCCDB-ID:  7
public computational chemistry database (PCCDB) project, http://pccdb.org

 21 22  0  0  1  0  0  0  0  0999 V2000
    3.7436   -0.3983   -0.6969 C   0  0  0  0  0  0  0  0  0  0  0  0
    2.5528    0.0400    0.1574 C   0  0  0  0  0  0  0  0  0  0  0  0
    4.5952   -0.1172    4.0264 C   0  0  0  0  0  0  0  0  0  0  0  0
    2.6883    2.4253    1.0639 C   0  0  0  0  0  0  0  0  0  0  0  0
    3.7146    2.1293    2.8941 C   0  0  0  0  0  0  0  0  0  0  0  0
    4.3668    2.1768    4.1438 C   0  0  2  0  0  0  0  0  0  0  0  0
    3.5770    0.8578    2.3261 C   0  0  0  0  0  0  0  0  0  0  0  0
    4.6008    3.3464    4.7955 N   0  0  0  0  0  0  0  0  0  0  0  0
    4.7971    1.0293    4.6975 N   0  0  0  0  0  0  0  0  0  0  0  0
    4.0016   -0.3038    2.8436 N   0  0  0  0  0  0  0  0  0  0  0  0
    3.1484    3.1026    2.0895 N   0  0  0  0  0  0  0  0  0  0  0  0
    2.9073    1.0637    1.1376 N   0  0  0  0  0  0  0  0  0  0  0  0
    3.4259   -1.1592   -1.4184 H   0  0  0  0  0  0  0  0  0  0  0  0
    4.5265   -0.8278   -0.0653 H   0  0  0  0  0  0  0  0  0  0  0  0
    4.1645    0.4480   -1.2502 H   0  0  0  0  0  0  0  0  0  0  0  0
    2.1459   -0.8131    0.7085 H   0  0  0  0  0  0  0  0  0  0  0  0
    1.7503    0.4500   -0.4642 H   0  0  0  0  0  0  0  0  0  0  0  0
    4.9658   -1.0139    4.5192 H   0  0  0  0  0  0  0  0  0  0  0  0
    2.1695    2.8570    0.2166 H   0  0  0  0  0  0  0  0  0  0  0  0
    4.1095    4.1741    4.4919 H   0  0  0  0  0  0  0  0  0  0  0  0
    4.8993    3.2901    5.7584 H   0  0  0  0  0  0  0  0  0  0  0  0
  1 14  1  0  0  0  0
  1  2  1  0  0  0  0
  2 16  1  0  0  0  0
  2 12  1  0  0  0  0
  3 18  1  0  0  0  0
  3  9  2  0  0  0  0
  4 12  1  0  0  0  0
  4 11  2  0  0  0  0
  5  6  1  0  0  0  0
  6  9  1  0  0  0  0
  6  8  1  6  0  0  0
  7 10  1  0  0  0  0
  7  5  2  0  0  0  0
  8 21  1  0  0  0  0
 10  3  1  0  0  0  0
 11  5  1  0  0  0  0
 12  7  1  0  0  0  0
 13  1  1  0  0  0  0
 15  1  1  0  0  0  0
 17  2  1  0  0  0  0
 19  4  1  0  0  0  0
 20  8  1  0  0  0  0
M  RAD  2   6   2  10   2
M  END
>  <HBA>
5

>  <HBD>
1

>  <TPSA>
69.62

>  <cid>
7

>  <dipole>
2.48

>  <excitation_energy_1>
4.949

>  <excitation_energy_2>
4.986

>  <excitation_energy_3>
5.215

>  <excitation_energy_4>
5.433

>  <homo_energy>
-5.842

>  <homo_lumo_gap>
5.442

>  <logP>
1.01

>  <lumo_energy>
-0.4

>  <melting_point>
146.83

>  <molecular_refractivity>
45.8

>  <oscillator_strength_1>
0.1801

>  <oscillator_strength_2>
0.0314

>  <oscillator_strength_3>
0.0366

>  <oscillator_strength_4>
0.0102

>  <open_babel_can_smiles>
CCn1cnc2c1[N]C=N[C]2N

>  <mulliken_charges>
21
1   -0.448121
2   -0.151743
3   0.160899
4   0.213715
5   0.193071
6   0.483482
7   0.513626
8   -0.77493
9   -0.509117
10   -0.510597
11   -0.527562
12   -0.474722
13   0.153341
14   0.186059
15   0.154996
16   0.184461
17   0.156449
18   0.142533
19   0.159211
20   0.352578
21   0.34237

>  <lowdin_charges>
21
1   -0.452989
2   -0.189017
3   -0.037176
4   -0.067197
5   -0.062936
6   0.120071
7   0.056413
8   -0.441993
9   -0.223617
10   -0.211215
11   -0.195717
12   -0.025588
13   0.15928
14   0.171175
15   0.155754
16   0.170216
17   0.157099
18   0.157503
19   0.16897
20   0.298621
21   0.292342

$$$$

PCCDB-ID:  8
public computational chemistry database (PCCDB) project, http://pccdb.org

 22 21  0  0  1  0  0  0  0  0999 V2000
    0.5556   -0.2660   -0.2087 C   0  0  0  0  0  0  0  0  0  0  0  0
    2.5501    1.9638   -1.2570 C   0  0  0  0  0  0  0  0  0  0  0  0
    2.0651   -0.1707    0.0426 C   0  0  0  0  0  0  0  0  0  0  0  0
    2.0975    2.1716    1.2138 C   0  0  2  0  0  0  0  0  0  0  0  0
    1.9768    1.5237    2.6153 C   0  0  0  0  0  0  0  0  0  0  0  0
    2.6625    1.2472    0.0986 C   0  0  2  0  0  0  0  0  0  0  0  0
    2.9147    3.3456    1.3031 O   0  0  0  0  0  0  0  0  0  0  0  0
    1.3532    0.5115    2.8368 O   0  0  0  0  0  0  0  0  0  0  0  0
    2.5787    2.2284    3.5834 O   0  0  0  0  0  0  0  0  0  0  0  0
    4.0600    1.1577    0.4726 O   0  0  0  0  0  0  0  0  0  0  0  0
    0.2592   -1.3179   -0.2792 H   0  0  0  0  0  0  0  0  0  0  0  0
    0.2520    0.2216   -1.1419 H   0  0  0  0  0  0  0  0  0  0  0  0
   -0.0043    0.1732    0.6215 H   0  0  0  0  0  0  0  0  0  0  0  0
    1.5060    2.0792   -1.5637 H   0  0  0  0  0  0  0  0  0  0  0  0
    3.0597    1.3788   -2.0332 H   0  0  0  0  0  0  0  0  0  0  0  0
    3.0033    2.9575   -1.2132 H   0  0  0  0  0  0  0  0  0  0  0  0
    2.6007   -0.6990   -0.7609 H   0  0  0  0  0  0  0  0  0  0  0  0
    2.3069   -0.6789    0.9781 H   0  0  0  0  0  0  0  0  0  0  0  0
    1.0905    2.4984    0.9346 H   0  0  0  0  0  0  0  0  0  0  0  0
    3.8103    3.0277    1.0678 H   0  0  0  0  0  0  0  0  0  0  0  0
    2.9589    3.0172    3.1349 H   0  0  0  0  0  0  0  0  0  0  0  0
    4.5417    0.7306   -0.2528 H   0  0  0  0  0  0  0  0  0  0  0  0
  1  3  1  0  0  0  0
  1 13  1  0  0  0  0
  2 16  1  0  0  0  0
  2  6  1  0  0  0  0
  3  6  1  0  0  0  0
  3 18  1  0  0  0  0
  4 19  1  6  0  0  0
  4  7  1  0  0  0  0
  4  5  1  0  0  0  0
  5  8  2  0  0  0  0
  5  9  1  0  0  0  0
  6 10  1  1  0  0  0
  6  4  1  0  0  0  0
 11  1  1  0  0  0  0
 12  1  1  0  0  0  0
 14  2  1  0  0  0  0
 15  2  1  0  0  0  0
 17  3  1  0  0  0  0
 20  7  1  0  0  0  0
 21  9  1  0  0  0  0
 22 10  1  0  0  0  0
M  END
>  <HBA>
4

>  <HBD>
3

>  <TPSA>
77.76

>  <cid>
8

>  <dipole>
4.79

>  <excitation_energy_1>
5.491

>  <excitation_energy_2>
6.234

>  <excitation_energy_3>
6.82

>  <excitation_energy_4>
6.935

>  <homo_energy>
-6.974

>  <homo_lumo_gap>
7.285

>  <logP>
-0.407

>  <lumo_energy>
0.31

>  <melting_point>
98.85

>  <molecular_refractivity>
35.09

>  <oscillator_strength_1>
0.0006

>  <oscillator_strength_2>
0.0037

>  <oscillator_strength_3>
0.0154

>  <oscillator_strength_4>
0.0119

>  <open_babel_can_smiles>
CC[C@@]([C@@H](C(=O)O)O)(O)C

>  <mulliken_charges>
22
1   -0.462523
2   -0.466719
3   -0.259074
4   0.037358
5   0.599271
6   0.260735
7   -0.664591
8   -0.462421
9   -0.573788
10   -0.665715
11   0.153017
12   0.136828
13   0.173172
14   0.160622
15   0.139013
16   0.164468
17   0.113952
18   0.183155
19   0.180661
20   0.422878
21   0.426701
22   0.403001

>  <lowdin_charges>
22
1   -0.451101
2   -0.460142
3   -0.287902
4   -0.047704
5   0.173846
6   0.112935
7   -0.458552
8   -0.252341
9   -0.342015
10   -0.469119
11   0.157353
12   0.143
13   0.162767
14   0.160556
15   0.15057
16   0.161126
17   0.137102
18   0.170281
19   0.17202
20   0.351893
21   0.362958
22   0.352469

$$$$

PCCDB-ID:  12
public computational chemistry database (PCCDB) project, http://pccdb.org

 16 16  0  0  0  0  0  0  0  0999 V2000
   -0.6968    1.2209   -0.0060 C   0  0  0  0  0  0  0  0  0  0  0  0
   -0.6882   -1.2024    0.0003 C   0  0  0  0  0  0  0  0  0  0  0  0
   -1.3865    0.0062   -0.0002 C   0  0  0  0  0  0  0  0  0  0  0  0
    0.7005    1.1997   -0.0106 C   0  0  0  0  0  0  0  0  0  0  0  0
    0.7092   -1.2038   -0.0042 C   0  0  0  0  0  0  0  0  0  0  0  0
    1.4219    0.0038   -0.0094 C   0  0  0  0  0  0  0  0  0  0  0  0
   -2.7567   -0.0640    0.0041 O   0  0  0  0  0  0  0  0  0  0  0  0
    1.4778    2.3378   -0.0185 O   0  0  0  0  0  0  0  0  0  0  0  0
    1.4454   -2.3531   -0.0028 O   0  0  0  0  0  0  0  0  0  0  0  0
    2.7905   -0.0102   -0.0124 O   0  0  0  0  0  0  0  0  0  0  0  0
   -1.2317    2.1692   -0.0102 H   0  0  0  0  0  0  0  0  0  0  0  0
   -1.2451   -2.1352    0.0041 H   0  0  0  0  0  0  0  0  0  0  0  0
   -3.1166    0.8358    0.0017 H   0  0  0  0  0  0  0  0  0  0  0  0
    0.9089    3.1207    0.0121 H   0  0  0  0  0  0  0  0  0  0  0  0
    0.8358   -3.1069    0.0020 H   0  0  0  0  0  0  0  0  0  0  0  0
    3.0800    0.9175   -0.0099 H   0  0  0  0  0  0  0  0  0  0  0  0
  1  3  2  0  0  0  0
  2 12  1  0  0  0  0
  3  2  1  0  0  0  0
  3  7  1  0  0  0  0
  4  6  2  0  0  0  0
  4  1  1  0  0  0  0
  5  9  1  0  0  0  0
  5  2  2  0  0  0  0
  6  5  1  0  0  0  0
  8  4  1  0  0  0  0
  8 14  1  0  0  0  0
  9 15  1  0  0  0  0
 10 16  1  0  0  0  0
 10  6  1  0  0  0  0
 11  1  1  0  0  0  0
 13  7  1  0  0  0  0
M  END
>  <HBA>
4

>  <HBD>
4

>  <TPSA>
80.92

>  <cid>
12

>  <dipole>
3.64

>  <excitation_energy_1>
4.233

>  <excitation_energy_2>
4.569

>  <excitation_energy_3>
4.77

>  <excitation_energy_4>
4.87

>  <homo_energy>
-5.11

>  <homo_lumo_gap>
5.614

>  <logP>
0.509

>  <lumo_energy>
0.503

>  <melting_point>
166.21

>  <molecular_refractivity>
34.53

>  <oscillator_strength_1>
0.0017

>  <oscillator_strength_2>
0.0

>  <oscillator_strength_3>
0.0531

>  <oscillator_strength_4>
0.0004

>  <open_babel_can_smiles>
Oc1cc(O)c(c(c1)O)O

>  <mulliken_charges>
16
1   -0.282653
2   -0.252438
3   0.359775
4   0.313258
5   0.320581
6   0.272677
7   -0.654111
8   -0.680302
9   -0.633286
10   -0.650798
11   0.105139
12   0.12658
13   0.406061
14   0.416583
15   0.409539
16   0.423393

>  <lowdin_charges>
16
1   -0.283783
2   -0.256383
3   0.108187
4   0.073206
5   0.094585
6   0.035349
7   -0.384865
8   -0.398756
9   -0.365086
10   -0.379023
11   0.14979
12   0.164441
13   0.355335
14   0.365007
15   0.360258
16   0.361737

$$$$

PCCDB-ID:  17
public computational chemistry database (PCCDB) project, http://pccdb.org

 19 19  0  0  1  0  0  0  0  0999 V2000
    1.4110   -0.4019   -0.6667 C   0  0  0  0  0  0  0  0  0  0  0  0
    0.9659    0.8421   -0.9038 C   0  0  0  0  0  0  0  0  0  0  0  0
    0.6873   -1.3023    0.3004 C   0  0  0  0  0  0  0  0  0  0  0  0
   -0.2258    1.3079   -0.1823 C   0  0  0  0  0  0  0  0  0  0  0  0
   -0.7916   -0.9008    0.3832 C   0  0  1  0  0  0  0  0  0  0  0  0
   -0.4885    2.7952   -0.1919 C   0  0  0  0  0  0  0  0  0  0  0  0
   -1.5132   -1.5853    1.5591 C   0  0  0  0  0  0  0  0  0  0  0  0
   -1.0407    0.5418    0.4454 N   0  0  0  0  0  0  0  0  0  0  0  0
   -1.5225    3.1625    0.5855 O   0  0  0  0  0  0  0  0  0  0  0  0
    0.1717    3.5747   -0.8464 O   0  0  0  0  0  0  0  0  0  0  0  0
   -1.2809   -2.7261    1.8811 O   0  0  0  0  0  0  0  0  0  0  0  0
   -2.4312   -0.8212    2.1677 O   0  0  0  0  0  0  0  0  0  0  0  0
    2.3337   -0.7556   -1.1210 H   0  0  0  0  0  0  0  0  0  0  0  0
    1.4812    1.5450   -1.5473 H   0  0  0  0  0  0  0  0  0  0  0  0
    1.1668   -1.2383    1.2899 H   0  0  0  0  0  0  0  0  0  0  0  0
    0.7564   -2.3528    0.0069 H   0  0  0  0  0  0  0  0  0  0  0  0
   -1.3021   -1.2559   -0.5289 H   0  0  0  0  0  0  0  0  0  0  0  0
   -1.5949    4.1315    0.4949 H   0  0  0  0  0  0  0  0  0  0  0  0
   -2.3662    0.0737    1.7596 H   0  0  0  0  0  0  0  0  0  0  0  0
  1  3  1  0  0  0  0
  2  1  2  0  0  0  0
  2  4  1  0  0  0  0
  3  5  1  0  0  0  0
  3 15  1  0  0  0  0
  4  8  2  0  0  0  0
  5 17  1  6  0  0  0
  5  8  1  0  0  0  0
  5  7  1  0  0  0  0
  6  4  1  0  0  0  0
  6  9  1  0  0  0  0
  7 11  2  0  0  0  0
  7 12  1  0  0  0  0
 10  6  2  0  0  0  0
 13  1  1  0  0  0  0
 14  2  1  0  0  0  0
 16  3  1  0  0  0  0
 18  9  1  0  0  0  0
 19 12  1  0  0  0  0
M  END
>  <HBA>
5

>  <HBD>
2

>  <TPSA>
86.96

>  <cid>
17

>  <dipole>
3.78

>  <excitation_energy_1>
3.738

>  <excitation_energy_2>
3.977

>  <excitation_energy_3>
4.289

>  <excitation_energy_4>
4.808

>  <homo_energy>
-7.168

>  <homo_lumo_gap>
4.542

>  <logP>
-0.639

>  <lumo_energy>
-2.626

>  <melting_point>
177.32

>  <molecular_refractivity>
43.73

>  <oscillator_strength_1>
0.0065

>  <oscillator_strength_2>
0.0231

>  <oscillator_strength_3>
0.0393

>  <oscillator_strength_4>
0.0066

>  <open_babel_can_smiles>
OC(=O)[C@@H]1CC=CC(=N1)C(=O)O

>  <mulliken_charges>
19
1   -0.112962
2   -0.128314
3   -0.313411
4   0.258353
5   -0.086313
6   0.563917
7   0.60966
8   -0.502468
9   -0.554034
10   -0.452082
11   -0.462631
12   -0.576869
13   0.160409
14   0.175415
15   0.180514
16   0.189359
17   0.195431
18   0.41929
19   0.436734

>  <lowdin_charges>
19
1   -0.108858
2   -0.194792
3   -0.2774
4   0.038684
5   -0.105831
6   0.188825
7   0.179133
8   -0.162436
9   -0.327236
10   -0.251019
11   -0.250475
12   -0.34259
13   0.170713
14   0.186681
15   0.169821
16   0.179123
17   0.178094
18   0.366905
19   0.362659

$$$$

PCCDB-ID:  19
public computational chemistry database (PCCDB) project, http://pccdb.org

 17 17  0  0  0  0  0  0  0  0999 V2000
   -1.2421   -0.6779   -0.0775 C   0  0  0  0  0  0  0  0  0  0  0  0
   -0.0414   -1.3610   -0.0724 C   0  0  0  0  0  0  0  0  0  0  0  0
   -1.2445    0.7255   -0.0421 C   0  0  0  0  0  0  0  0  0  0  0  0
    1.1892   -0.6659   -0.0317 C   0  0  0  0  0  0  0  0  0  0  0  0
   -0.0557    1.4382   -0.0017 C   0  0  0  0  0  0  0  0  0  0  0  0
    1.1860    0.7504    0.0048 C   0  0  0  0  0  0  0  0  0  0  0  0
    2.5047   -1.3463   -0.0244 C   0  0  0  0  0  0  0  0  0  0  0  0
    0.0135    2.7982    0.0340 O   0  0  0  0  0  0  0  0  0  0  0  0
    2.2926    1.4999    0.0456 O   0  0  0  0  0  0  0  0  0  0  0  0
    3.5719   -0.7427    0.0141 O   0  0  0  0  0  0  0  0  0  0  0  0
    2.5511   -2.6942   -0.0620 O   0  0  0  0  0  0  0  0  0  0  0  0
   -2.1825   -1.2182   -0.1087 H   0  0  0  0  0  0  0  0  0  0  0  0
   -0.0729   -2.4481   -0.1001 H   0  0  0  0  0  0  0  0  0  0  0  0
   -2.1884    1.2676   -0.0462 H   0  0  0  0  0  0  0  0  0  0  0  0
   -0.8879    3.1562    0.0269 H   0  0  0  0  0  0  0  0  0  0  0  0
    3.0601    0.8704    0.0453 H   0  0  0  0  0  0  0  0  0  0  0  0
    1.6585   -3.0719   -0.0908 H   0  0  0  0  0  0  0  0  0  0  0  0
  1  2  2  0  0  0  0
  1  3  1  0  0  0  0
  2  4  1  0  0  0  0
  3  5  2  0  0  0  0
  4  7  1  0  0  0  0
  4  6  2  0  0  0  0
  5  6  1  0  0  0  0
  5  8  1  0  0  0  0
  6  9  1  0  0  0  0
  7 10  2  0  0  0  0
 11  7  1  0  0  0  0
 12  1  1  0  0  0  0
 13  2  1  0  0  0  0
 14  3  1  0  0  0  0
 15  8  1  0  0  0  0
 16  9  1  0  0  0  0
 17 11  1  0  0  0  0
M  END
>  <HBA>
4

>  <HBD>
3

>  <TPSA>
77.76

>  <cid>
19

>  <dipole>
5.44

>  <excitation_energy_1>
3.953

>  <excitation_energy_2>
4.968

>  <excitation_energy_3>
5.041

>  <excitation_energy_4>
5.068

>  <homo_energy>
-5.989

>  <homo_lumo_gap>
4.509

>  <logP>
0.796

>  <lumo_energy>
-1.48

>  <melting_point>
176.59

>  <molecular_refractivity>
37.45

>  <oscillator_strength_1>
0.0772

>  <oscillator_strength_2>
0.0

>  <oscillator_strength_3>
0.0024

>  <oscillator_strength_4>
0.0814

>  <open_babel_can_smiles>
OC(=O)c1cccc(c1O)O

>  <mulliken_charges>
17
1   -0.139956
2   -0.217622
3   -0.192249
4   0.029924
5   0.325978
6   0.271612
7   0.586628
8   -0.620093
9   -0.631271
10   -0.510476
11   -0.57175
12   0.137992
13   0.115428
14   0.129741
15   0.410558
16   0.450311
17   0.425245

>  <lowdin_charges>
17
1   -0.168663
2   -0.171152
3   -0.191308
4   -0.113783
5   0.081405
6   0.110883
7   0.213616
8   -0.357203
9   -0.349656
10   -0.280896
11   -0.337364
12   0.164213
13   0.147706
14   0.160019
15   0.359679
16   0.373401
17   0.359104

$$$$

PCCDB-ID:  21
public computational chemistry database (PCCDB) project, http://pccdb.org

 20 19  0  0  1  0  0  0  0  0999 V2000
    2.5790   -1.4470    0.2650 C   0  0  0  0  0  0  0  0  0  0  0  0
    1.1074    2.8236    1.2293 C   0  0  0  0  0  0  0  0  0  0  0  0
    2.1326    0.0180    0.2612 C   0  0  0  0  0  0  0  0  0  0  0  0
    2.5412    2.3872    1.1253 C   0  0  0  0  0  0  0  0  0  0  0  0
    2.5672    0.4217    2.7270 C   0  0  0  0  0  0  0  0  0  0  0  0
    2.9060    0.8877    1.2800 C   0  0  1  0  0  0  0  0  0  0  0  0
    3.4596    3.1588    0.8954 O   0  0  0  0  0  0  0  0  0  0  0  0
    1.4362    0.3659    3.1519 O   0  0  0  0  0  0  0  0  0  0  0  0
    3.6430    0.0819    3.4412 O   0  0  0  0  0  0  0  0  0  0  0  0
    4.3077    0.7667    1.0843 O   0  0  0  0  0  0  0  0  0  0  0  0
    2.0320   -2.0086   -0.4994 H   0  0  0  0  0  0  0  0  0  0  0  0
    2.3805   -1.9229    1.2320 H   0  0  0  0  0  0  0  0  0  0  0  0
    3.6483   -1.5297    0.0511 H   0  0  0  0  0  0  0  0  0  0  0  0
    0.6151    2.3290    2.0711 H   0  0  0  0  0  0  0  0  0  0  0  0
    0.5708    2.5243    0.3197 H   0  0  0  0  0  0  0  0  0  0  0  0
    1.0632    3.9104    1.3223 H   0  0  0  0  0  0  0  0  0  0  0  0
    1.0656    0.0868    0.4949 H   0  0  0  0  0  0  0  0  0  0  0  0
    2.2870    0.4511   -0.7351 H   0  0  0  0  0  0  0  0  0  0  0  0
    4.4092    0.2065    2.8330 H   0  0  0  0  0  0  0  0  0  0  0  0
    4.6109    1.6876    0.9093 H   0  0  0  0  0  0  0  0  0  0  0  0
  1 12  1  0  0  0  0
  2 16  1  0  0  0  0
  2 14  1  0  0  0  0
  3  1  1  0  0  0  0
  3 17  1  0  0  0  0
  3  6  1  0  0  0  0
  4  2  1  0  0  0  0
  4  6  1  0  0  0  0
  5  8  2  0  0  0  0
  5  9  1  0  0  0  0
  6 10  1  6  0  0  0
  6  5  1  0  0  0  0
  7  4  2  0  0  0  0
 11  1  1  0  0  0  0
 13  1  1  0  0  0  0
 15  2  1  0  0  0  0
 18  3  1  0  0  0  0
 19  9  1  0  0  0  0
 20 10  1  0  0  0  0
M  END
>  <HBA>
4

>  <HBD>
2

>  <TPSA>
74.6

>  <cid>
21

>  <dipole>
2.68

>  <excitation_energy_1>
4.622

>  <excitation_energy_2>
4.973

>  <excitation_energy_3>
5.953

>  <excitation_energy_4>
6.461

>  <homo_energy>
-7.353

>  <homo_lumo_gap>
5.921

>  <logP>
-0.199

>  <lumo_energy>
-1.431

>  <melting_point>
101.63

>  <molecular_refractivity>
34.13

>  <oscillator_strength_1>
0.0019

>  <oscillator_strength_2>
0.0177

>  <oscillator_strength_3>
0.0063

>  <oscillator_strength_4>
0.0162

>  <open_babel_can_smiles>
CC[C@](C(=O)O)(C(=O)C)O

>  <mulliken_charges>
20
1   -0.464067
2   -0.544597
3   -0.267253
4   0.444199
5   0.597042
6   0.140291
7   -0.455772
8   -0.46118
9   -0.569747
10   -0.690082
11   0.15454
12   0.165589
13   0.172033
14   0.221273
15   0.18765
16   0.187398
17   0.168844
18   0.149578
19   0.439117
20   0.425144

>  <lowdin_charges>
20
1   -0.447721
2   -0.472601
3   -0.27063
4   0.170593
5   0.175218
6   0.044499
7   -0.235043
8   -0.254341
9   -0.332602
10   -0.454147
11   0.159512
12   0.158121
13   0.160471
14   0.197293
15   0.18403
16   0.177699
17   0.16205
18   0.15147
19   0.369707
20   0.356421

$$$$

