PCCDB-ID:  1226
public computational chemistry database (PCCDB) project, http://pccdb.org

 23 23  0  0  1  0  0  0  0  0999 V2000
    0.6439    1.2351   -0.8970 C   0  0  0  0  0  0  0  0  0  0  0  0
    1.5759    0.2042   -0.2396 C   0  0  0  0  0  0  0  0  0  0  0  0
   -0.5682    1.5353   -0.0064 C   0  0  0  0  0  0  0  0  0  0  0  0
    0.7661   -1.0595    0.1263 C   0  0  2  0  0  0  0  0  0  0  0  0
   -0.4133   -0.6890    1.0646 C   0  0  1  0  0  0  0  0  0  0  0  0
    1.6772   -2.2546    0.4820 C   0  0  0  0  0  0  0  0  0  0  0  0
   -0.0665   -0.1819    2.4838 C   0  0  0  0  0  0  0  0  0  0  0  0
   -1.2969    0.3372    0.4714 N   0  0  0  0  0  0  0  0  0  0  0  0
    1.9251   -3.0836   -0.3665 O   0  0  0  0  0  0  0  0  0  0  0  0
    2.2263   -2.3164    1.6978 O   0  0  0  0  0  0  0  0  0  0  0  0
    0.9425   -0.4675    3.1046 O   0  0  0  0  0  0  0  0  0  0  0  0
   -1.0134    0.5879    3.0113 O   0  0  0  0  0  0  0  0  0  0  0  0
    0.3036    0.8455   -1.8667 H   0  0  0  0  0  0  0  0  0  0  0  0
    1.1813    2.1693   -1.1017 H   0  0  0  0  0  0  0  0  0  0  0  0
    2.0447    0.6268    0.6587 H   0  0  0  0  0  0  0  0  0  0  0  0
    2.3836   -0.0706   -0.9263 H   0  0  0  0  0  0  0  0  0  0  0  0
   -1.2932    2.1741   -0.5209 H   0  0  0  0  0  0  0  0  0  0  0  0
   -0.2373    2.0878    0.8832 H   0  0  0  0  0  0  0  0  0  0  0  0
    0.2864   -1.4065   -0.7961 H   0  0  0  0  0  0  0  0  0  0  0  0
   -1.0326   -1.5829    1.2272 H   0  0  0  0  0  0  0  0  0  0  0  0
   -1.8385   -0.0733   -0.2862 H   0  0  0  0  0  0  0  0  0  0  0  0
    1.8797   -1.5987    2.2860 H   0  0  0  0  0  0  0  0  0  0  0  0
   -1.6658    0.7212    2.2721 H   0  0  0  0  0  0  0  0  0  0  0  0
  1  2  1  0  0  0  0
  1  3  1  0  0  0  0
  2  4  1  0  0  0  0
  2 15  1  0  0  0  0
  3  8  1  0  0  0  0
  3 18  1  0  0  0  0
  4 19  1  6  0  0  0
  4  6  1  0  0  0  0
  4  5  1  0  0  0  0
  5 20  1  1  0  0  0
  5  7  1  0  0  0  0
  6 10  1  0  0  0  0
  7 12  1  0  0  0  0
  7 11  2  0  0  0  0
  8  5  1  0  0  0  0
  9  6  2  0  0  0  0
 10 22  1  0  0  0  0
 13  1  1  0  0  0  0
 14  1  1  0  0  0  0
 16  2  1  0  0  0  0
 17  3  1  0  0  0  0
 21  8  1  0  0  0  0
 23 12  1  0  0  0  0
M  END
>  <HBA>
5

>  <HBD>
3

>  <TPSA>
86.63

>  <cid>
1226

>  <dipole>
6.79

>  <excitation_energy_1>
5.152

>  <excitation_energy_2>
5.496

>  <excitation_energy_3>
5.769

>  <excitation_energy_4>
5.867

>  <homo_energy>
-6.822

>  <homo_lumo_gap>
6.139

>  <logP>
-0.147

>  <lumo_energy>
-0.683

>  <melting_point>
176.85

>  <molecular_refractivity>
43.91

>  <oscillator_strength_1>
0.0051

>  <oscillator_strength_2>
0.0008

>  <oscillator_strength_3>
0.0019

>  <oscillator_strength_4>
0.0048

>  <open_babel_can_smiles>
OC(=O)[C@H]1NCCC[C@H]1C(=O)O

>  <mulliken_charges>
23
1   -0.266842
2   -0.284105
3   -0.159065
4   -0.195097
5   -0.119987
6   0.577281
7   0.639122
8   -0.610855
9   -0.461033
10   -0.593089
11   -0.489483
12   -0.556938
13   0.142625
14   0.153109
15   0.157455
16   0.171906
17   0.1609
18   0.161317
19   0.160895
20   0.195735
21   0.323687
22   0.45258
23   0.439882

>  <lowdin_charges>
23
1   -0.289251
2   -0.280444
3   -0.21634
4   -0.177482
5   -0.116806
6   0.183074
7   0.194069
8   -0.362947
9   -0.26475
10   -0.362522
11   -0.260889
12   -0.325685
13   0.145073
14   0.157751
15   0.152534
16   0.16599
17   0.159703
18   0.150238
19   0.166869
20   0.178666
21   0.271689
22   0.364276
23   0.367185

$$$$

