PCCDB-ID:  6119
public computational chemistry database (PCCDB) project, http://pccdb.org

 16 15  0  0  0  0  0  0  0  0999 V2000
    0.8717   -0.0336    0.1248 C   0  0  0  0  0  0  0  0  0  0  0  0
    3.0123   -1.0237    1.0607 C   0  0  0  0  0  0  0  0  0  0  0  0
    2.8156   -0.2686   -1.3944 C   0  0  0  0  0  0  0  0  0  0  0  0
    2.4216    0.0024    0.0757 C   0  0  0  0  0  0  0  0  0  0  0  0
    2.9835    1.3167    0.4041 N   0  0  0  0  0  0  0  0  0  0  0  0
    2.8864    0.6100   -2.2191 O   0  0  0  0  0  0  0  0  0  0  0  0
    3.0067   -1.5591   -1.7608 O   0  0  0  0  0  0  0  0  0  0  0  0
    0.4686   -1.0099   -0.1718 H   0  0  0  0  0  0  0  0  0  0  0  0
    0.4549    0.7255   -0.5446 H   0  0  0  0  0  0  0  0  0  0  0  0
    0.5304    0.1746    1.1462 H   0  0  0  0  0  0  0  0  0  0  0  0
    2.5678   -2.0237    0.9567 H   0  0  0  0  0  0  0  0  0  0  0  0
    2.8013   -0.7011    2.0860 H   0  0  0  0  0  0  0  0  0  0  0  0
    4.0992   -1.0892    0.9539 H   0  0  0  0  0  0  0  0  0  0  0  0
    2.4795    1.7170    1.1938 H   0  0  0  0  0  0  0  0  0  0  0  0
    2.8480    1.9338   -0.3953 H   0  0  0  0  0  0  0  0  0  0  0  0
    2.9663   -2.1369   -0.9817 H   0  0  0  0  0  0  0  0  0  0  0  0
  1 10  1  0  0  0  0
  2 12  1  0  0  0  0
  3  4  1  0  0  0  0
  4  1  1  0  0  0  0
  4  5  1  0  0  0  0
  4  2  1  0  0  0  0
  5 14  1  0  0  0  0
  6  3  2  0  0  0  0
  7  3  1  0  0  0  0
  7 16  1  0  0  0  0
  8  1  1  0  0  0  0
  9  1  1  0  0  0  0
 11  2  1  0  0  0  0
 13  2  1  0  0  0  0
 15  5  1  0  0  0  0
M  END
>  <HBA>
3

>  <HBD>
2

>  <TPSA>
63.32

>  <cid>
6119

>  <dipole>
4.25

>  <excitation_energy_1>
5.506

>  <excitation_energy_2>
5.762

>  <excitation_energy_3>
5.887

>  <excitation_energy_4>
6.457

>  <homo_energy>
-6.596

>  <homo_lumo_gap>
6.811

>  <logP>
0.509

>  <lumo_energy>
0.215

>  <melting_point>
117.2

>  <molecular_refractivity>
25.86

>  <oscillator_strength_1>
0.0029

>  <oscillator_strength_2>
0.0254

>  <oscillator_strength_3>
0.0021

>  <oscillator_strength_4>
0.0109

>  <open_babel_can_smiles>
OC(=O)C(N)(C)C

>  <mulliken_charges>
16
1   -0.451926
2   -0.473459
3   0.616115
4   0.088863
5   -0.717727
6   -0.455613
7   -0.572402
8   0.14461
9   0.168834
10   0.14847
11   0.129466
12   0.162045
13   0.178442
14   0.29253
15   0.324015
16   0.417738

>  <lowdin_charges>
16
1   -0.455469
2   -0.453522
3   0.199929
4   0.027072
5   -0.545078
6   -0.244393
7   -0.350243
8   0.151051
9   0.164239
10   0.151838
11   0.139681
12   0.163347
13   0.16484
14   0.254785
15   0.270738
16   0.361186

$$$$

