PCCDB-ID:  785
public computational chemistry database (PCCDB) project, http://pccdb.org

 14 14  0  0  0  0  0  0  0  0999 V2000
   -0.7605    1.1719   -0.0451 C   0  0  0  0  0  0  0  0  0  0  0  0
   -1.3950   -0.0737   -0.0552 C   0  0  0  0  0  0  0  0  0  0  0  0
    1.3891    0.0721   -0.0170 C   0  0  0  0  0  0  0  0  0  0  0  0
    0.7582   -1.1664   -0.0268 C   0  0  0  0  0  0  0  0  0  0  0  0
    0.6325    1.2501   -0.0252 C   0  0  0  0  0  0  0  0  0  0  0  0
   -0.6395   -1.2467   -0.0451 C   0  0  0  0  0  0  0  0  0  0  0  0
    1.3157    2.4411   -0.0128 O   0  0  0  0  0  0  0  0  0  0  0  0
   -1.2013   -2.4996   -0.0524 O   0  0  0  0  0  0  0  0  0  0  0  0
   -1.3599    2.0806   -0.0528 H   0  0  0  0  0  0  0  0  0  0  0  0
   -2.4824   -0.1230   -0.0709 H   0  0  0  0  0  0  0  0  0  0  0  0
    2.4719    0.1452   -0.0033 H   0  0  0  0  0  0  0  0  0  0  0  0
    1.3356   -2.0855   -0.0210 H   0  0  0  0  0  0  0  0  0  0  0  0
    0.6754    3.1687   -0.0274 H   0  0  0  0  0  0  0  0  0  0  0  0
   -2.1663   -2.4091   -0.0702 H   0  0  0  0  0  0  0  0  0  0  0  0
  1  5  1  0  0  0  0
  2  1  2  0  0  0  0
  2  6  1  0  0  0  0
  3 11  1  0  0  0  0
  4 12  1  0  0  0  0
  4  3  1  0  0  0  0
  5  3  2  0  0  0  0
  5  7  1  0  0  0  0
  6  4  2  0  0  0  0
  8  6  1  0  0  0  0
  9  1  1  0  0  0  0
 10  2  1  0  0  0  0
 13  7  1  0  0  0  0
 14  8  1  0  0  0  0
M  END
>  <HBA>
2

>  <HBD>
2

>  <TPSA>
40.46

>  <cid>
785

>  <dipole>
2.68

>  <excitation_energy_1>
4.621

>  <excitation_energy_2>
4.788

>  <excitation_energy_3>
4.847

>  <excitation_energy_4>
5.629

>  <homo_energy>
-5.418

>  <homo_lumo_gap>
5.358

>  <logP>
1.098

>  <lumo_energy>
-0.06

>  <melting_point>
84.26

>  <molecular_refractivity>
30.49

>  <oscillator_strength_1>
0.063

>  <oscillator_strength_2>
0.0

>  <oscillator_strength_3>
0.0003

>  <oscillator_strength_4>
0.0

>  <open_babel_can_smiles>
Oc1ccc(cc1)O

>  <mulliken_charges>
14
1   -0.198747
2   -0.198971
3   -0.163407
4   -0.163617
5   0.346509
6   0.346872
7   -0.649662
8   -0.649744
9   0.118919
10   0.118893
11   0.141926
12   0.141974
13   0.404526
14   0.40453

>  <lowdin_charges>
14
1   -0.205242
2   -0.20183
3   -0.17001
4   -0.17271
5   0.086172
6   0.085354
7   -0.388614
8   -0.38529
9   0.154103
10   0.151651
11   0.166874
12   0.169185
13   0.356652
14   0.353705

$$$$

