PCCDB-ID:  17
public computational chemistry database (PCCDB) project, http://pccdb.org

 19 19  0  0  1  0  0  0  0  0999 V2000
    1.4110   -0.4019   -0.6667 C   0  0  0  0  0  0  0  0  0  0  0  0
    0.9659    0.8421   -0.9038 C   0  0  0  0  0  0  0  0  0  0  0  0
    0.6873   -1.3023    0.3004 C   0  0  0  0  0  0  0  0  0  0  0  0
   -0.2258    1.3079   -0.1823 C   0  0  0  0  0  0  0  0  0  0  0  0
   -0.7916   -0.9008    0.3832 C   0  0  1  0  0  0  0  0  0  0  0  0
   -0.4885    2.7952   -0.1919 C   0  0  0  0  0  0  0  0  0  0  0  0
   -1.5132   -1.5853    1.5591 C   0  0  0  0  0  0  0  0  0  0  0  0
   -1.0407    0.5418    0.4454 N   0  0  0  0  0  0  0  0  0  0  0  0
   -1.5225    3.1625    0.5855 O   0  0  0  0  0  0  0  0  0  0  0  0
    0.1717    3.5747   -0.8464 O   0  0  0  0  0  0  0  0  0  0  0  0
   -1.2809   -2.7261    1.8811 O   0  0  0  0  0  0  0  0  0  0  0  0
   -2.4312   -0.8212    2.1677 O   0  0  0  0  0  0  0  0  0  0  0  0
    2.3337   -0.7556   -1.1210 H   0  0  0  0  0  0  0  0  0  0  0  0
    1.4812    1.5450   -1.5473 H   0  0  0  0  0  0  0  0  0  0  0  0
    1.1668   -1.2383    1.2899 H   0  0  0  0  0  0  0  0  0  0  0  0
    0.7564   -2.3528    0.0069 H   0  0  0  0  0  0  0  0  0  0  0  0
   -1.3021   -1.2559   -0.5289 H   0  0  0  0  0  0  0  0  0  0  0  0
   -1.5949    4.1315    0.4949 H   0  0  0  0  0  0  0  0  0  0  0  0
   -2.3662    0.0737    1.7596 H   0  0  0  0  0  0  0  0  0  0  0  0
  1  3  1  0  0  0  0
  2  1  2  0  0  0  0
  2  4  1  0  0  0  0
  3  5  1  0  0  0  0
  3 15  1  0  0  0  0
  4  8  2  0  0  0  0
  5 17  1  6  0  0  0
  5  8  1  0  0  0  0
  5  7  1  0  0  0  0
  6  4  1  0  0  0  0
  6  9  1  0  0  0  0
  7 11  2  0  0  0  0
  7 12  1  0  0  0  0
 10  6  2  0  0  0  0
 13  1  1  0  0  0  0
 14  2  1  0  0  0  0
 16  3  1  0  0  0  0
 18  9  1  0  0  0  0
 19 12  1  0  0  0  0
M  END
>  <HBA>
5

>  <HBD>
2

>  <TPSA>
86.96

>  <cid>
17

>  <dipole>
3.78

>  <excitation_energy_1>
3.738

>  <excitation_energy_2>
3.977

>  <excitation_energy_3>
4.289

>  <excitation_energy_4>
4.808

>  <homo_energy>
-7.168

>  <homo_lumo_gap>
4.542

>  <logP>
-0.639

>  <lumo_energy>
-2.626

>  <melting_point>
177.32

>  <molecular_refractivity>
43.73

>  <oscillator_strength_1>
0.0065

>  <oscillator_strength_2>
0.0231

>  <oscillator_strength_3>
0.0393

>  <oscillator_strength_4>
0.0066

>  <open_babel_can_smiles>
OC(=O)[C@@H]1CC=CC(=N1)C(=O)O

>  <mulliken_charges>
19
1   -0.112962
2   -0.128314
3   -0.313411
4   0.258353
5   -0.086313
6   0.563917
7   0.60966
8   -0.502468
9   -0.554034
10   -0.452082
11   -0.462631
12   -0.576869
13   0.160409
14   0.175415
15   0.180514
16   0.189359
17   0.195431
18   0.41929
19   0.436734

>  <lowdin_charges>
19
1   -0.108858
2   -0.194792
3   -0.2774
4   0.038684
5   -0.105831
6   0.188825
7   0.179133
8   -0.162436
9   -0.327236
10   -0.251019
11   -0.250475
12   -0.34259
13   0.170713
14   0.186681
15   0.169821
16   0.179123
17   0.178094
18   0.366905
19   0.362659

$$$$

