PCCDB-ID:  1119
public computational chemistry database (PCCDB) project, http://pccdb.org

  3  2  0  0  0  0  0  0  0  0999 V2000
    0.9553   -0.0631   -0.1190 O   0  0  0  0  0  0  0  0  0  0  0  0
    3.0157    0.6332    1.1608 O   0  0  0  0  0  0  0  0  0  0  0  0
    2.4138   -0.0044   -0.0112 S   0  0  0  0  0  0  0  0  0  0  0  0
  1  3  2  0  0  0  0
  3  2  2  0  0  0  0
M  END
>  <HBA>
3

>  <HBD>
0

>  <TPSA>
66.23

>  <cid>
1119

>  <dipole>
1.78

>  <excitation_energy_1>
3.815

>  <excitation_energy_2>
4.157

>  <excitation_energy_3>
6.069

>  <excitation_energy_4>
7.925

>  <homo_energy>
-8.985

>  <homo_lumo_gap>
5.369

>  <logP>
0.411

>  <lumo_energy>
-3.616

>  <melting_point>
29.64

>  <molecular_refractivity>
8.96

>  <oscillator_strength_1>
0.0045

>  <oscillator_strength_2>
0.0

>  <oscillator_strength_3>
0.0665

>  <oscillator_strength_4>
0.0016

>  <open_babel_can_smiles>
O=S=O

>  <mulliken_charges>
3
1   -0.40931
2   -0.409318
3   0.818629

>  <lowdin_charges>
3
1   -0.472387
2   -0.471374
3   0.943761

$$$$

