PCCDB-ID:  760
public computational chemistry database (PCCDB) project, http://pccdb.org

  7  6  0  0  0  0  0  0  0  0999 V2000
    0.6989   -0.1300   -0.4198 C   0  0  0  0  0  0  0  0  0  0  0  0
    0.1714   -0.8451    0.8283 C   0  0  0  0  0  0  0  0  0  0  0  0
    1.7972   -0.3032   -0.8831 O   0  0  0  0  0  0  0  0  0  0  0  0
    1.0630   -1.6921    1.3624 O   0  0  0  0  0  0  0  0  0  0  0  0
   -0.9423   -0.6366    1.2543 O   0  0  0  0  0  0  0  0  0  0  0  0
   -0.0491    0.5656   -0.8470 H   0  0  0  0  0  0  0  0  0  0  0  0
    0.6374   -2.0935    2.1441 H   0  0  0  0  0  0  0  0  0  0  0  0
  1  2  1  0  0  0  0
  2  5  2  0  0  0  0
  2  4  1  0  0  0  0
  3  1  2  0  0  0  0
  4  7  1  0  0  0  0
  6  1  1  0  0  0  0
M  END
>  <HBA>
3

>  <HBD>
1

>  <TPSA>
54.37

>  <cid>
760

>  <dipole>
1.29

>  <excitation_energy_1>
3.212

>  <excitation_energy_2>
4.773

>  <excitation_energy_3>
6.191

>  <excitation_energy_4>
6.781

>  <homo_energy>
-7.543

>  <homo_lumo_gap>
4.917

>  <logP>
-0.73

>  <lumo_energy>
-2.626

>  <melting_point>
84.98

>  <molecular_refractivity>
13.7

>  <oscillator_strength_1>
0.0

>  <oscillator_strength_2>
0.0001

>  <oscillator_strength_3>
0.0487

>  <oscillator_strength_4>
0.0573

>  <open_babel_can_smiles>
O=CC(=O)O

>  <mulliken_charges>
7
1   0.205424
2   0.523698
3   -0.332801
4   -0.534092
5   -0.433284
6   0.150578
7   0.420477

>  <lowdin_charges>
7
1   0.031937
2   0.151291
3   -0.152179
4   -0.318807
5   -0.231163
6   0.147636
7   0.371285

$$$$

