PCCDB-ID:  4703
public computational chemistry database (PCCDB) project, http://pccdb.org

 23 23  0  0  0  0  0  0  0  0999 V2000
    0.3429    0.2959    0.1779 C   0  0  0  0  0  0  0  0  0  0  0  0
    2.6605   -0.5660    0.7381 C   0  0  0  0  0  0  0  0  0  0  0  0
    2.4598    1.1503   -0.9276 C   0  0  0  0  0  0  0  0  0  0  0  0
    4.0435   -0.5555    0.5966 C   0  0  0  0  0  0  0  0  0  0  0  0
    3.8427    1.1551   -1.0842 C   0  0  0  0  0  0  0  0  0  0  0  0
    6.1144    0.3470   -0.5702 C   0  0  0  0  0  0  0  0  0  0  0  0
    1.8410    0.2932   -0.0092 C   0  0  0  0  0  0  0  0  0  0  0  0
    4.6683    0.3221   -0.3073 C   0  0  0  0  0  0  0  0  0  0  0  0
    7.1892    0.1752    0.2371 C   0  0  0  0  0  0  0  0  0  0  0  0
    7.2274    0.0952    1.7239 C   0  0  0  0  0  0  0  0  0  0  0  0
    6.0930    0.4885    2.3453 O   0  0  0  0  0  0  0  0  0  0  0  0
    8.2210   -0.2327    2.3430 O   0  0  0  0  0  0  0  0  0  0  0  0
    8.8703    0.0776   -0.3799 S   0  0  0  0  0  0  0  0  0  0  0  0
   -0.0395   -0.7124    0.3712 H   0  0  0  0  0  0  0  0  0  0  0  0
   -0.1715    0.6902   -0.7045 H   0  0  0  0  0  0  0  0  0  0  0  0
    0.0513    0.9210    1.0327 H   0  0  0  0  0  0  0  0  0  0  0  0
    2.2040   -1.2642    1.4363 H   0  0  0  0  0  0  0  0  0  0  0  0
    1.8505    1.8155   -1.5350 H   0  0  0  0  0  0  0  0  0  0  0  0
    4.6445   -1.2482    1.1741 H   0  0  0  0  0  0  0  0  0  0  0  0
    4.2965    1.8219   -1.8139 H   0  0  0  0  0  0  0  0  0  0  0  0
    6.3447    0.5248   -1.6211 H   0  0  0  0  0  0  0  0  0  0  0  0
    6.2852    0.4201    3.2996 H   0  0  0  0  0  0  0  0  0  0  0  0
    8.5356    0.2068   -1.6817 H   0  0  0  0  0  0  0  0  0  0  0  0
  1 14  1  0  0  0  0
  1 16  1  0  0  0  0
  2 17  1  0  0  0  0
  3  7  1  0  0  0  0
  4  2  1  0  0  0  0
  4 19  1  0  0  0  0
  5  3  2  0  0  0  0
  5  8  1  0  0  0  0
  6  8  1  0  0  0  0
  6  9  2  0  0  0  0
  7  1  1  0  0  0  0
  7  2  2  0  0  0  0
  8  4  2  0  0  0  0
  9 10  1  0  0  0  0
 10 12  2  0  0  0  0
 10 11  1  0  0  0  0
 11 22  1  0  0  0  0
 13  9  1  0  0  0  0
 15  1  1  0  0  0  0
 18  3  1  0  0  0  0
 20  5  1  0  0  0  0
 21  6  1  0  0  0  0
 23 13  1  0  0  0  0
M  END
>  <HBA>
3

>  <HBD>
2

>  <TPSA>
76.1

>  <cid>
4703

>  <dipole>
3.87

>  <excitation_energy_1>
3.512

>  <excitation_energy_2>
4.288

>  <excitation_energy_3>
4.521

>  <excitation_energy_4>
4.666

>  <homo_energy>
-5.815

>  <homo_lumo_gap>
4.033

>  <logP>
2.35

>  <lumo_energy>
-1.782

>  <melting_point>
131.85

>  <molecular_refractivity>
56.01

>  <oscillator_strength_1>
0.3751

>  <oscillator_strength_2>
0.0087

>  <oscillator_strength_3>
0.0223

>  <oscillator_strength_4>
0.0007

>  <open_babel_can_smiles>
S/C(=C/c1ccc(cc1)C)/C(=O)O

>  <mulliken_charges>
23
1   -0.53093
2   -0.187964
3   -0.18291
4   -0.143344
5   -0.180153
6   -0.214375
7   0.181195
8   0.170953
9   -0.130831
10   0.572731
11   -0.56636
12   -0.456215
13   0.030007
14   0.160847
15   0.158467
16   0.169329
17   0.125942
18   0.126487
19   0.133582
20   0.130575
21   0.143265
22   0.414112
23   0.075588

>  <lowdin_charges>
23
1   -0.442923
2   -0.167952
3   -0.169366
4   -0.139851
5   -0.152924
6   -0.142899
7   0.009092
8   -0.009902
9   -0.163467
10   0.192735
11   -0.338568
12   -0.256758
13   0.029326
14   0.159808
15   0.159573
16   0.164958
17   0.157661
18   0.158283
19   0.16336
20   0.158919
21   0.163087
22   0.363468
23   0.104341

$$$$

