PCCDB-ID:  5448
public computational chemistry database (PCCDB) project, http://pccdb.org

 14 14  0  0  0  0  0  0  0  0999 V2000
   -1.1977    0.1773    0.0700 C   0  0  0  0  0  0  0  0  0  0  0  0
   -1.0914   -2.4095   -0.1687 C   0  0  0  0  0  0  0  0  0  0  0  0
   -0.5433   -1.0134   -0.0902 C   0  0  0  0  0  0  0  0  0  0  0  0
   -0.2557    1.2586    0.1344 C   0  0  0  0  0  0  0  0  0  0  0  0
   -0.1609   -3.2720   -0.9003 N   0  0  0  0  0  0  0  0  0  0  0  0
    1.0147    0.9623    0.0225 N   0  0  0  0  0  0  0  0  0  0  0  0
   -0.5942    2.5658    0.2944 O   0  0  0  0  0  0  0  0  0  0  0  0
    1.1642   -0.7037   -0.1649 S   0  0  0  0  0  0  0  0  0  0  0  0
   -2.2755    0.2883    0.1385 H   0  0  0  0  0  0  0  0  0  0  0  0
   -2.1150   -2.3699   -0.5811 H   0  0  0  0  0  0  0  0  0  0  0  0
   -1.1818   -2.8158    0.8475 H   0  0  0  0  0  0  0  0  0  0  0  0
   -0.1779   -3.0494   -1.8937 H   0  0  0  0  0  0  0  0  0  0  0  0
   -0.4307   -4.2484   -0.8058 H   0  0  0  0  0  0  0  0  0  0  0  0
   -1.5583    2.6296    0.3655 H   0  0  0  0  0  0  0  0  0  0  0  0
  1  4  1  0  0  0  0
  1  9  1  0  0  0  0
  2  3  1  0  0  0  0
  2 11  1  0  0  0  0
  3  1  2  0  0  0  0
  4  7  1  0  0  0  0
  5 13  1  0  0  0  0
  5  2  1  0  0  0  0
  6  4  2  0  0  0  0
  7 14  1  0  0  0  0
  8  3  1  0  0  0  0
  8  6  1  0  0  0  0
 10  2  1  0  0  0  0
 12  5  1  0  0  0  0
M  END
>  <HBA>
3

>  <HBD>
2

>  <TPSA>
87.12

>  <cid>
5448

>  <dipole>
5.83

>  <excitation_energy_1>
5.045

>  <excitation_energy_2>
5.094

>  <excitation_energy_3>
5.411

>  <excitation_energy_4>
5.528

>  <homo_energy>
-6.174

>  <homo_lumo_gap>
5.663

>  <logP>
0.595

>  <lumo_energy>
-0.512

>  <melting_point>
143.35

>  <molecular_refractivity>
32.61

>  <oscillator_strength_1>
0.0814

>  <oscillator_strength_2>
0.0005

>  <oscillator_strength_3>
0.0235

>  <oscillator_strength_4>
0.0141

>  <open_babel_can_smiles>
NCc1cc(ns1)O

>  <mulliken_charges>
14
1   -0.182331
2   -0.186549
3   -0.118373
4   0.462466
5   -0.718325
6   -0.534412
7   -0.603466
8   0.397962
9   0.131931
10   0.141831
11   0.17683
12   0.312358
13   0.310124
14   0.409953

>  <lowdin_charges>
14
1   -0.262516
2   -0.19478
3   -0.151405
4   0.10307
5   -0.539048
6   -0.359072
7   -0.358337
8   0.419655
9   0.161013
10   0.135496
11   0.163489
12   0.261685
13   0.26214
14   0.35861

$$$$

