PCCDB-ID:  970
public computational chemistry database (PCCDB) project, http://pccdb.org

 13 12  0  0  0  0  0  0  0  0999 V2000
    1.4571    0.7206   -0.0696 C   0  0  0  0  0  0  0  0  0  0  0  0
    0.9357    1.3290    1.2082 C   0  0  0  0  0  0  0  0  0  0  0  0
    2.7952   -0.0407   -0.0036 C   0  0  0  0  0  0  0  0  0  0  0  0
   -0.5904    1.5539    1.2619 C   0  0  0  0  0  0  0  0  0  0  0  0
    1.6351    1.6589    2.1493 O   0  0  0  0  0  0  0  0  0  0  0  0
    3.0647   -0.8707   -0.8344 O   0  0  0  0  0  0  0  0  0  0  0  0
    3.6471    0.3015    0.9737 O   0  0  0  0  0  0  0  0  0  0  0  0
   -0.9648    2.1639    2.3923 O   0  0  0  0  0  0  0  0  0  0  0  0
   -1.3337    1.2158    0.3690 O   0  0  0  0  0  0  0  0  0  0  0  0
    1.5963    1.5499   -0.7819 H   0  0  0  0  0  0  0  0  0  0  0  0
    0.7050    0.0750   -0.5264 H   0  0  0  0  0  0  0  0  0  0  0  0
    3.2112    0.9333    1.5887 H   0  0  0  0  0  0  0  0  0  0  0  0
   -1.9347    2.2704    2.3494 H   0  0  0  0  0  0  0  0  0  0  0  0
  1  3  1  0  0  0  0
  1  2  1  0  0  0  0
  2  4  1  0  0  0  0
  2  5  2  0  0  0  0
  3  7  1  0  0  0  0
  4  8  1  0  0  0  0
  6  3  2  0  0  0  0
  7 12  1  0  0  0  0
  9  4  2  0  0  0  0
 10  1  1  0  0  0  0
 11  1  1  0  0  0  0
 13  8  1  0  0  0  0
M  END
>  <HBA>
5

>  <HBD>
2

>  <TPSA>
91.67

>  <cid>
970

>  <dipole>
4.99

>  <excitation_energy_1>
3.321

>  <excitation_energy_2>
3.822

>  <excitation_energy_3>
4.723

>  <excitation_energy_4>
4.945

>  <homo_energy>
-7.551

>  <homo_lumo_gap>
4.408

>  <logP>
-0.885

>  <lumo_energy>
-3.143

>  <melting_point>
150.47

>  <molecular_refractivity>
25.09

>  <oscillator_strength_1>
0.0017

>  <oscillator_strength_2>
0.0168

>  <oscillator_strength_3>
0.001

>  <oscillator_strength_4>
0.0

>  <open_babel_can_smiles>
OC(=O)CC(=O)C(=O)O

>  <mulliken_charges>
13
1   -0.487814
2   0.412528
3   0.610098
4   0.54295
5   -0.435558
6   -0.437923
7   -0.573432
8   -0.532299
9   -0.428709
10   0.230059
11   0.234449
12   0.438096
13   0.427555

>  <lowdin_charges>
13
1   -0.349727
2   0.151361
3   0.192115
4   0.16454
5   -0.191434
6   -0.235862
7   -0.350419
8   -0.308205
9   -0.227535
10   0.211165
11   0.208662
12   0.36238
13   0.372959

$$$$

