PCCDB-ID:  874
public computational chemistry database (PCCDB) project, http://pccdb.org

 15 14  0  0  0  0  0  0  0  0999 V2000
    1.0245   -0.5533   -0.4752 C   0  0  0  0  0  0  0  0  0  0  0  0
    2.9039   -0.3024    1.2169 C   0  0  0  0  0  0  0  0  0  0  0  0
    2.4180   -0.1939   -0.0334 C   0  0  0  0  0  0  0  0  0  0  0  0
    2.1664   -0.7962    2.4143 C   0  0  0  0  0  0  0  0  0  0  0  0
    3.4030    0.3464   -1.0558 C   0  0  0  0  0  0  0  0  0  0  0  0
    1.0142   -1.1681    2.4419 O   0  0  0  0  0  0  0  0  0  0  0  0
    2.8977   -0.8113    3.5599 O   0  0  0  0  0  0  0  0  0  0  0  0
    4.5446    0.6429   -0.7927 O   0  0  0  0  0  0  0  0  0  0  0  0
    2.9421    0.4916   -2.3208 O   0  0  0  0  0  0  0  0  0  0  0  0
    0.4437   -0.9419    0.3599 H   0  0  0  0  0  0  0  0  0  0  0  0
    1.0485   -1.3182   -1.2645 H   0  0  0  0  0  0  0  0  0  0  0  0
    0.5009    0.3273   -0.8747 H   0  0  0  0  0  0  0  0  0  0  0  0
    3.9385    0.0072    1.3508 H   0  0  0  0  0  0  0  0  0  0  0  0
    3.8000   -0.4908    3.3969 H   0  0  0  0  0  0  0  0  0  0  0  0
    2.0117    0.2218   -2.3861 H   0  0  0  0  0  0  0  0  0  0  0  0
  1  3  1  0  0  0  0
  1 10  1  0  0  0  0
  2 13  1  0  0  0  0
  2  4  1  0  0  0  0
  3  2  2  0  0  0  0
  4  6  2  0  0  0  0
  4  7  1  0  0  0  0
  5  8  2  0  0  0  0
  5  3  1  0  0  0  0
  9  5  1  0  0  0  0
 11  1  1  0  0  0  0
 12  1  1  0  0  0  0
 14  7  1  0  0  0  0
 15  9  1  0  0  0  0
M  END
>  <HBA>
4

>  <HBD>
2

>  <TPSA>
74.6

>  <cid>
874

>  <dipole>
1.35

>  <excitation_energy_1>
3.975

>  <excitation_energy_2>
4.125

>  <excitation_energy_3>
5.26

>  <excitation_energy_4>
5.838

>  <homo_energy>
-7.793

>  <homo_lumo_gap>
5.241

>  <logP>
0.102

>  <lumo_energy>
-2.552

>  <melting_point>
141.63

>  <molecular_refractivity>
29.22

>  <oscillator_strength_1>
0.0

>  <oscillator_strength_2>
0.0

>  <oscillator_strength_3>
0.2575

>  <oscillator_strength_4>
0.0043

>  <open_babel_can_smiles>
OC(=O)/C=C(/C(=O)O)\C

>  <mulliken_charges>
15
1   -0.605906
2   -0.268988
3   0.114508
4   0.620578
5   0.568662
6   -0.450132
7   -0.568287
8   -0.443415
9   -0.572363
10   0.242676
11   0.173561
12   0.174071
13   0.173997
14   0.418478
15   0.42256

>  <lowdin_charges>
15
1   -0.473211
2   -0.189312
3   -0.004854
4   0.194147
5   0.188671
6   -0.238134
7   -0.343763
8   -0.23542
9   -0.341247
10   0.205348
11   0.167236
12   0.167933
13   0.179691
14   0.361761
15   0.361155

$$$$

