PCCDB-ID:  1178
public computational chemistry database (PCCDB) project, http://pccdb.org

 16 16  0  0  0  0  0  0  0  0999 V2000
    1.1854    0.2566    0.0191 C   0  0  0  0  0  0  0  0  0  0  0  0
    0.2323    1.2112    0.0446 C   0  0  0  0  0  0  0  0  0  0  0  0
    3.4335    1.5730    0.0223 C   0  0  0  0  0  0  0  0  0  0  0  0
    4.7584   -0.0998   -0.0293 C   0  0  0  0  0  0  0  0  0  0  0  0
    2.6086    0.4545    0.0068 C   0  0  0  0  0  0  0  0  0  0  0  0
   -1.1937    0.8125    0.0541 C   0  0  0  0  0  0  0  0  0  0  0  0
    4.7524    1.2224   -0.0004 N   0  0  0  0  0  0  0  0  0  0  0  0
    3.5008   -0.6118   -0.0268 N   0  0  0  0  0  0  0  0  0  0  0  0
   -1.5872   -0.3333    0.0363 O   0  0  0  0  0  0  0  0  0  0  0  0
   -2.0970    1.8344    0.0839 O   0  0  0  0  0  0  0  0  0  0  0  0
    0.8247   -0.7719    0.0067 H   0  0  0  0  0  0  0  0  0  0  0  0
    0.4938    2.2677    0.0573 H   0  0  0  0  0  0  0  0  0  0  0  0
    3.1318    2.6117    0.0486 H   0  0  0  0  0  0  0  0  0  0  0  0
    5.6409   -0.7248   -0.0541 H   0  0  0  0  0  0  0  0  0  0  0  0
    3.2487   -1.5905   -0.0440 H   0  0  0  0  0  0  0  0  0  0  0  0
   -1.6370    2.6893    0.0986 H   0  0  0  0  0  0  0  0  0  0  0  0
  1  2  2  0  0  0  0
  2  6  1  0  0  0  0
  2 12  1  0  0  0  0
  3 13  1  0  0  0  0
  4  8  1  0  0  0  0
  4  7  2  0  0  0  0
  5  1  1  0  0  0  0
  5  3  2  0  0  0  0
  6 10  1  0  0  0  0
  7  3  1  0  0  0  0
  8  5  1  0  0  0  0
  9  6  2  0  0  0  0
 10 16  1  0  0  0  0
 11  1  1  0  0  0  0
 14  4  1  0  0  0  0
 15  8  1  0  0  0  0
M  END
>  <HBA>
3

>  <HBD>
2

>  <TPSA>
65.98

>  <cid>
1178

>  <dipole>
2.73

>  <excitation_energy_1>
4.167

>  <excitation_energy_2>
4.312

>  <excitation_energy_3>
4.891

>  <excitation_energy_4>
5.361

>  <homo_energy>
-6.253

>  <homo_lumo_gap>
4.367

>  <logP>
0.507

>  <lumo_energy>
-1.886

>  <melting_point>
166.11

>  <molecular_refractivity>
35.26

>  <oscillator_strength_1>
0.5755

>  <oscillator_strength_2>
0.0

>  <oscillator_strength_3>
0.0001

>  <oscillator_strength_4>
0.0023

>  <open_babel_can_smiles>
OC(=O)/C=C/c1cnc[nH]1

>  <mulliken_charges>
16
1   -0.13925
2   -0.246037
3   -0.056794
4   0.22283
5   0.326998
6   0.608027
7   -0.417268
8   -0.615299
9   -0.466722
10   -0.58523
11   0.172493
12   0.128961
13   0.145771
14   0.170526
15   0.344598
16   0.406396

>  <lowdin_charges>
16
1   -0.102389
2   -0.234162
3   -0.133486
4   -0.076907
5   -0.014414
6   0.191336
7   -0.173088
8   -0.167026
9   -0.26047
10   -0.358216
11   0.179096
12   0.153717
13   0.165528
14   0.175388
15   0.299351
16   0.355741

$$$$

