PCCDB-ID:  3464
public computational chemistry database (PCCDB) project, http://pccdb.org

 28 27  0  0  1  0  0  0  0  0999 V2000
    3.5985    1.1956   -0.0182 C   0  0  0  0  0  0  0  0  0  0  0  0
    2.2675    1.1760   -0.7774 C   0  0  0  0  0  0  0  0  0  0  0  0
    1.9167   -2.4941    0.4712 C   0  0  0  0  0  0  0  0  0  0  0  0
    1.4941   -1.5838   -0.6995 C   0  0  1  0  0  0  0  0  0  0  0  0
    2.5436   -3.8033    0.0032 C   0  0  0  0  0  0  0  0  0  0  0  0
    0.3732   -2.1195   -1.5735 C   0  0  0  0  0  0  0  0  0  0  0  0
    4.9513   -0.5664   -1.0925 C   0  0  0  0  0  0  0  0  0  0  0  0
    4.8713    0.0849   -2.1987 N   0  0  0  0  0  0  0  0  0  0  0  0
    5.6707   -1.7324   -0.8193 N   0  0  0  0  0  0  0  0  0  0  0  0
    4.2673   -0.1023    0.0343 N   0  0  0  0  0  0  0  0  0  0  0  0
    3.7408   -3.9948   -0.0319 O   0  0  0  0  0  0  0  0  0  0  0  0
    1.6903   -4.7624   -0.4100 O   0  0  0  0  0  0  0  0  0  0  0  0
    0.2074   -1.8716   -2.7405 O   0  0  0  0  0  0  0  0  0  0  0  0
   -0.4854   -2.9420   -0.8795 O   0  0  0  0  0  0  0  0  0  0  0  0
    0.9655    0.0841   -0.0679 S   0  0  0  0  0  0  0  0  0  0  0  0
    3.4210    1.5073    1.0156 H   0  0  0  0  0  0  0  0  0  0  0  0
    4.2399    1.9441   -0.5048 H   0  0  0  0  0  0  0  0  0  0  0  0
    2.4276    0.9124   -1.8244 H   0  0  0  0  0  0  0  0  0  0  0  0
    1.8247    2.1779   -0.7504 H   0  0  0  0  0  0  0  0  0  0  0  0
    1.0568   -2.6884    1.1205 H   0  0  0  0  0  0  0  0  0  0  0  0
    2.6723   -1.9567    1.0423 H   0  0  0  0  0  0  0  0  0  0  0  0
    2.3371   -1.4014   -1.3671 H   0  0  0  0  0  0  0  0  0  0  0  0
    5.3350   -0.4223   -2.9538 H   0  0  0  0  0  0  0  0  0  0  0  0
    6.0938   -2.1409   -1.6444 H   0  0  0  0  0  0  0  0  0  0  0  0
    5.1490   -2.4393   -0.2992 H   0  0  0  0  0  0  0  0  0  0  0  0
    4.7737   -0.2761    0.8937 H   0  0  0  0  0  0  0  0  0  0  0  0
    0.7745   -4.4230   -0.3695 H   0  0  0  0  0  0  0  0  0  0  0  0
   -1.1920   -3.1815   -1.5100 H   0  0  0  0  0  0  0  0  0  0  0  0
  1 10  1  0  0  0  0
  1 16  1  0  0  0  0
  2 19  1  0  0  0  0
  2 15  1  0  0  0  0
  2  1  1  0  0  0  0
  3 21  1  0  0  0  0
  3 20  1  0  0  0  0
  4 22  1  6  0  0  0
  4 15  1  0  0  0  0
  4  3  1  0  0  0  0
  5  3  1  0  0  0  0
  6 14  1  0  0  0  0
  6  4  1  0  0  0  0
  7  9  2  0  0  0  0
  7 10  1  0  0  0  0
  8  7  1  0  0  0  0
  9 25  1  0  0  0  0
 10 26  1  0  0  0  0
 11  5  2  0  0  0  0
 12 27  1  0  0  0  0
 12  5  1  0  0  0  0
 13  6  2  0  0  0  0
 17  1  1  0  0  0  0
 18  2  1  0  0  0  0
 23  8  1  0  0  0  0
 24  9  1  0  0  0  0
 28 14  1  0  0  0  0
M  RAD  1   8   2
M  END
>  <HBA>
8

>  <HBD>
4

>  <TPSA>
164.3

>  <cid>
3464

>  <dipole>
2.48

>  <excitation_energy_1>
4.35

>  <excitation_energy_2>
4.73

>  <excitation_energy_3>
5.064

>  <excitation_energy_4>
5.253

>  <homo_energy>
-6.283

>  <homo_lumo_gap>
5.388

>  <logP>
0.322

>  <lumo_energy>
-0.895

>  <melting_point>
262.42

>  <molecular_refractivity>
56.0

>  <oscillator_strength_1>
0.0126

>  <oscillator_strength_2>
0.0011

>  <oscillator_strength_3>
0.0117

>  <oscillator_strength_4>
0.0022

>  <open_babel_can_smiles>
[NH]C(=[NH2])NCCS[C@H](C(=O)O)CC(=O)O

>  <mulliken_charges>
28
1   -0.102801
2   -0.431291
3   -0.369699
4   -0.354769
5   0.58556
6   0.594452
7   0.559302
8   -0.648702
9   -0.778057
10   -0.596378
11   -0.455627
12   -0.568522
13   -0.430179
14   -0.594661
15   0.11851
16   0.145391
17   0.171572
18   0.225309
19   0.178373
20   0.180697
21   0.195702
22   0.238045
23   0.270719
24   0.318301
25   0.363643
26   0.329241
27   0.433028
28   0.422841

>  <lowdin_charges>
28
1   -0.196783
2   -0.376533
3   -0.323161
4   -0.244812
5   0.194554
6   0.187133
7   0.119342
8   -0.487253
9   -0.517064
10   -0.313424
11   -0.257684
12   -0.348519
13   -0.228345
14   -0.380077
15   0.122273
16   0.150548
17   0.159256
18   0.185195
19   0.173261
20   0.170883
21   0.185563
22   0.19932
23   0.251585
24   0.276812
25   0.28974
26   0.280816
27   0.357285
28   0.370091

$$$$

