PCCDB-ID:  4624
public computational chemistry database (PCCDB) project, http://pccdb.org

 23 23  0  0  0  0  0  0  0  0999 V2000
    0.9843    0.0839   -0.0562 C   0  0  0  0  0  0  0  0  0  0  0  0
    0.2850   -0.0886   -1.4151 C   0  0  0  0  0  0  0  0  0  0  0  0
    3.2271    1.2715   -0.1798 C   0  0  0  0  0  0  0  0  0  0  0  0
    4.6063   -1.1124   -0.3500 C   0  0  0  0  0  0  0  0  0  0  0  0
    2.4923    0.0783   -0.1549 C   0  0  0  0  0  0  0  0  0  0  0  0
    3.2112   -1.1198   -0.2448 C   0  0  0  0  0  0  0  0  0  0  0  0
    4.6155    1.3028   -0.2864 C   0  0  0  0  0  0  0  0  0  0  0  0
    5.3164    0.0883   -0.3729 C   0  0  0  0  0  0  0  0  0  0  0  0
   -1.1721   -0.0238   -1.2417 N   0  0  0  0  0  0  0  0  0  0  0  0
    2.4948   -2.2960   -0.2230 O   0  0  0  0  0  0  0  0  0  0  0  0
    5.3514    2.4603   -0.3080 O   0  0  0  0  0  0  0  0  0  0  0  0
    6.6785    0.1506   -0.4742 O   0  0  0  0  0  0  0  0  0  0  0  0
    0.6573   -0.7254    0.6096 H   0  0  0  0  0  0  0  0  0  0  0  0
    0.6388    1.0235    0.3895 H   0  0  0  0  0  0  0  0  0  0  0  0
    0.6439   -1.0206   -1.8832 H   0  0  0  0  0  0  0  0  0  0  0  0
    0.5813    0.7349   -2.0767 H   0  0  0  0  0  0  0  0  0  0  0  0
    2.6880    2.2155   -0.1061 H   0  0  0  0  0  0  0  0  0  0  0  0
    5.1514   -2.0543   -0.4168 H   0  0  0  0  0  0  0  0  0  0  0  0
   -1.4848   -0.8449   -0.7235 H   0  0  0  0  0  0  0  0  0  0  0  0
   -1.6278   -0.0809   -2.1515 H   0  0  0  0  0  0  0  0  0  0  0  0
    3.1139   -3.0405   -0.2596 H   0  0  0  0  0  0  0  0  0  0  0  0
    4.7389    3.2088   -0.2419 H   0  0  0  0  0  0  0  0  0  0  0  0
    7.0269   -0.7529   -0.5186 H   0  0  0  0  0  0  0  0  0  0  0  0
  1 14  1  0  0  0  0
  1 13  1  0  0  0  0
  2  9  1  0  0  0  0
  2  1  1  0  0  0  0
  3  5  1  0  0  0  0
  3 17  1  0  0  0  0
  4  6  1  0  0  0  0
  5  1  1  0  0  0  0
  6 10  1  0  0  0  0
  6  5  2  0  0  0  0
  7  3  2  0  0  0  0
  8  4  2  0  0  0  0
  8  7  1  0  0  0  0
  9 19  1  0  0  0  0
 11  7  1  0  0  0  0
 11 22  1  0  0  0  0
 12  8  1  0  0  0  0
 15  2  1  0  0  0  0
 16  2  1  0  0  0  0
 18  4  1  0  0  0  0
 20  9  1  0  0  0  0
 21 10  1  0  0  0  0
 23 12  1  0  0  0  0
M  END
>  <HBA>
4

>  <HBD>
4

>  <TPSA>
86.71

>  <cid>
4624

>  <dipole>
2.71

>  <excitation_energy_1>
4.359

>  <excitation_energy_2>
4.527

>  <excitation_energy_3>
4.571

>  <excitation_energy_4>
4.756

>  <homo_energy>
-5.108

>  <homo_lumo_gap>
5.342

>  <logP>
1.005

>  <lumo_energy>
0.234

>  <melting_point>
183.66

>  <molecular_refractivity>
44.99

>  <oscillator_strength_1>
0.0009

>  <oscillator_strength_2>
0.0939

>  <oscillator_strength_3>
0.0066

>  <oscillator_strength_4>
0.0006

>  <open_babel_can_smiles>
NCCc1cc(O)c(cc1O)O

>  <mulliken_charges>
23
1   -0.331539
2   -0.132962
3   -0.277984
4   -0.272094
5   0.134478
6   0.295642
7   0.328114
8   0.323727
9   -0.71793
10   -0.658761
11   -0.643255
12   -0.634987
13   0.148433
14   0.148267
15   0.13079
16   0.136258
17   0.116959
18   0.104128
19   0.292134
20   0.293612
21   0.40554
22   0.405638
23   0.405793

>  <lowdin_charges>
23
1   -0.273622
2   -0.204594
3   -0.202821
4   -0.260862
5   -0.040781
6   0.086541
7   0.060572
8   0.086075
9   -0.561648
10   -0.39175
11   -0.379592
12   -0.368851
13   0.153666
14   0.153447
15   0.126202
16   0.140929
17   0.154225
18   0.148089
19   0.25127
20   0.253129
21   0.356721
22   0.357885
23   0.35577

$$$$

