PCCDB-ID:  5541
public computational chemistry database (PCCDB) project, http://pccdb.org

 29 28  0  0  0  0  0  0  0  0999 V2000
    6.5855    0.0603   -1.8267 C   0  0  0  0  0  0  0  0  0  0  0  0
    7.1329   -2.3731    6.4874 C   0  0  0  0  0  0  0  0  0  0  0  0
    9.1566   -2.5075    1.4850 C   0  0  0  0  0  0  0  0  0  0  0  0
    4.8408   -1.5412    1.0166 C   0  0  0  0  0  0  0  0  0  0  0  0
    4.9850   -1.9759    3.4984 C   0  0  0  0  0  0  0  0  0  0  0  0
    6.1402   -1.0712   -0.9363 C   0  0  0  0  0  0  0  0  0  0  0  0
    6.2467   -2.8155    5.3483 C   0  0  0  0  0  0  0  0  0  0  0  0
    8.0299   -1.5286    1.6925 C   0  0  0  0  0  0  0  0  0  0  0  0
    5.7012   -1.4128    2.2758 C   0  0  0  0  0  0  0  0  0  0  0  0
    6.5213   -2.2188   -1.0071 O   0  0  0  0  0  0  0  0  0  0  0  0
    5.9691   -3.9603    5.0774 O   0  0  0  0  0  0  0  0  0  0  0  0
    8.0808   -0.3374    1.4766 O   0  0  0  0  0  0  0  0  0  0  0  0
    5.2628   -0.6186   -0.0013 O   0  0  0  0  0  0  0  0  0  0  0  0
    5.7861   -1.7310    4.6633 O   0  0  0  0  0  0  0  0  0  0  0  0
    6.9160   -2.1756    2.1252 O   0  0  0  0  0  0  0  0  0  0  0  0
    7.0456   -0.3425   -2.7300 H   0  0  0  0  0  0  0  0  0  0  0  0
    7.3260    0.6520   -1.2762 H   0  0  0  0  0  0  0  0  0  0  0  0
    5.7492    0.7173   -2.0786 H   0  0  0  0  0  0  0  0  0  0  0  0
    6.5896   -1.6874    7.1454 H   0  0  0  0  0  0  0  0  0  0  0  0
    8.0012   -1.8310    6.0984 H   0  0  0  0  0  0  0  0  0  0  0  0
    7.4624   -3.2475    7.0494 H   0  0  0  0  0  0  0  0  0  0  0  0
    9.2056   -3.2337    2.3008 H   0  0  0  0  0  0  0  0  0  0  0  0
   10.0993   -1.9666    1.3919 H   0  0  0  0  0  0  0  0  0  0  0  0
    8.9612   -3.0584    0.5578 H   0  0  0  0  0  0  0  0  0  0  0  0
    3.8058   -1.2654    1.2390 H   0  0  0  0  0  0  0  0  0  0  0  0
    4.8799   -2.5633    0.6328 H   0  0  0  0  0  0  0  0  0  0  0  0
    4.8062   -3.0489    3.3999 H   0  0  0  0  0  0  0  0  0  0  0  0
    4.0342   -1.4538    3.6454 H   0  0  0  0  0  0  0  0  0  0  0  0
    5.9626   -0.3633    2.4351 H   0  0  0  0  0  0  0  0  0  0  0  0
  1 17  1  0  0  0  0
  1  6  1  0  0  0  0
  2 21  1  0  0  0  0
  2 19  1  0  0  0  0
  3  8  1  0  0  0  0
  3 22  1  0  0  0  0
  4 25  1  0  0  0  0
  4  9  1  0  0  0  0
  5 28  1  0  0  0  0
  5 14  1  0  0  0  0
  6 13  1  0  0  0  0
  7  2  1  0  0  0  0
  8 15  1  0  0  0  0
  9 29  1  0  0  0  0
  9  5  1  0  0  0  0
 10  6  2  0  0  0  0
 11  7  2  0  0  0  0
 12  8  2  0  0  0  0
 13  4  1  0  0  0  0
 14  7  1  0  0  0  0
 15  9  1  0  0  0  0
 16  1  1  0  0  0  0
 18  1  1  0  0  0  0
 20  2  1  0  0  0  0
 23  3  1  0  0  0  0
 24  3  1  0  0  0  0
 26  4  1  0  0  0  0
 27  5  1  0  0  0  0
M  END
>  <HBA>
6

>  <HBD>
0

>  <TPSA>
78.9

>  <cid>
5541

>  <dipole>
1.87

>  <excitation_energy_1>
5.825

>  <excitation_energy_2>
5.836

>  <excitation_energy_3>
5.868

>  <excitation_energy_4>
6.765

>  <homo_energy>
-7.426

>  <homo_lumo_gap>
7.592

>  <logP>
0.044

>  <lumo_energy>
0.166

>  <melting_point>
8.77

>  <molecular_refractivity>
49.23

>  <oscillator_strength_1>
0.0005

>  <oscillator_strength_2>
0.0011

>  <oscillator_strength_3>
0.0007

>  <oscillator_strength_4>
0.0041

>  <open_babel_can_smiles>
CC(=O)OC(COC(=O)C)COC(=O)C

>  <mulliken_charges>
29
1   -0.530088
2   -0.524988
3   -0.532208
4   -0.068733
5   -0.068969
6   0.619842
7   0.603844
8   0.623905
9   0.086071
10   -0.477632
11   -0.455342
12   -0.480015
13   -0.451057
14   -0.457068
15   -0.458239
16   0.17979
17   0.207292
18   0.176922
19   0.183889
20   0.185507
21   0.184527
22   0.17977
23   0.178196
24   0.208024
25   0.155208
26   0.191714
27   0.194744
28   0.155703
29   0.18939

>  <lowdin_charges>
29
1   -0.466365
2   -0.466718
3   -0.464578
4   -0.142289
5   -0.141137
6   0.208067
7   0.203458
8   0.207659
9   -0.016114
10   -0.269225
11   -0.253896
12   -0.270358
13   -0.192598
14   -0.196825
15   -0.190118
16   0.175506
17   0.193067
18   0.175494
19   0.180357
20   0.180591
21   0.1775
22   0.176764
23   0.174205
24   0.192484
25   0.157456
26   0.170998
27   0.171574
28   0.156038
29   0.169003

$$$$

