PCCDB-ID:  1001
public computational chemistry database (PCCDB) project, http://pccdb.org

 20 20  0  0  0  0  0  0  0  0999 V2000
   -1.9999    0.0713    0.0976 C   0  0  0  0  0  0  0  0  0  0  0  0
   -1.2503    1.2482    0.1442 C   0  0  0  0  0  0  0  0  0  0  0  0
   -1.3457   -1.1568   -0.0128 C   0  0  0  0  0  0  0  0  0  0  0  0
    0.1427    1.1941    0.0831 C   0  0  0  0  0  0  0  0  0  0  0  0
    0.0477   -1.2045   -0.0744 C   0  0  0  0  0  0  0  0  0  0  0  0
    2.3256   -0.0856   -0.0499 C   0  0  0  0  0  0  0  0  0  0  0  0
    2.9372   -0.1962    1.3571 C   0  0  0  0  0  0  0  0  0  0  0  0
    0.8137   -0.0317   -0.0268 C   0  0  0  0  0  0  0  0  0  0  0  0
    4.4018   -0.1795    1.2783 N   0  0  0  0  0  0  0  0  0  0  0  0
   -3.0850    0.1115    0.1423 H   0  0  0  0  0  0  0  0  0  0  0  0
   -1.7503    2.2101    0.2244 H   0  0  0  0  0  0  0  0  0  0  0  0
   -1.9202   -2.0787   -0.0554 H   0  0  0  0  0  0  0  0  0  0  0  0
    0.7203    2.1158    0.1145 H   0  0  0  0  0  0  0  0  0  0  0  0
    0.5499   -2.1655   -0.1676 H   0  0  0  0  0  0  0  0  0  0  0  0
    2.6578   -0.9456   -0.6485 H   0  0  0  0  0  0  0  0  0  0  0  0
    2.7379    0.8096   -0.5292 H   0  0  0  0  0  0  0  0  0  0  0  0
    2.5179   -1.0872    1.8591 H   0  0  0  0  0  0  0  0  0  0  0  0
    2.6227    0.6712    1.9505 H   0  0  0  0  0  0  0  0  0  0  0  0
    4.7282   -1.0332    0.8256 H   0  0  0  0  0  0  0  0  0  0  0  0
    4.7969   -0.1938    2.2173 H   0  0  0  0  0  0  0  0  0  0  0  0
  1 10  1  0  0  0  0
  1  2  1  0  0  0  0
  2 11  1  0  0  0  0
  3  1  2  0  0  0  0
  4 13  1  0  0  0  0
  4  2  2  0  0  0  0
  5  8  2  0  0  0  0
  5  3  1  0  0  0  0
  6  8  1  0  0  0  0
  6  7  1  0  0  0  0
  7 17  1  0  0  0  0
  7 18  1  0  0  0  0
  8  4  1  0  0  0  0
  9  7  1  0  0  0  0
  9 20  1  0  0  0  0
 12  3  1  0  0  0  0
 14  5  1  0  0  0  0
 15  6  1  0  0  0  0
 16  6  1  0  0  0  0
 19  9  1  0  0  0  0
M  END
>  <HBA>
1

>  <HBD>
1

>  <TPSA>
26.02

>  <cid>
1001

>  <dipole>
1.36

>  <excitation_energy_1>
5.301

>  <excitation_energy_2>
5.618

>  <excitation_energy_3>
5.731

>  <excitation_energy_4>
5.816

>  <homo_energy>
-6.291

>  <homo_lumo_gap>
6.422

>  <logP>
1.888

>  <lumo_energy>
0.131

>  <melting_point>
60.74

>  <molecular_refractivity>
38.92

>  <oscillator_strength_1>
0.0009

>  <oscillator_strength_2>
0.0104

>  <oscillator_strength_3>
0.0137

>  <oscillator_strength_4>
0.0086

>  <open_babel_can_smiles>
NCCc1ccccc1

>  <mulliken_charges>
20
1   -0.131688
2   -0.127951
3   -0.127866
4   -0.181539
5   -0.180462
6   -0.340764
7   -0.129785
8   0.168382
9   -0.714598
10   0.126623
11   0.127393
12   0.12667
13   0.125136
14   0.119089
15   0.133517
16   0.157268
17   0.117968
18   0.144372
19   0.291585
20   0.296648

>  <lowdin_charges>
20
1   -0.15916
2   -0.155945
3   -0.156915
4   -0.167469
5   -0.168846
6   -0.278294
7   -0.203481
8   0.000276
9   -0.558742
10   0.154241
11   0.15645
12   0.156486
13   0.155575
14   0.15247
15   0.144868
16   0.157781
17   0.120281
18   0.145043
19   0.250801
20   0.254581

$$$$

