PCCDB-ID:  1271
public computational chemistry database (PCCDB) project, http://pccdb.org

 20 20  0  0  1  0  0  0  0  0999 V2000
    0.0004    1.0660   -0.1408 C   0  0  0  0  0  0  0  0  0  0  0  0
    0.8150   -0.1805    0.1018 C   0  0  2  0  0  0  0  0  0  0  0  0
   -0.6317   -0.2958   -0.3141 C   0  0  2  0  0  0  0  0  0  0  0  0
    1.2313   -0.6534    1.4766 C   0  0  1  0  0  0  0  0  0  0  0  0
   -0.9149   -0.9829   -1.6199 C   0  0  0  0  0  0  0  0  0  0  0  0
    1.5954   -2.1682    1.4942 C   0  0  0  0  0  0  0  0  0  0  0  0
    2.2930    0.1802    2.0366 N   0  0  0  0  0  0  0  0  0  0  0  0
   -0.5700   -2.1305   -1.8104 O   0  0  0  0  0  0  0  0  0  0  0  0
   -1.5810   -0.2952   -2.5674 O   0  0  0  0  0  0  0  0  0  0  0  0
    2.3548   -2.6000    2.3315 O   0  0  0  0  0  0  0  0  0  0  0  0
    1.0216   -2.9969    0.6027 O   0  0  0  0  0  0  0  0  0  0  0  0
    0.2511    1.6517   -1.0223 H   0  0  0  0  0  0  0  0  0  0  0  0
   -0.3094    1.6563    0.7163 H   0  0  0  0  0  0  0  0  0  0  0  0
    1.5348   -0.4062   -0.6859 H   0  0  0  0  0  0  0  0  0  0  0  0
   -1.3262   -0.6075    0.4658 H   0  0  0  0  0  0  0  0  0  0  0  0
    0.3635   -0.5601    2.1481 H   0  0  0  0  0  0  0  0  0  0  0  0
    3.0927    0.1625    1.4017 H   0  0  0  0  0  0  0  0  0  0  0  0
    2.6261   -0.2875    2.8809 H   0  0  0  0  0  0  0  0  0  0  0  0
   -1.7823    0.5947   -2.2305 H   0  0  0  0  0  0  0  0  0  0  0  0
    0.4931   -2.5564   -0.0967 H   0  0  0  0  0  0  0  0  0  0  0  0
  1  2  1  0  0  0  0
  1 13  1  0  0  0  0
  2 14  1  6  0  0  0
  2  4  1  0  0  0  0
  3  1  1  0  0  0  0
  3  2  1  0  0  0  0
  3 15  1  1  0  0  0
  4  6  1  0  0  0  0
  4  7  1  0  0  0  0
  4 16  1  1  0  0  0
  5  3  1  0  0  0  0
  6 10  2  0  0  0  0
  7 18  1  0  0  0  0
  8  5  2  0  0  0  0
  9 19  1  0  0  0  0
  9  5  1  0  0  0  0
 11  6  1  0  0  0  0
 12  1  1  0  0  0  0
 17  7  1  0  0  0  0
 20 11  1  0  0  0  0
M  END
>  <HBA>
5

>  <HBD>
3

>  <TPSA>
100.62

>  <cid>
1271

>  <dipole>
6.16

>  <excitation_energy_1>
5.262

>  <excitation_energy_2>
5.519

>  <excitation_energy_3>
5.583

>  <excitation_energy_4>
5.866

>  <homo_energy>
-6.789

>  <homo_lumo_gap>
6.049

>  <logP>
-0.181

>  <lumo_energy>
-0.74

>  <melting_point>
204.58

>  <molecular_refractivity>
35.09

>  <oscillator_strength_1>
0.0007

>  <oscillator_strength_2>
0.0

>  <oscillator_strength_3>
0.0005

>  <oscillator_strength_4>
0.0037

>  <open_babel_can_smiles>
N[C@@H]([C@@H]1C[C@H]1C(=O)O)C(=O)O

>  <mulliken_charges>
20
1   -0.327265
2   -0.120902
3   -0.276903
4   -0.090632
5   0.605446
6   0.57458
7   -0.697358
8   -0.441723
9   -0.54742
10   -0.457832
11   -0.590621
12   0.166105
13   0.183591
14   0.170947
15   0.199005
16   0.162367
17   0.296894
18   0.321811
19   0.423194
20   0.446718

>  <lowdin_charges>
20
1   -0.305396
2   -0.151185
3   -0.213772
4   -0.101763
5   0.195577
6   0.169565
7   -0.536996
8   -0.24068
9   -0.32529
10   -0.25605
11   -0.351459
12   0.167909
13   0.179071
14   0.166861
15   0.185086
16   0.160654
17   0.256786
18   0.270078
19   0.368266
20   0.362739

$$$$

