PCCDB-ID:  3521
public computational chemistry database (PCCDB) project, http://pccdb.org

 30 29  0  0  0  0  0  0  0  0999 V2000
    0.8933   -0.0037   -0.9027 C   0  0  0  0  0  0  0  0  0  0  0  0
   -0.0857    5.8610    0.0618 C   0  0  0  0  0  0  0  0  0  0  0  0
    0.9929    1.2363   -0.0159 C   0  0  0  0  0  0  0  0  0  0  0  0
    0.5256    4.9106    1.0929 C   0  0  0  0  0  0  0  0  0  0  0  0
   -0.2869   -2.1411   -1.0276 C   0  0  0  0  0  0  0  0  0  0  0  0
    0.9916    8.0141    0.5735 C   0  0  0  0  0  0  0  0  0  0  0  0
    0.6254   -2.5827   -1.8163 N   0  0  0  0  0  0  0  0  0  0  0  0
   -1.4753   -2.7877   -0.6485 N   0  0  0  0  0  0  0  0  0  0  0  0
    0.4537    7.9984    1.7390 N   0  0  0  0  0  0  0  0  0  0  0  0
    1.7392    9.0521   -0.0080 N   0  0  0  0  0  0  0  0  0  0  0  0
   -0.1822   -0.8788   -0.4576 N   0  0  0  0  0  0  0  0  0  0  0  0
    0.8450    6.9344   -0.2900 N   0  0  0  0  0  0  0  0  0  0  0  0
   -0.4998    2.3173   -0.2542 S   0  0  0  0  0  0  0  0  0  0  0  0
   -0.5532    3.4698    1.4826 S   0  0  0  0  0  0  0  0  0  0  0  0
    1.8279   -0.5676   -0.8363 H   0  0  0  0  0  0  0  0  0  0  0  0
    0.7845    0.2806   -1.9611 H   0  0  0  0  0  0  0  0  0  0  0  0
   -1.0239    6.2673    0.4581 H   0  0  0  0  0  0  0  0  0  0  0  0
   -0.3046    5.3078   -0.8564 H   0  0  0  0  0  0  0  0  0  0  0  0
    1.8885    1.8084   -0.2744 H   0  0  0  0  0  0  0  0  0  0  0  0
    1.0374    0.9541    1.0392 H   0  0  0  0  0  0  0  0  0  0  0  0
    0.6399    5.4316    2.0485 H   0  0  0  0  0  0  0  0  0  0  0  0
    1.5087    4.5584    0.7675 H   0  0  0  0  0  0  0  0  0  0  0  0
    0.4528   -3.5591   -2.0618 H   0  0  0  0  0  0  0  0  0  0  0  0
   -1.4879   -3.7750   -0.8736 H   0  0  0  0  0  0  0  0  0  0  0  0
   -1.7405   -2.6281    0.3182 H   0  0  0  0  0  0  0  0  0  0  0  0
    0.7239    8.8208    2.2802 H   0  0  0  0  0  0  0  0  0  0  0  0
    2.0341    9.7578    0.6559 H   0  0  0  0  0  0  0  0  0  0  0  0
    2.5216    8.7308   -0.5693 H   0  0  0  0  0  0  0  0  0  0  0  0
   -1.0720   -0.4057   -0.3384 H   0  0  0  0  0  0  0  0  0  0  0  0
    0.8176    7.2051   -1.2654 H   0  0  0  0  0  0  0  0  0  0  0  0
  1 15  1  0  0  0  0
  1 11  1  0  0  0  0
  1  3  1  0  0  0  0
  2 17  1  0  0  0  0
  2  4  1  0  0  0  0
  3 20  1  0  0  0  0
  4 14  1  0  0  0  0
  4 21  1  0  0  0  0
  5  8  2  0  0  0  0
  5 11  1  0  0  0  0
  6  9  1  0  0  0  0
  7  5  1  0  0  0  0
  8 25  1  0  0  0  0
  9 26  1  0  0  0  0
 10  6  2  0  0  0  0
 10 27  1  0  0  0  0
 11 29  1  0  0  0  0
 12  2  1  0  0  0  0
 12  6  1  0  0  0  0
 13  3  1  0  0  0  0
 13 14  1  0  0  0  0
 16  1  1  0  0  0  0
 18  2  1  0  0  0  0
 19  3  1  0  0  0  0
 22  4  1  0  0  0  0
 23  7  1  0  0  0  0
 24  8  1  0  0  0  0
 28 10  1  0  0  0  0
 30 12  1  0  0  0  0
M  RAD  2   7   2   9   2
M  END
>  <HBA>
8

>  <HBD>
4

>  <TPSA>
179.4

>  <cid>
3521

>  <dipole>
2.51

>  <excitation_energy_1>
4.499

>  <excitation_energy_2>
4.594

>  <excitation_energy_3>
4.95

>  <excitation_energy_4>
5.187

>  <homo_energy>
-6.019

>  <homo_lumo_gap>
5.412

>  <logP>
1.716

>  <lumo_energy>
-0.607

>  <melting_point>
244.1

>  <molecular_refractivity>
64.34

>  <oscillator_strength_1>
0.0058

>  <oscillator_strength_2>
0.002

>  <oscillator_strength_3>
0.0035

>  <oscillator_strength_4>
0.0061

>  <open_babel_can_smiles>
[NH]C(=[NH2])NCCSSCCNC(=[NH2])[NH]

>  <mulliken_charges>
30
1   -0.113822
2   -0.114525
3   -0.425997
4   -0.422949
5   0.589735
6   0.583813
7   -0.650272
8   -0.755413
9   -0.643366
10   -0.75514
11   -0.606226
12   -0.60187
13   -0.022958
14   0.016313
15   0.188074
16   0.158026
17   0.176782
18   0.157408
19   0.176398
20   0.196576
21   0.21898
22   0.173486
23   0.263439
24   0.318434
25   0.323475
26   0.267462
27   0.320917
28   0.322824
29   0.336956
30   0.323438

>  <lowdin_charges>
30
1   -0.191615
2   -0.19947
3   -0.381953
4   -0.387466
5   0.126847
6   0.124318
7   -0.481583
8   -0.507942
9   -0.480419
10   -0.512028
11   -0.313482
12   -0.308514
13   -0.001132
14   0.04012
15   0.174648
16   0.144326
17   0.159255
18   0.156556
19   0.162694
20   0.170989
21   0.189584
22   0.159343
23   0.244441
24   0.273389
25   0.276973
26   0.249205
27   0.27766
28   0.278808
29   0.280237
30   0.276209

$$$$

