PCCDB-ID:  424
public computational chemistry database (PCCDB) project, http://pccdb.org

 16 15  0  0  1  0  0  0  0  0999 V2000
    0.3758   -0.5020    0.4841 C   0  0  0  0  0  0  0  0  0  0  0  0
   -0.0745   -1.4101   -0.6865 C   0  0  1  0  0  0  0  0  0  0  0  0
    1.8677   -0.2223    0.5322 C   0  0  0  0  0  0  0  0  0  0  0  0
    0.2226   -2.9046   -0.3964 C   0  0  0  0  0  0  0  0  0  0  0  0
   -1.4901   -1.1693   -0.9473 N   0  0  0  0  0  0  0  0  0  0  0  0
    2.7079   -0.8360   -0.0967 O   0  0  0  0  0  0  0  0  0  0  0  0
    2.2597    0.7873    1.3328 O   0  0  0  0  0  0  0  0  0  0  0  0
   -0.6702   -3.6993   -0.2029 O   0  0  0  0  0  0  0  0  0  0  0  0
    1.5108   -3.2684   -0.3665 O   0  0  0  0  0  0  0  0  0  0  0  0
    0.0667   -0.9276    1.4500 H   0  0  0  0  0  0  0  0  0  0  0  0
   -0.1678    0.4445    0.3741 H   0  0  0  0  0  0  0  0  0  0  0  0
    0.4985   -1.1113   -1.5722 H   0  0  0  0  0  0  0  0  0  0  0  0
   -2.0227   -1.7849   -0.3297 H   0  0  0  0  0  0  0  0  0  0  0  0
   -1.7090   -1.5071   -1.8836 H   0  0  0  0  0  0  0  0  0  0  0  0
    1.4903    1.2046    1.7558 H   0  0  0  0  0  0  0  0  0  0  0  0
    2.0884   -2.4740   -0.4642 H   0  0  0  0  0  0  0  0  0  0  0  0
  1  3  1  0  0  0  0
  1 10  1  0  0  0  0
  2 12  1  6  0  0  0
  2  4  1  0  0  0  0
  2  1  1  0  0  0  0
  3  7  1  0  0  0  0
  4  9  1  0  0  0  0
  4  8  2  0  0  0  0
  5  2  1  0  0  0  0
  5 13  1  0  0  0  0
  6  3  2  0  0  0  0
  7 15  1  0  0  0  0
 11  1  1  0  0  0  0
 14  5  1  0  0  0  0
 16  9  1  0  0  0  0
M  END
>  <HBA>
5

>  <HBD>
3

>  <TPSA>
100.62

>  <cid>
424

>  <dipole>
4.55

>  <excitation_energy_1>
5.492

>  <excitation_energy_2>
5.615

>  <excitation_energy_3>
5.876

>  <excitation_energy_4>
5.886

>  <homo_energy>
-7.048

>  <homo_lumo_gap>
6.305

>  <logP>
-0.427

>  <lumo_energy>
-0.743

>  <melting_point>
183.33

>  <molecular_refractivity>
27.59

>  <oscillator_strength_1>
0.0047

>  <oscillator_strength_2>
0.0039

>  <oscillator_strength_3>
0.0009

>  <oscillator_strength_4>
0.0069

>  <open_babel_can_smiles>
OC(=O)C[C@@H](C(=O)O)N

>  <mulliken_charges>
16
1   -0.410076
2   -0.109253
3   0.631448
4   0.573936
5   -0.704057
6   -0.466993
7   -0.546326
8   -0.45585
9   -0.58278
10   0.198523
11   0.197549
12   0.17231
13   0.317454
14   0.312826
15   0.423919
16   0.44737

>  <lowdin_charges>
16
1   -0.328061
2   -0.111088
3   0.21411
4   0.171907
5   -0.53698
6   -0.257296
7   -0.32824
8   -0.260491
9   -0.35576
10   0.180048
11   0.181883
12   0.164514
13   0.267598
14   0.265521
15   0.369275
16   0.363061

$$$$

