PCCDB-ID:  110
public computational chemistry database (PCCDB) project, http://pccdb.org

 13 12  0  0  0  0  0  0  0  0999 V2000
    1.3578    0.5443    0.2345 C   0  0  0  0  0  0  0  0  0  0  0  0
    1.9864    1.9134    0.2807 C   0  0  0  0  0  0  0  0  0  0  0  0
    2.3408    2.5008   -1.1001 C   0  0  0  0  0  0  0  0  0  0  0  0
    2.2291    2.5101    1.3062 O   0  0  0  0  0  0  0  0  0  0  0  0
    3.1494    3.5624   -1.0018 O   0  0  0  0  0  0  0  0  0  0  0  0
    1.9057    2.0507   -2.1370 O   0  0  0  0  0  0  0  0  0  0  0  0
    1.8079   -2.0512   -0.1048 O   0  0  0  0  0  0  0  0  0  0  0  0
    3.7147   -0.3985   -0.6561 O   0  0  0  0  0  0  0  0  0  0  0  0
    2.7226   -0.7426    0.3973 S   0  0  3  0  0  0  0  0  0  0  0  0
    0.8564    0.3641   -0.7181 H   0  0  0  0  0  0  0  0  0  0  0  0
    0.6904    0.3898    1.0850 H   0  0  0  0  0  0  0  0  0  0  0  0
    3.3209    3.8689   -1.9127 H   0  0  0  0  0  0  0  0  0  0  0  0
    1.7001   -1.9900   -1.0766 H   0  0  0  0  0  0  0  0  0  0  0  0
  1  2  1  0  0  0  0
  1  9  1  0  0  0  0
  1 11  1  0  0  0  0
  2  4  2  0  0  0  0
  3  5  1  0  0  0  0
  3  2  1  0  0  0  0
  6  3  2  0  0  0  0
  7  9  1  0  0  0  0
  8  9  1  0  0  0  0
 10  1  1  0  0  0  0
 12  5  1  0  0  0  0
 13  7  1  0  0  0  0
M  RAD  1   8   2
M  END
>  <HBA>
5

>  <HBD>
2

>  <TPSA>
110.88

>  <cid>
110

>  <dipole>
2.27

>  <excitation_energy_1>
3.147

>  <excitation_energy_2>
3.843

>  <excitation_energy_3>
4.926

>  <excitation_energy_4>
5.099

>  <homo_energy>
-7.246

>  <homo_lumo_gap>
4.582

>  <logP>
-0.273

>  <lumo_energy>
-2.664

>  <melting_point>
144.63

>  <molecular_refractivity>
28.36

>  <oscillator_strength_1>
0.0023

>  <oscillator_strength_2>
0.0507

>  <oscillator_strength_3>
0.0005

>  <oscillator_strength_4>
0.0007

>  <open_babel_can_smiles>
O[S](CC(=O)C(=O)O)[O]

>  <mulliken_charges>
13
1   -0.576492
2   0.407688
3   0.547075
4   -0.396291
5   -0.53417
6   -0.446384
7   -0.654036
8   -0.572968
9   0.945516
10   0.220992
11   0.217569
12   0.422098
13   0.419403

>  <lowdin_charges>
13
1   -0.467055
2   0.131585
3   0.167869
4   -0.171722
5   -0.311535
6   -0.240466
7   -0.592766
8   -0.612376
9   0.977761
10   0.19412
11   0.196779
12   0.370417
13   0.357389

$$$$

