PCCDB-ID:  1725
public computational chemistry database (PCCDB) project, http://pccdb.org

 19 19  0  0  0  0  0  0  0  0999 V2000
   -0.7568    1.1299   -0.0717 C   0  0  0  0  0  0  0  0  0  0  0  0
    1.3821    0.0366    0.0161 C   0  0  0  0  0  0  0  0  0  0  0  0
   -1.3957   -0.1028   -0.0577 C   0  0  0  0  0  0  0  0  0  0  0  0
    0.7528   -1.2026    0.0374 C   0  0  0  0  0  0  0  0  0  0  0  0
    0.6425    1.2289   -0.0338 C   0  0  0  0  0  0  0  0  0  0  0  0
   -0.6499   -1.2946    0.0003 C   0  0  0  0  0  0  0  0  0  0  0  0
    1.3055    2.5643   -0.0406 C   0  0  0  0  0  0  0  0  0  0  0  0
   -1.2868   -2.5310    0.0752 N   0  0  0  0  0  0  0  0  0  0  0  0
    2.5702    2.5884   -0.6250 N   0  0  0  0  0  0  0  0  0  0  0  0
    0.8425    3.6511    0.4677 N   0  0  0  0  0  0  0  0  0  0  0  0
   -1.3528    2.0364   -0.1390 H   0  0  0  0  0  0  0  0  0  0  0  0
    2.4659    0.0866    0.0638 H   0  0  0  0  0  0  0  0  0  0  0  0
   -2.4818   -0.1516   -0.0945 H   0  0  0  0  0  0  0  0  0  0  0  0
    1.3472   -2.1118    0.0965 H   0  0  0  0  0  0  0  0  0  0  0  0
   -2.2308   -2.5590   -0.2884 H   0  0  0  0  0  0  0  0  0  0  0  0
   -0.7385   -3.3246   -0.2307 H   0  0  0  0  0  0  0  0  0  0  0  0
    2.6753    2.0362   -1.4676 H   0  0  0  0  0  0  0  0  0  0  0  0
    2.9269    3.5334   -0.7184 H   0  0  0  0  0  0  0  0  0  0  0  0
   -0.0193    3.4594    0.9819 H   0  0  0  0  0  0  0  0  0  0  0  0
  1  3  2  0  0  0  0
  1  5  1  0  0  0  0
  2  4  1  0  0  0  0
  2 12  1  0  0  0  0
  3  6  1  0  0  0  0
  4 14  1  0  0  0  0
  5  2  2  0  0  0  0
  6  4  2  0  0  0  0
  6  8  1  0  0  0  0
  7  5  1  0  0  0  0
  7 10  1  0  0  0  0
  9  7  2  0  0  0  0
 10 19  1  0  0  0  0
 11  1  1  0  0  0  0
 13  3  1  0  0  0  0
 15  8  1  0  0  0  0
 16  8  1  0  0  0  0
 17  9  1  0  0  0  0
 18  9  1  0  0  0  0
M  RAD  1  10   2
M  END
>  <HBA>
3

>  <HBD>
3

>  <TPSA>
75.89

>  <cid>
1725

>  <dipole>
4.85

>  <excitation_energy_1>
4.577

>  <excitation_energy_2>
4.763

>  <excitation_energy_3>
4.879

>  <excitation_energy_4>
5.238

>  <homo_energy>
-5.578

>  <homo_lumo_gap>
5.268

>  <logP>
1.934

>  <lumo_energy>
-0.31

>  <melting_point>
142.86

>  <molecular_refractivity>
42.11

>  <oscillator_strength_1>
0.0194

>  <oscillator_strength_2>
0.2037

>  <oscillator_strength_3>
0.1316

>  <oscillator_strength_4>
0.0181

>  <open_babel_can_smiles>
Nc1ccc(cc1)C(=[NH2])[NH]

>  <mulliken_charges>
19
1   -0.189624
2   -0.187527
3   -0.177401
4   -0.17542
5   0.100244
6   0.322669
7   0.364744
8   -0.788719
9   -0.737907
10   -0.628935
11   0.136984
12   0.146309
13   0.121874
14   0.121547
15   0.324021
16   0.323992
17   0.317191
18   0.329827
19   0.276132

>  <lowdin_charges>
19
1   -0.143567
2   -0.143611
3   -0.196085
4   -0.20006
5   -0.063353
6   0.067043
7   0.092174
8   -0.481315
9   -0.483382
10   -0.443739
11   0.161998
12   0.164608
13   0.152899
14   0.155094
15   0.277413
16   0.279131
17   0.27454
18   0.280838
19   0.249373

$$$$

