PCCDB-ID:  1052
public computational chemistry database (PCCDB) project, http://pccdb.org

 24 24  0  0  0  0  0  0  0  0999 V2000
    0.9462   -0.1125    0.0767 C   0  0  0  0  0  0  0  0  0  0  0  0
    5.2508    2.5542   -0.1089 C   0  0  0  0  0  0  0  0  0  0  0  0
    4.4450   -1.1719   -0.2439 C   0  0  0  0  0  0  0  0  0  0  0  0
    6.7229   -0.0827   -0.3195 C   0  0  0  0  0  0  0  0  0  0  0  0
    2.4516   -0.0518   -0.0348 C   0  0  0  0  0  0  0  0  0  0  0  0
    5.2078   -0.0020   -0.2378 C   0  0  0  0  0  0  0  0  0  0  0  0
    4.5251    1.2250   -0.1256 C   0  0  0  0  0  0  0  0  0  0  0  0
    3.1300    1.1821   -0.0152 C   0  0  0  0  0  0  0  0  0  0  0  0
    6.0580    2.6971    1.1272 N   0  0  0  0  0  0  0  0  0  0  0  0
    3.1114   -1.2074   -0.1507 N   0  0  0  0  0  0  0  0  0  0  0  0
    7.3705    0.1901    0.9085 O   0  0  0  0  0  0  0  0  0  0  0  0
    2.4536    2.3705    0.1117 O   0  0  0  0  0  0  0  0  0  0  0  0
    0.5806    0.3172    1.0207 H   0  0  0  0  0  0  0  0  0  0  0  0
    0.6343   -1.1580    0.0420 H   0  0  0  0  0  0  0  0  0  0  0  0
    0.4452    0.4158   -0.7479 H   0  0  0  0  0  0  0  0  0  0  0  0
    4.5275    3.3663   -0.2419 H   0  0  0  0  0  0  0  0  0  0  0  0
    5.9514    2.5977   -0.9511 H   0  0  0  0  0  0  0  0  0  0  0  0
    4.9410   -2.1374   -0.3298 H   0  0  0  0  0  0  0  0  0  0  0  0
    7.0848    0.5829   -1.1240 H   0  0  0  0  0  0  0  0  0  0  0  0
    7.0073   -1.1009   -0.6053 H   0  0  0  0  0  0  0  0  0  0  0  0
    5.4357    2.7151    1.9348 H   0  0  0  0  0  0  0  0  0  0  0  0
    6.5437    3.5936    1.1154 H   0  0  0  0  0  0  0  0  0  0  0  0
    7.0987    1.1057    1.1552 H   0  0  0  0  0  0  0  0  0  0  0  0
    1.5029    2.1879    0.1543 H   0  0  0  0  0  0  0  0  0  0  0  0
  1 13  1  0  0  0  0
  2  9  1  0  0  0  0
  3  6  2  0  0  0  0
  3 10  1  0  0  0  0
  4  6  1  0  0  0  0
  4 11  1  0  0  0  0
  5  8  1  0  0  0  0
  5  1  1  0  0  0  0
  6  7  1  0  0  0  0
  7  2  1  0  0  0  0
  7  8  2  0  0  0  0
  8 12  1  0  0  0  0
  9 21  1  0  0  0  0
 10  5  2  0  0  0  0
 11 23  1  0  0  0  0
 12 24  1  0  0  0  0
 14  1  1  0  0  0  0
 15  1  1  0  0  0  0
 16  2  1  0  0  0  0
 17  2  1  0  0  0  0
 18  3  1  0  0  0  0
 19  4  1  0  0  0  0
 20  4  1  0  0  0  0
 22  9  1  0  0  0  0
M  END
>  <HBA>
4

>  <HBD>
3

>  <TPSA>
79.37

>  <cid>
1052

>  <dipole>
4.79

>  <excitation_energy_1>
4.685

>  <excitation_energy_2>
4.852

>  <excitation_energy_3>
5.294

>  <excitation_energy_4>
5.335

>  <homo_energy>
-6.199

>  <homo_lumo_gap>
5.551

>  <logP>
0.747

>  <lumo_energy>
-0.648

>  <melting_point>
146.18

>  <molecular_refractivity>
45.03

>  <oscillator_strength_1>
0.0063

>  <oscillator_strength_2>
0.0991

>  <oscillator_strength_3>
0.0043

>  <oscillator_strength_4>
0.0015

>  <open_babel_can_smiles>
NCc1c(CO)cnc(c1O)C

>  <mulliken_charges>
24
1   -0.568581
2   -0.228803
3   -0.023888
4   -0.107528
5   0.290723
6   0.087076
7   0.107555
8   0.232474
9   -0.741124
10   -0.470087
11   -0.646308
12   -0.658006
13   0.15874
14   0.195954
15   0.15822
16   0.169307
17   0.16364
18   0.137269
19   0.11209
20   0.14367
21   0.320315
22   0.315715
23   0.431337
24   0.42024

>  <lowdin_charges>
24
1   -0.462388
2   -0.20753
3   -0.116299
4   -0.129536
5   0.004055
6   -0.028986
7   -0.031442
8   0.067252
9   -0.532474
10   -0.146713
11   -0.491914
12   -0.385683
13   0.156315
14   0.18255
15   0.156812
16   0.154014
17   0.15686
18   0.156213
19   0.12423
20   0.147997
21   0.26752
22   0.264188
23   0.334569
24   0.360391

$$$$

