PCCDB-ID:  857
public computational chemistry database (PCCDB) project, http://pccdb.org

 22 21  0  0  1  0  0  0  0  0999 V2000
    1.8446   -1.3874   -0.0834 C   0  0  0  0  0  0  0  0  0  0  0  0
    2.7206    0.1599   -1.8803 C   0  0  0  0  0  0  0  0  0  0  0  0
    3.4985    0.4050    0.5433 C   0  0  0  0  0  0  0  0  0  0  0  0
    3.0477   -0.5638   -0.5667 C   0  0  0  0  0  0  0  0  0  0  0  0
    4.8010    1.1854    0.2440 C   0  0  1  0  0  0  0  0  0  0  0  0
    5.0977    2.1457    1.4118 C   0  0  0  0  0  0  0  0  0  0  0  0
    5.8993    0.2656   -0.0205 N   0  0  0  0  0  0  0  0  0  0  0  0
    5.9937    1.9810    2.2024 O   0  0  0  0  0  0  0  0  0  0  0  0
    4.2625    3.2135    1.5379 O   0  0  0  0  0  0  0  0  0  0  0  0
    1.5446   -2.1235   -0.8382 H   0  0  0  0  0  0  0  0  0  0  0  0
    0.9764   -0.7450    0.1158 H   0  0  0  0  0  0  0  0  0  0  0  0
    2.0753   -1.9314    0.8403 H   0  0  0  0  0  0  0  0  0  0  0  0
    2.3684   -0.5512   -2.6363 H   0  0  0  0  0  0  0  0  0  0  0  0
    3.5967    0.6681   -2.2980 H   0  0  0  0  0  0  0  0  0  0  0  0
    1.9274    0.9071   -1.7375 H   0  0  0  0  0  0  0  0  0  0  0  0
    3.6531   -0.1596    1.4739 H   0  0  0  0  0  0  0  0  0  0  0  0
    2.6863    1.1167    0.7558 H   0  0  0  0  0  0  0  0  0  0  0  0
    3.8838   -1.2470   -0.7578 H   0  0  0  0  0  0  0  0  0  0  0  0
    4.6506    1.7947   -0.6586 H   0  0  0  0  0  0  0  0  0  0  0  0
    6.1652   -0.1700    0.8637 H   0  0  0  0  0  0  0  0  0  0  0  0
    6.7214    0.7983   -0.3025 H   0  0  0  0  0  0  0  0  0  0  0  0
    3.6075    3.2072    0.8198 H   0  0  0  0  0  0  0  0  0  0  0  0
  1 11  1  0  0  0  0
  1 12  1  0  0  0  0
  2 15  1  0  0  0  0
  2  4  1  0  0  0  0
  3 17  1  0  0  0  0
  3 16  1  0  0  0  0
  4  1  1  0  0  0  0
  4  3  1  0  0  0  0
  5 19  1  6  0  0  0
  5  3  1  0  0  0  0
  5  6  1  0  0  0  0
  6  9  1  0  0  0  0
  6  8  2  0  0  0  0
  7  5  1  0  0  0  0
  7 20  1  0  0  0  0
 10  1  1  0  0  0  0
 13  2  1  0  0  0  0
 14  2  1  0  0  0  0
 18  4  1  0  0  0  0
 21  7  1  0  0  0  0
 22  9  1  0  0  0  0
M  END
>  <HBA>
3

>  <HBD>
2

>  <TPSA>
63.32

>  <cid>
857

>  <dipole>
3.1

>  <excitation_energy_1>
5.565

>  <excitation_energy_2>
5.87

>  <excitation_energy_3>
6.052

>  <excitation_energy_4>
6.378

>  <homo_energy>
-6.789

>  <homo_lumo_gap>
6.993

>  <logP>
1.145

>  <lumo_energy>
0.204

>  <melting_point>
104.84

>  <molecular_refractivity>
35.44

>  <oscillator_strength_1>
0.0029

>  <oscillator_strength_2>
0.0008

>  <oscillator_strength_3>
0.0018

>  <oscillator_strength_4>
0.019

>  <open_babel_can_smiles>
N[C@H](C(=O)O)CC(C)C

>  <mulliken_charges>
22
1   -0.445955
2   -0.454422
3   -0.259336
4   -0.057684
5   -0.112795
6   0.581889
7   -0.69119
8   -0.44551
9   -0.565485
10   0.144916
11   0.136712
12   0.143207
13   0.148225
14   0.15001
15   0.129153
16   0.146697
17   0.118903
18   0.158611
19   0.143619
20   0.311271
21   0.307603
22   0.41156

>  <lowdin_charges>
22
1   -0.445229
2   -0.449882
3   -0.279664
4   -0.122548
5   -0.115325
6   0.174454
7   -0.52988
8   -0.243928
9   -0.356567
10   0.151701
11   0.144404
12   0.149199
13   0.15451
14   0.151001
15   0.140552
16   0.151183
17   0.13676
18   0.155466
19   0.148483
20   0.263471
21   0.263262
22   0.35858

$$$$

