PCCDB-ID:  1342
public computational chemistry database (PCCDB) project, http://pccdb.org

 32 34  0  0  0  0  0  0  0  0999 V2000
    2.4214    0.8931   -0.3517 C   0  0  0  0  0  0  0  0  0  0  0  0
    2.4986   -0.4865   -0.6516 C   0  0  0  0  0  0  0  0  0  0  0  0
   -2.3370    0.4433    0.5044 C   0  0  0  0  0  0  0  0  0  0  0  0
    1.2182    1.4459    0.0235 C   0  0  0  0  0  0  0  0  0  0  0  0
   -1.2137    1.2321    0.4461 C   0  0  0  0  0  0  0  0  0  0  0  0
    1.3848   -1.2892   -0.5294 C   0  0  0  0  0  0  0  0  0  0  0  0
   -2.2494   -0.9566    0.3290 C   0  0  0  0  0  0  0  0  0  0  0  0
   -0.9386   -4.3488    1.9608 C   0  0  0  0  0  0  0  0  0  0  0  0
   -2.8828   -4.4107    0.5342 C   0  0  0  0  0  0  0  0  0  0  0  0
   -0.0964   -3.7434    0.8317 C   0  0  0  0  0  0  0  0  0  0  0  0
   -2.0651   -3.7585   -0.5920 C   0  0  0  0  0  0  0  0  0  0  0  0
    0.0461    0.6505    0.1409 C   0  0  0  0  0  0  0  0  0  0  0  0
    0.1384   -0.7610   -0.0970 C   0  0  0  0  0  0  0  0  0  0  0  0
   -1.0393   -1.5808    0.0611 C   0  0  0  0  0  0  0  0  0  0  0  0
   -1.9782   -5.1976    1.3747 N   0  0  0  0  0  0  0  0  0  0  0  0
   -0.9195   -2.9780   -0.1198 N   0  0  0  0  0  0  0  0  0  0  0  0
    3.3066    1.5174   -0.4408 H   0  0  0  0  0  0  0  0  0  0  0  0
    3.4377   -0.9123   -0.9951 H   0  0  0  0  0  0  0  0  0  0  0  0
   -3.3059    0.8857    0.7217 H   0  0  0  0  0  0  0  0  0  0  0  0
    1.1411    2.5121    0.2240 H   0  0  0  0  0  0  0  0  0  0  0  0
   -1.2741    2.3047    0.6120 H   0  0  0  0  0  0  0  0  0  0  0  0
    1.4412   -2.3377   -0.7997 H   0  0  0  0  0  0  0  0  0  0  0  0
   -3.1492   -1.5510    0.4426 H   0  0  0  0  0  0  0  0  0  0  0  0
   -1.3497   -3.5270    2.5790 H   0  0  0  0  0  0  0  0  0  0  0  0
   -0.2989   -4.9646    2.6044 H   0  0  0  0  0  0  0  0  0  0  0  0
   -3.6320   -5.0807    0.0949 H   0  0  0  0  0  0  0  0  0  0  0  0
   -3.4246   -3.6334    1.1057 H   0  0  0  0  0  0  0  0  0  0  0  0
    0.3994   -4.5602    0.2887 H   0  0  0  0  0  0  0  0  0  0  0  0
    0.6733   -3.0913    1.2480 H   0  0  0  0  0  0  0  0  0  0  0  0
   -2.6963   -3.1203   -1.2160 H   0  0  0  0  0  0  0  0  0  0  0  0
   -1.6725   -4.5660   -1.2264 H   0  0  0  0  0  0  0  0  0  0  0  0
   -2.5054   -5.6610    2.1114 H   0  0  0  0  0  0  0  0  0  0  0  0
  1  4  2  0  0  0  0
  2  6  2  0  0  0  0
  2  1  1  0  0  0  0
  3 19  1  0  0  0  0
  4 12  1  0  0  0  0
  4 20  1  0  0  0  0
  5  3  1  0  0  0  0
  5 21  1  0  0  0  0
  6 13  1  0  0  0  0
  7 23  1  0  0  0  0
  7  3  2  0  0  0  0
  8 24  1  0  0  0  0
  8 25  1  0  0  0  0
  9 27  1  0  0  0  0
  9 15  1  0  0  0  0
 10 29  1  0  0  0  0
 10  8  1  0  0  0  0
 11 16  1  0  0  0  0
 11  9  1  0  0  0  0
 12  5  2  0  0  0  0
 13 14  2  0  0  0  0
 13 12  1  0  0  0  0
 14  7  1  0  0  0  0
 15  8  1  0  0  0  0
 15 32  1  0  0  0  0
 16 14  1  0  0  0  0
 16 10  1  0  0  0  0
 17  1  1  0  0  0  0
 18  2  1  0  0  0  0
 22  6  1  0  0  0  0
 26  9  1  0  0  0  0
 28 10  1  0  0  0  0
 30 11  1  0  0  0  0
 31 11  1  0  0  0  0
M  END
>  <HBA>
2

>  <HBD>
1

>  <TPSA>
15.27

>  <cid>
1342

>  <dipole>
1.58

>  <excitation_energy_1>
3.599

>  <excitation_energy_2>
4.08

>  <excitation_energy_3>
4.567

>  <excitation_energy_4>
4.654

>  <homo_energy>
-4.977

>  <homo_lumo_gap>
4.223

>  <logP>
2.643

>  <lumo_energy>
-0.754

>  <melting_point>
106.43

>  <molecular_refractivity>
75.31

>  <oscillator_strength_1>
0.1115

>  <oscillator_strength_2>
0.0289

>  <oscillator_strength_3>
0.0075

>  <oscillator_strength_4>
0.0071

>  <open_babel_can_smiles>
N1CCN(CC1)c1cccc2c1cccc2

>  <mulliken_charges>
32
1   -0.132428
2   -0.137597
3   -0.143623
4   -0.197274
5   -0.192316
6   -0.193736
7   -0.191169
8   -0.138156
9   -0.142296
10   -0.144176
11   -0.135216
12   0.125744
13   0.088751
14   0.252611
15   -0.549837
16   -0.490861
17   0.126339
18   0.125571
19   0.12472
20   0.126316
21   0.122009
22   0.148348
23   0.123324
24   0.12145
25   0.138194
26   0.13822
27   0.121559
28   0.146389
29   0.158413
30   0.150999
31   0.150771
32   0.298957

>  <lowdin_charges>
32
1   -0.160781
2   -0.163645
3   -0.154932
4   -0.156547
5   -0.174219
6   -0.158292
7   -0.206015
8   -0.219523
9   -0.221707
10   -0.204988
11   -0.206348
12   0.003384
13   -0.020211
14   0.048881
15   -0.370245
16   -0.147779
17   0.157351
18   0.156548
19   0.155928
20   0.1542
21   0.153271
22   0.16516
23   0.156361
24   0.122983
25   0.149886
26   0.148878
27   0.120027
28   0.1456
29   0.161524
30   0.157698
31   0.150457
32   0.257094

$$$$

