PCCDB-ID:  4843
public computational chemistry database (PCCDB) project, http://pccdb.org

 20 20  0  0  0  0  0  0  0  0999 V2000
   -0.8614   -1.1718   -0.2762 C   0  0  0  0  0  0  0  0  0  0  0  0
    0.6286   -1.3060    0.0896 C   0  0  0  0  0  0  0  0  0  0  0  0
   -1.1768    0.3210   -0.0299 C   0  0  0  0  0  0  0  0  0  0  0  0
    0.3221    2.4038   -0.2911 C   0  0  0  0  0  0  0  0  0  0  0  0
    0.6198    3.0631    1.0595 C   0  0  0  0  0  0  0  0  0  0  0  0
    1.1775    0.1074   -0.0486 C   0  0  0  0  0  0  0  0  0  0  0  0
   -0.0878    3.9435    1.6449 N   0  0  0  0  0  0  0  0  0  0  0  0
    0.1270    0.9603   -0.2042 N   0  0  0  0  0  0  0  0  0  0  0  0
    1.7595    2.6414    1.6446 O   0  0  0  0  0  0  0  0  0  0  0  0
    2.3575    0.4594    0.0120 O   0  0  0  0  0  0  0  0  0  0  0  0
   -1.5110   -1.8283    0.3077 H   0  0  0  0  0  0  0  0  0  0  0  0
   -1.0112   -1.4066   -1.3350 H   0  0  0  0  0  0  0  0  0  0  0  0
    1.1891   -2.0017   -0.5402 H   0  0  0  0  0  0  0  0  0  0  0  0
    0.7770   -1.6200    1.1306 H   0  0  0  0  0  0  0  0  0  0  0  0
   -1.5660    0.5017    0.9822 H   0  0  0  0  0  0  0  0  0  0  0  0
   -1.9007    0.7248   -0.7461 H   0  0  0  0  0  0  0  0  0  0  0  0
    1.1695    2.5790   -0.9652 H   0  0  0  0  0  0  0  0  0  0  0  0
   -0.5701    2.8471   -0.7404 H   0  0  0  0  0  0  0  0  0  0  0  0
   -0.9147    4.1572    1.0855 H   0  0  0  0  0  0  0  0  0  0  0  0
    2.2015    1.9683    1.0790 H   0  0  0  0  0  0  0  0  0  0  0  0
  1  3  1  0  0  0  0
  1  2  1  0  0  0  0
  1 11  1  0  0  0  0
  2 14  1  0  0  0  0
  3 15  1  0  0  0  0
  4  8  1  0  0  0  0
  4  5  1  0  0  0  0
  5  9  1  0  0  0  0
  5  7  2  0  0  0  0
  6 10  2  0  0  0  0
  6  2  1  0  0  0  0
  8  6  1  0  0  0  0
  8  3  1  0  0  0  0
 12  1  1  0  0  0  0
 13  2  1  0  0  0  0
 16  3  1  0  0  0  0
 17  4  1  0  0  0  0
 18  4  1  0  0  0  0
 19  7  1  0  0  0  0
 20  9  1  0  0  0  0
M  END
>  <HBA>
4

>  <HBD>
1

>  <TPSA>
63.4

>  <cid>
4843

>  <dipole>
6.48

>  <excitation_energy_1>
5.639

>  <excitation_energy_2>
5.744

>  <excitation_energy_3>
6.05

>  <excitation_energy_4>
6.168

>  <homo_energy>
-6.716

>  <homo_lumo_gap>
6.691

>  <logP>
-0.268

>  <lumo_energy>
-0.024

>  <melting_point>
95.68

>  <molecular_refractivity>
38.76

>  <oscillator_strength_1>
0.0093

>  <oscillator_strength_2>
0.0126

>  <oscillator_strength_3>
0.0207

>  <oscillator_strength_4>
0.0272

>  <open_babel_can_smiles>
OC(=N)CN1CCCC1=O

>  <mulliken_charges>
20
1   -0.300099
2   -0.371366
3   -0.126176
4   -0.259604
5   0.493864
6   0.601088
7   -0.583595
8   -0.399774
9   -0.597655
10   -0.549593
11   0.161857
12   0.164816
13   0.184519
14   0.185785
15   0.168993
16   0.158104
17   0.195075
18   0.15828
19   0.274932
20   0.44055

>  <lowdin_charges>
20
1   -0.280192
2   -0.300669
3   -0.192813
4   -0.231331
5   0.115096
6   0.15765
7   -0.401713
8   -0.094179
9   -0.371356
10   -0.325346
11   0.161551
12   0.155823
13   0.176913
14   0.17389
15   0.149642
16   0.153343
17   0.177901
18   0.162313
19   0.251777
20   0.361697

$$$$

