PCCDB-ID:  671
public computational chemistry database (PCCDB) project, http://pccdb.org

 23 24  0  0  0  0  0  0  0  0999 V2000
   -2.4322   -0.7478   -0.0294 C   0  0  0  0  0  0  0  0  0  0  0  0
   -2.3931    0.6497   -0.2327 C   0  0  0  0  0  0  0  0  0  0  0  0
   -1.2624   -1.4593    0.1312 C   0  0  0  0  0  0  0  0  0  0  0  0
   -1.1855    1.3113   -0.2887 C   0  0  0  0  0  0  0  0  0  0  0  0
    2.4216   -0.8449    0.2164 C   0  0  0  0  0  0  0  0  0  0  0  0
   -0.0071   -0.8052    0.0797 C   0  0  0  0  0  0  0  0  0  0  0  0
    0.0396    0.6054   -0.1535 C   0  0  0  0  0  0  0  0  0  0  0  0
    2.4879    0.5483   -0.0546 C   0  0  0  0  0  0  0  0  0  0  0  0
    1.2225   -1.5091    0.2692 C   0  0  0  0  0  0  0  0  0  0  0  0
    1.3094    1.2502   -0.2415 C   0  0  0  0  0  0  0  0  0  0  0  0
    3.8789    1.1281   -0.1409 C   0  0  0  0  0  0  0  0  0  0  0  0
    1.1195   -2.8514    0.5061 O   0  0  0  0  0  0  0  0  0  0  0  0
    1.3621    2.6204   -0.4776 O   0  0  0  0  0  0  0  0  0  0  0  0
    4.8620    0.4413    0.0390 O   0  0  0  0  0  0  0  0  0  0  0  0
    4.0007    2.4352   -0.4349 O   0  0  0  0  0  0  0  0  0  0  0  0
   -3.3894   -1.2596    0.0124 H   0  0  0  0  0  0  0  0  0  0  0  0
   -3.3200    1.2075   -0.3320 H   0  0  0  0  0  0  0  0  0  0  0  0
   -1.2819   -2.5294    0.3042 H   0  0  0  0  0  0  0  0  0  0  0  0
   -1.1769    2.3918   -0.4027 H   0  0  0  0  0  0  0  0  0  0  0  0
    3.3667   -1.3604    0.3593 H   0  0  0  0  0  0  0  0  0  0  0  0
    2.0114   -3.2179    0.6130 H   0  0  0  0  0  0  0  0  0  0  0  0
    0.7023    2.8597   -1.1477 H   0  0  0  0  0  0  0  0  0  0  0  0
    3.1110    2.8320   -0.5406 H   0  0  0  0  0  0  0  0  0  0  0  0
  1 16  1  0  0  0  0
  1  3  2  0  0  0  0
  2  1  1  0  0  0  0
  3 18  1  0  0  0  0
  4  2  2  0  0  0  0
  4  7  1  0  0  0  0
  5  9  1  0  0  0  0
  5 20  1  0  0  0  0
  6  3  1  0  0  0  0
  6  9  2  0  0  0  0
  7  6  1  0  0  0  0
  8  5  2  0  0  0  0
  9 12  1  0  0  0  0
 10  7  2  0  0  0  0
 10  8  1  0  0  0  0
 11  8  1  0  0  0  0
 11 14  2  0  0  0  0
 12 21  1  0  0  0  0
 13 10  1  0  0  0  0
 15 11  1  0  0  0  0
 17  2  1  0  0  0  0
 19  4  1  0  0  0  0
 22 13  1  0  0  0  0
 23 15  1  0  0  0  0
M  END
>  <HBA>
4

>  <HBD>
3

>  <TPSA>
77.76

>  <cid>
671

>  <dipole>
5.56

>  <excitation_energy_1>
3.682

>  <excitation_energy_2>
4.062

>  <excitation_energy_3>
4.542

>  <excitation_energy_4>
4.765

>  <homo_energy>
-5.837

>  <homo_lumo_gap>
4.196

>  <logP>
1.949

>  <lumo_energy>
-1.641

>  <melting_point>
221.93

>  <molecular_refractivity>
54.95

>  <oscillator_strength_1>
0.0889

>  <oscillator_strength_2>
0.0416

>  <oscillator_strength_3>
0.0001

>  <oscillator_strength_4>
0.0055

>  <open_babel_can_smiles>
OC(=O)c1cc(O)c2c(c1O)cccc2

>  <mulliken_charges>
23
1   -0.1317
2   -0.129645
3   -0.173892
4   -0.212534
5   -0.270182
6   0.081494
7   0.129811
8   0.025657
9   0.31557
10   0.1762
11   0.579532
12   -0.648033
13   -0.691061
14   -0.466211
15   -0.600451
16   0.140752
17   0.139547
18   0.164123
19   0.125263
20   0.163302
21   0.41754
22   0.425802
23   0.439116

>  <lowdin_charges>
23
1   -0.150237
2   -0.14834
3   -0.139375
4   -0.166186
5   -0.198526
6   -0.010121
7   -0.022985
8   -0.07414
9   0.097603
10   0.080029
11   0.198601
12   -0.374731
13   -0.398874
14   -0.261035
15   -0.360756
16   0.163976
17   0.163701
18   0.174703
19   0.152895
20   0.18129
21   0.36433
22   0.369351
23   0.358826

$$$$

