PCCDB-ID:  412
public computational chemistry database (PCCDB) project, http://pccdb.org

 23 24  0  0  1  0  0  0  0  0999 V2000
    1.4440   -0.0464   -0.4207 C   0  0  0  0  0  0  0  0  0  0  0  0
   -1.3413   -5.0226    0.1223 C   0  0  0  0  0  0  0  0  0  0  0  0
    0.7166   -1.2231   -0.5795 C   0  0  0  0  0  0  0  0  0  0  0  0
   -0.9697   -3.7064    0.8602 C   0  0  0  0  0  0  0  0  0  0  0  0
    0.8699    1.0037    0.2991 C   0  0  0  0  0  0  0  0  0  0  0  0
   -1.8729   -4.5583   -1.2519 C   0  0  0  0  0  0  0  0  0  0  0  0
   -1.0374   -0.1935    0.6731 C   0  0  0  0  0  0  0  0  0  0  0  0
   -0.5619   -1.3141   -0.0173 C   0  0  0  0  0  0  0  0  0  0  0  0
   -1.3903   -2.5751   -0.1176 C   0  0  1  0  0  0  0  0  0  0  0  0
   -0.3523    0.9440    0.8406 N   0  0  0  0  0  0  0  0  0  0  0  0
   -1.2535   -3.2407   -1.4192 N   0  0  0  0  0  0  0  0  0  0  0  0
    2.4378    0.0603   -0.8464 H   0  0  0  0  0  0  0  0  0  0  0  0
   -2.0914   -5.6086    0.6618 H   0  0  0  0  0  0  0  0  0  0  0  0
   -0.4575   -5.6558    0.0012 H   0  0  0  0  0  0  0  0  0  0  0  0
    1.1122   -2.0649   -1.1405 H   0  0  0  0  0  0  0  0  0  0  0  0
    0.1081   -3.6533    1.0406 H   0  0  0  0  0  0  0  0  0  0  0  0
   -1.4700   -3.5977    1.8271 H   0  0  0  0  0  0  0  0  0  0  0  0
    1.4132    1.9366    0.4432 H   0  0  0  0  0  0  0  0  0  0  0  0
   -2.9772   -4.5088   -1.2286 H   0  0  0  0  0  0  0  0  0  0  0  0
   -1.5877   -5.2258   -2.0722 H   0  0  0  0  0  0  0  0  0  0  0  0
   -2.0344   -0.2166    1.1152 H   0  0  0  0  0  0  0  0  0  0  0  0
   -2.4440   -2.3131    0.1010 H   0  0  0  0  0  0  0  0  0  0  0  0
   -1.6895   -2.7004   -2.1643 H   0  0  0  0  0  0  0  0  0  0  0  0
  1  5  1  0  0  0  0
  2 13  1  0  0  0  0
  2  4  1  0  0  0  0
  3  1  2  0  0  0  0
  3  8  1  0  0  0  0
  4 16  1  0  0  0  0
  4 17  1  0  0  0  0
  5 18  1  0  0  0  0
  5 10  2  0  0  0  0
  6 19  1  0  0  0  0
  6  2  1  0  0  0  0
  7 10  1  0  0  0  0
  7 21  1  0  0  0  0
  8  7  2  0  0  0  0
  9  8  1  0  0  0  0
  9 22  1  1  0  0  0
  9  4  1  0  0  0  0
 11  6  1  0  0  0  0
 11  9  1  0  0  0  0
 12  1  1  0  0  0  0
 14  2  1  0  0  0  0
 15  3  1  0  0  0  0
 20  6  1  0  0  0  0
 23 11  1  0  0  0  0
M  END
>  <HBA>
2

>  <HBD>
1

>  <TPSA>
24.92

>  <cid>
412

>  <dipole>
2.44

>  <excitation_energy_1>
4.807

>  <excitation_energy_2>
4.858

>  <excitation_energy_3>
5.159

>  <excitation_energy_4>
5.213

>  <homo_energy>
-6.221

>  <homo_lumo_gap>
5.739

>  <logP>
1.835

>  <lumo_energy>
-0.482

>  <melting_point>
70.42

>  <molecular_refractivity>
48.23

>  <oscillator_strength_1>
0.0018

>  <oscillator_strength_2>
0.0038

>  <oscillator_strength_3>
0.0

>  <oscillator_strength_4>
0.0005

>  <open_babel_can_smiles>
C1CN[C@@H](C1)c1cccnc1

>  <mulliken_charges>
23
1   -0.142635
2   -0.280242
3   -0.139658
4   -0.266285
5   0.037952
6   -0.121757
7   -0.01811
8   0.136201
9   -0.038788
10   -0.412457
11   -0.568804
12   0.134701
13   0.140597
14   0.149423
15   0.156434
16   0.150814
17   0.142504
18   0.138226
19   0.116234
20   0.142035
21   0.132893
22   0.112356
23   0.298367

>  <lowdin_charges>
23
1   -0.174329
2   -0.287498
3   -0.133492
4   -0.27995
5   -0.094996
6   -0.202719
7   -0.103389
8   -0.028957
9   -0.061269
10   -0.149178
11   -0.366407
12   0.161647
13   0.149562
14   0.152056
15   0.171387
16   0.150729
17   0.149826
18   0.155062
19   0.116222
20   0.146967
21   0.150442
22   0.120521
23   0.257761

$$$$

