PCCDB-ID:  4086
public computational chemistry database (PCCDB) project, http://pccdb.org

 32 32  0  0  1  0  0  0  0  0999 V2000
    3.7235   -1.6423   -0.4395 C   0  0  0  0  0  0  0  0  0  0  0  0
    5.4882   -0.9506    1.2262 C   0  0  0  0  0  0  0  0  0  0  0  0
    8.1836    1.6714   -2.7221 C   0  0  0  0  0  0  0  0  0  0  0  0
    6.5630    3.4446   -2.4585 C   0  0  0  0  0  0  0  0  0  0  0  0
    8.9160    3.8882   -2.0379 C   0  0  0  0  0  0  0  0  0  0  0  0
    4.7607    0.9024   -1.9841 C   0  0  0  0  0  0  0  0  0  0  0  0
    4.5857   -0.4864    0.0796 C   0  0  0  0  0  0  0  0  0  0  0  0
    6.8617    2.1120   -2.7706 C   0  0  0  0  0  0  0  0  0  0  0  0
    9.2022    2.5622   -2.3574 C   0  0  0  0  0  0  0  0  0  0  0  0
    7.5901    4.3221   -2.0958 C   0  0  0  0  0  0  0  0  0  0  0  0
    5.7378    1.1469   -3.1570 C   0  0  1  0  0  0  0  0  0  0  0  0
    5.4350    0.0573   -0.9961 N   0  0  0  0  0  0  0  0  0  0  0  0
   10.5127    2.1757   -2.2977 O   0  0  0  0  0  0  0  0  0  0  0  0
    7.3541    5.6335   -1.7838 O   0  0  0  0  0  0  0  0  0  0  0  0
    6.2210   -0.1079   -3.6023 O   0  0  0  0  0  0  0  0  0  0  0  0
    3.0927   -2.0371    0.3649 H   0  0  0  0  0  0  0  0  0  0  0  0
    4.3602   -2.4525   -0.8127 H   0  0  0  0  0  0  0  0  0  0  0  0
    3.0603   -1.3307   -1.2532 H   0  0  0  0  0  0  0  0  0  0  0  0
    4.8930   -1.3724    2.0427 H   0  0  0  0  0  0  0  0  0  0  0  0
    6.0739   -0.1178    1.6350 H   0  0  0  0  0  0  0  0  0  0  0  0
    6.1868   -1.7193    0.8757 H   0  0  0  0  0  0  0  0  0  0  0  0
    8.4083    0.6460   -3.0010 H   0  0  0  0  0  0  0  0  0  0  0  0
    5.5363    3.8052   -2.5078 H   0  0  0  0  0  0  0  0  0  0  0  0
    9.7081    4.5741   -1.7606 H   0  0  0  0  0  0  0  0  0  0  0  0
    3.8948    0.3578   -2.3729 H   0  0  0  0  0  0  0  0  0  0  0  0
    4.3958    1.8563   -1.5680 H   0  0  0  0  0  0  0  0  0  0  0  0
    3.9114    0.2985    0.4713 H   0  0  0  0  0  0  0  0  0  0  0  0
    5.1751    1.5896   -3.9893 H   0  0  0  0  0  0  0  0  0  0  0  0
    6.1884    0.6026   -0.5771 H   0  0  0  0  0  0  0  0  0  0  0  0
   10.5732    1.2479   -2.5737 H   0  0  0  0  0  0  0  0  0  0  0  0
    6.4059    5.8112   -1.8814 H   0  0  0  0  0  0  0  0  0  0  0  0
    6.2455   -0.6487   -2.7853 H   0  0  0  0  0  0  0  0  0  0  0  0
  1  7  1  0  0  0  0
  1 16  1  0  0  0  0
  2 20  1  0  0  0  0
  2 19  1  0  0  0  0
  3  9  1  0  0  0  0
  4 10  2  0  0  0  0
  5 24  1  0  0  0  0
  6 26  1  0  0  0  0
  6 12  1  0  0  0  0
  7 27  1  0  0  0  0
  7  2  1  0  0  0  0
  8  3  2  0  0  0  0
  8  4  1  0  0  0  0
  9 13  1  0  0  0  0
  9  5  2  0  0  0  0
 10  5  1  0  0  0  0
 10 14  1  0  0  0  0
 11 28  1  6  0  0  0
 11  8  1  0  0  0  0
 11  6  1  0  0  0  0
 12 29  1  0  0  0  0
 12  7  1  0  0  0  0
 15 11  1  0  0  0  0
 15 32  1  0  0  0  0
 17  1  1  0  0  0  0
 18  1  1  0  0  0  0
 21  2  1  0  0  0  0
 22  3  1  0  0  0  0
 23  4  1  0  0  0  0
 25  6  1  0  0  0  0
 30 13  1  0  0  0  0
 31 14  1  0  0  0  0
M  END
>  <HBA>
4

>  <HBD>
4

>  <TPSA>
72.72

>  <cid>
4086

>  <dipole>
3.38

>  <excitation_energy_1>
4.943

>  <excitation_energy_2>
5.007

>  <excitation_energy_3>
5.322

>  <excitation_energy_4>
5.394

>  <homo_energy>
-5.796

>  <homo_lumo_gap>
5.946

>  <logP>
1.52

>  <lumo_energy>
0.15

>  <melting_point>
132.24

>  <molecular_refractivity>
58.65

>  <oscillator_strength_1>
0.017

>  <oscillator_strength_2>
0.0039

>  <oscillator_strength_3>
0.0006

>  <oscillator_strength_4>
0.0096

>  <open_babel_can_smiles>
O[C@H](c1cc(O)cc(c1)O)CNC(C)C

>  <mulliken_charges>
32
1   -0.437783
2   -0.462145
3   -0.269528
4   -0.265327
5   -0.205552
6   -0.152433
7   0.070644
8   0.116585
9   0.366184
10   0.358574
11   0.073207
12   -0.59602
13   -0.646589
14   -0.646301
15   -0.643584
16   0.142969
17   0.151262
18   0.148049
19   0.150561
20   0.143771
21   0.154879
22   0.129262
23   0.105403
24   0.146361
25   0.155429
26   0.126526
27   0.111742
28   0.144571
29   0.311054
30   0.408986
31   0.406469
32   0.402774

>  <lowdin_charges>
32
1   -0.451881
2   -0.451715
3   -0.245523
4   -0.254934
5   -0.223992
6   -0.221651
7   -0.055006
8   -0.006676
9   0.114364
10   0.115303
11   -0.006054
12   -0.365976
13   -0.376415
14   -0.377347
15   -0.463692
16   0.153007
17   0.154123
18   0.151561
19   0.157022
20   0.149959
21   0.155137
22   0.161478
23   0.146571
24   0.17682
25   0.151576
26   0.129147
27   0.121558
28   0.151745
29   0.262259
30   0.356757
31   0.354593
32   0.337884

$$$$

