PCCDB-ID:  1748
public computational chemistry database (PCCDB) project, http://pccdb.org

 25 25  0  0  0  0  0  0  0  0999 V2000
    3.0283    1.2605   -0.2055 C   0  0  0  0  0  0  0  0  0  0  0  0
    3.2213   -3.2751   -1.0956 C   0  0  0  0  0  0  0  0  0  0  0  0
    2.6824   -2.1225   -0.5221 C   0  0  0  0  0  0  0  0  0  0  0  0
    4.4055   -4.4700   -2.9928 C   0  0  0  0  0  0  0  0  0  0  0  0
    3.3594   -5.2052   -3.8481 C   0  0  0  0  0  0  0  0  0  0  0  0
    3.9284   -1.9814   -2.9927 C   0  0  0  0  0  0  0  0  0  0  0  0
    3.8559   -3.2199   -2.3411 C   0  0  0  0  0  0  0  0  0  0  0  0
    3.3816   -0.8264   -2.4315 C   0  0  0  0  0  0  0  0  0  0  0  0
    2.7530   -0.8923   -1.1732 C   0  0  0  0  0  0  0  0  0  0  0  0
    3.9363   -6.4277   -4.4177 N   0  0  0  0  0  0  0  0  0  0  0  0
    3.4239    0.3907   -3.0617 O   0  0  0  0  0  0  0  0  0  0  0  0
    2.1518    0.2030   -0.6006 O   0  0  0  0  0  0  0  0  0  0  0  0
    2.3943    2.0179    0.2616 H   0  0  0  0  0  0  0  0  0  0  0  0
    3.5472    1.6964   -1.0647 H   0  0  0  0  0  0  0  0  0  0  0  0
    3.7654    0.9039    0.5270 H   0  0  0  0  0  0  0  0  0  0  0  0
    3.1546   -4.2221   -0.5660 H   0  0  0  0  0  0  0  0  0  0  0  0
    2.1904   -2.1545    0.4455 H   0  0  0  0  0  0  0  0  0  0  0  0
    5.2652   -4.2134   -3.6280 H   0  0  0  0  0  0  0  0  0  0  0  0
    4.7746   -5.1688   -2.2336 H   0  0  0  0  0  0  0  0  0  0  0  0
    2.9517   -4.5015   -4.5968 H   0  0  0  0  0  0  0  0  0  0  0  0
    2.5188   -5.4966   -3.2069 H   0  0  0  0  0  0  0  0  0  0  0  0
    4.4174   -1.9131   -3.9650 H   0  0  0  0  0  0  0  0  0  0  0  0
    4.6394   -6.1807   -5.1139 H   0  0  0  0  0  0  0  0  0  0  0  0
    3.2171   -6.9458   -4.9201 H   0  0  0  0  0  0  0  0  0  0  0  0
    3.8735    0.2797   -3.9138 H   0  0  0  0  0  0  0  0  0  0  0  0
  1 13  1  0  0  0  0
  1 15  1  0  0  0  0
  2 16  1  0  0  0  0
  2  3  1  0  0  0  0
  3 17  1  0  0  0  0
  4  7  1  0  0  0  0
  4 19  1  0  0  0  0
  5 21  1  0  0  0  0
  5  4  1  0  0  0  0
  6  8  2  0  0  0  0
  6  7  1  0  0  0  0
  7  2  2  0  0  0  0
  8  9  1  0  0  0  0
  9 12  1  0  0  0  0
  9  3  2  0  0  0  0
 10  5  1  0  0  0  0
 11  8  1  0  0  0  0
 12  1  1  0  0  0  0
 14  1  1  0  0  0  0
 18  4  1  0  0  0  0
 20  5  1  0  0  0  0
 22  6  1  0  0  0  0
 23 10  1  0  0  0  0
 24 10  1  0  0  0  0
 25 11  1  0  0  0  0
M  END
>  <HBA>
3

>  <HBD>
2

>  <TPSA>
55.48

>  <cid>
1748

>  <dipole>
2.62

>  <excitation_energy_1>
4.917

>  <excitation_energy_2>
4.961

>  <excitation_energy_3>
5.438

>  <excitation_energy_4>
5.556

>  <homo_energy>
-5.704

>  <homo_lumo_gap>
5.859

>  <logP>
1.602

>  <lumo_energy>
0.155

>  <melting_point>
107.82

>  <molecular_refractivity>
47.44

>  <oscillator_strength_1>
0.0543

>  <oscillator_strength_2>
0.0015

>  <oscillator_strength_3>
0.0181

>  <oscillator_strength_4>
0.0535

>  <open_babel_can_smiles>
NCCc1ccc(c(c1)O)OC

>  <mulliken_charges>
25
1   -0.212472
2   -0.199645
3   -0.173186
4   -0.342944
5   -0.12974
6   -0.263579
7   0.175457
8   0.324885
9   0.323568
10   -0.714203
11   -0.644865
12   -0.520477
13   0.157026
14   0.166589
15   0.137242
16   0.124256
17   0.135873
18   0.130479
19   0.158758
20   0.115996
21   0.146474
22   0.108457
23   0.290777
24   0.297098
25   0.408176

>  <lowdin_charges>
25
1   -0.279832
2   -0.183614
3   -0.16595
4   -0.277047
5   -0.205418
6   -0.2202
7   -0.000201
8   0.077916
9   0.063242
10   -0.560881
11   -0.377097
12   -0.223861
13   0.156609
14   0.152594
15   0.138513
16   0.156745
17   0.165755
18   0.142905
19   0.159364
20   0.119927
21   0.14619
22   0.147828
23   0.251313
24   0.25716
25   0.358039

$$$$

