PCCDB-ID:  917
public computational chemistry database (PCCDB) project, http://pccdb.org

 22 23  0  0  1  0  0  0  0  0999 V2000
    0.9590   -0.0908   -0.0280 C   0  0  0  0  0  0  0  0  0  0  0  0
    6.4467    1.5830    1.0811 C   0  0  0  0  0  0  0  0  0  0  0  0
    2.9483   -1.1344    0.9080 C   0  0  0  0  0  0  0  0  0  0  0  0
    4.3690    1.1781    0.7794 C   0  0  0  0  0  0  0  0  0  0  0  0
    2.8855    1.3152    0.5883 C   0  0  2  0  0  0  0  0  0  0  0  0
    4.9908   -0.0436    0.7830 C   0  0  0  0  0  0  0  0  0  0  0  0
    2.2744    1.8986    1.7800 N   0  0  0  0  0  0  0  0  0  0  0  0
    5.2876    2.1903    0.9729 N   0  0  0  0  0  0  0  0  0  0  0  0
    6.3303    0.2148    0.9764 N   0  0  0  0  0  0  0  0  0  0  0  0
    4.3909   -1.3121    0.6929 N   0  0  0  0  0  0  0  0  0  0  0  0
    2.4019   -0.0229    0.1285 N   0  0  0  0  0  0  0  0  0  0  0  0
    0.6860   -1.0330   -0.5166 H   0  0  0  0  0  0  0  0  0  0  0  0
    0.6243    0.7295   -0.6739 H   0  0  0  0  0  0  0  0  0  0  0  0
    0.3906   -0.0272    0.9193 H   0  0  0  0  0  0  0  0  0  0  0  0
    7.4045    2.0664    1.2197 H   0  0  0  0  0  0  0  0  0  0  0  0
    2.7999   -1.0048    1.9954 H   0  0  0  0  0  0  0  0  0  0  0  0
    2.4398   -2.0555    0.6095 H   0  0  0  0  0  0  0  0  0  0  0  0
    2.6693    2.0062   -0.2363 H   0  0  0  0  0  0  0  0  0  0  0  0
    2.4590    1.3318    2.6050 H   0  0  0  0  0  0  0  0  0  0  0  0
    1.2665    1.9935    1.6751 H   0  0  0  0  0  0  0  0  0  0  0  0
    7.0582   -0.4748    1.0946 H   0  0  0  0  0  0  0  0  0  0  0  0
    4.5382   -1.7121   -0.2357 H   0  0  0  0  0  0  0  0  0  0  0  0
  1 11  1  0  0  0  0
  1 14  1  0  0  0  0
  2 15  1  0  0  0  0
  3 16  1  0  0  0  0
  4  6  2  0  0  0  0
  4  8  1  0  0  0  0
  5 18  1  6  0  0  0
  5  4  1  0  0  0  0
  5  7  1  0  0  0  0
  6  9  1  0  0  0  0
  7 19  1  0  0  0  0
  8  2  2  0  0  0  0
  9  2  1  0  0  0  0
  9 21  1  0  0  0  0
 10  6  1  0  0  0  0
 10  3  1  0  0  0  0
 11  5  1  0  0  0  0
 11  3  1  0  0  0  0
 12  1  1  0  0  0  0
 13  1  1  0  0  0  0
 17  3  1  0  0  0  0
 20  7  1  0  0  0  0
 22 10  1  0  0  0  0
M  END
>  <HBA>
4

>  <HBD>
3

>  <TPSA>
69.97

>  <cid>
917

>  <dipole>
3.79

>  <excitation_energy_1>
4.764

>  <excitation_energy_2>
5.091

>  <excitation_energy_3>
5.153

>  <excitation_energy_4>
5.283

>  <homo_energy>
-5.412

>  <homo_lumo_gap>
6.452

>  <logP>
0.458

>  <lumo_energy>
1.039

>  <melting_point>
184.29

>  <molecular_refractivity>
48.01

>  <oscillator_strength_1>
0.0114

>  <oscillator_strength_2>
0.0198

>  <oscillator_strength_3>
0.0206

>  <oscillator_strength_4>
0.022

>  <open_babel_can_smiles>
CN1CNc2c([C@@H]1N)nc[nH]2

>  <mulliken_charges>
22
1   -0.304182
2   0.203099
3   -0.027798
4   0.208095
5   0.070289
6   0.437705
7   -0.694444
8   -0.469875
9   -0.632705
10   -0.620332
11   -0.399495
12   0.149547
13   0.152493
14   0.115148
15   0.150343
16   0.130521
17   0.14148
18   0.155875
19   0.295201
20   0.295865
21   0.329722
22   0.313448

>  <lowdin_charges>
22
1   -0.362592
2   -0.091921
3   -0.134064
4   -0.050669
5   -0.010238
6   0.017906
7   -0.541427
8   -0.175154
9   -0.198599
10   -0.317074
11   -0.215955
12   0.150569
13   0.152991
14   0.11778
15   0.164692
16   0.120793
17   0.149709
18   0.154824
19   0.254881
20   0.251981
21   0.295372
22   0.266193

$$$$

