PCCDB-ID:  4040
public computational chemistry database (PCCDB) project, http://pccdb.org

 17 16  0  0  1  0  0  0  0  0999 V2000
    4.7376   -0.6955   -0.7125 C   0  0  0  0  0  0  0  0  0  0  0  0
    2.8943   -2.5071    2.7821 C   0  0  0  0  0  0  0  0  0  0  0  0
    2.2905   -2.5744    1.3515 C   0  0  2  0  0  0  0  0  0  0  0  0
    2.8936   -1.4124    0.5664 C   0  0  0  0  0  0  0  0  0  0  0  0
    0.8447   -2.4757    1.2471 N   0  0  0  0  0  0  0  0  0  0  0  0
    2.4106   -0.3015    0.5180 O   0  0  0  0  0  0  0  0  0  0  0  0
    4.0635   -1.7539   -0.0070 O   0  0  0  0  0  0  0  0  0  0  0  0
    2.3168   -3.8396    3.9129 S   0  0  0  0  0  0  0  0  0  0  0  0
    4.1143   -0.3277   -1.5313 H   0  0  0  0  0  0  0  0  0  0  0  0
    5.6554   -1.1401   -1.0974 H   0  0  0  0  0  0  0  0  0  0  0  0
    4.9634    0.1331   -0.0362 H   0  0  0  0  0  0  0  0  0  0  0  0
    2.6888   -1.5338    3.2387 H   0  0  0  0  0  0  0  0  0  0  0  0
    3.9811   -2.6300    2.7333 H   0  0  0  0  0  0  0  0  0  0  0  0
    2.6146   -3.5143    0.8937 H   0  0  0  0  0  0  0  0  0  0  0  0
    0.5418   -1.5447    1.5275 H   0  0  0  0  0  0  0  0  0  0  0  0
    0.4008   -3.1642    1.8503 H   0  0  0  0  0  0  0  0  0  0  0  0
    1.1161   -3.2981    4.2109 H   0  0  0  0  0  0  0  0  0  0  0  0
  1 11  1  0  0  0  0
  1  7  1  0  0  0  0
  2 12  1  0  0  0  0
  2  8  1  0  0  0  0
  3 14  1  6  0  0  0
  3  2  1  0  0  0  0
  4  3  1  0  0  0  0
  5  3  1  0  0  0  0
  5 15  1  0  0  0  0
  5 16  1  0  0  0  0
  6  4  2  0  0  0  0
  7  4  1  0  0  0  0
  8 17  1  0  0  0  0
  9  1  1  0  0  0  0
 10  1  1  0  0  0  0
 13  2  1  0  0  0  0
M  END
>  <HBA>
4

>  <HBD>
2

>  <TPSA>
91.12

>  <cid>
4040

>  <dipole>
1.37

>  <excitation_energy_1>
5.192

>  <excitation_energy_2>
5.338

>  <excitation_energy_3>
5.653

>  <excitation_energy_4>
5.811

>  <homo_energy>
-6.487

>  <homo_lumo_gap>
6.319

>  <logP>
0.117

>  <lumo_energy>
-0.169

>  <melting_point>
61.71

>  <molecular_refractivity>
33.26

>  <oscillator_strength_1>
0.0127

>  <oscillator_strength_2>
0.0064

>  <oscillator_strength_3>
0.0011

>  <oscillator_strength_4>
0.003

>  <open_babel_can_smiles>
COC(=O)[C@@H](CS)N

>  <mulliken_charges>
17
1   -0.222982
2   -0.446971
3   -0.030198
4   0.629174
5   -0.712001
6   -0.48052
7   -0.449211
8   -0.06829
9   0.177634
10   0.168892
11   0.171629
12   0.188035
13   0.191855
14   0.172947
15   0.312285
16   0.303715
17   0.094009

>  <lowdin_charges>
17
1   -0.280545
2   -0.389968
3   -0.092743
4   0.196706
5   -0.542157
6   -0.26264
7   -0.185481
8   -0.07533
9   0.164437
10   0.163396
11   0.161101
12   0.166793
13   0.173567
14   0.165215
15   0.264249
16   0.261623
17   0.111778

$$$$

