PCCDB-ID:  773
public computational chemistry database (PCCDB) project, http://pccdb.org

 20 20  0  0  1  0  0  0  0  0999 V2000
    1.4255   -0.6664    0.8578 C   0  0  0  0  0  0  0  0  0  0  0  0
   -0.4424   -2.3039    1.7413 C   0  0  0  0  0  0  0  0  0  0  0  0
    0.0665   -2.3222    3.8165 C   0  0  0  0  0  0  0  0  0  0  0  0
    0.6418   -1.4613    1.8551 C   0  0  0  0  0  0  0  0  0  0  0  0
    2.7631   -1.3348    0.4487 C   0  0  1  0  0  0  0  0  0  0  0  0
    3.6747   -1.4457    1.6986 C   0  0  0  0  0  0  0  0  0  0  0  0
    2.5180   -2.5670   -0.2740 N   0  0  0  0  0  0  0  0  0  0  0  0
   -0.7957   -2.8331    2.9632 N   0  0  0  0  0  0  0  0  0  0  0  0
    0.9558   -1.4865    3.2047 N   0  0  0  0  0  0  0  0  0  0  0  0
    3.7978   -0.5501    2.5065 O   0  0  0  0  0  0  0  0  0  0  0  0
    4.3337   -2.6099    1.8379 O   0  0  0  0  0  0  0  0  0  0  0  0
    1.6523    0.3281    1.2551 H   0  0  0  0  0  0  0  0  0  0  0  0
    0.8295   -0.5397   -0.0500 H   0  0  0  0  0  0  0  0  0  0  0  0
   -0.9985   -2.5419    0.8433 H   0  0  0  0  0  0  0  0  0  0  0  0
    0.0938   -2.5163    4.8806 H   0  0  0  0  0  0  0  0  0  0  0  0
    3.2806   -0.6471   -0.2329 H   0  0  0  0  0  0  0  0  0  0  0  0
    1.9640   -3.2629    0.2118 H   0  0  0  0  0  0  0  0  0  0  0  0
    3.2697   -2.9461   -0.8342 H   0  0  0  0  0  0  0  0  0  0  0  0
    1.7382   -0.9989    3.6238 H   0  0  0  0  0  0  0  0  0  0  0  0
    4.0188   -3.1952    1.1202 H   0  0  0  0  0  0  0  0  0  0  0  0
  1 12  1  0  0  0  0
  1  4  1  0  0  0  0
  2  4  2  0  0  0  0
  2  8  1  0  0  0  0
  3 15  1  0  0  0  0
  4  9  1  0  0  0  0
  5 16  1  6  0  0  0
  5  1  1  0  0  0  0
  5  6  1  0  0  0  0
  6 11  1  0  0  0  0
  6 10  2  0  0  0  0
  7 17  1  0  0  0  0
  7  5  1  0  0  0  0
  8  3  2  0  0  0  0
  9 19  1  0  0  0  0
  9  3  1  0  0  0  0
 13  1  1  0  0  0  0
 14  2  1  0  0  0  0
 18  7  1  0  0  0  0
 20 11  1  0  0  0  0
M  END
>  <HBA>
4

>  <HBD>
3

>  <TPSA>
92.0

>  <cid>
773

>  <dipole>
3.38

>  <excitation_energy_1>
4.818

>  <excitation_energy_2>
5.105

>  <excitation_energy_3>
5.178

>  <excitation_energy_4>
5.628

>  <homo_energy>
-6.071

>  <homo_lumo_gap>
5.916

>  <logP>
0.064

>  <lumo_energy>
-0.155

>  <melting_point>
200.01

>  <molecular_refractivity>
37.65

>  <oscillator_strength_1>
0.0027

>  <oscillator_strength_2>
0.0238

>  <oscillator_strength_3>
0.0021

>  <oscillator_strength_4>
0.0101

>  <open_babel_can_smiles>
N[C@H](C(=O)O)Cc1cnc[nH]1

>  <mulliken_charges>
20
1   -0.334136
2   -0.090554
3   0.206329
4   0.288578
5   -0.065024
6   0.592366
7   -0.761175
8   -0.425041
9   -0.600644
10   -0.478088
11   -0.555033
12   0.176786
13   0.173171
14   0.132865
15   0.156973
16   0.180032
17   0.331157
18   0.321909
19   0.356799
20   0.39273

>  <lowdin_charges>
20
1   -0.271265
2   -0.178251
3   -0.089392
4   -0.025229
5   -0.104191
6   0.176013
7   -0.562431
8   -0.19086
9   -0.184681
10   -0.273341
11   -0.342755
12   0.170413
13   0.17221
14   0.160657
15   0.16584
16   0.173133
17   0.277866
18   0.273969
19   0.303848
20   0.348448

$$$$

