PCCDB-ID:  29
public computational chemistry database (PCCDB) project, http://pccdb.org

 12 11  0  0  1  0  0  0  0  0999 V2000
    0.8497    0.0136    0.0610 C   0  0  0  0  0  0  0  0  0  0  0  0
    0.1186   -1.1665   -0.5677 C   0  0  1  0  0  0  0  0  0  0  0  0
    0.5502   -2.5386    0.0302 C   0  0  0  0  0  0  0  0  0  0  0  0
   -1.3131   -0.9311   -0.5766 N   0  0  0  0  0  0  0  0  0  0  0  0
    2.0324   -0.0049    0.3512 O   0  0  0  0  0  0  0  0  0  0  0  0
   -0.2589   -3.4128    0.2213 O   0  0  0  0  0  0  0  0  0  0  0  0
    1.8600   -2.6939    0.2619 O   0  0  0  0  0  0  0  0  0  0  0  0
    0.2278    0.9153    0.2155 H   0  0  0  0  0  0  0  0  0  0  0  0
    0.4750   -1.1768   -1.6108 H   0  0  0  0  0  0  0  0  0  0  0  0
   -1.7021   -1.2271    0.3186 H   0  0  0  0  0  0  0  0  0  0  0  0
   -1.7476   -1.5478   -1.2594 H   0  0  0  0  0  0  0  0  0  0  0  0
    2.3033   -1.8141    0.2102 H   0  0  0  0  0  0  0  0  0  0  0  0
  1  8  1  0  0  0  0
  1  5  2  0  0  0  0
  2  9  1  6  0  0  0
  2  3  1  0  0  0  0
  2  1  1  0  0  0  0
  3  6  2  0  0  0  0
  3  7  1  0  0  0  0
  4  2  1  0  0  0  0
  4 10  1  0  0  0  0
 11  4  1  0  0  0  0
 12  7  1  0  0  0  0
M  END
>  <HBA>
4

>  <HBD>
2

>  <TPSA>
80.39

>  <cid>
29

>  <dipole>
2.85

>  <excitation_energy_1>
4.123

>  <excitation_energy_2>
4.783

>  <excitation_energy_3>
5.172

>  <excitation_energy_4>
5.681

>  <homo_energy>
-7.295

>  <homo_lumo_gap>
5.459

>  <logP>
-0.703

>  <lumo_energy>
-1.837

>  <melting_point>
138.56

>  <molecular_refractivity>
21.21

>  <oscillator_strength_1>
0.0042

>  <oscillator_strength_2>
0.0043

>  <oscillator_strength_3>
0.0194

>  <oscillator_strength_4>
0.0002

>  <open_babel_can_smiles>
O=C[C@@H](C(=O)O)N

>  <mulliken_charges>
12
1   0.262596
2   -0.194309
3   0.585025
4   -0.700324
5   -0.402206
6   -0.441072
7   -0.570537
8   0.167764
9   0.212575
10   0.319949
11   0.325351
12   0.435188

>  <lowdin_charges>
12
1   0.063259
2   -0.151895
3   0.176517
4   -0.529174
5   -0.219983
6   -0.243767
7   -0.347938
8   0.155144
9   0.192352
10   0.269036
11   0.275504
12   0.360947

$$$$

