PCCDB-ID:  6347
public computational chemistry database (PCCDB) project, http://pccdb.org

  4  3  0  0  0  0  0  0  0  0999 V2000
    0.9436    0.0176    0.0126 C   0  0  0  0  0  0  0  0  0  0  0  0
   -0.2747    0.0426   -0.0204 N   0  0  0  0  0  0  0  0  0  0  0  0
    2.1108    0.0025   -0.1160 O   0  0  0  0  0  0  0  0  0  0  0  0
   -0.8719    0.0093    0.7920 H   0  0  0  0  0  0  0  0  0  0  0  0
  2  1  2  0  0  0  0
  2  4  1  0  0  0  0
  3  1  2  0  0  0  0
M  END
>  <HBA>
2

>  <HBD>
1

>  <TPSA>
40.92

>  <cid>
6347

>  <dipole>
2.23

>  <excitation_energy_1>
6.41

>  <excitation_energy_2>
7.075

>  <excitation_energy_3>
7.58

>  <excitation_energy_4>
7.784

>  <homo_energy>
-8.221

>  <homo_lumo_gap>
8.302

>  <logP>
0.001

>  <lumo_energy>
0.082

>  <melting_point>
40.97

>  <molecular_refractivity>
9.08

>  <oscillator_strength_1>
0.0029

>  <oscillator_strength_2>
0.0121

>  <oscillator_strength_3>
0.0159

>  <oscillator_strength_4>
0.0101

>  <open_babel_can_smiles>
N=C=O

>  <mulliken_charges>
4
1   0.641206
2   -0.621083
3   -0.385796
4   0.365672

>  <lowdin_charges>
4
1   0.187915
2   -0.375782
3   -0.13442
4   0.322287

$$$$

