PCCDB-ID:  3406
public computational chemistry database (PCCDB) project, http://pccdb.org

 12 12  0  0  0  0  0  0  0  0999 V2000
    0.8404   -0.0068   -0.0194 C   0  0  0  0  0  0  0  0  0  0  0  0
    3.1909    1.0871   -0.0206 C   0  0  0  0  0  0  0  0  0  0  0  0
    3.2247   -1.1150   -0.0152 C   0  0  0  0  0  0  0  0  0  0  0  0
    2.3412   -0.0045   -0.0179 C   0  0  0  0  0  0  0  0  0  0  0  0
    4.4595    0.5965   -0.0202 N   0  0  0  0  0  0  0  0  0  0  0  0
    4.5065   -0.7517   -0.0162 N   0  0  0  0  0  0  0  0  0  0  0  0
    0.4430    1.0134   -0.0091 H   0  0  0  0  0  0  0  0  0  0  0  0
    0.4346   -0.5263    0.8575 H   0  0  0  0  0  0  0  0  0  0  0  0
    0.4358   -0.5082   -0.9073 H   0  0  0  0  0  0  0  0  0  0  0  0
    2.9892    2.1495   -0.0266 H   0  0  0  0  0  0  0  0  0  0  0  0
    2.9709   -2.1680   -0.0144 H   0  0  0  0  0  0  0  0  0  0  0  0
    5.3250    1.1141   -0.0178 H   0  0  0  0  0  0  0  0  0  0  0  0
  1  4  1  0  0  0  0
  1  7  1  0  0  0  0
  1  8  1  0  0  0  0
  2  5  1  0  0  0  0
  2  4  2  0  0  0  0
  3 11  1  0  0  0  0
  4  3  1  0  0  0  0
  5 12  1  0  0  0  0
  5  6  1  0  0  0  0
  6  3  2  0  0  0  0
  9  1  1  0  0  0  0
 10  2  1  0  0  0  0
M  END
>  <HBA>
1

>  <HBD>
1

>  <TPSA>
28.68

>  <cid>
3406

>  <dipole>
2.3

>  <excitation_energy_1>
5.792

>  <excitation_energy_2>
6.202

>  <excitation_energy_3>
6.23

>  <excitation_energy_4>
6.284

>  <homo_energy>
-6.31

>  <homo_lumo_gap>
7.08

>  <logP>
0.718

>  <lumo_energy>
0.77

>  <melting_point>
69.93

>  <molecular_refractivity>
23.55

>  <oscillator_strength_1>
0.0018

>  <oscillator_strength_2>
0.0016

>  <oscillator_strength_3>
0.0026

>  <oscillator_strength_4>
0.0589

>  <open_babel_can_smiles>
Cc1c[nH]nc1

>  <mulliken_charges>
12
1   -0.529333
2   0.032071
3   0.008964
4   0.065199
5   -0.401899
6   -0.278995
7   0.152022
8   0.161493
9   0.161582
10   0.151519
11   0.134332
12   0.343046

>  <lowdin_charges>
12
1   -0.436747
2   -0.154769
3   -0.15878
4   -0.065692
5   -0.126617
6   -0.153772
7   0.156418
8   0.160159
9   0.16004
10   0.16618
11   0.159046
12   0.294535

$$$$

