PCCDB-ID:  5798
public computational chemistry database (PCCDB) project, http://pccdb.org

 15 16  0  0  0  0  0  0  0  0999 V2000
    2.1053   -0.6899   -0.0116 C   0  0  0  0  0  0  0  0  0  0  0  0
    2.1167    0.7199    0.0066 C   0  0  0  0  0  0  0  0  0  0  0  0
    0.9123   -1.4047   -0.0132 C   0  0  0  0  0  0  0  0  0  0  0  0
    0.9362    1.4580    0.0232 C   0  0  0  0  0  0  0  0  0  0  0  0
   -2.3293   -0.0564    0.0269 C   0  0  0  0  0  0  0  0  0  0  0  0
   -0.2884   -0.6837    0.0043 C   0  0  0  0  0  0  0  0  0  0  0  0
   -0.2570    0.7325    0.0217 C   0  0  0  0  0  0  0  0  0  0  0  0
   -1.6016   -1.1420    0.0072 N   0  0  0  0  0  0  0  0  0  0  0  0
   -1.5906    1.1061    0.0363 N   0  0  0  0  0  0  0  0  0  0  0  0
    3.0508   -1.2248   -0.0255 H   0  0  0  0  0  0  0  0  0  0  0  0
    3.0687    1.2435    0.0078 H   0  0  0  0  0  0  0  0  0  0  0  0
    0.8965   -2.4901   -0.0272 H   0  0  0  0  0  0  0  0  0  0  0  0
    0.9497    2.5443    0.0387 H   0  0  0  0  0  0  0  0  0  0  0  0
   -3.4120   -0.0317    0.0348 H   0  0  0  0  0  0  0  0  0  0  0  0
   -1.9553    2.0468    0.0506 H   0  0  0  0  0  0  0  0  0  0  0  0
  1  2  1  0  0  0  0
  2 11  1  0  0  0  0
  2  4  2  0  0  0  0
  3  1  2  0  0  0  0
  3  6  1  0  0  0  0
  4 13  1  0  0  0  0
  5 14  1  0  0  0  0
  5  9  1  0  0  0  0
  6  8  1  0  0  0  0
  6  7  2  0  0  0  0
  7  4  1  0  0  0  0
  7  9  1  0  0  0  0
  8  5  2  0  0  0  0
  9 15  1  0  0  0  0
 10  1  1  0  0  0  0
 12  3  1  0  0  0  0
M  END
>  <HBA>
1

>  <HBD>
1

>  <TPSA>
28.68

>  <cid>
5798

>  <dipole>
3.44

>  <excitation_energy_1>
4.986

>  <excitation_energy_2>
5.203

>  <excitation_energy_3>
5.425

>  <excitation_energy_4>
5.501

>  <homo_energy>
-6.068

>  <homo_lumo_gap>
5.728

>  <logP>
1.563

>  <lumo_energy>
-0.34

>  <melting_point>
110.43

>  <molecular_refractivity>
36.09

>  <oscillator_strength_1>
0.0532

>  <oscillator_strength_2>
0.0987

>  <oscillator_strength_3>
0.0011

>  <oscillator_strength_4>
0.0017

>  <open_babel_can_smiles>
c1ccc2c(c1)[nH]cn2

>  <mulliken_charges>
15
1   -0.143603
2   -0.149526
3   -0.174015
4   -0.16801
5   0.227818
6   0.224018
7   0.339653
8   -0.490736
9   -0.677986
10   0.126087
11   0.126881
12   0.139995
13   0.126248
14   0.160395
15   0.332779

>  <lowdin_charges>
15
1   -0.171194
2   -0.160691
3   -0.152244
4   -0.183508
5   -0.058121
6   0.008193
7   0.016186
8   -0.1901
9   -0.205002
10   0.157582
11   0.157599
12   0.164872
13   0.155457
14   0.166094
15   0.294875

$$$$

