PCCDB-ID:  5524
public computational chemistry database (PCCDB) project, http://pccdb.org

 33 35  0  0  1  0  0  0  0  0999 V2000
   -2.5653    1.7231   -0.0533 C   0  0  0  0  0  0  0  0  0  0  0  0
   -2.6879    0.5025    0.8620 C   0  0  0  0  0  0  0  0  0  0  0  0
    2.3470    1.0491   -0.1390 C   0  0  0  0  0  0  0  0  0  0  0  0
   -1.2019    2.3893    0.1546 C   0  0  0  0  0  0  0  0  0  0  0  0
    1.2562    1.9097   -0.0976 C   0  0  0  0  0  0  0  0  0  0  0  0
   -1.6226   -0.5475    0.5176 C   0  0  0  0  0  0  0  0  0  0  0  0
    2.1660   -0.3254    0.0051 C   0  0  0  0  0  0  0  0  0  0  0  0
    2.3415   -5.2438    1.0609 C   0  0  0  0  0  0  0  0  0  0  0  0
    3.1615   -4.2434    1.9196 C   0  0  0  0  0  0  0  0  0  0  0  0
   -0.0386    1.4116    0.1043 C   0  0  0  0  0  0  0  0  0  0  0  0
   -0.2378    0.0329    0.2827 C   0  0  0  0  0  0  0  0  0  0  0  0
    0.8801   -0.8372    0.2247 C   0  0  0  0  0  0  0  0  0  0  0  0
    1.5068   -3.2353    0.7211 C   0  0  3  0  0  0  0  0  0  0  0  0
    1.2179   -4.4729    0.5147 N   0  0  0  0  0  0  0  0  0  0  0  0
    2.7328   -2.9575    1.3412 N   0  0  0  0  0  0  0  0  0  0  0  0
    0.6443   -2.2191    0.3661 N   0  0  0  0  0  0  0  0  0  0  0  0
   -3.3681    2.4429    0.1466 H   0  0  0  0  0  0  0  0  0  0  0  0
   -2.6723    1.4087   -1.1011 H   0  0  0  0  0  0  0  0  0  0  0  0
   -3.6843    0.0511    0.7867 H   0  0  0  0  0  0  0  0  0  0  0  0
   -2.5641    0.8229    1.9059 H   0  0  0  0  0  0  0  0  0  0  0  0
    3.3460    1.4406   -0.3124 H   0  0  0  0  0  0  0  0  0  0  0  0
   -1.1998    2.8942    1.1331 H   0  0  0  0  0  0  0  0  0  0  0  0
   -1.0422    3.1801   -0.5892 H   0  0  0  0  0  0  0  0  0  0  0  0
    1.3991    2.9798   -0.2294 H   0  0  0  0  0  0  0  0  0  0  0  0
   -1.9476   -1.0942   -0.3842 H   0  0  0  0  0  0  0  0  0  0  0  0
   -1.5727   -1.2989    1.3168 H   0  0  0  0  0  0  0  0  0  0  0  0
    3.0077   -1.0033   -0.0755 H   0  0  0  0  0  0  0  0  0  0  0  0
    1.9870   -6.0986    1.6474 H   0  0  0  0  0  0  0  0  0  0  0  0
    2.9505   -5.6454    0.2375 H   0  0  0  0  0  0  0  0  0  0  0  0
    4.2440   -4.3764    1.8314 H   0  0  0  0  0  0  0  0  0  0  0  0
    2.8882   -4.3110    2.9830 H   0  0  0  0  0  0  0  0  0  0  0  0
    2.7439   -2.1516    1.9575 H   0  0  0  0  0  0  0  0  0  0  0  0
   -0.2264   -2.5824    0.0033 H   0  0  0  0  0  0  0  0  0  0  0  0
  1 17  1  0  0  0  0
  1  4  1  0  0  0  0
  1  2  1  0  0  0  0
  2 20  1  0  0  0  0
  3  5  2  0  0  0  0
  3  7  1  0  0  0  0
  4 22  1  0  0  0  0
  5 10  1  0  0  0  0
  6  2  1  0  0  0  0
  6 26  1  0  0  0  0
  7 12  2  0  0  0  0
  8 28  1  0  0  0  0
  8  9  1  0  0  0  0
  9 31  1  0  0  0  0
 10  4  1  0  0  0  0
 10 11  2  0  0  0  0
 11  6  1  0  0  0  0
 12 11  1  0  0  0  0
 12 16  1  0  0  0  0
 13 15  1  0  0  0  0
 14 13  1  0  0  0  0
 14  8  1  0  0  0  0
 15  9  1  0  0  0  0
 15 32  1  0  0  0  0
 16 13  1  0  0  0  0
 18  1  1  0  0  0  0
 19  2  1  0  0  0  0
 21  3  1  0  0  0  0
 23  4  1  0  0  0  0
 24  5  1  0  0  0  0
 25  6  1  0  0  0  0
 27  7  1  0  0  0  0
 29  8  1  0  0  0  0
 30  9  1  0  0  0  0
 33 16  1  0  0  0  0
M  RAD  2  13   2  14   2
M  END
>  <HBA>
3

>  <HBD>
2

>  <TPSA>
36.42

>  <cid>
5524

>  <dipole>
2.3

>  <excitation_energy_1>
4.549

>  <excitation_energy_2>
4.724

>  <excitation_energy_3>
4.772

>  <excitation_energy_4>
5.116

>  <homo_energy>
-5.268

>  <homo_lumo_gap>
5.317

>  <logP>
1.774

>  <lumo_energy>
0.049

>  <melting_point>
135.09

>  <molecular_refractivity>
74.41

>  <oscillator_strength_1>
0.0214

>  <oscillator_strength_2>
0.1177

>  <oscillator_strength_3>
0.2194

>  <oscillator_strength_4>
0.0035

>  <open_babel_can_smiles>
C1CN[C]([N]1)Nc1cccc2c1CCCC2

>  <mulliken_charges>
33
1   -0.264934
2   -0.264914
3   -0.142234
4   -0.342718
5   -0.185899
6   -0.36294
7   -0.186778
8   -0.146024
9   -0.146491
10   0.104569
11   0.081778
12   0.270572
13   0.676124
14   -0.504412
15   -0.614336
16   -0.759811
17   0.133999
18   0.138176
19   0.135593
20   0.138451
21   0.126496
22   0.150228
23   0.145987
24   0.115707
25   0.144977
26   0.155286
27   0.161117
28   0.141945
29   0.144013
30   0.149957
31   0.139866
32   0.322281
33   0.344369

>  <lowdin_charges>
33
1   -0.275614
2   -0.272398
3   -0.151687
4   -0.275724
5   -0.181095
6   -0.283583
7   -0.205324
8   -0.204247
9   -0.205287
10   -0.007495
11   -0.044373
12   0.04587
13   0.118206
14   -0.288348
15   -0.326214
16   -0.247384
17   0.146671
18   0.141013
19   0.146347
20   0.141223
21   0.156295
22   0.150754
23   0.153225
24   0.150952
25   0.14585
26   0.155343
27   0.172052
28   0.146165
29   0.142212
30   0.14711
31   0.133954
32   0.277141
33   0.298391

$$$$

