PCCDB-ID:  1216
public computational chemistry database (PCCDB) project, http://pccdb.org

 24 23  0  0  1  0  0  0  0  0999 V2000
    1.5824   -0.3090    0.3026 C   0  0  0  0  0  0  0  0  0  0  0  0
    1.3580    0.6503    1.4794 C   0  0  0  0  0  0  0  0  0  0  0  0
    3.0667   -0.3870   -0.0887 C   0  0  0  0  0  0  0  0  0  0  0  0
   -0.1128    0.8162    1.9006 C   0  0  1  0  0  0  0  0  0  0  0  0
   -0.9427    1.5275    0.8044 C   0  0  0  0  0  0  0  0  0  0  0  0
   -0.8330   -0.4009    2.3219 N   0  0  0  0  0  0  0  0  0  0  0  0
   -0.4824    2.3724    0.0723 O   0  0  0  0  0  0  0  0  0  0  0  0
   -2.2292    1.1496    0.7746 O   0  0  0  0  0  0  0  0  0  0  0  0
    5.0244   -1.4957   -1.5383 O   0  0  0  0  0  0  0  0  0  0  0  0
    3.0809   -2.9804   -0.6846 O   0  0  0  0  0  0  0  0  0  0  0  0
    2.7114   -1.3986   -2.7342 O   0  0  0  0  0  0  0  0  0  0  0  0
    3.3989   -1.5625   -1.4264 P   0  0  0  0  0  0  0  0  0  0  0  0
    1.0002    0.0247   -0.5637 H   0  0  0  0  0  0  0  0  0  0  0  0
    1.2387   -1.3201    0.5578 H   0  0  0  0  0  0  0  0  0  0  0  0
    1.7330    1.6438    1.2111 H   0  0  0  0  0  0  0  0  0  0  0  0
    1.9353    0.3097    2.3501 H   0  0  0  0  0  0  0  0  0  0  0  0
    3.6881   -0.6799    0.7669 H   0  0  0  0  0  0  0  0  0  0  0  0
    3.4303    0.5893   -0.4295 H   0  0  0  0  0  0  0  0  0  0  0  0
   -0.1404    1.5016    2.7586 H   0  0  0  0  0  0  0  0  0  0  0  0
   -0.5817   -1.1941    1.7342 H   0  0  0  0  0  0  0  0  0  0  0  0
   -0.6030   -0.6540    3.2796 H   0  0  0  0  0  0  0  0  0  0  0  0
   -2.2983    0.4309    1.4520 H   0  0  0  0  0  0  0  0  0  0  0  0
    5.2820   -1.5103   -2.4756 H   0  0  0  0  0  0  0  0  0  0  0  0
    2.8146   -3.6432   -1.3442 H   0  0  0  0  0  0  0  0  0  0  0  0
  1 14  1  0  0  0  0
  1  2  1  0  0  0  0
  2  4  1  0  0  0  0
  2 16  1  0  0  0  0
  3  1  1  0  0  0  0
  3 17  1  0  0  0  0
  4  6  1  0  0  0  0
  4 19  1  1  0  0  0
  5  4  1  0  0  0  0
  6 21  1  0  0  0  0
  7  5  2  0  0  0  0
  8  5  1  0  0  0  0
  8 22  1  0  0  0  0
  9 12  1  0  0  0  0
 11 12  2  0  0  0  0
 12 10  1  0  0  0  0
 12  3  1  0  0  0  0
 13  1  1  0  0  0  0
 15  2  1  0  0  0  0
 18  3  1  0  0  0  0
 20  6  1  0  0  0  0
 23  9  1  0  0  0  0
 24 10  1  0  0  0  0
M  END
>  <HBA>
6

>  <HBD>
4

>  <TPSA>
130.66

>  <cid>
1216

>  <dipole>
6.05

>  <excitation_energy_1>
5.406

>  <excitation_energy_2>
6.125

>  <excitation_energy_3>
6.417

>  <excitation_energy_4>
6.661

>  <homo_energy>
-6.944

>  <homo_lumo_gap>
7.246

>  <logP>
0.056

>  <lumo_energy>
0.302

>  <melting_point>
191.84

>  <molecular_refractivity>
41.62

>  <oscillator_strength_1>
0.0029

>  <oscillator_strength_2>
0.0136

>  <oscillator_strength_3>
0.0016

>  <oscillator_strength_4>
0.0273

>  <open_babel_can_smiles>
OC(=O)[C@H](CCCP(=O)(O)O)N

>  <mulliken_charges>
24
1   -0.295379
2   -0.259754
3   -0.475741
4   -0.098515
5   0.614721
6   -0.772917
7   -0.467169
8   -0.579391
9   -0.651519
10   -0.658804
11   -0.559092
12   1.042028
13   0.192836
14   0.141584
15   0.174025
16   0.129307
17   0.188522
18   0.195085
19   0.17813
20   0.328111
21   0.324559
22   0.432781
23   0.439512
24   0.43708

>  <lowdin_charges>
24
1   -0.27955
2   -0.284311
3   -0.447197
4   -0.111467
5   0.174006
6   -0.548084
7   -0.257347
8   -0.353758
9   -0.583946
10   -0.583876
11   -0.604792
12   1.052637
13   0.171384
14   0.143015
15   0.167516
16   0.142475
17   0.183143
18   0.185159
19   0.170756
20   0.268661
21   0.272013
22   0.360572
23   0.381318
24   0.381674

$$$$

