PCCDB-ID:  1969
public computational chemistry database (PCCDB) project, http://pccdb.org

 32 31  0  0  0  0  0  0  0  0999 V2000
    5.9645    1.0393    1.3224 C   0  0  0  0  0  0  0  0  0  0  0  0
    5.3814    1.0350   -1.1561 C   0  0  0  0  0  0  0  0  0  0  0  0
    0.9648    1.2256    0.0088 C   0  0  0  0  0  0  0  0  0  0  0  0
    1.6903    1.5756    2.4246 C   0  0  0  0  0  0  0  0  0  0  0  0
    5.2985   -1.1280    0.1992 C   0  0  0  0  0  0  0  0  0  0  0  0
    1.6317    3.5455    0.8370 C   0  0  0  0  0  0  0  0  0  0  0  0
    5.0927    0.4038    0.2207 C   0  0  0  0  0  0  0  0  0  0  0  0
    1.8765    2.0244    0.9617 C   0  0  0  0  0  0  0  0  0  0  0  0
    4.4381   -2.0119    0.5317 N   0  0  0  0  0  0  0  0  0  0  0  0
    6.5871   -1.5256   -0.1398 N   0  0  0  0  0  0  0  0  0  0  0  0
    2.5078    4.4337    0.5621 N   0  0  0  0  0  0  0  0  0  0  0  0
    0.3348    3.9415    1.1456 N   0  0  0  0  0  0  0  0  0  0  0  0
    3.6501    0.6191    0.5733 N   0  0  0  0  0  0  0  0  0  0  0  0
    3.3100    1.8062    0.5747 N   0  0  0  0  0  0  0  0  0  0  0  0
    7.0210    0.8242    1.1446 H   0  0  0  0  0  0  0  0  0  0  0  0
    5.6977    0.6320    2.3031 H   0  0  0  0  0  0  0  0  0  0  0  0
    5.8107    2.1224    1.3384 H   0  0  0  0  0  0  0  0  0  0  0  0
    6.4453    0.9766   -1.4076 H   0  0  0  0  0  0  0  0  0  0  0  0
    5.1013    2.0914   -1.1374 H   0  0  0  0  0  0  0  0  0  0  0  0
    4.8091    0.5364   -1.9459 H   0  0  0  0  0  0  0  0  0  0  0  0
   -0.0857    1.2924    0.3107 H   0  0  0  0  0  0  0  0  0  0  0  0
    1.2513    0.1710    0.0296 H   0  0  0  0  0  0  0  0  0  0  0  0
    1.0545    1.5912   -1.0199 H   0  0  0  0  0  0  0  0  0  0  0  0
    0.6779    1.8026    2.7673 H   0  0  0  0  0  0  0  0  0  0  0  0
    2.3933    2.1023    3.0783 H   0  0  0  0  0  0  0  0  0  0  0  0
    1.8712    0.4998    2.5085 H   0  0  0  0  0  0  0  0  0  0  0  0
    3.5799   -1.5468    0.8313 H   0  0  0  0  0  0  0  0  0  0  0  0
    7.0633   -0.9915   -0.8543 H   0  0  0  0  0  0  0  0  0  0  0  0
    6.6526   -2.5278   -0.2795 H   0  0  0  0  0  0  0  0  0  0  0  0
    3.4168    3.9828    0.4486 H   0  0  0  0  0  0  0  0  0  0  0  0
   -0.4174    3.3328    0.8519 H   0  0  0  0  0  0  0  0  0  0  0  0
    0.1706    4.9164    0.9201 H   0  0  0  0  0  0  0  0  0  0  0  0
  1 17  1  0  0  0  0
  1 16  1  0  0  0  0
  2 19  1  0  0  0  0
  2  7  1  0  0  0  0
  3 22  1  0  0  0  0
  3 21  1  0  0  0  0
  3  8  1  0  0  0  0
  4 26  1  0  0  0  0
  4 24  1  0  0  0  0
  4 25  1  0  0  0  0
  5  7  1  0  0  0  0
  5  9  2  0  0  0  0
  6  8  1  0  0  0  0
  6 12  1  0  0  0  0
  7 13  1  0  0  0  0
  7  1  1  0  0  0  0
  8  4  1  0  0  0  0
  9 27  1  0  0  0  0
 10  5  1  0  0  0  0
 11  6  2  0  0  0  0
 13 14  1  0  0  0  0
 14  8  1  0  0  0  0
 15  1  1  0  0  0  0
 18  2  1  0  0  0  0
 20  2  1  0  0  0  0
 23  3  1  0  0  0  0
 28 10  1  0  0  0  0
 29 10  1  0  0  0  0
 30 11  1  0  0  0  0
 31 12  1  0  0  0  0
 32 12  1  0  0  0  0
M  RAD  2  13   2  14   2
M  END
>  <HBA>
6

>  <HBD>
4

>  <TPSA>
124.46

>  <cid>
1969

>  <dipole>
1.76

>  <excitation_energy_1>
3.035

>  <excitation_energy_2>
4.051

>  <excitation_energy_3>
4.061

>  <excitation_energy_4>
4.344

>  <homo_energy>
-6.256

>  <homo_lumo_gap>
4.629

>  <logP>
2.468

>  <lumo_energy>
-1.627

>  <melting_point>
180.77

>  <molecular_refractivity>
58.1

>  <oscillator_strength_1>
0.0001

>  <oscillator_strength_2>
0.0223

>  <oscillator_strength_3>
0.0002

>  <oscillator_strength_4>
0.0006

>  <open_babel_can_smiles>
NC(=N)C([N][N]C(C(=N)N)(C)C)(C)C

>  <mulliken_charges>
32
1   -0.442563
2   -0.471608
3   -0.470895
4   -0.44252
5   0.448605
6   0.448471
7   0.128418
8   0.128461
9   -0.644742
10   -0.749971
11   -0.644705
12   -0.749751
13   -0.201289
14   -0.201929
15   0.162905
16   0.163467
17   0.165099
18   0.144261
19   0.181151
20   0.16268
21   0.144016
22   0.180964
23   0.1629
24   0.162526
25   0.163449
26   0.165081
27   0.300529
28   0.320362
29   0.33295
30   0.30062
31   0.320144
32   0.332916

>  <lowdin_charges>
32
1   -0.437802
2   -0.448169
3   -0.445863
4   -0.440131
5   0.080879
6   0.081438
7   0.027906
8   0.027417
9   -0.435383
10   -0.485395
11   -0.434731
12   -0.486496
13   -0.07155
14   -0.071515
15   0.161507
16   0.16144
17   0.157857
18   0.150293
19   0.166792
20   0.160632
21   0.150345
22   0.166724
23   0.158686
24   0.162008
25   0.163077
26   0.157984
27   0.253851
28   0.274448
29   0.282779
30   0.253262
31   0.274317
32   0.283391

$$$$

