PCCDB-ID:  6184
public computational chemistry database (PCCDB) project, http://pccdb.org

 19 18  0  0  0  0  0  0  0  0999 V2000
    0.5470    0.6551    0.8344 C   0  0  0  0  0  0  0  0  0  0  0  0
    1.8897    0.3536    0.1611 C   0  0  0  0  0  0  0  0  0  0  0  0
    2.7387   -0.6634    0.9346 C   0  0  0  0  0  0  0  0  0  0  0  0
    4.0838   -0.9648    0.2630 C   0  0  0  0  0  0  0  0  0  0  0  0
    4.9270   -1.9779    1.0379 C   0  0  0  0  0  0  0  0  0  0  0  0
    6.2584   -2.3016    0.3994 C   0  0  0  0  0  0  0  0  0  0  0  0
    6.6674   -1.8184   -0.6336 O   0  0  0  0  0  0  0  0  0  0  0  0
   -0.0343    1.3840    0.2584 H   0  0  0  0  0  0  0  0  0  0  0  0
    0.6914    1.0654    1.8415 H   0  0  0  0  0  0  0  0  0  0  0  0
   -0.0607   -0.2531    0.9319 H   0  0  0  0  0  0  0  0  0  0  0  0
    2.4599    1.2861    0.0454 H   0  0  0  0  0  0  0  0  0  0  0  0
    1.7139   -0.0228   -0.8565 H   0  0  0  0  0  0  0  0  0  0  0  0
    2.1681   -1.5975    1.0497 H   0  0  0  0  0  0  0  0  0  0  0  0
    2.9126   -0.2877    1.9544 H   0  0  0  0  0  0  0  0  0  0  0  0
    4.6595   -0.0379    0.1453 H   0  0  0  0  0  0  0  0  0  0  0  0
    3.9181   -1.3424   -0.7539 H   0  0  0  0  0  0  0  0  0  0  0  0
    4.3898   -2.9310    1.1726 H   0  0  0  0  0  0  0  0  0  0  0  0
    5.1342   -1.6293    2.0630 H   0  0  0  0  0  0  0  0  0  0  0  0
    6.8742   -3.0450    0.9571 H   0  0  0  0  0  0  0  0  0  0  0  0
  1 10  1  0  0  0  0
  1  9  1  0  0  0  0
  2  1  1  0  0  0  0
  2  3  1  0  0  0  0
  3 13  1  0  0  0  0
  3 14  1  0  0  0  0
  4  3  1  0  0  0  0
  4  5  1  0  0  0  0
  5 17  1  0  0  0  0
  5 18  1  0  0  0  0
  6 19  1  0  0  0  0
  6  5  1  0  0  0  0
  7  6  2  0  0  0  0
  8  1  1  0  0  0  0
 11  2  1  0  0  0  0
 12  2  1  0  0  0  0
 15  4  1  0  0  0  0
 16  4  1  0  0  0  0
M  END
>  <HBA>
1

>  <HBD>
0

>  <TPSA>
17.07

>  <cid>
6184

>  <dipole>
2.49

>  <excitation_energy_1>
4.331

>  <excitation_energy_2>
6.526

>  <excitation_energy_3>
7.009

>  <excitation_energy_4>
7.138

>  <homo_energy>
-6.849

>  <homo_lumo_gap>
6.351

>  <logP>
1.766

>  <lumo_energy>
-0.498

>  <melting_point>
5.16

>  <molecular_refractivity>
31.16

>  <oscillator_strength_1>
0.0002

>  <oscillator_strength_2>
0.0329

>  <oscillator_strength_3>
0.0357

>  <oscillator_strength_4>
0.005

>  <open_babel_can_smiles>
CCCCCC=O

>  <mulliken_charges>
19
1   -0.442008
2   -0.24776
3   -0.250156
4   -0.24739
5   -0.351199
6   0.253326
7   -0.382717
8   0.143928
9   0.141351
10   0.1413
11   0.133725
12   0.133784
13   0.126266
14   0.126294
15   0.149052
16   0.149029
17   0.160046
18   0.160457
19   0.10267

>  <lowdin_charges>
19
1   -0.445232
2   -0.271097
3   -0.274147
4   -0.271274
5   -0.311845
6   0.053868
7   -0.21926
8   0.151791
9   0.145521
10   0.146506
11   0.140858
12   0.139852
13   0.13694
14   0.13589
15   0.150964
16   0.149884
17   0.162646
18   0.162139
19   0.115994

$$$$

