PCCDB-ID:  6208
public computational chemistry database (PCCDB) project, http://pccdb.org

 15 15  0  0  0  0  0  0  0  0999 V2000
    1.8478   -1.1130    0.7630 C   0  0  0  0  0  0  0  0  0  0  0  0
    4.2931   -0.5190   -2.9907 C   0  0  0  0  0  0  0  0  0  0  0  0
    3.8358    0.3658   -1.9839 C   0  0  0  0  0  0  0  0  0  0  0  0
    3.9895   -3.0756   -3.2958 C   0  0  0  0  0  0  0  0  0  0  0  0
    3.8502   -1.7809   -2.6725 C   0  0  0  0  0  0  0  0  0  0  0  0
    3.1304   -0.4232   -1.1019 C   0  0  0  0  0  0  0  0  0  0  0  0
    4.6013   -3.2688   -4.3368 O   0  0  0  0  0  0  0  0  0  0  0  0
    2.4946   -0.0738    0.0130 O   0  0  0  0  0  0  0  0  0  0  0  0
    3.1201   -1.7127   -1.4838 O   0  0  0  0  0  0  0  0  0  0  0  0
    1.4041   -0.6120    1.6230 H   0  0  0  0  0  0  0  0  0  0  0  0
    2.5731   -1.8622    1.0948 H   0  0  0  0  0  0  0  0  0  0  0  0
    1.0700   -1.5975    0.1650 H   0  0  0  0  0  0  0  0  0  0  0  0
    4.8838   -0.2773   -3.8632 H   0  0  0  0  0  0  0  0  0  0  0  0
    3.9893    1.4308   -1.8992 H   0  0  0  0  0  0  0  0  0  0  0  0
    3.4885   -3.9028   -2.7481 H   0  0  0  0  0  0  0  0  0  0  0  0
  1 11  1  0  0  0  0
  1 10  1  0  0  0  0
  2  5  2  0  0  0  0
  2  3  1  0  0  0  0
  3 14  1  0  0  0  0
  3  6  2  0  0  0  0
  4 15  1  0  0  0  0
  4  5  1  0  0  0  0
  5  9  1  0  0  0  0
  6  8  1  0  0  0  0
  7  4  2  0  0  0  0
  8  1  1  0  0  0  0
  9  6  1  0  0  0  0
 12  1  1  0  0  0  0
 13  2  1  0  0  0  0
M  END
>  <HBA>
3

>  <HBD>
0

>  <TPSA>
39.44

>  <cid>
6208

>  <dipole>
4.5

>  <excitation_energy_1>
3.807

>  <excitation_energy_2>
4.411

>  <excitation_energy_3>
5.353

>  <excitation_energy_4>
5.8

>  <homo_energy>
-5.946

>  <homo_lumo_gap>
4.604

>  <logP>
1.101

>  <lumo_energy>
-1.342

>  <melting_point>
42.42

>  <molecular_refractivity>
30.59

>  <oscillator_strength_1>
0.0001

>  <oscillator_strength_2>
0.3975

>  <oscillator_strength_3>
0.0026

>  <oscillator_strength_4>
0.0002

>  <open_babel_can_smiles>
COc1ccc(o1)C=O

>  <mulliken_charges>
15
1   -0.224618
2   -0.175517
3   -0.203227
4   0.166798
5   0.292263
6   0.591813
7   -0.42861
8   -0.489361
9   -0.491151
10   0.180401
11   0.174396
12   0.174763
13   0.174433
14   0.154854
15   0.102763

>  <lowdin_charges>
15
1   -0.274346
2   -0.135781
3   -0.242107
4   0.021622
5   0.002855
6   0.178253
7   -0.253105
8   -0.16499
9   -0.112177
10   0.170371
11   0.161003
12   0.161189
13   0.186711
14   0.178082
15   0.122419

$$$$

