PCCDB-ID:  1212
public computational chemistry database (PCCDB) project, http://pccdb.org

 28 29  0  0  1  0  0  0  0  0999 V2000
    1.8868   -1.1452   -0.0037 C   0  0  0  0  0  0  0  0  0  0  0  0
    3.9312    0.9438    3.9706 C   0  0  0  0  0  0  0  0  0  0  0  0
    4.5102   -1.3365    3.4334 C   0  0  0  0  0  0  0  0  0  0  0  0
    3.3099    1.0737    2.7316 C   0  0  0  0  0  0  0  0  0  0  0  0
    3.8851   -1.2019    2.1982 C   0  0  0  0  0  0  0  0  0  0  0  0
    4.5346   -0.2655    4.3375 C   0  0  0  0  0  0  0  0  0  0  0  0
    3.2591   -0.0012    1.8302 C   0  0  0  0  0  0  0  0  0  0  0  0
    5.1897   -0.4154    5.6396 C   0  0  0  0  0  0  0  0  0  0  0  0
    3.7393    0.4768   -0.5555 C   0  0  0  0  0  0  0  0  0  0  0  0
    2.5925    0.1423    0.4543 C   0  0  1  0  0  0  0  0  0  0  0  0
    1.6803    1.3099    0.4683 N   0  0  0  0  0  0  0  0  0  0  0  0
    5.2761    0.5521    6.5579 N   0  0  0  0  0  0  0  0  0  0  0  0
    5.7878   -1.5689    6.0621 N   0  0  0  0  0  0  0  0  0  0  0  0
    5.9411   -0.0725    7.5220 N   0  0  0  0  0  0  0  0  0  0  0  0
    6.2604   -1.3354    7.2580 N   0  0  0  0  0  0  0  0  0  0  0  0
    4.4365   -0.3701   -1.0598 O   0  0  0  0  0  0  0  0  0  0  0  0
    3.8935    1.7895   -0.7839 O   0  0  0  0  0  0  0  0  0  0  0  0
    2.6011   -1.9467   -0.1969 H   0  0  0  0  0  0  0  0  0  0  0  0
    1.3522   -0.9596   -0.9430 H   0  0  0  0  0  0  0  0  0  0  0  0
    1.1654   -1.4775    0.7501 H   0  0  0  0  0  0  0  0  0  0  0  0
    3.9562    1.7845    4.6566 H   0  0  0  0  0  0  0  0  0  0  0  0
    4.9863   -2.2726    3.7055 H   0  0  0  0  0  0  0  0  0  0  0  0
    2.8693    2.0283    2.4649 H   0  0  0  0  0  0  0  0  0  0  0  0
    3.8990   -2.0412    1.5127 H   0  0  0  0  0  0  0  0  0  0  0  0
    1.0985    1.2971    1.3043 H   0  0  0  0  0  0  0  0  0  0  0  0
    1.0479    1.2546   -0.3297 H   0  0  0  0  0  0  0  0  0  0  0  0
    6.1898    0.3764    8.3940 H   0  0  0  0  0  0  0  0  0  0  0  0
    3.1666    2.2283   -0.2776 H   0  0  0  0  0  0  0  0  0  0  0  0
  1 10  1  0  0  0  0
  1 20  1  0  0  0  0
  2  6  1  0  0  0  0
  2 21  1  0  0  0  0
  3 22  1  0  0  0  0
  3  6  2  0  0  0  0
  4  2  2  0  0  0  0
  5  3  1  0  0  0  0
  6  8  1  0  0  0  0
  7  5  2  0  0  0  0
  7  4  1  0  0  0  0
  8 13  1  0  0  0  0
  8 12  2  0  0  0  0
 10  9  1  6  0  0  0
 10 11  1  0  0  0  0
 10  7  1  0  0  0  0
 11 25  1  0  0  0  0
 12 14  1  0  0  0  0
 13 15  2  0  0  0  0
 14 27  1  0  0  0  0
 15 14  1  0  0  0  0
 16  9  2  0  0  0  0
 17  9  1  0  0  0  0
 17 28  1  0  0  0  0
 18  1  1  0  0  0  0
 19  1  1  0  0  0  0
 23  4  1  0  0  0  0
 24  5  1  0  0  0  0
 26 11  1  0  0  0  0
M  END
>  <HBA>
6

>  <HBD>
3

>  <TPSA>
117.78

>  <cid>
1212

>  <dipole>
5.92

>  <excitation_energy_1>
4.697

>  <excitation_energy_2>
4.821

>  <excitation_energy_3>
5.077

>  <excitation_energy_4>
5.227

>  <homo_energy>
-6.563

>  <homo_lumo_gap>
5.208

>  <logP>
0.825

>  <lumo_energy>
-1.355

>  <melting_point>
276.24

>  <molecular_refractivity>
58.56

>  <oscillator_strength_1>
0.2856

>  <oscillator_strength_2>
0.0653

>  <oscillator_strength_3>
0.0031

>  <oscillator_strength_4>
0.1625

>  <open_babel_can_smiles>
OC(=O)[C@@](c1ccc(cc1)c1nn[nH]n1)(N)C

>  <mulliken_charges>
28
1   -0.461626
2   -0.177546
3   -0.181043
4   -0.195809
5   -0.171463
6   0.13762
7   0.144928
8   0.446032
9   0.631138
10   0.010464
11   -0.781029
12   -0.338447
13   -0.361651
14   -0.193565
15   -0.030751
16   -0.462087
17   -0.58056
18   0.190333
19   0.14568
20   0.15125
21   0.158244
22   0.17118
23   0.144508
24   0.150631
25   0.322536
26   0.322587
27   0.37424
28   0.434206

>  <lowdin_charges>
28
1   -0.450159
2   -0.144485
3   -0.138466
4   -0.170981
5   -0.151841
6   -0.013001
7   -0.005991
8   0.025774
9   0.183053
10   0.02413
11   -0.543364
12   -0.13749
13   -0.137242
14   -0.063947
15   -0.058639
16   -0.2518
17   -0.352393
18   0.175216
19   0.153081
20   0.155708
21   0.173154
22   0.179093
23   0.164895
24   0.171634
25   0.271847
26   0.26899
27   0.311993
28   0.361229

$$$$

