PCCDB-ID:  190
public computational chemistry database (PCCDB) project, http://pccdb.org

 15 16  0  0  0  0  0  0  0  0999 V2000
    2.2762    0.0436   -0.0016 C   0  0  0  0  0  0  0  0  0  0  0  0
   -2.0453    0.5905    0.0004 C   0  0  0  0  0  0  0  0  0  0  0  0
    0.3207   -0.7207    0.0306 C   0  0  0  0  0  0  0  0  0  0  0  0
   -0.8951   -1.4114    0.0486 C   0  0  0  0  0  0  0  0  0  0  0  0
    0.3002    0.6960   -0.0044 C   0  0  0  0  0  0  0  0  0  0  0  0
   -0.9700   -2.7571    0.0945 N   0  0  0  0  0  0  0  0  0  0  0  0
    1.6287   -1.1264    0.0305 N   0  0  0  0  0  0  0  0  0  0  0  0
   -2.0769   -0.7184    0.0306 N   0  0  0  0  0  0  0  0  0  0  0  0
    1.5305    1.1987   -0.0239 N   0  0  0  0  0  0  0  0  0  0  0  0
   -0.9147    1.3400   -0.0168 N   0  0  0  0  0  0  0  0  0  0  0  0
    3.3594    0.0941   -0.0100 H   0  0  0  0  0  0  0  0  0  0  0  0
   -2.9825    1.1392   -0.0119 H   0  0  0  0  0  0  0  0  0  0  0  0
   -0.1213   -3.2998    0.0379 H   0  0  0  0  0  0  0  0  0  0  0  0
   -1.8684   -3.2095    0.0240 H   0  0  0  0  0  0  0  0  0  0  0  0
   -0.9566    2.3528   -0.0424 H   0  0  0  0  0  0  0  0  0  0  0  0
  1  7  2  0  0  0  0
  2  8  2  0  0  0  0
  3  4  2  0  0  0  0
  4  6  1  0  0  0  0
  5  3  1  0  0  0  0
  7  3  1  0  0  0  0
  8  4  1  0  0  0  0
  9  5  2  0  0  0  0
  9  1  1  0  0  0  0
 10  5  1  0  0  0  0
 10  2  1  0  0  0  0
 11  1  1  0  0  0  0
 12  2  1  0  0  0  0
 13  6  1  0  0  0  0
 14  6  1  0  0  0  0
 15 10  1  0  0  0  0
M  END
>  <HBA>
4

>  <HBD>
2

>  <TPSA>
80.48

>  <cid>
190

>  <dipole>
4.09

>  <excitation_energy_1>
4.334

>  <excitation_energy_2>
4.65

>  <excitation_energy_3>
4.714

>  <excitation_energy_4>
5.057

>  <homo_energy>
-5.842

>  <homo_lumo_gap>
4.724

>  <logP>
0.516

>  <lumo_energy>
-1.118

>  <melting_point>
191.6

>  <molecular_refractivity>
36.09

>  <oscillator_strength_1>
0.0849

>  <oscillator_strength_2>
0.1237

>  <oscillator_strength_3>
0.0004

>  <oscillator_strength_4>
0.0028

>  <open_babel_can_smiles>
Nc1nc[nH]c2c1ncn2

>  <mulliken_charges>
15
1   0.16275
2   0.233895
3   0.234718
4   0.476241
5   0.48363
6   -0.772201
7   -0.533386
8   -0.509821
9   -0.512702
10   -0.641893
11   0.134343
12   0.173833
13   0.367031
14   0.350001
15   0.353562

>  <lowdin_charges>
15
1   -0.064161
2   -0.025818
3   -0.066096
4   0.127161
5   0.039323
6   -0.426063
7   -0.232251
8   -0.202458
9   -0.242743
10   -0.147003
11   0.153511
12   0.173709
13   0.308268
14   0.298826
15   0.305795

$$$$

