PCCDB-ID:  5734
public computational chemistry database (PCCDB) project, http://pccdb.org

 22 23  0  0  0  0  0  0  0  0999 V2000
   -2.5992    0.2612   -0.2231 C   0  0  0  0  0  0  0  0  0  0  0  0
   -2.3740    1.6459   -0.0638 C   0  0  0  0  0  0  0  0  0  0  0  0
   -1.5463   -0.6429   -0.2658 C   0  0  0  0  0  0  0  0  0  0  0  0
   -1.0921    2.1716    0.0554 C   0  0  0  0  0  0  0  0  0  0  0  0
    1.5990   -2.0526   -0.1843 C   0  0  0  0  0  0  0  0  0  0  0  0
   -0.2445   -0.1296   -0.1394 C   0  0  0  0  0  0  0  0  0  0  0  0
    1.0988   -0.6462   -0.1175 C   0  0  0  0  0  0  0  0  0  0  0  0
   -0.0480    1.2481    0.0126 C   0  0  0  0  0  0  0  0  0  0  0  0
    2.0964   -4.3139   -1.5923 N   0  0  0  0  0  0  0  0  0  0  0  0
    1.9830    0.3103    0.0262 N   0  0  0  0  0  0  0  0  0  0  0  0
   -0.2017   -3.2374   -1.7685 O   0  0  0  0  0  0  0  0  0  0  0  0
    1.8168   -2.0871   -2.8532 O   0  0  0  0  0  0  0  0  0  0  0  0
    1.2792    1.5186    0.1121 O   0  0  0  0  0  0  0  0  0  0  0  0
    1.2198   -2.8712   -1.7720 S   0  0  0  0  0  0  0  0  0  0  0  0
   -3.6186   -0.0999   -0.3209 H   0  0  0  0  0  0  0  0  0  0  0  0
   -3.2256    2.3198   -0.0376 H   0  0  0  0  0  0  0  0  0  0  0  0
   -1.7146   -1.7033   -0.4163 H   0  0  0  0  0  0  0  0  0  0  0  0
   -0.9067    3.2334    0.1739 H   0  0  0  0  0  0  0  0  0  0  0  0
    1.1521   -2.6895    0.5848 H   0  0  0  0  0  0  0  0  0  0  0  0
    2.6858   -2.0629   -0.0785 H   0  0  0  0  0  0  0  0  0  0  0  0
    1.4674   -5.1028   -1.7291 H   0  0  0  0  0  0  0  0  0  0  0  0
    2.8613   -4.3368   -2.2643 H   0  0  0  0  0  0  0  0  0  0  0  0
  1  2  1  0  0  0  0
  2 16  1  0  0  0  0
  2  4  2  0  0  0  0
  3  1  2  0  0  0  0
  3  6  1  0  0  0  0
  4 18  1  0  0  0  0
  5  7  1  0  0  0  0
  5 20  1  0  0  0  0
  5 19  1  0  0  0  0
  6  7  1  0  0  0  0
  6  8  2  0  0  0  0
  7 10  2  0  0  0  0
  8  4  1  0  0  0  0
  8 13  1  0  0  0  0
 10 13  1  0  0  0  0
 12 14  2  0  0  0  0
 14 11  2  0  0  0  0
 14  9  1  0  0  0  0
 14  5  1  0  0  0  0
 15  1  1  0  0  0  0
 17  3  1  0  0  0  0
 21  9  1  0  0  0  0
 22  9  1  0  0  0  0
M  END
>  <HBA>
5

>  <HBD>
1

>  <TPSA>
94.57

>  <cid>
5734

>  <dipole>
3.13

>  <excitation_energy_1>
4.728

>  <excitation_energy_2>
5.191

>  <excitation_energy_3>
5.987

>  <excitation_energy_4>
6.037

>  <homo_energy>
-6.724

>  <homo_lumo_gap>
5.38

>  <logP>
2.397

>  <lumo_energy>
-1.344

>  <melting_point>
151.11

>  <molecular_refractivity>
50.65

>  <oscillator_strength_1>
0.0765

>  <oscillator_strength_2>
0.1051

>  <oscillator_strength_3>
0.011

>  <oscillator_strength_4>
0.0045

>  <open_babel_can_smiles>
NS(=O)(=O)Cc1noc2c1cccc2

>  <mulliken_charges>
22
1   -0.142947
2   -0.136942
3   -0.18058
4   -0.159659
5   -0.542589
6   0.037662
7   0.282882
8   0.367832
9   -0.830521
10   -0.195632
11   -0.536061
12   -0.503144
13   -0.418457
14   1.172628
15   0.140604
16   0.143107
17   0.175759
18   0.155891
19   0.218298
20   0.229432
21   0.361769
22   0.360667

>  <lowdin_charges>
22
1   -0.163024
2   -0.138069
3   -0.13697
4   -0.172195
5   -0.414223
6   -0.058787
7   0.00853
8   0.093172
9   -0.699074
10   -0.050439
11   -0.598729
12   -0.57969
13   -0.080599
14   1.301148
15   0.163375
16   0.165943
17   0.178754
18   0.173904
19   0.197764
20   0.202622
21   0.303899
22   0.302689

$$$$

