PCCDB-ID:  5394
public computational chemistry database (PCCDB) project, http://pccdb.org

 20 21  0  0  0  0  0  0  0  0999 V2000
    1.1537   -0.0568    0.1772 C   0  0  0  0  0  0  0  0  0  0  0  0
    5.6014   -2.1745   -0.1642 C   0  0  0  0  0  0  0  0  0  0  0  0
    6.5983   -0.2505   -0.1339 C   0  0  0  0  0  0  0  0  0  0  0  0
    7.7386    0.7120   -0.1568 C   0  0  0  0  0  0  0  0  0  0  0  0
    5.2398    0.0218   -0.0416 C   0  0  0  0  0  0  0  0  0  0  0  0
    3.2241   -1.3838    0.0061 C   0  0  0  0  0  0  0  0  0  0  0  0
    8.9510    0.0982   -0.2540 N   0  0  0  0  0  0  0  0  0  0  0  0
    6.7895   -1.6107   -0.2074 N   0  0  0  0  0  0  0  0  0  0  0  0
    4.5047    1.1710    0.0542 N   0  0  0  0  0  0  0  0  0  0  0  0
    3.2435    1.1004    0.1245 N   0  0  0  0  0  0  0  0  0  0  0  0
    2.6123   -0.1453    0.1044 N   0  0  0  0  0  0  0  0  0  0  0  0
    4.6172   -1.2311   -0.0624 N   0  0  0  0  0  0  0  0  0  0  0  0
    7.5783    1.9225   -0.0931 O   0  0  0  0  0  0  0  0  0  0  0  0
    2.6672   -2.4613   -0.0184 O   0  0  0  0  0  0  0  0  0  0  0  0
    0.7600   -1.0643    0.3003 H   0  0  0  0  0  0  0  0  0  0  0  0
    0.7612    0.3876   -0.7414 H   0  0  0  0  0  0  0  0  0  0  0  0
    0.8774    0.5672    1.0293 H   0  0  0  0  0  0  0  0  0  0  0  0
    5.3811   -3.2312   -0.2002 H   0  0  0  0  0  0  0  0  0  0  0  0
    9.0191   -0.9079   -0.3082 H   0  0  0  0  0  0  0  0  0  0  0  0
    9.7807    0.6714   -0.2814 H   0  0  0  0  0  0  0  0  0  0  0  0
  1 15  1  0  0  0  0
  1 17  1  0  0  0  0
  2 12  1  0  0  0  0
  3  5  2  0  0  0  0
  4  3  1  0  0  0  0
  4 13  2  0  0  0  0
  5  9  1  0  0  0  0
  6 11  1  0  0  0  0
  7  4  1  0  0  0  0
  8  2  2  0  0  0  0
  8  3  1  0  0  0  0
  9 10  2  0  0  0  0
 11 10  1  0  0  0  0
 11  1  1  0  0  0  0
 12  5  1  0  0  0  0
 12  6  1  0  0  0  0
 14  6  2  0  0  0  0
 16  1  1  0  0  0  0
 18  2  1  0  0  0  0
 19  7  1  0  0  0  0
 20  7  1  0  0  0  0
M  END
>  <HBA>
8

>  <HBD>
1

>  <TPSA>
108.17

>  <cid>
5394

>  <dipole>
3.34

>  <excitation_energy_1>
3.541

>  <excitation_energy_2>
4.036

>  <excitation_energy_3>
4.056

>  <excitation_energy_4>
4.248

>  <homo_energy>
-6.865

>  <homo_lumo_gap>
4.414

>  <logP>
-1.378

>  <lumo_energy>
-2.452

>  <melting_point>
216.81

>  <molecular_refractivity>
44.4

>  <oscillator_strength_1>
0.0002

>  <oscillator_strength_2>
0.0096

>  <oscillator_strength_3>
0.2171

>  <oscillator_strength_4>
0.0601

>  <open_babel_can_smiles>
NC(=O)c1ncn2c1nnn(c2=O)C

>  <mulliken_charges>
20
1   -0.312357
2   0.237857
3   0.194245
4   0.576513
5   0.492439
6   0.833164
7   -0.760586
8   -0.523424
9   -0.316551
10   -0.013389
11   -0.376198
12   -0.550779
13   -0.503362
14   -0.485958
15   0.209863
16   0.191712
17   0.194582
18   0.206055
19   0.361294
20   0.344881

>  <lowdin_charges>
20
1   -0.345973
2   -0.052976
3   -0.011354
4   0.156051
5   0.030195
6   0.18812
7   -0.453771
8   -0.164274
9   -0.051969
10   -0.017534
11   -0.040664
12   -0.004434
13   -0.288503
14   -0.2663
15   0.187665
16   0.173141
17   0.177231
18   0.192727
19   0.297406
20   0.295217

$$$$

