PCCDB-ID:  5147
public computational chemistry database (PCCDB) project, http://pccdb.org

 17 17  0  0  0  0  0  0  0  0999 V2000
   -1.3824   -0.0938   -0.0093 C   0  0  0  0  0  0  0  0  0  0  0  0
   -0.6278   -1.2658    0.0364 C   0  0  0  0  0  0  0  0  0  0  0  0
   -0.7286    1.1356   -0.0588 C   0  0  0  0  0  0  0  0  0  0  0  0
    0.7640   -1.2003    0.0186 C   0  0  0  0  0  0  0  0  0  0  0  0
    0.6723    1.2340   -0.0709 C   0  0  0  0  0  0  0  0  0  0  0  0
    1.4162    0.0348   -0.0437 C   0  0  0  0  0  0  0  0  0  0  0  0
    1.3253    2.5802   -0.1373 C   0  0  0  0  0  0  0  0  0  0  0  0
    2.3993    2.9077   -0.7295 N   0  0  0  0  0  0  0  0  0  0  0  0
    2.7795    0.1194   -0.0744 O   0  0  0  0  0  0  0  0  0  0  0  0
    0.6281    3.5842    0.4837 O   0  0  0  0  0  0  0  0  0  0  0  0
   -2.4671   -0.1349   -0.0117 H   0  0  0  0  0  0  0  0  0  0  0  0
   -1.1170   -2.2347    0.0796 H   0  0  0  0  0  0  0  0  0  0  0  0
   -1.3137    2.0491   -0.1198 H   0  0  0  0  0  0  0  0  0  0  0  0
    1.3555   -2.1137    0.0510 H   0  0  0  0  0  0  0  0  0  0  0  0
    2.8098    2.0926   -1.1831 H   0  0  0  0  0  0  0  0  0  0  0  0
    3.1530   -0.7746   -0.0241 H   0  0  0  0  0  0  0  0  0  0  0  0
    0.0244    3.1892    1.1314 H   0  0  0  0  0  0  0  0  0  0  0  0
  1  2  2  0  0  0  0
  2 12  1  0  0  0  0
  3  1  1  0  0  0  0
  4  2  1  0  0  0  0
  4 14  1  0  0  0  0
  5  3  2  0  0  0  0
  5  6  1  0  0  0  0
  6  4  2  0  0  0  0
  7  5  1  0  0  0  0
  7 10  1  0  0  0  0
  8  7  2  0  0  0  0
  9  6  1  0  0  0  0
  9 16  1  0  0  0  0
 10 17  1  0  0  0  0
 11  1  1  0  0  0  0
 13  3  1  0  0  0  0
 15  8  1  0  0  0  0
M  END
>  <HBA>
3

>  <HBD>
2

>  <TPSA>
63.32

>  <cid>
5147

>  <dipole>
5.85

>  <excitation_energy_1>
4.708

>  <excitation_energy_2>
4.902

>  <excitation_energy_3>
5.268

>  <excitation_energy_4>
5.42

>  <homo_energy>
-6.422

>  <homo_lumo_gap>
5.415

>  <logP>
1.191

>  <lumo_energy>
-1.007

>  <melting_point>
134.1

>  <molecular_refractivity>
36.56

>  <oscillator_strength_1>
0.0752

>  <oscillator_strength_2>
0.0053

>  <oscillator_strength_3>
0.0894

>  <oscillator_strength_4>
0.0016

>  <open_babel_can_smiles>
OC(=N)c1ccccc1O

>  <mulliken_charges>
17
1   -0.130048
2   -0.1296
3   -0.210974
4   -0.188454
5   0.038439
6   0.304265
7   0.438463
8   -0.581793
9   -0.635461
10   -0.582215
11   0.138225
12   0.141798
13   0.149276
14   0.127335
15   0.303823
16   0.415065
17   0.401858

>  <lowdin_charges>
17
1   -0.170861
2   -0.135529
3   -0.155115
4   -0.208609
5   -0.077455
6   0.110149
7   0.12424
8   -0.378238
9   -0.367127
10   -0.371961
11   0.161343
12   0.164197
13   0.166459
14   0.158246
15   0.264345
16   0.361621
17   0.354296

$$$$

