PCCDB-ID:  729
public computational chemistry database (PCCDB) project, http://pccdb.org

 17 16  0  0  1  0  0  0  0  0999 V2000
    0.0933    1.5126    3.4896 C   0  0  0  0  0  0  0  0  0  0  0  0
    0.1761    0.5351    1.1626 C   0  0  0  0  0  0  0  0  0  0  0  0
   -0.3104    0.3344    2.6026 C   0  0  1  0  0  0  0  0  0  0  0  0
    0.1554    2.6542    3.0938 O   0  0  0  0  0  0  0  0  0  0  0  0
    0.1181   -0.9012    3.1787 O   0  0  0  0  0  0  0  0  0  0  0  0
   -0.5548   -2.8985    1.2728 O   0  0  0  0  0  0  0  0  0  0  0  0
    0.3801   -2.6337   -0.9755 O   0  0  0  0  0  0  0  0  0  0  0  0
    1.8669   -1.8709    1.0553 O   0  0  0  0  0  0  0  0  0  0  0  0
   -0.2358   -0.5472    0.3154 O   0  0  0  0  0  0  0  0  0  0  0  0
    0.4970   -1.9860    0.4839 P   0  0  0  0  0  0  0  0  0  0  0  0
    0.3202    1.2319    4.5408 H   0  0  0  0  0  0  0  0  0  0  0  0
    1.2665    0.6343    1.1354 H   0  0  0  0  0  0  0  0  0  0  0  0
   -0.2712    1.4418    0.7540 H   0  0  0  0  0  0  0  0  0  0  0  0
   -1.4079    0.2872    2.6019 H   0  0  0  0  0  0  0  0  0  0  0  0
    1.0533   -1.0573    2.9361 H   0  0  0  0  0  0  0  0  0  0  0  0
   -0.6440   -2.5255    2.1758 H   0  0  0  0  0  0  0  0  0  0  0  0
    1.2397   -2.5987   -1.4259 H   0  0  0  0  0  0  0  0  0  0  0  0
  1 11  1  0  0  0  0
  2  3  1  0  0  0  0
  3 14  1  6  0  0  0
  3  5  1  0  0  0  0
  3  1  1  0  0  0  0
  4  1  2  0  0  0  0
  6 16  1  0  0  0  0
  7 10  1  0  0  0  0
  9 10  1  0  0  0  0
  9  2  1  0  0  0  0
 10  8  2  0  0  0  0
 10  6  1  0  0  0  0
 12  2  1  0  0  0  0
 13  2  1  0  0  0  0
 15  5  1  0  0  0  0
 17  7  1  0  0  0  0
M  END
>  <HBA>
6

>  <HBD>
3

>  <TPSA>
113.87

>  <cid>
729

>  <dipole>
0.57

>  <excitation_energy_1>
4.03

>  <excitation_energy_2>
5.893

>  <excitation_energy_3>
6.113

>  <excitation_energy_4>
6.53

>  <homo_energy>
-7.41

>  <homo_lumo_gap>
5.91

>  <logP>
-1.345

>  <lumo_energy>
-1.499

>  <melting_point>
105.5

>  <molecular_refractivity>
29.97

>  <oscillator_strength_1>
0.0004

>  <oscillator_strength_2>
0.0143

>  <oscillator_strength_3>
0.0097

>  <oscillator_strength_4>
0.0006

>  <open_babel_can_smiles>
O=C[C@@H](COP(=O)(O)O)O

>  <mulliken_charges>
17
1   0.230203
2   -0.071163
3   0.038826
4   -0.371619
5   -0.65283
6   -0.638341
7   -0.610742
8   -0.608724
9   -0.522868
10   1.180173
11   0.138102
12   0.178367
13   0.191541
14   0.192306
15   0.426068
16   0.453122
17   0.447579

>  <lowdin_charges>
17
1   0.045224
2   -0.135624
3   -0.050732
4   -0.200035
5   -0.453072
6   -0.55108
7   -0.538737
8   -0.617907
9   -0.389577
10   1.114498
11   0.133302
12   0.162597
13   0.178942
14   0.173248
15   0.359518
16   0.378598
17   0.390838

$$$$

