PCCDB-ID:  1344
public computational chemistry database (PCCDB) project, http://pccdb.org

 22 22  0  0  0  0  0  0  0  0999 V2000
   -0.4539   -1.0672    1.5553 C   0  0  0  0  0  0  0  0  0  0  0  0
    1.0335   -0.9966    1.1151 C   0  0  0  0  0  0  0  0  0  0  0  0
   -1.7427    0.2597   -2.3140 C   0  0  0  0  0  0  0  0  0  0  0  0
   -1.1247    0.1295    0.8187 C   0  0  0  0  0  0  0  0  0  0  0  0
    1.0872    0.2583    0.2016 C   0  0  0  0  0  0  0  0  0  0  0  0
   -0.5673   -0.3296   -1.5281 C   0  0  0  0  0  0  0  0  0  0  0  0
   -1.9941   -0.5439   -3.5168 N   0  0  0  0  0  0  0  0  0  0  0  0
   -0.2669    0.4653   -0.3303 N   0  0  0  0  0  0  0  0  0  0  0  0
   -0.5755   -0.9874    2.6405 H   0  0  0  0  0  0  0  0  0  0  0  0
   -0.9060   -2.0171    1.2520 H   0  0  0  0  0  0  0  0  0  0  0  0
    1.3182   -1.8958    0.5582 H   0  0  0  0  0  0  0  0  0  0  0  0
    1.7215   -0.9114    1.9628 H   0  0  0  0  0  0  0  0  0  0  0  0
   -1.5294    1.3254   -2.5034 H   0  0  0  0  0  0  0  0  0  0  0  0
   -2.6512    0.2255   -1.7002 H   0  0  0  0  0  0  0  0  0  0  0  0
   -1.1677    1.0025    1.4833 H   0  0  0  0  0  0  0  0  0  0  0  0
   -2.1471   -0.0823    0.4938 H   0  0  0  0  0  0  0  0  0  0  0  0
    1.8152    0.1802   -0.6115 H   0  0  0  0  0  0  0  0  0  0  0  0
    1.3559    1.1395    0.8002 H   0  0  0  0  0  0  0  0  0  0  0  0
    0.3218   -0.3094   -2.1722 H   0  0  0  0  0  0  0  0  0  0  0  0
   -0.7800   -1.3930   -1.3197 H   0  0  0  0  0  0  0  0  0  0  0  0
   -1.2312   -0.4108   -4.1804 H   0  0  0  0  0  0  0  0  0  0  0  0
   -2.8315   -0.2050   -3.9871 H   0  0  0  0  0  0  0  0  0  0  0  0
  1  9  1  0  0  0  0
  2  1  1  0  0  0  0
  2 12  1  0  0  0  0
  3 14  1  0  0  0  0
  3  6  1  0  0  0  0
  4 15  1  0  0  0  0
  4  1  1  0  0  0  0
  5 18  1  0  0  0  0
  5  2  1  0  0  0  0
  6 20  1  0  0  0  0
  6  8  1  0  0  0  0
  7  3  1  0  0  0  0
  8  5  1  0  0  0  0
  8  4  1  0  0  0  0
 10  1  1  0  0  0  0
 11  2  1  0  0  0  0
 13  3  1  0  0  0  0
 16  4  1  0  0  0  0
 17  5  1  0  0  0  0
 19  6  1  0  0  0  0
 21  7  1  0  0  0  0
 22  7  1  0  0  0  0
M  END
>  <HBA>
2

>  <HBD>
1

>  <TPSA>
29.26

>  <cid>
1344

>  <dipole>
0.51

>  <excitation_energy_1>
5.132

>  <excitation_energy_2>
5.406

>  <excitation_energy_3>
5.608

>  <excitation_energy_4>
5.618

>  <homo_energy>
-5.578

>  <homo_lumo_gap>
7.674

>  <logP>
0.679

>  <lumo_energy>
2.095

>  <melting_point>
52.9

>  <molecular_refractivity>
38.36

>  <oscillator_strength_1>
0.0205

>  <oscillator_strength_2>
0.006

>  <oscillator_strength_3>
0.0046

>  <oscillator_strength_4>
0.0118

>  <open_babel_can_smiles>
NCCN1CCCC1

>  <mulliken_charges>
22
1   -0.284316
2   -0.283319
3   -0.137281
4   -0.15139
5   -0.143831
6   -0.115928
7   -0.720954
8   -0.380972
9   0.136798
10   0.143221
11   0.141054
12   0.136178
13   0.125013
14   0.137166
15   0.140873
16   0.140803
17   0.135715
18   0.139029
19   0.123831
20   0.130274
21   0.291266
22   0.296769

>  <lowdin_charges>
22
1   -0.30066
2   -0.303224
3   -0.209035
4   -0.211184
5   -0.21016
6   -0.204778
7   -0.56234
8   -0.19104
9   0.145105
10   0.146493
11   0.145748
12   0.147006
13   0.122184
14   0.139967
15   0.14194
16   0.1458
17   0.14527
18   0.14052
19   0.138537
20   0.12617
21   0.251369
22   0.256312

$$$$

