PCCDB-ID:  1678
public computational chemistry database (PCCDB) project, http://pccdb.org

 13 12  0  0  0  0  0  0  0  0999 V2000
    1.4524   -0.0710    0.3020 C   0  0  0  0  0  0  0  0  0  0  0  0
    1.3174   -1.1102    1.4204 C   0  0  0  0  0  0  0  0  0  0  0  0
    2.8716    0.1358   -0.2477 C   0  0  0  0  0  0  0  0  0  0  0  0
    1.0732   -2.5228    0.9305 N   0  0  0  0  0  0  0  0  0  0  0  0
    3.4219    1.2089   -0.2107 O   0  0  0  0  0  0  0  0  0  0  0  0
    3.4697   -0.9488   -0.7716 O   0  0  0  0  0  0  0  0  0  0  0  0
    1.5376   -2.8541   -0.1682 O   0  0  0  0  0  0  0  0  0  0  0  0
    0.4445   -3.2628    1.6660 O   0  0  0  0  0  0  0  0  0  0  0  0
    1.1409    0.8949    0.7052 H   0  0  0  0  0  0  0  0  0  0  0  0
    0.7687   -0.3213   -0.5182 H   0  0  0  0  0  0  0  0  0  0  0  0
    0.4697   -0.9038    2.0736 H   0  0  0  0  0  0  0  0  0  0  0  0
    2.2169   -1.1828    2.0409 H   0  0  0  0  0  0  0  0  0  0  0  0
    2.8582   -1.7160   -0.7411 H   0  0  0  0  0  0  0  0  0  0  0  0
  1  9  1  0  0  0  0
  1  2  1  0  0  0  0
  2 12  1  0  0  0  0
  2 11  1  0  0  0  0
  3  5  2  0  0  0  0
  3  1  1  0  0  0  0
  4  2  1  0  0  0  0
  4  8  2  0  0  0  0
  6 13  1  0  0  0  0
  6  3  1  0  0  0  0
  7  4  2  0  0  0  0
 10  1  1  0  0  0  0
M  END
>  <HBA>
2

>  <HBD>
1

>  <TPSA>
83.12

>  <cid>
1678

>  <dipole>
3.44

>  <excitation_energy_1>
3.904

>  <excitation_energy_2>
4.16

>  <excitation_energy_3>
4.579

>  <excitation_energy_4>
5.061

>  <homo_energy>
-7.524

>  <homo_lumo_gap>
4.637

>  <logP>
0.261

>  <lumo_energy>
-2.887

>  <melting_point>
83.34

>  <molecular_refractivity>
26.41

>  <oscillator_strength_1>
0.0003

>  <oscillator_strength_2>
0.0001

>  <oscillator_strength_3>
0.0001

>  <oscillator_strength_4>
0.0022

>  <open_babel_can_smiles>
OC(=O)CCN(=O)=O

>  <mulliken_charges>
13
1   -0.400792
2   -0.1972
3   0.583657
4   0.467091
5   -0.435733
6   -0.576677
7   -0.391457
8   -0.335736
9   0.202861
10   0.198231
11   0.215805
12   0.229302
13   0.440649

>  <lowdin_charges>
13
1   -0.327093
2   -0.22124
3   0.185442
4   0.304036
5   -0.240818
6   -0.359374
7   -0.254052
8   -0.201085
9   0.189885
10   0.182327
11   0.190654
12   0.194744
13   0.356576

$$$$

