PCCDB-ID:  3438
public computational chemistry database (PCCDB) project, http://pccdb.org

 14 14  0  0  0  0  0  0  0  0999 V2000
   -1.2564    0.1513    0.0671 C   0  0  0  0  0  0  0  0  0  0  0  0
   -0.5621   -1.1036    0.0715 C   0  0  0  0  0  0  0  0  0  0  0  0
   -0.2921    1.1084   -0.0081 C   0  0  0  0  0  0  0  0  0  0  0  0
    1.9929   -1.6718   -0.0444 C   0  0  0  0  0  0  0  0  0  0  0  0
    0.7708   -0.8162   -0.0000 C   0  0  0  0  0  0  0  0  0  0  0  0
    2.6674   -1.5872   -1.3491 N   0  0  0  0  0  0  0  0  0  0  0  0
    0.9454    0.5406   -0.0490 O   0  0  0  0  0  0  0  0  0  0  0  0
   -2.3244    0.3133    0.1111 H   0  0  0  0  0  0  0  0  0  0  0  0
   -0.9978   -2.0923    0.1235 H   0  0  0  0  0  0  0  0  0  0  0  0
   -0.3134    2.1873   -0.0407 H   0  0  0  0  0  0  0  0  0  0  0  0
    1.6835   -2.6904    0.2488 H   0  0  0  0  0  0  0  0  0  0  0  0
    2.7073   -1.3271    0.7142 H   0  0  0  0  0  0  0  0  0  0  0  0
    2.0613   -1.9800   -2.0682 H   0  0  0  0  0  0  0  0  0  0  0  0
    3.5087   -2.1623   -1.3324 H   0  0  0  0  0  0  0  0  0  0  0  0
  1  2  1  0  0  0  0
  1  8  1  0  0  0  0
  2  9  1  0  0  0  0
  3  1  2  0  0  0  0
  4  5  1  0  0  0  0
  4 11  1  0  0  0  0
  4 12  1  0  0  0  0
  5  2  2  0  0  0  0
  6 14  1  0  0  0  0
  6  4  1  0  0  0  0
  7  3  1  0  0  0  0
  7  5  1  0  0  0  0
 10  3  1  0  0  0  0
 13  6  1  0  0  0  0
M  END
>  <HBA>
2

>  <HBD>
1

>  <TPSA>
39.16

>  <cid>
3438

>  <dipole>
1.78

>  <excitation_energy_1>
5.391

>  <excitation_energy_2>
5.51

>  <excitation_energy_3>
5.767

>  <excitation_energy_4>
6.029

>  <homo_energy>
-5.899

>  <homo_lumo_gap>
6.365

>  <logP>
1.439

>  <lumo_energy>
0.465

>  <melting_point>
60.63

>  <molecular_refractivity>
26.38

>  <oscillator_strength_1>
0.1045

>  <oscillator_strength_2>
0.0037

>  <oscillator_strength_3>
0.0878

>  <oscillator_strength_4>
0.0605

>  <open_babel_can_smiles>
NCc1ccco1

>  <mulliken_charges>
14
1   -0.182211
2   -0.208363
3   0.083999
4   -0.225226
5   0.348786
6   -0.70007
7   -0.420069
8   0.137362
9   0.132753
10   0.151311
11   0.129003
12   0.160691
13   0.295678
14   0.296356

>  <lowdin_charges>
14
1   -0.207394
2   -0.219691
3   -0.077385
4   -0.204966
5   0.058599
6   -0.554522
7   -0.093063
8   0.165576
9   0.164485
10   0.167214
11   0.131651
12   0.158895
13   0.255605
14   0.254997

$$$$

