PCCDB-ID:  6329
public computational chemistry database (PCCDB) project, http://pccdb.org

  7  6  0  0  0  0  0  0  0  0999 V2000
    0.9788    0.0984    0.0568 C   0  0  0  0  0  0  0  0  0  0  0  0
    2.4437    0.0782    0.0323 N   0  0  0  0  0  0  0  0  0  0  0  0
    0.5200    0.7372    0.8322 H   0  0  0  0  0  0  0  0  0  0  0  0
    0.6092   -0.9223    0.2044 H   0  0  0  0  0  0  0  0  0  0  0  0
    0.6091    0.4384   -0.9168 H   0  0  0  0  0  0  0  0  0  0  0  0
    2.7967   -0.2287    0.9373 H   0  0  0  0  0  0  0  0  0  0  0  0
    2.7967    1.0251   -0.0958 H   0  0  0  0  0  0  0  0  0  0  0  0
  1  4  1  0  0  0  0
  1  3  1  0  0  0  0
  2  1  1  0  0  0  0
  2  6  1  0  0  0  0
  5  1  1  0  0  0  0
  7  2  1  0  0  0  0
M  END
>  <HBA>
1

>  <HBD>
1

>  <TPSA>
26.02

>  <cid>
6329

>  <dipole>
1.47

>  <excitation_energy_1>
5.545

>  <excitation_energy_2>
6.537

>  <excitation_energy_3>
6.922

>  <excitation_energy_4>
7.257

>  <homo_energy>
-6.223

>  <homo_lumo_gap>
8.523

>  <logP>
0.275

>  <lumo_energy>
2.299

>  <melting_point>
31.01

>  <molecular_refractivity>
9.63

>  <oscillator_strength_1>
0.0105

>  <oscillator_strength_2>
0.0411

>  <oscillator_strength_3>
0.0013

>  <oscillator_strength_4>
0.0471

>  <open_babel_can_smiles>
CN

>  <mulliken_charges>
7
1   -0.309026
2   -0.705344
3   0.120353
4   0.152828
5   0.152838
6   0.294176
7   0.294175

>  <lowdin_charges>
7
1   -0.363166
2   -0.558902
3   0.121706
4   0.148438
5   0.149065
6   0.251692
7   0.251168

$$$$

