PCCDB-ID:  3759
public computational chemistry database (PCCDB) project, http://pccdb.org

 30 31  0  0  0  0  0  0  0  0999 V2000
    3.5734    4.4969    4.2723 C   0  0  0  0  0  0  0  0  0  0  0  0
   10.4618   -3.6110   -1.7590 C   0  0  0  0  0  0  0  0  0  0  0  0
    9.4195   -3.9712   -0.9050 C   0  0  0  0  0  0  0  0  0  0  0  0
   10.9810   -2.3141   -1.7097 C   0  0  0  0  0  0  0  0  0  0  0  0
    8.8991   -3.0377   -0.0054 C   0  0  0  0  0  0  0  0  0  0  0  0
   10.4624   -1.3863   -0.8083 C   0  0  0  0  0  0  0  0  0  0  0  0
    4.5877    2.4870    2.9198 C   0  0  0  0  0  0  0  0  0  0  0  0
    8.8554   -0.7295    1.0324 C   0  0  0  0  0  0  0  0  0  0  0  0
    4.5809    3.7211    3.4971 C   0  0  0  0  0  0  0  0  0  0  0  0
    9.4178   -1.7399    0.0581 C   0  0  0  0  0  0  0  0  0  0  0  0
    5.8799    2.3934    2.3360 C   0  0  0  0  0  0  0  0  0  0  0  0
    6.4191    1.2296    1.5659 C   0  0  0  0  0  0  0  0  0  0  0  0
    8.3116    0.4330    0.2892 N   0  0  0  0  0  0  0  0  0  0  0  0
    7.7104    1.3646    1.1550 N   0  0  0  0  0  0  0  0  0  0  0  0
    6.5955    3.4794    2.5400 N   0  0  0  0  0  0  0  0  0  0  0  0
    5.7268    0.2447    1.3262 O   0  0  0  0  0  0  0  0  0  0  0  0
    5.7761    4.3268    3.2766 O   0  0  0  0  0  0  0  0  0  0  0  0
    2.6665    3.9028    4.4073 H   0  0  0  0  0  0  0  0  0  0  0  0
    3.3083    5.4246    3.7525 H   0  0  0  0  0  0  0  0  0  0  0  0
    3.9630    4.7695    5.2595 H   0  0  0  0  0  0  0  0  0  0  0  0
   10.8674   -4.3345   -2.4612 H   0  0  0  0  0  0  0  0  0  0  0  0
    9.0075   -4.9763   -0.9396 H   0  0  0  0  0  0  0  0  0  0  0  0
   11.7918   -2.0274   -2.3745 H   0  0  0  0  0  0  0  0  0  0  0  0
    8.0829   -3.3195    0.6559 H   0  0  0  0  0  0  0  0  0  0  0  0
   10.8595   -0.3754   -0.7750 H   0  0  0  0  0  0  0  0  0  0  0  0
    3.8089    1.7411    2.8996 H   0  0  0  0  0  0  0  0  0  0  0  0
    9.6453   -0.3427    1.6875 H   0  0  0  0  0  0  0  0  0  0  0  0
    8.0932   -1.1982    1.6691 H   0  0  0  0  0  0  0  0  0  0  0  0
    7.5722    0.0924   -0.3278 H   0  0  0  0  0  0  0  0  0  0  0  0
    8.1758    2.2592    1.2455 H   0  0  0  0  0  0  0  0  0  0  0  0
  1 18  1  0  0  0  0
  1 20  1  0  0  0  0
  2  4  2  0  0  0  0
  2  3  1  0  0  0  0
  3  5  2  0  0  0  0
  4  6  1  0  0  0  0
  5 10  1  0  0  0  0
  5 24  1  0  0  0  0
  6 25  1  0  0  0  0
  6 10  2  0  0  0  0
  7  9  2  0  0  0  0
  8 28  1  0  0  0  0
  8 27  1  0  0  0  0
  9  1  1  0  0  0  0
 10  8  1  0  0  0  0
 11 15  2  0  0  0  0
 11  7  1  0  0  0  0
 12 11  1  0  0  0  0
 13  8  1  0  0  0  0
 13 14  1  0  0  0  0
 14 30  1  0  0  0  0
 14 12  1  0  0  0  0
 15 17  1  0  0  0  0
 16 12  2  0  0  0  0
 17  9  1  0  0  0  0
 19  1  1  0  0  0  0
 21  2  1  0  0  0  0
 22  3  1  0  0  0  0
 23  4  1  0  0  0  0
 26  7  1  0  0  0  0
 29 13  1  0  0  0  0
M  END
>  <HBA>
5

>  <HBD>
2

>  <TPSA>
67.16

>  <cid>
3759

>  <dipole>
2.06

>  <excitation_energy_1>
4.481

>  <excitation_energy_2>
4.792

>  <excitation_energy_3>
4.84

>  <excitation_energy_4>
5.0

>  <homo_energy>
-6.487

>  <homo_lumo_gap>
5.271

>  <logP>
2.199

>  <lumo_energy>
-1.216

>  <melting_point>
142.54

>  <molecular_refractivity>
61.75

>  <oscillator_strength_1>
0.0192

>  <oscillator_strength_2>
0.0205

>  <oscillator_strength_3>
0.0

>  <oscillator_strength_4>
0.0016

>  <open_babel_can_smiles>
Cc1onc(c1)C(=O)NNCc1ccccc1

>  <mulliken_charges>
30
1   -0.528521
2   -0.127856
3   -0.128984
4   -0.130666
5   -0.182455
6   -0.157734
7   -0.279748
8   -0.193464
9   0.418094
10   0.129457
11   0.269766
12   0.591154
13   -0.42041
14   -0.501293
15   -0.252387
16   -0.531234
17   -0.36048
18   0.179405
19   0.188085
20   0.187687
21   0.129131
22   0.130136
23   0.129767
24   0.133328
25   0.137004
26   0.171799
27   0.156457
28   0.157207
29   0.325954
30   0.360802

>  <lowdin_charges>
30
1   -0.441231
2   -0.157678
3   -0.156066
4   -0.156035
5   -0.163487
6   -0.153101
7   -0.22563
8   -0.205096
9   0.1003
10   -0.017092
11   -0.008549
12   0.149694
13   -0.280391
14   -0.209453
15   -0.088419
16   -0.307311
17   -0.064757
18   0.176127
19   0.178142
20   0.17746
21   0.158626
22   0.157166
23   0.158102
24   0.159403
25   0.161609
26   0.191263
27   0.1537
28   0.147104
29   0.267988
30   0.297614

$$$$

