PCCDB-ID:  3532
public computational chemistry database (PCCDB) project, http://pccdb.org

 18 18  0  0  0  0  0  0  0  0999 V2000
   -0.9952    1.1512    0.0215 C   0  0  0  0  0  0  0  0  0  0  0  0
   -1.3894   -0.3024    0.0169 C   0  0  0  0  0  0  0  0  0  0  0  0
    0.5171    1.3252   -0.2158 C   0  0  0  0  0  0  0  0  0  0  0  0
    1.0002   -1.0209    0.1452 C   0  0  0  0  0  0  0  0  0  0  0  0
   -0.4908   -1.3009    0.0419 C   0  0  0  0  0  0  0  0  0  0  0  0
   -0.8863   -2.7442    0.0660 C   0  0  0  0  0  0  0  0  0  0  0  0
    1.3380    0.3542    0.5097 N   0  0  0  0  0  0  0  0  0  0  0  0
   -0.1894   -3.6080    0.5476 O   0  0  0  0  0  0  0  0  0  0  0  0
   -2.0898   -3.0697   -0.4826 O   0  0  0  0  0  0  0  0  0  0  0  0
   -1.2907    1.6000    0.9832 H   0  0  0  0  0  0  0  0  0  0  0  0
   -1.5710    1.6935   -0.7424 H   0  0  0  0  0  0  0  0  0  0  0  0
   -2.4588   -0.5174    0.0390 H   0  0  0  0  0  0  0  0  0  0  0  0
    0.8356    2.3361    0.0607 H   0  0  0  0  0  0  0  0  0  0  0  0
    0.7340    1.2027   -1.2851 H   0  0  0  0  0  0  0  0  0  0  0  0
    1.4792   -1.2591   -0.8166 H   0  0  0  0  0  0  0  0  0  0  0  0
    1.4363   -1.7098    0.8746 H   0  0  0  0  0  0  0  0  0  0  0  0
    1.1884    0.4755    1.5108 H   0  0  0  0  0  0  0  0  0  0  0  0
   -2.4431   -2.3004   -0.9584 H   0  0  0  0  0  0  0  0  0  0  0  0
  1 10  1  0  0  0  0
  2  1  1  0  0  0  0
  2 12  1  0  0  0  0
  2  5  2  0  0  0  0
  3  1  1  0  0  0  0
  3 13  1  0  0  0  0
  3  7  1  0  0  0  0
  4  7  1  0  0  0  0
  4 16  1  0  0  0  0
  5  6  1  0  0  0  0
  5  4  1  0  0  0  0
  6  8  2  0  0  0  0
  7 17  1  0  0  0  0
  9  6  1  0  0  0  0
 11  1  1  0  0  0  0
 14  3  1  0  0  0  0
 15  4  1  0  0  0  0
 18  9  1  0  0  0  0
M  END
>  <HBA>
3

>  <HBD>
2

>  <TPSA>
49.33

>  <cid>
3532

>  <dipole>
4.87

>  <excitation_energy_1>
4.026

>  <excitation_energy_2>
4.799

>  <excitation_energy_3>
5.372

>  <excitation_energy_4>
5.785

>  <homo_energy>
-6.253

>  <homo_lumo_gap>
5.086

>  <logP>
0.32

>  <lumo_energy>
-1.167

>  <melting_point>
113.56

>  <molecular_refractivity>
36.86

>  <oscillator_strength_1>
0.0004

>  <oscillator_strength_2>
0.0034

>  <oscillator_strength_3>
0.0056

>  <oscillator_strength_4>
0.2281

>  <open_babel_can_smiles>
OC(=O)C1=CCCNC1

>  <mulliken_charges>
18
1   -0.314673
2   -0.175912
3   -0.153477
4   -0.21163
5   0.052561
6   0.556005
7   -0.526787
8   -0.448514
9   -0.572228
10   0.156144
11   0.152129
12   0.132053
13   0.148584
14   0.150875
15   0.164254
16   0.186975
17   0.297279
18   0.406364

>  <lowdin_charges>
18
1   -0.296311
2   -0.160468
3   -0.203757
4   -0.207923
5   -0.077219
6   0.194151
7   -0.349422
8   -0.24189
9   -0.3597
10   0.155624
11   0.15928
12   0.15125
13   0.150408
14   0.145272
15   0.155692
16   0.17574
17   0.252801
18   0.356474

$$$$

