PCCDB-ID:  2765
public computational chemistry database (PCCDB) project, http://pccdb.org

 32 34  0  0  1  0  0  0  0  0999 V2000
   -3.8208    0.3476    0.5058 C   0  0  0  0  0  0  0  0  0  0  0  0
   -2.7743   -0.5684    0.5143 C   0  0  0  0  0  0  0  0  0  0  0  0
   -3.6009    1.6376    0.0124 C   0  0  0  0  0  0  0  0  0  0  0  0
   -1.5126   -0.2033    0.0337 C   0  0  0  0  0  0  0  0  0  0  0  0
   -3.1903    4.2897   -1.5525 C   0  0  0  0  0  0  0  0  0  0  0  0
   -2.1775    3.7021   -2.5032 C   0  0  0  0  0  0  0  0  0  0  0  0
    4.1037    1.9558   -2.4183 C   0  0  0  0  0  0  0  0  0  0  0  0
    3.0651    2.8702   -3.1261 C   0  0  0  0  0  0  0  0  0  0  0  0
    0.9792    0.6171   -1.0547 C   0  0  0  0  0  0  0  0  0  0  0  0
   -2.0930    3.4057   -1.0162 C   0  0  0  0  0  0  0  0  0  0  0  0
   -2.3589    2.0315   -0.4868 C   0  0  0  0  0  0  0  0  0  0  0  0
   -1.3093    1.0854   -0.4645 C   0  0  0  0  0  0  0  0  0  0  0  0
    2.1056    1.3310   -1.7449 C   0  0  3  0  0  0  0  0  0  0  0  0
    3.3382    1.1657   -1.4335 N   0  0  0  0  0  0  0  0  0  0  0  0
    1.8226    2.1369   -2.8417 N   0  0  0  0  0  0  0  0  0  0  0  0
   -0.1086    1.5332   -0.9520 O   0  0  0  0  0  0  0  0  0  0  0  0
   -4.7997    0.0702    0.8859 H   0  0  0  0  0  0  0  0  0  0  0  0
   -2.9249   -1.5732    0.8997 H   0  0  0  0  0  0  0  0  0  0  0  0
   -4.4117    2.3603    0.0221 H   0  0  0  0  0  0  0  0  0  0  0  0
   -0.7027   -0.9236    0.0569 H   0  0  0  0  0  0  0  0  0  0  0  0
   -4.2019    3.8966   -1.5971 H   0  0  0  0  0  0  0  0  0  0  0  0
   -3.1397    5.3521   -1.3313 H   0  0  0  0  0  0  0  0  0  0  0  0
   -1.4314    4.3610   -2.9408 H   0  0  0  0  0  0  0  0  0  0  0  0
   -2.5083    2.8995   -3.1566 H   0  0  0  0  0  0  0  0  0  0  0  0
    4.9019    2.5192   -1.9251 H   0  0  0  0  0  0  0  0  0  0  0  0
    4.5785    1.2695   -3.1332 H   0  0  0  0  0  0  0  0  0  0  0  0
    3.2367    2.9675   -4.2022 H   0  0  0  0  0  0  0  0  0  0  0  0
    3.0460    3.8781   -2.6849 H   0  0  0  0  0  0  0  0  0  0  0  0
    1.3195    0.2782   -0.0706 H   0  0  0  0  0  0  0  0  0  0  0  0
    0.6754   -0.2589   -1.6463 H   0  0  0  0  0  0  0  0  0  0  0  0
   -1.2828    3.9231   -0.5046 H   0  0  0  0  0  0  0  0  0  0  0  0
    0.9459    2.6447   -2.8102 H   0  0  0  0  0  0  0  0  0  0  0  0
  1  2  1  0  0  0  0
  1 17  1  0  0  0  0
  2 18  1  0  0  0  0
  3 19  1  0  0  0  0
  3  1  2  0  0  0  0
  4 20  1  0  0  0  0
  4  2  2  0  0  0  0
  5 22  1  0  0  0  0
  5 10  1  0  0  0  0
  6  5  1  0  0  0  0
  6 10  1  0  0  0  0
  7 25  1  0  0  0  0
  7 14  1  0  0  0  0
  8 15  1  0  0  0  0
  8 28  1  0  0  0  0
  8  7  1  0  0  0  0
  9 16  1  0  0  0  0
  9 29  1  0  0  0  0
 10 31  1  0  0  0  0
 10 11  1  0  0  0  0
 11 12  2  0  0  0  0
 11  3  1  0  0  0  0
 12  4  1  0  0  0  0
 13 14  1  0  0  0  0
 13  9  1  0  0  0  0
 15 32  1  0  0  0  0
 15 13  1  0  0  0  0
 16 12  1  0  0  0  0
 21  5  1  0  0  0  0
 23  6  1  0  0  0  0
 24  6  1  0  0  0  0
 26  7  1  0  0  0  0
 27  8  1  0  0  0  0
 30  9  1  0  0  0  0
M  RAD  2  13   2  14   2
M  END
>  <HBA>
3

>  <HBD>
1

>  <TPSA>
33.62

>  <cid>
2765

>  <dipole>
1.92

>  <excitation_energy_1>
4.992

>  <excitation_energy_2>
5.231

>  <excitation_energy_3>
5.374

>  <excitation_energy_4>
5.439

>  <homo_energy>
-5.91

>  <homo_lumo_gap>
5.875

>  <logP>
1.709

>  <lumo_energy>
-0.035

>  <melting_point>
100.14

>  <molecular_refractivity>
71.43

>  <oscillator_strength_1>
0.048

>  <oscillator_strength_2>
0.0017

>  <oscillator_strength_3>
0.0095

>  <oscillator_strength_4>
0.0085

>  <open_babel_can_smiles>
C1CN[C]([N]1)COc1ccccc1C1CC1

>  <mulliken_charges>
32
1   -0.129157
2   -0.140019
3   -0.196675
4   -0.193966
5   -0.320333
6   -0.299815
7   -0.161635
8   -0.148355
9   -0.095351
10   -0.166687
11   0.099429
12   0.338038
13   0.462488
14   -0.468399
15   -0.60373
16   -0.537184
17   0.125826
18   0.130361
19   0.127256
20   0.140241
21   0.154897
22   0.151827
23   0.143079
24   0.158216
25   0.150534
26   0.151657
27   0.15131
28   0.141891
29   0.175304
30   0.166121
31   0.156521
32   0.336309

>  <lowdin_charges>
32
1   -0.175374
2   -0.148081
3   -0.158869
4   -0.213221
5   -0.309746
6   -0.31462
7   -0.210848
8   -0.207178
9   -0.129171
10   -0.14688
11   -0.025967
12   0.098569
13   0.071979
14   -0.239372
15   -0.313393
16   -0.205476
17   0.156764
18   0.157528
19   0.159165
20   0.164989
21   0.159228
22   0.158617
23   0.154935
24   0.162499
25   0.152387
26   0.148783
27   0.148901
28   0.135558
29   0.164491
30   0.158022
31   0.163691
32   0.282091

$$$$

