PCCDB-ID:  4819
public computational chemistry database (PCCDB) project, http://pccdb.org

 31 32  0  0  1  0  0  0  0  0999 V2000
    4.6164   -2.6353    1.0413 C   0  0  0  0  0  0  0  0  0  0  0  0
   -1.4442   -1.3354   -1.9704 C   0  0  0  0  0  0  0  0  0  0  0  0
    3.6221   -2.3188   -0.0821 C   0  0  0  0  0  0  0  0  0  0  0  0
    1.5793   -0.8661   -1.7947 C   0  0  0  0  0  0  0  0  0  0  0  0
    0.9408    0.4925   -3.9699 C   0  0  0  0  0  0  0  0  0  0  0  0
    3.5633   -1.5953   -3.2814 C   0  0  0  0  0  0  0  0  0  0  0  0
   -1.1585    0.1286   -3.9977 C   0  0  0  0  0  0  0  0  0  0  0  0
    3.0754   -0.7315   -2.1037 C   0  0  2  0  0  0  0  0  0  0  0  0
    0.6999   -0.3158   -2.8803 C   0  0  0  0  0  0  0  0  0  0  0  0
    4.0609   -1.1367   -0.9806 C   0  0  2  0  0  0  0  0  0  0  0  0
    5.3146   -1.5108   -1.7776 C   0  0  0  0  0  0  0  0  0  0  0  0
   -0.2186    0.7622   -4.6604 N   0  0  0  0  0  0  0  0  0  0  0  0
   -0.6704   -0.5433   -2.9087 N   0  0  0  0  0  0  0  0  0  0  0  0
    6.4485   -1.6080   -1.3827 O   0  0  0  0  0  0  0  0  0  0  0  0
    4.9784   -1.7659   -3.0749 O   0  0  0  0  0  0  0  0  0  0  0  0
    4.2535   -3.4716    1.6488 H   0  0  0  0  0  0  0  0  0  0  0  0
    4.7456   -1.7708    1.7035 H   0  0  0  0  0  0  0  0  0  0  0  0
    5.6007   -2.8958    0.6440 H   0  0  0  0  0  0  0  0  0  0  0  0
   -2.4963   -1.2932   -2.2604 H   0  0  0  0  0  0  0  0  0  0  0  0
   -1.3477   -0.9446   -0.9518 H   0  0  0  0  0  0  0  0  0  0  0  0
   -1.1233   -2.3828   -1.9774 H   0  0  0  0  0  0  0  0  0  0  0  0
    2.6492   -2.0701    0.3598 H   0  0  0  0  0  0  0  0  0  0  0  0
    3.4617   -3.2153   -0.6971 H   0  0  0  0  0  0  0  0  0  0  0  0
    1.3676   -0.3527   -0.8435 H   0  0  0  0  0  0  0  0  0  0  0  0
    1.3395   -1.9243   -1.6203 H   0  0  0  0  0  0  0  0  0  0  0  0
    1.8879    0.9010   -4.2970 H   0  0  0  0  0  0  0  0  0  0  0  0
    3.4239   -1.1343   -4.2601 H   0  0  0  0  0  0  0  0  0  0  0  0
    3.0863   -2.5842   -3.2902 H   0  0  0  0  0  0  0  0  0  0  0  0
   -2.2115    0.1107   -4.2495 H   0  0  0  0  0  0  0  0  0  0  0  0
    3.2814    0.3177   -2.3513 H   0  0  0  0  0  0  0  0  0  0  0  0
    4.3080   -0.2879   -0.3339 H   0  0  0  0  0  0  0  0  0  0  0  0
  1 16  1  0  0  0  0
  1 17  1  0  0  0  0
  2 20  1  0  0  0  0
  3 22  1  0  0  0  0
  3  1  1  0  0  0  0
  4 25  1  0  0  0  0
  4 24  1  0  0  0  0
  5  9  2  0  0  0  0
  6 15  1  0  0  0  0
  6  8  1  0  0  0  0
  7 13  1  0  0  0  0
  8 30  1  6  0  0  0
  8  4  1  0  0  0  0
  8 10  1  0  0  0  0
  9  4  1  0  0  0  0
 10 31  1  1  0  0  0
 10  3  1  0  0  0  0
 11 14  2  0  0  0  0
 11 10  1  0  0  0  0
 12  7  2  0  0  0  0
 12  5  1  0  0  0  0
 13  9  1  0  0  0  0
 13  2  1  0  0  0  0
 15 11  1  0  0  0  0
 18  1  1  0  0  0  0
 19  2  1  0  0  0  0
 21  2  1  0  0  0  0
 23  3  1  0  0  0  0
 26  5  1  0  0  0  0
 27  6  1  0  0  0  0
 28  6  1  0  0  0  0
 29  7  1  0  0  0  0
M  END
>  <HBA>
4

>  <HBD>
0

>  <TPSA>
44.12

>  <cid>
4819

>  <dipole>
6.42

>  <excitation_energy_1>
5.131

>  <excitation_energy_2>
5.496

>  <excitation_energy_3>
5.605

>  <excitation_energy_4>
5.759

>  <homo_energy>
-6.136

>  <homo_lumo_gap>
6.351

>  <logP>
1.162

>  <lumo_energy>
0.215

>  <melting_point>
56.86

>  <molecular_refractivity>
56.47

>  <oscillator_strength_1>
0.001

>  <oscillator_strength_2>
0.0014

>  <oscillator_strength_3>
0.0022

>  <oscillator_strength_4>
0.02

>  <open_babel_can_smiles>
CC[C@H]1C(=O)OC[C@H]1Cc1cncn1C

>  <mulliken_charges>
31
1   -0.451848
2   -0.326293
3   -0.269841
4   -0.363641
5   -0.091945
6   -0.03443
7   0.192023
8   -0.140975
9   0.318052
10   -0.208892
11   0.62286
12   -0.435059
13   -0.427306
14   -0.462939
15   -0.450529
16   0.142717
17   0.145713
18   0.185235
19   0.179097
20   0.176242
21   0.175853
22   0.143422
23   0.142379
24   0.160643
25   0.15057
26   0.131659
27   0.173988
28   0.149223
29   0.15106
30   0.159042
31   0.163919

>  <lowdin_charges>
31
1   -0.448955
2   -0.343964
3   -0.269635
4   -0.272199
5   -0.175877
6   -0.130645
7   -0.099148
8   -0.136947
9   -0.025695
10   -0.164702
11   0.19115
12   -0.185389
13   -0.018068
14   -0.238159
15   -0.188355
16   0.151899
17   0.150438
18   0.168119
19   0.170394
20   0.16156
21   0.159998
22   0.145253
23   0.144043
24   0.156444
25   0.150332
26   0.158579
27   0.162886
28   0.143704
29   0.16246
30   0.154577
31   0.165903

$$$$

