PCCDB-ID:  1670
public computational chemistry database (PCCDB) project, http://pccdb.org

 28 28  0  0  1  0  0  0  0  0999 V2000
    3.0112   -1.7772    0.0905 C   0  0  0  0  0  0  0  0  0  0  0  0
    4.0670    1.9185    3.3247 C   0  0  0  0  0  0  0  0  0  0  0  0
    4.3934    0.5727    3.5028 C   0  0  0  0  0  0  0  0  0  0  0  0
    3.3456    3.8661    1.8493 C   0  0  0  0  0  0  0  0  0  0  0  0
    3.6128    1.4879    1.0053 C   0  0  0  0  0  0  0  0  0  0  0  0
    3.6801    2.4039    2.0698 C   0  0  0  0  0  0  0  0  0  0  0  0
    1.8552    4.1763    1.5339 C   0  0  1  0  0  0  0  0  0  0  0  0
    4.3431   -0.3223    2.4340 C   0  0  0  0  0  0  0  0  0  0  0  0
    3.9332    0.1412    1.1655 C   0  0  0  0  0  0  0  0  0  0  0  0
    0.9399    3.9340    2.7543 C   0  0  0  0  0  0  0  0  0  0  0  0
    1.7468    5.5341    1.0143 N   0  0  0  0  0  0  0  0  0  0  0  0
    4.6869   -1.6406    2.5518 O   0  0  0  0  0  0  0  0  0  0  0  0
    0.2904    4.8105    3.2731 O   0  0  0  0  0  0  0  0  0  0  0  0
    0.8758    2.6645    3.2240 O   0  0  0  0  0  0  0  0  0  0  0  0
    3.9166   -0.6682    0.0605 O   0  0  0  0  0  0  0  0  0  0  0  0
    3.0847   -2.2462   -0.8928 H   0  0  0  0  0  0  0  0  0  0  0  0
    1.9810   -1.4327    0.2515 H   0  0  0  0  0  0  0  0  0  0  0  0
    3.2831   -2.4993    0.8652 H   0  0  0  0  0  0  0  0  0  0  0  0
    4.1215    2.5955    4.1729 H   0  0  0  0  0  0  0  0  0  0  0  0
    4.7055    0.2158    4.4829 H   0  0  0  0  0  0  0  0  0  0  0  0
    3.9116    4.2567    0.9965 H   0  0  0  0  0  0  0  0  0  0  0  0
    3.6510    4.4521    2.7255 H   0  0  0  0  0  0  0  0  0  0  0  0
    3.3292    1.8141    0.0080 H   0  0  0  0  0  0  0  0  0  0  0  0
    1.5306    3.4892    0.7398 H   0  0  0  0  0  0  0  0  0  0  0  0
    1.9183    6.1822    1.7845 H   0  0  0  0  0  0  0  0  0  0  0  0
    0.7742    5.7071    0.7612 H   0  0  0  0  0  0  0  0  0  0  0  0
    4.9562   -1.8125    3.4678 H   0  0  0  0  0  0  0  0  0  0  0  0
    1.5314    2.1061    2.7662 H   0  0  0  0  0  0  0  0  0  0  0  0
  1 17  1  0  0  0  0
  1 18  1  0  0  0  0
  2  3  1  0  0  0  0
  2 19  1  0  0  0  0
  3 20  1  0  0  0  0
  4  6  1  0  0  0  0
  4 22  1  0  0  0  0
  5  9  2  0  0  0  0
  5  6  1  0  0  0  0
  6  2  2  0  0  0  0
  7 24  1  6  0  0  0
  7  4  1  0  0  0  0
  7 10  1  0  0  0  0
  8 12  1  0  0  0  0
  8  3  2  0  0  0  0
  9  8  1  0  0  0  0
 10 14  1  0  0  0  0
 10 13  2  0  0  0  0
 11  7  1  0  0  0  0
 11 25  1  0  0  0  0
 12 27  1  0  0  0  0
 15  1  1  0  0  0  0
 15  9  1  0  0  0  0
 16  1  1  0  0  0  0
 21  4  1  0  0  0  0
 23  5  1  0  0  0  0
 26 11  1  0  0  0  0
 28 14  1  0  0  0  0
M  END
>  <HBA>
5

>  <HBD>
3

>  <TPSA>
92.78

>  <cid>
1670

>  <dipole>
3.74

>  <excitation_energy_1>
4.854

>  <excitation_energy_2>
5.19

>  <excitation_energy_3>
5.4

>  <excitation_energy_4>
5.546

>  <homo_energy>
-6.212

>  <homo_lumo_gap>
5.75

>  <logP>
1.056

>  <lumo_energy>
-0.463

>  <melting_point>
184.31

>  <molecular_refractivity>
54.02

>  <oscillator_strength_1>
0.0526

>  <oscillator_strength_2>
0.0004

>  <oscillator_strength_3>
0.0312

>  <oscillator_strength_4>
0.0185

>  <open_babel_can_smiles>
COc1cc(ccc1O)C[C@@H](C(=O)O)N

>  <mulliken_charges>
28
1   -0.217948
2   -0.184251
3   -0.195441
4   -0.336067
5   -0.238995
6   0.087028
7   -0.113199
8   0.317162
9   0.340526
10   0.572275
11   -0.690758
12   -0.637723
13   -0.451366
14   -0.572441
15   -0.517836
16   0.164633
17   0.139727
18   0.173731
19   0.141003
20   0.130167
21   0.184321
22   0.151769
23   0.146043
24   0.159317
25   0.306389
26   0.3091
27   0.413529
28   0.419307

>  <lowdin_charges>
28
1   -0.27517
2   -0.169469
3   -0.205463
4   -0.275882
5   -0.184705
6   -0.04333
7   -0.115974
8   0.080238
9   0.071209
10   0.173947
11   -0.529891
12   -0.369691
13   -0.252482
14   -0.360355
15   -0.21834
16   0.159224
17   0.138171
18   0.155993
19   0.165074
20   0.158743
21   0.174007
22   0.154797
23   0.169516
24   0.156349
25   0.261336
26   0.261605
27   0.360826
28   0.359719

$$$$

