PCCDB-ID:  1313
public computational chemistry database (PCCDB) project, http://pccdb.org

 24 24  0  0  1  0  0  0  0  0999 V2000
   -1.0570   -0.8904    0.4921 C   0  0  0  0  0  0  0  0  0  0  0  0
   -0.3588    1.5355   -2.6710 C   0  0  0  0  0  0  0  0  0  0  0  0
    0.4186   -1.2535    0.7552 C   0  0  2  0  0  0  0  0  0  0  0  0
    0.5830    0.7742   -1.7412 C   0  0  2  0  0  0  0  0  0  0  0  0
    0.2667    0.9631   -0.2510 C   0  0  2  0  0  0  0  0  0  0  0  0
    1.1656    0.1063    0.6852 C   0  0  2  0  0  0  0  0  0  0  0  0
   -1.1079    0.5285    0.0466 N   0  0  0  0  0  0  0  0  0  0  0  0
    0.1564    1.4856   -4.0098 O   0  0  0  0  0  0  0  0  0  0  0  0
    0.8942   -2.1128   -0.2699 O   0  0  0  0  0  0  0  0  0  0  0  0
    1.9143    1.2712   -1.9505 O   0  0  0  0  0  0  0  0  0  0  0  0
    2.5136   -0.0981    0.2890 O   0  0  0  0  0  0  0  0  0  0  0  0
   -1.6826   -1.0218    1.3809 H   0  0  0  0  0  0  0  0  0  0  0  0
   -1.4447   -1.5565   -0.2865 H   0  0  0  0  0  0  0  0  0  0  0  0
   -0.3728    2.5963   -2.4009 H   0  0  0  0  0  0  0  0  0  0  0  0
   -1.3785    1.1429   -2.6050 H   0  0  0  0  0  0  0  0  0  0  0  0
    0.5555   -1.7288    1.7381 H   0  0  0  0  0  0  0  0  0  0  0  0
    0.5452   -0.2983   -1.9865 H   0  0  0  0  0  0  0  0  0  0  0  0
    0.3718    2.0323   -0.0328 H   0  0  0  0  0  0  0  0  0  0  0  0
    1.1552    0.5707    1.6821 H   0  0  0  0  0  0  0  0  0  0  0  0
   -1.4795    1.1043    0.7959 H   0  0  0  0  0  0  0  0  0  0  0  0
   -0.0544    0.6104   -4.3723 H   0  0  0  0  0  0  0  0  0  0  0  0
    1.8483   -1.9025   -0.3214 H   0  0  0  0  0  0  0  0  0  0  0  0
    2.0055    1.3704   -2.9164 H   0  0  0  0  0  0  0  0  0  0  0  0
    2.6578    0.3922   -0.5460 H   0  0  0  0  0  0  0  0  0  0  0  0
  1  3  1  0  0  0  0
  1 12  1  0  0  0  0
  2 15  1  0  0  0  0
  2 14  1  0  0  0  0
  2  4  1  0  0  0  0
  3 16  1  1  0  0  0
  4 17  1  6  0  0  0
  4  5  1  0  0  0  0
  5 18  1  1  0  0  0
  5  7  1  0  0  0  0
  5  6  1  0  0  0  0
  6  3  1  0  0  0  0
  6 19  1  1  0  0  0
  7  1  1  0  0  0  0
  7 20  1  0  0  0  0
  8  2  1  0  0  0  0
  9  3  1  0  0  0  0
 10  4  1  0  0  0  0
 11  6  1  0  0  0  0
 13  1  1  0  0  0  0
 21  8  1  0  0  0  0
 22  9  1  0  0  0  0
 23 10  1  0  0  0  0
 24 11  1  0  0  0  0
M  END
>  <HBA>
5

>  <HBD>
5

>  <TPSA>
92.95

>  <cid>
1313

>  <dipole>
1.8

>  <excitation_energy_1>
5.362

>  <excitation_energy_2>
5.633

>  <excitation_energy_3>
6.189

>  <excitation_energy_4>
6.21

>  <homo_energy>
-6.267

>  <homo_lumo_gap>
7.581

>  <logP>
-2.638

>  <lumo_energy>
1.314

>  <melting_point>
97.67

>  <molecular_refractivity>
40.21

>  <oscillator_strength_1>
0.0099

>  <oscillator_strength_2>
0.0013

>  <oscillator_strength_3>
0.0056

>  <oscillator_strength_4>
0.0029

>  <open_babel_can_smiles>
OC[C@H]([C@H]1NC[C@H]([C@H]1O)O)O

>  <mulliken_charges>
24
1   -0.155551
2   -0.059085
3   0.111745
4   0.114376
5   -0.055903
6   0.133161
7   -0.563868
8   -0.626353
9   -0.647138
10   -0.669999
11   -0.6778
12   0.137686
13   0.166399
14   0.151444
15   0.160367
16   0.122651
17   0.138751
18   0.139902
19   0.118804
20   0.30538
21   0.398221
22   0.402817
23   0.413954
24   0.440037

>  <lowdin_charges>
24
1   -0.219463
2   -0.148446
3   -0.029375
4   -0.033552
5   -0.093824
6   -0.03307
7   -0.36606
8   -0.467798
9   -0.470586
10   -0.471375
11   -0.474832
12   0.146372
13   0.157045
14   0.149887
15   0.151877
16   0.130637
17   0.13656
18   0.146671
19   0.134206
20   0.261246
21   0.34714
22   0.340645
23   0.349716
24   0.356379

$$$$

