PCCDB-ID:  6270
public computational chemistry database (PCCDB) project, http://pccdb.org

 22 22  0  0  0  0  0  0  0  0999 V2000
    4.6889    0.7181    0.0569 C   0  0  0  0  0  0  0  0  0  0  0  0
    3.8584    1.8794    0.6000 C   0  0  0  0  0  0  0  0  0  0  0  0
    1.9375    3.8275    1.8546 C   0  0  0  0  0  0  0  0  0  0  0  0
    0.4645    2.0241    2.4699 C   0  0  0  0  0  0  0  0  0  0  0  0
    1.0622    4.7425    2.4249 C   0  0  0  0  0  0  0  0  0  0  0  0
   -0.4152    2.9263    3.0434 C   0  0  0  0  0  0  0  0  0  0  0  0
    1.6596    2.4503    1.8627 C   0  0  0  0  0  0  0  0  0  0  0  0
   -0.1317    4.3073    3.0303 C   0  0  0  0  0  0  0  0  0  0  0  0
    2.5572    1.4243    1.2623 C   0  0  0  0  0  0  0  0  0  0  0  0
   -0.9833    5.2103    3.6500 N   0  0  0  0  0  0  0  0  0  0  0  0
    2.2625    0.2355    1.2935 O   0  0  0  0  0  0  0  0  0  0  0  0
    5.6051    1.0891   -0.4150 H   0  0  0  0  0  0  0  0  0  0  0  0
    4.1234    0.1452   -0.6836 H   0  0  0  0  0  0  0  0  0  0  0  0
    4.9665    0.0267    0.8579 H   0  0  0  0  0  0  0  0  0  0  0  0
    3.6084    2.5852   -0.2053 H   0  0  0  0  0  0  0  0  0  0  0  0
    4.4381    2.4617    1.3302 H   0  0  0  0  0  0  0  0  0  0  0  0
    2.8477    4.2001    1.3947 H   0  0  0  0  0  0  0  0  0  0  0  0
    0.2477    0.9606    2.4749 H   0  0  0  0  0  0  0  0  0  0  0  0
    1.2989    5.8040    2.4105 H   0  0  0  0  0  0  0  0  0  0  0  0
   -1.3320    2.5741    3.5114 H   0  0  0  0  0  0  0  0  0  0  0  0
   -0.9152    6.1725    3.3455 H   0  0  0  0  0  0  0  0  0  0  0  0
   -1.9401    4.9074    3.7769 H   0  0  0  0  0  0  0  0  0  0  0  0
  1  2  1  0  0  0  0
  1 14  1  0  0  0  0
  2  9  1  0  0  0  0
  2 16  1  0  0  0  0
  3  7  2  0  0  0  0
  3  5  1  0  0  0  0
  4 18  1  0  0  0  0
  4  6  2  0  0  0  0
  5  8  2  0  0  0  0
  6 20  1  0  0  0  0
  7  4  1  0  0  0  0
  8  6  1  0  0  0  0
  8 10  1  0  0  0  0
  9 11  2  0  0  0  0
  9  7  1  0  0  0  0
 10 22  1  0  0  0  0
 12  1  1  0  0  0  0
 13  1  1  0  0  0  0
 15  2  1  0  0  0  0
 17  3  1  0  0  0  0
 19  5  1  0  0  0  0
 21 10  1  0  0  0  0
M  END
>  <HBA>
2

>  <HBD>
1

>  <TPSA>
43.09

>  <cid>
6270

>  <dipole>
4.7

>  <excitation_energy_1>
3.882

>  <excitation_energy_2>
4.458

>  <excitation_energy_3>
4.653

>  <excitation_energy_4>
4.932

>  <homo_energy>
-5.75

>  <homo_lumo_gap>
4.77

>  <logP>
2.443

>  <lumo_energy>
-0.98

>  <melting_point>
87.71

>  <molecular_refractivity>
45.85

>  <oscillator_strength_1>
0.0

>  <oscillator_strength_2>
0.4082

>  <oscillator_strength_3>
0.0047

>  <oscillator_strength_4>
0.0029

>  <open_babel_can_smiles>
CCC(=O)c1ccc(cc1)N

>  <mulliken_charges>
22
1   -0.43026
2   -0.360607
3   -0.191378
4   -0.165947
5   -0.179576
6   -0.176309
7   0.077163
8   0.334141
9   0.401145
10   -0.790375
11   -0.479163
12   0.133596
13   0.16019
14   0.159161
15   0.157334
16   0.157339
17   0.132842
18   0.160747
19   0.12071
20   0.123676
21   0.327295
22   0.328279

>  <lowdin_charges>
22
1   -0.44133
2   -0.311129
3   -0.138362
4   -0.114387
5   -0.203445
6   -0.199466
7   -0.07944
8   0.075463
9   0.153961
10   -0.470992
11   -0.259038
12   0.147139
13   0.159892
14   0.158921
15   0.159565
16   0.159828
17   0.161234
18   0.17456
19   0.152649
20   0.155489
21   0.279227
22   0.279662

$$$$

