PCCDB-ID:  2065
public computational chemistry database (PCCDB) project, http://pccdb.org

 23 23  0  0  0  0  0  0  0  0999 V2000
   -0.9237    0.2206   -0.8125 C   0  0  0  0  0  0  0  0  0  0  0  0
   -0.0790    1.3144   -0.9675 C   0  0  0  0  0  0  0  0  0  0  0  0
   -1.5152   -1.9484    0.1304 C   0  0  0  0  0  0  0  0  0  0  0  0
    0.6672   -0.7850    0.7070 C   0  0  0  0  0  0  0  0  0  0  0  0
   -0.5081   -3.4082    1.8337 C   0  0  0  0  0  0  0  0  0  0  0  0
   -0.5727   -0.8523    0.0283 C   0  0  0  0  0  0  0  0  0  0  0  0
   -1.5172   -3.0903    0.8758 C   0  0  0  0  0  0  0  0  0  0  0  0
    1.1400    1.3725   -0.2911 C   0  0  0  0  0  0  0  0  0  0  0  0
    1.5131    0.3020    0.5580 C   0  0  0  0  0  0  0  0  0  0  0  0
   -2.6479   -4.0832    0.7651 C   0  0  0  0  0  0  0  0  0  0  0  0
    0.2617   -3.7203    2.6531 N   0  0  0  0  0  0  0  0  0  0  0  0
   -3.3997   -4.2774   -0.2418 N   0  0  0  0  0  0  0  0  0  0  0  0
    2.0112    2.4052   -0.3956 O   0  0  0  0  0  0  0  0  0  0  0  0
    2.7140    0.4160    1.1868 O   0  0  0  0  0  0  0  0  0  0  0  0
   -2.8801   -4.8366    1.8699 O   0  0  0  0  0  0  0  0  0  0  0  0
   -1.8684    0.1962   -1.3480 H   0  0  0  0  0  0  0  0  0  0  0  0
   -0.3641    2.1358   -1.6214 H   0  0  0  0  0  0  0  0  0  0  0  0
   -2.3947   -1.8254   -0.4991 H   0  0  0  0  0  0  0  0  0  0  0  0
    0.9800   -1.5926    1.3598 H   0  0  0  0  0  0  0  0  0  0  0  0
   -3.0955   -3.7186   -1.0384 H   0  0  0  0  0  0  0  0  0  0  0  0
    1.6447    3.0701   -1.0005 H   0  0  0  0  0  0  0  0  0  0  0  0
    2.8535   -0.3667    1.7435 H   0  0  0  0  0  0  0  0  0  0  0  0
   -2.2819   -4.5836    2.5918 H   0  0  0  0  0  0  0  0  0  0  0  0
  1  6  1  0  0  0  0
  2  1  2  0  0  0  0
  2  8  1  0  0  0  0
  3  7  2  0  0  0  0
  4 19  1  0  0  0  0
  5 11  3  0  0  0  0
  6  3  1  0  0  0  0
  6  4  2  0  0  0  0
  7  5  1  0  0  0  0
  8  9  2  0  0  0  0
  9  4  1  0  0  0  0
  9 14  1  0  0  0  0
 10  7  1  0  0  0  0
 10 15  1  0  0  0  0
 12 10  2  0  0  0  0
 13  8  1  0  0  0  0
 14 22  1  0  0  0  0
 15 23  1  0  0  0  0
 16  1  1  0  0  0  0
 17  2  1  0  0  0  0
 18  3  1  0  0  0  0
 20 12  1  0  0  0  0
 21 13  1  0  0  0  0
M  END
>  <HBA>
5

>  <HBD>
3

>  <TPSA>
107.34

>  <cid>
2065

>  <dipole>
6.34

>  <excitation_energy_1>
3.514

>  <excitation_energy_2>
3.921

>  <excitation_energy_3>
4.097

>  <excitation_energy_4>
4.397

>  <homo_energy>
-6.21

>  <homo_lumo_gap>
3.701

>  <logP>
1.19

>  <lumo_energy>
-2.509

>  <melting_point>
220.42

>  <molecular_refractivity>
52.85

>  <oscillator_strength_1>
0.4234

>  <oscillator_strength_2>
0.1347

>  <oscillator_strength_3>
0.0049

>  <oscillator_strength_4>
0.0459

>  <open_babel_can_smiles>
N#C/C(=C\c1ccc(c(c1)O)O)/C(=N)O

>  <mulliken_charges>
23
1   -0.193011
2   -0.198555
3   -0.211732
4   -0.263149
5   0.24781
6   0.178865
7   0.07181
8   0.333473
9   0.333108
10   0.473348
11   -0.51689
12   -0.582998
13   -0.610434
14   -0.627372
15   -0.580742
16   0.145166
17   0.136428
18   0.155003
19   0.162814
20   0.288254
21   0.417057
22   0.420148
23   0.4216

>  <lowdin_charges>
23
1   -0.147222
2   -0.205525
3   -0.089697
4   -0.199279
5   -0.023937
6   -0.023041
7   -0.099021
8   0.098969
9   0.085772
10   0.137817
11   -0.13108
12   -0.389951
13   -0.342879
14   -0.358306
15   -0.351724
16   0.165475
17   0.163446
18   0.17223
19   0.179843
20   0.259109
21   0.366776
22   0.367209
23   0.365016

$$$$

