PCCDB-ID:  779
public computational chemistry database (PCCDB) project, http://pccdb.org

 17 16  0  0  1  0  0  0  0  0999 V2000
    1.1893   -0.0137   -0.8372 C   0  0  0  0  0  0  0  0  0  0  0  0
    0.1221   -0.7627   -0.0399 C   0  0  0  0  0  0  0  0  0  0  0  0
    2.6439   -0.1847   -0.3236 C   0  0  1  0  0  0  0  0  0  0  0  0
    3.3823   -1.3682   -0.9970 C   0  0  0  0  0  0  0  0  0  0  0  0
    3.3646    1.0775   -0.4753 N   0  0  0  0  0  0  0  0  0  0  0  0
    0.2622   -2.1965   -0.0775 O   0  0  0  0  0  0  0  0  0  0  0  0
    4.4064   -1.2134   -1.6235 O   0  0  0  0  0  0  0  0  0  0  0  0
    2.8401   -2.5881   -0.8388 O   0  0  0  0  0  0  0  0  0  0  0  0
    0.9608    1.0560   -0.7620 H   0  0  0  0  0  0  0  0  0  0  0  0
    1.1176   -0.2772   -1.9023 H   0  0  0  0  0  0  0  0  0  0  0  0
   -0.8807   -0.4831   -0.3871 H   0  0  0  0  0  0  0  0  0  0  0  0
    0.1908   -0.5000    1.0202 H   0  0  0  0  0  0  0  0  0  0  0  0
    2.5995   -0.4065    0.7533 H   0  0  0  0  0  0  0  0  0  0  0  0
    3.4971    1.2434   -1.4746 H   0  0  0  0  0  0  0  0  0  0  0  0
    4.3150    0.9424   -0.1298 H   0  0  0  0  0  0  0  0  0  0  0  0
   -0.0663   -2.5089   -0.9365 H   0  0  0  0  0  0  0  0  0  0  0  0
    1.9760   -2.5275   -0.3624 H   0  0  0  0  0  0  0  0  0  0  0  0
  1  9  1  0  0  0  0
  1  3  1  0  0  0  0
  1  2  1  0  0  0  0
  2 12  1  0  0  0  0
  3 13  1  1  0  0  0
  4  8  1  0  0  0  0
  4  3  1  0  0  0  0
  5  3  1  0  0  0  0
  5 15  1  0  0  0  0
  6  2  1  0  0  0  0
  7  4  2  0  0  0  0
  8 17  1  0  0  0  0
 10  1  1  0  0  0  0
 11  2  1  0  0  0  0
 14  5  1  0  0  0  0
 16  6  1  0  0  0  0
M  END
>  <HBA>
4

>  <HBD>
3

>  <TPSA>
83.55

>  <cid>
779

>  <dipole>
4.43

>  <excitation_energy_1>
5.613

>  <excitation_energy_2>
5.922

>  <excitation_energy_3>
6.076

>  <excitation_energy_4>
6.343

>  <homo_energy>
-6.7

>  <homo_lumo_gap>
7.219

>  <logP>
-0.519

>  <lumo_energy>
0.52

>  <melting_point>
124.79

>  <molecular_refractivity>
26.98

>  <oscillator_strength_1>
0.0011

>  <oscillator_strength_2>
0.0006

>  <oscillator_strength_3>
0.003

>  <oscillator_strength_4>
0.0089

>  <open_babel_can_smiles>
OCC[C@@H](C(=O)O)N

>  <mulliken_charges>
17
1   -0.300735
2   -0.062006
3   -0.094118
4   0.563805
5   -0.696752
6   -0.620639
7   -0.45958
8   -0.600638
9   0.178711
10   0.147105
11   0.150219
12   0.17086
13   0.159177
14   0.304015
15   0.310562
16   0.41119
17   0.438825

>  <lowdin_charges>
17
1   -0.298928
2   -0.133388
3   -0.111244
4   0.162532
5   -0.529964
6   -0.457095
7   -0.261531
8   -0.371751
9   0.172112
10   0.146539
11   0.145144
12   0.155581
13   0.153465
14   0.257425
15   0.262024
16   0.355031
17   0.354048

$$$$

