PCCDB-ID:  2110
public computational chemistry database (PCCDB) project, http://pccdb.org

 27 27  0  0  1  0  0  0  0  0999 V2000
    0.7619    0.3191   -0.3871 C   0  0  0  0  0  0  0  0  0  0  0  0
    3.1774    4.2363    2.0922 C   0  0  0  0  0  0  0  0  0  0  0  0
    3.4580    2.9774    1.5604 C   0  0  0  0  0  0  0  0  0  0  0  0
    1.9893    4.4659    2.7840 C   0  0  0  0  0  0  0  0  0  0  0  0
    1.3554    2.1533    2.4157 C   0  0  0  0  0  0  0  0  0  0  0  0
    2.8379    0.5606    1.1189 C   0  0  0  0  0  0  0  0  0  0  0  0
    2.5419    1.9220    1.7119 C   0  0  0  0  0  0  0  0  0  0  0  0
    1.0787    3.4161    2.9493 C   0  0  0  0  0  0  0  0  0  0  0  0
    2.8322   -1.0747   -0.7333 C   0  0  0  0  0  0  0  0  0  0  0  0
    2.2941    0.3269   -0.3297 C   0  0  1  0  0  0  0  0  0  0  0  0
    2.9085    1.3165   -1.2434 N   0  0  0  0  0  0  0  0  0  0  0  0
   -0.0994    3.5613    3.6257 O   0  0  0  0  0  0  0  0  0  0  0  0
    2.3346   -2.1072   -0.3467 O   0  0  0  0  0  0  0  0  0  0  0  0
    3.9302   -1.0308   -1.5030 O   0  0  0  0  0  0  0  0  0  0  0  0
    0.3591   -0.4994    0.2148 H   0  0  0  0  0  0  0  0  0  0  0  0
    0.4213    0.1661   -1.4187 H   0  0  0  0  0  0  0  0  0  0  0  0
    0.3533    1.2679   -0.0264 H   0  0  0  0  0  0  0  0  0  0  0  0
    3.8929    5.0458    1.9761 H   0  0  0  0  0  0  0  0  0  0  0  0
    4.4023    2.8023    1.0507 H   0  0  0  0  0  0  0  0  0  0  0  0
    1.7741    5.4473    3.2026 H   0  0  0  0  0  0  0  0  0  0  0  0
    0.6363    1.3556    2.5747 H   0  0  0  0  0  0  0  0  0  0  0  0
    2.4189   -0.2326    1.7453 H   0  0  0  0  0  0  0  0  0  0  0  0
    3.9236    0.4082    1.0933 H   0  0  0  0  0  0  0  0  0  0  0  0
    2.9704    2.2281   -0.7922 H   0  0  0  0  0  0  0  0  0  0  0  0
    2.3237    1.4385   -2.0695 H   0  0  0  0  0  0  0  0  0  0  0  0
   -0.1647    4.4699    3.9586 H   0  0  0  0  0  0  0  0  0  0  0  0
    4.0747   -0.0621   -1.6677 H   0  0  0  0  0  0  0  0  0  0  0  0
  1 10  1  0  0  0  0
  1 17  1  0  0  0  0
  1 15  1  0  0  0  0
  2  4  2  0  0  0  0
  3  7  2  0  0  0  0
  3  2  1  0  0  0  0
  4  8  1  0  0  0  0
  4 20  1  0  0  0  0
  5 21  1  0  0  0  0
  5  8  2  0  0  0  0
  6  7  1  0  0  0  0
  6 22  1  0  0  0  0
  7  5  1  0  0  0  0
  8 12  1  0  0  0  0
  9 13  2  0  0  0  0
 10  9  1  6  0  0  0
 10  6  1  0  0  0  0
 11 24  1  0  0  0  0
 11 10  1  0  0  0  0
 12 26  1  0  0  0  0
 14  9  1  0  0  0  0
 16  1  1  0  0  0  0
 18  2  1  0  0  0  0
 19  3  1  0  0  0  0
 23  6  1  0  0  0  0
 25 11  1  0  0  0  0
 27 14  1  0  0  0  0
M  END
>  <HBA>
4

>  <HBD>
3

>  <TPSA>
83.55

>  <cid>
2110

>  <dipole>
6.82

>  <excitation_energy_1>
4.96

>  <excitation_energy_2>
5.347

>  <excitation_energy_3>
5.35

>  <excitation_energy_4>
5.675

>  <homo_energy>
-6.359

>  <homo_lumo_gap>
5.856

>  <logP>
1.437

>  <lumo_energy>
-0.503

>  <melting_point>
188.56

>  <molecular_refractivity>
52.37

>  <oscillator_strength_1>
0.0405

>  <oscillator_strength_2>
0.005

>  <oscillator_strength_3>
0.0069

>  <oscillator_strength_4>
0.0159

>  <open_babel_can_smiles>
Oc1cccc(c1)C[C@](C(=O)O)(N)C

>  <mulliken_charges>
27
1   -0.46506
2   -0.132236
3   -0.209716
4   -0.194623
5   -0.216664
6   -0.371027
7   0.160602
8   0.354515
9   0.620126
10   0.098
11   -0.792424
12   -0.638603
13   -0.476316
14   -0.588434
15   0.180495
16   0.144616
17   0.155409
18   0.137529
19   0.134401
20   0.123273
21   0.146625
22   0.181097
23   0.160831
24   0.327902
25   0.318995
26   0.409667
27   0.43102

>  <lowdin_charges>
27
1   -0.454547
2   -0.142829
3   -0.202468
4   -0.214708
5   -0.196369
6   -0.274344
7   0.002576
8   0.107887
9   0.176054
10   0.025992
11   -0.549081
12   -0.373205
13   -0.26167
14   -0.357167
15   0.172694
16   0.151094
17   0.156777
18   0.162679
19   0.158552
20   0.155478
21   0.171075
22   0.173861
23   0.158685
24   0.271037
25   0.267262
26   0.358028
27   0.356658

$$$$

