PCCDB-ID:  2901
public computational chemistry database (PCCDB) project, http://pccdb.org

 20 20  0  0  0  0  0  0  0  0999 V2000
   -0.7239   -1.0631   -0.0177 C   0  0  0  0  0  0  0  0  0  0  0  0
    0.8070   -1.0176   -0.3012 C   0  0  0  0  0  0  0  0  0  0  0  0
   -1.1239    0.3815    0.3759 C   0  0  0  0  0  0  0  0  0  0  0  0
    1.2475    0.4233    0.0359 C   0  0  0  0  0  0  0  0  0  0  0  0
    0.0550    2.6267    0.5693 C   0  0  0  0  0  0  0  0  0  0  0  0
   -0.0092    1.2851   -0.2011 C   0  0  0  0  0  0  0  0  0  0  0  0
   -0.2671    1.5805   -1.6320 N   0  0  0  0  0  0  0  0  0  0  0  0
    0.3944    2.6991    1.7294 O   0  0  0  0  0  0  0  0  0  0  0  0
   -0.3241    3.6892   -0.1531 O   0  0  0  0  0  0  0  0  0  0  0  0
   -0.9746   -1.7659    0.7827 H   0  0  0  0  0  0  0  0  0  0  0  0
   -1.2726   -1.3993   -0.9049 H   0  0  0  0  0  0  0  0  0  0  0  0
    1.0046   -1.2436   -1.3553 H   0  0  0  0  0  0  0  0  0  0  0  0
    1.3627   -1.7552    0.2859 H   0  0  0  0  0  0  0  0  0  0  0  0
   -1.1179    0.5024    1.4632 H   0  0  0  0  0  0  0  0  0  0  0  0
   -2.1182    0.6760    0.0201 H   0  0  0  0  0  0  0  0  0  0  0  0
    2.1057    0.7657   -0.5558 H   0  0  0  0  0  0  0  0  0  0  0  0
    1.5225    0.5176    1.0907 H   0  0  0  0  0  0  0  0  0  0  0  0
   -0.9304    0.9289   -2.0428 H   0  0  0  0  0  0  0  0  0  0  0  0
    0.5889    1.5285   -2.1809 H   0  0  0  0  0  0  0  0  0  0  0  0
   -0.5350    3.3107   -1.0470 H   0  0  0  0  0  0  0  0  0  0  0  0
  1  3  1  0  0  0  0
  1 10  1  0  0  0  0
  2  1  1  0  0  0  0
  2  4  1  0  0  0  0
  2 13  1  0  0  0  0
  3 14  1  0  0  0  0
  4 17  1  0  0  0  0
  5  8  2  0  0  0  0
  6  4  1  0  0  0  0
  6  3  1  0  0  0  0
  6  5  1  0  0  0  0
  7  6  1  0  0  0  0
  9  5  1  0  0  0  0
 11  1  1  0  0  0  0
 12  2  1  0  0  0  0
 15  3  1  0  0  0  0
 16  4  1  0  0  0  0
 18  7  1  0  0  0  0
 19  7  1  0  0  0  0
 20  9  1  0  0  0  0
M  END
>  <HBA>
3

>  <HBD>
2

>  <TPSA>
63.32

>  <cid>
2901

>  <dipole>
5.51

>  <excitation_energy_1>
5.506

>  <excitation_energy_2>
5.847

>  <excitation_energy_3>
6.791

>  <excitation_energy_4>
6.926

>  <homo_energy>
-6.672

>  <homo_lumo_gap>
7.266

>  <logP>
1.043

>  <lumo_energy>
0.593

>  <melting_point>
138.45

>  <molecular_refractivity>
33.36

>  <oscillator_strength_1>
0.0012

>  <oscillator_strength_2>
0.0052

>  <oscillator_strength_3>
0.0459

>  <oscillator_strength_4>
0.0139

>  <open_babel_can_smiles>
OC(=O)C1(N)CCCC1

>  <mulliken_charges>
20
1   -0.281751
2   -0.275108
3   -0.299957
4   -0.289986
5   0.610664
6   0.108528
7   -0.79895
8   -0.479878
9   -0.588264
10   0.152563
11   0.135478
12   0.133099
13   0.150337
14   0.180526
15   0.146252
16   0.135593
17   0.180693
18   0.325192
19   0.322071
20   0.432898

>  <lowdin_charges>
20
1   -0.289836
2   -0.286649
3   -0.28149
4   -0.286113
5   0.169856
6   0.020201
7   -0.548101
8   -0.266084
9   -0.353912
10   0.155612
11   0.142618
12   0.139633
13   0.155043
14   0.166305
15   0.149484
16   0.145867
17   0.16732
18   0.273022
19   0.268784
20   0.358441

$$$$

