PCCDB-ID:  910
public computational chemistry database (PCCDB) project, http://pccdb.org

 29 29  0  0  1  0  0  0  0  0999 V2000
   -1.7460   -0.7343   -0.3287 C   0  0  0  0  0  0  0  0  0  0  0  0
   -1.0572   -1.9023    0.0207 C   0  0  0  0  0  0  0  0  0  0  0  0
   -1.1396    0.5016   -0.1371 C   0  0  0  0  0  0  0  0  0  0  0  0
    0.2328   -1.8387    0.5393 C   0  0  0  0  0  0  0  0  0  0  0  0
    1.7014    2.2372    1.7736 C   0  0  0  0  0  0  0  0  0  0  0  0
    3.1611   -1.1693    0.9609 C   0  0  0  0  0  0  0  0  0  0  0  0
    0.1441    0.5914    0.4249 C   0  0  0  0  0  0  0  0  0  0  0  0
    3.1371    2.4660    1.2219 C   0  0  1  0  0  0  0  0  0  0  0  0
    0.8635   -0.5964    0.7278 C   0  0  0  0  0  0  0  0  0  0  0  0
    0.7254    1.9438    0.6354 C   0  0  0  0  0  0  0  0  0  0  0  0
    3.4338    3.9592    0.9526 C   0  0  0  0  0  0  0  0  0  0  0  0
    4.1591    1.8645    2.0982 N   0  0  0  0  0  0  0  0  0  0  0  0
    2.1539   -0.4237    1.2034 N   0  0  0  0  0  0  0  0  0  0  0  0
    4.3681   -0.8526    1.4021 O   0  0  0  0  0  0  0  0  0  0  0  0
    0.4087    2.8811   -0.1048 O   0  0  0  0  0  0  0  0  0  0  0  0
    4.4919    4.4581    1.2709 O   0  0  0  0  0  0  0  0  0  0  0  0
    2.4856    4.6575    0.3210 O   0  0  0  0  0  0  0  0  0  0  0  0
   -2.7496   -0.7925   -0.7389 H   0  0  0  0  0  0  0  0  0  0  0  0
   -1.5297   -2.8714   -0.1171 H   0  0  0  0  0  0  0  0  0  0  0  0
   -1.6534    1.4209   -0.4003 H   0  0  0  0  0  0  0  0  0  0  0  0
    0.7606   -2.7492    0.8082 H   0  0  0  0  0  0  0  0  0  0  0  0
    1.3382    3.1459    2.2703 H   0  0  0  0  0  0  0  0  0  0  0  0
    1.7247    1.4231    2.4930 H   0  0  0  0  0  0  0  0  0  0  0  0
    3.1543   -2.0904    0.3666 H   0  0  0  0  0  0  0  0  0  0  0  0
    3.2221    1.9627    0.2498 H   0  0  0  0  0  0  0  0  0  0  0  0
    3.9431    2.0977    3.0685 H   0  0  0  0  0  0  0  0  0  0  0  0
    5.0351    2.3574    1.9053 H   0  0  0  0  0  0  0  0  0  0  0  0
    4.3139    0.0864    1.7891 H   0  0  0  0  0  0  0  0  0  0  0  0
    1.6781    4.1122    0.1280 H   0  0  0  0  0  0  0  0  0  0  0  0
  1  3  2  0  0  0  0
  1  2  1  0  0  0  0
  2  4  2  0  0  0  0
  3  7  1  0  0  0  0
  4  9  1  0  0  0  0
  4 21  1  0  0  0  0
  5 22  1  0  0  0  0
  5 23  1  0  0  0  0
  6 13  2  0  0  0  0
  6 14  1  0  0  0  0
  7 10  1  0  0  0  0
  7  9  2  0  0  0  0
  8 25  1  6  0  0  0
  8  5  1  0  0  0  0
  8 12  1  0  0  0  0
  9 13  1  0  0  0  0
 10  5  1  0  0  0  0
 11  8  1  0  0  0  0
 11 16  2  0  0  0  0
 12 26  1  0  0  0  0
 14 28  1  0  0  0  0
 15 10  2  0  0  0  0
 17 11  1  0  0  0  0
 18  1  1  0  0  0  0
 19  2  1  0  0  0  0
 20  3  1  0  0  0  0
 24  6  1  0  0  0  0
 27 12  1  0  0  0  0
 29 17  1  0  0  0  0
M  END
>  <HBA>
6

>  <HBD>
3

>  <TPSA>
109.49

>  <cid>
910

>  <dipole>
5.48

>  <excitation_energy_1>
3.772

>  <excitation_energy_2>
4.032

>  <excitation_energy_3>
4.44

>  <excitation_energy_4>
4.608

>  <homo_energy>
-6.444

>  <homo_lumo_gap>
4.444

>  <logP>
1.649

>  <lumo_energy>
-2.0

>  <melting_point>
225.24

>  <molecular_refractivity>
60.62

>  <oscillator_strength_1>
0.0738

>  <oscillator_strength_2>
0.0031

>  <oscillator_strength_3>
0.0031

>  <oscillator_strength_4>
0.0542

>  <open_babel_can_smiles>
O/C=N/c1ccccc1C(=O)C[C@@H](C(=O)O)N

>  <mulliken_charges>
29
1   -0.131267
2   -0.130337
3   -0.16831
4   -0.160955
5   -0.373041
6   0.289549
7   0.055482
8   -0.058463
9   0.265221
10   0.383157
11   0.585948
12   -0.76503
13   -0.536086
14   -0.579787
15   -0.488125
16   -0.466874
17   -0.589713
18   0.141043
19   0.143461
20   0.162434
21   0.139256
22   0.175874
23   0.19604
24   0.146823
25   0.185079
26   0.32332
27   0.343987
28   0.462561
29   0.448753

>  <lowdin_charges>
29
1   -0.165403
2   -0.128756
3   -0.123565
4   -0.185784
5   -0.319878
6   0.047105
7   -0.06674
8   -0.100005
9   0.062305
10   0.184186
11   0.172771
12   -0.511585
13   -0.220267
14   -0.350871
15   -0.269024
16   -0.264452
17   -0.352031
18   0.16344
19   0.164222
20   0.175772
21   0.16374
22   0.166637
23   0.182521
24   0.142013
25   0.166846
26   0.26836
27   0.280206
28   0.355343
29   0.362895

$$$$

