PCCDB-ID:  4278
public computational chemistry database (PCCDB) project, http://pccdb.org

 24 23  0  0  0  0  0  0  0  0999 V2000
    0.0538   -0.4449    1.0705 C   0  0  0  0  0  0  0  0  0  0  0  0
    1.9550   -1.6698    0.0383 C   0  0  0  0  0  0  0  0  0  0  0  0
    1.6087    1.5824   -5.2577 C   0  0  0  0  0  0  0  0  0  0  0  0
    3.5072    0.3529   -6.2891 C   0  0  0  0  0  0  0  0  0  0  0  0
    0.5978   -0.0476   -1.2586 C   0  0  0  0  0  0  0  0  0  0  0  0
    2.9583   -0.0470   -3.9616 C   0  0  0  0  0  0  0  0  0  0  0  0
    1.4075   -0.4966   -2.3932 N   0  0  0  0  0  0  0  0  0  0  0  0
    2.1481    0.4024   -2.8275 N   0  0  0  0  0  0  0  0  0  0  0  0
    0.8508   -0.7304   -0.1133 N   0  0  0  0  0  0  0  0  0  0  0  0
    2.7080    0.6371   -5.1066 N   0  0  0  0  0  0  0  0  0  0  0  0
   -0.2759    0.7853   -1.4344 O   0  0  0  0  0  0  0  0  0  0  0  0
    3.8302   -0.8818   -3.7856 O   0  0  0  0  0  0  0  0  0  0  0  0
   -0.4021   -1.3683    1.4489 H   0  0  0  0  0  0  0  0  0  0  0  0
   -0.7274    0.2653    0.8013 H   0  0  0  0  0  0  0  0  0  0  0  0
    0.6801   -0.0154    1.8630 H   0  0  0  0  0  0  0  0  0  0  0  0
    1.5826   -2.6156    0.4504 H   0  0  0  0  0  0  0  0  0  0  0  0
    2.7141   -1.2682    0.7226 H   0  0  0  0  0  0  0  0  0  0  0  0
    2.4218   -1.8669   -0.9269 H   0  0  0  0  0  0  0  0  0  0  0  0
    1.9870    2.5293   -5.6619 H   0  0  0  0  0  0  0  0  0  0  0  0
    1.1378    1.7752   -4.2936 H   0  0  0  0  0  0  0  0  0  0  0  0
    0.8516    1.1882   -5.9484 H   0  0  0  0  0  0  0  0  0  0  0  0
    3.9691    1.2756   -6.6622 H   0  0  0  0  0  0  0  0  0  0  0  0
    2.8811   -0.0698   -7.0854 H   0  0  0  0  0  0  0  0  0  0  0  0
    4.2839   -0.3626   -6.0207 H   0  0  0  0  0  0  0  0  0  0  0  0
  1 13  1  0  0  0  0
  1 15  1  0  0  0  0
  2 16  1  0  0  0  0
  2 17  1  0  0  0  0
  3 10  1  0  0  0  0
  3 20  1  0  0  0  0
  4 24  1  0  0  0  0
  4 10  1  0  0  0  0
  5  9  1  0  0  0  0
  6 12  2  0  0  0  0
  6  8  1  0  0  0  0
  7  5  1  0  0  0  0
  8  7  1  0  0  0  0
  9  2  1  0  0  0  0
  9  1  1  0  0  0  0
 10  6  1  0  0  0  0
 11  5  2  0  0  0  0
 14  1  1  0  0  0  0
 18  2  1  0  0  0  0
 19  3  1  0  0  0  0
 21  3  1  0  0  0  0
 22  4  1  0  0  0  0
 23  4  1  0  0  0  0
M  RAD  2   7   2   8   2
M  END
>  <HBA>
6

>  <HBD>
0

>  <TPSA>
65.34

>  <cid>
4278

>  <dipole>
0.02

>  <excitation_energy_1>
2.625

>  <excitation_energy_2>
3.813

>  <excitation_energy_3>
3.818

>  <excitation_energy_4>
4.272

>  <homo_energy>
-6.193

>  <homo_lumo_gap>
4.155

>  <logP>
0.802

>  <lumo_energy>
-2.038

>  <melting_point>
57.68

>  <molecular_refractivity>
42.78

>  <oscillator_strength_1>
0.0

>  <oscillator_strength_2>
0.0

>  <oscillator_strength_3>
0.0094

>  <oscillator_strength_4>
0.0278

>  <open_babel_can_smiles>
CN(C(=O)[N][N]C(=O)N(C)C)C

>  <mulliken_charges>
24
1   -0.320412
2   -0.328387
3   -0.328253
4   -0.320459
5   0.710789
6   0.710867
7   -0.233999
8   -0.23423
9   -0.399386
10   -0.399451
11   -0.493676
12   -0.493668
13   0.159309
14   0.205874
15   0.16019
16   0.161685
17   0.164464
18   0.213624
19   0.161676
20   0.213576
21   0.164444
22   0.159314
23   0.160199
24   0.205911

>  <lowdin_charges>
24
1   -0.353784
2   -0.354408
3   -0.354354
4   -0.353775
5   0.160507
6   0.160495
7   -0.059054
8   -0.059289
9   -0.092226
10   -0.092173
11   -0.290183
12   -0.290222
13   0.154268
14   0.186269
15   0.15402
16   0.155021
17   0.155021
18   0.184644
19   0.154946
20   0.184652
21   0.155053
22   0.154232
23   0.154042
24   0.186296

$$$$

