PCCDB-ID:  776
public computational chemistry database (PCCDB) project, http://pccdb.org

 21 21  0  0  1  0  0  0  0  0999 V2000
    1.8257    0.5766    0.0160 C   0  0  0  0  0  0  0  0  0  0  0  0
    3.9904   -0.9063   -0.1100 C   0  0  0  0  0  0  0  0  0  0  0  0
    2.7813    2.2343   -1.6909 C   0  0  0  0  0  0  0  0  0  0  0  0
    5.1321   -0.0354    1.4704 C   0  0  0  0  0  0  0  0  0  0  0  0
    1.7679    2.0165   -0.5507 C   0  0  1  0  0  0  0  0  0  0  0  0
    3.1879    0.0913    0.3976 C   0  0  0  0  0  0  0  0  0  0  0  0
    0.3764    2.2764   -0.9388 N   0  0  0  0  0  0  0  0  0  0  0  0
    5.1937   -0.9791    0.5593 N   0  0  0  0  0  0  0  0  0  0  0  0
    3.9452    0.6455    1.4173 N   0  0  0  0  0  0  0  0  0  0  0  0
    2.5673    1.3261   -2.7682 O   0  0  0  0  0  0  0  0  0  0  0  0
    1.4314   -0.1044   -0.7477 H   0  0  0  0  0  0  0  0  0  0  0  0
    1.1264    0.5217    0.8591 H   0  0  0  0  0  0  0  0  0  0  0  0
    3.7532   -1.5963   -0.9107 H   0  0  0  0  0  0  0  0  0  0  0  0
    3.8127    2.1691   -1.3163 H   0  0  0  0  0  0  0  0  0  0  0  0
    2.6428    3.2404   -2.1048 H   0  0  0  0  0  0  0  0  0  0  0  0
    5.9025    0.2020    2.1923 H   0  0  0  0  0  0  0  0  0  0  0  0
    2.0218    2.7251    0.2526 H   0  0  0  0  0  0  0  0  0  0  0  0
    0.1935    1.7571   -1.7994 H   0  0  0  0  0  0  0  0  0  0  0  0
    0.2713    3.2603   -1.1865 H   0  0  0  0  0  0  0  0  0  0  0  0
    3.6583    1.3982    2.0270 H   0  0  0  0  0  0  0  0  0  0  0  0
    3.0301    0.5049   -2.5401 H   0  0  0  0  0  0  0  0  0  0  0  0
  1  6  1  0  0  0  0
  1 12  1  0  0  0  0
  2  6  2  0  0  0  0
  2  8  1  0  0  0  0
  3 14  1  0  0  0  0
  3  5  1  0  0  0  0
  4 16  1  0  0  0  0
  5  1  1  0  0  0  0
  5 17  1  1  0  0  0
  6  9  1  0  0  0  0
  7  5  1  0  0  0  0
  8  4  2  0  0  0  0
  9  4  1  0  0  0  0
  9 20  1  0  0  0  0
 10 21  1  0  0  0  0
 10  3  1  0  0  0  0
 11  1  1  0  0  0  0
 13  2  1  0  0  0  0
 15  3  1  0  0  0  0
 18  7  1  0  0  0  0
 19  7  1  0  0  0  0
M  END
>  <HBA>
3

>  <HBD>
3

>  <TPSA>
74.93

>  <cid>
776

>  <dipole>
3.26

>  <excitation_energy_1>
5.17

>  <excitation_energy_2>
5.627

>  <excitation_energy_3>
5.688

>  <excitation_energy_4>
5.969

>  <homo_energy>
-6.074

>  <homo_lumo_gap>
6.746

>  <logP>
-0.028

>  <lumo_energy>
0.672

>  <melting_point>
141.47

>  <molecular_refractivity>
37.04

>  <oscillator_strength_1>
0.0062

>  <oscillator_strength_2>
0.0096

>  <oscillator_strength_3>
0.018

>  <oscillator_strength_4>
0.0139

>  <open_babel_can_smiles>
N[C@H](CO)Cc1cnc[nH]1

>  <mulliken_charges>
21
1   -0.35463
2   -0.101016
3   -0.053343
4   0.206304
5   0.013265
6   0.325119
7   -0.712052
8   -0.420626
9   -0.607226
10   -0.62032
11   0.155297
12   0.167502
13   0.129108
14   0.136041
15   0.1356
16   0.155634
17   0.11156
18   0.307632
19   0.294433
20   0.332665
21   0.399054

>  <lowdin_charges>
21
1   -0.286966
2   -0.187515
3   -0.154841
4   -0.095226
5   -0.087629
6   -0.013866
7   -0.546825
8   -0.183501
9   -0.18841
10   -0.471343
11   0.162313
12   0.165551
13   0.15809
14   0.136529
15   0.141468
16   0.167804
17   0.132856
18   0.258918
19   0.252615
20   0.293619
21   0.346358

$$$$

