PCCDB-ID:  6261
public computational chemistry database (PCCDB) project, http://pccdb.org

 15 14  0  0  0  0  0  0  0  0999 V2000
    2.1399   -1.7738   -0.6787 C   0  0  0  0  0  0  0  0  0  0  0  0
    2.7108    0.0780    0.9281 C   0  0  0  0  0  0  0  0  0  0  0  0
    3.9406   -0.0862    0.6790 N   0  0  0  0  0  0  0  0  0  0  0  0
    2.0817    0.9439    1.8474 N   0  0  0  0  0  0  0  0  0  0  0  0
    0.4396   -0.4370    0.4641 N   0  0  0  0  0  0  0  0  0  0  0  0
    1.7466   -0.7140    0.2479 N   0  0  0  0  0  0  0  0  0  0  0  0
    2.6924    2.0309    2.4551 N   0  0  0  0  0  0  0  0  0  0  0  0
   -0.3366   -1.1397   -0.1598 O   0  0  0  0  0  0  0  0  0  0  0  0
    3.9172    2.1026    2.4347 O   0  0  0  0  0  0  0  0  0  0  0  0
    1.9185    2.8120    2.9906 O   0  0  0  0  0  0  0  0  0  0  0  0
    1.6926   -2.7163   -0.3529 H   0  0  0  0  0  0  0  0  0  0  0  0
    3.2254   -1.8281   -0.6742 H   0  0  0  0  0  0  0  0  0  0  0  0
    1.7661   -1.5374   -1.6785 H   0  0  0  0  0  0  0  0  0  0  0  0
    4.5158    0.5354    1.2449 H   0  0  0  0  0  0  0  0  0  0  0  0
    1.0703    1.0341    1.8289 H   0  0  0  0  0  0  0  0  0  0  0  0
  1 12  1  0  0  0  0
  1 11  1  0  0  0  0
  1  6  1  0  0  0  0
  2  4  1  0  0  0  0
  3  2  2  0  0  0  0
  3 14  1  0  0  0  0
  4  7  1  0  0  0  0
  6  5  1  0  0  0  0
  6  2  1  0  0  0  0
  7 10  2  0  0  0  0
  8  5  1  0  0  0  0
  9  7  2  0  0  0  0
 13  1  1  0  0  0  0
 15  4  1  0  0  0  0
M  RAD  2   5   2   8   2
M  END
>  <HBA>
5

>  <HBD>
1

>  <TPSA>
116.87

>  <cid>
6261

>  <dipole>
2.05

>  <excitation_energy_1>
3.133

>  <excitation_energy_2>
4.147

>  <excitation_energy_3>
4.548

>  <excitation_energy_4>
4.747

>  <homo_energy>
-7.276

>  <homo_lumo_gap>
4.827

>  <logP>
0.33

>  <lumo_energy>
-2.449

>  <melting_point>
100.65

>  <molecular_refractivity>
33.86

>  <oscillator_strength_1>
0.001

>  <oscillator_strength_2>
0.0014

>  <oscillator_strength_3>
0.0011

>  <oscillator_strength_4>
0.0132

>  <open_babel_can_smiles>
[O][N]N(C(=N)NN(=O)=O)C

>  <mulliken_charges>
15
1   -0.328894
2   0.742408
3   -0.623991
4   -0.518993
5   0.166386
6   -0.311907
7   0.659688
8   -0.346631
9   -0.404273
10   -0.383801
11   0.192539
12   0.226216
13   0.192843
14   0.347764
15   0.390647

>  <lowdin_charges>
15
1   -0.362952
2   0.133282
3   -0.388322
4   -0.222018
5   0.053967
6   -0.020196
7   0.349764
8   -0.213983
9   -0.242989
10   -0.236563
11   0.176225
12   0.19641
13   0.175564
14   0.28794
15   0.313871

$$$$

