PCCDB-ID:  6213
public computational chemistry database (PCCDB) project, http://pccdb.org

 11 10  0  0  0  0  0  0  0  0999 V2000
    1.1583   -0.0571    0.0088 C   0  0  0  0  0  0  0  0  0  0  0  0
    3.4788   -0.4190   -1.5916 C   0  0  0  0  0  0  0  0  0  0  0  0
    3.3851    1.3411    0.3979 O   0  0  0  0  0  0  0  0  0  0  0  0
    3.3846   -1.1524    0.9614 O   0  0  0  0  0  0  0  0  0  0  0  0
    2.9657   -0.0362    0.1013 S   0  0  0  0  0  0  0  0  0  0  0  0
    0.8170    0.7100   -0.6894 H   0  0  0  0  0  0  0  0  0  0  0  0
    0.8033    0.1706    1.0167 H   0  0  0  0  0  0  0  0  0  0  0  0
    0.8174   -1.0501   -0.2916 H   0  0  0  0  0  0  0  0  0  0  0  0
    3.1096    0.3525   -2.2706 H   0  0  0  0  0  0  0  0  0  0  0  0
    3.1093   -1.4075   -1.8722 H   0  0  0  0  0  0  0  0  0  0  0  0
    4.5713   -0.4170   -1.5823 H   0  0  0  0  0  0  0  0  0  0  0  0
  1  5  1  0  0  0  0
  1  7  1  0  0  0  0
  2 11  1  0  0  0  0
  2  5  1  0  0  0  0
  5  3  2  0  0  0  0
  5  4  2  0  0  0  0
  6  1  1  0  0  0  0
  8  1  1  0  0  0  0
  9  2  1  0  0  0  0
 10  2  1  0  0  0  0
M  END
>  <HBA>
2

>  <HBD>
0

>  <TPSA>
42.52

>  <cid>
6213

>  <dipole>
4.61

>  <excitation_energy_1>
6.996

>  <excitation_energy_2>
7.2

>  <excitation_energy_3>
7.636

>  <excitation_energy_4>
7.74

>  <homo_energy>
-7.878

>  <homo_lumo_gap>
9.491

>  <logP>
0.742

>  <lumo_energy>
1.614

>  <melting_point>
5.73

>  <molecular_refractivity>
20.69

>  <oscillator_strength_1>
0.0743

>  <oscillator_strength_2>
0.0054

>  <oscillator_strength_3>
0.0

>  <oscillator_strength_4>
0.0662

>  <open_babel_can_smiles>
CS(=O)(=O)C

>  <mulliken_charges>
11
1   -0.629802
2   -0.62988
3   -0.528066
4   -0.528121
5   1.07319
6   0.198478
7   0.224304
8   0.198525
9   0.198525
10   0.198538
11   0.224309

>  <lowdin_charges>
11
1   -0.605376
2   -0.60383
3   -0.604726
4   -0.605636
5   1.267712
6   0.188198
7   0.201286
8   0.186889
9   0.188299
10   0.186984
11   0.2002

$$$$

