PCCDB-ID:  2072
public computational chemistry database (PCCDB) project, http://pccdb.org

 20 21  0  0  0  0  0  0  0  0999 V2000
    2.4490   -0.6723   -0.0368 C   0  0  0  0  0  0  0  0  0  0  0  0
    1.2746   -1.3910    0.0127 C   0  0  0  0  0  0  0  0  0  0  0  0
    2.4339    0.7355   -0.0485 C   0  0  0  0  0  0  0  0  0  0  0  0
   -1.2690    1.3559   -0.0964 C   0  0  0  0  0  0  0  0  0  0  0  0
   -2.4047    0.5833   -0.0691 C   0  0  0  0  0  0  0  0  0  0  0  0
   -0.0015    0.7182   -0.0343 C   0  0  0  0  0  0  0  0  0  0  0  0
    0.0314   -0.7084    0.0269 C   0  0  0  0  0  0  0  0  0  0  0  0
    1.2392    1.4406   -0.0434 C   0  0  0  0  0  0  0  0  0  0  0  0
   -1.2436   -1.3750    0.0909 C   0  0  0  0  0  0  0  0  0  0  0  0
    1.2225    2.8354   -0.1050 N   0  0  0  0  0  0  0  0  0  0  0  0
   -2.4031   -0.7679    0.0417 N   0  0  0  0  0  0  0  0  0  0  0  0
   -1.3214   -2.7271    0.2073 O   0  0  0  0  0  0  0  0  0  0  0  0
    3.4034   -1.1909   -0.0543 H   0  0  0  0  0  0  0  0  0  0  0  0
    1.3243   -2.4771    0.0096 H   0  0  0  0  0  0  0  0  0  0  0  0
    3.3746    1.2814   -0.0624 H   0  0  0  0  0  0  0  0  0  0  0  0
   -1.3530    2.4313   -0.2097 H   0  0  0  0  0  0  0  0  0  0  0  0
   -3.3888    1.0426   -0.1339 H   0  0  0  0  0  0  0  0  0  0  0  0
    2.1159    3.2682    0.0966 H   0  0  0  0  0  0  0  0  0  0  0  0
    0.4796    3.2797    0.4203 H   0  0  0  0  0  0  0  0  0  0  0  0
   -0.4369   -3.0917    0.3571 H   0  0  0  0  0  0  0  0  0  0  0  0
  1  2  2  0  0  0  0
  2  7  1  0  0  0  0
  3  8  2  0  0  0  0
  3  1  1  0  0  0  0
  4  5  2  0  0  0  0
  4  6  1  0  0  0  0
  5 11  1  0  0  0  0
  6  7  2  0  0  0  0
  7  9  1  0  0  0  0
  8  6  1  0  0  0  0
  9 12  1  0  0  0  0
 10  8  1  0  0  0  0
 10 18  1  0  0  0  0
 10 19  1  0  0  0  0
 11  9  2  0  0  0  0
 12 20  1  0  0  0  0
 13  1  1  0  0  0  0
 14  2  1  0  0  0  0
 15  3  1  0  0  0  0
 16  4  1  0  0  0  0
 17  5  1  0  0  0  0
M  END
>  <HBA>
2

>  <HBD>
2

>  <TPSA>
58.88

>  <cid>
2072

>  <dipole>
4.72

>  <excitation_energy_1>
3.937

>  <excitation_energy_2>
4.182

>  <excitation_energy_3>
4.669

>  <excitation_energy_4>
4.784

>  <homo_energy>
-5.407

>  <homo_lumo_gap>
4.427

>  <logP>
1.692

>  <lumo_energy>
-0.98

>  <melting_point>
180.53

>  <molecular_refractivity>
48.97

>  <oscillator_strength_1>
0.1272

>  <oscillator_strength_2>
0.1086

>  <oscillator_strength_3>
0.0097

>  <oscillator_strength_4>
0.001

>  <open_babel_can_smiles>
Nc1cccc2c1ccnc2O

>  <mulliken_charges>
20
1   -0.137222
2   -0.224441
3   -0.179577
4   -0.214543
5   0.024273
6   0.124828
7   0.081485
8   0.245265
9   0.424087
10   -0.786052
11   -0.462707
12   -0.596648
13   0.133144
14   0.114273
15   0.121342
16   0.12591
17   0.139418
18   0.323762
19   0.326585
20   0.41682

>  <lowdin_charges>
20
1   -0.145949
2   -0.191641
3   -0.201162
4   -0.206112
5   -0.087877
6   -0.007535
7   -0.046551
8   0.061223
9   0.138496
10   -0.483626
11   -0.165665
12   -0.354
13   0.161039
14   0.147103
15   0.155663
16   0.158085
17   0.157003
18   0.277164
19   0.279714
20   0.354627

$$$$

