PCCDB-ID:  5521
public computational chemistry database (PCCDB) project, http://pccdb.org

 22 22  0  0  0  0  0  0  0  0999 V2000
    2.6661    0.8115    1.4220 C   0  0  0  0  0  0  0  0  0  0  0  0
    4.0462    2.0078   -1.9345 C   0  0  0  0  0  0  0  0  0  0  0  0
    1.5512    1.9925   -1.8310 C   0  0  0  0  0  0  0  0  0  0  0  0
    4.0336    3.1038   -2.9759 C   0  0  0  0  0  0  0  0  0  0  0  0
    1.6582    3.3389   -2.5701 C   0  0  0  0  0  0  0  0  0  0  0  0
    2.9236    1.4918   -1.4122 C   0  0  0  0  0  0  0  0  0  0  0  0
    2.7246    3.3740   -3.5748 N   0  0  0  0  0  0  0  0  0  0  0  0
    4.5545   -0.2904   -0.0933 O   0  0  0  0  0  0  0  0  0  0  0  0
    2.0785   -1.0193   -0.6301 O   0  0  0  0  0  0  0  0  0  0  0  0
    2.9670    0.1147   -0.2329 P   0  0  1  0  0  0  0  0  0  0  0  0
    1.6879    1.3010    1.4460 H   0  0  0  0  0  0  0  0  0  0  0  0
    3.4402    1.5379    1.6861 H   0  0  0  0  0  0  0  0  0  0  0  0
    2.6686   -0.0034    2.1516 H   0  0  0  0  0  0  0  0  0  0  0  0
    5.0180    1.6472   -1.6018 H   0  0  0  0  0  0  0  0  0  0  0  0
    1.0697    1.2351   -2.4650 H   0  0  0  0  0  0  0  0  0  0  0  0
    0.8959    2.0983   -0.9543 H   0  0  0  0  0  0  0  0  0  0  0  0
    4.7408    2.8622   -3.7797 H   0  0  0  0  0  0  0  0  0  0  0  0
    4.4139    4.0322   -2.5188 H   0  0  0  0  0  0  0  0  0  0  0  0
    1.8633    4.1386   -1.8457 H   0  0  0  0  0  0  0  0  0  0  0  0
    0.7084    3.5852   -3.0576 H   0  0  0  0  0  0  0  0  0  0  0  0
    2.5341    2.6572   -4.2741 H   0  0  0  0  0  0  0  0  0  0  0  0
    4.7230   -1.0802   -0.6348 H   0  0  0  0  0  0  0  0  0  0  0  0
  1 11  1  0  0  0  0
  1 12  1  0  0  0  0
  1 13  1  0  0  0  0
  2 14  1  0  0  0  0
  2  6  2  0  0  0  0
  3  6  1  0  0  0  0
  3 16  1  0  0  0  0
  4 18  1  0  0  0  0
  4  2  1  0  0  0  0
  5 19  1  0  0  0  0
  5  3  1  0  0  0  0
  6 10  1  0  0  0  0
  7  4  1  0  0  0  0
  7  5  1  0  0  0  0
 10  9  2  6  0  0  0
 10  8  1  0  0  0  0
 10  1  1  0  0  0  0
 15  3  1  0  0  0  0
 17  4  1  0  0  0  0
 20  5  1  0  0  0  0
 21  7  1  0  0  0  0
 22  8  1  0  0  0  0
M  END
>  <HBA>
3

>  <HBD>
2

>  <TPSA>
59.14

>  <cid>
5521

>  <dipole>
2.21

>  <excitation_energy_1>
4.737

>  <excitation_energy_2>
5.326

>  <excitation_energy_3>
5.812

>  <excitation_energy_4>
5.929

>  <homo_energy>
-6.109

>  <homo_lumo_gap>
5.861

>  <logP>
1.093

>  <lumo_energy>
-0.248

>  <melting_point>
84.94

>  <molecular_refractivity>
44.91

>  <oscillator_strength_1>
0.0006

>  <oscillator_strength_2>
0.0023

>  <oscillator_strength_3>
0.009

>  <oscillator_strength_4>
0.0069

>  <open_babel_can_smiles>
C[P@@](=O)(C1=CCNCC1)O

>  <mulliken_charges>
22
1   -0.655707
2   -0.148474
3   -0.328764
4   -0.183652
5   -0.15763
6   -0.085452
7   -0.527447
8   -0.676814
9   -0.55975
10   0.940767
11   0.183464
12   0.188572
13   0.199394
14   0.152613
15   0.17334
16   0.145144
17   0.153796
18   0.161356
19   0.146475
20   0.147258
21   0.296958
22   0.434553

>  <lowdin_charges>
22
1   -0.634048
2   -0.16349
3   -0.291058
4   -0.211417
5   -0.208003
6   -0.207785
7   -0.356102
8   -0.596905
9   -0.613
10   0.994246
11   0.18139
12   0.186194
13   0.191748
14   0.166982
15   0.165229
16   0.154026
17   0.157617
18   0.154547
19   0.145812
20   0.150371
21   0.255098
22   0.378549

$$$$

