PCCDB-ID:  4657
public computational chemistry database (PCCDB) project, http://pccdb.org

 24 24  0  0  0  0  0  0  0  0999 V2000
    1.0571    0.0412   -0.1155 C   0  0  0  0  0  0  0  0  0  0  0  0
    3.1820    3.6309    0.6026 C   0  0  0  0  0  0  0  0  0  0  0  0
    5.1155    2.3086    1.1026 C   0  0  0  0  0  0  0  0  0  0  0  0
    2.4369    2.4739    0.3542 C   0  0  0  0  0  0  0  0  0  0  0  0
    4.3942    1.1464    0.8609 C   0  0  0  0  0  0  0  0  0  0  0  0
    5.3358    4.8367    1.2015 C   0  0  0  0  0  0  0  0  0  0  0  0
    6.0645    5.3122   -0.0665 C   0  0  0  0  0  0  0  0  0  0  0  0
    4.5266    3.5780    0.9782 C   0  0  0  0  0  0  0  0  0  0  0  0
    3.0460    1.2215    0.4821 C   0  0  0  0  0  0  0  0  0  0  0  0
    6.8832    6.4937    0.2272 N   0  0  0  0  0  0  0  0  0  0  0  0
    2.4209    0.0238    0.2691 O   0  0  0  0  0  0  0  0  0  0  0  0
    0.7657   -1.0039   -0.2368 H   0  0  0  0  0  0  0  0  0  0  0  0
    0.9106    0.5703   -1.0669 H   0  0  0  0  0  0  0  0  0  0  0  0
    0.4249    0.5059    0.6534 H   0  0  0  0  0  0  0  0  0  0  0  0
    2.6930    4.5982    0.5042 H   0  0  0  0  0  0  0  0  0  0  0  0
    6.1591    2.2317    1.4005 H   0  0  0  0  0  0  0  0  0  0  0  0
    1.3944    2.5625    0.0698 H   0  0  0  0  0  0  0  0  0  0  0  0
    4.8509    0.1667    0.9629 H   0  0  0  0  0  0  0  0  0  0  0  0
    4.6778    5.6433    1.5547 H   0  0  0  0  0  0  0  0  0  0  0  0
    6.0872    4.6810    1.9845 H   0  0  0  0  0  0  0  0  0  0  0  0
    5.3199    5.4624   -0.8697 H   0  0  0  0  0  0  0  0  0  0  0  0
    6.7354    4.5155   -0.4110 H   0  0  0  0  0  0  0  0  0  0  0  0
    6.2752    7.2817    0.4496 H   0  0  0  0  0  0  0  0  0  0  0  0
    7.4016    6.7689   -0.6057 H   0  0  0  0  0  0  0  0  0  0  0  0
  1 11  1  0  0  0  0
  1 14  1  0  0  0  0
  2  8  2  0  0  0  0
  3 16  1  0  0  0  0
  4  9  2  0  0  0  0
  4  2  1  0  0  0  0
  5 18  1  0  0  0  0
  5  3  2  0  0  0  0
  6 19  1  0  0  0  0
  6 20  1  0  0  0  0
  7 10  1  0  0  0  0
  7  6  1  0  0  0  0
  8  3  1  0  0  0  0
  8  6  1  0  0  0  0
  9  5  1  0  0  0  0
 10 23  1  0  0  0  0
 11  9  1  0  0  0  0
 12  1  1  0  0  0  0
 13  1  1  0  0  0  0
 15  2  1  0  0  0  0
 17  4  1  0  0  0  0
 21  7  1  0  0  0  0
 22  7  1  0  0  0  0
 24 10  1  0  0  0  0
M  END
>  <HBA>
2

>  <HBD>
1

>  <TPSA>
35.25

>  <cid>
4657

>  <dipole>
2.44

>  <excitation_energy_1>
4.937

>  <excitation_energy_2>
5.277

>  <excitation_energy_3>
5.504

>  <excitation_energy_4>
5.589

>  <homo_energy>
-5.687

>  <homo_lumo_gap>
5.81

>  <logP>
1.897

>  <lumo_energy>
0.122

>  <melting_point>
66.84

>  <molecular_refractivity>
45.41

>  <oscillator_strength_1>
0.0322

>  <oscillator_strength_2>
0.0088

>  <oscillator_strength_3>
0.0119

>  <oscillator_strength_4>
0.1047

>  <open_babel_can_smiles>
NCCc1ccc(cc1)OC

>  <mulliken_charges>
24
1   -0.213034
2   -0.193268
3   -0.18665
4   -0.193933
5   -0.171246
6   -0.341194
7   -0.128681
8   0.16952
9   0.371833
10   -0.71477
11   -0.508021
12   0.168026
13   0.149818
14   0.150246
15   0.119434
16   0.126514
17   0.127888
18   0.135538
19   0.130906
20   0.155675
21   0.115815
22   0.143095
23   0.290785
24   0.295705

>  <lowdin_charges>
24
1   -0.276826
2   -0.159126
3   -0.154381
4   -0.21233
5   -0.18142
6   -0.277301
7   -0.205132
8   -0.020663
9   0.097254
10   -0.560775
11   -0.201584
12   0.160716
13   0.143587
14   0.14535
15   0.152738
16   0.155151
17   0.159132
18   0.165132
19   0.143656
20   0.156839
21   0.119091
22   0.144731
23   0.251021
24   0.25514

$$$$

