PCCDB-ID:  5142
public computational chemistry database (PCCDB) project, http://pccdb.org

 11 10  0  0  0  0  0  0  0  0999 V2000
    2.6025   -1.6213   -0.4463 C   0  0  0  0  0  0  0  0  0  0  0  0
    3.9323    0.4676   -1.6966 C   0  0  0  0  0  0  0  0  0  0  0  0
    2.9787    0.2842   -2.5243 N   0  0  0  0  0  0  0  0  0  0  0  0
    4.9747    1.3836   -1.7745 N   0  0  0  0  0  0  0  0  0  0  0  0
    4.0947   -0.5916   -0.2540 S   0  0  0  0  0  0  0  0  0  0  0  0
    2.6134   -2.3276    0.3878 H   0  0  0  0  0  0  0  0  0  0  0  0
    2.6363   -2.1538   -1.3972 H   0  0  0  0  0  0  0  0  0  0  0  0
    1.7047   -1.0029   -0.4091 H   0  0  0  0  0  0  0  0  0  0  0  0
    3.0168    0.9590   -3.2945 H   0  0  0  0  0  0  0  0  0  0  0  0
    4.8082    2.1739   -2.3862 H   0  0  0  0  0  0  0  0  0  0  0  0
    5.4132    1.6489   -0.9007 H   0  0  0  0  0  0  0  0  0  0  0  0
  1  8  1  0  0  0  0
  1  5  1  0  0  0  0
  1  6  1  0  0  0  0
  2  5  1  0  0  0  0
  3  2  1  0  0  0  0
  4  2  2  0  0  0  0
  4 11  1  0  0  0  0
  7  1  1  0  0  0  0
  9  3  1  0  0  0  0
 10  4  1  0  0  0  0
M  RAD  1   3   2
M  END
>  <HBA>
3

>  <HBD>
2

>  <TPSA>
75.17

>  <cid>
5142

>  <dipole>
2.09

>  <excitation_energy_1>
5.263

>  <excitation_energy_2>
5.424

>  <excitation_energy_3>
5.855

>  <excitation_energy_4>
6.138

>  <homo_energy>
-6.218

>  <homo_lumo_gap>
6.931

>  <logP>
1.043

>  <lumo_energy>
0.713

>  <melting_point>
70.61

>  <molecular_refractivity>
25.62

>  <oscillator_strength_1>
0.0051

>  <oscillator_strength_2>
0.0017

>  <oscillator_strength_3>
0.0013

>  <oscillator_strength_4>
0.0755

>  <open_babel_can_smiles>
CSC(=[NH2])[NH]

>  <mulliken_charges>
11
1   -0.565811
2   0.279625
3   -0.604848
4   -0.726708
5   0.104445
6   0.17309
7   0.205754
8   0.197771
9   0.273626
10   0.324582
11   0.338474

>  <lowdin_charges>
11
1   -0.530183
2   -0.007706
3   -0.448862
4   -0.492005
5   0.129209
6   0.17264
7   0.180634
8   0.176815
9   0.251448
10   0.279953
11   0.288058

$$$$

