PCCDB-ID:  847
public computational chemistry database (PCCDB) project, http://pccdb.org

 21 20  0  0  1  0  0  0  0  0999 V2000
    4.1454    0.7095    1.3824 C   0  0  0  0  0  0  0  0  0  0  0  0
    3.9199    2.5268   -1.4027 C   0  0  0  0  0  0  0  0  0  0  0  0
    3.8033    3.1021    0.0074 C   0  0  0  0  0  0  0  0  0  0  0  0
    4.3276    3.5586   -2.4691 C   0  0  1  0  0  0  0  0  0  0  0  0
    5.7920    4.0313   -2.3101 C   0  0  0  0  0  0  0  0  0  0  0  0
    4.1384    3.1133   -3.8641 N   0  0  0  0  0  0  0  0  0  0  0  0
    6.3461    4.1460   -1.2399 O   0  0  0  0  0  0  0  0  0  0  0  0
    6.3851    4.3338   -3.4726 O   0  0  0  0  0  0  0  0  0  0  0  0
    1.7404    1.3554    0.3077 O   0  0  0  0  0  0  0  0  0  0  0  0
    2.8434    1.9837    1.1393 S   0  0  1  0  0  0  0  0  0  0  0  0
    5.0033    1.1564    1.8938 H   0  0  0  0  0  0  0  0  0  0  0  0
    4.4452    0.2782    0.4239 H   0  0  0  0  0  0  0  0  0  0  0  0
    3.7051   -0.0705    2.0082 H   0  0  0  0  0  0  0  0  0  0  0  0
    2.9415    2.1101   -1.6735 H   0  0  0  0  0  0  0  0  0  0  0  0
    4.6405    1.6991   -1.4182 H   0  0  0  0  0  0  0  0  0  0  0  0
    3.2200    4.0304   -0.0057 H   0  0  0  0  0  0  0  0  0  0  0  0
    4.7720    3.3191    0.4617 H   0  0  0  0  0  0  0  0  0  0  0  0
    3.7128    4.4610   -2.3445 H   0  0  0  0  0  0  0  0  0  0  0  0
    4.3817    2.1270   -3.9565 H   0  0  0  0  0  0  0  0  0  0  0  0
    3.1645    3.2013   -4.1452 H   0  0  0  0  0  0  0  0  0  0  0  0
    5.7204    4.0924   -4.1669 H   0  0  0  0  0  0  0  0  0  0  0  0
  1 11  1  0  0  0  0
  1 13  1  0  0  0  0
  2  3  1  0  0  0  0
  3 17  1  0  0  0  0
  3 10  1  0  0  0  0
  4 18  1  1  0  0  0
  4  5  1  0  0  0  0
  4  2  1  0  0  0  0
  5  7  2  0  0  0  0
  6  4  1  0  0  0  0
  8  5  1  0  0  0  0
 10  9  2  6  0  0  0
 10  1  1  0  0  0  0
 12  1  1  0  0  0  0
 14  2  1  0  0  0  0
 15  2  1  0  0  0  0
 16  3  1  0  0  0  0
 19  6  1  0  0  0  0
 20  6  1  0  0  0  0
 21  8  1  0  0  0  0
M  END
>  <HBA>
4

>  <HBD>
2

>  <TPSA>
99.6

>  <cid>
847

>  <dipole>
1.97

>  <excitation_energy_1>
5.032

>  <excitation_energy_2>
5.445

>  <excitation_energy_3>
5.596

>  <excitation_energy_4>
5.705

>  <homo_energy>
-6.104

>  <homo_lumo_gap>
6.191

>  <logP>
0.733

>  <lumo_energy>
0.087

>  <melting_point>
124.81

>  <molecular_refractivity>
38.91

>  <oscillator_strength_1>
0.0063

>  <oscillator_strength_2>
0.0007

>  <oscillator_strength_3>
0.0417

>  <oscillator_strength_4>
0.0064

>  <open_babel_can_smiles>
C[S@](=O)CC[C@@H](C(=O)O)N

>  <mulliken_charges>
21
1   -0.635716
2   -0.271605
3   -0.483492
4   -0.094939
5   0.611725
6   -0.768068
7   -0.465419
8   -0.575266
9   -0.644757
10   0.767526
11   0.18251
12   0.193498
13   0.198525
14   0.182614
15   0.146654
16   0.176332
17   0.212267
18   0.178716
19   0.324645
20   0.330062
21   0.434188

>  <lowdin_charges>
21
1   -0.600587
2   -0.289245
3   -0.427479
4   -0.10848
5   0.1767
6   -0.538832
7   -0.260288
8   -0.351429
9   -0.682908
10   0.803496
11   0.178723
12   0.173628
13   0.184526
14   0.166917
15   0.150007
16   0.167156
17   0.187322
18   0.167412
19   0.267697
20   0.273943
21   0.361718

$$$$

