PCCDB-ID:  5385
public computational chemistry database (PCCDB) project, http://pccdb.org

 21 20  0  0  0  0  0  0  0  0999 V2000
    0.8191    0.5333    0.3900 C   0  0  0  0  0  0  0  0  0  0  0  0
    2.1827   -1.1118    1.7238 C   0  0  0  0  0  0  0  0  0  0  0  0
    1.6282   -1.7013   -2.3902 C   0  0  0  0  0  0  0  0  0  0  0  0
    4.2985    0.8965    1.5229 C   0  0  0  0  0  0  0  0  0  0  0  0
    2.8011   -0.6045   -0.6967 C   0  0  0  0  0  0  0  0  0  0  0  0
    2.2181   -0.0399    0.6275 C   0  0  0  0  0  0  0  0  0  0  0  0
    2.0374   -1.7383   -1.1910 N   0  0  0  0  0  0  0  0  0  0  0  0
    2.9994    1.1090    1.0060 O   0  0  0  0  0  0  0  0  0  0  0  0
    0.1348   -0.2438    0.0370 H   0  0  0  0  0  0  0  0  0  0  0  0
    0.8597    1.3334   -0.3570 H   0  0  0  0  0  0  0  0  0  0  0  0
    0.4254    0.9562    1.3197 H   0  0  0  0  0  0  0  0  0  0  0  0
    1.5153   -1.9240    1.4251 H   0  0  0  0  0  0  0  0  0  0  0  0
    1.8210   -0.6802    2.6639 H   0  0  0  0  0  0  0  0  0  0  0  0
    3.1705   -1.5508    1.9014 H   0  0  0  0  0  0  0  0  0  0  0  0
    1.0538   -2.5414   -2.7865 H   0  0  0  0  0  0  0  0  0  0  0  0
    1.8184   -0.8621   -3.0775 H   0  0  0  0  0  0  0  0  0  0  0  0
    4.7372    1.8900    1.6520 H   0  0  0  0  0  0  0  0  0  0  0  0
    4.9459    0.3217    0.8440 H   0  0  0  0  0  0  0  0  0  0  0  0
    4.2868    0.3925    2.4995 H   0  0  0  0  0  0  0  0  0  0  0  0
    3.8188   -0.9682   -0.5043 H   0  0  0  0  0  0  0  0  0  0  0  0
    2.8688    0.2195   -1.4275 H   0  0  0  0  0  0  0  0  0  0  0  0
  1  6  1  0  0  0  0
  1 11  1  0  0  0  0
  2 14  1  0  0  0  0
  2 13  1  0  0  0  0
  3  7  2  0  0  0  0
  4 17  1  0  0  0  0
  4 19  1  0  0  0  0
  5 20  1  0  0  0  0
  5  6  1  0  0  0  0
  6  8  1  0  0  0  0
  6  2  1  0  0  0  0
  7  5  1  0  0  0  0
  8  4  1  0  0  0  0
  9  1  1  0  0  0  0
 10  1  1  0  0  0  0
 12  2  1  0  0  0  0
 15  3  1  0  0  0  0
 16  3  1  0  0  0  0
 18  4  1  0  0  0  0
 21  5  1  0  0  0  0
M  END
>  <HBA>
2

>  <HBD>
0

>  <TPSA>
21.59

>  <cid>
5385

>  <dipole>
0.92

>  <excitation_energy_1>
4.904

>  <excitation_energy_2>
5.552

>  <excitation_energy_3>
6.354

>  <excitation_energy_4>
6.63

>  <homo_energy>
-6.694

>  <homo_lumo_gap>
6.482

>  <logP>
1.112

>  <lumo_energy>
-0.212

>  <melting_point>
-6.63

>  <molecular_refractivity>
35.76

>  <oscillator_strength_1>
0.0008

>  <oscillator_strength_2>
0.059

>  <oscillator_strength_3>
0.0003

>  <oscillator_strength_4>
0.0196

>  <open_babel_can_smiles>
COC(CN=C)(C)C

>  <mulliken_charges>
21
1   -0.452654
2   -0.468125
3   -0.128237
4   -0.200345
5   -0.168291
6   0.323201
7   -0.2899
8   -0.491717
9   0.150561
10   0.147173
11   0.15088
12   0.170529
13   0.146909
14   0.139991
15   0.148976
16   0.125098
17   0.156605
18   0.128036
19   0.136717
20   0.148253
21   0.12634

>  <lowdin_charges>
21
1   -0.448796
2   -0.458419
3   -0.222943
4   -0.28348
5   -0.221043
6   0.124752
7   -0.145517
8   -0.273664
9   0.157087
10   0.154401
11   0.156529
12   0.168972
13   0.153362
14   0.149268
15   0.155928
16   0.129733
17   0.154751
18   0.131058
19   0.134202
20   0.151386
21   0.132435

$$$$

