PCCDB-ID:  989
public computational chemistry database (PCCDB) project, http://pccdb.org

 19 19  0  0  1  0  0  0  0  0999 V2000
    1.0871    0.1319   -0.4045 C   0  0  0  0  0  0  0  0  0  0  0  0
    2.6104    0.2326    1.6103 C   0  0  0  0  0  0  0  0  0  0  0  0
    3.3996    1.1471   -0.6414 C   0  0  0  0  0  0  0  0  0  0  0  0
    3.2547   -1.1828   -0.4376 C   0  0  1  0  0  0  0  0  0  0  0  0
    3.6337   -0.7745   -1.8575 C   0  0  0  0  0  0  0  0  0  0  0  0
    2.5435    0.0835    0.0877 C   0  0  0  0  0  0  0  0  0  0  0  0
    2.4960   -2.3635   -0.4205 O   0  0  0  0  0  0  0  0  0  0  0  0
    3.7777   -1.5228   -2.7936 O   0  0  0  0  0  0  0  0  0  0  0  0
    3.7595    0.5690   -1.9261 O   0  0  0  0  0  0  0  0  0  0  0  0
    0.5972    1.0462   -0.0505 H   0  0  0  0  0  0  0  0  0  0  0  0
    0.5301   -0.7312   -0.0317 H   0  0  0  0  0  0  0  0  0  0  0  0
    1.0269    0.1194   -1.4989 H   0  0  0  0  0  0  0  0  0  0  0  0
    2.1831    1.1899    1.9324 H   0  0  0  0  0  0  0  0  0  0  0  0
    3.6439    0.1826    1.9738 H   0  0  0  0  0  0  0  0  0  0  0  0
    2.0425   -0.5672    2.0973 H   0  0  0  0  0  0  0  0  0  0  0  0
    4.3249    1.3765   -0.0993 H   0  0  0  0  0  0  0  0  0  0  0  0
    2.8639    2.0769   -0.8456 H   0  0  0  0  0  0  0  0  0  0  0  0
    4.1977   -1.3170    0.1255 H   0  0  0  0  0  0  0  0  0  0  0  0
    2.7010   -2.8242   -1.2555 H   0  0  0  0  0  0  0  0  0  0  0  0
  1 10  1  0  0  0  0
  1 11  1  0  0  0  0
  1  6  1  0  0  0  0
  2 13  1  0  0  0  0
  2 14  1  0  0  0  0
  2 15  1  0  0  0  0
  3 16  1  0  0  0  0
  3  6  1  0  0  0  0
  4  7  1  0  0  0  0
  4  6  1  0  0  0  0
  4 18  1  1  0  0  0
  5  4  1  0  0  0  0
  6  2  1  0  0  0  0
  8  5  2  0  0  0  0
  9  5  1  0  0  0  0
  9  3  1  0  0  0  0
 12  1  1  0  0  0  0
 17  3  1  0  0  0  0
 19  7  1  0  0  0  0
M  END
>  <HBA>
3

>  <HBD>
1

>  <TPSA>
46.53

>  <cid>
989

>  <dipole>
3.4

>  <excitation_energy_1>
5.7

>  <excitation_energy_2>
6.48

>  <excitation_energy_3>
7.039

>  <excitation_energy_4>
7.305

>  <homo_energy>
-7.491

>  <homo_lumo_gap>
7.461

>  <logP>
-0.07

>  <lumo_energy>
-0.03

>  <melting_point>
45.76

>  <molecular_refractivity>
31.03

>  <oscillator_strength_1>
0.0005

>  <oscillator_strength_2>
0.0066

>  <oscillator_strength_3>
0.0069

>  <oscillator_strength_4>
0.0098

>  <open_babel_can_smiles>
O[C@H]1C(=O)OCC1(C)C

>  <mulliken_charges>
19
1   -0.460045
2   -0.465746
3   -0.04797
4   0.071228
5   0.595119
6   0.030597
7   -0.631583
8   -0.473511
9   -0.446653
10   0.143732
11   0.178145
12   0.157614
13   0.148551
14   0.144676
15   0.171118
16   0.156422
17   0.168218
18   0.149162
19   0.410927

>  <lowdin_charges>
19
1   -0.444903
2   -0.442556
3   -0.128091
4   -0.040774
5   0.173786
6   -0.011994
7   -0.443729
8   -0.242793
9   -0.178639
10   0.151551
11   0.168915
12   0.154784
13   0.152902
14   0.149022
15   0.166013
16   0.150185
17   0.161994
18   0.148381
19   0.355947

$$$$

