PCCDB-ID:  4377
public computational chemistry database (PCCDB) project, http://pccdb.org

 16 15  0  0  1  0  0  0  0  0999 V2000
    1.0231   -0.1336    0.2237 C   0  0  0  0  0  0  0  0  0  0  0  0
    3.9999    2.1152    0.9102 C   0  0  0  0  0  0  0  0  0  0  0  0
    2.2686    0.6819   -0.1363 C   0  0  1  0  0  0  0  0  0  0  0  0
    2.1269    1.5392   -1.4094 C   0  0  0  0  0  0  0  0  0  0  0  0
    2.6733    1.5012    1.0127 N   0  0  0  0  0  0  0  0  0  0  0  0
    3.0439    1.7640   -2.1610 O   0  0  0  0  0  0  0  0  0  0  0  0
    0.9242    2.1548   -1.6070 O   0  0  0  0  0  0  0  0  0  0  0  0
    0.6782   -0.7402   -0.6208 H   0  0  0  0  0  0  0  0  0  0  0  0
    0.1897    0.5058    0.5518 H   0  0  0  0  0  0  0  0  0  0  0  0
    1.2537   -0.7942    1.0634 H   0  0  0  0  0  0  0  0  0  0  0  0
    4.1805    2.7018    1.8165 H   0  0  0  0  0  0  0  0  0  0  0  0
    4.1435    2.7631    0.0324 H   0  0  0  0  0  0  0  0  0  0  0  0
    4.7545    1.3222    0.8670 H   0  0  0  0  0  0  0  0  0  0  0  0
    3.0963   -0.0022   -0.3494 H   0  0  0  0  0  0  0  0  0  0  0  0
    1.9731    2.2234    1.1788 H   0  0  0  0  0  0  0  0  0  0  0  0
    0.2710    1.8242   -0.9685 H   0  0  0  0  0  0  0  0  0  0  0  0
  1  9  1  0  0  0  0
  1 10  1  0  0  0  0
  2  5  1  0  0  0  0
  2 11  1  0  0  0  0
  3 14  1  6  0  0  0
  3  1  1  0  0  0  0
  3  5  1  0  0  0  0
  4  3  1  0  0  0  0
  5 15  1  0  0  0  0
  6  4  2  0  0  0  0
  7  4  1  0  0  0  0
  7 16  1  0  0  0  0
  8  1  1  0  0  0  0
 12  2  1  0  0  0  0
 13  2  1  0  0  0  0
M  END
>  <HBA>
3

>  <HBD>
2

>  <TPSA>
49.33

>  <cid>
4377

>  <dipole>
3.59

>  <excitation_energy_1>
5.023

>  <excitation_energy_2>
5.301

>  <excitation_energy_3>
6.109

>  <excitation_energy_4>
6.142

>  <homo_energy>
-6.221

>  <homo_lumo_gap>
6.397

>  <logP>
0.07

>  <lumo_energy>
0.177

>  <melting_point>
79.1

>  <molecular_refractivity>
25.92

>  <oscillator_strength_1>
0.0249

>  <oscillator_strength_2>
0.0065

>  <oscillator_strength_3>
0.0145

>  <oscillator_strength_4>
0.0057

>  <open_babel_can_smiles>
C[C@@H](C(=O)O)NC

>  <mulliken_charges>
16
1   -0.477126
2   -0.313583
3   -0.055941
4   0.580261
5   -0.532593
6   -0.445407
7   -0.573668
8   0.165484
9   0.130271
10   0.182039
11   0.151283
12   0.159923
13   0.159179
14   0.16992
15   0.290818
16   0.409141

>  <lowdin_charges>
16
1   -0.457876
2   -0.364715
3   -0.097721
4   0.174596
5   -0.348731
6   -0.241819
7   -0.367022
8   0.16106
9   0.141654
10   0.174474
11   0.153707
12   0.143007
13   0.154592
14   0.166853
15   0.25181
16   0.356131

$$$$

