PCCDB-ID:  835
public computational chemistry database (PCCDB) project, http://pccdb.org

 18 18  0  0  1  0  0  0  0  0999 V2000
    1.1866    0.0952    0.0066 C   0  0  0  0  0  0  0  0  0  0  0  0
    0.7196   -0.9671    0.9999 C   0  0  1  0  0  0  0  0  0  0  0  0
    0.5330   -1.7133    3.3766 C   0  0  0  0  0  0  0  0  0  0  0  0
   -0.5468   -0.8927    4.0935 C   0  0  0  0  0  0  0  0  0  0  0  0
    1.2193   -0.7304    2.4264 C   0  0  2  0  0  0  0  0  0  0  0  0
   -0.2922    0.5638    3.6805 C   0  0  0  0  0  0  0  0  0  0  0  0
    0.4777   -0.1898   -1.1998 O   0  0  0  0  0  0  0  0  0  0  0  0
   -0.6953   -0.9687    1.0870 O   0  0  0  0  0  0  0  0  0  0  0  0
    0.7844   -2.8836    3.5155 O   0  0  0  0  0  0  0  0  0  0  0  0
   -1.4029   -1.2886    4.8398 O   0  0  0  0  0  0  0  0  0  0  0  0
   -0.8729    1.5501    4.0336 O   0  0  0  0  0  0  0  0  0  0  0  0
    0.8196    0.5882    2.8822 O   0  0  0  0  0  0  0  0  0  0  0  0
    2.2750    0.0324   -0.1402 H   0  0  0  0  0  0  0  0  0  0  0  0
    0.9351    1.0898    0.3941 H   0  0  0  0  0  0  0  0  0  0  0  0
    1.0936   -1.9530    0.6795 H   0  0  0  0  0  0  0  0  0  0  0  0
    2.3094   -0.7930    2.4878 H   0  0  0  0  0  0  0  0  0  0  0  0
    0.4971    0.5968   -1.7643 H   0  0  0  0  0  0  0  0  0  0  0  0
   -1.0197   -0.8413    0.1773 H   0  0  0  0  0  0  0  0  0  0  0  0
  1 14  1  0  0  0  0
  1  2  1  0  0  0  0
  2 15  1  6  0  0  0
  2  8  1  0  0  0  0
  2  5  1  0  0  0  0
  3  9  2  0  0  0  0
  3  4  1  0  0  0  0
  4 10  2  0  0  0  0
  5 16  1  1  0  0  0
  5 12  1  0  0  0  0
  5  3  1  0  0  0  0
  6 11  2  0  0  0  0
  6  4  1  0  0  0  0
  7  1  1  0  0  0  0
 12  6  1  0  0  0  0
 13  1  1  0  0  0  0
 17  7  1  0  0  0  0
 18  8  1  0  0  0  0
M  END
>  <HBA>
6

>  <HBD>
2

>  <TPSA>
100.9

>  <cid>
835

>  <dipole>
5.97

>  <excitation_energy_1>
1.787

>  <excitation_energy_2>
3.62

>  <excitation_energy_3>
3.695

>  <excitation_energy_4>
4.155

>  <homo_energy>
-6.882

>  <homo_lumo_gap>
3.246

>  <logP>
-2.597

>  <lumo_energy>
-3.635

>  <melting_point>
88.47

>  <molecular_refractivity>
32.85

>  <oscillator_strength_1>
0.0001

>  <oscillator_strength_2>
0.0001

>  <oscillator_strength_3>
0.0023

>  <oscillator_strength_4>
0.0004

>  <open_babel_can_smiles>
OC[C@@H]([C@H]1OC(=O)C(=O)C1=O)O

>  <mulliken_charges>
18
1   -0.062227
2   0.154077
3   0.426773
4   0.352084
5   -0.018123
6   0.595028
7   -0.631639
8   -0.656522
9   -0.402244
10   -0.370505
11   -0.414776
12   -0.465482
13   0.137645
14   0.166137
15   0.160708
16   0.191179
17   0.412328
18   0.425558

>  <lowdin_charges>
18
1   -0.150588
2   -0.011792
3   0.12876
4   0.105614
5   -0.032587
6   0.166926
7   -0.468921
8   -0.459915
9   -0.14597
10   -0.107115
11   -0.178261
12   -0.182169
13   0.138935
14   0.151162
15   0.152262
16   0.176409
17   0.35849
18   0.358761

$$$$

