PCCDB-ID:  3051
public computational chemistry database (PCCDB) project, http://pccdb.org

 21 20  0  0  0  0  0  0  0  0999 V2000
    2.3572    1.8106   -0.0020 C   0  0  0  0  0  0  0  0  0  0  0  0
    7.6001   -2.8308   -4.7129 C   0  0  0  0  0  0  0  0  0  0  0  0
    2.6975    0.3413    0.1853 C   0  0  0  0  0  0  0  0  0  0  0  0
    7.6960   -1.3447   -4.4093 C   0  0  0  0  0  0  0  0  0  0  0  0
    4.5800   -0.0264   -1.1858 C   0  0  0  0  0  0  0  0  0  0  0  0
    6.1790   -0.9856   -2.6403 C   0  0  0  0  0  0  0  0  0  0  0  0
    5.3423    0.5279   -0.4410 O   0  0  0  0  0  0  0  0  0  0  0  0
    6.8907   -1.4824   -1.8099 O   0  0  0  0  0  0  0  0  0  0  0  0
    3.2729   -0.2264   -1.0223 O   0  0  0  0  0  0  0  0  0  0  0  0
    6.4263   -0.8177   -3.9386 O   0  0  0  0  0  0  0  0  0  0  0  0
    4.8963   -0.5298   -2.4282 O   0  0  0  0  0  0  0  0  0  0  0  0
    1.8597    2.1901    0.8976 H   0  0  0  0  0  0  0  0  0  0  0  0
    1.6832    1.9494   -0.8533 H   0  0  0  0  0  0  0  0  0  0  0  0
    3.2635    2.4006   -0.1657 H   0  0  0  0  0  0  0  0  0  0  0  0
    8.5454   -3.1796   -5.1437 H   0  0  0  0  0  0  0  0  0  0  0  0
    6.7992   -3.0306   -5.4319 H   0  0  0  0  0  0  0  0  0  0  0  0
    7.4093   -3.4018   -3.7998 H   0  0  0  0  0  0  0  0  0  0  0  0
    1.8039   -0.2630    0.3546 H   0  0  0  0  0  0  0  0  0  0  0  0
    3.3995    0.1921    1.0089 H   0  0  0  0  0  0  0  0  0  0  0  0
    7.9013   -0.7601   -5.3085 H   0  0  0  0  0  0  0  0  0  0  0  0
    8.4598   -1.1357   -3.6567 H   0  0  0  0  0  0  0  0  0  0  0  0
  1  3  1  0  0  0  0
  1 12  1  0  0  0  0
  2  4  1  0  0  0  0
  2 17  1  0  0  0  0
  3 18  1  0  0  0  0
  3 19  1  0  0  0  0
  4 10  1  0  0  0  0
  4 21  1  0  0  0  0
  5  9  1  0  0  0  0
  5  7  2  0  0  0  0
  6 11  1  0  0  0  0
  6  8  2  0  0  0  0
  9  3  1  0  0  0  0
 10  6  1  0  0  0  0
 11  5  1  0  0  0  0
 13  1  1  0  0  0  0
 14  1  1  0  0  0  0
 15  2  1  0  0  0  0
 16  2  1  0  0  0  0
 20  4  1  0  0  0  0
M  END
>  <HBA>
5

>  <HBD>
0

>  <TPSA>
61.83

>  <cid>
3051

>  <dipole>
1.62

>  <excitation_energy_1>
6.394

>  <excitation_energy_2>
6.549

>  <excitation_energy_3>
7.667

>  <excitation_energy_4>
7.722

>  <homo_energy>
-7.954

>  <homo_lumo_gap>
8.052

>  <logP>
1.316

>  <lumo_energy>
0.098

>  <melting_point>
10.04

>  <molecular_refractivity>
35.39

>  <oscillator_strength_1>
0.0098

>  <oscillator_strength_2>
0.0

>  <oscillator_strength_3>
0.005

>  <oscillator_strength_4>
0.0094

>  <open_babel_can_smiles>
CCOC(=O)OC(=O)OCC

>  <mulliken_charges>
21
1   -0.465535
2   -0.465501
3   -0.050469
4   -0.050536
5   0.789413
6   0.788883
7   -0.443294
8   -0.442592
9   -0.438823
10   -0.438243
11   -0.473103
12   0.156525
13   0.164816
14   0.179772
15   0.156477
16   0.164892
17   0.17982
18   0.16423
19   0.179499
20   0.164255
21   0.179514

>  <lowdin_charges>
21
1   -0.456599
2   -0.456373
3   -0.122834
4   -0.122719
5   0.252096
6   0.252425
7   -0.245754
8   -0.245115
9   -0.167831
10   -0.167848
11   -0.148597
12   0.163267
13   0.160607
14   0.167761
15   0.162862
16   0.160865
17   0.167748
18   0.159139
19   0.163775
20   0.159136
21   0.163988

$$$$

