PCCDB-ID:  654
public computational chemistry database (PCCDB) project, http://pccdb.org

 20 19  0  0  0  0  0  0  0  0999 V2000
    1.5959   -2.3536   -2.1531 C   0  0  0  0  0  0  0  0  0  0  0  0
    7.9882   -1.9127   -2.1312 C   0  0  0  0  0  0  0  0  0  0  0  0
    2.2982   -1.6414   -1.0129 C   0  0  0  0  0  0  0  0  0  0  0  0
    6.6120   -2.1109   -1.5265 C   0  0  0  0  0  0  0  0  0  0  0  0
    4.4813    0.8938   -0.3528 O   0  0  0  0  0  0  0  0  0  0  0  0
    4.6457   -1.3338    0.9415 O   0  0  0  0  0  0  0  0  0  0  0  0
    3.6268   -1.2739   -1.4676 O   0  0  0  0  0  0  0  0  0  0  0  0
    6.0527   -0.8013   -1.2448 O   0  0  0  0  0  0  0  0  0  0  0  0
    4.6929   -0.7055   -0.3924 P   0  0  0  0  0  0  0  0  0  0  0  0
    0.5844   -2.6413   -1.8458 H   0  0  0  0  0  0  0  0  0  0  0  0
    2.1409   -3.2589   -2.4391 H   0  0  0  0  0  0  0  0  0  0  0  0
    1.5196   -1.7034   -3.0306 H   0  0  0  0  0  0  0  0  0  0  0  0
    8.4281   -2.8857   -2.3769 H   0  0  0  0  0  0  0  0  0  0  0  0
    8.6506   -1.3998   -1.4271 H   0  0  0  0  0  0  0  0  0  0  0  0
    7.9292   -1.3188   -3.0488 H   0  0  0  0  0  0  0  0  0  0  0  0
    2.3950   -2.2781   -0.1286 H   0  0  0  0  0  0  0  0  0  0  0  0
    1.7618   -0.7293   -0.7253 H   0  0  0  0  0  0  0  0  0  0  0  0
    6.6644   -2.6776   -0.5909 H   0  0  0  0  0  0  0  0  0  0  0  0
    5.9397   -2.6320   -2.2169 H   0  0  0  0  0  0  0  0  0  0  0  0
    4.6846    1.3048   -1.2094 H   0  0  0  0  0  0  0  0  0  0  0  0
  1 10  1  0  0  0  0
  1  3  1  0  0  0  0
  2  4  1  0  0  0  0
  2 14  1  0  0  0  0
  3 17  1  0  0  0  0
  3 16  1  0  0  0  0
  4  8  1  0  0  0  0
  4 18  1  0  0  0  0
  7  3  1  0  0  0  0
  7  9  1  0  0  0  0
  8  9  1  0  0  0  0
  9  5  1  0  0  0  0
  9  6  2  0  0  0  0
 11  1  1  0  0  0  0
 12  1  1  0  0  0  0
 13  2  1  0  0  0  0
 15  2  1  0  0  0  0
 19  4  1  0  0  0  0
 20  5  1  0  0  0  0
M  END
>  <HBA>
4

>  <HBD>
1

>  <TPSA>
65.57

>  <cid>
654

>  <dipole>
3.93

>  <excitation_energy_1>
6.874

>  <excitation_energy_2>
7.075

>  <excitation_energy_3>
7.565

>  <excitation_energy_4>
7.641

>  <homo_energy>
-7.709

>  <homo_lumo_gap>
8.89

>  <logP>
1.16

>  <lumo_energy>
1.181

>  <melting_point>
10.09

>  <molecular_refractivity>
33.34

>  <oscillator_strength_1>
0.0073

>  <oscillator_strength_2>
0.0137

>  <oscillator_strength_3>
0.0237

>  <oscillator_strength_4>
0.0054

>  <open_babel_can_smiles>
CCOP(=O)(OCC)O

>  <mulliken_charges>
20
1   -0.45483
2   -0.456597
3   -0.041366
4   -0.038959
5   -0.627502
6   -0.554001
7   -0.538346
8   -0.527187
9   1.178241
10   0.153562
11   0.161754
12   0.160661
13   0.152764
14   0.169327
15   0.16164
16   0.177612
17   0.155737
18   0.173414
19   0.159572
20   0.434503

>  <lowdin_charges>
20
1   -0.447787
2   -0.44815
3   -0.116321
4   -0.117923
5   -0.559912
6   -0.578362
7   -0.411236
8   -0.403154
9   1.116462
10   0.159583
11   0.159264
12   0.158674
13   0.15987
14   0.164016
15   0.15903
16   0.162309
17   0.149412
18   0.160016
19   0.152098
20   0.382111

$$$$

