PCCDB-ID:  570
public computational chemistry database (PCCDB) project, http://pccdb.org

 26 26  0  0  0  0  0  0  0  0999 V2000
   -1.6286   -0.1124    0.0102 C   0  0  0  0  0  0  0  0  0  0  0  0
   -0.9649   -0.5929    1.1420 C   0  0  0  0  0  0  0  0  0  0  0  0
   -0.8999    0.4810   -1.0217 C   0  0  0  0  0  0  0  0  0  0  0  0
    2.9736    2.5677   -0.5351 C   0  0  0  0  0  0  0  0  0  0  0  0
    0.4179   -0.4729    1.2467 C   0  0  0  0  0  0  0  0  0  0  0  0
    0.4845    0.6062   -0.9207 C   0  0  0  0  0  0  0  0  0  0  0  0
    3.4161    1.2981   -0.0488 C   0  0  0  0  0  0  0  0  0  0  0  0
    3.7994    3.5560   -0.9737 C   0  0  0  0  0  0  0  0  0  0  0  0
    1.1585    0.1459    0.2234 C   0  0  0  0  0  0  0  0  0  0  0  0
    2.6224    0.2615    0.3572 C   0  0  0  0  0  0  0  0  0  0  0  0
    3.2499    4.8286   -1.4253 C   0  0  0  0  0  0  0  0  0  0  0  0
    4.3085    5.8483   -1.8988 C   0  0  0  0  0  0  0  0  0  0  0  0
    3.1596   -0.8292    0.9701 O   0  0  0  0  0  0  0  0  0  0  0  0
    2.0625    5.1253   -1.4551 O   0  0  0  0  0  0  0  0  0  0  0  0
    5.5046    5.6411   -1.8962 O   0  0  0  0  0  0  0  0  0  0  0  0
    3.7542    6.9993   -2.3165 O   0  0  0  0  0  0  0  0  0  0  0  0
   -2.7079   -0.2082   -0.0703 H   0  0  0  0  0  0  0  0  0  0  0  0
   -1.5265   -1.0620    1.9451 H   0  0  0  0  0  0  0  0  0  0  0  0
   -1.4068    0.8387   -1.9133 H   0  0  0  0  0  0  0  0  0  0  0  0
    1.9076    2.7833   -0.5369 H   0  0  0  0  0  0  0  0  0  0  0  0
    0.9351   -0.8474    2.1235 H   0  0  0  0  0  0  0  0  0  0  0  0
    1.0484    1.0320   -1.7436 H   0  0  0  0  0  0  0  0  0  0  0  0
    4.4947    1.1653    0.0524 H   0  0  0  0  0  0  0  0  0  0  0  0
    4.8768    3.4320   -1.0066 H   0  0  0  0  0  0  0  0  0  0  0  0
    4.1046   -0.6698    1.1333 H   0  0  0  0  0  0  0  0  0  0  0  0
    4.4971    7.5698   -2.5905 H   0  0  0  0  0  0  0  0  0  0  0  0
  1  2  2  0  0  0  0
  2  5  1  0  0  0  0
  2 18  1  0  0  0  0
  3  6  2  0  0  0  0
  3  1  1  0  0  0  0
  4  7  1  0  0  0  0
  5 21  1  0  0  0  0
  6  9  1  0  0  0  0
  7 23  1  0  0  0  0
  7 10  2  0  0  0  0
  8  4  2  0  0  0  0
  9 10  1  0  0  0  0
  9  5  2  0  0  0  0
 10 13  1  0  0  0  0
 11  8  1  0  0  0  0
 12 15  2  0  0  0  0
 12 11  1  0  0  0  0
 13 25  1  0  0  0  0
 14 11  2  0  0  0  0
 16 12  1  0  0  0  0
 17  1  1  0  0  0  0
 19  3  1  0  0  0  0
 20  4  1  0  0  0  0
 22  6  1  0  0  0  0
 24  8  1  0  0  0  0
 26 16  1  0  0  0  0
M  END
>  <HBA>
4

>  <HBD>
2

>  <TPSA>
74.6

>  <cid>
570

>  <dipole>
3.43

>  <excitation_energy_1>
2.878

>  <excitation_energy_2>
3.364

>  <excitation_energy_3>
4.087

>  <excitation_energy_4>
4.31

>  <homo_energy>
-5.91

>  <homo_lumo_gap>
3.562

>  <logP>
1.795

>  <lumo_energy>
-2.348

>  <melting_point>
136.32

>  <molecular_refractivity>
58.83

>  <oscillator_strength_1>
0.0006

>  <oscillator_strength_2>
0.5897

>  <oscillator_strength_3>
0.0033

>  <oscillator_strength_4>
0.0658

>  <open_babel_can_smiles>
O/C(=C/C=C/C(=O)C(=O)O)/c1ccccc1

>  <mulliken_charges>
26
1   -0.118508
2   -0.134143
3   -0.135785
4   -0.081137
5   -0.146665
6   -0.16985
7   -0.23019
8   -0.209945
9   0.100439
10   0.300747
11   0.358815
12   0.522983
13   -0.601566
14   -0.468408
15   -0.45983
16   -0.543646
17   0.140555
18   0.139921
19   0.144589
20   0.176926
21   0.151744
22   0.158228
23   0.121376
24   0.156752
25   0.416072
26   0.410525

>  <lowdin_charges>
26
1   -0.139404
2   -0.153284
3   -0.151851
4   -0.084195
5   -0.140815
6   -0.148213
7   -0.237553
8   -0.229311
9   -0.019392
10   0.130156
11   0.111873
12   0.164452
13   -0.347147
14   -0.233706
15   -0.257942
16   -0.324343
17   0.161224
18   0.164015
19   0.165911
20   0.177615
21   0.170629
22   0.17241
23   0.153806
24   0.170785
25   0.360254
26   0.364028

$$$$

