PCCDB-ID:  5921
public computational chemistry database (PCCDB) project, http://pccdb.org

 17 16  0  0  0  0  0  0  0  0999 V2000
    2.6405   -0.8641   -0.7686 C   0  0  0  0  0  0  0  0  0  0  0  0
    1.9411    2.8170    1.7030 C   0  0  0  0  0  0  0  0  0  0  0  0
    3.0076   -0.2762    0.5967 C   0  0  0  0  0  0  0  0  0  0  0  0
    2.3804    2.1990    0.3716 C   0  0  0  0  0  0  0  0  0  0  0  0
    4.6762    1.4104    0.6781 N   0  0  0  0  0  0  0  0  0  0  0  0
    3.3721    1.1356    0.5445 N   0  0  0  0  0  0  0  0  0  0  0  0
    4.9631    2.6063    0.6417 O   0  0  0  0  0  0  0  0  0  0  0  0
    2.3785   -1.9226   -0.6618 H   0  0  0  0  0  0  0  0  0  0  0  0
    3.4857   -0.7847   -1.4597 H   0  0  0  0  0  0  0  0  0  0  0  0
    1.7817   -0.3520   -1.2169 H   0  0  0  0  0  0  0  0  0  0  0  0
    1.1979    3.6023    1.5254 H   0  0  0  0  0  0  0  0  0  0  0  0
    2.7993    3.2624    2.2127 H   0  0  0  0  0  0  0  0  0  0  0  0
    1.4923    2.0666    2.3633 H   0  0  0  0  0  0  0  0  0  0  0  0
    3.8772   -0.7925    1.0123 H   0  0  0  0  0  0  0  0  0  0  0  0
    2.1781   -0.3964    1.3053 H   0  0  0  0  0  0  0  0  0  0  0  0
    2.8401    2.9616   -0.2630 H   0  0  0  0  0  0  0  0  0  0  0  0
    1.5284    1.7686   -0.1629 H   0  0  0  0  0  0  0  0  0  0  0  0
  1  8  1  0  0  0  0
  1  3  1  0  0  0  0
  2 12  1  0  0  0  0
  2 13  1  0  0  0  0
  3 14  1  0  0  0  0
  3 15  1  0  0  0  0
  4  6  1  0  0  0  0
  4  2  1  0  0  0  0
  6  3  1  0  0  0  0
  6  5  1  0  0  0  0
  7  5  2  0  0  0  0
  9  1  1  0  0  0  0
 10  1  1  0  0  0  0
 11  2  1  0  0  0  0
 16  4  1  0  0  0  0
 17  4  1  0  0  0  0
M  END
>  <HBA>
3

>  <HBD>
0

>  <TPSA>
32.67

>  <cid>
5921

>  <dipole>
4.06

>  <excitation_energy_1>
3.382

>  <excitation_energy_2>
5.579

>  <excitation_energy_3>
5.815

>  <excitation_energy_4>
6.038

>  <homo_energy>
-5.935

>  <homo_lumo_gap>
5.233

>  <logP>
1.01

>  <lumo_energy>
-0.702

>  <melting_point>
-3.55

>  <molecular_refractivity>
28.98

>  <oscillator_strength_1>
0.0011

>  <oscillator_strength_2>
0.0084

>  <oscillator_strength_3>
0.164

>  <oscillator_strength_4>
0.0012

>  <open_babel_can_smiles>
CCN(N=O)CC

>  <mulliken_charges>
17
1   -0.447815
2   -0.446246
3   -0.137919
4   -0.149854
5   0.145517
6   -0.20358
7   -0.388373
8   0.155177
9   0.168184
10   0.153428
11   0.152065
12   0.182711
13   0.147068
14   0.179164
15   0.154055
16   0.185176
17   0.151243

>  <lowdin_charges>
17
1   -0.4523
2   -0.451197
3   -0.19968
4   -0.216091
5   0.047121
6   -0.042244
7   -0.280287
8   0.157731
9   0.161838
10   0.152843
11   0.157883
12   0.169075
13   0.150969
14   0.168789
15   0.149836
16   0.171832
17   0.153882

$$$$

