PCCDB-ID:  1297
public computational chemistry database (PCCDB) project, http://pccdb.org

 24 24  0  0  1  0  0  0  0  0999 V2000
   -1.2264    0.1203   -0.1847 C   0  0  0  0  0  0  0  0  0  0  0  0
   -0.5421    1.3298   -0.1284 C   0  0  0  0  0  0  0  0  0  0  0  0
    0.8801   -1.0514   -0.1365 C   0  0  0  0  0  0  0  0  0  0  0  0
   -0.5179   -1.0865   -0.1890 C   0  0  0  0  0  0  0  0  0  0  0  0
    0.8564    1.3864   -0.0739 C   0  0  0  0  0  0  0  0  0  0  0  0
    1.5584    0.1659   -0.0764 C   0  0  0  0  0  0  0  0  0  0  0  0
   -1.2428   -2.4266   -0.2173 C   0  0  1  0  0  0  0  0  0  0  0  0
    1.4751    2.7634   -0.0244 C   0  0  0  0  0  0  0  0  0  0  0  0
   -0.6190   -3.3682   -1.2766 C   0  0  0  0  0  0  0  0  0  0  0  0
   -1.3038   -3.0095    1.1168 N   0  0  0  0  0  0  0  0  0  0  0  0
    2.9314    0.2032   -0.0265 O   0  0  0  0  0  0  0  0  0  0  0  0
    0.7904    3.7619   -0.0404 O   0  0  0  0  0  0  0  0  0  0  0  0
    2.8172    2.8574    0.0366 O   0  0  0  0  0  0  0  0  0  0  0  0
   -0.2227   -4.4794   -1.0270 O   0  0  0  0  0  0  0  0  0  0  0  0
   -0.5625   -2.8798   -2.5405 O   0  0  0  0  0  0  0  0  0  0  0  0
   -2.3122    0.1100   -0.2120 H   0  0  0  0  0  0  0  0  0  0  0  0
   -1.0737    2.2752   -0.1237 H   0  0  0  0  0  0  0  0  0  0  0  0
    1.4503   -1.9798   -0.1502 H   0  0  0  0  0  0  0  0  0  0  0  0
   -2.2763   -2.2432   -0.5453 H   0  0  0  0  0  0  0  0  0  0  0  0
   -0.3549   -3.1362    1.4677 H   0  0  0  0  0  0  0  0  0  0  0  0
   -1.6848   -3.9526    1.0390 H   0  0  0  0  0  0  0  0  0  0  0  0
    3.2999   -0.6938   -0.0470 H   0  0  0  0  0  0  0  0  0  0  0  0
    3.2268    1.9712    0.0460 H   0  0  0  0  0  0  0  0  0  0  0  0
   -0.8552   -1.9513   -2.5490 H   0  0  0  0  0  0  0  0  0  0  0  0
  1  2  1  0  0  0  0
  2 17  1  0  0  0  0
  2  5  2  0  0  0  0
  3  6  2  0  0  0  0
  4  1  2  0  0  0  0
  4  3  1  0  0  0  0
  5  8  1  0  0  0  0
  6  5  1  0  0  0  0
  6 11  1  0  0  0  0
  7 19  1  6  0  0  0
  7  4  1  0  0  0  0
  7 10  1  0  0  0  0
  8 13  1  0  0  0  0
  9 14  2  0  0  0  0
  9  7  1  0  0  0  0
 10 20  1  0  0  0  0
 12  8  2  0  0  0  0
 13 23  1  0  0  0  0
 15  9  1  0  0  0  0
 16  1  1  0  0  0  0
 18  3  1  0  0  0  0
 21 10  1  0  0  0  0
 22 11  1  0  0  0  0
 24 15  1  0  0  0  0
M  END
>  <HBA>
6

>  <HBD>
4

>  <TPSA>
120.85

>  <cid>
1297

>  <dipole>
3.13

>  <excitation_energy_1>
4.531

>  <excitation_energy_2>
4.589

>  <excitation_energy_3>
4.72

>  <excitation_energy_4>
5.309

>  <homo_energy>
-7.116

>  <homo_lumo_gap>
5.35

>  <logP>
0.875

>  <lumo_energy>
-1.766

>  <melting_point>
271.2

>  <molecular_refractivity>
49.68

>  <oscillator_strength_1>
0.0001

>  <oscillator_strength_2>
0.0226

>  <oscillator_strength_3>
0.0583

>  <oscillator_strength_4>
0.1675

>  <open_babel_can_smiles>
N[C@@H](c1ccc(c(c1)O)C(=O)O)C(=O)O

>  <mulliken_charges>
24
1   -0.188002
2   -0.173537
3   -0.241538
4   0.136645
5   0.018059
6   0.319409
7   -0.172055
8   0.580828
9   0.579289
10   -0.6792
11   -0.684675
12   -0.456431
13   -0.595641
14   -0.44831
15   -0.5577
16   0.148366
17   0.185097
18   0.147032
19   0.167385
20   0.306301
21   0.318165
22   0.432276
23   0.442704
24   0.415533

>  <lowdin_charges>
24
1   -0.173562
2   -0.110209
3   -0.217691
4   0.002014
5   -0.082724
6   0.113484
7   -0.107669
8   0.199604
9   0.165758
10   -0.51989
11   -0.380809
12   -0.252411
13   -0.356188
14   -0.238376
15   -0.347372
16   0.166052
17   0.189411
18   0.165146
19   0.163673
20   0.259708
21   0.266788
22   0.372986
23   0.360459
24   0.36182

$$$$

