PCCDB-ID:  2041
public computational chemistry database (PCCDB) project, http://pccdb.org

 20 20  0  0  0  0  0  0  0  0999 V2000
    0.0543    0.2686    1.2104 C   0  0  0  0  0  0  0  0  0  0  0  0
    1.2150   -0.1393   -0.8830 C   0  0  0  0  0  0  0  0  0  0  0  0
   -0.6076   -0.9444    1.0723 C   0  0  0  0  0  0  0  0  0  0  0  0
    0.5577   -1.3535   -1.0302 C   0  0  0  0  0  0  0  0  0  0  0  0
    1.7291    1.9434    0.2777 C   0  0  0  0  0  0  0  0  0  0  0  0
    0.9469    3.0053    2.3858 C   0  0  0  0  0  0  0  0  0  0  0  0
    2.5919    4.0889    0.9740 C   0  0  0  0  0  0  0  0  0  0  0  0
    0.9806    0.6946    0.2331 C   0  0  0  0  0  0  0  0  0  0  0  0
    1.7360    2.9573    1.1913 C   0  0  0  0  0  0  0  0  0  0  0  0
   -0.3473   -1.7377   -0.0443 C   0  0  0  0  0  0  0  0  0  0  0  0
    0.3137    3.0629    3.3602 N   0  0  0  0  0  0  0  0  0  0  0  0
    3.2870    5.0038    0.7933 N   0  0  0  0  0  0  0  0  0  0  0  0
   -1.0546   -3.0244   -0.1835 N   0  0  0  0  0  0  0  0  0  0  0  0
   -1.8414   -3.3359    0.7077 O   0  0  0  0  0  0  0  0  0  0  0  0
   -0.8110   -3.7001   -1.1815 O   0  0  0  0  0  0  0  0  0  0  0  0
   -0.1533    0.8772    2.0809 H   0  0  0  0  0  0  0  0  0  0  0  0
    1.9250    0.1748   -1.6429 H   0  0  0  0  0  0  0  0  0  0  0  0
   -1.3194   -1.2841    1.8143 H   0  0  0  0  0  0  0  0  0  0  0  0
    0.7314   -1.9987   -1.8827 H   0  0  0  0  0  0  0  0  0  0  0  0
    2.3990    2.0939   -0.5656 H   0  0  0  0  0  0  0  0  0  0  0  0
  1 16  1  0  0  0  0
  2  8  1  0  0  0  0
  3  1  1  0  0  0  0
  3 18  1  0  0  0  0
  4  2  2  0  0  0  0
  4 10  1  0  0  0  0
  5  9  2  0  0  0  0
  6 11  3  0  0  0  0
  7  9  1  0  0  0  0
  8  5  1  0  0  0  0
  8  1  2  0  0  0  0
  9  6  1  0  0  0  0
 10  3  2  0  0  0  0
 12  7  3  0  0  0  0
 13 10  1  0  0  0  0
 13 14  2  0  0  0  0
 15 13  2  0  0  0  0
 17  2  1  0  0  0  0
 19  4  1  0  0  0  0
 20  5  1  0  0  0  0
M  END
>  <HBA>
2

>  <HBD>
0

>  <TPSA>
93.4

>  <cid>
2041

>  <dipole>
2.9

>  <excitation_energy_1>
3.536

>  <excitation_energy_2>
3.755

>  <excitation_energy_3>
3.904

>  <excitation_energy_4>
4.016

>  <homo_energy>
-7.723

>  <homo_lumo_gap>
3.948

>  <logP>
2.549

>  <lumo_energy>
-3.774

>  <melting_point>
136.53

>  <molecular_refractivity>
54.47

>  <oscillator_strength_1>
0.0001

>  <oscillator_strength_2>
0.6951

>  <oscillator_strength_3>
0.0493

>  <oscillator_strength_4>
0.0002

>  <open_babel_can_smiles>
N#CC(=Cc1ccc(cc1)N(=O)=O)C#N

>  <mulliken_charges>
20
1   -0.190728
2   -0.194579
3   -0.153696
4   -0.148155
5   -0.164993
6   0.321616
7   0.293439
8   0.187474
9   0.133513
10   0.283651
11   -0.481501
12   -0.449513
13   0.386379
14   -0.382115
15   -0.38418
16   0.193473
17   0.164766
18   0.20161
19   0.19763
20   0.185909

>  <lowdin_charges>
20
1   -0.135593
2   -0.133838
3   -0.130025
4   -0.134368
5   -0.074326
6   -0.001377
7   -0.005079
8   0.001765
9   -0.032662
10   0.021122
11   -0.083357
12   -0.081848
13   0.308989
14   -0.23286
15   -0.23544
16   0.191959
17   0.174578
18   0.197682
19   0.195838
20   0.188839

$$$$

