PCCDB-ID:  3305
public computational chemistry database (PCCDB) project, http://pccdb.org

 19 18  0  0  0  0  0  0  0  0999 V2000
    2.4751    0.2322    1.4573 C   0  0  0  0  0  0  0  0  0  0  0  0
    3.3073   -0.2258    0.2546 C   0  0  0  0  0  0  0  0  0  0  0  0
    4.6953   -0.3023    0.5666 O   0  0  0  0  0  0  0  0  0  0  0  0
    1.3772   -1.5557   -0.9357 O   0  0  0  0  0  0  0  0  0  0  0  0
    3.8143   -2.3122   -1.4779 O   0  0  0  0  0  0  0  0  0  0  0  0
    2.7314   -2.9934    0.7820 O   0  0  0  0  0  0  0  0  0  0  0  0
    1.5800    1.2263   -1.4015 O   0  0  0  0  0  0  0  0  0  0  0  0
    3.7464    2.2841   -0.7206 O   0  0  0  0  0  0  0  0  0  0  0  0
    3.8353    0.2955   -2.4301 O   0  0  0  0  0  0  0  0  0  0  0  0
    2.8398   -1.9574   -0.2651 P   0  0  0  0  0  0  0  0  0  0  0  0
    3.1432    0.8743   -1.2380 P   0  0  0  0  0  0  0  0  0  0  0  0
    2.6455   -0.4602    2.2865 H   0  0  0  0  0  0  0  0  0  0  0  0
    1.4066    0.2599    1.2316 H   0  0  0  0  0  0  0  0  0  0  0  0
    2.7829    1.2392    1.7628 H   0  0  0  0  0  0  0  0  0  0  0  0
    4.9573    0.5549    0.9443 H   0  0  0  0  0  0  0  0  0  0  0  0
    0.7811   -2.3249   -0.9261 H   0  0  0  0  0  0  0  0  0  0  0  0
    3.9914   -1.5194   -2.0476 H   0  0  0  0  0  0  0  0  0  0  0  0
    1.0866    0.3872   -1.5136 H   0  0  0  0  0  0  0  0  0  0  0  0
    4.3560    2.6466   -1.3864 H   0  0  0  0  0  0  0  0  0  0  0  0
  1 14  1  0  0  0  0
  1 12  1  0  0  0  0
  2  3  1  0  0  0  0
  2  1  1  0  0  0  0
  3 15  1  0  0  0  0
  4 16  1  0  0  0  0
  4 10  1  0  0  0  0
  5 10  1  0  0  0  0
  7 11  1  0  0  0  0
  9 11  2  0  0  0  0
 10  2  1  0  0  0  0
 10  6  2  0  0  0  0
 11  8  1  0  0  0  0
 11  2  1  0  0  0  0
 13  1  1  0  0  0  0
 17  5  1  0  0  0  0
 18  7  1  0  0  0  0
 19  8  1  0  0  0  0
M  END
>  <HBA>
7

>  <HBD>
5

>  <TPSA>
154.91

>  <cid>
3305

>  <dipole>
4.3

>  <excitation_energy_1>
6.319

>  <excitation_energy_2>
6.781

>  <excitation_energy_3>
6.827

>  <excitation_energy_4>
6.954

>  <homo_energy>
-7.804

>  <homo_lumo_gap>
7.935

>  <logP>
-0.992

>  <lumo_energy>
0.131

>  <melting_point>
178.4

>  <molecular_refractivity>
34.9

>  <oscillator_strength_1>
0.0309

>  <oscillator_strength_2>
0.0108

>  <oscillator_strength_3>
0.0087

>  <oscillator_strength_4>
0.0011

>  <open_babel_can_smiles>
CC(P(=O)(O)O)(P(=O)(O)O)O

>  <mulliken_charges>
19
1   -0.486312
2   -0.123915
3   -0.607677
4   -0.728213
5   -0.658753
6   -0.523453
7   -0.64946
8   -0.656773
9   -0.58823
10   1.14032
11   1.098284
12   0.201226
13   0.174604
14   0.167097
15   0.40962
16   0.447589
17   0.472252
18   0.459916
19   0.451876

>  <lowdin_charges>
19
1   -0.451236
2   -0.196198
3   -0.423773
4   -0.608694
5   -0.556872
6   -0.56397
7   -0.561779
8   -0.563539
9   -0.60542
10   1.062015
11   1.041101
12   0.182707
13   0.17193
14   0.1633
15   0.356042
16   0.387608
17   0.389615
18   0.383737
19   0.393428

$$$$

