PCCDB-ID:  389
public computational chemistry database (PCCDB) project, http://pccdb.org

 21 20  0  0  1  0  0  0  0  0999 V2000
    0.9631    0.2001   -0.0061 C   0  0  0  0  0  0  0  0  0  0  0  0
   -0.0138    0.6736   -1.0976 C   0  0  0  0  0  0  0  0  0  0  0  0
    0.9097   -1.2922    0.3538 C   0  0  0  0  0  0  0  0  0  0  0  0
   -1.5197    0.5915   -0.7730 C   0  0  1  0  0  0  0  0  0  0  0  0
   -2.0749   -0.8514   -0.8212 C   0  0  0  0  0  0  0  0  0  0  0  0
    1.2209   -2.1277   -0.8070 N   0  0  0  0  0  0  0  0  0  0  0  0
   -1.9655    1.2228    0.4861 N   0  0  0  0  0  0  0  0  0  0  0  0
   -1.7041   -1.6805   -1.6250 O   0  0  0  0  0  0  0  0  0  0  0  0
   -3.0491   -1.0842    0.0660 O   0  0  0  0  0  0  0  0  0  0  0  0
    0.8221    0.7924    0.9117 H   0  0  0  0  0  0  0  0  0  0  0  0
    1.9771    0.4231   -0.3581 H   0  0  0  0  0  0  0  0  0  0  0  0
    0.1587    0.0998   -2.0137 H   0  0  0  0  0  0  0  0  0  0  0  0
    0.2171    1.7199   -1.3372 H   0  0  0  0  0  0  0  0  0  0  0  0
   -0.0619   -1.5291    0.8289 H   0  0  0  0  0  0  0  0  0  0  0  0
    1.6724   -1.4769    1.1205 H   0  0  0  0  0  0  0  0  0  0  0  0
   -2.0555    1.1045   -1.5832 H   0  0  0  0  0  0  0  0  0  0  0  0
    0.3956   -2.1813   -1.4044 H   0  0  0  0  0  0  0  0  0  0  0  0
    1.4028   -3.0807   -0.4972 H   0  0  0  0  0  0  0  0  0  0  0  0
   -1.2615    1.1106    1.2136 H   0  0  0  0  0  0  0  0  0  0  0  0
   -2.1117    2.2219    0.3668 H   0  0  0  0  0  0  0  0  0  0  0  0
   -3.1201   -0.2386    0.5816 H   0  0  0  0  0  0  0  0  0  0  0  0
  1  3  1  0  0  0  0
  1 10  1  0  0  0  0
  2  4  1  0  0  0  0
  2  1  1  0  0  0  0
  3 14  1  0  0  0  0
  3 15  1  0  0  0  0
  4 16  1  6  0  0  0
  4  7  1  0  0  0  0
  5  4  1  0  0  0  0
  5  9  1  0  0  0  0
  6 18  1  0  0  0  0
  6  3  1  0  0  0  0
  7 19  1  0  0  0  0
  8  5  2  0  0  0  0
  9 21  1  0  0  0  0
 11  1  1  0  0  0  0
 12  2  1  0  0  0  0
 13  2  1  0  0  0  0
 17  6  1  0  0  0  0
 20  7  1  0  0  0  0
M  END
>  <HBA>
4

>  <HBD>
3

>  <TPSA>
89.34

>  <cid>
389

>  <dipole>
4.74

>  <excitation_energy_1>
5.118

>  <excitation_energy_2>
5.474

>  <excitation_energy_3>
5.633

>  <excitation_energy_4>
6.011

>  <homo_energy>
-6.065

>  <homo_lumo_gap>
6.289

>  <logP>
0.538

>  <lumo_energy>
0.223

>  <melting_point>
159.76

>  <molecular_refractivity>
33.34

>  <oscillator_strength_1>
0.0167

>  <oscillator_strength_2>
0.0051

>  <oscillator_strength_3>
0.0057

>  <oscillator_strength_4>
0.0131

>  <open_babel_can_smiles>
N[C@H](C(=O)O)CCCN

>  <mulliken_charges>
21
1   -0.253461
2   -0.278808
3   -0.144307
4   -0.091505
5   0.625752
6   -0.739843
7   -0.777054
8   -0.483979
9   -0.581304
10   0.105827
11   0.156066
12   0.180687
13   0.131251
14   0.114773
15   0.136102
16   0.17887
17   0.336707
18   0.294692
19   0.329482
20   0.32549
21   0.434564

>  <lowdin_charges>
21
1   -0.285126
2   -0.287842
3   -0.209719
4   -0.113692
5   0.178289
6   -0.567551
7   -0.54628
8   -0.271141
9   -0.351046
10   0.128045
11   0.157456
12   0.170581
13   0.144316
14   0.116108
15   0.144371
16   0.172428
17   0.265793
18   0.254482
19   0.268606
20   0.271473
21   0.360447

$$$$

