PCCDB-ID:  524
public computational chemistry database (PCCDB) project, http://pccdb.org

 14 13  0  0  1  0  0  0  0  0999 V2000
    1.1754    0.0550    0.0014 C   0  0  1  0  0  0  0  0  0  0  0  0
    0.9222    1.1126   -1.0674 C   0  0  0  0  0  0  0  0  0  0  0  0
    0.3261   -1.1993   -0.3397 C   0  0  0  0  0  0  0  0  0  0  0  0
   -0.4610    1.7613   -1.0775 C   0  0  0  0  0  0  0  0  0  0  0  0
    2.5478   -0.2652    0.0519 O   0  0  0  0  0  0  0  0  0  0  0  0
    1.8190    1.4611   -1.8066 O   0  0  0  0  0  0  0  0  0  0  0  0
   -0.8653   -1.1400   -0.5205 O   0  0  0  0  0  0  0  0  0  0  0  0
    1.0479   -2.3193   -0.4155 O   0  0  0  0  0  0  0  0  0  0  0  0
   -0.9373    1.9292   -2.3142 O   0  0  0  0  0  0  0  0  0  0  0  0
   -0.9901    2.1201   -0.0521 O   0  0  0  0  0  0  0  0  0  0  0  0
    0.8250    0.4362    0.9685 H   0  0  0  0  0  0  0  0  0  0  0  0
    2.9634    0.2129   -0.6970 H   0  0  0  0  0  0  0  0  0  0  0  0
    1.9807   -2.0582   -0.2427 H   0  0  0  0  0  0  0  0  0  0  0  0
   -1.8096    2.3618   -2.2308 H   0  0  0  0  0  0  0  0  0  0  0  0
  1  5  1  0  0  0  0
  1 11  1  1  0  0  0
  2  1  1  0  0  0  0
  3  1  1  0  0  0  0
  4  2  1  0  0  0  0
  4 10  2  0  0  0  0
  6  2  2  0  0  0  0
  7  3  2  0  0  0  0
  8  3  1  0  0  0  0
  8 13  1  0  0  0  0
  9 14  1  0  0  0  0
  9  4  1  0  0  0  0
 12  5  1  0  0  0  0
M  END
>  <HBA>
6

>  <HBD>
3

>  <TPSA>
111.9

>  <cid>
524

>  <dipole>
2.08

>  <excitation_energy_1>
3.837

>  <excitation_energy_2>
4.201

>  <excitation_energy_3>
5.257

>  <excitation_energy_4>
5.546

>  <homo_energy>
-7.698

>  <homo_lumo_gap>
5.102

>  <logP>
-1.914

>  <lumo_energy>
-2.596

>  <melting_point>
169.09

>  <molecular_refractivity>
26.25

>  <oscillator_strength_1>
0.0016

>  <oscillator_strength_2>
0.0084

>  <oscillator_strength_3>
0.0034

>  <oscillator_strength_4>
0.0032

>  <open_babel_can_smiles>
OC(=O)C(=O)[C@@H](C(=O)O)O

>  <mulliken_charges>
14
1   -0.036904
2   0.380338
3   0.594151
4   0.563283
5   -0.652137
6   -0.412794
7   -0.43892
8   -0.558646
9   -0.534153
10   -0.428584
11   0.229249
12   0.426658
13   0.440639
14   0.42782

>  <lowdin_charges>
14
1   -0.072749
2   0.145865
3   0.173006
4   0.175547
5   -0.445409
6   -0.1853
7   -0.236701
8   -0.323949
9   -0.309572
10   -0.224216
11   0.198288
12   0.360347
13   0.369738
14   0.375106

$$$$

