PCCDB-ID:  3861
public computational chemistry database (PCCDB) project, http://pccdb.org

 23 22  0  0  1  0  0  0  0  0999 V2000
    1.0199    0.2339   -0.1627 C   0  0  0  0  0  0  0  0  0  0  0  0
    3.0657    0.0903   -1.6394 C   0  0  0  0  0  0  0  0  0  0  0  0
    3.2280    1.0856    0.7100 C   0  0  0  0  0  0  0  0  0  0  0  0
    5.2908    2.0855    1.7497 C   0  0  0  0  0  0  0  0  0  0  0  0
    2.5434    0.0428   -0.1963 C   0  0  0  0  0  0  0  0  0  0  0  0
    4.7524    0.9353    0.8684 C   0  0  1  0  0  0  0  0  0  0  0  0
    5.0775   -0.4086    1.3460 N   0  0  0  0  0  0  0  0  0  0  0  0
    7.1191    2.0793    1.9978 S   0  0  0  0  0  0  0  0  0  0  0  0
    0.5128   -0.5330   -0.7601 H   0  0  0  0  0  0  0  0  0  0  0  0
    0.7341    1.2133   -0.5699 H   0  0  0  0  0  0  0  0  0  0  0  0
    0.6282    0.1735    0.8602 H   0  0  0  0  0  0  0  0  0  0  0  0
    2.5309   -0.6305   -2.2691 H   0  0  0  0  0  0  0  0  0  0  0  0
    4.1312   -0.1558   -1.6928 H   0  0  0  0  0  0  0  0  0  0  0  0
    2.9216    1.0858   -2.0813 H   0  0  0  0  0  0  0  0  0  0  0  0
    2.7706    1.0366    1.7110 H   0  0  0  0  0  0  0  0  0  0  0  0
    3.0109    2.0943    0.3280 H   0  0  0  0  0  0  0  0  0  0  0  0
    4.8791    2.0089    2.7631 H   0  0  0  0  0  0  0  0  0  0  0  0
    4.9934    3.0614    1.3510 H   0  0  0  0  0  0  0  0  0  0  0  0
    2.7787   -0.9487    0.2104 H   0  0  0  0  0  0  0  0  0  0  0  0
    5.2191    1.0383   -0.1208 H   0  0  0  0  0  0  0  0  0  0  0  0
    4.6614   -0.5504    2.2677 H   0  0  0  0  0  0  0  0  0  0  0  0
    6.0864   -0.4820    1.4777 H   0  0  0  0  0  0  0  0  0  0  0  0
    7.4540    2.3481    0.7162 H   0  0  0  0  0  0  0  0  0  0  0  0
  1 11  1  0  0  0  0
  2  5  1  0  0  0  0
  3  6  1  0  0  0  0
  3 15  1  0  0  0  0
  4  8  1  0  0  0  0
  4 17  1  0  0  0  0
  5  1  1  0  0  0  0
  5 19  1  0  0  0  0
  5  3  1  0  0  0  0
  6 20  1  6  0  0  0
  6  7  1  0  0  0  0
  6  4  1  0  0  0  0
  7 22  1  0  0  0  0
  7 21  1  0  0  0  0
  9  1  1  0  0  0  0
 10  1  1  0  0  0  0
 12  2  1  0  0  0  0
 13  2  1  0  0  0  0
 14  2  1  0  0  0  0
 16  3  1  0  0  0  0
 18  4  1  0  0  0  0
 23  8  1  0  0  0  0
M  END
>  <HBA>
2

>  <HBD>
2

>  <TPSA>
64.82

>  <cid>
3861

>  <dipole>
1.08

>  <excitation_energy_1>
5.337

>  <excitation_energy_2>
5.748

>  <excitation_energy_3>
5.916

>  <excitation_energy_4>
6.129

>  <homo_energy>
-6.392

>  <homo_lumo_gap>
7.08

>  <logP>
1.99

>  <lumo_energy>
0.688

>  <melting_point>
47.95

>  <molecular_refractivity>
41.59

>  <oscillator_strength_1>
0.004

>  <oscillator_strength_2>
0.0353

>  <oscillator_strength_3>
0.0375

>  <oscillator_strength_4>
0.0177

>  <open_babel_can_smiles>
SC[C@H](CC(C)C)N

>  <mulliken_charges>
23
1   -0.44415
2   -0.450726
3   -0.257743
4   -0.419698
5   -0.05522
6   0.030053
7   -0.709895
8   -0.101246
9   0.141044
10   0.135206
11   0.136346
12   0.140179
13   0.154026
14   0.130688
15   0.119208
16   0.125319
17   0.168469
18   0.173133
19   0.147894
20   0.134597
21   0.287106
22   0.317963
23   0.097444

>  <lowdin_charges>
23
1   -0.444901
2   -0.445808
3   -0.277991
4   -0.388715
5   -0.119703
6   -0.074401
7   -0.543411
8   -0.092675
9   0.149703
10   0.142802
11   0.144511
12   0.150428
13   0.151523
14   0.140487
15   0.136026
16   0.139599
17   0.161821
18   0.160577
19   0.149004
20   0.139315
21   0.248962
22   0.261007
23   0.11184

$$$$

