PCCDB-ID:  6274
public computational chemistry database (PCCDB) project, http://pccdb.org

 20 20  0  0  1  0  0  0  0  0999 V2000
    0.9194    0.2553   -0.4442 C   0  0  0  0  0  0  0  0  0  0  0  0
   -0.8687    1.5610    0.9799 C   0  0  0  0  0  0  0  0  0  0  0  0
    0.1588    3.4238    1.1876 C   0  0  0  0  0  0  0  0  0  0  0  0
    0.3269    1.3987    0.3164 C   0  0  0  0  0  0  0  0  0  0  0  0
    2.3992   -0.0341   -0.0688 C   0  0  1  0  0  0  0  0  0  0  0  0
    2.8499   -1.3559   -0.7156 C   0  0  0  0  0  0  0  0  0  0  0  0
    3.2457    1.0903   -0.4780 N   0  0  0  0  0  0  0  0  0  0  0  0
   -0.9675    2.8248    1.5175 N   0  0  0  0  0  0  0  0  0  0  0  0
    0.9722    2.6122    0.4532 N   0  0  0  0  0  0  0  0  0  0  0  0
    3.5847   -1.4061   -1.6711 O   0  0  0  0  0  0  0  0  0  0  0  0
    2.3397   -2.4935   -0.1792 O   0  0  0  0  0  0  0  0  0  0  0  0
    0.8885    0.4346   -1.5297 H   0  0  0  0  0  0  0  0  0  0  0  0
    0.3049   -0.6354   -0.2682 H   0  0  0  0  0  0  0  0  0  0  0  0
   -1.6669    0.8382    1.0935 H   0  0  0  0  0  0  0  0  0  0  0  0
    0.4353    4.4359    1.4518 H   0  0  0  0  0  0  0  0  0  0  0  0
    2.4656   -0.1302    1.0232 H   0  0  0  0  0  0  0  0  0  0  0  0
    4.1649    0.9911   -0.0479 H   0  0  0  0  0  0  0  0  0  0  0  0
    3.4177    0.9926   -1.4807 H   0  0  0  0  0  0  0  0  0  0  0  0
    1.9260    2.7535    0.1327 H   0  0  0  0  0  0  0  0  0  0  0  0
    1.7931   -2.2859    0.5976 H   0  0  0  0  0  0  0  0  0  0  0  0
  1 13  1  0  0  0  0
  1  5  1  0  0  0  0
  1  4  1  0  0  0  0
  2 14  1  0  0  0  0
  2  8  1  0  0  0  0
  3 15  1  0  0  0  0
  3  8  2  0  0  0  0
  4  9  1  0  0  0  0
  4  2  2  0  0  0  0
  5 16  1  1  0  0  0
  6 11  1  0  0  0  0
  6  5  1  0  0  0  0
  7  5  1  0  0  0  0
  7 17  1  0  0  0  0
  9  3  1  0  0  0  0
 10  6  2  0  0  0  0
 11 20  1  0  0  0  0
 12  1  1  0  0  0  0
 18  7  1  0  0  0  0
 19  9  1  0  0  0  0
M  END
>  <HBA>
4

>  <HBD>
3

>  <TPSA>
92.0

>  <cid>
6274

>  <dipole>
2.37

>  <excitation_energy_1>
4.804

>  <excitation_energy_2>
4.947

>  <excitation_energy_3>
5.448

>  <excitation_energy_4>
5.67

>  <homo_energy>
-5.94

>  <homo_lumo_gap>
5.649

>  <logP>
0.064

>  <lumo_energy>
-0.291

>  <melting_point>
200.01

>  <molecular_refractivity>
37.65

>  <oscillator_strength_1>
0.0057

>  <oscillator_strength_2>
0.0298

>  <oscillator_strength_3>
0.0056

>  <oscillator_strength_4>
0.0013

>  <open_babel_can_smiles>
N[C@H](C(=O)O)Cc1cnc[nH]1

>  <mulliken_charges>
20
1   -0.349144
2   -0.087931
3   0.204054
4   0.320127
5   -0.115561
6   0.592869
7   -0.720193
8   -0.42817
9   -0.592236
10   -0.440063
11   -0.559839
12   0.172043
13   0.153081
14   0.124419
15   0.150455
16   0.157399
17   0.318813
18   0.326566
19   0.356692
20   0.41662

>  <lowdin_charges>
20
1   -0.271646
2   -0.177174
3   -0.09658
4   -0.025085
5   -0.110369
6   0.173415
7   -0.52908
8   -0.19112
9   -0.181345
10   -0.238103
11   -0.345773
12   0.16099
13   0.159563
14   0.157378
15   0.16375
16   0.15364
17   0.26784
18   0.269191
19   0.297496
20   0.363013

$$$$

