PCCDB-ID:  6163
public computational chemistry database (PCCDB) project, http://pccdb.org

 19 18  0  0  0  0  0  0  0  0999 V2000
    1.0181   -1.0090    0.4439 C   0  0  0  0  0  0  0  0  0  0  0  0
    7.1008   -3.2556    2.9294 C   0  0  0  0  0  0  0  0  0  0  0  0
    2.4132   -0.5277    0.1004 C   0  0  0  0  0  0  0  0  0  0  0  0
    6.8440   -2.1736    1.9002 C   0  0  0  0  0  0  0  0  0  0  0  0
    5.3344   -1.2632   -0.6449 O   0  0  0  0  0  0  0  0  0  0  0  0
    5.1667    0.3829    1.2485 O   0  0  0  0  0  0  0  0  0  0  0  0
    3.3398   -1.3253    0.9029 O   0  0  0  0  0  0  0  0  0  0  0  0
    5.3928   -2.0831    1.7427 O   0  0  0  0  0  0  0  0  0  0  0  0
    4.8983   -0.9437    0.7086 S   0  0  0  0  0  0  0  0  0  0  0  0
    0.2843   -0.4412   -0.1385 H   0  0  0  0  0  0  0  0  0  0  0  0
    0.8067   -0.8620    1.5071 H   0  0  0  0  0  0  0  0  0  0  0  0
    0.9035   -2.0708    0.2063 H   0  0  0  0  0  0  0  0  0  0  0  0
    8.1803   -3.3635    3.0815 H   0  0  0  0  0  0  0  0  0  0  0  0
    6.7000   -4.2161    2.5922 H   0  0  0  0  0  0  0  0  0  0  0  0
    6.6388   -2.9988    3.8872 H   0  0  0  0  0  0  0  0  0  0  0  0
    2.5550    0.5277    0.3538 H   0  0  0  0  0  0  0  0  0  0  0  0
    2.6514   -0.6820   -0.9566 H   0  0  0  0  0  0  0  0  0  0  0  0
    7.2816   -2.4200    0.9279 H   0  0  0  0  0  0  0  0  0  0  0  0
    7.2186   -1.1995    2.2302 H   0  0  0  0  0  0  0  0  0  0  0  0
  1 11  1  0  0  0  0
  2 13  1  0  0  0  0
  2 15  1  0  0  0  0
  3 16  1  0  0  0  0
  3  1  1  0  0  0  0
  3  7  1  0  0  0  0
  4 19  1  0  0  0  0
  4  2  1  0  0  0  0
  5  9  2  0  0  0  0
  8  4  1  0  0  0  0
  9  7  1  0  0  0  0
  9  6  2  0  0  0  0
  9  8  1  0  0  0  0
 10  1  1  0  0  0  0
 12  1  1  0  0  0  0
 14  2  1  0  0  0  0
 17  3  1  0  0  0  0
 18  4  1  0  0  0  0
M  END
>  <HBA>
4

>  <HBD>
0

>  <TPSA>
60.98

>  <cid>
6163

>  <dipole>
1.68

>  <excitation_energy_1>
7.073

>  <excitation_energy_2>
7.415

>  <excitation_energy_3>
7.827

>  <excitation_energy_4>
7.896

>  <homo_energy>
-7.924

>  <homo_lumo_gap>
8.83

>  <logP>
1.385

>  <lumo_energy>
0.906

>  <melting_point>
-8.8

>  <molecular_refractivity>
32.48

>  <oscillator_strength_1>
0.004

>  <oscillator_strength_2>
0.0

>  <oscillator_strength_3>
0.0

>  <oscillator_strength_4>
0.0

>  <open_babel_can_smiles>
CCOS(=O)(=O)OCC

>  <mulliken_charges>
19
1   -0.460033
2   -0.460072
3   -0.060792
4   -0.060817
5   -0.503688
6   -0.500155
7   -0.498519
8   -0.498576
9   1.314032
10   0.160146
11   0.173479
12   0.173252
13   0.160149
14   0.173223
15   0.17355
16   0.178534
17   0.178855
18   0.17911
19   0.178321

>  <lowdin_charges>
19
1   -0.442987
2   -0.442527
3   -0.119808
4   -0.120351
5   -0.562417
6   -0.561157
7   -0.396012
8   -0.395511
9   1.416103
10   0.165748
11   0.163817
12   0.163721
13   0.162786
14   0.164996
15   0.165147
16   0.158836
17   0.158826
18   0.160521
19   0.160271

$$$$

