PCCDB-ID:  40
public computational chemistry database (PCCDB) project, http://pccdb.org

 23 23  0  0  1  0  0  0  0  0999 V2000
    0.6759    1.2634   -0.2931 C   0  0  0  0  0  0  0  0  0  0  0  0
   -1.0366   -1.4337    1.8047 C   0  0  0  0  0  0  0  0  0  0  0  0
    1.4798    0.0394    0.1532 C   0  0  2  0  0  0  0  0  0  0  0  0
   -0.7659   -1.2044    0.3134 C   0  0  2  0  0  0  0  0  0  0  0  0
   -0.7462    1.2352    0.2699 C   0  0  1  0  0  0  0  0  0  0  0  0
    0.7129   -1.2559   -0.1437 C   0  0  2  0  0  0  0  0  0  0  0  0
   -2.4339   -1.4047    2.0492 O   0  0  0  0  0  0  0  0  0  0  0  0
    1.7201    0.0388    1.5707 O   0  0  0  0  0  0  0  0  0  0  0  0
   -1.5351    2.2922   -0.1862 O   0  0  0  0  0  0  0  0  0  0  0  0
    1.3902   -2.3783    0.3947 O   0  0  0  0  0  0  0  0  0  0  0  0
   -1.3961    0.0221   -0.1182 O   0  0  0  0  0  0  0  0  0  0  0  0
    0.6127    1.2710   -1.3905 H   0  0  0  0  0  0  0  0  0  0  0  0
    1.1744    2.1920    0.0117 H   0  0  0  0  0  0  0  0  0  0  0  0
   -0.5035   -0.6982    2.4234 H   0  0  0  0  0  0  0  0  0  0  0  0
   -0.6783   -2.4287    2.0837 H   0  0  0  0  0  0  0  0  0  0  0  0
    2.4423   -0.0045   -0.3765 H   0  0  0  0  0  0  0  0  0  0  0  0
   -1.3160   -1.9826   -0.2255 H   0  0  0  0  0  0  0  0  0  0  0  0
   -0.7259    1.3352    1.3611 H   0  0  0  0  0  0  0  0  0  0  0  0
    0.7091   -1.3838   -1.2327 H   0  0  0  0  0  0  0  0  0  0  0  0
   -2.7717   -0.6426    1.5481 H   0  0  0  0  0  0  0  0  0  0  0  0
    2.3930    0.7070    1.7705 H   0  0  0  0  0  0  0  0  0  0  0  0
   -1.6769    2.1488   -1.1374 H   0  0  0  0  0  0  0  0  0  0  0  0
    1.7252   -2.0873    1.2612 H   0  0  0  0  0  0  0  0  0  0  0  0
  1 13  1  0  0  0  0
  1  3  1  0  0  0  0
  1  5  1  0  0  0  0
  2  7  1  0  0  0  0
  2 15  1  0  0  0  0
  2 14  1  0  0  0  0
  3 16  1  6  0  0  0
  3  8  1  0  0  0  0
  4 17  1  6  0  0  0
  4  2  1  0  0  0  0
  5 18  1  1  0  0  0
  6 19  1  6  0  0  0
  6  3  1  0  0  0  0
  6  4  1  0  0  0  0
  6 10  1  0  0  0  0
  8 21  1  0  0  0  0
  9  5  1  0  0  0  0
 10 23  1  0  0  0  0
 11  5  1  0  0  0  0
 11  4  1  0  0  0  0
 12  1  1  0  0  0  0
 20  7  1  0  0  0  0
 22  9  1  0  0  0  0
M  END
>  <HBA>
5

>  <HBD>
4

>  <TPSA>
90.15

>  <cid>
40

>  <dipole>
4.65

>  <excitation_energy_1>
5.871

>  <excitation_energy_2>
6.279

>  <excitation_energy_3>
6.418

>  <excitation_energy_4>
6.545

>  <homo_energy>
-6.743

>  <homo_lumo_gap>
7.793

>  <logP>
-2.192

>  <lumo_energy>
1.05

>  <melting_point>
61.54

>  <molecular_refractivity>
34.57

>  <oscillator_strength_1>
0.0056

>  <oscillator_strength_2>
0.0012

>  <oscillator_strength_3>
0.0132

>  <oscillator_strength_4>
0.0044

>  <open_babel_can_smiles>
OC[C@H]1O[C@H](O)C[C@H]([C@H]1O)O

>  <mulliken_charges>
23
1   -0.308041
2   -0.049338
3   0.073237
4   0.0811
5   0.348658
6   0.127318
7   -0.629131
8   -0.641463
9   -0.607409
10   -0.639623
11   -0.522027
12   0.136293
13   0.145355
14   0.14161
15   0.151617
16   0.13711
17   0.157132
18   0.145419
19   0.143237
20   0.400365
21   0.405335
22   0.392429
23   0.410815

>  <lowdin_charges>
23
1   -0.318446
2   -0.160806
3   -0.023236
4   -0.035711
5   0.098315
6   -0.023817
7   -0.47098
8   -0.471653
9   -0.423472
10   -0.452167
11   -0.291629
12   0.149557
13   0.155238
14   0.136942
15   0.154414
16   0.14042
17   0.160095
18   0.137655
19   0.149286
20   0.343572
21   0.354374
22   0.344207
23   0.347843

$$$$

