PCCDB-ID:  2048
public computational chemistry database (PCCDB) project, http://pccdb.org

 32 34  0  0  0  0  0  0  0  0999 V2000
    1.0051    0.0220   -0.1698 C   0  0  0  0  0  0  0  0  0  0  0  0
    2.5852   -2.4660    0.0480 C   0  0  0  0  0  0  0  0  0  0  0  0
   11.4827    1.5060    1.2729 C   0  0  0  0  0  0  0  0  0  0  0  0
   10.8550    0.3621    0.7723 C   0  0  0  0  0  0  0  0  0  0  0  0
   10.7170    2.6285    1.5902 C   0  0  0  0  0  0  0  0  0  0  0  0
    9.4759    0.3432    0.5859 C   0  0  0  0  0  0  0  0  0  0  0  0
    9.3354    2.6124    1.4016 C   0  0  0  0  0  0  0  0  0  0  0  0
    3.1393    1.3075    0.1098 C   0  0  0  0  0  0  0  0  0  0  0  0
    4.6346   -1.0494    0.3178 C   0  0  0  0  0  0  0  0  0  0  0  0
    6.4475    2.6173    0.5381 C   0  0  0  0  0  0  0  0  0  0  0  0
    2.4998    0.0870    0.0296 C   0  0  0  0  0  0  0  0  0  0  0  0
    3.2690   -1.1230    0.1351 C   0  0  0  0  0  0  0  0  0  0  0  0
    8.6948    1.4709    0.8916 C   0  0  0  0  0  0  0  0  0  0  0  0
    4.5394    1.3958    0.2959 C   0  0  0  0  0  0  0  0  0  0  0  0
    5.3034    0.1974    0.4055 C   0  0  0  0  0  0  0  0  0  0  0  0
    7.2266    1.4228    0.6789 C   0  0  0  0  0  0  0  0  0  0  0  0
    5.1461    2.6162    0.3563 N   0  0  0  0  0  0  0  0  0  0  0  0
    6.6483    0.2326    0.5990 N   0  0  0  0  0  0  0  0  0  0  0  0
    0.5730    1.0251   -0.2263 H   0  0  0  0  0  0  0  0  0  0  0  0
    0.5091   -0.5115    0.6513 H   0  0  0  0  0  0  0  0  0  0  0  0
    0.7424   -0.5089   -1.0940 H   0  0  0  0  0  0  0  0  0  0  0  0
    3.3088   -3.2812    0.1373 H   0  0  0  0  0  0  0  0  0  0  0  0
    2.0552   -2.5897   -0.9052 H   0  0  0  0  0  0  0  0  0  0  0  0
    1.8379   -2.5919    0.8421 H   0  0  0  0  0  0  0  0  0  0  0  0
   12.5596    1.5205    1.4178 H   0  0  0  0  0  0  0  0  0  0  0  0
   11.4435   -0.5176    0.5251 H   0  0  0  0  0  0  0  0  0  0  0  0
   11.1935    3.5186    1.9920 H   0  0  0  0  0  0  0  0  0  0  0  0
    8.9791   -0.5413    0.2024 H   0  0  0  0  0  0  0  0  0  0  0  0
    8.7565    3.4875    1.6803 H   0  0  0  0  0  0  0  0  0  0  0  0
    2.5829    2.2373    0.0302 H   0  0  0  0  0  0  0  0  0  0  0  0
    5.2368   -1.9498    0.4022 H   0  0  0  0  0  0  0  0  0  0  0  0
    6.9321    3.5910    0.5535 H   0  0  0  0  0  0  0  0  0  0  0  0
  1 11  1  0  0  0  0
  1 20  1  0  0  0  0
  2 12  1  0  0  0  0
  2 22  1  0  0  0  0
  2 24  1  0  0  0  0
  3 25  1  0  0  0  0
  3  5  2  0  0  0  0
  4  3  1  0  0  0  0
  5 27  1  0  0  0  0
  6  4  2  0  0  0  0
  6 13  1  0  0  0  0
  7  5  1  0  0  0  0
  7 29  1  0  0  0  0
  8 14  1  0  0  0  0
  9 31  1  0  0  0  0
  9 15  1  0  0  0  0
 10 32  1  0  0  0  0
 10 16  2  0  0  0  0
 11  8  2  0  0  0  0
 11 12  1  0  0  0  0
 12  9  2  0  0  0  0
 13  7  2  0  0  0  0
 14 17  2  0  0  0  0
 14 15  1  0  0  0  0
 15 18  2  0  0  0  0
 16 13  1  0  0  0  0
 17 10  1  0  0  0  0
 18 16  1  0  0  0  0
 19  1  1  0  0  0  0
 21  1  1  0  0  0  0
 23  2  1  0  0  0  0
 26  4  1  0  0  0  0
 28  6  1  0  0  0  0
 30  8  1  0  0  0  0
M  END
>  <HBA>
2

>  <HBD>
0

>  <TPSA>
25.78

>  <cid>
2048

>  <dipole>
1.16

>  <excitation_energy_1>
3.537

>  <excitation_energy_2>
3.749

>  <excitation_energy_3>
3.953

>  <excitation_energy_4>
4.337

>  <homo_energy>
-6.074

>  <homo_lumo_gap>
4.25

>  <logP>
3.914

>  <lumo_energy>
-1.823

>  <melting_point>
126.61

>  <molecular_refractivity>
74.91

>  <oscillator_strength_1>
0.0023

>  <oscillator_strength_2>
0.2908

>  <oscillator_strength_3>
0.0329

>  <oscillator_strength_4>
0.0083

>  <open_babel_can_smiles>
Cc1cc2ncc(nc2cc1C)c1ccccc1

>  <mulliken_charges>
32
1   -0.53496
2   -0.534998
3   -0.12173
4   -0.134336
5   -0.137623
6   -0.155102
7   -0.177308
8   -0.228246
9   -0.237202
10   0.006399
11   0.137322
12   0.140615
13   0.091588
14   0.277011
15   0.312613
16   0.243351
17   -0.473192
18   -0.563021
19   0.163111
20   0.162777
21   0.162855
22   0.162837
23   0.162838
24   0.163276
25   0.132003
26   0.1329
27   0.132456
28   0.155555
29   0.134812
30   0.13887
31   0.13712
32   0.147409

>  <lowdin_charges>
32
1   -0.441316
2   -0.441212
3   -0.148136
4   -0.155366
5   -0.156466
6   -0.142155
7   -0.16006
8   -0.165963
9   -0.168897
10   -0.111481
11   0.000665
12   0.00195
13   -0.014213
14   0.021792
15   0.02813
16   0.034916
17   -0.119994
18   -0.134184
19   0.160819
20   0.161699
21   0.160913
22   0.161757
23   0.160712
24   0.161564
25   0.157142
26   0.159865
27   0.159704
28   0.173285
29   0.15995
30   0.166977
31   0.166144
32   0.161459

$$$$

