PCCDB-ID:  5483
public computational chemistry database (PCCDB) project, http://pccdb.org

 19 18  0  0  1  0  0  0  0  0999 V2000
    1.9910    1.2930    1.1267 C   0  0  0  0  0  0  0  0  0  0  0  0
    3.0116    0.0270   -1.9232 C   0  0  0  0  0  0  0  0  0  0  0  0
    1.5481   -0.0992    0.6471 C   0  0  1  0  0  0  0  0  0  0  0  0
    3.7194   -0.3976   -3.2241 C   0  0  0  0  0  0  0  0  0  0  0  0
    2.7625   -0.9521    0.2537 C   0  0  0  0  0  0  0  0  0  0  0  0
    3.3956   -0.8618   -0.8454 N   0  0  0  0  0  0  0  0  0  0  0  0
    3.5017    0.1489   -4.2789 O   0  0  0  0  0  0  0  0  0  0  0  0
    4.5932   -1.4008   -3.0724 O   0  0  0  0  0  0  0  0  0  0  0  0
    3.2367   -1.8125    1.1739 O   0  0  0  0  0  0  0  0  0  0  0  0
    0.4553   -0.9325    1.9022 S   0  0  0  0  0  0  0  0  0  0  0  0
    2.5683    1.7999    0.3475 H   0  0  0  0  0  0  0  0  0  0  0  0
    2.6259    1.2133    2.0156 H   0  0  0  0  0  0  0  0  0  0  0  0
    1.1212    1.9113    1.3652 H   0  0  0  0  0  0  0  0  0  0  0  0
    1.9336    0.0479   -2.1370 H   0  0  0  0  0  0  0  0  0  0  0  0
    3.3161    1.0650   -1.7299 H   0  0  0  0  0  0  0  0  0  0  0  0
    0.9132    0.0115   -0.2355 H   0  0  0  0  0  0  0  0  0  0  0  0
    4.5539   -1.6474   -2.1158 H   0  0  0  0  0  0  0  0  0  0  0  0
    2.5419   -1.9471    1.8504 H   0  0  0  0  0  0  0  0  0  0  0  0
    0.8445   -0.1949    2.9641 H   0  0  0  0  0  0  0  0  0  0  0  0
  1 13  1  0  0  0  0
  1 12  1  0  0  0  0
  2 15  1  0  0  0  0
  2  6  1  0  0  0  0
  3 16  1  6  0  0  0
  3  1  1  0  0  0  0
  3 10  1  0  0  0  0
  4  8  1  0  0  0  0
  4  2  1  0  0  0  0
  5  3  1  0  0  0  0
  5  9  1  0  0  0  0
  6  5  2  0  0  0  0
  7  4  2  0  0  0  0
  8 17  1  0  0  0  0
  9 18  1  0  0  0  0
 10 19  1  0  0  0  0
 11  1  1  0  0  0  0
 14  2  1  0  0  0  0
M  END
>  <HBA>
5

>  <HBD>
3

>  <TPSA>
105.2

>  <cid>
5483

>  <dipole>
7.51

>  <excitation_energy_1>
5.41

>  <excitation_energy_2>
5.594

>  <excitation_energy_3>
5.709

>  <excitation_energy_4>
5.86

>  <homo_energy>
-6.885

>  <homo_lumo_gap>
6.28

>  <logP>
-0.104

>  <lumo_energy>
-0.604

>  <melting_point>
120.09

>  <molecular_refractivity>
38.85

>  <oscillator_strength_1>
0.0078

>  <oscillator_strength_2>
0.0034

>  <oscillator_strength_3>
0.0008

>  <oscillator_strength_4>
0.0064

>  <open_babel_can_smiles>
C[C@@H](/C(=N\CC(=O)O)/O)S

>  <mulliken_charges>
19
1   -0.457854
2   -0.250283
3   -0.341804
4   0.592228
5   0.519749
6   -0.469729
7   -0.464053
8   -0.570021
9   -0.571229
10   -0.079785
11   0.185035
12   0.169981
13   0.181524
14   0.175434
15   0.186394
16   0.207491
17   0.432596
18   0.430424
19   0.123901

>  <lowdin_charges>
19
1   -0.440523
2   -0.243913
3   -0.248165
4   0.180163
5   0.134819
6   -0.229848
7   -0.259893
8   -0.347559
9   -0.348367
10   -0.05428
11   0.171194
12   0.162606
13   0.169849
14   0.160575
15   0.168992
16   0.18244
17   0.358546
18   0.354814
19   0.12855

$$$$

