PCCDB-ID:  1317
public computational chemistry database (PCCDB) project, http://pccdb.org

 36 35  0  0  0  0  0  0  0  0999 V2000
    0.9259   -0.6577   -1.4963 C   0  0  0  0  0  0  0  0  0  0  0  0
    0.2886   -0.0351   -0.2465 C   0  0  0  0  0  0  0  0  0  0  0  0
    2.1366    0.1101   -2.0537 C   0  0  0  0  0  0  0  0  0  0  0  0
   -0.9671   -0.7800    0.2280 C   0  0  0  0  0  0  0  0  0  0  0  0
    3.3641    0.1361   -1.1311 C   0  0  0  0  0  0  0  0  0  0  0  0
   -1.5912   -0.1714    1.4916 C   0  0  0  0  0  0  0  0  0  0  0  0
    4.5757    0.8433   -1.7532 C   0  0  0  0  0  0  0  0  0  0  0  0
   -2.8867   -0.8550    1.9607 C   0  0  0  0  0  0  0  0  0  0  0  0
    5.8077    0.8717   -0.8340 C   0  0  0  0  0  0  0  0  0  0  0  0
   -2.7260   -2.3086    2.4500 C   0  0  0  0  0  0  0  0  0  0  0  0
    7.0032    1.5314   -1.3707 N   0  0  0  0  0  0  0  0  0  0  0  0
   -1.8526   -2.5243    3.6089 N   0  0  0  0  0  0  0  0  0  0  0  0
    0.1617   -0.7270   -2.2837 H   0  0  0  0  0  0  0  0  0  0  0  0
    1.2247   -1.6930   -1.2736 H   0  0  0  0  0  0  0  0  0  0  0  0
    0.0309    1.0142   -0.4560 H   0  0  0  0  0  0  0  0  0  0  0  0
    1.0195   -0.0101    0.5736 H   0  0  0  0  0  0  0  0  0  0  0  0
    1.8355    1.1428   -2.2855 H   0  0  0  0  0  0  0  0  0  0  0  0
    2.4274   -0.3417   -3.0128 H   0  0  0  0  0  0  0  0  0  0  0  0
   -0.7103   -1.8341    0.4055 H   0  0  0  0  0  0  0  0  0  0  0  0
   -1.7152   -0.7839   -0.5788 H   0  0  0  0  0  0  0  0  0  0  0  0
    3.6411   -0.8969   -0.8714 H   0  0  0  0  0  0  0  0  0  0  0  0
    3.1109    0.6307   -0.1832 H   0  0  0  0  0  0  0  0  0  0  0  0
   -1.8008    0.8913    1.3072 H   0  0  0  0  0  0  0  0  0  0  0  0
   -0.8527   -0.1894    2.3072 H   0  0  0  0  0  0  0  0  0  0  0  0
    4.3025    1.8766   -2.0174 H   0  0  0  0  0  0  0  0  0  0  0  0
    4.8450    0.3472   -2.6983 H   0  0  0  0  0  0  0  0  0  0  0  0
   -3.6216   -0.8383    1.1419 H   0  0  0  0  0  0  0  0  0  0  0  0
   -3.3266   -0.2613    2.7760 H   0  0  0  0  0  0  0  0  0  0  0  0
    6.0882   -0.1561   -0.5671 H   0  0  0  0  0  0  0  0  0  0  0  0
    5.5494    1.3712    0.1094 H   0  0  0  0  0  0  0  0  0  0  0  0
   -2.3508   -2.9412    1.6361 H   0  0  0  0  0  0  0  0  0  0  0  0
   -3.7169   -2.7039    2.7075 H   0  0  0  0  0  0  0  0  0  0  0  0
    6.7773    2.4956   -1.6152 H   0  0  0  0  0  0  0  0  0  0  0  0
    7.2724    1.0830   -2.2464 H   0  0  0  0  0  0  0  0  0  0  0  0
   -0.9025   -2.2271    3.3918 H   0  0  0  0  0  0  0  0  0  0  0  0
   -2.1595   -1.9370    4.3844 H   0  0  0  0  0  0  0  0  0  0  0  0
  1 14  1  0  0  0  0
  1  2  1  0  0  0  0
  2  4  1  0  0  0  0
  2 16  1  0  0  0  0
  3  1  1  0  0  0  0
  3  5  1  0  0  0  0
  4 19  1  0  0  0  0
  4  6  1  0  0  0  0
  5 21  1  0  0  0  0
  5 22  1  0  0  0  0
  6  8  1  0  0  0  0
  6 24  1  0  0  0  0
  7  5  1  0  0  0  0
  7  9  1  0  0  0  0
  8 10  1  0  0  0  0
  8 28  1  0  0  0  0
  9 29  1  0  0  0  0
  9 30  1  0  0  0  0
 10 32  1  0  0  0  0
 10 12  1  0  0  0  0
 11  9  1  0  0  0  0
 12 36  1  0  0  0  0
 13  1  1  0  0  0  0
 15  2  1  0  0  0  0
 17  3  1  0  0  0  0
 18  3  1  0  0  0  0
 20  4  1  0  0  0  0
 23  6  1  0  0  0  0
 25  7  1  0  0  0  0
 26  7  1  0  0  0  0
 27  8  1  0  0  0  0
 31 10  1  0  0  0  0
 33 11  1  0  0  0  0
 34 11  1  0  0  0  0
 35 12  1  0  0  0  0
M  END
>  <HBA>
2

>  <HBD>
2

>  <TPSA>
52.04

>  <cid>
1317

>  <dipole>
2.25

>  <excitation_energy_1>
5.558

>  <excitation_energy_2>
5.573

>  <excitation_energy_3>
6.145

>  <excitation_energy_4>
6.208

>  <homo_energy>
-6.193

>  <homo_lumo_gap>
8.057

>  <logP>
3.425

>  <lumo_energy>
1.864

>  <melting_point>
79.28

>  <molecular_refractivity>
55.6

>  <oscillator_strength_1>
0.0329

>  <oscillator_strength_2>
0.0284

>  <oscillator_strength_3>
0.0013

>  <oscillator_strength_4>
0.0151

>  <open_babel_can_smiles>
NCCCCCCCCCCN

>  <mulliken_charges>
36
1   -0.255453
2   -0.253645
3   -0.254231
4   -0.2557
5   -0.256246
6   -0.255451
7   -0.260709
8   -0.261966
9   -0.141683
10   -0.146036
11   -0.70423
12   -0.70683
13   0.127744
14   0.127125
15   0.126276
16   0.131235
17   0.126338
18   0.127443
19   0.131246
20   0.128563
21   0.128155
22   0.133918
23   0.130908
24   0.115011
25   0.121264
26   0.121201
27   0.125803
28   0.121422
29   0.139273
30   0.138543
31   0.144084
32   0.140363
33   0.289858
34   0.290037
35   0.296171
36   0.290196

>  <lowdin_charges>
36
1   -0.274848
2   -0.275488
3   -0.273436
4   -0.276244
5   -0.276218
6   -0.279079
7   -0.292625
8   -0.297191
9   -0.208667
10   -0.211992
11   -0.550662
12   -0.554518
13   0.141236
14   0.136497
15   0.135626
16   0.138986
17   0.136262
18   0.140192
19   0.136732
20   0.138851
21   0.137174
22   0.139731
23   0.140908
24   0.131613
25   0.133366
26   0.134103
27   0.141642
28   0.138209
29   0.140123
30   0.140714
31   0.143505
32   0.143598
33   0.24937
34   0.249985
35   0.251061
36   0.251485

$$$$

