PCCDB-ID:  6047
public computational chemistry database (PCCDB) project, http://pccdb.org

 25 25  0  0  1  0  0  0  0  0999 V2000
   -1.3082    0.3272    0.3589 C   0  0  0  0  0  0  0  0  0  0  0  0
   -0.4415    1.4152    0.2305 C   0  0  0  0  0  0  0  0  0  0  0  0
   -1.7591   -2.1684    0.3068 C   0  0  0  0  0  0  0  0  0  0  0  0
    0.5187   -1.1580   -0.1186 C   0  0  0  0  0  0  0  0  0  0  0  0
   -0.8402   -0.9744    0.1823 C   0  0  0  0  0  0  0  0  0  0  0  0
   -2.3491   -2.6932   -1.0304 C   0  0  2  0  0  0  0  0  0  0  0  0
    0.9042    1.2293   -0.0750 C   0  0  0  0  0  0  0  0  0  0  0  0
    1.3908   -0.0812   -0.2518 C   0  0  0  0  0  0  0  0  0  0  0  0
   -3.3070   -1.6479   -1.6351 C   0  0  0  0  0  0  0  0  0  0  0  0
   -3.1241   -3.9177   -0.7564 N   0  0  0  0  0  0  0  0  0  0  0  0
    1.8000    2.2518   -0.2112 O   0  0  0  0  0  0  0  0  0  0  0  0
    2.7201   -0.2187   -0.5403 O   0  0  0  0  0  0  0  0  0  0  0  0
   -2.9443   -0.7318   -2.3319 O   0  0  0  0  0  0  0  0  0  0  0  0
   -4.5910   -1.8304   -1.2697 O   0  0  0  0  0  0  0  0  0  0  0  0
   -2.3548    0.5040    0.5888 H   0  0  0  0  0  0  0  0  0  0  0  0
   -0.8187    2.4273    0.3661 H   0  0  0  0  0  0  0  0  0  0  0  0
   -2.5946   -1.9390    0.9795 H   0  0  0  0  0  0  0  0  0  0  0  0
   -1.2089   -3.0043    0.7626 H   0  0  0  0  0  0  0  0  0  0  0  0
    0.9115   -2.1663   -0.2524 H   0  0  0  0  0  0  0  0  0  0  0  0
   -1.5315   -2.8355   -1.7479 H   0  0  0  0  0  0  0  0  0  0  0  0
   -2.6617   -4.4976   -0.0594 H   0  0  0  0  0  0  0  0  0  0  0  0
   -3.2228   -4.4813   -1.5991 H   0  0  0  0  0  0  0  0  0  0  0  0
    1.3274    3.0898   -0.0892 H   0  0  0  0  0  0  0  0  0  0  0  0
    2.9117   -1.1617   -0.6600 H   0  0  0  0  0  0  0  0  0  0  0  0
   -4.5981   -2.6947   -0.7886 H   0  0  0  0  0  0  0  0  0  0  0  0
  1 15  1  0  0  0  0
  2  1  1  0  0  0  0
  2 16  1  0  0  0  0
  3 18  1  0  0  0  0
  3 17  1  0  0  0  0
  4  5  1  0  0  0  0
  5  3  1  0  0  0  0
  5  1  2  0  0  0  0
  6 20  1  6  0  0  0
  6 10  1  0  0  0  0
  6  3  1  0  0  0  0
  7  2  2  0  0  0  0
  8  4  2  0  0  0  0
  8  7  1  0  0  0  0
  9 14  1  0  0  0  0
  9  6  1  0  0  0  0
 10 21  1  0  0  0  0
 11 23  1  0  0  0  0
 11  7  1  0  0  0  0
 12  8  1  0  0  0  0
 13  9  2  0  0  0  0
 14 25  1  0  0  0  0
 19  4  1  0  0  0  0
 22 10  1  0  0  0  0
 24 12  1  0  0  0  0
M  END
>  <HBA>
5

>  <HBD>
4

>  <TPSA>
103.78

>  <cid>
6047

>  <dipole>
4.97

>  <excitation_energy_1>
4.686

>  <excitation_energy_2>
4.78

>  <excitation_energy_3>
4.905

>  <excitation_energy_4>
5.012

>  <homo_energy>
-5.524

>  <homo_lumo_gap>
5.627

>  <logP>
0.752

>  <lumo_energy>
0.103

>  <melting_point>
219.18

>  <molecular_refractivity>
49.55

>  <oscillator_strength_1>
0.0284

>  <oscillator_strength_2>
0.0494

>  <oscillator_strength_3>
0.0021

>  <oscillator_strength_4>
0.0065

>  <open_babel_can_smiles>
OC(=O)[C@@H](Cc1ccc(c(c1)O)O)N

>  <mulliken_charges>
25
1   -0.176447
2   -0.195818
3   -0.376969
4   -0.257464
5   0.185536
6   -0.065435
7   0.320362
8   0.329458
9   0.605458
10   -0.77256
11   -0.632011
12   -0.633801
13   -0.456639
14   -0.585117
15   0.132965
16   0.122644
17   0.162183
18   0.142111
19   0.104324
20   0.159176
21   0.318719
22   0.324667
23   0.408226
24   0.405828
25   0.430605

>  <lowdin_charges>
25
1   -0.162678
2   -0.199068
3   -0.270385
4   -0.21579
5   -0.016029
6   -0.105094
7   0.078407
8   0.081847
9   0.172285
10   -0.554083
11   -0.367924
12   -0.36848
13   -0.245029
14   -0.363386
15   0.160038
16   0.155649
17   0.158568
18   0.149042
19   0.14658
20   0.153634
21   0.268835
22   0.271284
23   0.359439
24   0.355223
25   0.357115

$$$$

