PCCDB-ID:  1839
public computational chemistry database (PCCDB) project, http://pccdb.org

 20 20  0  0  0  0  0  0  0  0999 V2000
   -0.2871    0.3989   -1.3769 C   0  0  0  0  0  0  0  0  0  0  0  0
    0.0778   -0.9651   -1.2792 C   0  0  0  0  0  0  0  0  0  0  0  0
   -0.8292    2.1189    0.4986 C   0  0  0  0  0  0  0  0  0  0  0  0
   -0.4618    0.8529   -0.0843 C   0  0  0  0  0  0  0  0  0  0  0  0
    0.0990   -1.2429    0.0626 C   0  0  0  0  0  0  0  0  0  0  0  0
   -1.6777    5.4108   -0.4709 C   0  0  0  0  0  0  0  0  0  0  0  0
   -1.6514    5.5291   -1.7326 N   0  0  0  0  0  0  0  0  0  0  0  0
   -1.0687    3.1342   -0.2591 N   0  0  0  0  0  0  0  0  0  0  0  0
   -1.4086    4.2928    0.3185 N   0  0  0  0  0  0  0  0  0  0  0  0
    0.3959   -2.4509    0.7564 N   0  0  0  0  0  0  0  0  0  0  0  0
   -1.9962    6.4401    0.3507 O   0  0  0  0  0  0  0  0  0  0  0  0
    0.6881   -3.4206    0.0473 O   0  0  0  0  0  0  0  0  0  0  0  0
    0.3411   -2.4418    1.9865 O   0  0  0  0  0  0  0  0  0  0  0  0
   -0.2250   -0.1574    0.8033 O   0  0  0  0  0  0  0  0  0  0  0  0
   -0.4098    0.9886   -2.2733 H   0  0  0  0  0  0  0  0  0  0  0  0
    0.2990   -1.6632   -2.0719 H   0  0  0  0  0  0  0  0  0  0  0  0
   -0.8907    2.1590    1.5909 H   0  0  0  0  0  0  0  0  0  0  0  0
   -1.3895    4.6484   -2.1749 H   0  0  0  0  0  0  0  0  0  0  0  0
   -1.4839    4.3829    1.3299 H   0  0  0  0  0  0  0  0  0  0  0  0
   -2.1750    7.1938   -0.2385 H   0  0  0  0  0  0  0  0  0  0  0  0
  1  2  1  0  0  0  0
  1  4  2  0  0  0  0
  2  5  2  0  0  0  0
  3 17  1  0  0  0  0
  4  3  1  0  0  0  0
  4 14  1  0  0  0  0
  5 10  1  0  0  0  0
  5 14  1  0  0  0  0
  6  9  1  0  0  0  0
  6 11  1  0  0  0  0
  7  6  2  0  0  0  0
  8  9  1  0  0  0  0
  8  3  2  0  0  0  0
  9 19  1  0  0  0  0
 10 13  2  0  0  0  0
 12 10  2  0  0  0  0
 15  1  1  0  0  0  0
 16  2  1  0  0  0  0
 18  7  1  0  0  0  0
 20 11  1  0  0  0  0
M  END
>  <HBA>
5

>  <HBD>
2

>  <TPSA>
126.44

>  <cid>
1839

>  <dipole>
4.03

>  <excitation_energy_1>
3.348

>  <excitation_energy_2>
3.691

>  <excitation_energy_3>
4.205

>  <excitation_energy_4>
4.327

>  <homo_energy>
-6.368

>  <homo_lumo_gap>
3.592

>  <logP>
1.804

>  <lumo_energy>
-2.776

>  <melting_point>
176.53

>  <molecular_refractivity>
47.09

>  <oscillator_strength_1>
0.6075

>  <oscillator_strength_2>
0.0

>  <oscillator_strength_3>
0.0003

>  <oscillator_strength_4>
0.2653

>  <open_babel_can_smiles>
OC(=N)N/N=C/c1ccc(o1)N(=O)=O

>  <mulliken_charges>
20
1   -0.194898
2   -0.14282
3   -0.010173
4   0.368932
5   0.533784
6   0.67876
7   -0.63662
8   -0.213857
9   -0.453353
10   0.328296
11   -0.607289
12   -0.405258
13   -0.393112
14   -0.459733
15   0.175668
16   0.192342
17   0.155582
18   0.309534
19   0.342779
20   0.431437

>  <lowdin_charges>
20
1   -0.183498
2   -0.14938
3   -0.130595
4   0.094591
5   0.067606
6   0.154018
7   -0.446944
8   -0.064988
9   -0.181328
10   0.300866
11   -0.372252
12   -0.258022
13   -0.23901
14   -0.063855
15   0.187979
16   0.197962
17   0.15444
18   0.27223
19   0.283214
20   0.376965

$$$$

