PCCDB-ID:  1673
public computational chemistry database (PCCDB) project, http://pccdb.org

 18 19  0  0  0  0  0  0  0  0999 V2000
    1.0730    0.1099   -0.0231 C   0  0  0  0  0  0  0  0  0  0  0  0
    3.9480    3.2396    0.0120 C   0  0  0  0  0  0  0  0  0  0  0  0
    3.2650   -1.0482    0.0241 C   0  0  0  0  0  0  0  0  0  0  0  0
    4.6549    1.2620    0.0466 C   0  0  0  0  0  0  0  0  0  0  0  0
    5.3085    0.0264    0.0640 C   0  0  0  0  0  0  0  0  0  0  0  0
    3.2392    1.2801    0.0172 C   0  0  0  0  0  0  0  0  0  0  0  0
    6.6529   -0.0917    0.1129 N   0  0  0  0  0  0  0  0  0  0  0  0
    5.0983    2.5577    0.0413 N   0  0  0  0  0  0  0  0  0  0  0  0
    2.7729    2.5277   -0.0039 N   0  0  0  0  0  0  0  0  0  0  0  0
    4.5745   -1.1259    0.0495 N   0  0  0  0  0  0  0  0  0  0  0  0
    2.5355    0.0963    0.0086 N   0  0  0  0  0  0  0  0  0  0  0  0
    0.7052   -0.9178   -0.0260 H   0  0  0  0  0  0  0  0  0  0  0  0
    0.7320    0.6334   -0.9196 H   0  0  0  0  0  0  0  0  0  0  0  0
    0.6938    0.6418    0.8528 H   0  0  0  0  0  0  0  0  0  0  0  0
    3.9298    4.3239    0.0010 H   0  0  0  0  0  0  0  0  0  0  0  0
    2.6910   -1.9708    0.0149 H   0  0  0  0  0  0  0  0  0  0  0  0
    7.2191    0.7388    0.0231 H   0  0  0  0  0  0  0  0  0  0  0  0
    7.0734   -1.0020    0.0048 H   0  0  0  0  0  0  0  0  0  0  0  0
  1 11  1  0  0  0  0
  1 14  1  0  0  0  0
  2  8  2  0  0  0  0
  3 10  2  0  0  0  0
  4  5  2  0  0  0  0
  5  7  1  0  0  0  0
  6  4  1  0  0  0  0
  8  4  1  0  0  0  0
  9  2  1  0  0  0  0
  9  6  2  0  0  0  0
 10  5  1  0  0  0  0
 11  6  1  0  0  0  0
 11  3  1  0  0  0  0
 12  1  1  0  0  0  0
 13  1  1  0  0  0  0
 15  2  1  0  0  0  0
 16  3  1  0  0  0  0
 17  7  1  0  0  0  0
 18  7  1  0  0  0  0
M  END
>  <HBA>
5

>  <HBD>
1

>  <TPSA>
69.62

>  <cid>
1673

>  <dipole>
4.03

>  <excitation_energy_1>
4.34

>  <excitation_energy_2>
4.669

>  <excitation_energy_3>
4.756

>  <excitation_energy_4>
5.198

>  <homo_energy>
-5.761

>  <homo_lumo_gap>
4.757

>  <logP>
0.527

>  <lumo_energy>
-1.004

>  <melting_point>
147.49

>  <molecular_refractivity>
40.99

>  <oscillator_strength_1>
0.0988

>  <oscillator_strength_2>
0.1013

>  <oscillator_strength_3>
0.0003

>  <oscillator_strength_4>
0.0499

>  <open_babel_can_smiles>
Nc1ncn(c2c1ncn2)C

>  <mulliken_charges>
18
1   -0.322846
2   0.161733
3   0.215331
4   0.233833
5   0.472836
6   0.471962
7   -0.772484
8   -0.535614
9   -0.525858
10   -0.51583
11   -0.462469
12   0.167553
13   0.200658
14   0.200852
15   0.132029
16   0.165631
17   0.364836
18   0.347846

>  <lowdin_charges>
18
1   -0.338732
2   -0.066787
3   -0.033751
4   -0.065171
5   0.125582
6   0.033375
7   -0.429281
8   -0.232351
9   -0.247514
10   -0.204961
11   0.009943
12   0.16376
13   0.179398
14   0.17972
15   0.152317
16   0.170059
17   0.307026
18   0.297369

$$$$

