PCCDB-ID:  614
public computational chemistry database (PCCDB) project, http://pccdb.org

 17 17  0  0  1  0  0  0  0  0999 V2000
   -0.8111   -1.0281    0.0804 C   0  0  0  0  0  0  0  0  0  0  0  0
    0.7221   -1.0744   -0.1838 C   0  0  0  0  0  0  0  0  0  0  0  0
   -1.1191    0.4686    0.3227 C   0  0  0  0  0  0  0  0  0  0  0  0
    1.1735    0.3980    0.0054 C   0  0  1  0  0  0  0  0  0  0  0  0
    2.3858    0.8473   -0.8040 C   0  0  0  0  0  0  0  0  0  0  0  0
   -0.0190    1.1358   -0.3677 N   0  0  0  0  0  0  0  0  0  0  0  0
    2.4591    1.8965   -1.3895 O   0  0  0  0  0  0  0  0  0  0  0  0
    3.4510   -0.0022   -0.7766 O   0  0  0  0  0  0  0  0  0  0  0  0
   -1.1030   -1.6425    0.9370 H   0  0  0  0  0  0  0  0  0  0  0  0
   -1.3556   -1.3985   -0.7922 H   0  0  0  0  0  0  0  0  0  0  0  0
    0.9280   -1.4036   -1.2070 H   0  0  0  0  0  0  0  0  0  0  0  0
    1.2408   -1.7544    0.5018 H   0  0  0  0  0  0  0  0  0  0  0  0
   -1.1402    0.6760    1.4095 H   0  0  0  0  0  0  0  0  0  0  0  0
   -2.0822    0.7794   -0.0951 H   0  0  0  0  0  0  0  0  0  0  0  0
    1.4545    0.5355    1.0737 H   0  0  0  0  0  0  0  0  0  0  0  0
    0.0606    2.1315   -0.1823 H   0  0  0  0  0  0  0  0  0  0  0  0
    3.2216   -0.8063   -0.2814 H   0  0  0  0  0  0  0  0  0  0  0  0
  1  3  1  0  0  0  0
  1  9  1  0  0  0  0
  2  4  1  0  0  0  0
  2  1  1  0  0  0  0
  2 12  1  0  0  0  0
  3 13  1  0  0  0  0
  4 15  1  1  0  0  0
  5  8  1  0  0  0  0
  5  4  1  0  0  0  0
  6 16  1  0  0  0  0
  6  4  1  0  0  0  0
  6  3  1  0  0  0  0
  7  5  2  0  0  0  0
  8 17  1  0  0  0  0
 10  1  1  0  0  0  0
 11  2  1  0  0  0  0
 14  3  1  0  0  0  0
M  END
>  <HBA>
3

>  <HBD>
2

>  <TPSA>
49.33

>  <cid>
614

>  <dipole>
4.68

>  <excitation_energy_1>
5.222

>  <excitation_energy_2>
5.611

>  <excitation_energy_3>
5.749

>  <excitation_energy_4>
5.867

>  <homo_energy>
-6.294

>  <homo_lumo_gap>
6.604

>  <logP>
0.152

>  <lumo_energy>
0.31

>  <melting_point>
101.02

>  <molecular_refractivity>
32.52

>  <oscillator_strength_1>
0.0126

>  <oscillator_strength_2>
0.0059

>  <oscillator_strength_3>
0.0011

>  <oscillator_strength_4>
0.006

>  <open_babel_can_smiles>
OC(=O)[C@@H]1CCCN1

>  <mulliken_charges>
17
1   -0.278283
2   -0.298501
3   -0.121319
4   -0.075444
5   0.604827
6   -0.5511
7   -0.439239
8   -0.57314
9   0.143676
10   0.158817
11   0.166718
12   0.133098
13   0.116066
14   0.149232
15   0.137164
16   0.31439
17   0.413035

>  <lowdin_charges>
17
1   -0.283255
2   -0.296056
3   -0.199686
4   -0.105839
5   0.189252
6   -0.346813
7   -0.229789
8   -0.357659
9   0.150484
10   0.157439
11   0.156955
12   0.144196
13   0.11565
14   0.1502
15   0.130231
16   0.265611
17   0.359079

$$$$

