PCCDB-ID:  218
public computational chemistry database (PCCDB) project, http://pccdb.org

 23 24  0  0  0  0  0  0  0  0999 V2000
    2.3868    0.8274    0.3182 C   0  0  0  0  0  0  0  0  0  0  0  0
    3.6664   -1.3648   -0.1552 C   0  0  0  0  0  0  0  0  0  0  0  0
    2.3444   -0.6674    0.0069 C   0  0  0  0  0  0  0  0  0  0  0  0
    0.0391   -0.6494    0.0780 C   0  0  0  0  0  0  0  0  0  0  0  0
   -0.0280    0.7330    0.0177 C   0  0  0  0  0  0  0  0  0  0  0  0
   -1.2121   -1.3530    0.0473 C   0  0  0  0  0  0  0  0  0  0  0  0
   -2.4890    0.5752    0.0364 C   0  0  0  0  0  0  0  0  0  0  0  0
   -3.6262    1.1668    0.0644 N   0  0  0  0  0  0  0  0  0  0  0  0
    1.1220    1.4527   -0.0873 N   0  0  0  0  0  0  0  0  0  0  0  0
    1.2425   -1.3304   -0.0388 N   0  0  0  0  0  0  0  0  0  0  0  0
   -1.2469    1.3246   -0.0107 N   0  0  0  0  0  0  0  0  0  0  0  0
   -2.3855   -0.7949    0.0449 N   0  0  0  0  0  0  0  0  0  0  0  0
    4.5592   -1.0654    0.9217 O   0  0  0  0  0  0  0  0  0  0  0  0
   -1.1510   -2.6955    0.0216 O   0  0  0  0  0  0  0  0  0  0  0  0
    3.2099    1.3058   -0.2226 H   0  0  0  0  0  0  0  0  0  0  0  0
    2.5830    0.9773    1.3937 H   0  0  0  0  0  0  0  0  0  0  0  0
    4.1824   -1.0050   -1.0543 H   0  0  0  0  0  0  0  0  0  0  0  0
    3.4909   -2.4422   -0.2701 H   0  0  0  0  0  0  0  0  0  0  0  0
   -3.5211    2.1844    0.0504 H   0  0  0  0  0  0  0  0  0  0  0  0
    1.0706    2.4615   -0.0414 H   0  0  0  0  0  0  0  0  0  0  0  0
   -1.3170    2.3337   -0.0556 H   0  0  0  0  0  0  0  0  0  0  0  0
    4.2059   -1.4962    1.7166 H   0  0  0  0  0  0  0  0  0  0  0  0
   -0.2006   -2.9242   -0.0237 H   0  0  0  0  0  0  0  0  0  0  0  0
  1 16  1  0  0  0  0
  2  3  1  0  0  0  0
  2 13  1  0  0  0  0
  3  1  1  0  0  0  0
  5  4  2  0  0  0  0
  6  4  1  0  0  0  0
  7 12  2  0  0  0  0
  7  8  1  0  0  0  0
  9 20  1  0  0  0  0
  9  5  1  0  0  0  0
  9  1  1  0  0  0  0
 10  3  2  0  0  0  0
 10  4  1  0  0  0  0
 11  5  1  0  0  0  0
 11  7  1  0  0  0  0
 12  6  2  0  0  0  0
 13 22  1  0  0  0  0
 14  6  1  0  0  0  0
 15  1  1  0  0  0  0
 17  2  1  0  0  0  0
 18  2  1  0  0  0  0
 19  8  1  0  0  0  0
 21 11  1  0  0  0  0
 23 14  1  0  0  0  0
M  RAD  1   8   2
M  END
>  <HBA>
6

>  <HBD>
4

>  <TPSA>
116.39

>  <cid>
218

>  <dipole>
8.55

>  <excitation_energy_1>
3.454

>  <excitation_energy_2>
3.899

>  <excitation_energy_3>
4.35

>  <excitation_energy_4>
4.62

>  <homo_energy>
-5.301

>  <homo_lumo_gap>
4.016

>  <logP>
-1.003

>  <lumo_energy>
-1.284

>  <melting_point>
253.03

>  <molecular_refractivity>
57.89

>  <oscillator_strength_1>
0.1585

>  <oscillator_strength_2>
0.0052

>  <oscillator_strength_3>
0.2846

>  <oscillator_strength_4>
0.0001

>  <open_babel_can_smiles>
OCC1=NC2=C(NC1)NC(=[N]=C2O)[NH]

>  <mulliken_charges>
23
1   -0.168258
2   -0.105691
3   0.256426
4   0.143785
5   0.651525
6   0.51449
7   0.60859
8   -0.618366
9   -0.662811
10   -0.537275
11   -0.744373
12   -0.513465
13   -0.609571
14   -0.597936
15   0.174995
16   0.169427
17   0.161207
18   0.155609
19   0.252559
20   0.330305
21   0.319836
22   0.395224
23   0.423766

>  <lowdin_charges>
23
1   -0.20087
2   -0.138212
3   0.005564
4   -0.135535
5   0.131726
6   0.152787
7   0.129812
8   -0.423002
9   -0.263128
10   -0.146201
11   -0.243485
12   -0.200962
13   -0.46501
14   -0.335277
15   0.168397
16   0.14844
17   0.157801
18   0.148344
19   0.235249
20   0.284634
21   0.283099
22   0.347159
23   0.358671

$$$$

