PCCDB-ID:  6051
public computational chemistry database (PCCDB) project, http://pccdb.org

 26 27  0  0  0  0  0  0  0  0999 V2000
   -1.0068   -2.3830    0.0566 C   0  0  0  0  0  0  0  0  0  0  0  0
   -0.2083   -3.5272    0.0989 C   0  0  0  0  0  0  0  0  0  0  0  0
   -0.4149   -1.1251   -0.1150 C   0  0  0  0  0  0  0  0  0  0  0  0
    1.1751   -3.4144   -0.0296 C   0  0  0  0  0  0  0  0  0  0  0  0
    0.9641   -1.0059   -0.2438 C   0  0  0  0  0  0  0  0  0  0  0  0
    7.0751    0.3768   -0.9065 C   0  0  0  0  0  0  0  0  0  0  0  0
    7.3018   -2.0298   -0.6994 C   0  0  0  0  0  0  0  0  0  0  0  0
    5.7005    0.2470   -0.7704 C   0  0  0  0  0  0  0  0  0  0  0  0
    5.9308   -2.1530   -0.5646 C   0  0  0  0  0  0  0  0  0  0  0  0
    7.9012   -0.7621   -0.8730 C   0  0  0  0  0  0  0  0  0  0  0  0
    1.7704   -2.1572   -0.2018 C   0  0  0  0  0  0  0  0  0  0  0  0
    5.1051   -1.0121   -0.5992 C   0  0  0  0  0  0  0  0  0  0  0  0
    9.2815   -0.6429   -0.9540 N   0  0  0  0  0  0  0  0  0  0  0  0
    3.1831   -2.1632   -0.3223 N   0  0  0  0  0  0  0  0  0  0  0  0
    3.7036   -1.0213   -0.4776 N   0  0  0  0  0  0  0  0  0  0  0  0
   -2.0858   -2.4668    0.1565 H   0  0  0  0  0  0  0  0  0  0  0  0
   -0.6624   -4.5055    0.2317 H   0  0  0  0  0  0  0  0  0  0  0  0
   -1.0378   -0.2346   -0.1477 H   0  0  0  0  0  0  0  0  0  0  0  0
    1.8203   -4.2874   -0.0006 H   0  0  0  0  0  0  0  0  0  0  0  0
    1.4396   -0.0407   -0.3775 H   0  0  0  0  0  0  0  0  0  0  0  0
    7.5219    1.3600   -1.0344 H   0  0  0  0  0  0  0  0  0  0  0  0
    7.9335   -2.9151   -0.6668 H   0  0  0  0  0  0  0  0  0  0  0  0
    5.0545    1.1195   -0.7970 H   0  0  0  0  0  0  0  0  0  0  0  0
    5.4688   -3.1252   -0.4334 H   0  0  0  0  0  0  0  0  0  0  0  0
    9.6329    0.2024   -1.3845 H   0  0  0  0  0  0  0  0  0  0  0  0
    9.7851   -1.4690   -1.2491 H   0  0  0  0  0  0  0  0  0  0  0  0
  1  2  1  0  0  0  0
  1 16  1  0  0  0  0
  2 17  1  0  0  0  0
  3  1  2  0  0  0  0
  4 19  1  0  0  0  0
  4  2  2  0  0  0  0
  5 11  2  0  0  0  0
  5  3  1  0  0  0  0
  6 10  2  0  0  0  0
  6  8  1  0  0  0  0
  7 22  1  0  0  0  0
  7  9  2  0  0  0  0
  8 12  2  0  0  0  0
  9 24  1  0  0  0  0
 10  7  1  0  0  0  0
 11  4  1  0  0  0  0
 12  9  1  0  0  0  0
 12 15  1  0  0  0  0
 13 10  1  0  0  0  0
 14 11  1  0  0  0  0
 15 14  1  0  0  0  0
 18  3  1  0  0  0  0
 20  5  1  0  0  0  0
 21  6  1  0  0  0  0
 23  8  1  0  0  0  0
 25 13  1  0  0  0  0
 26 13  1  0  0  0  0
M  RAD  2  14   2  15   2
M  END
>  <HBA>
3

>  <HBD>
1

>  <TPSA>
50.74

>  <cid>
6051

>  <dipole>
3.11

>  <excitation_energy_1>
2.677

>  <excitation_energy_2>
3.301

>  <excitation_energy_3>
4.111

>  <excitation_energy_4>
4.213

>  <homo_energy>
-5.369

>  <homo_lumo_gap>
3.548

>  <logP>
4.265

>  <lumo_energy>
-1.82

>  <melting_point>
110.97

>  <molecular_refractivity>
61.46

>  <oscillator_strength_1>
0.0

>  <oscillator_strength_2>
0.8533

>  <oscillator_strength_3>
0.0086

>  <oscillator_strength_4>
0.0005

>  <open_babel_can_smiles>
Nc1ccc(cc1)[N][N]c1ccccc1

>  <mulliken_charges>
26
1   -0.120414
2   -0.138746
3   -0.146294
4   -0.143304
5   -0.126425
6   -0.184946
7   -0.188722
8   -0.144964
9   -0.129595
10   0.33594
11   0.272383
12   0.266523
13   -0.789614
14   -0.323663
15   -0.314283
16   0.129575
17   0.130674
18   0.131321
19   0.136004
20   0.150615
21   0.1225
22   0.124178
23   0.139968
24   0.155467
25   0.327835
26   0.327986

>  <lowdin_charges>
26
1   -0.149935
2   -0.157972
3   -0.155422
4   -0.152269
5   -0.155201
6   -0.204144
7   -0.195809
8   -0.133886
9   -0.136391
10   0.074977
11   0.014836
12   -0.014388
13   -0.47535
14   -0.101193
15   -0.082224
16   0.155836
17   0.158118
18   0.15831
19   0.165369
20   0.171103
21   0.155215
22   0.155756
23   0.167844
24   0.173979
25   0.281276
26   0.281563

$$$$

