PCCDB-ID:  3508
public computational chemistry database (PCCDB) project, http://pccdb.org

 28 28  0  0  1  0  0  0  0  0999 V2000
    1.8019    0.0979    3.0208 C   0  0  0  0  0  0  0  0  0  0  0  0
    2.5439   -0.3090    1.9901 C   0  0  0  0  0  0  0  0  0  0  0  0
    6.9779    2.9166    2.4758 C   0  0  0  0  0  0  0  0  0  0  0  0
    3.1469    0.5903    0.9463 C   0  0  0  0  0  0  0  0  0  0  0  0
    5.4850    2.5940    2.2382 C   0  0  0  0  0  0  0  0  0  0  0  0
    7.5287    1.6447    3.1406 C   0  0  0  0  0  0  0  0  0  0  0  0
    5.1571    1.0772   -0.4554 C   0  0  0  0  0  0  0  0  0  0  0  0
    4.6970    0.4862    0.8657 C   0  0  1  0  0  0  0  0  0  0  0  0
    5.3977    1.0342    2.1278 C   0  0  1  0  0  0  0  0  0  0  0  0
    6.8465    0.4978    2.3715 C   0  0  1  0  0  0  0  0  0  0  0  0
    6.1756    1.7096   -0.6567 O   0  0  0  0  0  0  0  0  0  0  0  0
    7.5471    0.1378    1.1886 O   0  0  0  0  0  0  0  0  0  0  0  0
    1.3843   -0.6040    3.7375 H   0  0  0  0  0  0  0  0  0  0  0  0
    1.5779    1.1504    3.1830 H   0  0  0  0  0  0  0  0  0  0  0  0
    2.7440   -1.3751    1.8662 H   0  0  0  0  0  0  0  0  0  0  0  0
    7.1251    3.8177    3.0803 H   0  0  0  0  0  0  0  0  0  0  0  0
    7.4797    3.0843    1.5152 H   0  0  0  0  0  0  0  0  0  0  0  0
    2.8558    1.6312    1.1370 H   0  0  0  0  0  0  0  0  0  0  0  0
    2.7276    0.3218   -0.0358 H   0  0  0  0  0  0  0  0  0  0  0  0
    5.0985    3.1071    1.3525 H   0  0  0  0  0  0  0  0  0  0  0  0
    4.8850    2.9369    3.0892 H   0  0  0  0  0  0  0  0  0  0  0  0
    7.2242    1.6136    4.1963 H   0  0  0  0  0  0  0  0  0  0  0  0
    8.6186    1.5533    3.1014 H   0  0  0  0  0  0  0  0  0  0  0  0
    4.4678    0.8788   -1.3066 H   0  0  0  0  0  0  0  0  0  0  0  0
    4.9468   -0.5858    0.7693 H   0  0  0  0  0  0  0  0  0  0  0  0
    4.7958    0.6727    2.9693 H   0  0  0  0  0  0  0  0  0  0  0  0
    6.8189   -0.4242    2.9625 H   0  0  0  0  0  0  0  0  0  0  0  0
    7.4597    0.8749    0.5579 H   0  0  0  0  0  0  0  0  0  0  0  0
  1 14  1  0  0  0  0
  1 13  1  0  0  0  0
  2  1  2  0  0  0  0
  3 16  1  0  0  0  0
  3  6  1  0  0  0  0
  4 18  1  0  0  0  0
  4  2  1  0  0  0  0
  5  3  1  0  0  0  0
  5 21  1  0  0  0  0
  6 22  1  0  0  0  0
  7  8  1  0  0  0  0
  8 25  1  6  0  0  0
  8  4  1  0  0  0  0
  8  9  1  0  0  0  0
  9  5  1  0  0  0  0
  9 10  1  0  0  0  0
  9 26  1  1  0  0  0
 10 27  1  1  0  0  0
 10  6  1  0  0  0  0
 11  7  2  0  0  0  0
 12 10  1  0  0  0  0
 15  2  1  0  0  0  0
 17  3  1  0  0  0  0
 19  4  1  0  0  0  0
 20  5  1  0  0  0  0
 23  6  1  0  0  0  0
 24  7  1  0  0  0  0
 28 12  1  0  0  0  0
M  END
>  <HBA>
2

>  <HBD>
1

>  <TPSA>
37.3

>  <cid>
3508

>  <dipole>
3.16

>  <excitation_energy_1>
4.222

>  <excitation_energy_2>
4.75

>  <excitation_energy_3>
5.35

>  <excitation_energy_4>
6.087

>  <homo_energy>
-6.702

>  <homo_lumo_gap>
5.63

>  <logP>
1.539

>  <lumo_energy>
-1.072

>  <melting_point>
23.1

>  <molecular_refractivity>
48.96

>  <oscillator_strength_1>
0.0005

>  <oscillator_strength_2>
0.0005

>  <oscillator_strength_3>
0.0041

>  <oscillator_strength_4>
0.0033

>  <open_babel_can_smiles>
C=CC[C@H]([C@@H]1CCC[C@@H]1O)C=O

>  <mulliken_charges>
28
1   -0.338827
2   -0.041143
3   -0.284589
4   -0.32817
5   -0.280164
6   -0.280346
7   0.263646
8   -0.179331
9   -0.124849
10   0.136599
11   -0.411519
12   -0.660218
13   0.145897
14   0.141025
15   0.131442
16   0.134351
17   0.148599
18   0.155232
19   0.149254
20   0.137876
21   0.133447
22   0.125773
23   0.147659
24   0.116779
25   0.176927
26   0.144525
27   0.124529
28   0.415597

>  <lowdin_charges>
28
1   -0.336607
2   -0.144815
3   -0.285567
4   -0.271519
5   -0.292821
6   -0.294215
7   0.06715
8   -0.159012
9   -0.156115
10   -0.006498
11   -0.226219
12   -0.479309
13   0.163243
14   0.155515
15   0.150396
16   0.146035
17   0.14639
18   0.152265
19   0.151879
20   0.146412
21   0.14336
22   0.139961
23   0.15147
24   0.126834
25   0.173295
26   0.158158
27   0.139037
28   0.341297

$$$$

