PCCDB-ID:  1274
public computational chemistry database (PCCDB) project, http://pccdb.org

 42 41  0  0  1  0  0  0  0  0999 V2000
    9.7005   -1.6646   -5.0739 C   0  0  0  0  0  0  0  0  0  0  0  0
    6.2611  -10.0012    4.6241 C   0  0  0  0  0  0  0  0  0  0  0  0
    8.8635   -1.4979   -3.8011 C   0  0  0  0  0  0  0  0  0  0  0  0
    8.4725   -2.8392   -3.1639 C   0  0  0  0  0  0  0  0  0  0  0  0
    7.5624   -2.7312   -1.9281 C   0  0  0  0  0  0  0  0  0  0  0  0
    8.2183   -2.0648   -0.7094 C   0  0  0  0  0  0  0  0  0  0  0  0
    7.3012   -1.9440    0.5217 C   0  0  0  0  0  0  0  0  0  0  0  0
    6.8477   -3.2661    1.1655 C   0  0  0  0  0  0  0  0  0  0  0  0
    7.9987   -4.1137    1.7463 C   0  0  0  0  0  0  0  0  0  0  0  0
    7.5120   -5.3127    2.5087 C   0  0  0  0  0  0  0  0  0  0  0  0
    7.7805   -6.5938    2.2034 C   0  0  0  0  0  0  0  0  0  0  0  0
    7.2948   -7.7396    2.9585 C   0  0  0  0  0  0  0  0  0  0  0  0
    7.5760   -9.0196    2.6570 C   0  0  0  0  0  0  0  0  0  0  0  0
    7.0796  -10.2649    3.3594 C   0  0  2  0  0  0  0  0  0  0  0  0
    6.2902  -11.1392    2.4583 N   0  0  0  0  0  0  0  0  0  0  0  0
    9.9665   -0.6944   -5.5091 H   0  0  0  0  0  0  0  0  0  0  0  0
    9.1541   -2.2336   -5.8363 H   0  0  0  0  0  0  0  0  0  0  0  0
   10.6335   -2.2032   -4.8666 H   0  0  0  0  0  0  0  0  0  0  0  0
    6.8366   -9.4298    5.3600 H   0  0  0  0  0  0  0  0  0  0  0  0
    5.9636  -10.9540    5.0701 H   0  0  0  0  0  0  0  0  0  0  0  0
    5.3481   -9.4371    4.3957 H   0  0  0  0  0  0  0  0  0  0  0  0
    7.9503   -0.9313   -4.0344 H   0  0  0  0  0  0  0  0  0  0  0  0
    9.4238   -0.8887   -3.0801 H   0  0  0  0  0  0  0  0  0  0  0  0
    9.3860   -3.3911   -2.8953 H   0  0  0  0  0  0  0  0  0  0  0  0
    7.9637   -3.4510   -3.9228 H   0  0  0  0  0  0  0  0  0  0  0  0
    7.2292   -3.7416   -1.6557 H   0  0  0  0  0  0  0  0  0  0  0  0
    6.6516   -2.1745   -2.1967 H   0  0  0  0  0  0  0  0  0  0  0  0
    8.5498   -1.0541   -0.9807 H   0  0  0  0  0  0  0  0  0  0  0  0
    9.1318   -2.6168   -0.4448 H   0  0  0  0  0  0  0  0  0  0  0  0
    6.4080   -1.3687    0.2392 H   0  0  0  0  0  0  0  0  0  0  0  0
    7.8181   -1.3449    1.2853 H   0  0  0  0  0  0  0  0  0  0  0  0
    6.2855   -3.8737    0.4448 H   0  0  0  0  0  0  0  0  0  0  0  0
    6.1417   -3.0311    1.9743 H   0  0  0  0  0  0  0  0  0  0  0  0
    8.5945   -3.4725    2.4160 H   0  0  0  0  0  0  0  0  0  0  0  0
    8.6745   -4.4375    0.9451 H   0  0  0  0  0  0  0  0  0  0  0  0
    6.8785   -5.1045    3.3740 H   0  0  0  0  0  0  0  0  0  0  0  0
    8.4092   -6.8114    1.3379 H   0  0  0  0  0  0  0  0  0  0  0  0
    6.6725   -7.5129    3.8238 H   0  0  0  0  0  0  0  0  0  0  0  0
    8.2081   -9.2153    1.7867 H   0  0  0  0  0  0  0  0  0  0  0  0
    7.9586  -10.8609    3.6476 H   0  0  0  0  0  0  0  0  0  0  0  0
    5.5122  -10.5926    2.0848 H   0  0  0  0  0  0  0  0  0  0  0  0
    6.8569  -11.3890    1.6471 H   0  0  0  0  0  0  0  0  0  0  0  0
  1 18  1  0  0  0  0
  1  3  1  0  0  0  0
  2 20  1  0  0  0  0
  2 19  1  0  0  0  0
  3  4  1  0  0  0  0
  3 23  1  0  0  0  0
  4 24  1  0  0  0  0
  4  5  1  0  0  0  0
  5 26  1  0  0  0  0
  5  6  1  0  0  0  0
  6 29  1  0  0  0  0
  6  7  1  0  0  0  0
  7  8  1  0  0  0  0
  7 31  1  0  0  0  0
  8  9  1  0  0  0  0
  8 33  1  0  0  0  0
  9 34  1  0  0  0  0
  9 10  1  0  0  0  0
 10 36  1  0  0  0  0
 11 10  2  0  0  0  0
 11 12  1  0  0  0  0
 12 38  1  0  0  0  0
 13 12  2  0  0  0  0
 13 14  1  0  0  0  0
 14 40  1  1  0  0  0
 14  2  1  0  0  0  0
 15 14  1  0  0  0  0
 16  1  1  0  0  0  0
 17  1  1  0  0  0  0
 21  2  1  0  0  0  0
 22  3  1  0  0  0  0
 25  4  1  0  0  0  0
 27  5  1  0  0  0  0
 28  6  1  0  0  0  0
 30  7  1  0  0  0  0
 32  8  1  0  0  0  0
 35  9  1  0  0  0  0
 37 11  1  0  0  0  0
 39 13  1  0  0  0  0
 41 15  1  0  0  0  0
 42 15  1  0  0  0  0
M  END
>  <HBA>
1

>  <HBD>
1

>  <TPSA>
26.02

>  <cid>
1274

>  <dipole>
1.56

>  <excitation_energy_1>
4.992

>  <excitation_energy_2>
5.32

>  <excitation_energy_3>
5.443

>  <excitation_energy_4>
5.544

>  <homo_energy>
-5.655

>  <homo_lumo_gap>
5.252

>  <logP>
4.897

>  <lumo_energy>
-0.403

>  <melting_point>
41.95

>  <molecular_refractivity>
71.17

>  <oscillator_strength_1>
0.6334

>  <oscillator_strength_2>
0.0035

>  <oscillator_strength_3>
0.0236

>  <oscillator_strength_4>
0.1611

>  <open_babel_can_smiles>
CCCCCCCC/C=C/C=C/[C@H](N)C

>  <mulliken_charges>
42
1   -0.441516
2   -0.442605
3   -0.248171
4   -0.247859
5   -0.256466
6   -0.259192
7   -0.259069
8   -0.256414
9   -0.306668
10   -0.111779
11   -0.106868
12   -0.105258
13   -0.144742
14   -0.014057
15   -0.698185
16   0.141189
17   0.140908
18   0.141078
19   0.146286
20   0.160953
21   0.139096
22   0.12896
23   0.135432
24   0.124806
25   0.126252
26   0.131954
27   0.125523
28   0.133646
29   0.130442
30   0.12876
31   0.126703
32   0.141034
33   0.129773
34   0.13936
35   0.141152
36   0.11866
37   0.113782
38   0.122058
39   0.109506
40   0.140425
41   0.289841
42   0.291269

>  <lowdin_charges>
42
1   -0.445248
2   -0.449213
3   -0.276657
4   -0.276902
5   -0.277421
6   -0.280077
7   -0.278379
8   -0.279173
9   -0.274925
10   -0.158873
11   -0.165906
12   -0.166051
13   -0.188195
14   -0.061901
15   -0.547569
16   0.148806
17   0.146983
18   0.14615
19   0.153671
20   0.161946
21   0.146613
22   0.138444
23   0.141454
24   0.136922
25   0.141023
26   0.140704
27   0.137233
28   0.142026
29   0.137937
30   0.14183
31   0.141165
32   0.14458
33   0.142641
34   0.148546
35   0.146802
36   0.146718
37   0.147978
38   0.153371
39   0.143118
40   0.146078
41   0.251996
42   0.251751

$$$$

