PCCDB-ID:  848
public computational chemistry database (PCCDB) project, http://pccdb.org

 22 21  0  0  1  0  0  0  0  0999 V2000
    0.8510    0.3238    0.0289 C   0  0  0  0  0  0  0  0  0  0  0  0
    2.5541    0.1958   -1.8096 C   0  0  0  0  0  0  0  0  0  0  0  0
    2.9831    1.6691    0.1623 C   0  0  0  0  0  0  0  0  0  0  0  0
    3.0415   -0.8495    0.4614 C   0  0  2  0  0  0  0  0  0  0  0  0
    4.5908   -0.8796    0.3794 C   0  0  0  0  0  0  0  0  0  0  0  0
    2.3617    0.3366   -0.2861 C   0  0  0  0  0  0  0  0  0  0  0  0
    2.8716    1.7748    1.5960 O   0  0  0  0  0  0  0  0  0  0  0  0
    2.6575   -0.9297    1.8416 O   0  0  0  0  0  0  0  0  0  0  0  0
    5.2403   -0.6156   -0.6078 O   0  0  0  0  0  0  0  0  0  0  0  0
    5.1634   -1.2737    1.5279 O   0  0  0  0  0  0  0  0  0  0  0  0
    0.3472    1.1098   -0.5457 H   0  0  0  0  0  0  0  0  0  0  0  0
    0.6444    0.4904    1.0880 H   0  0  0  0  0  0  0  0  0  0  0  0
    0.4067   -0.6372   -0.2543 H   0  0  0  0  0  0  0  0  0  0  0  0
    2.0749    1.0348   -2.3283 H   0  0  0  0  0  0  0  0  0  0  0  0
    2.0785   -0.7250   -2.1676 H   0  0  0  0  0  0  0  0  0  0  0  0
    3.6100    0.1620   -2.0821 H   0  0  0  0  0  0  0  0  0  0  0  0
    2.4520    2.5039   -0.3169 H   0  0  0  0  0  0  0  0  0  0  0  0
    4.0367    1.7082   -0.1400 H   0  0  0  0  0  0  0  0  0  0  0  0
    2.6933   -1.7836    0.0017 H   0  0  0  0  0  0  0  0  0  0  0  0
    3.4654    2.4747    1.9050 H   0  0  0  0  0  0  0  0  0  0  0  0
    2.6739   -0.0023    2.1604 H   0  0  0  0  0  0  0  0  0  0  0  0
    4.4140   -1.3985    2.1562 H   0  0  0  0  0  0  0  0  0  0  0  0
  1 12  1  0  0  0  0
  2  6  1  0  0  0  0
  3  7  1  0  0  0  0
  4 19  1  6  0  0  0
  4  8  1  0  0  0  0
  5  4  1  0  0  0  0
  5 10  1  0  0  0  0
  6  1  1  0  0  0  0
  6  3  1  0  0  0  0
  6  4  1  0  0  0  0
  7 20  1  0  0  0  0
  8 21  1  0  0  0  0
  9  5  2  0  0  0  0
 10 22  1  0  0  0  0
 11  1  1  0  0  0  0
 13  1  1  0  0  0  0
 14  2  1  0  0  0  0
 15  2  1  0  0  0  0
 16  2  1  0  0  0  0
 17  3  1  0  0  0  0
 18  3  1  0  0  0  0
M  END
>  <HBA>
4

>  <HBD>
3

>  <TPSA>
77.76

>  <cid>
848

>  <dipole>
3.53

>  <excitation_energy_1>
5.394

>  <excitation_energy_2>
6.113

>  <excitation_energy_3>
6.753

>  <excitation_energy_4>
6.783

>  <homo_energy>
-6.882

>  <homo_lumo_gap>
7.17

>  <logP>
-0.55

>  <lumo_energy>
0.288

>  <melting_point>
106.52

>  <molecular_refractivity>
34.79

>  <oscillator_strength_1>
0.0006

>  <oscillator_strength_2>
0.002

>  <oscillator_strength_3>
0.0035

>  <oscillator_strength_4>
0.0176

>  <open_babel_can_smiles>
OCC([C@@H](C(=O)O)O)(C)C

>  <mulliken_charges>
22
1   -0.437754
2   -0.471842
3   -0.051583
4   0.036643
5   0.578837
6   0.031162
7   -0.650328
8   -0.674193
9   -0.463777
10   -0.576594
11   0.141203
12   0.163605
13   0.146502
14   0.139673
15   0.145575
16   0.196672
17   0.136215
18   0.16326
19   0.17469
20   0.412303
21   0.433171
22   0.426559

>  <lowdin_charges>
22
1   -0.442061
2   -0.449992
3   -0.139158
4   -0.0437
5   0.171934
6   -0.006128
7   -0.478985
8   -0.468762
9   -0.260925
10   -0.350901
11   0.151155
12   0.158279
13   0.153191
14   0.150162
15   0.153124
16   0.173785
17   0.140313
18   0.149028
19   0.168391
20   0.358682
21   0.349974
22   0.362591

$$$$

