PCCDB-ID:  6268
public computational chemistry database (PCCDB) project, http://pccdb.org

 15 14  0  0  1  0  0  0  0  0999 V2000
   -0.0051   -0.8332   -0.4421 C   0  0  0  0  0  0  0  0  0  0  0  0
   -0.0577    0.0909   -1.6753 C   0  0  1  0  0  0  0  0  0  0  0  0
   -1.1208   -1.8833   -0.4270 C   0  0  0  0  0  0  0  0  0  0  0  0
    0.2027   -0.6806   -2.9863 C   0  0  0  0  0  0  0  0  0  0  0  0
   -2.1474   -1.7307    0.1945 O   0  0  0  0  0  0  0  0  0  0  0  0
   -0.9111   -2.9841   -1.1725 O   0  0  0  0  0  0  0  0  0  0  0  0
    0.7900   -1.7451   -2.9901 O   0  0  0  0  0  0  0  0  0  0  0  0
   -0.1795   -0.0986   -4.1227 O   0  0  0  0  0  0  0  0  0  0  0  0
   -1.5427    1.1938   -1.7370 S   0  0  0  0  0  0  0  0  0  0  0  0
   -0.1143   -0.2262    0.4578 H   0  0  0  0  0  0  0  0  0  0  0  0
    0.9760   -1.3186   -0.4241 H   0  0  0  0  0  0  0  0  0  0  0  0
    0.7695    0.8080   -1.5917 H   0  0  0  0  0  0  0  0  0  0  0  0
   -0.1027   -2.8700   -1.7160 H   0  0  0  0  0  0  0  0  0  0  0  0
   -0.7393    0.6782   -3.9076 H   0  0  0  0  0  0  0  0  0  0  0  0
   -2.4640    0.2307   -1.5161 H   0  0  0  0  0  0  0  0  0  0  0  0
  1  3  1  0  0  0  0
  1 11  1  0  0  0  0
  1 10  1  0  0  0  0
  2 12  1  1  0  0  0
  2  1  1  0  0  0  0
  3  5  2  0  0  0  0
  4  2  1  0  0  0  0
  6  3  1  0  0  0  0
  7  4  2  0  0  0  0
  8 14  1  0  0  0  0
  8  4  1  0  0  0  0
  9  2  1  0  0  0  0
  9 15  1  0  0  0  0
 13  6  1  0  0  0  0
M  END
>  <HBA>
5

>  <HBD>
3

>  <TPSA>
113.4

>  <cid>
6268

>  <dipole>
3.83

>  <excitation_energy_1>
5.164

>  <excitation_energy_2>
5.411

>  <excitation_energy_3>
5.664

>  <excitation_energy_4>
5.751

>  <homo_energy>
-7.546

>  <homo_lumo_gap>
6.504

>  <logP>
-0.156

>  <lumo_energy>
-1.042

>  <melting_point>
149.34

>  <molecular_refractivity>
32.81

>  <oscillator_strength_1>
0.0025

>  <oscillator_strength_2>
0.0005

>  <oscillator_strength_3>
0.0012

>  <oscillator_strength_4>
0.0027

>  <open_babel_can_smiles>
OC(=O)C[C@@H](C(=O)O)S

>  <mulliken_charges>
15
1   -0.362679
2   -0.392842
3   0.572503
4   0.633694
5   -0.444359
6   -0.568902
7   -0.471393
8   -0.543463
9   -0.074283
10   0.200831
11   0.188791
12   0.228276
13   0.443786
14   0.43426
15   0.155779

>  <lowdin_charges>
15
1   -0.314128
2   -0.26434
3   0.183016
4   0.189866
5   -0.249617
6   -0.350673
7   -0.262504
8   -0.317714
9   -0.05241
10   0.186775
11   0.176329
12   0.198075
13   0.364753
14   0.36385
15   0.148722

$$$$

