PCCDB-ID:  1693
public computational chemistry database (PCCDB) project, http://pccdb.org

 27 26  0  0  1  0  0  0  0  0999 V2000
    1.5831   -1.2355   -0.5540 C   0  0  0  0  0  0  0  0  0  0  0  0
    3.0694   -0.9108   -0.3737 C   0  0  0  0  0  0  0  0  0  0  0  0
    3.4671   -0.6990    1.0927 C   0  0  0  0  0  0  0  0  0  0  0  0
    4.9554   -0.3765    1.2810 C   0  0  0  0  0  0  0  0  0  0  0  0
    6.6520    2.5099    2.1891 C   0  0  0  0  0  0  0  0  0  0  0  0
    5.3446   -0.1855    2.7547 C   0  0  0  0  0  0  0  0  0  0  0  0
    7.3561    1.4396    2.5901 C   0  0  0  0  0  0  0  0  0  0  0  0
    7.3185    3.7936    1.9128 C   0  0  0  0  0  0  0  0  0  0  0  0
    6.8354    0.0799    2.9944 C   0  0  1  0  0  0  0  0  0  0  0  0
    6.7404    4.8020    1.5541 O   0  0  0  0  0  0  0  0  0  0  0  0
    7.1965   -0.1307    4.3690 O   0  0  0  0  0  0  0  0  0  0  0  0
    1.3310   -1.3802   -1.6105 H   0  0  0  0  0  0  0  0  0  0  0  0
    0.9509   -0.4260   -0.1687 H   0  0  0  0  0  0  0  0  0  0  0  0
    1.3094   -2.1523   -0.0174 H   0  0  0  0  0  0  0  0  0  0  0  0
    3.3200   -0.0095   -0.9507 H   0  0  0  0  0  0  0  0  0  0  0  0
    3.6760   -1.7227   -0.7994 H   0  0  0  0  0  0  0  0  0  0  0  0
    3.2144   -1.5996    1.6719 H   0  0  0  0  0  0  0  0  0  0  0  0
    2.8614    0.1150    1.5181 H   0  0  0  0  0  0  0  0  0  0  0  0
    5.2078    0.5213    0.7020 H   0  0  0  0  0  0  0  0  0  0  0  0
    5.5590   -1.1915    0.8552 H   0  0  0  0  0  0  0  0  0  0  0  0
    5.5744    2.4904    2.0478 H   0  0  0  0  0  0  0  0  0  0  0  0
    5.0993   -1.0954    3.3163 H   0  0  0  0  0  0  0  0  0  0  0  0
    4.7483    0.6237    3.2022 H   0  0  0  0  0  0  0  0  0  0  0  0
    8.4347    1.5487    2.7174 H   0  0  0  0  0  0  0  0  0  0  0  0
    8.4229    3.7853    2.0571 H   0  0  0  0  0  0  0  0  0  0  0  0
    7.4154   -0.6802    2.4545 H   0  0  0  0  0  0  0  0  0  0  0  0
    6.7236    0.5380    4.8917 H   0  0  0  0  0  0  0  0  0  0  0  0
  1  2  1  0  0  0  0
  1 13  1  0  0  0  0
  1 14  1  0  0  0  0
  2  3  1  0  0  0  0
  3  4  1  0  0  0  0
  3 18  1  0  0  0  0
  3 17  1  0  0  0  0
  4  6  1  0  0  0  0
  5  7  2  0  0  0  0
  6  9  1  0  0  0  0
  6 23  1  0  0  0  0
  6 22  1  0  0  0  0
  7 24  1  0  0  0  0
  7  9  1  0  0  0  0
  8 25  1  0  0  0  0
  8  5  1  0  0  0  0
  9 26  1  6  0  0  0
  9 11  1  0  0  0  0
 10  8  2  0  0  0  0
 11 27  1  0  0  0  0
 12  1  1  0  0  0  0
 15  2  1  0  0  0  0
 16  2  1  0  0  0  0
 19  4  1  0  0  0  0
 20  4  1  0  0  0  0
 21  5  1  0  0  0  0
M  END
>  <HBA>
2

>  <HBD>
1

>  <TPSA>
37.3

>  <cid>
1693

>  <dipole>
2.38

>  <excitation_energy_1>
3.628

>  <excitation_energy_2>
5.022

>  <excitation_energy_3>
5.989

>  <excitation_energy_4>
6.282

>  <homo_energy>
-6.92

>  <homo_lumo_gap>
5.167

>  <logP>
1.683

>  <lumo_energy>
-1.752

>  <melting_point>
31.58

>  <molecular_refractivity>
46.26

>  <oscillator_strength_1>
0.0003

>  <oscillator_strength_2>
0.0733

>  <oscillator_strength_3>
0.3646

>  <oscillator_strength_4>
0.011

>  <open_babel_can_smiles>
CCCCC[C@@H](/C=C/C=O)O

>  <mulliken_charges>
27
1   -0.442145
2   -0.249072
3   -0.246322
4   -0.269365
5   -0.15004
6   -0.289108
7   -0.12396
8   0.231882
9   0.099401
10   -0.411438
11   -0.615731
12   0.14448
13   0.143059
14   0.142198
15   0.134004
16   0.131813
17   0.130549
18   0.12954
19   0.141675
20   0.133987
21   0.155364
22   0.154172
23   0.127926
24   0.154016
25   0.103235
26   0.151164
27   0.388716

>  <lowdin_charges>
27
1   -0.444218
2   -0.273622
3   -0.274894
4   -0.279871
5   -0.20173
6   -0.295463
7   -0.127676
8   0.04638
9   -0.001627
10   -0.226243
11   -0.454994
12   0.14954
13   0.148138
14   0.147
15   0.141011
16   0.140645
17   0.139498
18   0.139644
19   0.144458
20   0.142333
21   0.167915
22   0.15688
23   0.140321
24   0.162788
25   0.113052
26   0.156511
27   0.344224

$$$$

