PCCDB-ID:  3301
public computational chemistry database (PCCDB) project, http://pccdb.org

 12 11  0  0  0  0  0  0  0  0999 V2000
    1.0744   -0.0447    0.0709 C   0  0  0  0  0  0  0  0  0  0  0  0
    0.5385   -1.0878    1.0510 C   0  0  0  0  0  0  0  0  0  0  0  0
    2.5411   -0.0354    0.0900 N   0  0  0  0  0  0  0  0  0  0  0  0
   -0.9275   -1.1152    1.0128 N   0  0  0  0  0  0  0  0  0  0  0  0
    0.6138    0.9357    0.3027 H   0  0  0  0  0  0  0  0  0  0  0  0
    0.7409   -0.3150   -0.9367 H   0  0  0  0  0  0  0  0  0  0  0  0
    0.9601   -0.8865    2.0554 H   0  0  0  0  0  0  0  0  0  0  0  0
    0.9133   -2.0710    0.7472 H   0  0  0  0  0  0  0  0  0  0  0  0
    2.8707    0.3550    0.9723 H   0  0  0  0  0  0  0  0  0  0  0  0
    2.8913    0.5850   -0.6375 H   0  0  0  0  0  0  0  0  0  0  0  0
   -1.2981   -0.2619    1.4300 H   0  0  0  0  0  0  0  0  0  0  0  0
   -1.2732   -1.8804    1.5891 H   0  0  0  0  0  0  0  0  0  0  0  0
  1  3  1  0  0  0  0
  1  5  1  0  0  0  0
  1  2  1  0  0  0  0
  2  7  1  0  0  0  0
  3  9  1  0  0  0  0
  4  2  1  0  0  0  0
  4 11  1  0  0  0  0
  4 12  1  0  0  0  0
  6  1  1  0  0  0  0
  8  2  1  0  0  0  0
 10  3  1  0  0  0  0
M  END
>  <HBA>
2

>  <HBD>
2

>  <TPSA>
52.04

>  <cid>
3301

>  <dipole>
2.07

>  <excitation_energy_1>
5.573

>  <excitation_energy_2>
5.647

>  <excitation_energy_3>
6.074

>  <excitation_energy_4>
6.131

>  <homo_energy>
-6.158

>  <homo_lumo_gap>
8.419

>  <logP>
0.304

>  <lumo_energy>
2.261

>  <melting_point>
84.59

>  <molecular_refractivity>
17.14

>  <oscillator_strength_1>
0.0078

>  <oscillator_strength_2>
0.012

>  <oscillator_strength_3>
0.0127

>  <oscillator_strength_4>
0.0112

>  <open_babel_can_smiles>
NCCN

>  <mulliken_charges>
12
1   -0.126989
2   -0.127063
3   -0.718362
4   -0.718384
5   0.102926
6   0.154918
7   0.102941
8   0.154924
9   0.290304
10   0.297254
11   0.290286
12   0.297247

>  <lowdin_charges>
12
1   -0.20717
2   -0.207113
3   -0.560952
4   -0.561307
5   0.111272
6   0.149551
7   0.110955
8   0.149892
9   0.250357
10   0.256944
11   0.250678
12   0.256893

$$$$

