PCCDB-ID:  227
public computational chemistry database (PCCDB) project, http://pccdb.org

 17 17  0  0  0  0  0  0  0  0999 V2000
   -1.4066   -0.1064    0.0475 C   0  0  0  0  0  0  0  0  0  0  0  0
   -0.6238   -1.2694    0.0730 C   0  0  0  0  0  0  0  0  0  0  0  0
   -0.7691    1.1211   -0.0447 C   0  0  0  0  0  0  0  0  0  0  0  0
    0.7559   -1.1963   -0.0130 C   0  0  0  0  0  0  0  0  0  0  0  0
    0.6332    1.2353   -0.1141 C   0  0  0  0  0  0  0  0  0  0  0  0
    1.4220    0.0461   -0.1249 C   0  0  0  0  0  0  0  0  0  0  0  0
    1.2946    2.5603   -0.2173 C   0  0  0  0  0  0  0  0  0  0  0  0
    2.7878    0.0869   -0.1883 N   0  0  0  0  0  0  0  0  0  0  0  0
    2.4356    2.7354   -0.6095 O   0  0  0  0  0  0  0  0  0  0  0  0
    0.5708    3.6517    0.1520 O   0  0  0  0  0  0  0  0  0  0  0  0
   -2.4894   -0.1634    0.0895 H   0  0  0  0  0  0  0  0  0  0  0  0
   -1.1004   -2.2433    0.1490 H   0  0  0  0  0  0  0  0  0  0  0  0
   -1.3835    2.0165   -0.1136 H   0  0  0  0  0  0  0  0  0  0  0  0
    1.3522   -2.1057   -0.0019 H   0  0  0  0  0  0  0  0  0  0  0  0
    3.2750   -0.7705   -0.4028 H   0  0  0  0  0  0  0  0  0  0  0  0
    3.1988    0.9576   -0.5064 H   0  0  0  0  0  0  0  0  0  0  0  0
   -0.2377    3.3727    0.6101 H   0  0  0  0  0  0  0  0  0  0  0  0
  1  2  1  0  0  0  0
  1 11  1  0  0  0  0
  2 12  1  0  0  0  0
  3  1  2  0  0  0  0
  4 14  1  0  0  0  0
  4  2  2  0  0  0  0
  5  3  1  0  0  0  0
  6  5  2  0  0  0  0
  6  4  1  0  0  0  0
  7  5  1  0  0  0  0
  7 10  1  0  0  0  0
  8  6  1  0  0  0  0
  9  7  2  0  0  0  0
 10 17  1  0  0  0  0
 13  3  1  0  0  0  0
 15  8  1  0  0  0  0
 16  8  1  0  0  0  0
M  END
>  <HBA>
3

>  <HBD>
2

>  <TPSA>
63.32

>  <cid>
227

>  <dipole>
3.63

>  <excitation_energy_1>
3.905

>  <excitation_energy_2>
4.896

>  <excitation_energy_3>
5.049

>  <excitation_energy_4>
5.141

>  <homo_energy>
-5.755

>  <homo_lumo_gap>
4.553

>  <logP>
1.548

>  <lumo_energy>
-1.203

>  <melting_point>
144.8

>  <molecular_refractivity>
37.81

>  <oscillator_strength_1>
0.0903

>  <oscillator_strength_2>
0.0058

>  <oscillator_strength_3>
0.0156

>  <oscillator_strength_4>
0.024

>  <open_babel_can_smiles>
OC(=O)c1ccccc1N

>  <mulliken_charges>
17
1   -0.141601
2   -0.127014
3   -0.219512
4   -0.174015
5   0.025853
6   0.309761
7   0.568184
8   -0.816241
9   -0.48859
10   -0.574147
11   0.131593
12   0.137253
13   0.127677
14   0.125936
15   0.325917
16   0.376999
17   0.411947

>  <lowdin_charges>
17
1   -0.189384
2   -0.127251
3   -0.152323
4   -0.19969
5   -0.10809
6   0.092787
7   0.200037
8   -0.467826
9   -0.271658
10   -0.35423
11   0.158675
12   0.162071
13   0.154857
14   0.157586
15   0.281975
16   0.3046
17   0.357864

$$$$

