PCCDB-ID:  3052
public computational chemistry database (PCCDB) project, http://pccdb.org

 35 35  0  0  0  0  0  0  0  0999 V2000
    2.7296    0.7062   -3.6987 C   0  0  0  0  0  0  0  0  0  0  0  0
    1.9394   -0.5719    0.3733 C   0  0  0  0  0  0  0  0  0  0  0  0
    9.1902    2.1225   -0.0237 C   0  0  0  0  0  0  0  0  0  0  0  0
    3.0475   -0.3878   -2.6768 C   0  0  0  0  0  0  0  0  0  0  0  0
    2.5206    0.5807   -0.4541 C   0  0  0  0  0  0  0  0  0  0  0  0
    7.8063    0.1582    0.2559 C   0  0  0  0  0  0  0  0  0  0  0  0
    6.8026    2.2486   -0.3539 C   0  0  0  0  0  0  0  0  0  0  0  0
    6.4652   -0.3381    0.7986 C   0  0  0  0  0  0  0  0  0  0  0  0
    5.4358    1.7762    0.1603 C   0  0  0  0  0  0  0  0  0  0  0  0
    4.7691   -0.3617   -0.9494 C   0  0  0  0  0  0  0  0  0  0  0  0
    7.8898    1.6145    0.3852 N   0  0  0  0  0  0  0  0  0  0  0  0
    3.5581    0.1634   -1.4131 N   0  0  0  0  0  0  0  0  0  0  0  0
    5.3283    0.3120    0.1396 N   0  0  0  0  0  0  0  0  0  0  0  0
    5.3008   -1.3512   -1.4481 O   0  0  0  0  0  0  0  0  0  0  0  0
    2.3407    0.2612   -4.6223 H   0  0  0  0  0  0  0  0  0  0  0  0
    3.6304    1.2781   -3.9456 H   0  0  0  0  0  0  0  0  0  0  0  0
    1.9747    1.4089   -3.3262 H   0  0  0  0  0  0  0  0  0  0  0  0
    1.1287   -0.2065    1.0149 H   0  0  0  0  0  0  0  0  0  0  0  0
    2.7097   -1.0111    1.0153 H   0  0  0  0  0  0  0  0  0  0  0  0
    1.5339   -1.3631   -0.2661 H   0  0  0  0  0  0  0  0  0  0  0  0
    9.9735    1.6582    0.5856 H   0  0  0  0  0  0  0  0  0  0  0  0
    9.2309    3.2059    0.1362 H   0  0  0  0  0  0  0  0  0  0  0  0
    9.4235    1.9246   -1.0886 H   0  0  0  0  0  0  0  0  0  0  0  0
    3.8074   -1.0673   -3.0628 H   0  0  0  0  0  0  0  0  0  0  0  0
    2.1506   -0.9934   -2.4827 H   0  0  0  0  0  0  0  0  0  0  0  0
    2.9126    1.3460    0.2192 H   0  0  0  0  0  0  0  0  0  0  0  0
    1.7275    1.0635   -1.0358 H   0  0  0  0  0  0  0  0  0  0  0  0
    7.9122   -0.1694   -0.7959 H   0  0  0  0  0  0  0  0  0  0  0  0
    8.6246   -0.2916    0.8315 H   0  0  0  0  0  0  0  0  0  0  0  0
    6.8754    3.3361   -0.2256 H   0  0  0  0  0  0  0  0  0  0  0  0
    6.8689    2.0389   -1.4419 H   0  0  0  0  0  0  0  0  0  0  0  0
    6.4054   -0.1068    1.8701 H   0  0  0  0  0  0  0  0  0  0  0  0
    6.3732   -1.4150    0.6578 H   0  0  0  0  0  0  0  0  0  0  0  0
    4.6549    2.2076   -0.4661 H   0  0  0  0  0  0  0  0  0  0  0  0
    5.2960    2.1265    1.1915 H   0  0  0  0  0  0  0  0  0  0  0  0
  1 17  1  0  0  0  0
  1  4  1  0  0  0  0
  2 18  1  0  0  0  0
  2 19  1  0  0  0  0
  3 22  1  0  0  0  0
  3 11  1  0  0  0  0
  3 21  1  0  0  0  0
  4 25  1  0  0  0  0
  4 12  1  0  0  0  0
  5 26  1  0  0  0  0
  5  2  1  0  0  0  0
  6 11  1  0  0  0  0
  6  8  1  0  0  0  0
  6 29  1  0  0  0  0
  7 30  1  0  0  0  0
  7  9  1  0  0  0  0
  7 11  1  0  0  0  0
  8 32  1  0  0  0  0
  9 35  1  0  0  0  0
 10 13  1  0  0  0  0
 12 10  1  0  0  0  0
 12  5  1  0  0  0  0
 13  9  1  0  0  0  0
 13  8  1  0  0  0  0
 14 10  2  0  0  0  0
 15  1  1  0  0  0  0
 16  1  1  0  0  0  0
 20  2  1  0  0  0  0
 23  3  1  0  0  0  0
 24  4  1  0  0  0  0
 27  5  1  0  0  0  0
 28  6  1  0  0  0  0
 31  7  1  0  0  0  0
 33  8  1  0  0  0  0
 34  9  1  0  0  0  0
M  END
>  <HBA>
4

>  <HBD>
0

>  <TPSA>
26.79

>  <cid>
3052

>  <dipole>
2.56

>  <excitation_energy_1>
5.246

>  <excitation_energy_2>
5.484

>  <excitation_energy_3>
5.587

>  <excitation_energy_4>
5.654

>  <homo_energy>
-5.701

>  <homo_lumo_gap>
6.819

>  <logP>
0.571

>  <lumo_energy>
1.118

>  <melting_point>
32.99

>  <molecular_refractivity>
65.18

>  <oscillator_strength_1>
0.0057

>  <oscillator_strength_2>
0.0381

>  <oscillator_strength_3>
0.0264

>  <oscillator_strength_4>
0.0078

>  <open_babel_can_smiles>
CCN(C(=O)N1CCN(CC1)C)CC

>  <mulliken_charges>
35
1   -0.437811
2   -0.447715
3   -0.28987
4   -0.14387
5   -0.146177
6   -0.129623
7   -0.118639
8   -0.139269
9   -0.157994
10   0.717904
11   -0.384563
12   -0.442899
13   -0.449196
14   -0.534686
15   0.144158
16   0.15147
17   0.14044
18   0.143389
19   0.163099
20   0.154911
21   0.148995
22   0.14621
23   0.12092
24   0.190721
25   0.134555
26   0.158082
27   0.146906
28   0.138177
29   0.136087
30   0.137222
31   0.117946
32   0.142487
33   0.175357
34   0.165096
35   0.148181

>  <lowdin_charges>
35
1   -0.452032
2   -0.459465
3   -0.353158
4   -0.199838
5   -0.199278
6   -0.210374
7   -0.205695
8   -0.198329
9   -0.203736
10   0.174146
11   -0.191449
12   -0.145456
13   -0.143094
14   -0.329188
15   0.152471
16   0.15284
17   0.145611
18   0.153868
19   0.159048
20   0.153962
21   0.15159
22   0.14676
23   0.120974
24   0.176181
25   0.136766
26   0.153935
27   0.14922
28   0.129823
29   0.148462
30   0.145499
31   0.117794
32   0.14326
33   0.169798
34   0.163983
35   0.145101

$$$$

