PCCDB-ID:  2172
public computational chemistry database (PCCDB) project, http://pccdb.org

 23 24  0  0  1  0  0  0  0  0999 V2000
    0.7155   -0.0144    0.1742 C   0  0  0  0  0  0  0  0  0  0  0  0
    0.0482   -1.3497    0.4053 C   0  0  0  0  0  0  0  0  0  0  0  0
    4.6611    2.0128   -1.5607 C   0  0  0  0  0  0  0  0  0  0  0  0
    1.9185    0.1790   -0.3637 C   0  0  0  0  0  0  0  0  0  0  0  0
    5.0883    0.5463   -1.4327 C   0  0  0  0  0  0  0  0  0  0  0  0
    3.2378    1.4316   -1.6884 C   0  0  1  0  0  0  0  0  0  0  0  0
    2.9176   -0.8369   -0.9588 C   0  0  2  0  0  0  0  0  0  0  0  0
    3.5554   -1.7922    0.0915 C   0  0  0  0  0  0  0  0  0  0  0  0
    3.8046    0.0718   -1.7068 N   0  0  0  0  0  0  0  0  0  0  0  0
    0.1530   -1.7926    1.7470 O   0  0  0  0  0  0  0  0  0  0  0  0
    6.1124   -0.0525   -1.1678 O   0  0  0  0  0  0  0  0  0  0  0  0
    2.8391   -2.3356    0.9034 O   0  0  0  0  0  0  0  0  0  0  0  0
    4.8460   -2.0922    0.0147 O   0  0  0  0  0  0  0  0  0  0  0  0
    2.4479    1.4639   -0.5158 O   0  0  0  0  0  0  0  0  0  0  0  0
    0.1877    0.8707    0.5217 H   0  0  0  0  0  0  0  0  0  0  0  0
    0.4424   -2.1013   -0.2943 H   0  0  0  0  0  0  0  0  0  0  0  0
   -1.0231   -1.2454    0.2024 H   0  0  0  0  0  0  0  0  0  0  0  0
    5.0510    2.5558   -2.4247 H   0  0  0  0  0  0  0  0  0  0  0  0
    4.8208    2.5855   -0.6442 H   0  0  0  0  0  0  0  0  0  0  0  0
    2.6432    1.6931   -2.5700 H   0  0  0  0  0  0  0  0  0  0  0  0
    2.4019   -1.5071   -1.6576 H   0  0  0  0  0  0  0  0  0  0  0  0
    1.0894   -2.0367    1.8550 H   0  0  0  0  0  0  0  0  0  0  0  0
    5.3849   -1.4924   -0.5625 H   0  0  0  0  0  0  0  0  0  0  0  0
  1  2  1  0  0  0  0
  1 15  1  0  0  0  0
  2 10  1  0  0  0  0
  3  5  1  0  0  0  0
  3 19  1  0  0  0  0
  4  1  2  0  0  0  0
  5 11  2  0  0  0  0
  6 20  1  6  0  0  0
  6  3  1  0  0  0  0
  6 14  1  0  0  0  0
  7 21  1  6  0  0  0
  7  4  1  0  0  0  0
  7  8  1  0  0  0  0
  8 12  2  0  0  0  0
  9  6  1  0  0  0  0
  9  5  1  0  0  0  0
  9  7  1  0  0  0  0
 10 22  1  0  0  0  0
 13  8  1  0  0  0  0
 14  4  1  0  0  0  0
 16  2  1  0  0  0  0
 17  2  1  0  0  0  0
 18  3  1  0  0  0  0
 23 13  1  0  0  0  0
M  END
>  <HBA>
6

>  <HBD>
2

>  <TPSA>
87.07

>  <cid>
2172

>  <dipole>
6.27

>  <excitation_energy_1>
4.758

>  <excitation_energy_2>
5.169

>  <excitation_energy_3>
5.52

>  <excitation_energy_4>
5.569

>  <homo_energy>
-6.602

>  <homo_lumo_gap>
5.51

>  <logP>
-1.158

>  <lumo_energy>
-1.091

>  <melting_point>
141.33

>  <molecular_refractivity>
46.9

>  <oscillator_strength_1>
0.0031

>  <oscillator_strength_2>
0.0054

>  <oscillator_strength_3>
0.0037

>  <oscillator_strength_4>
0.0045

>  <open_babel_can_smiles>
OC(=O)[C@@H]1N2[C@@H](O/C/1=C/CO)CC2=O

>  <mulliken_charges>
23
1   -0.207582
2   -0.057425
3   -0.405399
4   0.358582
5   0.587642
6   0.27137
7   -0.148219
8   0.614659
9   -0.46094
10   -0.629859
11   -0.488943
12   -0.454001
13   -0.575026
14   -0.496036
15   0.155693
16   0.119207
17   0.145242
18   0.196742
19   0.215121
20   0.165229
21   0.217909
22   0.423415
23   0.452619

>  <lowdin_charges>
23
1   -0.200094
2   -0.128801
3   -0.310618
4   0.069446
5   0.175419
6   0.065777
7   -0.108997
8   0.200713
9   -0.137391
10   -0.468755
11   -0.252428
12   -0.2504
13   -0.336762
14   -0.209137
15   0.174738
16   0.130103
17   0.149023
18   0.184975
19   0.195236
20   0.15121
21   0.190682
22   0.345037
23   0.371025

$$$$

