PCCDB-ID:  3
     RDKit          3D

 19 19  0  0  1  0  0  0  0  0999 V2000
    1.0657    0.8358    0.2463 C   0  0  0  0  0  0  0  0  0  0  0  0
   -0.2923    1.3182    0.0023 C   0  0  0  0  0  0  0  0  0  0  0  0
    1.3550   -0.4791    0.2035 C   0  0  0  0  0  0  0  0  0  0  0  0
   -1.3396    0.4661   -0.0834 C   0  0  0  0  0  0  0  0  0  0  0  0
    0.2902   -1.4890   -0.1535 C   0  0  1  0  0  0  0  0  0  0  0  0
   -1.1337   -1.0073    0.1976 C   0  0  1  0  0  0  0  0  0  0  0  0
   -2.7176    0.9187   -0.3757 C   0  0  0  0  0  0  0  0  0  0  0  0
    0.4209   -1.8479   -1.5346 O   0  0  0  0  0  0  0  0  0  0  0  0
   -1.4342   -1.2858    1.5715 O   0  0  0  0  0  0  0  0  0  0  0  0
   -2.8496    2.2737   -0.3949 O   0  0  0  0  0  0  0  0  0  0  0  0
   -3.6545    0.1776   -0.5972 O   0  0  0  0  0  0  0  0  0  0  0  0
    1.8445    1.5729    0.4255 H   0  0  0  0  0  0  0  0  0  0  0  0
   -0.4485    2.3855   -0.1219 H   0  0  0  0  0  0  0  0  0  0  0  0
    2.3749   -0.8339    0.3278 H   0  0  0  0  0  0  0  0  0  0  0  0
    0.4406   -2.4224    0.3972 H   0  0  0  0  0  0  0  0  0  0  0  0
   -1.8433   -1.6048   -0.3782 H   0  0  0  0  0  0  0  0  0  0  0  0
    0.4031   -1.0240   -2.0489 H   0  0  0  0  0  0  0  0  0  0  0  0
   -0.9164   -0.6664    2.1118 H   0  0  0  0  0  0  0  0  0  0  0  0
   -3.7847    2.4403   -0.6145 H   0  0  0  0  0  0  0  0  0  0  0  0
  1 12  1  0
  2  1  1  0
  3  1  2  0
  3 14  1  0
  4  2  2  0
  4  6  1  0
  5  6  1  0
  5  3  1  0
  5 15  1  1
  6 16  1  6
  6  9  1  0
  7  4  1  0
  8  5  1  0
  9 18  1  0
 10  7  1  0
 11  7  2  0
 13  2  1  0
 17  8  1  0
 19 10  1  0
M  END
>  <HBA>  (1) 
4

>  <HBD>  (1) 
3

>  <TPSA>  (1) 
77.76

>  <cid>  (1) 
3

>  <dipole>  (1) 
4.4

>  <excitation_energy_1>  (1) 
3.854

>  <excitation_energy_2>  (1) 
4.276

>  <excitation_energy_3>  (1) 
4.356

>  <excitation_energy_4>  (1) 
5.105

>  <homo_energy>  (1) 
-6.729

>  <homo_lumo_gap>  (1) 
4.528

>  <logP>  (1) 
-0.711

>  <lumo_energy>  (1) 
-2.201

>  <melting_point>  (1) 
132.75

>  <molecular_refractivity>  (1) 
36.8

>  <oscillator_strength_1>  (1) 
0.0299

>  <oscillator_strength_2>  (1) 
0.0188

>  <oscillator_strength_3>  (1) 
0.193

>  <oscillator_strength_4>  (1) 
0.0162

>  <open_babel_can_smiles>  (1) 
O[C@H]1C=CC=C([C@@H]1O)C(=O)O

>  <mulliken_charges>  (1) 
19
1   -0.126843
2   -0.167698
3   -0.149307
4   0.029338
5   0.071841
6   0.047905
7   0.551868
8   -0.609223
9   -0.610471
10   -0.58771
11   -0.464566
12   0.145904
13   0.172716
14   0.1539
15   0.163632
16   0.18275
17   0.393281
18   0.390155
19   0.41253

>  <lowdin_charges>  (1) 
19
1   -0.177586
2   -0.130328
3   -0.157261
4   -0.072111
5   -0.018634
6   -0.014572
7   0.195218
8   -0.447473
9   -0.449084
10   -0.368315
11   -0.262187
12   0.166273
13   0.176094
14   0.167126
15   0.164229
16   0.176665
17   0.345174
18   0.344452
19   0.362319

$$$$
PCCDB-ID:  4
     RDKit          3D

 14 13  0  0  1  0  0  0  0  0999 V2000
    0.8689    0.0380    0.0621 C   0  0  0  0  0  0  0  0  0  0  0  0
    2.8657    0.3580   -1.4903 C   0  0  0  0  0  0  0  0  0  0  0  0
    2.3903    0.0909   -0.0597 C   0  0  1  0  0  0  0  0  0  0  0  0
    4.3234    0.2727   -1.5459 N   0  0  0  0  0  0  0  0  0  0  0  0
    2.9508    1.0630    0.8357 O   0  0  0  0  0  0  0  0  0  0  0  0
    0.4499   -0.7761   -0.5404 H   0  0  0  0  0  0  0  0  0  0  0  0
    0.4133    0.9763   -0.2841 H   0  0  0  0  0  0  0  0  0  0  0  0
    0.5779   -0.1176    1.1056 H   0  0  0  0  0  0  0  0  0  0  0  0
    2.4485    1.3357   -1.8105 H   0  0  0  0  0  0  0  0  0  0  0  0
    2.4388   -0.3982   -2.1623 H   0  0  0  0  0  0  0  0  0  0  0  0
    2.8255   -0.8588    0.2697 H   0  0  0  0  0  0  0  0  0  0  0  0
    4.7026    0.8977   -0.8359 H   0  0  0  0  0  0  0  0  0  0  0  0
    4.6649    0.6019   -2.4466 H   0  0  0  0  0  0  0  0  0  0  0  0
    2.5103    1.9087    0.6481 H   0  0  0  0  0  0  0  0  0  0  0  0
  1  8  1  0
  2  3  1  0
  3  1  1  0
  3 11  1  1
  3  5  1  0
  4  2  1  0
  4 12  1  0
  6  1  1  0
  7  1  1  0
  9  2  1  0
 10  2  1  0
 13  4  1  0
 14  5  1  0
M  END
>  <HBA>  (2) 
2

>  <HBD>  (2) 
2

>  <TPSA>  (2) 
46.25

>  <cid>  (2) 
4

>  <dipole>  (2) 
2.47

>  <excitation_energy_1>  (2) 
5.596

>  <excitation_energy_2>  (2) 
6.262

>  <excitation_energy_3>  (2) 
6.46

>  <excitation_energy_4>  (2) 
6.642

>  <homo_energy>  (2) 
-6.188

>  <homo_lumo_gap>  (2) 
8.036

>  <logP>  (2) 
0.026

>  <lumo_energy>  (2) 
1.848

>  <melting_point>  (2) 
48.3

>  <molecular_refractivity>  (2) 
20.4

>  <oscillator_strength_1>  (2) 
0.0039

>  <oscillator_strength_2>  (2) 
0.0227

>  <oscillator_strength_3>  (2) 
0.0011

>  <oscillator_strength_4>  (2) 
0.0442

>  <open_babel_can_smiles>  (2) 
C[C@@H](CN)O

>  <mulliken_charges>  (2) 
14
1   -0.464472
2   -0.129213
3   0.131922
4   -0.720924
5   -0.622405
6   0.148951
7   0.131458
8   0.161801
9   0.092821
10   0.136684
11   0.153963
12   0.30602
13   0.292737
14   0.380656

>  <lowdin_charges>  (2) 
14
1   -0.461103
2   -0.221347
3   -0.003749
4   -0.562056
5   -0.466274
6   0.157431
7   0.143024
8   0.159247
9   0.108165
10   0.145349
11   0.151923
12   0.259173
13   0.253554
14   0.336663

$$$$
PCCDB-ID:  5
     RDKit          3D

 18 17  0  0  0  0  0  0  0  0999 V2000
   -1.0662   -1.2812    0.3603 C   0  0  0  0  0  0  0  0  0  0  0  0
    1.4271   -1.8811   -0.0791 C   0  0  0  0  0  0  0  0  0  0  0  0
    0.2944   -0.8668   -0.1980 C   0  0  0  0  0  0  0  0  0  0  0  0
   -2.1760   -0.3971    0.0610 N   0  0  0  0  0  0  0  0  0  0  0  0
    0.4527    0.2234   -0.7259 O   0  0  0  0  0  0  0  0  0  0  0  0
    2.9186    0.5668   -1.9866 O   0  0  0  0  0  0  0  0  0  0  0  0
    4.7953   -0.9870   -1.6721 O   0  0  0  0  0  0  0  0  0  0  0  0
    2.6329   -1.9537   -2.7880 O   0  0  0  0  0  0  0  0  0  0  0  0
    2.7065   -1.3027   -0.2782 O   0  0  0  0  0  0  0  0  0  0  0  0
    3.1950   -0.9937   -1.8099 P   0  0  0  0  0  0  0  0  0  0  0  0
   -0.9552   -1.3726    1.4517 H   0  0  0  0  0  0  0  0  0  0  0  0
   -1.2961   -2.2966    0.0081 H   0  0  0  0  0  0  0  0  0  0  0  0
    1.2410   -2.6837   -0.8074 H   0  0  0  0  0  0  0  0  0  0  0  0
    1.4255   -2.3260    0.9221 H   0  0  0  0  0  0  0  0  0  0  0  0
   -1.9306    0.5523    0.3380 H   0  0  0  0  0  0  0  0  0  0  0  0
   -2.3121   -0.3540   -0.9479 H   0  0  0  0  0  0  0  0  0  0  0  0
    2.0354    0.7601   -1.5950 H   0  0  0  0  0  0  0  0  0  0  0  0
    5.1582   -1.8007   -2.0588 H   0  0  0  0  0  0  0  0  0  0  0  0
  1 11  1  0
  2 14  1  0
  3  2  1  0
  3  1  1  0
  4 15  1  0
  4  1  1  0
  5  3  2  0
  6 10  1  0
  6 17  1  0
  8 10  2  0
  9  2  1  0
 10  7  1  0
 10  9  1  0
 12  1  1  0
 13  2  1  0
 16  4  1  0
 18  7  1  0
M  END
>  <HBA>  (3) 
6

>  <HBD>  (3) 
3

>  <TPSA>  (3) 
119.66

>  <cid>  (3) 
5

>  <dipole>  (3) 
3.46

>  <excitation_energy_1>  (3) 
4.245

>  <excitation_energy_2>  (3) 
5.121

>  <excitation_energy_3>  (3) 
5.732

>  <excitation_energy_4>  (3) 
5.876

>  <homo_energy>  (3) 
-7.029

>  <homo_lumo_gap>  (3) 
5.567

>  <logP>  (3) 
-0.676

>  <lumo_energy>  (3) 
-1.461

>  <melting_point>  (3) 
130.8

>  <molecular_refractivity>  (3) 
31.51

>  <oscillator_strength_1>  (3) 
0.0001

>  <oscillator_strength_2>  (3) 
0.0001

>  <oscillator_strength_3>  (3) 
0.0018

>  <oscillator_strength_4>  (3) 
0.0098

>  <open_babel_can_smiles>  (3) 
NCC(=O)COP(=O)(O)O

>  <mulliken_charges>  (3) 
18
1   -0.245504
2   -0.126751
3   0.439452
4   -0.683042
5   -0.462317
6   -0.642377
7   -0.613135
8   -0.563443
9   -0.519854
10   1.130502
11   0.183548
12   0.180534
13   0.207595
14   0.182627
15   0.314094
16   0.311711
17   0.462776
18   0.443585

>  <lowdin_charges>  (3) 
18
1   -0.237996
2   -0.161494
3   0.15065
4   -0.526728
5   -0.238137
6   -0.559023
7   -0.548562
8   -0.598981
9   -0.388809
10   1.118539
11   0.17026
12   0.16897
13   0.186922
14   0.17241
15   0.26471
16   0.262639
17   0.376887
18   0.387741

$$$$
PCCDB-ID:  7
     RDKit          3D

 21 22  0  0  1  0  0  0  0  0999 V2000
    3.7436   -0.3983   -0.6969 C   0  0  0  0  0  0  0  0  0  0  0  0
    2.5528    0.0400    0.1574 C   0  0  0  0  0  0  0  0  0  0  0  0
    4.5952   -0.1172    4.0264 C   0  0  0  0  0  0  0  0  0  0  0  0
    2.6883    2.4253    1.0639 C   0  0  0  0  0  0  0  0  0  0  0  0
    3.7146    2.1293    2.8941 C   0  0  0  0  0  0  0  0  0  0  0  0
    4.3668    2.1768    4.1438 C   0  0  0  0  0  3  0  0  0  0  0  0
    3.5770    0.8578    2.3261 C   0  0  0  0  0  0  0  0  0  0  0  0
    4.6008    3.3464    4.7955 N   0  0  0  0  0  0  0  0  0  0  0  0
    4.7971    1.0293    4.6975 N   0  0  0  0  0  0  0  0  0  0  0  0
    4.0016   -0.3038    2.8436 N   0  0  0  0  0  2  0  0  0  0  0  0
    3.1484    3.1026    2.0895 N   0  0  0  0  0  0  0  0  0  0  0  0
    2.9073    1.0637    1.1376 N   0  0  0  0  0  0  0  0  0  0  0  0
    3.4259   -1.1592   -1.4184 H   0  0  0  0  0  0  0  0  0  0  0  0
    4.5265   -0.8278   -0.0653 H   0  0  0  0  0  0  0  0  0  0  0  0
    4.1645    0.4480   -1.2502 H   0  0  0  0  0  0  0  0  0  0  0  0
    2.1459   -0.8131    0.7085 H   0  0  0  0  0  0  0  0  0  0  0  0
    1.7503    0.4500   -0.4642 H   0  0  0  0  0  0  0  0  0  0  0  0
    4.9658   -1.0139    4.5192 H   0  0  0  0  0  0  0  0  0  0  0  0
    2.1695    2.8570    0.2166 H   0  0  0  0  0  0  0  0  0  0  0  0
    4.1095    4.1741    4.4919 H   0  0  0  0  0  0  0  0  0  0  0  0
    4.8993    3.2901    5.7584 H   0  0  0  0  0  0  0  0  0  0  0  0
  1 14  1  0
  1  2  1  0
  2 16  1  0
  2 12  1  0
  3 18  1  0
  3  9  2  0
  4 12  1  0
  4 11  2  0
  5  6  1  0
  6  9  1  0
  6  8  1  0
  7 10  1  0
  7  5  2  0
  8 21  1  0
 10  3  1  0
 11  5  1  0
 12  7  1  0
 13  1  1  0
 15  1  1  0
 17  2  1  0
 19  4  1  0
 20  8  1  0
M  RAD  2   6   2  10   2
M  END
>  <HBA>  (4) 
5

>  <HBD>  (4) 
1

>  <TPSA>  (4) 
69.62

>  <cid>  (4) 
7

>  <dipole>  (4) 
2.48

>  <excitation_energy_1>  (4) 
4.949

>  <excitation_energy_2>  (4) 
4.986

>  <excitation_energy_3>  (4) 
5.215

>  <excitation_energy_4>  (4) 
5.433

>  <homo_energy>  (4) 
-5.842

>  <homo_lumo_gap>  (4) 
5.442

>  <logP>  (4) 
1.01

>  <lumo_energy>  (4) 
-0.4

>  <melting_point>  (4) 
146.83

>  <molecular_refractivity>  (4) 
45.8

>  <oscillator_strength_1>  (4) 
0.1801

>  <oscillator_strength_2>  (4) 
0.0314

>  <oscillator_strength_3>  (4) 
0.0366

>  <oscillator_strength_4>  (4) 
0.0102

>  <open_babel_can_smiles>  (4) 
CCn1cnc2c1[N]C=N[C]2N

>  <mulliken_charges>  (4) 
21
1   -0.448121
2   -0.151743
3   0.160899
4   0.213715
5   0.193071
6   0.483482
7   0.513626
8   -0.77493
9   -0.509117
10   -0.510597
11   -0.527562
12   -0.474722
13   0.153341
14   0.186059
15   0.154996
16   0.184461
17   0.156449
18   0.142533
19   0.159211
20   0.352578
21   0.34237

>  <lowdin_charges>  (4) 
21
1   -0.452989
2   -0.189017
3   -0.037176
4   -0.067197
5   -0.062936
6   0.120071
7   0.056413
8   -0.441993
9   -0.223617
10   -0.211215
11   -0.195717
12   -0.025588
13   0.15928
14   0.171175
15   0.155754
16   0.170216
17   0.157099
18   0.157503
19   0.16897
20   0.298621
21   0.292342

$$$$
PCCDB-ID:  8
     RDKit          3D

 22 21  0  0  1  0  0  0  0  0999 V2000
    0.5556   -0.2660   -0.2087 C   0  0  0  0  0  0  0  0  0  0  0  0
    2.5501    1.9638   -1.2570 C   0  0  0  0  0  0  0  0  0  0  0  0
    2.0651   -0.1707    0.0426 C   0  0  0  0  0  0  0  0  0  0  0  0
    2.0975    2.1716    1.2138 C   0  0  2  0  0  0  0  0  0  0  0  0
    1.9768    1.5237    2.6153 C   0  0  0  0  0  0  0  0  0  0  0  0
    2.6625    1.2472    0.0986 C   0  0  2  0  0  0  0  0  0  0  0  0
    2.9147    3.3456    1.3031 O   0  0  0  0  0  0  0  0  0  0  0  0
    1.3532    0.5115    2.8368 O   0  0  0  0  0  0  0  0  0  0  0  0
    2.5787    2.2284    3.5834 O   0  0  0  0  0  0  0  0  0  0  0  0
    4.0600    1.1577    0.4726 O   0  0  0  0  0  0  0  0  0  0  0  0
    0.2592   -1.3179   -0.2792 H   0  0  0  0  0  0  0  0  0  0  0  0
    0.2520    0.2216   -1.1419 H   0  0  0  0  0  0  0  0  0  0  0  0
   -0.0043    0.1732    0.6215 H   0  0  0  0  0  0  0  0  0  0  0  0
    1.5060    2.0792   -1.5637 H   0  0  0  0  0  0  0  0  0  0  0  0
    3.0597    1.3788   -2.0332 H   0  0  0  0  0  0  0  0  0  0  0  0
    3.0033    2.9575   -1.2132 H   0  0  0  0  0  0  0  0  0  0  0  0
    2.6007   -0.6990   -0.7609 H   0  0  0  0  0  0  0  0  0  0  0  0
    2.3069   -0.6789    0.9781 H   0  0  0  0  0  0  0  0  0  0  0  0
    1.0905    2.4984    0.9346 H   0  0  0  0  0  0  0  0  0  0  0  0
    3.8103    3.0277    1.0678 H   0  0  0  0  0  0  0  0  0  0  0  0
    2.9589    3.0172    3.1349 H   0  0  0  0  0  0  0  0  0  0  0  0
    4.5417    0.7306   -0.2528 H   0  0  0  0  0  0  0  0  0  0  0  0
  1  3  1  0
  1 13  1  0
  2 16  1  0
  2  6  1  0
  3  6  1  0
  3 18  1  0
  4 19  1  6
  4  7  1  0
  4  5  1  0
  5  8  2  0
  5  9  1  0
  6 10  1  1
  6  4  1  0
 11  1  1  0
 12  1  1  0
 14  2  1  0
 15  2  1  0
 17  3  1  0
 20  7  1  0
 21  9  1  0
 22 10  1  0
M  END
>  <HBA>  (5) 
4

>  <HBD>  (5) 
3

>  <TPSA>  (5) 
77.76

>  <cid>  (5) 
8

>  <dipole>  (5) 
4.79

>  <excitation_energy_1>  (5) 
5.491

>  <excitation_energy_2>  (5) 
6.234

>  <excitation_energy_3>  (5) 
6.82

>  <excitation_energy_4>  (5) 
6.935

>  <homo_energy>  (5) 
-6.974

>  <homo_lumo_gap>  (5) 
7.285

>  <logP>  (5) 
-0.407

>  <lumo_energy>  (5) 
0.31

>  <melting_point>  (5) 
98.85

>  <molecular_refractivity>  (5) 
35.09

>  <oscillator_strength_1>  (5) 
0.0006

>  <oscillator_strength_2>  (5) 
0.0037

>  <oscillator_strength_3>  (5) 
0.0154

>  <oscillator_strength_4>  (5) 
0.0119

>  <open_babel_can_smiles>  (5) 
CC[C@@]([C@@H](C(=O)O)O)(O)C

>  <mulliken_charges>  (5) 
22
1   -0.462523
2   -0.466719
3   -0.259074
4   0.037358
5   0.599271
6   0.260735
7   -0.664591
8   -0.462421
9   -0.573788
10   -0.665715
11   0.153017
12   0.136828
13   0.173172
14   0.160622
15   0.139013
16   0.164468
17   0.113952
18   0.183155
19   0.180661
20   0.422878
21   0.426701
22   0.403001

>  <lowdin_charges>  (5) 
22
1   -0.451101
2   -0.460142
3   -0.287902
4   -0.047704
5   0.173846
6   0.112935
7   -0.458552
8   -0.252341
9   -0.342015
10   -0.469119
11   0.157353
12   0.143
13   0.162767
14   0.160556
15   0.15057
16   0.161126
17   0.137102
18   0.170281
19   0.17202
20   0.351893
21   0.362958
22   0.352469

$$$$
PCCDB-ID:  12
     RDKit          3D

 16 16  0  0  0  0  0  0  0  0999 V2000
   -0.6968    1.2209   -0.0060 C   0  0  0  0  0  0  0  0  0  0  0  0
   -0.6882   -1.2024    0.0003 C   0  0  0  0  0  0  0  0  0  0  0  0
   -1.3865    0.0062   -0.0002 C   0  0  0  0  0  0  0  0  0  0  0  0
    0.7005    1.1997   -0.0106 C   0  0  0  0  0  0  0  0  0  0  0  0
    0.7092   -1.2038   -0.0042 C   0  0  0  0  0  0  0  0  0  0  0  0
    1.4219    0.0038   -0.0094 C   0  0  0  0  0  0  0  0  0  0  0  0
   -2.7567   -0.0640    0.0041 O   0  0  0  0  0  0  0  0  0  0  0  0
    1.4778    2.3378   -0.0185 O   0  0  0  0  0  0  0  0  0  0  0  0
    1.4454   -2.3531   -0.0028 O   0  0  0  0  0  0  0  0  0  0  0  0
    2.7905   -0.0102   -0.0124 O   0  0  0  0  0  0  0  0  0  0  0  0
   -1.2317    2.1692   -0.0102 H   0  0  0  0  0  0  0  0  0  0  0  0
   -1.2451   -2.1352    0.0041 H   0  0  0  0  0  0  0  0  0  0  0  0
   -3.1166    0.8358    0.0017 H   0  0  0  0  0  0  0  0  0  0  0  0
    0.9089    3.1207    0.0121 H   0  0  0  0  0  0  0  0  0  0  0  0
    0.8358   -3.1069    0.0020 H   0  0  0  0  0  0  0  0  0  0  0  0
    3.0800    0.9175   -0.0099 H   0  0  0  0  0  0  0  0  0  0  0  0
  1  3  2  0
  2 12  1  0
  3  2  1  0
  3  7  1  0
  4  6  2  0
  4  1  1  0
  5  9  1  0
  5  2  2  0
  6  5  1  0
  8  4  1  0
  8 14  1  0
  9 15  1  0
 10 16  1  0
 10  6  1  0
 11  1  1  0
 13  7  1  0
M  END
>  <HBA>  (6) 
4

>  <HBD>  (6) 
4

>  <TPSA>  (6) 
80.92

>  <cid>  (6) 
12

>  <dipole>  (6) 
3.64

>  <excitation_energy_1>  (6) 
4.233

>  <excitation_energy_2>  (6) 
4.569

>  <excitation_energy_3>  (6) 
4.77

>  <excitation_energy_4>  (6) 
4.87

>  <homo_energy>  (6) 
-5.11

>  <homo_lumo_gap>  (6) 
5.614

>  <logP>  (6) 
0.509

>  <lumo_energy>  (6) 
0.503

>  <melting_point>  (6) 
166.21

>  <molecular_refractivity>  (6) 
34.53

>  <oscillator_strength_1>  (6) 
0.0017

>  <oscillator_strength_2>  (6) 
0.0

>  <oscillator_strength_3>  (6) 
0.0531

>  <oscillator_strength_4>  (6) 
0.0004

>  <open_babel_can_smiles>  (6) 
Oc1cc(O)c(c(c1)O)O

>  <mulliken_charges>  (6) 
16
1   -0.282653
2   -0.252438
3   0.359775
4   0.313258
5   0.320581
6   0.272677
7   -0.654111
8   -0.680302
9   -0.633286
10   -0.650798
11   0.105139
12   0.12658
13   0.406061
14   0.416583
15   0.409539
16   0.423393

>  <lowdin_charges>  (6) 
16
1   -0.283783
2   -0.256383
3   0.108187
4   0.073206
5   0.094585
6   0.035349
7   -0.384865
8   -0.398756
9   -0.365086
10   -0.379023
11   0.14979
12   0.164441
13   0.355335
14   0.365007
15   0.360258
16   0.361737

$$$$
PCCDB-ID:  17
     RDKit          3D

 19 19  0  0  1  0  0  0  0  0999 V2000
    1.4110   -0.4019   -0.6667 C   0  0  0  0  0  0  0  0  0  0  0  0
    0.9659    0.8421   -0.9038 C   0  0  0  0  0  0  0  0  0  0  0  0
    0.6873   -1.3023    0.3004 C   0  0  0  0  0  0  0  0  0  0  0  0
   -0.2258    1.3079   -0.1823 C   0  0  0  0  0  0  0  0  0  0  0  0
   -0.7916   -0.9008    0.3832 C   0  0  1  0  0  0  0  0  0  0  0  0
   -0.4885    2.7952   -0.1919 C   0  0  0  0  0  0  0  0  0  0  0  0
   -1.5132   -1.5853    1.5591 C   0  0  0  0  0  0  0  0  0  0  0  0
   -1.0407    0.5418    0.4454 N   0  0  0  0  0  0  0  0  0  0  0  0
   -1.5225    3.1625    0.5855 O   0  0  0  0  0  0  0  0  0  0  0  0
    0.1717    3.5747   -0.8464 O   0  0  0  0  0  0  0  0  0  0  0  0
   -1.2809   -2.7261    1.8811 O   0  0  0  0  0  0  0  0  0  0  0  0
   -2.4312   -0.8212    2.1677 O   0  0  0  0  0  0  0  0  0  0  0  0
    2.3337   -0.7556   -1.1210 H   0  0  0  0  0  0  0  0  0  0  0  0
    1.4812    1.5450   -1.5473 H   0  0  0  0  0  0  0  0  0  0  0  0
    1.1668   -1.2383    1.2899 H   0  0  0  0  0  0  0  0  0  0  0  0
    0.7564   -2.3528    0.0069 H   0  0  0  0  0  0  0  0  0  0  0  0
   -1.3021   -1.2559   -0.5289 H   0  0  0  0  0  0  0  0  0  0  0  0
   -1.5949    4.1315    0.4949 H   0  0  0  0  0  0  0  0  0  0  0  0
   -2.3662    0.0737    1.7596 H   0  0  0  0  0  0  0  0  0  0  0  0
  1  3  1  0
  2  1  2  0
  2  4  1  0
  3  5  1  0
  3 15  1  0
  4  8  2  0
  5 17  1  6
  5  8  1  0
  5  7  1  0
  6  4  1  0
  6  9  1  0
  7 11  2  0
  7 12  1  0
 10  6  2  0
 13  1  1  0
 14  2  1  0
 16  3  1  0
 18  9  1  0
 19 12  1  0
M  END
>  <HBA>  (7) 
5

>  <HBD>  (7) 
2

>  <TPSA>  (7) 
86.96

>  <cid>  (7) 
17

>  <dipole>  (7) 
3.78

>  <excitation_energy_1>  (7) 
3.738

>  <excitation_energy_2>  (7) 
3.977

>  <excitation_energy_3>  (7) 
4.289

>  <excitation_energy_4>  (7) 
4.808

>  <homo_energy>  (7) 
-7.168

>  <homo_lumo_gap>  (7) 
4.542

>  <logP>  (7) 
-0.639

>  <lumo_energy>  (7) 
-2.626

>  <melting_point>  (7) 
177.32

>  <molecular_refractivity>  (7) 
43.73

>  <oscillator_strength_1>  (7) 
0.0065

>  <oscillator_strength_2>  (7) 
0.0231

>  <oscillator_strength_3>  (7) 
0.0393

>  <oscillator_strength_4>  (7) 
0.0066

>  <open_babel_can_smiles>  (7) 
OC(=O)[C@@H]1CC=CC(=N1)C(=O)O

>  <mulliken_charges>  (7) 
19
1   -0.112962
2   -0.128314
3   -0.313411
4   0.258353
5   -0.086313
6   0.563917
7   0.60966
8   -0.502468
9   -0.554034
10   -0.452082
11   -0.462631
12   -0.576869
13   0.160409
14   0.175415
15   0.180514
16   0.189359
17   0.195431
18   0.41929
19   0.436734

>  <lowdin_charges>  (7) 
19
1   -0.108858
2   -0.194792
3   -0.2774
4   0.038684
5   -0.105831
6   0.188825
7   0.179133
8   -0.162436
9   -0.327236
10   -0.251019
11   -0.250475
12   -0.34259
13   0.170713
14   0.186681
15   0.169821
16   0.179123
17   0.178094
18   0.366905
19   0.362659

$$$$
PCCDB-ID:  19
     RDKit          3D

 17 17  0  0  0  0  0  0  0  0999 V2000
   -1.2421   -0.6779   -0.0775 C   0  0  0  0  0  0  0  0  0  0  0  0
   -0.0414   -1.3610   -0.0724 C   0  0  0  0  0  0  0  0  0  0  0  0
   -1.2445    0.7255   -0.0421 C   0  0  0  0  0  0  0  0  0  0  0  0
    1.1892   -0.6659   -0.0317 C   0  0  0  0  0  0  0  0  0  0  0  0
   -0.0557    1.4382   -0.0017 C   0  0  0  0  0  0  0  0  0  0  0  0
    1.1860    0.7504    0.0048 C   0  0  0  0  0  0  0  0  0  0  0  0
    2.5047   -1.3463   -0.0244 C   0  0  0  0  0  0  0  0  0  0  0  0
    0.0135    2.7982    0.0340 O   0  0  0  0  0  0  0  0  0  0  0  0
    2.2926    1.4999    0.0456 O   0  0  0  0  0  0  0  0  0  0  0  0
    3.5719   -0.7427    0.0141 O   0  0  0  0  0  0  0  0  0  0  0  0
    2.5511   -2.6942   -0.0620 O   0  0  0  0  0  0  0  0  0  0  0  0
   -2.1825   -1.2182   -0.1087 H   0  0  0  0  0  0  0  0  0  0  0  0
   -0.0729   -2.4481   -0.1001 H   0  0  0  0  0  0  0  0  0  0  0  0
   -2.1884    1.2676   -0.0462 H   0  0  0  0  0  0  0  0  0  0  0  0
   -0.8879    3.1562    0.0269 H   0  0  0  0  0  0  0  0  0  0  0  0
    3.0601    0.8704    0.0453 H   0  0  0  0  0  0  0  0  0  0  0  0
    1.6585   -3.0719   -0.0908 H   0  0  0  0  0  0  0  0  0  0  0  0
  1  2  2  0
  1  3  1  0
  2  4  1  0
  3  5  2  0
  4  7  1  0
  4  6  2  0
  5  6  1  0
  5  8  1  0
  6  9  1  0
  7 10  2  0
 11  7  1  0
 12  1  1  0
 13  2  1  0
 14  3  1  0
 15  8  1  0
 16  9  1  0
 17 11  1  0
M  END
>  <HBA>  (8) 
4

>  <HBD>  (8) 
3

>  <TPSA>  (8) 
77.76

>  <cid>  (8) 
19

>  <dipole>  (8) 
5.44

>  <excitation_energy_1>  (8) 
3.953

>  <excitation_energy_2>  (8) 
4.968

>  <excitation_energy_3>  (8) 
5.041

>  <excitation_energy_4>  (8) 
5.068

>  <homo_energy>  (8) 
-5.989

>  <homo_lumo_gap>  (8) 
4.509

>  <logP>  (8) 
0.796

>  <lumo_energy>  (8) 
-1.48

>  <melting_point>  (8) 
176.59

>  <molecular_refractivity>  (8) 
37.45

>  <oscillator_strength_1>  (8) 
0.0772

>  <oscillator_strength_2>  (8) 
0.0

>  <oscillator_strength_3>  (8) 
0.0024

>  <oscillator_strength_4>  (8) 
0.0814

>  <open_babel_can_smiles>  (8) 
OC(=O)c1cccc(c1O)O

>  <mulliken_charges>  (8) 
17
1   -0.139956
2   -0.217622
3   -0.192249
4   0.029924
5   0.325978
6   0.271612
7   0.586628
8   -0.620093
9   -0.631271
10   -0.510476
11   -0.57175
12   0.137992
13   0.115428
14   0.129741
15   0.410558
16   0.450311
17   0.425245

>  <lowdin_charges>  (8) 
17
1   -0.168663
2   -0.171152
3   -0.191308
4   -0.113783
5   0.081405
6   0.110883
7   0.213616
8   -0.357203
9   -0.349656
10   -0.280896
11   -0.337364
12   0.164213
13   0.147706
14   0.160019
15   0.359679
16   0.373401
17   0.359104

$$$$
PCCDB-ID:  21
     RDKit          3D

 20 19  0  0  1  0  0  0  0  0999 V2000
    2.5790   -1.4470    0.2650 C   0  0  0  0  0  0  0  0  0  0  0  0
    1.1074    2.8236    1.2293 C   0  0  0  0  0  0  0  0  0  0  0  0
    2.1326    0.0180    0.2612 C   0  0  0  0  0  0  0  0  0  0  0  0
    2.5412    2.3872    1.1253 C   0  0  0  0  0  0  0  0  0  0  0  0
    2.5672    0.4217    2.7270 C   0  0  0  0  0  0  0  0  0  0  0  0
    2.9060    0.8877    1.2800 C   0  0  1  0  0  0  0  0  0  0  0  0
    3.4596    3.1588    0.8954 O   0  0  0  0  0  0  0  0  0  0  0  0
    1.4362    0.3659    3.1519 O   0  0  0  0  0  0  0  0  0  0  0  0
    3.6430    0.0819    3.4412 O   0  0  0  0  0  0  0  0  0  0  0  0
    4.3077    0.7667    1.0843 O   0  0  0  0  0  0  0  0  0  0  0  0
    2.0320   -2.0086   -0.4994 H   0  0  0  0  0  0  0  0  0  0  0  0
    2.3805   -1.9229    1.2320 H   0  0  0  0  0  0  0  0  0  0  0  0
    3.6483   -1.5297    0.0511 H   0  0  0  0  0  0  0  0  0  0  0  0
    0.6151    2.3290    2.0711 H   0  0  0  0  0  0  0  0  0  0  0  0
    0.5708    2.5243    0.3197 H   0  0  0  0  0  0  0  0  0  0  0  0
    1.0632    3.9104    1.3223 H   0  0  0  0  0  0  0  0  0  0  0  0
    1.0656    0.0868    0.4949 H   0  0  0  0  0  0  0  0  0  0  0  0
    2.2870    0.4511   -0.7351 H   0  0  0  0  0  0  0  0  0  0  0  0
    4.4092    0.2065    2.8330 H   0  0  0  0  0  0  0  0  0  0  0  0
    4.6109    1.6876    0.9093 H   0  0  0  0  0  0  0  0  0  0  0  0
  1 12  1  0
  2 16  1  0
  2 14  1  0
  3  1  1  0
  3 17  1  0
  3  6  1  0
  4  2  1  0
  4  6  1  0
  5  8  2  0
  5  9  1  0
  6 10  1  6
  6  5  1  0
  7  4  2  0
 11  1  1  0
 13  1  1  0
 15  2  1  0
 18  3  1  0
 19  9  1  0
 20 10  1  0
M  END
>  <HBA>  (9) 
4

>  <HBD>  (9) 
2

>  <TPSA>  (9) 
74.6

>  <cid>  (9) 
21

>  <dipole>  (9) 
2.68

>  <excitation_energy_1>  (9) 
4.622

>  <excitation_energy_2>  (9) 
4.973

>  <excitation_energy_3>  (9) 
5.953

>  <excitation_energy_4>  (9) 
6.461

>  <homo_energy>  (9) 
-7.353

>  <homo_lumo_gap>  (9) 
5.921

>  <logP>  (9) 
-0.199

>  <lumo_energy>  (9) 
-1.431

>  <melting_point>  (9) 
101.63

>  <molecular_refractivity>  (9) 
34.13

>  <oscillator_strength_1>  (9) 
0.0019

>  <oscillator_strength_2>  (9) 
0.0177

>  <oscillator_strength_3>  (9) 
0.0063

>  <oscillator_strength_4>  (9) 
0.0162

>  <open_babel_can_smiles>  (9) 
CC[C@](C(=O)O)(C(=O)C)O

>  <mulliken_charges>  (9) 
20
1   -0.464067
2   -0.544597
3   -0.267253
4   0.444199
5   0.597042
6   0.140291
7   -0.455772
8   -0.46118
9   -0.569747
10   -0.690082
11   0.15454
12   0.165589
13   0.172033
14   0.221273
15   0.18765
16   0.187398
17   0.168844
18   0.149578
19   0.439117
20   0.425144

>  <lowdin_charges>  (9) 
20
1   -0.447721
2   -0.472601
3   -0.27063
4   0.170593
5   0.175218
6   0.044499
7   -0.235043
8   -0.254341
9   -0.332602
10   -0.454147
11   0.159512
12   0.158121
13   0.160471
14   0.197293
15   0.18403
16   0.177699
17   0.16205
18   0.15147
19   0.369707
20   0.356421

$$$$
PCCDB-ID:  22
     RDKit          3D

 17 16  0  0  1  0  0  0  0  0999 V2000
    3.6681   -0.7139   -1.1789 C   0  0  0  0  0  0  0  0  0  0  0  0
    4.3376   -0.8979    1.8821 C   0  0  0  0  0  0  0  0  0  0  0  0
    2.7447   -0.3688   -0.0452 C   0  0  0  0  0  0  0  0  0  0  0  0
    4.0392    1.4850    1.1028 C   0  0  0  0  0  0  0  0  0  0  0  0
    3.3311    0.1118    1.3079 C   0  0  2  0  0  0  0  0  0  0  0  0
    1.5297   -0.4657   -0.1179 O   0  0  0  0  0  0  0  0  0  0  0  0
    5.0265    1.6222    0.4179 O   0  0  0  0  0  0  0  0  0  0  0  0
    3.4550    2.4842    1.7678 O   0  0  0  0  0  0  0  0  0  0  0  0
    2.2474    0.2908    2.2079 O   0  0  0  0  0  0  0  0  0  0  0  0
    4.1697   -1.6658   -0.9621 H   0  0  0  0  0  0  0  0  0  0  0  0
    4.4491    0.0448   -1.2819 H   0  0  0  0  0  0  0  0  0  0  0  0
    3.0916   -0.8207   -2.0997 H   0  0  0  0  0  0  0  0  0  0  0  0
    5.2383   -0.9428    1.2658 H   0  0  0  0  0  0  0  0  0  0  0  0
    3.8824   -1.8911    1.9472 H   0  0  0  0  0  0  0  0  0  0  0  0
    4.6203   -0.5845    2.8913 H   0  0  0  0  0  0  0  0  0  0  0  0
    2.6996    2.0707    2.2487 H   0  0  0  0  0  0  0  0  0  0  0  0
    1.4471    0.0743    1.6758 H   0  0  0  0  0  0  0  0  0  0  0  0
  1 10  1  0
  1  3  1  0
  2 14  1  0
  2 15  1  0
  4  5  1  0
  4  8  1  0
  5  3  1  0
  5  2  1  0
  5  9  1  1
  6  3  2  0
  7  4  2  0
  8 16  1  0
 11  1  1  0
 12  1  1  0
 13  2  1  0
 17  9  1  0
M  END
>  <HBA>  (10) 
4

>  <HBD>  (10) 
2

>  <TPSA>  (10) 
74.6

>  <cid>  (10) 
22

>  <dipole>  (10) 
2.67

>  <excitation_energy_1>  (10) 
4.617

>  <excitation_energy_2>  (10) 
4.975

>  <excitation_energy_3>  (10) 
5.975

>  <excitation_energy_4>  (10) 
6.499

>  <homo_energy>  (10) 
-7.374

>  <homo_lumo_gap>  (10) 
5.91

>  <logP>  (10) 
-0.589

>  <lumo_energy>  (10) 
-1.464

>  <melting_point>  (10) 
102.29

>  <molecular_refractivity>  (10) 
29.32

>  <oscillator_strength_1>  (10) 
0.0028

>  <oscillator_strength_2>  (10) 
0.0162

>  <oscillator_strength_3>  (10) 
0.0065

>  <oscillator_strength_4>  (10) 
0.0108

>  <open_babel_can_smiles>  (10) 
CC(=O)[C@@](C(=O)O)(O)C

>  <mulliken_charges>  (10) 
17
1   -0.544389
2   -0.456443
3   0.445502
4   0.595895
5   0.137062
6   -0.453176
7   -0.458165
8   -0.567271
9   -0.684653
10   0.18704
11   0.221887
12   0.188063
13   0.180709
14   0.164523
15   0.179462
16   0.439002
17   0.424952

>  <lowdin_charges>  (10) 
17
1   -0.472621
2   -0.438672
3   0.165824
4   0.173634
5   0.048766
6   -0.232365
7   -0.253106
8   -0.331614
9   -0.454372
10   0.183541
11   0.197388
12   0.179948
13   0.172712
14   0.161474
15   0.17151
16   0.369986
17   0.357968

$$$$
PCCDB-ID:  28
     RDKit          3D

 18 17  0  0  0  0  0  0  0  0999 V2000
    0.0192    0.7031   -0.1120 C   0  0  0  0  0  0  0  0  0  0  0  0
   -0.3532   -0.6810   -0.0416 C   0  0  0  0  0  0  0  0  0  0  0  0
    1.2937    1.1268    0.0647 C   0  0  0  0  0  0  0  0  0  0  0  0
   -1.5936   -1.2353   -0.1984 C   0  0  0  0  0  0  0  0  0  0  0  0
    1.6281    2.5538   -0.0110 C   0  0  0  0  0  0  0  0  0  0  0  0
   -2.8192   -0.4192   -0.4618 C   0  0  0  0  0  0  0  0  0  0  0  0
   -1.7968   -2.6020   -0.1679 N   0  0  0  0  0  0  0  0  0  0  0  0
    2.9609    2.7664    0.1922 O   0  0  0  0  0  0  0  0  0  0  0  0
    0.8564    3.4718   -0.2223 O   0  0  0  0  0  0  0  0  0  0  0  0
   -3.9420   -1.1919   -0.4417 O   0  0  0  0  0  0  0  0  0  0  0  0
   -2.8718    0.7748   -0.6604 O   0  0  0  0  0  0  0  0  0  0  0  0
   -0.7471    1.4432   -0.3146 H   0  0  0  0  0  0  0  0  0  0  0  0
    0.4570   -1.3833    0.1603 H   0  0  0  0  0  0  0  0  0  0  0  0
    2.1079    0.4355    0.2647 H   0  0  0  0  0  0  0  0  0  0  0  0
   -1.0643   -3.1647    0.2430 H   0  0  0  0  0  0  0  0  0  0  0  0
   -2.7361   -2.9216    0.0193 H   0  0  0  0  0  0  0  0  0  0  0  0
    3.0812    3.7315    0.1242 H   0  0  0  0  0  0  0  0  0  0  0  0
   -4.6854   -0.5860   -0.6180 H   0  0  0  0  0  0  0  0  0  0  0  0
  1  2  1  0
  1  3  2  0
  2 13  1  0
  3 14  1  0
  4  7  1  0
  4  2  2  0
  5  3  1  0
  5  8  1  0
  6 10  1  0
  6  4  1  0
  7 16  1  0
  7 15  1  0
  9  5  2  0
 11  6  2  0
 12  1  1  0
 17  8  1  0
 18 10  1  0
M  END
>  <HBA>  (11) 
5

>  <HBD>  (11) 
3

>  <TPSA>  (11) 
100.62

>  <cid>  (11) 
28

>  <dipole>  (11) 
5.12

>  <excitation_energy_1>  (11) 
3.614

>  <excitation_energy_2>  (11) 
4.058

>  <excitation_energy_3>  (11) 
4.526

>  <excitation_energy_4>  (11) 
4.913

>  <homo_energy>  (11) 
-5.736

>  <homo_lumo_gap>  (11) 
3.649

>  <logP>  (11) 
0.255

>  <lumo_energy>  (11) 
-2.087

>  <melting_point>  (11) 
205.0

>  <molecular_refractivity>  (11) 
36.26

>  <oscillator_strength_1>  (11) 
0.5521

>  <oscillator_strength_2>  (11) 
0.0

>  <oscillator_strength_3>  (11) 
0.0001

>  <oscillator_strength_4>  (11) 
0.0177

>  <open_babel_can_smiles>  (11) 
OC(=O)/C=C/C=C(\C(=O)O)/N

>  <mulliken_charges>  (11) 
18
1   -0.075415
2   -0.208999
3   -0.203905
4   0.283496
5   0.558577
6   0.574752
7   -0.783901
8   -0.591498
9   -0.48633
10   -0.599139
11   -0.457034
12   0.208411
13   0.123948
14   0.140297
15   0.334081
16   0.356863
17   0.404061
18   0.421736

>  <lowdin_charges>  (11) 
18
1   -0.100282
2   -0.189324
3   -0.218343
4   0.030044
5   0.192676
6   0.194321
7   -0.463756
8   -0.372532
9   -0.287046
10   -0.366586
11   -0.242568
12   0.196326
13   0.156929
14   0.1645
15   0.285996
16   0.29412
17   0.355296
18   0.370227

$$$$
PCCDB-ID:  29
     RDKit          3D

 12 11  0  0  1  0  0  0  0  0999 V2000
    0.8497    0.0136    0.0610 C   0  0  0  0  0  0  0  0  0  0  0  0
    0.1186   -1.1665   -0.5677 C   0  0  1  0  0  0  0  0  0  0  0  0
    0.5502   -2.5386    0.0302 C   0  0  0  0  0  0  0  0  0  0  0  0
   -1.3131   -0.9311   -0.5766 N   0  0  0  0  0  0  0  0  0  0  0  0
    2.0324   -0.0049    0.3512 O   0  0  0  0  0  0  0  0  0  0  0  0
   -0.2589   -3.4128    0.2213 O   0  0  0  0  0  0  0  0  0  0  0  0
    1.8600   -2.6939    0.2619 O   0  0  0  0  0  0  0  0  0  0  0  0
    0.2278    0.9153    0.2155 H   0  0  0  0  0  0  0  0  0  0  0  0
    0.4750   -1.1768   -1.6108 H   0  0  0  0  0  0  0  0  0  0  0  0
   -1.7021   -1.2271    0.3186 H   0  0  0  0  0  0  0  0  0  0  0  0
   -1.7476   -1.5478   -1.2594 H   0  0  0  0  0  0  0  0  0  0  0  0
    2.3033   -1.8141    0.2102 H   0  0  0  0  0  0  0  0  0  0  0  0
  1  8  1  0
  1  5  2  0
  2  9  1  6
  2  3  1  0
  2  1  1  0
  3  6  2  0
  3  7  1  0
  4  2  1  0
  4 10  1  0
 11  4  1  0
 12  7  1  0
M  END
>  <HBA>  (12) 
4

>  <HBD>  (12) 
2

>  <TPSA>  (12) 
80.39

>  <cid>  (12) 
29

>  <dipole>  (12) 
2.85

>  <excitation_energy_1>  (12) 
4.123

>  <excitation_energy_2>  (12) 
4.783

>  <excitation_energy_3>  (12) 
5.172

>  <excitation_energy_4>  (12) 
5.681

>  <homo_energy>  (12) 
-7.295

>  <homo_lumo_gap>  (12) 
5.459

>  <logP>  (12) 
-0.703

>  <lumo_energy>  (12) 
-1.837

>  <melting_point>  (12) 
138.56

>  <molecular_refractivity>  (12) 
21.21

>  <oscillator_strength_1>  (12) 
0.0042

>  <oscillator_strength_2>  (12) 
0.0043

>  <oscillator_strength_3>  (12) 
0.0194

>  <oscillator_strength_4>  (12) 
0.0002

>  <open_babel_can_smiles>  (12) 
O=C[C@@H](C(=O)O)N

>  <mulliken_charges>  (12) 
12
1   0.262596
2   -0.194309
3   0.585025
4   -0.700324
5   -0.402206
6   -0.441072
7   -0.570537
8   0.167764
9   0.212575
10   0.319949
11   0.325351
12   0.435188

>  <lowdin_charges>  (12) 
12
1   0.063259
2   -0.151895
3   0.176517
4   -0.529174
5   -0.219983
6   -0.243767
7   -0.347938
8   0.155144
9   0.192352
10   0.269036
11   0.275504
12   0.360947

$$$$
PCCDB-ID:  30
     RDKit          3D

 17 16  0  0  0  0  0  0  0  0999 V2000
    1.2176   -0.9484    1.4071 C   0  0  0  0  0  0  0  0  0  0  0  0
   -0.0120   -0.8863    0.8338 C   0  0  0  0  0  0  0  0  0  0  0  0
    2.4012   -0.3429    0.8622 C   0  0  0  0  0  0  0  0  0  0  0  0
   -1.1758   -1.4943    1.4713 C   0  0  0  0  0  0  0  0  0  0  0  0
    3.6744   -0.3873    1.3661 C   0  0  0  0  0  0  0  0  0  0  0  0
    4.1314   -1.2384    2.5309 C   0  0  0  0  0  0  0  0  0  0  0  0
    4.7189    0.3347    0.8531 N   0  0  0  0  0  0  0  0  0  0  0  0
   -2.3058   -1.4804    1.0117 O   0  0  0  0  0  0  0  0  0  0  0  0
    5.0446   -0.8911    3.2433 O   0  0  0  0  0  0  0  0  0  0  0  0
    3.5075   -2.4185    2.7245 O   0  0  0  0  0  0  0  0  0  0  0  0
    1.2874   -1.4549    2.3703 H   0  0  0  0  0  0  0  0  0  0  0  0
   -0.1768   -0.3819   -0.1160 H   0  0  0  0  0  0  0  0  0  0  0  0
    2.2505    0.2830   -0.0172 H   0  0  0  0  0  0  0  0  0  0  0  0
   -0.9628   -1.9958    2.4445 H   0  0  0  0  0  0  0  0  0  0  0  0
    4.5095    1.1469    0.2891 H   0  0  0  0  0  0  0  0  0  0  0  0
    5.5198    0.4219    1.4676 H   0  0  0  0  0  0  0  0  0  0  0  0
    2.9220   -2.6083    1.9714 H   0  0  0  0  0  0  0  0  0  0  0  0
  1 11  1  0
  2  1  2  0
  2  4  1  0
  3  5  2  0
  3  1  1  0
  4 14  1  0
  5  6  1  0
  6 10  1  0
  6  9  2  0
  7  5  1  0
  7 16  1  0
  8  4  2  0
 12  2  1  0
 13  3  1  0
 15  7  1  0
 17 10  1  0
M  END
>  <HBA>  (13) 
4

>  <HBD>  (13) 
2

>  <TPSA>  (13) 
80.39

>  <cid>  (13) 
30

>  <dipole>  (13) 
4.5

>  <excitation_energy_1>  (13) 
3.193

>  <excitation_energy_2>  (13) 
3.763

>  <excitation_energy_3>  (13) 
4.657

>  <excitation_energy_4>  (13) 
4.826

>  <homo_energy>  (13) 
-6.182

>  <homo_lumo_gap>  (13) 
3.731

>  <logP>  (13) 
0.369

>  <lumo_energy>  (13) 
-2.452

>  <melting_point>  (13) 
159.57

>  <molecular_refractivity>  (13) 
34.69

>  <oscillator_strength_1>  (13) 
0.0006

>  <oscillator_strength_2>  (13) 
0.6143

>  <oscillator_strength_3>  (13) 
0.0009

>  <oscillator_strength_4>  (13) 
0.1729

>  <open_babel_can_smiles>  (13) 
O=C/C=C/C=C(\C(=O)O)/N

>  <mulliken_charges>  (13) 
17
1   -0.146068
2   -0.169852
3   -0.206317
4   0.222604
5   0.254762
6   0.570393
7   -0.762397
8   -0.424793
9   -0.442448
10   -0.557887
11   0.153908
12   0.145744
13   0.139709
14   0.092604
15   0.341872
16   0.364607
17   0.42356

>  <lowdin_charges>  (13) 
17
1   -0.139636
2   -0.205184
3   -0.22318
4   0.031647
5   0.024398
6   0.191824
7   -0.438458
8   -0.239675
9   -0.232014
10   -0.331288
11   0.161549
12   0.166354
13   0.165293
14   0.109064
15   0.289955
16   0.302418
17   0.366932

$$$$
PCCDB-ID:  31
     RDKit          3D

 26 25  0  0  1  0  0  0  0  0999 V2000
    2.2434   -2.0063    0.3457 C   0  0  0  0  0  0  0  0  0  0  0  0
    3.8942    0.5036    0.6041 C   0  0  0  0  0  0  0  0  0  0  0  0
    0.2067   -0.7113    1.0881 C   0  0  0  0  0  0  0  0  0  0  0  0
    2.4289    0.4743    1.0517 C   0  0  2  0  0  0  0  0  0  0  0  0
    1.5734   -0.6281    0.3801 C   0  0  1  0  0  0  0  0  0  0  0  0
   -0.6560   -1.4312    0.2030 O   0  0  0  0  0  0  0  0  0  0  0  0
    1.7989    1.7395    0.7874 O   0  0  0  0  0  0  0  0  0  0  0  0
    1.3488   -0.1493   -0.9563 O   0  0  0  0  0  0  0  0  0  0  0  0
    5.9004    2.6519   -0.4526 O   0  0  0  0  0  0  0  0  0  0  0  0
    3.7486    3.5693    0.3708 O   0  0  0  0  0  0  0  0  0  0  0  0
    5.8676    3.5945    1.9695 O   0  0  0  0  0  0  0  0  0  0  0  0
    4.6196    1.4269    1.4312 O   0  0  0  0  0  0  0  0  0  0  0  0
    5.0847    2.9009    0.9305 P   0  0  0  0  0  0  0  0  0  0  0  0
    2.5851   -2.3094    1.3428 H   0  0  0  0  0  0  0  0  0  0  0  0
    3.0977   -2.0064   -0.3358 H   0  0  0  0  0  0  0  0  0  0  0  0
    1.5255   -2.7524   -0.0084 H   0  0  0  0  0  0  0  0  0  0  0  0
    3.9740    0.7638   -0.4569 H   0  0  0  0  0  0  0  0  0  0  0  0
    4.3629   -0.4713    0.7565 H   0  0  0  0  0  0  0  0  0  0  0  0
   -0.1718    0.3014    1.2709 H   0  0  0  0  0  0  0  0  0  0  0  0
    0.3111   -1.2309    2.0509 H   0  0  0  0  0  0  0  0  0  0  0  0
    2.4134    0.3433    2.1394 H   0  0  0  0  0  0  0  0  0  0  0  0
   -1.5737   -1.2821    0.4733 H   0  0  0  0  0  0  0  0  0  0  0  0
    1.4659    1.6424   -0.1303 H   0  0  0  0  0  0  0  0  0  0  0  0
    0.5074   -0.5562   -1.2365 H   0  0  0  0  0  0  0  0  0  0  0  0
    6.8486    2.7691   -0.2778 H   0  0  0  0  0  0  0  0  0  0  0  0
    2.9479    3.0578    0.6551 H   0  0  0  0  0  0  0  0  0  0  0  0
  1  5  1  0
  1 14  1  0
  2 18  1  0
  2  4  1  0
  2 12  1  0
  3 19  1  0
  3 20  1  0
  4 21  1  1
  5  8  1  6
  5  4  1  0
  5  3  1  0
  6 22  1  0
  6  3  1  0
  7  4  1  0
  9 25  1  0
  9 13  1  0
 10 26  1  0
 10 13  1  0
 13 12  1  0
 13 11  2  0
 15  1  1  0
 16  1  1  0
 17  2  1  0
 23  7  1  0
 24  8  1  0
M  END
>  <HBA>  (14) 
7

>  <HBD>  (14) 
5

>  <TPSA>  (14) 
137.26

>  <cid>  (14) 
31

>  <dipole>  (14) 
7.99

>  <excitation_energy_1>  (14) 
6.573

>  <excitation_energy_2>  (14) 
6.793

>  <excitation_energy_3>  (14) 
6.853

>  <excitation_energy_4>  (14) 
6.884

>  <homo_energy>  (14) 
-7.423

>  <homo_lumo_gap>  (14) 
8.294

>  <logP>  (14) 
-1.8

>  <lumo_energy>  (14) 
0.871

>  <melting_point>  (14) 
120.71

>  <molecular_refractivity>  (14) 
41.74

>  <oscillator_strength_1>  (14) 
0.0062

>  <oscillator_strength_2>  (14) 
0.0036

>  <oscillator_strength_3>  (14) 
0.0184

>  <oscillator_strength_4>  (14) 
0.003

>  <open_babel_can_smiles>  (14) 
OC[C@]([C@@H](COP(=O)(O)O)O)(O)C

>  <mulliken_charges>  (14) 
26
1   -0.479496
2   -0.078355
3   -0.065956
4   0.117398
5   0.271628
6   -0.637415
7   -0.662097
8   -0.674526
9   -0.657646
10   -0.681685
11   -0.534189
12   -0.532861
13   1.158318
14   0.149668
15   0.168497
16   0.174755
17   0.183093
18   0.164363
19   0.156404
20   0.141681
21   0.162575
22   0.412516
23   0.42388
24   0.421705
25   0.436905
26   0.460841

>  <lowdin_charges>  (14) 
26
1   -0.459748
2   -0.14141
3   -0.154803
4   -0.017658
5   0.097217
6   -0.469175
7   -0.452699
8   -0.465851
9   -0.573912
10   -0.581825
11   -0.578022
12   -0.400748
13   1.113778
14   0.155351
15   0.163761
16   0.169563
17   0.164498
18   0.161207
19   0.147621
20   0.14214
21   0.157919
22   0.357834
23   0.352366
24   0.354922
25   0.382267
26   0.375406

$$$$
PCCDB-ID:  36
     RDKit          3D

 24 23  0  0  1  0  0  0  0  0999 V2000
    2.6874    0.7969    1.3755 C   0  0  0  0  0  0  0  0  0  0  0  0
    2.6548    0.7597   -1.1552 C   0  0  0  0  0  0  0  0  0  0  0  0
    2.4331   -0.0608    0.1242 C   0  0  0  0  0  0  0  0  0  0  0  0
    3.2240   -1.4160    0.1282 C   0  0  1  0  0  0  0  0  0  0  0  0
    2.6124   -2.4028   -0.9149 C   0  0  1  0  0  0  0  0  0  0  0  0
    4.7144   -1.1982   -0.1043 C   0  0  0  0  0  0  0  0  0  0  0  0
    3.1705   -3.8394   -0.7940 C   0  0  0  0  0  0  0  0  0  0  0  0
    1.2187   -2.4710   -0.7420 O   0  0  0  0  0  0  0  0  0  0  0  0
    5.3035   -1.5096   -1.1242 O   0  0  0  0  0  0  0  0  0  0  0  0
    5.4072   -0.5989    0.8827 O   0  0  0  0  0  0  0  0  0  0  0  0
    2.4557   -4.7258   -0.3705 O   0  0  0  0  0  0  0  0  0  0  0  0
    4.4230   -4.0642   -1.1824 O   0  0  0  0  0  0  0  0  0  0  0  0
    1.9436    1.5987    1.4349 H   0  0  0  0  0  0  0  0  0  0  0  0
    3.6684    1.2885    1.3556 H   0  0  0  0  0  0  0  0  0  0  0  0
    2.5986    0.2110    2.3006 H   0  0  0  0  0  0  0  0  0  0  0  0
    2.0197    1.6522   -1.1411 H   0  0  0  0  0  0  0  0  0  0  0  0
    2.3995    0.1925   -2.0557 H   0  0  0  0  0  0  0  0  0  0  0  0
    3.6948    1.0954   -1.2510 H   0  0  0  0  0  0  0  0  0  0  0  0
    1.3864   -0.3780    0.1523 H   0  0  0  0  0  0  0  0  0  0  0  0
    3.0895   -1.8669    1.1226 H   0  0  0  0  0  0  0  0  0  0  0  0
    2.8412   -2.0310   -1.9221 H   0  0  0  0  0  0  0  0  0  0  0  0
    1.0506   -3.3867   -0.4349 H   0  0  0  0  0  0  0  0  0  0  0  0
    4.8226   -0.3984    1.6327 H   0  0  0  0  0  0  0  0  0  0  0  0
    4.8477   -3.2132   -1.4442 H   0  0  0  0  0  0  0  0  0  0  0  0
  1 13  1  0
  1 15  1  0
  2 16  1  0
  2  3  1  0
  3  4  1  0
  3 19  1  0
  3  1  1  0
  4 20  1  1
  5 21  1  6
  5  7  1  0
  5  8  1  0
  5  4  1  0
  6  4  1  0
  6 10  1  0
  7 11  2  0
  8 22  1  0
  9  6  2  0
 10 23  1  0
 12  7  1  0
 14  1  1  0
 17  2  1  0
 18  2  1  0
 24 12  1  0
M  END
>  <HBA>  (15) 
5

>  <HBD>  (15) 
3

>  <TPSA>  (15) 
94.83

>  <cid>  (15) 
36

>  <dipole>  (15) 
4.72

>  <excitation_energy_1>  (15) 
5.593

>  <excitation_energy_2>  (15) 
5.889

>  <excitation_energy_3>  (15) 
6.094

>  <excitation_energy_4>  (15) 
6.284

>  <homo_energy>  (15) 
-7.717

>  <homo_lumo_gap>  (15) 
6.898

>  <logP>  (15) 
-0.211

>  <lumo_energy>  (15) 
-0.819

>  <melting_point>  (15) 
145.71

>  <molecular_refractivity>  (15) 
40.47

>  <oscillator_strength_1>  (15) 
0.0033

>  <oscillator_strength_2>  (15) 
0.0011

>  <oscillator_strength_3>  (15) 
0.0071

>  <oscillator_strength_4>  (15) 
0.0027

>  <open_babel_can_smiles>  (15) 
CC([C@@H]([C@@H](C(=O)O)O)C(=O)O)C

>  <mulliken_charges>  (15) 
24
1   -0.497812
2   -0.467403
3   -0.074531
4   -0.246759
5   0.046146
6   0.627806
7   0.577817
8   -0.642932
9   -0.488853
10   -0.551276
11   -0.471745
12   -0.574441
13   0.170686
14   0.150922
15   0.145713
16   0.155996
17   0.166756
18   0.15779
19   0.190828
20   0.158014
21   0.167498
22   0.418458
23   0.42753
24   0.453791

>  <lowdin_charges>  (15) 
24
1   -0.462185
2   -0.449699
3   -0.121321
4   -0.183981
5   -0.042924
6   0.210003
7   0.180537
8   -0.452291
9   -0.270454
10   -0.325456
11   -0.260792
12   -0.335213
13   0.167028
14   0.147725
15   0.147966
16   0.159144
17   0.160221
18   0.1523
19   0.171078
20   0.161168
21   0.157111
22   0.354179
23   0.366933
24   0.368923

$$$$
PCCDB-ID:  38
     RDKit          3D

 20 19  0  0  0  0  0  0  0  0999 V2000
    0.9115   -0.1182    0.0878 C   0  0  0  0  0  0  0  0  0  0  0  0
    3.0867    0.0183    1.3948 C   0  0  0  0  0  0  0  0  0  0  0  0
    2.9254   -1.3796   -0.7297 C   0  0  0  0  0  0  0  0  0  0  0  0
    2.8273    1.1536   -0.8350 C   0  0  0  0  0  0  0  0  0  0  0  0
    4.3035    1.6039   -0.8769 C   0  0  0  0  0  0  0  0  0  0  0  0
    2.4462   -0.0701   -0.0043 C   0  0  0  0  0  0  0  0  0  0  0  0
    4.2891   -1.6930   -0.5983 O   0  0  0  0  0  0  0  0  0  0  0  0
    2.0571    1.7790   -1.5342 O   0  0  0  0  0  0  0  0  0  0  0  0
    4.4446    2.9045   -0.6047 O   0  0  0  0  0  0  0  0  0  0  0  0
    5.2261    0.8796   -1.2011 O   0  0  0  0  0  0  0  0  0  0  0  0
    0.6047   -0.9638    0.7123 H   0  0  0  0  0  0  0  0  0  0  0  0
    0.4552   -0.2291   -0.9003 H   0  0  0  0  0  0  0  0  0  0  0  0
    0.5130    0.7996    0.5314 H   0  0  0  0  0  0  0  0  0  0  0  0
    2.7705   -0.8414    1.9952 H   0  0  0  0  0  0  0  0  0  0  0  0
    2.7760    0.9293    1.9194 H   0  0  0  0  0  0  0  0  0  0  0  0
    4.1780   -0.0108    1.3413 H   0  0  0  0  0  0  0  0  0  0  0  0
    2.6077   -1.3325   -1.7849 H   0  0  0  0  0  0  0  0  0  0  0  0
    2.3815   -2.2088   -0.2640 H   0  0  0  0  0  0  0  0  0  0  0  0
    4.8047   -0.9728   -1.0070 H   0  0  0  0  0  0  0  0  0  0  0  0
    5.3912    3.1212   -0.7202 H   0  0  0  0  0  0  0  0  0  0  0  0
  1 13  1  0
  1 11  1  0
  2 15  1  0
  2 14  1  0
  3  7  1  0
  3 18  1  0
  3  6  1  0
  4  6  1  0
  5  4  1  0
  5  9  1  0
  6  1  1  0
  6  2  1  0
  8  4  2  0
 10  5  2  0
 12  1  1  0
 16  2  1  0
 17  3  1  0
 19  7  1  0
 20  9  1  0
M  END
>  <HBA>  (16) 
4

>  <HBD>  (16) 
2

>  <TPSA>  (16) 
74.6

>  <cid>  (16) 
38

>  <dipole>  (16) 
1.9

>  <excitation_energy_1>  (16) 
3.688

>  <excitation_energy_2>  (16) 
4.422

>  <excitation_energy_3>  (16) 
5.325

>  <excitation_energy_4>  (16) 
5.798

>  <homo_energy>  (16) 
-7.127

>  <homo_lumo_gap>  (16) 
5.241

>  <logP>  (16) 
-0.341

>  <lumo_energy>  (16) 
-1.886

>  <melting_point>  (16) 
109.29

>  <molecular_refractivity>  (16) 
33.83

>  <oscillator_strength_1>  (16) 
0.0003

>  <oscillator_strength_2>  (16) 
0.0078

>  <oscillator_strength_3>  (16) 
0.0022

>  <oscillator_strength_4>  (16) 
0.0017

>  <open_babel_can_smiles>  (16) 
OCC(C(=O)C(=O)O)(C)C

>  <mulliken_charges>  (16) 
20
1   -0.448053
2   -0.463431
3   -0.031306
4   0.407935
5   0.536185
6   -0.039873
7   -0.634519
8   -0.415142
9   -0.527398
10   -0.464622
11   0.147057
12   0.165339
13   0.157957
14   0.16227
15   0.150061
16   0.169284
17   0.131794
18   0.151192
19   0.424007
20   0.421262

>  <lowdin_charges>  (16) 
20
1   -0.437642
2   -0.445359
3   -0.131123
4   0.143197
5   0.184772
6   -0.039883
7   -0.471553
8   -0.187406
9   -0.31057
10   -0.257569
11   0.154187
12   0.161877
13   0.15991
14   0.16454
15   0.152812
16   0.160892
17   0.131141
18   0.153349
19   0.345979
20   0.36845

$$$$
PCCDB-ID:  39
     RDKit          3D

 17 17  0  0  0  0  0  0  0  0999 V2000
    0.8580   -0.0104   -0.0531 C   0  0  0  0  0  0  0  0  0  0  0  0
    2.9103    0.2329    1.4162 C   0  0  0  0  0  0  0  0  0  0  0  0
    2.9651    1.1163   -0.9938 C   0  0  0  0  0  0  0  0  0  0  0  0
    2.9647   -1.2450   -0.6008 C   0  0  0  0  0  0  0  0  0  0  0  0
    3.8159   -0.8920   -1.8356 C   0  0  0  0  0  0  0  0  0  0  0  0
    2.3976    0.0478   -0.0254 C   0  0  0  0  0  0  0  0  0  0  0  0
    2.7989   -2.3667   -0.1888 O   0  0  0  0  0  0  0  0  0  0  0  0
    4.4231   -1.6437   -2.5484 O   0  0  0  0  0  0  0  0  0  0  0  0
    3.7729    0.4509   -2.0010 O   0  0  0  0  0  0  0  0  0  0  0  0
    0.4340    0.9132    0.3571 H   0  0  0  0  0  0  0  0  0  0  0  0
    0.5049   -0.8540    0.5477 H   0  0  0  0  0  0  0  0  0  0  0  0
    0.4775   -0.1361   -1.0730 H   0  0  0  0  0  0  0  0  0  0  0  0
    2.5136    1.1599    1.8458 H   0  0  0  0  0  0  0  0  0  0  0  0
    4.0044    0.2824    1.4518 H   0  0  0  0  0  0  0  0  0  0  0  0
    2.5874   -0.6070    2.0388 H   0  0  0  0  0  0  0  0  0  0  0  0
    3.6149    1.8381   -0.4910 H   0  0  0  0  0  0  0  0  0  0  0  0
    2.1806    1.6627   -1.5251 H   0  0  0  0  0  0  0  0  0  0  0  0
  1  6  1  0
  1 10  1  0
  1 11  1  0
  2 14  1  0
  2 13  1  0
  2 15  1  0
  3 16  1  0
  3  6  1  0
  4  7  2  0
  4  6  1  0
  5  4  1  0
  6  2  1  0
  8  5  2  0
  9  5  1  0
  9  3  1  0
 12  1  1  0
 17  3  1  0
M  END
>  <HBA>  (17) 
3

>  <HBD>  (17) 
0

>  <TPSA>  (17) 
43.37

>  <cid>  (17) 
39

>  <dipole>  (17) 
5.44

>  <excitation_energy_1>  (17) 
3.026

>  <excitation_energy_2>  (17) 
4.661

>  <excitation_energy_3>  (17) 
5.471

>  <excitation_energy_4>  (17) 
6.135

>  <homo_energy>  (17) 
-6.934

>  <homo_lumo_gap>  (17) 
4.599

>  <logP>  (17) 
0.139

>  <lumo_energy>  (17) 
-2.335

>  <melting_point>  (17) 
48.53

>  <molecular_refractivity>  (17) 
30.07

>  <oscillator_strength_1>  (17) 
0.0002

>  <oscillator_strength_2>  (17) 
0.0

>  <oscillator_strength_3>  (17) 
0.0591

>  <oscillator_strength_4>  (17) 
0.0024

>  <open_babel_can_smiles>  (17) 
O=C1C(=O)OCC1(C)C

>  <mulliken_charges>  (17) 
17
1   -0.456139
2   -0.456178
3   -0.059569
4   0.378442
5   0.571399
6   -0.025244
7   -0.415121
8   -0.422746
9   -0.447942
10   0.157265
11   0.178868
12   0.159617
13   0.157364
14   0.159696
15   0.178866
16   0.17071
17   0.170712

>  <lowdin_charges>  (17) 
17
1   -0.434188
2   -0.432821
3   -0.128308
4   0.125914
5   0.154505
6   -0.038541
7   -0.165497
8   -0.193934
9   -0.175537
10   0.157853
11   0.169267
12   0.157041
13   0.157825
14   0.155841
15   0.169234
16   0.160781
17   0.160565

$$$$
PCCDB-ID:  40
     RDKit          3D

 23 23  0  0  1  0  0  0  0  0999 V2000
    0.6759    1.2634   -0.2931 C   0  0  0  0  0  0  0  0  0  0  0  0
   -1.0366   -1.4337    1.8047 C   0  0  0  0  0  0  0  0  0  0  0  0
    1.4798    0.0394    0.1532 C   0  0  2  0  0  0  0  0  0  0  0  0
   -0.7659   -1.2044    0.3134 C   0  0  2  0  0  0  0  0  0  0  0  0
   -0.7462    1.2352    0.2699 C   0  0  1  0  0  0  0  0  0  0  0  0
    0.7129   -1.2559   -0.1437 C   0  0  2  0  0  0  0  0  0  0  0  0
   -2.4339   -1.4047    2.0492 O   0  0  0  0  0  0  0  0  0  0  0  0
    1.7201    0.0388    1.5707 O   0  0  0  0  0  0  0  0  0  0  0  0
   -1.5351    2.2922   -0.1862 O   0  0  0  0  0  0  0  0  0  0  0  0
    1.3902   -2.3783    0.3947 O   0  0  0  0  0  0  0  0  0  0  0  0
   -1.3961    0.0221   -0.1182 O   0  0  0  0  0  0  0  0  0  0  0  0
    0.6127    1.2710   -1.3905 H   0  0  0  0  0  0  0  0  0  0  0  0
    1.1744    2.1920    0.0117 H   0  0  0  0  0  0  0  0  0  0  0  0
   -0.5035   -0.6982    2.4234 H   0  0  0  0  0  0  0  0  0  0  0  0
   -0.6783   -2.4287    2.0837 H   0  0  0  0  0  0  0  0  0  0  0  0
    2.4423   -0.0045   -0.3765 H   0  0  0  0  0  0  0  0  0  0  0  0
   -1.3160   -1.9826   -0.2255 H   0  0  0  0  0  0  0  0  0  0  0  0
   -0.7259    1.3352    1.3611 H   0  0  0  0  0  0  0  0  0  0  0  0
    0.7091   -1.3838   -1.2327 H   0  0  0  0  0  0  0  0  0  0  0  0
   -2.7717   -0.6426    1.5481 H   0  0  0  0  0  0  0  0  0  0  0  0
    2.3930    0.7070    1.7705 H   0  0  0  0  0  0  0  0  0  0  0  0
   -1.6769    2.1488   -1.1374 H   0  0  0  0  0  0  0  0  0  0  0  0
    1.7252   -2.0873    1.2612 H   0  0  0  0  0  0  0  0  0  0  0  0
  1 13  1  0
  1  3  1  0
  1  5  1  0
  2  7  1  0
  2 15  1  0
  2 14  1  0
  3 16  1  6
  3  8  1  0
  4 17  1  6
  4  2  1  0
  5 18  1  1
  6 19  1  6
  6  3  1  0
  6  4  1  0
  6 10  1  0
  8 21  1  0
  9  5  1  0
 10 23  1  0
 11  5  1  0
 11  4  1  0
 12  1  1  0
 20  7  1  0
 22  9  1  0
M  END
>  <HBA>  (18) 
5

>  <HBD>  (18) 
4

>  <TPSA>  (18) 
90.15

>  <cid>  (18) 
40

>  <dipole>  (18) 
4.65

>  <excitation_energy_1>  (18) 
5.871

>  <excitation_energy_2>  (18) 
6.279

>  <excitation_energy_3>  (18) 
6.418

>  <excitation_energy_4>  (18) 
6.545

>  <homo_energy>  (18) 
-6.743

>  <homo_lumo_gap>  (18) 
7.793

>  <logP>  (18) 
-2.192

>  <lumo_energy>  (18) 
1.05

>  <melting_point>  (18) 
61.54

>  <molecular_refractivity>  (18) 
34.57

>  <oscillator_strength_1>  (18) 
0.0056

>  <oscillator_strength_2>  (18) 
0.0012

>  <oscillator_strength_3>  (18) 
0.0132

>  <oscillator_strength_4>  (18) 
0.0044

>  <open_babel_can_smiles>  (18) 
OC[C@H]1O[C@H](O)C[C@H]([C@H]1O)O

>  <mulliken_charges>  (18) 
23
1   -0.308041
2   -0.049338
3   0.073237
4   0.0811
5   0.348658
6   0.127318
7   -0.629131
8   -0.641463
9   -0.607409
10   -0.639623
11   -0.522027
12   0.136293
13   0.145355
14   0.14161
15   0.151617
16   0.13711
17   0.157132
18   0.145419
19   0.143237
20   0.400365
21   0.405335
22   0.392429
23   0.410815

>  <lowdin_charges>  (18) 
23
1   -0.318446
2   -0.160806
3   -0.023236
4   -0.035711
5   0.098315
6   -0.023817
7   -0.47098
8   -0.471653
9   -0.423472
10   -0.452167
11   -0.291629
12   0.149557
13   0.155238
14   0.136942
15   0.154414
16   0.14042
17   0.160095
18   0.137655
19   0.149286
20   0.343572
21   0.354374
22   0.344207
23   0.347843

$$$$
PCCDB-ID:  42
     RDKit          3D

 25 24  0  0  0  0  0  0  0  0999 V2000
    1.3446    0.2334   -0.4747 C   0  0  0  0  0  0  0  0  0  0  0  0
    0.3182    0.0253   -1.3332 C   0  0  0  0  0  0  0  0  0  0  0  0
    2.7093    0.3597   -0.9245 C   0  0  0  0  0  0  0  0  0  0  0  0
   -1.5038   -0.0871    0.5120 C   0  0  0  0  0  0  0  0  0  0  0  0
   -3.0150    0.1054    0.7553 C   0  0  0  0  0  0  0  0  0  0  0  0
   -1.0923   -0.1408   -0.9542 C   0  0  0  0  0  0  0  0  0  0  0  0
    3.8002    0.5716   -0.1497 C   0  0  0  0  0  0  0  0  0  0  0  0
   -3.8672   -1.1612    0.6136 C   0  0  0  0  0  0  0  0  0  0  0  0
    3.8086    0.7260    1.3497 C   0  0  0  0  0  0  0  0  0  0  0  0
   -1.9223   -0.3320   -1.8485 O   0  0  0  0  0  0  0  0  0  0  0  0
    5.0673    0.6746   -0.6570 O   0  0  0  0  0  0  0  0  0  0  0  0
   -4.4583   -1.6547    1.5462 O   0  0  0  0  0  0  0  0  0  0  0  0
   -3.9287   -1.6951   -0.6193 O   0  0  0  0  0  0  0  0  0  0  0  0
    2.8136    0.6825    2.0361 O   0  0  0  0  0  0  0  0  0  0  0  0
    5.0261    0.9224    1.8856 O   0  0  0  0  0  0  0  0  0  0  0  0
    1.1801    0.3084    0.5940 H   0  0  0  0  0  0  0  0  0  0  0  0
    0.4944   -0.0509   -2.4047 H   0  0  0  0  0  0  0  0  0  0  0  0
    2.8744    0.2742   -2.0000 H   0  0  0  0  0  0  0  0  0  0  0  0
   -1.1498   -1.0056    1.0019 H   0  0  0  0  0  0  0  0  0  0  0  0
   -0.9595    0.7306    0.9977 H   0  0  0  0  0  0  0  0  0  0  0  0
   -3.3969    0.8742    0.0717 H   0  0  0  0  0  0  0  0  0  0  0  0
   -3.1663    0.4590    1.7768 H   0  0  0  0  0  0  0  0  0  0  0  0
    5.0631    0.5725   -1.6231 H   0  0  0  0  0  0  0  0  0  0  0  0
   -3.3596   -1.1699   -1.2305 H   0  0  0  0  0  0  0  0  0  0  0  0
    5.6968    0.9246    1.1771 H   0  0  0  0  0  0  0  0  0  0  0  0
  1 16  1  0
  2  6  1  0
  2  1  2  0
  3  1  1  0
  3  7  2  0
  4  5  1  0
  4 20  1  0
  4 19  1  0
  5 22  1  0
  6  4  1  0
  7  9  1  0
  8  5  1  0
  8 12  2  0
  9 15  1  0
  9 14  2  0
 10  6  2  0
 11  7  1  0
 13  8  1  0
 17  2  1  0
 18  3  1  0
 21  5  1  0
 23 11  1  0
 24 13  1  0
 25 15  1  0
M  END
>  <HBA>  (19) 
6

>  <HBD>  (19) 
3

>  <TPSA>  (19) 
111.9

>  <cid>  (19) 
42

>  <dipole>  (19) 
10.85

>  <excitation_energy_1>  (19) 
3.227

>  <excitation_energy_2>  (19) 
3.499

>  <excitation_energy_3>  (19) 
4.088

>  <excitation_energy_4>  (19) 
4.106

>  <homo_energy>  (19) 
-6.705

>  <homo_lumo_gap>  (19) 
3.646

>  <logP>  (19) 
0.503

>  <lumo_energy>  (19) 
-3.059

>  <melting_point>  (19) 
181.44

>  <molecular_refractivity>  (19) 
49.74

>  <oscillator_strength_1>  (19) 
0.0063

>  <oscillator_strength_2>  (19) 
0.0032

>  <oscillator_strength_3>  (19) 
0.7239

>  <oscillator_strength_4>  (19) 
0.0027

>  <open_babel_can_smiles>  (19) 
O=C(CCC(=O)O)/C=C/C=C(\C(=O)O)/O

>  <mulliken_charges>  (19) 
25
1   -0.097364
2   -0.192403
3   -0.203686
4   -0.382734
5   -0.376541
6   0.457317
7   0.290185
8   0.575453
9   0.607286
10   -0.502598
11   -0.65687
12   -0.452154
13   -0.588651
14   -0.452683
15   -0.570093
16   0.208749
17   0.151786
18   0.139572
19   0.199133
20   0.181405
21   0.171816
22   0.179229
23   0.431277
24   0.44123
25   0.441341

>  <lowdin_charges>  (19) 
25
1   -0.108123
2   -0.189679
3   -0.181688
4   -0.310002
5   -0.315508
6   0.171625
7   0.064209
8   0.187356
9   0.193655
10   -0.263483
11   -0.371934
12   -0.259238
13   -0.37262
14   -0.234019
15   -0.333002
16   0.190947
17   0.167865
18   0.161593
19   0.182011
20   0.17485
21   0.167794
22   0.175038
23   0.371665
24   0.358991
25   0.371695

$$$$
PCCDB-ID:  43
     RDKit          3D

 18 17  0  0  1  0  0  0  0  0999 V2000
    1.1382   -0.1612   -0.0442 C   0  0  0  0  0  0  0  0  0  0  0  0
    0.4537   -0.4299    1.3058 C   0  0  0  0  0  0  0  0  0  0  0  0
    2.6686    0.0148   -0.0405 C   0  0  1  0  0  0  0  0  0  0  0  0
    0.7636   -1.7701    1.9494 C   0  0  0  0  0  0  0  0  0  0  0  0
    3.1418    0.9628    1.0827 C   0  0  0  0  0  0  0  0  0  0  0  0
    3.4177   -1.1963   -0.0047 O   0  0  0  0  0  0  0  0  0  0  0  0
    1.6525   -2.5246    1.6072 O   0  0  0  0  0  0  0  0  0  0  0  0
   -0.0176   -2.1208    2.9915 O   0  0  0  0  0  0  0  0  0  0  0  0
    2.5474    1.9700    1.3990 O   0  0  0  0  0  0  0  0  0  0  0  0
    4.2828    0.5675    1.6611 O   0  0  0  0  0  0  0  0  0  0  0  0
    0.7088    0.7673   -0.4321 H   0  0  0  0  0  0  0  0  0  0  0  0
    0.8938   -0.9544   -0.7594 H   0  0  0  0  0  0  0  0  0  0  0  0
   -0.6345   -0.3586    1.1716 H   0  0  0  0  0  0  0  0  0  0  0  0
    0.7238    0.3627    2.0169 H   0  0  0  0  0  0  0  0  0  0  0  0
    2.9408    0.5070   -0.9833 H   0  0  0  0  0  0  0  0  0  0  0  0
    2.9016   -1.8411    0.5301 H   0  0  0  0  0  0  0  0  0  0  0  0
   -0.6787   -1.4306    3.1683 H   0  0  0  0  0  0  0  0  0  0  0  0
    4.5018   -0.2913    1.2273 H   0  0  0  0  0  0  0  0  0  0  0  0
  1  3  1  0
  1  2  1  0
  2  4  1  0
  2 14  1  0
  3 15  1  6
  3  6  1  0
  3  5  1  0
  4  8  1  0
  5  9  2  0
  5 10  1  0
  6 16  1  0
  7  4  2  0
  8 17  1  0
 11  1  1  0
 12  1  1  0
 13  2  1  0
 18 10  1  0
M  END
>  <HBA>  (20) 
5

>  <HBD>  (20) 
3

>  <TPSA>  (20) 
94.83

>  <cid>  (20) 
43

>  <dipole>  (20) 
4.22

>  <excitation_energy_1>  (20) 
5.393

>  <excitation_energy_2>  (20) 
5.736

>  <excitation_energy_3>  (20) 
5.834

>  <excitation_energy_4>  (20) 
6.001

>  <homo_energy>  (20) 
-6.996

>  <homo_lumo_gap>  (20) 
6.384

>  <logP>  (20) 
-0.703

>  <lumo_energy>  (20) 
-0.612

>  <melting_point>  (20) 
147.04

>  <molecular_refractivity>  (20) 
30.85

>  <oscillator_strength_1>  (20) 
0.0025

>  <oscillator_strength_2>  (20) 
0.0045

>  <oscillator_strength_3>  (20) 
0.0006

>  <oscillator_strength_4>  (20) 
0.0006

>  <open_babel_can_smiles>  (20) 
OC(=O)CC[C@@H](C(=O)O)O

>  <mulliken_charges>  (20) 
18
1   -0.28806
2   -0.431677
3   0.030919
4   0.627377
5   0.579482
6   -0.675333
7   -0.466274
8   -0.546921
9   -0.474023
10   -0.571208
11   0.174493
12   0.170368
13   0.169265
14   0.221926
15   0.18097
16   0.444005
17   0.423104
18   0.431587

>  <lowdin_charges>  (20) 
18
1   -0.282188
2   -0.331405
3   -0.046293
4   0.211963
5   0.165477
6   -0.477904
7   -0.255462
8   -0.332408
9   -0.268401
10   -0.342293
11   0.174422
12   0.16501
13   0.166271
14   0.192241
15   0.170955
16   0.355924
17   0.368499
18   0.365594

$$$$
PCCDB-ID:  45
     RDKit          3D

 12 11  0  0  0  0  0  0  0  0999 V2000
    0.8781    0.0928    0.0272 C   0  0  0  0  0  0  0  0  0  0  0  0
    0.1075    1.3970    0.2584 C   0  0  0  0  0  0  0  0  0  0  0  0
    0.4479   -0.5670   -1.3000 C   0  0  0  0  0  0  0  0  0  0  0  0
    2.2644    0.3258    0.0257 O   0  0  0  0  0  0  0  0  0  0  0  0
   -1.1096    1.4179    0.2394 O   0  0  0  0  0  0  0  0  0  0  0  0
    0.8645    2.4632    0.4753 O   0  0  0  0  0  0  0  0  0  0  0  0
    1.2981   -0.9890   -2.0528 O   0  0  0  0  0  0  0  0  0  0  0  0
   -0.8580   -0.6619   -1.5152 O   0  0  0  0  0  0  0  0  0  0  0  0
    0.5934   -0.5904    0.8424 H   0  0  0  0  0  0  0  0  0  0  0  0
    2.5945   -0.0942   -0.7983 H   0  0  0  0  0  0  0  0  0  0  0  0
    1.7976    2.1580    0.3973 H   0  0  0  0  0  0  0  0  0  0  0  0
   -1.3296   -0.0870   -0.8619 H   0  0  0  0  0  0  0  0  0  0  0  0
  1  2  1  0
  1  9  1  0
  2  6  1  0
  3  1  1  0
  4  1  1  0
  5  2  2  0
  7  3  2  0
  8  3  1  0
  8 12  1  0
 10  4  1  0
 11  6  1  0
M  END
>  <HBA>  (21) 
5

>  <HBD>  (21) 
3

>  <TPSA>  (21) 
94.83

>  <cid>  (21) 
45

>  <dipole>  (21) 
2.14

>  <excitation_energy_1>  (21) 
5.694

>  <excitation_energy_2>  (21) 
5.883

>  <excitation_energy_3>  (21) 
6.69

>  <excitation_energy_4>  (21) 
6.972

>  <homo_energy>  (21) 
-8.289

>  <homo_lumo_gap>  (21) 
7.282

>  <logP>  (21) 
-1.484

>  <lumo_energy>  (21) 
-1.007

>  <melting_point>  (21) 
148.36

>  <molecular_refractivity>  (21) 
21.24

>  <oscillator_strength_1>  (21) 
0.0032

>  <oscillator_strength_2>  (21) 
0.0029

>  <oscillator_strength_3>  (21) 
0.0019

>  <oscillator_strength_4>  (21) 
0.0407

>  <open_babel_can_smiles>  (21) 
OC(C(=O)O)C(=O)O

>  <mulliken_charges>  (21) 
12
1   -0.068111
2   0.61259
3   0.598168
4   -0.651711
5   -0.473888
6   -0.547937
7   -0.454884
8   -0.5579
9   0.214779
10   0.433223
11   0.448567
12   0.447105

>  <lowdin_charges>  (21) 
12
1   -0.087223
2   0.18088
3   0.185669
4   -0.449
5   -0.262755
6   -0.303751
7   -0.244753
8   -0.322916
9   0.18723
10   0.366081
11   0.375898
12   0.37464

$$$$
PCCDB-ID:  47
     RDKit          3D

 19 18  0  0  1  0  0  0  0  0999 V2000
    3.0751   -0.8557   -1.4347 C   0  0  0  0  0  0  0  0  0  0  0  0
    2.5442    0.8119    2.0901 C   0  0  0  0  0  0  0  0  0  0  0  0
    2.4812   -0.5868   -0.0476 C   0  0  0  0  0  0  0  0  0  0  0  0
    3.2971    0.3999    0.8015 C   0  0  2  0  0  0  0  0  0  0  0  0
    4.6397   -0.1841    1.2092 C   0  0  0  0  0  0  0  0  0  0  0  0
    5.7230    0.8527    1.6046 C   0  0  0  0  0  0  0  0  0  0  0  0
    4.8927   -1.3676    1.2661 O   0  0  0  0  0  0  0  0  0  0  0  0
    6.8347    0.2672    2.0778 O   0  0  0  0  0  0  0  0  0  0  0  0
    5.5800    2.0512    1.4911 O   0  0  0  0  0  0  0  0  0  0  0  0
    2.4324   -1.5331   -2.0077 H   0  0  0  0  0  0  0  0  0  0  0  0
    4.0632   -1.3217   -1.3621 H   0  0  0  0  0  0  0  0  0  0  0  0
    3.1766    0.0721   -2.0115 H   0  0  0  0  0  0  0  0  0  0  0  0
    1.5912    1.2809    1.8242 H   0  0  0  0  0  0  0  0  0  0  0  0
    3.1198    1.5309    2.6808 H   0  0  0  0  0  0  0  0  0  0  0  0
    2.3315   -0.0643    2.7131 H   0  0  0  0  0  0  0  0  0  0  0  0
    2.3847   -1.5309    0.5017 H   0  0  0  0  0  0  0  0  0  0  0  0
    1.4682   -0.1784   -0.1562 H   0  0  0  0  0  0  0  0  0  0  0  0
    3.4964    1.3161    0.2316 H   0  0  0  0  0  0  0  0  0  0  0  0
    7.4558    0.9899    2.2902 H   0  0  0  0  0  0  0  0  0  0  0  0
  1 11  1  0
  1  3  1  0
  2 14  1  0
  2 15  1  0
  3 16  1  0
  3  4  1  0
  4 18  1  6
  4  5  1  0
  4  2  1  0
  5  7  2  0
  5  6  1  0
  6  8  1  0
  8 19  1  0
  9  6  2  0
 10  1  1  0
 12  1  1  0
 13  2  1  0
 17  3  1  0
M  END
>  <HBA>  (22) 
3

>  <HBD>  (22) 
1

>  <TPSA>  (22) 
54.37

>  <cid>  (22) 
47

>  <dipole>  (22) 
1.17

>  <excitation_energy_1>  (22) 
3.181

>  <excitation_energy_2>  (22) 
5.026

>  <excitation_energy_3>  (22) 
5.716

>  <excitation_energy_4>  (22) 
6.018

>  <homo_energy>  (22) 
-6.955

>  <homo_lumo_gap>  (22) 
4.816

>  <logP>  (22) 
0.686

>  <lumo_energy>  (22) 
-2.139

>  <melting_point>  (22) 
71.99

>  <molecular_refractivity>  (22) 
32.93

>  <oscillator_strength_1>  (22) 
0.0002

>  <oscillator_strength_2>  (22) 
0.0007

>  <oscillator_strength_3>  (22) 
0.0007

>  <oscillator_strength_4>  (22) 
0.015

>  <open_babel_can_smiles>  (22) 
C[C@@H](C(=O)C(=O)O)CC

>  <mulliken_charges>  (22) 
19
1   -0.457451
2   -0.467041
3   -0.247152
4   -0.159776
5   0.406785
6   0.526966
7   -0.42034
8   -0.537647
9   -0.449143
10   0.148048
11   0.161192
12   0.140967
13   0.161254
14   0.166681
15   0.159541
16   0.153857
17   0.133288
18   0.163992
19   0.415979

>  <lowdin_charges>  (22) 
19
1   -0.449564
2   -0.44009
3   -0.270087
4   -0.15281
5   0.137824
6   0.15866
7   -0.183777
8   -0.319575
9   -0.245848
10   0.15516
11   0.154754
12   0.145839
13   0.160263
14   0.162179
15   0.15603
16   0.153375
17   0.144182
18   0.165664
19   0.367821

$$$$
PCCDB-ID:  48
     RDKit          3D

 17 16  0  0  0  0  0  0  0  0999 V2000
    1.2355   -0.3481   -0.0578 C   0  0  0  0  0  0  0  0  0  0  0  0
    0.7633   -1.5391   -0.9145 C   0  0  0  0  0  0  0  0  0  0  0  0
    2.7225   -0.0917   -0.0874 C   0  0  0  0  0  0  0  0  0  0  0  0
    0.6627   -1.2517   -2.4110 C   0  0  0  0  0  0  0  0  0  0  0  0
    3.2295    0.9268    0.9579 C   0  0  0  0  0  0  0  0  0  0  0  0
   -0.4070   -1.1664   -3.0940 N   0  0  0  0  0  0  0  0  0  0  0  0
    3.5089   -0.6263   -0.8450 O   0  0  0  0  0  0  0  0  0  0  0  0
    1.8413   -1.0688   -3.0516 O   0  0  0  0  0  0  0  0  0  0  0  0
    4.5394    1.1706    0.8286 O   0  0  0  0  0  0  0  0  0  0  0  0
    2.5045    1.4333    1.7847 O   0  0  0  0  0  0  0  0  0  0  0  0
    0.9550   -0.4901    0.9933 H   0  0  0  0  0  0  0  0  0  0  0  0
    0.7279    0.5819   -0.3532 H   0  0  0  0  0  0  0  0  0  0  0  0
   -0.2241   -1.8436   -0.5564 H   0  0  0  0  0  0  0  0  0  0  0  0
    1.4372   -2.3908   -0.7516 H   0  0  0  0  0  0  0  0  0  0  0  0
   -1.2177   -1.3290   -2.4956 H   0  0  0  0  0  0  0  0  0  0  0  0
    2.5766   -1.1394   -2.4132 H   0  0  0  0  0  0  0  0  0  0  0  0
    4.7752    1.8191    1.5196 H   0  0  0  0  0  0  0  0  0  0  0  0
  1 11  1  0
  2 14  1  0
  2 13  1  0
  2  1  1  0
  3  1  1  0
  3  5  1  0
  4  2  1  0
  5 10  2  0
  6 15  1  0
  6  4  2  0
  7  3  2  0
  8 16  1  0
  8  4  1  0
  9  5  1  0
  9 17  1  0
 12  1  1  0
M  END
>  <HBA>  (23) 
5

>  <HBD>  (23) 
2

>  <TPSA>  (23) 
97.46

>  <cid>  (23) 
48

>  <dipole>  (23) 
5.49

>  <excitation_energy_1>  (23) 
3.334

>  <excitation_energy_2>  (23) 
3.441

>  <excitation_energy_3>  (23) 
3.48

>  <excitation_energy_4>  (23) 
4.983

>  <homo_energy>  (23) 
-6.977

>  <homo_lumo_gap>  (23) 
4.063

>  <logP>  (23) 
-0.394

>  <lumo_energy>  (23) 
-2.914

>  <melting_point>  (23) 
148.29

>  <molecular_refractivity>  (23) 
31.03

>  <oscillator_strength_1>  (23) 
0.0001

>  <oscillator_strength_2>  (23) 
0.0005

>  <oscillator_strength_3>  (23) 
0.0014

>  <oscillator_strength_4>  (23) 
0.0001

>  <open_babel_can_smiles>  (23) 
OC(=N)CCC(=O)C(=O)O

>  <mulliken_charges>  (23) 
17
1   -0.359353
2   -0.372073
3   0.411686
4   0.474422
5   0.538246
6   -0.580608
7   -0.430989
8   -0.593246
9   -0.532785
10   -0.435872
11   0.201293
12   0.208621
13   0.161327
14   0.173683
15   0.276518
16   0.434149
17   0.424981

>  <lowdin_charges>  (23) 
17
1   -0.302154
2   -0.309716
3   0.152646
4   0.122511
5   0.16361
6   -0.404181
7   -0.190365
8   -0.374343
9   -0.313317
10   -0.23423
11   0.186701
12   0.190714
13   0.164928
14   0.166306
15   0.25268
16   0.354069
17   0.374141

$$$$
PCCDB-ID:  49
     RDKit          3D

 16 15  0  0  0  0  0  0  0  0999 V2000
    2.0632   -0.3846   -0.8160 C   0  0  0  0  0  0  0  0  0  0  0  0
    2.3391    1.8610    0.3637 C   0  0  0  0  0  0  0  0  0  0  0  0
    2.8669    0.4309    0.2246 C   0  0  0  0  0  0  0  0  0  0  0  0
    2.8298   -0.2942    1.5589 C   0  0  0  0  0  0  0  0  0  0  0  0
    3.7120   -1.5655    1.6516 C   0  0  0  0  0  0  0  0  0  0  0  0
    2.1715    0.0512    2.5151 O   0  0  0  0  0  0  0  0  0  0  0  0
    3.5076   -2.2405    2.7939 O   0  0  0  0  0  0  0  0  0  0  0  0
    4.5019   -1.9001    0.7949 O   0  0  0  0  0  0  0  0  0  0  0  0
    2.1068    0.1178   -1.7881 H   0  0  0  0  0  0  0  0  0  0  0  0
    1.0102   -0.4615   -0.5214 H   0  0  0  0  0  0  0  0  0  0  0  0
    2.4695   -1.3927   -0.9380 H   0  0  0  0  0  0  0  0  0  0  0  0
    2.3838    2.3743   -0.6027 H   0  0  0  0  0  0  0  0  0  0  0  0
    2.9285    2.4362    1.0850 H   0  0  0  0  0  0  0  0  0  0  0  0
    1.3008    1.8624    0.7096 H   0  0  0  0  0  0  0  0  0  0  0  0
    3.9128    0.4394   -0.1071 H   0  0  0  0  0  0  0  0  0  0  0  0
    4.1091   -3.0092    2.7693 H   0  0  0  0  0  0  0  0  0  0  0  0
  1 10  1  0
  1  3  1  0
  2 14  1  0
  2 13  1  0
  3  2  1  0
  3  4  1  0
  4  5  1  0
  4  6  2  0
  5  7  1  0
  8  5  2  0
  9  1  1  0
 11  1  1  0
 12  2  1  0
 15  3  1  0
 16  7  1  0
M  END
>  <HBA>  (24) 
3

>  <HBD>  (24) 
1

>  <TPSA>  (24) 
54.37

>  <cid>  (24) 
49

>  <dipole>  (24) 
1.27

>  <excitation_energy_1>  (24) 
3.202

>  <excitation_energy_2>  (24) 
5.044

>  <excitation_energy_3>  (24) 
6.085

>  <excitation_energy_4>  (24) 
6.245

>  <homo_energy>  (24) 
-6.963

>  <homo_lumo_gap>  (24) 
4.838

>  <logP>  (24) 
0.296

>  <lumo_energy>  (24) 
-2.125

>  <melting_point>  (24) 
72.65

>  <molecular_refractivity>  (24) 
28.12

>  <oscillator_strength_1>  (24) 
0.0001

>  <oscillator_strength_2>  (24) 
0.0008

>  <oscillator_strength_3>  (24) 
0.006

>  <oscillator_strength_4>  (24) 
0.0281

>  <open_babel_can_smiles>  (24) 
CC(C(=O)C(=O)O)C

>  <mulliken_charges>  (24) 
16
1   -0.462524
2   -0.440246
3   -0.162321
4   0.405144
5   0.525628
6   -0.414015
7   -0.537131
8   -0.449552
9   0.160818
10   0.157554
11   0.169516
12   0.144507
13   0.154719
14   0.163178
15   0.168708
16   0.416018

>  <lowdin_charges>  (24) 
16
1   -0.437418
2   -0.439561
3   -0.148854
4   0.136702
5   0.160543
6   -0.181565
7   -0.319721
8   -0.247509
9   0.159964
10   0.152997
11   0.161309
12   0.152475
13   0.15845
14   0.158781
15   0.165927
16   0.367481

$$$$
PCCDB-ID:  50
     RDKit          3D

 23 22  0  0  1  0  0  0  0  0999 V2000
    0.6964   -0.0634   -0.1708 C   0  0  0  0  0  0  0  0  0  0  0  0
    0.2927    1.3492   -0.5930 C   0  0  1  0  0  0  0  0  0  0  0  0
    1.0035    1.8210   -1.8646 C   0  0  1  0  0  0  0  0  0  0  0  0
    0.5809    3.2565   -2.2789 C   0  0  1  0  0  0  0  0  0  0  0  0
   -0.9195    3.5208   -2.3216 C   0  0  0  0  0  0  0  0  0  0  0  0
   -1.7402    2.6947   -3.3138 C   0  0  0  0  0  0  0  0  0  0  0  0
   -0.1678   -0.5091    0.8821 O   0  0  0  0  0  0  0  0  0  0  0  0
   -1.1045    1.3708   -0.8610 O   0  0  0  0  0  0  0  0  0  0  0  0
    2.4094    1.8018   -1.6876 O   0  0  0  0  0  0  0  0  0  0  0  0
    1.1826    4.1704   -1.3826 O   0  0  0  0  0  0  0  0  0  0  0  0
   -1.4061    4.4205   -1.6669 O   0  0  0  0  0  0  0  0  0  0  0  0
   -3.0581    2.8532   -3.1430 O   0  0  0  0  0  0  0  0  0  0  0  0
   -1.2298    2.0096   -4.1731 O   0  0  0  0  0  0  0  0  0  0  0  0
    1.7535   -0.1040    0.1138 H   0  0  0  0  0  0  0  0  0  0  0  0
    0.5317   -0.7584   -1.0002 H   0  0  0  0  0  0  0  0  0  0  0  0
    0.5347    2.0510    0.2258 H   0  0  0  0  0  0  0  0  0  0  0  0
    0.7665    1.1336   -2.6814 H   0  0  0  0  0  0  0  0  0  0  0  0
    0.9748    3.4203   -3.2933 H   0  0  0  0  0  0  0  0  0  0  0  0
    0.1188   -0.0784    1.7030 H   0  0  0  0  0  0  0  0  0  0  0  0
   -1.5173    0.8121   -0.1769 H   0  0  0  0  0  0  0  0  0  0  0  0
    2.6188    2.6162   -1.1948 H   0  0  0  0  0  0  0  0  0  0  0  0
    0.4510    4.7013   -1.0078 H   0  0  0  0  0  0  0  0  0  0  0  0
   -3.4925    2.3004   -3.8204 H   0  0  0  0  0  0  0  0  0  0  0  0
  1 14  1  0
  1  7  1  0
  2  1  1  0
  2 16  1  1
  3 17  1  6
  3  9  1  0
  3  2  1  0
  4 18  1  6
  4  3  1  0
  4 10  1  0
  5  4  1  0
  5 11  2  0
  6 12  1  0
  6  5  1  0
  7 19  1  0
  8  2  1  0
  8 20  1  0
  9 21  1  0
 10 22  1  0
 13  6  2  0
 15  1  1  0
 23 12  1  0
M  END
>  <HBA>  (25) 
7

>  <HBD>  (25) 
5

>  <TPSA>  (25) 
135.29

>  <cid>  (25) 
50

>  <dipole>  (25) 
1.82

>  <excitation_energy_1>  (25) 
3.612

>  <excitation_energy_2>  (25) 
4.288

>  <excitation_energy_3>  (25) 
4.445

>  <excitation_energy_4>  (25) 
5.05

>  <homo_energy>  (25) 
-7.23

>  <homo_lumo_gap>  (25) 
5.045

>  <logP>  (25) 
-3.285

>  <lumo_energy>  (25) 
-2.185

>  <melting_point>  (25) 
146.46

>  <molecular_refractivity>  (25) 
37.58

>  <oscillator_strength_1>  (25) 
0.0003

>  <oscillator_strength_2>  (25) 
0.0173

>  <oscillator_strength_3>  (25) 
0.0138

>  <oscillator_strength_4>  (25) 
0.003

>  <open_babel_can_smiles>  (25) 
OC[C@@H]([C@@H]([C@@H](C(=O)C(=O)O)O)O)O

>  <mulliken_charges>  (25) 
23
1   -0.065012
2   0.109579
3   0.11932
4   0.049954
5   0.401621
6   0.57042
7   -0.622823
8   -0.658204
9   -0.635089
10   -0.665227
11   -0.446325
12   -0.540736
13   -0.454146
14   0.154806
15   0.161461
16   0.108178
17   0.166972
18   0.181318
19   0.39733
20   0.414477
21   0.413783
22   0.418899
23   0.419446

>  <lowdin_charges>  (25) 
23
1   -0.151108
2   -0.038937
3   -0.021566
4   -0.039989
5   0.134872
6   0.175868
7   -0.465736
8   -0.462211
9   -0.452241
10   -0.463523
11   -0.197196
12   -0.315361
13   -0.245286
14   0.148548
15   0.156989
16   0.123537
17   0.163704
18   0.170914
19   0.347979
20   0.353837
21   0.350437
22   0.35565
23   0.370815

$$$$
PCCDB-ID:  51
     RDKit          3D

 16 15  0  0  0  0  0  0  0  0999 V2000
    2.3323   -1.1131   -0.4816 C   0  0  0  0  0  0  0  0  0  0  0  0
    1.3696   -2.2082   -0.9754 C   0  0  0  0  0  0  0  0  0  0  0  0
    3.7840   -1.3413   -0.8228 C   0  0  0  0  0  0  0  0  0  0  0  0
    1.3697   -3.4905   -0.1355 C   0  0  0  0  0  0  0  0  0  0  0  0
    4.7147   -0.1352   -0.5664 C   0  0  0  0  0  0  0  0  0  0  0  0
    4.2395   -2.3738   -1.2777 O   0  0  0  0  0  0  0  0  0  0  0  0
    0.4361   -3.8164    0.5571 O   0  0  0  0  0  0  0  0  0  0  0  0
    2.4826   -4.2496   -0.2104 O   0  0  0  0  0  0  0  0  0  0  0  0
    5.9957   -0.4253   -0.8239 O   0  0  0  0  0  0  0  0  0  0  0  0
    4.3060    0.9345   -0.1744 O   0  0  0  0  0  0  0  0  0  0  0  0
    2.2587   -0.9738    0.6072 H   0  0  0  0  0  0  0  0  0  0  0  0
    2.0507   -0.1376   -0.8968 H   0  0  0  0  0  0  0  0  0  0  0  0
    1.6014   -2.4535   -2.0196 H   0  0  0  0  0  0  0  0  0  0  0  0
    0.3502   -1.8203   -0.9391 H   0  0  0  0  0  0  0  0  0  0  0  0
    3.1463   -3.8140   -0.7854 H   0  0  0  0  0  0  0  0  0  0  0  0
    6.5116    0.3827   -0.6369 H   0  0  0  0  0  0  0  0  0  0  0  0
  1 11  1  0
  2 14  1  0
  2  1  1  0
  2  4  1  0
  3  5  1  0
  3  1  1  0
  4  7  2  0
  5 10  2  0
  6  3  2  0
  8  4  1  0
  9 16  1  0
  9  5  1  0
 12  1  1  0
 13  2  1  0
 15  8  1  0
M  END
>  <HBA>  (26) 
5

>  <HBD>  (26) 
2

>  <TPSA>  (26) 
91.67

>  <cid>  (26) 
51

>  <dipole>  (26) 
5.43

>  <excitation_energy_1>  (26) 
3.332

>  <excitation_energy_2>  (26) 
3.607

>  <excitation_energy_3>  (26) 
4.693

>  <excitation_energy_4>  (26) 
4.975

>  <homo_energy>  (26) 
-7.178

>  <homo_lumo_gap>  (26) 
4.169

>  <logP>  (26) 
-0.495

>  <lumo_energy>  (26) 
-3.01

>  <melting_point>  (26) 
149.81

>  <molecular_refractivity>  (26) 
29.89

>  <oscillator_strength_1>  (26) 
0.0003

>  <oscillator_strength_2>  (26) 
0.003

>  <oscillator_strength_3>  (26) 
0.0009

>  <oscillator_strength_4>  (26) 
0.0001

>  <open_babel_can_smiles>  (26) 
OC(=O)CCC(=O)C(=O)O

>  <mulliken_charges>  (26) 
16
1   -0.369119
2   -0.382568
3   0.412622
4   0.578971
5   0.538952
6   -0.434802
7   -0.440623
8   -0.580856
9   -0.532851
10   -0.433688
11   0.212942
12   0.206146
13   0.173682
14   0.1882
15   0.437137
16   0.425853

>  <lowdin_charges>  (26) 
16
1   -0.298983
2   -0.313474
3   0.15339
4   0.187632
5   0.16268
6   -0.193316
7   -0.247054
8   -0.365836
9   -0.312207
10   -0.231842
11   0.190598
12   0.190459
13   0.166065
14   0.180027
15   0.357624
16   0.374236

$$$$
PCCDB-ID:  58
     RDKit          3D

 13 12  0  0  0  0  0  0  0  0999 V2000
    1.0606    0.1841    0.5264 C   0  0  0  0  0  0  0  0  0  0  0  0
    2.3665    0.3851   -0.2379 C   0  0  0  0  0  0  0  0  0  0  0  0
    2.3214   -0.1733   -1.6426 C   0  0  0  0  0  0  0  0  0  0  0  0
    3.6223    0.0167   -2.4588 C   0  0  0  0  0  0  0  0  0  0  0  0
    1.3662   -0.7325   -2.1334 O   0  0  0  0  0  0  0  0  0  0  0  0
    3.5283   -0.4986   -3.6947 O   0  0  0  0  0  0  0  0  0  0  0  0
    4.6075    0.5697   -2.0203 O   0  0  0  0  0  0  0  0  0  0  0  0
    1.1434    0.5940    1.5378 H   0  0  0  0  0  0  0  0  0  0  0  0
    0.8083   -0.8779    0.6027 H   0  0  0  0  0  0  0  0  0  0  0  0
    0.2277    0.6811    0.0196 H   0  0  0  0  0  0  0  0  0  0  0  0
    3.2186   -0.0793    0.2782 H   0  0  0  0  0  0  0  0  0  0  0  0
    2.6400    1.4471   -0.3097 H   0  0  0  0  0  0  0  0  0  0  0  0
    4.3873   -0.3320   -4.1278 H   0  0  0  0  0  0  0  0  0  0  0  0
  1  9  1  0
  1  8  1  0
  2 11  1  0
  2  1  1  0
  3  2  1  0
  4  7  2  0
  4  3  1  0
  5  3  2  0
  6  4  1  0
 10  1  1  0
 12  2  1  0
 13  6  1  0
M  END
>  <HBA>  (27) 
3

>  <HBD>  (27) 
1

>  <TPSA>  (27) 
54.37

>  <cid>  (27) 
58

>  <dipole>  (27) 
1.15

>  <excitation_energy_1>  (27) 
3.276

>  <excitation_energy_2>  (27) 
5.079

>  <excitation_energy_3>  (27) 
6.266

>  <excitation_energy_4>  (27) 
6.459

>  <homo_energy>  (27) 
-7.053

>  <homo_lumo_gap>  (27) 
4.925

>  <logP>  (27) 
0.05

>  <lumo_energy>  (27) 
-2.128

>  <melting_point>  (27) 
73.31

>  <molecular_refractivity>  (27) 
23.31

>  <oscillator_strength_1>  (27) 
0.0

>  <oscillator_strength_2>  (27) 
0.0

>  <oscillator_strength_3>  (27) 
0.0313

>  <oscillator_strength_4>  (27) 
0.0044

>  <open_babel_can_smiles>  (27) 
CCC(=O)C(=O)O

>  <mulliken_charges>  (27) 
13
1   -0.44049
2   -0.34737
3   0.401289
4   0.524129
5   -0.409158
6   -0.537752
7   -0.446917
8   0.148912
9   0.16354
10   0.162976
11   0.182066
12   0.182208
13   0.416566

>  <lowdin_charges>  (27) 
13
1   -0.43926
2   -0.30139
3   0.136332
4   0.160264
5   -0.181652
6   -0.320698
7   -0.246436
8   0.154618
9   0.158836
10   0.160831
11   0.176758
12   0.174697
13   0.3671

$$$$
PCCDB-ID:  63
     RDKit          3D

 21 20  0  0  1  0  0  0  0  0999 V2000
    0.8070    0.2596    0.5203 C   0  0  0  0  0  0  0  0  0  0  0  0
    2.3051   -1.0797   -1.0655 C   0  0  0  0  0  0  0  0  0  0  0  0
    1.4788   -1.0876    0.2417 C   0  0  1  0  0  0  0  0  0  0  0  0
    1.4884   -0.8679   -2.3638 C   0  0  1  0  0  0  0  0  0  0  0  0
    2.4532   -0.8214   -3.5641 C   0  0  0  0  0  0  0  0  0  0  0  0
    2.2784   -1.4647    1.4167 N   0  0  0  0  0  0  0  0  0  0  0  0
    0.4754   -1.9071   -2.4991 N   0  0  0  0  0  0  0  0  0  0  0  0
    2.5758   -1.7231   -4.3560 O   0  0  0  0  0  0  0  0  0  0  0  0
    3.2169    0.2994   -3.6797 O   0  0  0  0  0  0  0  0  0  0  0  0
    0.0827    0.5211   -0.2582 H   0  0  0  0  0  0  0  0  0  0  0  0
    1.5501    1.0679    0.5809 H   0  0  0  0  0  0  0  0  0  0  0  0
    0.2797    0.2171    1.4774 H   0  0  0  0  0  0  0  0  0  0  0  0
    2.8322   -2.0407   -1.1558 H   0  0  0  0  0  0  0  0  0  0  0  0
    3.0878   -0.3092   -0.9895 H   0  0  0  0  0  0  0  0  0  0  0  0
    0.6957   -1.8447    0.1303 H   0  0  0  0  0  0  0  0  0  0  0  0
    0.9724    0.1005   -2.3042 H   0  0  0  0  0  0  0  0  0  0  0  0
    3.0596   -0.8161    1.5248 H   0  0  0  0  0  0  0  0  0  0  0  0
    2.6947   -2.3845    1.2734 H   0  0  0  0  0  0  0  0  0  0  0  0
    0.9476   -2.7680   -2.7792 H   0  0  0  0  0  0  0  0  0  0  0  0
   -0.1343   -1.6806   -3.2840 H   0  0  0  0  0  0  0  0  0  0  0  0
    2.9847    0.9311   -2.9786 H   0  0  0  0  0  0  0  0  0  0  0  0
  1 11  1  0
  1 12  1  0
  2 14  1  0
  2  3  1  0
  3 15  1  6
  3  1  1  0
  3  6  1  0
  4 16  1  1
  4  2  1  0
  5  4  1  0
  6 17  1  0
  7  4  1  0
  8  5  2  0
  9  5  1  0
  9 21  1  0
 10  1  1  0
 13  2  1  0
 18  6  1  0
 19  7  1  0
 20  7  1  0
M  END
>  <HBA>  (28) 
4

>  <HBD>  (28) 
3

>  <TPSA>  (28) 
89.34

>  <cid>  (28) 
63

>  <dipole>  (28) 
2.25

>  <excitation_energy_1>  (28) 
5.398

>  <excitation_energy_2>  (28) 
5.469

>  <excitation_energy_3>  (28) 
5.79

>  <excitation_energy_4>  (28) 
6.013

>  <homo_energy>  (28) 
-6.351

>  <homo_lumo_gap>  (28) 
6.474

>  <logP>  (28) 
0.536

>  <lumo_energy>  (28) 
0.122

>  <melting_point>  (28) 
159.76

>  <molecular_refractivity>  (28) 
33.34

>  <oscillator_strength_1>  (28) 
0.0275

>  <oscillator_strength_2>  (28) 
0.0039

>  <oscillator_strength_3>  (28) 
0.0244

>  <oscillator_strength_4>  (28) 
0.0062

>  <open_babel_can_smiles>  (28) 
C[C@@H](C[C@@H](C(=O)O)N)N

>  <mulliken_charges>  (28) 
21
1   -0.449914
2   -0.267952
3   0.035287
4   -0.112952
5   0.583313
6   -0.705212
7   -0.692048
8   -0.445133
9   -0.564821
10   0.147814
11   0.123559
12   0.169707
13   0.140575
14   0.114523
15   0.167058
16   0.143148
17   0.285733
18   0.294854
19   0.312991
20   0.307951
21   0.411518

>  <lowdin_charges>  (28) 
21
1   -0.451533
2   -0.297273
3   -0.064958
4   -0.116466
5   0.176116
6   -0.546834
7   -0.530565
8   -0.244058
9   -0.356842
10   0.151859
11   0.138617
12   0.165234
13   0.147845
14   0.134459
15   0.157443
16   0.14749
17   0.248713
18   0.253178
19   0.264975
20   0.263354
21   0.359246

$$$$
PCCDB-ID:  69
     RDKit          3D

 19 18  0  0  0  0  0  0  0  0999 V2000
    0.2261   -1.6538   -1.9582 C   0  0  0  0  0  0  0  0  0  0  0  0
    3.2111   -1.4713   -1.5635 C   0  0  0  0  0  0  0  0  0  0  0  0
    2.3581   -0.7970   -0.7602 C   0  0  0  0  0  0  0  0  0  0  0  0
    4.6444   -1.4043   -1.3962 C   0  0  0  0  0  0  0  0  0  0  0  0
    0.8818   -0.8177   -0.8705 C   0  0  0  0  0  0  0  0  0  0  0  0
    5.5843   -2.0290   -2.1435 C   0  0  0  0  0  0  0  0  0  0  0  0
    5.3290   -2.9336   -3.3165 C   0  0  0  0  0  0  0  0  0  0  0  0
    0.2120   -0.1603   -0.0840 O   0  0  0  0  0  0  0  0  0  0  0  0
    6.9322   -1.9026   -1.9078 O   0  0  0  0  0  0  0  0  0  0  0  0
    4.2264   -3.2237   -3.7219 O   0  0  0  0  0  0  0  0  0  0  0  0
    6.4419   -3.4141   -3.9049 O   0  0  0  0  0  0  0  0  0  0  0  0
    0.5463   -1.3260   -2.9544 H   0  0  0  0  0  0  0  0  0  0  0  0
   -0.8570   -1.5494   -1.8746 H   0  0  0  0  0  0  0  0  0  0  0  0
    0.4981   -2.7115   -1.8628 H   0  0  0  0  0  0  0  0  0  0  0  0
    2.8447   -2.0941   -2.3717 H   0  0  0  0  0  0  0  0  0  0  0  0
    2.7297   -0.1722    0.0509 H   0  0  0  0  0  0  0  0  0  0  0  0
    5.0026   -0.7792   -0.5757 H   0  0  0  0  0  0  0  0  0  0  0  0
    7.0926   -1.3089   -1.1564 H   0  0  0  0  0  0  0  0  0  0  0  0
    7.2255   -3.0676   -3.4383 H   0  0  0  0  0  0  0  0  0  0  0  0
  1 13  1  0
  1 14  1  0
  1  5  1  0
  2  4  1  0
  2  3  2  0
  3 16  1  0
  4 17  1  0
  5  3  1  0
  5  8  2  0
  6  9  1  0
  6  4  2  0
  7  6  1  0
  9 18  1  0
 10  7  2  0
 11 19  1  0
 11  7  1  0
 12  1  1  0
 15  2  1  0
M  END
>  <HBA>  (29) 
4

>  <HBD>  (29) 
2

>  <TPSA>  (29) 
74.6

>  <cid>  (29) 
69

>  <dipole>  (29) 
5.11

>  <excitation_energy_1>  (29) 
3.086

>  <excitation_energy_2>  (29) 
4.174

>  <excitation_energy_3>  (29) 
4.247

>  <excitation_energy_4>  (29) 
5.079

>  <homo_energy>  (29) 
-6.615

>  <homo_lumo_gap>  (29) 
4.144

>  <logP>  (29) 
0.658

>  <lumo_energy>  (29) 
-2.471

>  <melting_point>  (29) 
105.61

>  <molecular_refractivity>  (29) 
38.36

>  <oscillator_strength_1>  (29) 
0.0

>  <oscillator_strength_2>  (29) 
0.6867

>  <oscillator_strength_3>  (29) 
0.0002

>  <oscillator_strength_4>  (29) 
0.0002

>  <open_babel_can_smiles>  (29) 
CC(=O)/C=C/C=C(\C(=O)O)/O

>  <mulliken_charges>  (29) 
19
1   -0.542002
2   -0.098395
3   -0.197393
4   -0.202344
5   0.444323
6   0.283963
7   0.601777
8   -0.460025
9   -0.664954
10   -0.457224
11   -0.575975
12   0.174434
13   0.179723
14   0.174199
15   0.199059
16   0.14138
17   0.133372
18   0.427234
19   0.438848

>  <lowdin_charges>  (29) 
19
1   -0.473955
2   -0.126497
3   -0.187882
4   -0.178958
5   0.156564
6   0.053873
7   0.189796
8   -0.24291
9   -0.386072
10   -0.237326
11   -0.339474
12   0.171686
13   0.172797
14   0.170635
15   0.190361
16   0.164923
17   0.16107
18   0.371282
19   0.370085

$$$$
PCCDB-ID:  70
     RDKit          3D

 19 18  0  0  0  0  0  0  0  0999 V2000
    1.0336    0.0606    0.5158 C   0  0  0  0  0  0  0  0  0  0  0  0
    2.4126   -0.5307   -1.5243 C   0  0  0  0  0  0  0  0  0  0  0  0
    3.1446    1.3458    0.0251 C   0  0  0  0  0  0  0  0  0  0  0  0
    2.4483   -0.0199   -0.0758 C   0  0  0  0  0  0  0  0  0  0  0  0
    4.6378    1.3113   -0.2138 C   0  0  0  0  0  0  0  0  0  0  0  0
    5.3160    2.7035   -0.2645 C   0  0  0  0  0  0  0  0  0  0  0  0
    5.3038    0.3075   -0.3395 O   0  0  0  0  0  0  0  0  0  0  0  0
    6.6441    2.6154   -0.4395 O   0  0  0  0  0  0  0  0  0  0  0  0
    4.7077    3.7459   -0.1562 O   0  0  0  0  0  0  0  0  0  0  0  0
    0.5338   -0.9134    0.4633 H   0  0  0  0  0  0  0  0  0  0  0  0
    0.4146    0.7809   -0.0347 H   0  0  0  0  0  0  0  0  0  0  0  0
    1.0530    0.3719    1.5672 H   0  0  0  0  0  0  0  0  0  0  0  0
    1.9291   -1.5129   -1.5762 H   0  0  0  0  0  0  0  0  0  0  0  0
    3.4205   -0.6323   -1.9372 H   0  0  0  0  0  0  0  0  0  0  0  0
    1.8428    0.1536   -2.1671 H   0  0  0  0  0  0  0  0  0  0  0  0
    3.0003    1.7901    1.0225 H   0  0  0  0  0  0  0  0  0  0  0  0
    2.6994    2.0782   -0.6627 H   0  0  0  0  0  0  0  0  0  0  0  0
    3.0335   -0.7338    0.5186 H   0  0  0  0  0  0  0  0  0  0  0  0
    6.9797    3.5320   -0.4586 H   0  0  0  0  0  0  0  0  0  0  0  0
  1 12  1  0
  2  4  1  0
  3 16  1  0
  4  3  1  0
  4  1  1  0
  4 18  1  0
  5  3  1  0
  6  5  1  0
  6  9  2  0
  7  5  2  0
  8  6  1  0
 10  1  1  0
 11  1  1  0
 13  2  1  0
 14  2  1  0
 15  2  1  0
 17  3  1  0
 19  8  1  0
M  END
>  <HBA>  (30) 
3

>  <HBD>  (30) 
1

>  <TPSA>  (30) 
54.37

>  <cid>  (30) 
70

>  <dipole>  (30) 
1.02

>  <excitation_energy_1>  (30) 
3.25

>  <excitation_energy_2>  (30) 
5.054

>  <excitation_energy_3>  (30) 
5.77

>  <excitation_energy_4>  (30) 
5.929

>  <homo_energy>  (30) 
-7.026

>  <homo_lumo_gap>  (30) 
4.893

>  <logP>  (30) 
0.686

>  <lumo_energy>  (30) 
-2.133

>  <melting_point>  (30) 
71.99

>  <molecular_refractivity>  (30) 
32.93

>  <oscillator_strength_1>  (30) 
0.0

>  <oscillator_strength_2>  (30) 
0.0

>  <oscillator_strength_3>  (30) 
0.0016

>  <oscillator_strength_4>  (30) 
0.0063

>  <open_babel_can_smiles>  (30) 
CC(CC(=O)C(=O)O)C

>  <mulliken_charges>  (30) 
19
1   -0.446871
2   -0.453075
3   -0.351164
4   -0.064481
5   0.398429
6   0.526362
7   -0.415543
8   -0.5382
9   -0.446945
10   0.146681
11   0.141568
12   0.141373
13   0.145173
14   0.163938
15   0.13547
16   0.177078
17   0.17789
18   0.145818
19   0.416498

>  <lowdin_charges>  (30) 
19
1   -0.443431
2   -0.448589
3   -0.305468
4   -0.11898
5   0.140178
6   0.161334
7   -0.185102
8   -0.320648
9   -0.246428
10   0.151586
11   0.148163
12   0.146669
13   0.151119
14   0.157976
15   0.144755
16   0.175389
17   0.175007
18   0.150348
19   0.366119

$$$$
PCCDB-ID:  71
     RDKit          3D

 19 18  0  0  0  0  0  0  0  0999 V2000
    1.8214   -0.7097    0.2556 C   0  0  0  0  0  0  0  0  0  0  0  0
    1.9414   -1.3649    1.6354 C   0  0  0  0  0  0  0  0  0  0  0  0
    2.9963    0.1972   -0.1322 C   0  0  0  0  0  0  0  0  0  0  0  0
    1.8542   -0.3995    2.7926 C   0  0  0  0  0  0  0  0  0  0  0  0
    4.3132   -0.5478   -0.3104 C   0  0  0  0  0  0  0  0  0  0  0  0
    1.8673   -1.0625    4.1913 C   0  0  0  0  0  0  0  0  0  0  0  0
    1.7700    0.8066    2.6921 O   0  0  0  0  0  0  0  0  0  0  0  0
    4.4488   -1.7445   -0.2350 O   0  0  0  0  0  0  0  0  0  0  0  0
    5.3906    0.2380   -0.5846 O   0  0  0  0  0  0  0  0  0  0  0  0
    1.9075   -0.1565    5.1813 O   0  0  0  0  0  0  0  0  0  0  0  0
    1.8401   -2.2616    4.3590 O   0  0  0  0  0  0  0  0  0  0  0  0
    0.9031   -0.1134    0.2151 H   0  0  0  0  0  0  0  0  0  0  0  0
    1.7289   -1.5046   -0.4913 H   0  0  0  0  0  0  0  0  0  0  0  0
    2.8788   -1.9306    1.7196 H   0  0  0  0  0  0  0  0  0  0  0  0
    1.1571   -2.1202    1.7789 H   0  0  0  0  0  0  0  0  0  0  0  0
    3.1250    0.9918    0.6130 H   0  0  0  0  0  0  0  0  0  0  0  0
    2.7725    0.7032   -1.0826 H   0  0  0  0  0  0  0  0  0  0  0  0
    5.1243    1.1725   -0.6029 H   0  0  0  0  0  0  0  0  0  0  0  0
    1.9104   -0.6623    6.0164 H   0  0  0  0  0  0  0  0  0  0  0  0
  1  2  1  0
  2 14  1  0
  2 15  1  0
  2  4  1  0
  3  1  1  0
  3 16  1  0
  4  6  1  0
  5  8  2  0
  5  3  1  0
  6 11  2  0
  6 10  1  0
  7  4  2  0
  9  5  1  0
 10 19  1  0
 12  1  1  0
 13  1  1  0
 17  3  1  0
 18  9  1  0
M  END
>  <HBA>  (31) 
5

>  <HBD>  (31) 
2

>  <TPSA>  (31) 
91.67

>  <cid>  (31) 
71

>  <dipole>  (31) 
2.98

>  <excitation_energy_1>  (31) 
3.266

>  <excitation_energy_2>  (31) 
4.608

>  <excitation_energy_3>  (31) 
5.046

>  <excitation_energy_4>  (31) 
5.724

>  <homo_energy>  (31) 
-7.143

>  <homo_lumo_gap>  (31) 
4.882

>  <logP>  (31) 
-0.105

>  <lumo_energy>  (31) 
-2.261

>  <melting_point>  (31) 
149.15

>  <molecular_refractivity>  (31) 
34.7

>  <oscillator_strength_1>  (31) 
0.0001

>  <oscillator_strength_2>  (31) 
0.0067

>  <oscillator_strength_3>  (31) 
0.0

>  <oscillator_strength_4>  (31) 
0.0006

>  <open_babel_can_smiles>  (31) 
OC(=O)CCCC(=O)C(=O)O

>  <mulliken_charges>  (31) 
19
1   -0.250212
2   -0.368899
3   -0.416855
4   0.399637
5   0.606753
6   0.528002
7   -0.423332
8   -0.442288
9   -0.564824
10   -0.539211
11   -0.440949
12   0.15172
13   0.164127
14   0.214736
15   0.188443
16   0.191361
17   0.172234
18   0.411497
19   0.41806

>  <lowdin_charges>  (31) 
19
1   -0.266698
2   -0.308731
3   -0.329277
4   0.137339
5   0.190884
6   0.156769
7   -0.194054
8   -0.242192
9   -0.353015
10   -0.319025
11   -0.239144
12   0.156913
13   0.164023
14   0.192394
15   0.183675
16   0.174015
17   0.168949
18   0.358448
19   0.368725

$$$$
PCCDB-ID:  72
     RDKit          3D

 17 17  0  0  0  0  0  0  0  0999 V2000
   -1.3996    0.0060   -0.0765 C   0  0  0  0  0  0  0  0  0  0  0  0
   -0.7374    1.2347   -0.0729 C   0  0  0  0  0  0  0  0  0  0  0  0
    0.7370   -1.1206   -0.0376 C   0  0  0  0  0  0  0  0  0  0  0  0
   -0.6659   -1.1839   -0.0680 C   0  0  0  0  0  0  0  0  0  0  0  0
    0.6554    1.2962   -0.0628 C   0  0  0  0  0  0  0  0  0  0  0  0
    1.4032    0.0963   -0.0416 C   0  0  0  0  0  0  0  0  0  0  0  0
   -1.2886   -2.5420   -0.0548 C   0  0  0  0  0  0  0  0  0  0  0  0
    1.3581    2.4600   -0.0639 O   0  0  0  0  0  0  0  0  0  0  0  0
    2.7599    0.2177   -0.0239 O   0  0  0  0  0  0  0  0  0  0  0  0
   -0.7000   -3.5433    0.2832 O   0  0  0  0  0  0  0  0  0  0  0  0
   -2.5894   -2.6261   -0.4528 O   0  0  0  0  0  0  0  0  0  0  0  0
   -2.4859    0.0024   -0.0377 H   0  0  0  0  0  0  0  0  0  0  0  0
   -1.3093    2.1605   -0.0674 H   0  0  0  0  0  0  0  0  0  0  0  0
    1.2933   -2.0539   -0.0098 H   0  0  0  0  0  0  0  0  0  0  0  0
    0.7351    3.2036   -0.0718 H   0  0  0  0  0  0  0  0  0  0  0  0
    3.1500   -0.6701    0.0063 H   0  0  0  0  0  0  0  0  0  0  0  0
   -2.8667   -1.7869   -0.8540 H   0  0  0  0  0  0  0  0  0  0  0  0
  1  2  2  0
  1  4  1  0
  1 12  1  0
  2 13  1  0
  2  5  1  0
  3 14  1  0
  4  7  1  0
  4  3  2  0
  5  6  2  0
  6  3  1  0
  6  9  1  0
  7 10  2  0
  8  5  1  0
  9 16  1  0
 11  7  1  0
 15  8  1  0
 17 11  1  0
M  END
>  <HBA>  (32) 
4

>  <HBD>  (32) 
3

>  <TPSA>  (32) 
77.76

>  <cid>  (32) 
72

>  <dipole>  (32) 
4.57

>  <excitation_energy_1>  (32) 
4.542

>  <excitation_energy_2>  (32) 
4.805

>  <excitation_energy_3>  (32) 
5.004

>  <excitation_energy_4>  (32) 
5.186

>  <homo_energy>  (32) 
-6.207

>  <homo_lumo_gap>  (32) 
5.075

>  <logP>  (32) 
0.796

>  <lumo_energy>  (32) 
-1.132

>  <melting_point>  (32) 
176.59

>  <molecular_refractivity>  (32) 
37.45

>  <oscillator_strength_1>  (32) 
0.0959

>  <oscillator_strength_2>  (32) 
0.0291

>  <oscillator_strength_3>  (32) 
0.0544

>  <oscillator_strength_4>  (32) 
0.0007

>  <open_babel_can_smiles>  (32) 
OC(=O)c1ccc(c(c1)O)O

>  <mulliken_charges>  (32) 
17
1   -0.211118
2   -0.200515
3   -0.235934
4   0.054913
5   0.33333
6   0.32987
7   0.548298
8   -0.618911
9   -0.628775
10   -0.453768
11   -0.578802
12   0.131672
13   0.130435
14   0.160887
15   0.413301
16   0.415473
17   0.409646

>  <lowdin_charges>  (32) 
17
1   -0.171574
2   -0.204628
3   -0.181431
4   -0.067545
5   0.092484
6   0.083719
7   0.197641
8   -0.353299
9   -0.361355
10   -0.249311
11   -0.360938
12   0.155521
13   0.160082
14   0.1781
15   0.363495
16   0.363216
17   0.355824

$$$$
PCCDB-ID:  75
     RDKit          3D

 12 11  0  0  0  0  0  0  0  0999 V2000
    1.0111    0.0880    0.1683 C   0  0  0  0  0  0  0  0  0  0  0  0
    0.3989    1.4849    0.2444 C   0  0  0  0  0  0  0  0  0  0  0  0
    2.5161    0.0790    0.0548 C   0  0  0  0  0  0  0  0  0  0  0  0
   -1.0495    1.3859    0.4595 N   0  0  0  0  0  0  0  0  0  0  0  0
    3.2143    1.0700    0.0481 O   0  0  0  0  0  0  0  0  0  0  0  0
    0.6102   -0.4806   -0.6869 H   0  0  0  0  0  0  0  0  0  0  0  0
    0.7279   -0.4983    1.0554 H   0  0  0  0  0  0  0  0  0  0  0  0
    0.6914    2.0559   -0.6527 H   0  0  0  0  0  0  0  0  0  0  0  0
    0.8350    2.0138    1.0984 H   0  0  0  0  0  0  0  0  0  0  0  0
    2.9739   -0.9341   -0.0206 H   0  0  0  0  0  0  0  0  0  0  0  0
   -1.4994    1.0325   -0.3848 H   0  0  0  0  0  0  0  0  0  0  0  0
   -1.4353    2.3166    0.6100 H   0  0  0  0  0  0  0  0  0  0  0  0
  1  2  1  0
  1  7  1  0
  2  4  1  0
  2  9  1  0
  3  1  1  0
  4 12  1  0
  5  3  2  0
  6  1  1  0
  8  2  1  0
 10  3  1  0
 11  4  1  0
M  END
>  <HBA>  (33) 
2

>  <HBD>  (33) 
1

>  <TPSA>  (33) 
43.09

>  <cid>  (33) 
75

>  <dipole>  (33) 
2.24

>  <excitation_energy_1>  (33) 
4.302

>  <excitation_energy_2>  (33) 
5.159

>  <excitation_energy_3>  (33) 
5.661

>  <excitation_energy_4>  (33) 
6.345

>  <homo_energy>  (33) 
-6.441

>  <homo_lumo_gap>  (33) 
5.894

>  <logP>  (33) 
0.234

>  <lumo_energy>  (33) 
-0.547

>  <melting_point>  (33) 
61.4

>  <molecular_refractivity>  (33) 
19.44

>  <oscillator_strength_1>  (33) 
0.0002

>  <oscillator_strength_2>  (33) 
0.0007

>  <oscillator_strength_3>  (33) 
0.0166

>  <oscillator_strength_4>  (33) 
0.0076

>  <open_babel_can_smiles>  (33) 
NCCC=O

>  <mulliken_charges>  (33) 
12
1   -0.339805
2   -0.13347
3   0.25201
4   -0.719787
5   -0.385499
6   0.154373
7   0.180603
8   0.132945
9   0.159737
10   0.105923
11   0.29208
12   0.30089

>  <lowdin_charges>  (33) 
12
1   -0.319105
2   -0.20286
3   0.059966
4   -0.558647
5   -0.222985
6   0.161146
7   0.17482
8   0.129499
9   0.154708
10   0.115509
11   0.251383
12   0.256565

$$$$
PCCDB-ID:  77
     RDKit          3D

 24 23  0  0  1  0  0  0  0  0999 V2000
    0.1853   -0.0118    1.8074 C   0  0  0  0  0  0  0  0  0  0  0  0
   -0.8498    1.7955    0.3725 C   0  0  0  0  0  0  0  0  0  0  0  0
    1.5786    1.5743   -1.5202 C   0  0  0  0  0  0  0  0  0  0  0  0
    0.1548    0.6336    0.4113 C   0  0  0  0  0  0  0  0  0  0  0  0
    3.0111    1.8302   -1.9646 C   0  0  0  0  0  0  0  0  0  0  0  0
    2.2212    2.0901    0.8449 C   0  0  0  0  0  0  0  0  0  0  0  0
    1.5855    1.0182   -0.0769 C   0  0  2  0  0  0  0  0  0  0  0  0
    3.7366    0.9220   -2.3214 O   0  0  0  0  0  0  0  0  0  0  0  0
    3.4729    3.0880   -1.8706 O   0  0  0  0  0  0  0  0  0  0  0  0
    2.0119    3.2810    0.7174 O   0  0  0  0  0  0  0  0  0  0  0  0
    3.0219    1.5958    1.7917 O   0  0  0  0  0  0  0  0  0  0  0  0
    2.3821   -0.1722    0.0017 O   0  0  0  0  0  0  0  0  0  0  0  0
   -0.8163   -0.3702    2.0678 H   0  0  0  0  0  0  0  0  0  0  0  0
    0.4887    0.7047    2.5799 H   0  0  0  0  0  0  0  0  0  0  0  0
    0.8655   -0.8673    1.8385 H   0  0  0  0  0  0  0  0  0  0  0  0
   -1.8218    1.4475    0.7378 H   0  0  0  0  0  0  0  0  0  0  0  0
   -1.0049    2.1835   -0.6395 H   0  0  0  0  0  0  0  0  0  0  0  0
   -0.5288    2.6279    1.0066 H   0  0  0  0  0  0  0  0  0  0  0  0
    1.1465    0.8220   -2.1859 H   0  0  0  0  0  0  0  0  0  0  0  0
    0.9739    2.4806   -1.5628 H   0  0  0  0  0  0  0  0  0  0  0  0
   -0.1696   -0.1360   -0.3027 H   0  0  0  0  0  0  0  0  0  0  0  0
    2.8493    3.6295   -1.3489 H   0  0  0  0  0  0  0  0  0  0  0  0
    3.1053    0.6357    1.5924 H   0  0  0  0  0  0  0  0  0  0  0  0
    3.0268   -0.1610   -0.7363 H   0  0  0  0  0  0  0  0  0  0  0  0
  1 15  1  0
  1 13  1  0
  1 14  1  0
  2  4  1  0
  2 16  1  0
  2 18  1  0
  3  7  1  0
  4  1  1  0
  5  9  1  0
  5  3  1  0
  6 11  1  0
  7 12  1  6
  7  4  1  0
  7  6  1  0
  8  5  2  0
  9 22  1  0
 10  6  2  0
 17  2  1  0
 19  3  1  0
 20  3  1  0
 21  4  1  0
 23 11  1  0
 24 12  1  0
M  END
>  <HBA>  (34) 
5

>  <HBD>  (34) 
3

>  <TPSA>  (34) 
94.83

>  <cid>  (34) 
77

>  <dipole>  (34) 
3.62

>  <excitation_energy_1>  (34) 
5.353

>  <excitation_energy_2>  (34) 
5.534

>  <excitation_energy_3>  (34) 
6.11

>  <excitation_energy_4>  (34) 
6.607

>  <homo_energy>  (34) 
-7.486

>  <homo_lumo_gap>  (34) 
6.876

>  <logP>  (34) 
-0.067

>  <lumo_energy>  (34) 
-0.61

>  <melting_point>  (34) 
156.73

>  <molecular_refractivity>  (34) 
40.51

>  <oscillator_strength_1>  (34) 
0.0041

>  <oscillator_strength_2>  (34) 
0.0018

>  <oscillator_strength_3>  (34) 
0.0011

>  <oscillator_strength_4>  (34) 
0.0015

>  <open_babel_can_smiles>  (34) 
OC(=O)C[C@@](C(=O)O)(C(C)C)O

>  <mulliken_charges>  (34) 
24
1   -0.478146
2   -0.464537
3   -0.400779
4   -0.079196
5   0.580312
6   0.609146
7   0.212497
8   -0.460094
9   -0.55384
10   -0.493378
11   -0.566396
12   -0.689418
13   0.153724
14   0.158761
15   0.169874
16   0.15342
17   0.146186
18   0.174346
19   0.191664
20   0.182092
21   0.146188
22   0.438294
23   0.439693
24   0.429588

>  <lowdin_charges>  (34) 
24
1   -0.455393
2   -0.4516
3   -0.326001
4   -0.121867
5   0.196252
6   0.171527
7   0.081844
8   -0.265956
9   -0.332957
10   -0.274715
11   -0.32073
12   -0.4582
13   0.156953
14   0.155036
15   0.161871
16   0.157676
17   0.149087
18   0.164263
19   0.183187
20   0.176151
21   0.152536
22   0.372453
23   0.368194
24   0.360388

$$$$
PCCDB-ID:  79
     RDKit          3D

 12 12  0  0  0  0  0  0  0  0999 V2000
   -0.7594    1.1665    0.0172 C   0  0  0  0  0  0  0  0  0  0  0  0
   -1.4195   -0.0549   -0.0535 C   0  0  0  0  0  0  0  0  0  0  0  0
    0.6362    1.1706    0.0787 C   0  0  0  0  0  0  0  0  0  0  0  0
   -1.2651   -2.5196   -0.1293 C   0  0  0  0  0  0  0  0  0  0  0  0
    0.7504   -1.1108    0.0074 C   0  0  0  0  0  0  0  0  0  0  0  0
   -0.6499   -1.2281   -0.0589 C   0  0  0  0  0  0  0  0  0  0  0  0
   -1.7603   -3.5705   -0.1861 N   0  0  0  0  0  0  0  0  0  0  0  0
    1.3847    0.0595    0.0748 N   0  0  0  0  0  0  0  0  0  0  0  0
   -1.3126    2.1003    0.0249 H   0  0  0  0  0  0  0  0  0  0  0  0
   -2.5023   -0.1120   -0.1023 H   0  0  0  0  0  0  0  0  0  0  0  0
    1.1812    2.1109    0.1343 H   0  0  0  0  0  0  0  0  0  0  0  0
    1.3693   -2.0052    0.0061 H   0  0  0  0  0  0  0  0  0  0  0  0
  1  9  1  0
  1  3  2  0
  2  1  1  0
  3 11  1  0
  4  6  1  0
  5  8  2  0
  6  2  2  0
  6  5  1  0
  7  4  3  0
  8  3  1  0
 10  2  1  0
 12  5  1  0
M  END
>  <HBA>  (35) 
2

>  <HBD>  (35) 
0

>  <TPSA>  (35) 
36.68

>  <cid>  (35) 
79

>  <dipole>  (35) 
3.87

>  <excitation_energy_1>  (35) 
4.502

>  <excitation_energy_2>  (35) 
4.927

>  <excitation_energy_3>  (35) 
5.204

>  <excitation_energy_4>  (35) 
5.652

>  <homo_energy>  (35) 
-7.619

>  <homo_lumo_gap>  (35) 
5.782

>  <logP>  (35) 
0.953

>  <lumo_energy>  (35) 
-1.837

>  <melting_point>  (35) 
56.56

>  <molecular_refractivity>  (35) 
28.95

>  <oscillator_strength_1>  (35) 
0.0007

>  <oscillator_strength_2>  (35) 
0.0033

>  <oscillator_strength_3>  (35) 
0.0696

>  <oscillator_strength_4>  (35) 
0.1839

>  <open_babel_can_smiles>  (35) 
N#Cc1cccnc1

>  <mulliken_charges>  (35) 
12
1   -0.145377
2   -0.097447
3   0.055367
4   0.239011
5   0.045065
6   0.106628
7   -0.466762
8   -0.401965
9   0.156894
10   0.174125
11   0.160186
12   0.174277

>  <lowdin_charges>  (35) 
12
1   -0.167144
2   -0.102203
3   -0.06939
4   -0.013991
5   -0.064326
6   -0.036967
7   -0.105182
8   -0.134702
9   0.174448
10   0.178273
11   0.166347
12   0.174837

$$$$
PCCDB-ID:  80
     RDKit          3D

 20 20  0  0  1  0  0  0  0  0999 V2000
   -0.3507   -1.3660   -0.0607 C   0  0  0  0  0  0  0  0  0  0  0  0
   -0.9801    1.0441    0.1360 C   0  0  0  0  0  0  0  0  0  0  0  0
   -1.3084   -0.4179   -0.0222 C   0  0  0  0  0  0  0  0  0  0  0  0
    1.0829   -1.0379    0.0832 C   0  0  0  0  0  0  0  0  0  0  0  0
    0.4385    1.3843   -0.3425 C   0  0  1  0  0  0  0  0  0  0  0  0
    1.4636    0.4369    0.2743 C   0  0  1  0  0  0  0  0  0  0  0  0
   -2.7627   -0.7544   -0.2175 C   0  0  0  0  0  0  0  0  0  0  0  0
    1.9360   -1.9101    0.1543 O   0  0  0  0  0  0  0  0  0  0  0  0
    0.5883    1.2150   -1.7478 O   0  0  0  0  0  0  0  0  0  0  0  0
    1.4984    0.6975    1.6780 O   0  0  0  0  0  0  0  0  0  0  0  0
   -3.5440    0.0233   -0.7130 O   0  0  0  0  0  0  0  0  0  0  0  0
   -3.1699   -1.9871    0.1705 O   0  0  0  0  0  0  0  0  0  0  0  0
   -0.5677   -2.4201   -0.2231 H   0  0  0  0  0  0  0  0  0  0  0  0
   -1.0718    1.3207    1.1955 H   0  0  0  0  0  0  0  0  0  0  0  0
   -1.7295    1.6333   -0.4042 H   0  0  0  0  0  0  0  0  0  0  0  0
    0.6849    2.4118   -0.0378 H   0  0  0  0  0  0  0  0  0  0  0  0
    2.4428    0.5991   -0.1938 H   0  0  0  0  0  0  0  0  0  0  0  0
   -0.0847    1.7532   -2.1924 H   0  0  0  0  0  0  0  0  0  0  0  0
    2.1745    0.1133    2.0584 H   0  0  0  0  0  0  0  0  0  0  0  0
   -2.4576   -2.4340    0.6576 H   0  0  0  0  0  0  0  0  0  0  0  0
  1  3  2  0
  1  4  1  0
  2 14  1  0
  3  2  1  0
  4  8  2  0
  4  6  1  0
  5 16  1  6
  5  2  1  0
  5  6  1  0
  6 17  1  6
  6 10  1  0
  7  3  1  0
  7 12  1  0
  9  5  1  0
 10 19  1  0
 11  7  2  0
 12 20  1  0
 13  1  1  0
 15  2  1  0
 18  9  1  0
M  END
>  <HBA>  (36) 
5

>  <HBD>  (36) 
3

>  <TPSA>  (36) 
94.83

>  <cid>  (36) 
80

>  <dipole>  (36) 
2.09

>  <excitation_energy_1>  (36) 
3.061

>  <excitation_energy_2>  (36) 
4.229

>  <excitation_energy_3>  (36) 
4.505

>  <excitation_energy_4>  (36) 
4.904

>  <homo_energy>  (36) 
-6.95

>  <homo_lumo_gap>  (36) 
4.329

>  <logP>  (36) 
-1.308

>  <lumo_energy>  (36) 
-2.62

>  <melting_point>  (36) 
144.35

>  <molecular_refractivity>  (36) 
37.47

>  <oscillator_strength_1>  (36) 
0.0009

>  <oscillator_strength_2>  (36) 
0.0041

>  <oscillator_strength_3>  (36) 
0.0054

>  <oscillator_strength_4>  (36) 
0.0233

>  <open_babel_can_smiles>  (36) 
O[C@H]1CC(=CC(=O)[C@@H]1O)C(=O)O

>  <mulliken_charges>  (36) 
20
1   -0.226285
2   -0.370053
3   0.08362
4   0.445667
5   0.103325
6   0.0551
7   0.562276
8   -0.468623
9   -0.6245
10   -0.626867
11   -0.436489
12   -0.560735
13   0.155149
14   0.192282
15   0.184007
16   0.141237
17   0.161651
18   0.402841
19   0.409759
20   0.416638

>  <lowdin_charges>  (36) 
20
1   -0.188722
2   -0.295447
3   -0.005727
4   0.145572
5   -0.005902
6   -0.028829
7   0.194729
8   -0.229388
9   -0.46027
10   -0.452391
11   -0.228738
12   -0.345116
13   0.169542
14   0.18029
15   0.17591
16   0.142661
17   0.156801
18   0.352995
19   0.358294
20   0.363737

$$$$
PCCDB-ID:  86
     RDKit          3D

 18 18  0  0  0  0  0  0  0  0999 V2000
   -1.2609   -0.6733   -0.0168 C   0  0  0  0  0  0  0  0  0  0  0  0
   -0.0679   -1.3656    0.0769 C   0  0  0  0  0  0  0  0  0  0  0  0
   -1.2346    0.7262   -0.1381 C   0  0  0  0  0  0  0  0  0  0  0  0
    1.1775   -0.6979    0.0553 C   0  0  0  0  0  0  0  0  0  0  0  0
   -0.0307    1.4048   -0.1446 C   0  0  0  0  0  0  0  0  0  0  0  0
    1.2103    0.7185   -0.0344 C   0  0  0  0  0  0  0  0  0  0  0  0
    2.4571   -1.4424    0.1567 C   0  0  0  0  0  0  0  0  0  0  0  0
    2.3629    1.4478   -0.0690 N   0  0  0  0  0  0  0  0  0  0  0  0
    0.0761    2.7718   -0.2429 O   0  0  0  0  0  0  0  0  0  0  0  0
    3.5256   -0.9438    0.4654 O   0  0  0  0  0  0  0  0  0  0  0  0
    2.4254   -2.7754   -0.1163 O   0  0  0  0  0  0  0  0  0  0  0  0
   -2.2100   -1.1980    0.0138 H   0  0  0  0  0  0  0  0  0  0  0  0
   -0.1020   -2.4420    0.2265 H   0  0  0  0  0  0  0  0  0  0  0  0
   -2.1647    1.2868   -0.2149 H   0  0  0  0  0  0  0  0  0  0  0  0
    3.2025    0.9780    0.2471 H   0  0  0  0  0  0  0  0  0  0  0  0
    2.2796    2.4459    0.0508 H   0  0  0  0  0  0  0  0  0  0  0  0
   -0.8114    3.1588   -0.2851 H   0  0  0  0  0  0  0  0  0  0  0  0
    1.5736   -3.0082   -0.5188 H   0  0  0  0  0  0  0  0  0  0  0  0
  1 12  1  0
  1  2  2  0
  2 13  1  0
  3  1  1  0
  4  2  1  0
  4  7  1  0
  5  3  2  0
  5  6  1  0
  6  4  2  0
  7 10  2  0
  8  6  1  0
  8 16  1  0
  8 15  1  0
  9  5  1  0
 11  7  1  0
 14  3  1  0
 17  9  1  0
 18 11  1  0
M  END
>  <HBA>  (37) 
4

>  <HBD>  (37) 
3

>  <TPSA>  (37) 
83.55

>  <cid>  (37) 
86

>  <dipole>  (37) 
4.99

>  <excitation_energy_1>  (37) 
3.805

>  <excitation_energy_2>  (37) 
4.587

>  <excitation_energy_3>  (37) 
4.893

>  <excitation_energy_4>  (37) 
4.955

>  <homo_energy>  (37) 
-5.461

>  <homo_lumo_gap>  (37) 
4.387

>  <logP>  (37) 
1.254

>  <lumo_energy>  (37) 
-1.075

>  <melting_point>  (37) 
185.78

>  <molecular_refractivity>  (37) 
39.83

>  <oscillator_strength_1>  (37) 
0.0979

>  <oscillator_strength_2>  (37) 
0.0022

>  <oscillator_strength_3>  (37) 
0.0074

>  <oscillator_strength_4>  (37) 
0.0056

>  <open_babel_can_smiles>  (37) 
OC(=O)c1cccc(c1N)O

>  <mulliken_charges>  (37) 
18
1   -0.147926
2   -0.222384
3   -0.190507
4   0.017506
5   0.318362
6   0.277332
7   0.566426
8   -0.819121
9   -0.663694
10   -0.488379
11   -0.576236
12   0.131813
13   0.124903
14   0.123717
15   0.375058
16   0.346979
17   0.41433
18   0.411821

>  <lowdin_charges>  (37) 
18
1   -0.181168
2   -0.172137
3   -0.192722
4   -0.105869
5   0.072747
6   0.068586
7   0.20549
8   -0.458462
9   -0.390055
10   -0.272804
11   -0.357799
12   0.16133
13   0.152291
14   0.157257
15   0.304511
16   0.289876
17   0.362192
18   0.356736

$$$$
PCCDB-ID:  87
     RDKit          3D

 15 14  0  0  1  0  0  0  0  0999 V2000
    0.9656    0.1641    0.0444 C   0  0  0  0  0  0  0  0  0  0  0  0
    2.9325   -1.2080    0.8507 C   0  0  0  0  0  0  0  0  0  0  0  0
    2.4281   -0.2153   -0.2041 C   0  0  1  0  0  0  0  0  0  0  0  0
    2.6228   -0.7313   -1.6442 C   0  0  0  0  0  0  0  0  0  0  0  0
    4.3617   -1.3226    0.7217 O   0  0  0  0  0  0  0  0  0  0  0  0
    1.7908   -0.6011   -2.5109 O   0  0  0  0  0  0  0  0  0  0  0  0
    3.8074   -1.3243   -1.8980 O   0  0  0  0  0  0  0  0  0  0  0  0
    0.8460    0.6222    1.0323 H   0  0  0  0  0  0  0  0  0  0  0  0
    0.3149   -0.7152   -0.0132 H   0  0  0  0  0  0  0  0  0  0  0  0
    0.6245    0.8688   -0.7162 H   0  0  0  0  0  0  0  0  0  0  0  0
    2.4509   -2.1870    0.7152 H   0  0  0  0  0  0  0  0  0  0  0  0
    2.6799   -0.8387    1.8531 H   0  0  0  0  0  0  0  0  0  0  0  0
    3.0561    0.6839   -0.1102 H   0  0  0  0  0  0  0  0  0  0  0  0
    4.6605   -2.1024    1.2141 H   0  0  0  0  0  0  0  0  0  0  0  0
    4.3272   -1.3697   -1.0627 H   0  0  0  0  0  0  0  0  0  0  0  0
  1  8  1  0
  2 12  1  0
  3 13  1  6
  3  1  1  0
  3  2  1  0
  4  3  1  0
  5  2  1  0
  5 14  1  0
  6  4  2  0
  7  4  1  0
  7 15  1  0
  9  1  1  0
 10  1  1  0
 11  2  1  0
M  END
>  <HBA>  (38) 
3

>  <HBD>  (38) 
2

>  <TPSA>  (38) 
57.53

>  <cid>  (38) 
87

>  <dipole>  (38) 
5.45

>  <excitation_energy_1>  (38) 
5.594

>  <excitation_energy_2>  (38) 
6.209

>  <excitation_energy_3>  (38) 
6.874

>  <excitation_energy_4>  (38) 
6.937

>  <homo_energy>  (38) 
-6.999

>  <homo_lumo_gap>  (38) 
7.505

>  <logP>  (38) 
-0.301

>  <lumo_energy>  (38) 
0.506

>  <melting_point>  (38) 
70.54

>  <molecular_refractivity>  (38) 
24.28

>  <oscillator_strength_1>  (38) 
0.0009

>  <oscillator_strength_2>  (38) 
0.0016

>  <oscillator_strength_3>  (38) 
0.0025

>  <oscillator_strength_4>  (38) 
0.0022

>  <open_babel_can_smiles>  (38) 
OC[C@@H](C(=O)O)C

>  <mulliken_charges>  (38) 
15
1   -0.445282
2   -0.056164
3   -0.221454
4   0.601331
5   -0.633931
6   -0.455422
7   -0.594467
8   0.139435
9   0.157035
10   0.1831
11   0.14932
12   0.151478
13   0.17785
14   0.413817
15   0.433354

>  <lowdin_charges>  (38) 
15
1   -0.43913
2   -0.135174
3   -0.176527
4   0.189367
5   -0.467462
6   -0.253016
7   -0.370438
8   0.148441
9   0.157413
10   0.174841
11   0.141235
12   0.145639
13   0.168858
14   0.359313
15   0.356641

$$$$
PCCDB-ID:  91
     RDKit          3D

 22 22  0  0  0  0  0  0  0  0999 V2000
   -0.6428    1.6593   -0.0802 C   0  0  0  0  0  0  0  0  0  0  0  0
   -1.1629    0.3665   -0.1167 C   0  0  0  0  0  0  0  0  0  0  0  0
    0.7358    1.8725   -0.0993 C   0  0  0  0  0  0  0  0  0  0  0  0
   -0.8566   -2.1470   -0.2488 C   0  0  0  0  0  0  0  0  0  0  0  0
   -1.0395   -2.6190   -1.7003 C   0  0  0  0  0  0  0  0  0  0  0  0
    1.0787   -0.5254   -0.1898 C   0  0  0  0  0  0  0  0  0  0  0  0
   -0.3021   -0.7400   -0.1726 C   0  0  0  0  0  0  0  0  0  0  0  0
    1.5976    0.7726   -0.1533 C   0  0  0  0  0  0  0  0  0  0  0  0
   -1.6228   -4.0238   -1.7945 C   0  0  0  0  0  0  0  0  0  0  0  0
    2.9599    0.9011   -0.1691 O   0  0  0  0  0  0  0  0  0  0  0  0
   -1.9256   -4.7084   -0.8506 O   0  0  0  0  0  0  0  0  0  0  0  0
   -1.7990   -4.4955   -3.0617 O   0  0  0  0  0  0  0  0  0  0  0  0
   -1.3136    2.5130   -0.0311 H   0  0  0  0  0  0  0  0  0  0  0  0
   -2.2387    0.2124   -0.0908 H   0  0  0  0  0  0  0  0  0  0  0  0
    1.1393    2.8830   -0.0660 H   0  0  0  0  0  0  0  0  0  0  0  0
   -0.1938   -2.8499    0.2667 H   0  0  0  0  0  0  0  0  0  0  0  0
   -1.8234   -2.2051    0.2615 H   0  0  0  0  0  0  0  0  0  0  0  0
   -0.0774   -2.5985   -2.2319 H   0  0  0  0  0  0  0  0  0  0  0  0
   -1.6992   -1.9277   -2.2445 H   0  0  0  0  0  0  0  0  0  0  0  0
    1.7738   -1.3602   -0.2210 H   0  0  0  0  0  0  0  0  0  0  0  0
    3.1877    1.8428   -0.1284 H   0  0  0  0  0  0  0  0  0  0  0  0
   -1.5045   -3.8316   -3.7073 H   0  0  0  0  0  0  0  0  0  0  0  0
  1 13  1  0
  2 14  1  0
  2  1  2  0
  3  1  1  0
  3 15  1  0
  4  7  1  0
  4 17  1  0
  4 16  1  0
  5  4  1  0
  6  7  2  0
  6  8  1  0
  7  2  1  0
  8  3  2  0
  9  5  1  0
  9 11  2  0
 10  8  1  0
 10 21  1  0
 12  9  1  0
 18  5  1  0
 19  5  1  0
 20  6  1  0
 22 12  1  0
M  END
>  <HBA>  (39) 
3

>  <HBD>  (39) 
2

>  <TPSA>  (39) 
57.53

>  <cid>  (39) 
91

>  <dipole>  (39) 
5.18

>  <excitation_energy_1>  (39) 
5.004

>  <excitation_energy_2>  (39) 
5.248

>  <excitation_energy_3>  (39) 
5.45

>  <excitation_energy_4>  (39) 
5.612

>  <homo_energy>  (39) 
-6.109

>  <homo_lumo_gap>  (39) 
5.929

>  <logP>  (39) 
1.409

>  <lumo_energy>  (39) 
-0.18

>  <melting_point>  (39) 
123.96

>  <molecular_refractivity>  (39) 
44.82

>  <oscillator_strength_1>  (39) 
0.0395

>  <oscillator_strength_2>  (39) 
0.0002

>  <oscillator_strength_3>  (39) 
0.003

>  <oscillator_strength_4>  (39) 
0.0156

>  <open_babel_can_smiles>  (39) 
OC(=O)CCc1cccc(c1)O

>  <mulliken_charges>  (39) 
22
1   -0.13221
2   -0.187619
3   -0.196689
4   -0.345772
5   -0.401932
6   -0.217051
7   0.159717
8   0.354422
9   0.61149
10   -0.642776
11   -0.436409
12   -0.569334
13   0.13234
14   0.122601
15   0.118469
16   0.168826
17   0.167804
18   0.171856
19   0.171502
20   0.134402
21   0.407616
22   0.408747

>  <lowdin_charges>  (39) 
22
1   -0.14352
2   -0.190049
3   -0.217922
4   -0.26582
5   -0.323597
6   -0.200259
7   0.007558
8   0.106847
9   0.198713
10   -0.378287
11   -0.236642
12   -0.362992
13   0.160189
14   0.153436
15   0.152952
16   0.165093
17   0.163146
18   0.16466
19   0.166049
20   0.165376
21   0.355901
22   0.35917

$$$$
PCCDB-ID:  93
     RDKit          3D

 19 18  0  0  0  0  0  0  0  0999 V2000
    0.9943    0.3784   -0.4824 C   0  0  0  0  0  0  0  0  0  0  0  0
    0.3281    1.7471   -0.7127 C   0  0  0  0  0  0  0  0  0  0  0  0
    3.1937   -0.8855    0.0885 C   0  0  0  0  0  0  0  0  0  0  0  0
    2.5014    0.4014   -0.3607 C   0  0  0  0  0  0  0  0  0  0  0  0
    0.4431    2.2861   -2.1418 C   0  0  0  0  0  0  0  0  0  0  0  0
    2.9832   -1.1784    1.5809 C   0  0  0  0  0  0  0  0  0  0  0  0
    3.1835    1.3856   -0.6025 O   0  0  0  0  0  0  0  0  0  0  0  0
   -0.5048    2.3791   -2.8849 O   0  0  0  0  0  0  0  0  0  0  0  0
    1.6790    2.6561   -2.5357 O   0  0  0  0  0  0  0  0  0  0  0  0
    2.0420   -0.7872    2.2232 O   0  0  0  0  0  0  0  0  0  0  0  0
    3.9291   -1.9564    2.1544 O   0  0  0  0  0  0  0  0  0  0  0  0
    0.7297   -0.3299   -1.2824 H   0  0  0  0  0  0  0  0  0  0  0  0
    0.6185   -0.0683    0.4464 H   0  0  0  0  0  0  0  0  0  0  0  0
    0.7490    2.4758   -0.0089 H   0  0  0  0  0  0  0  0  0  0  0  0
   -0.7393    1.6569   -0.5034 H   0  0  0  0  0  0  0  0  0  0  0  0
    4.2578   -0.7874   -0.1484 H   0  0  0  0  0  0  0  0  0  0  0  0
    2.7920   -1.7414   -0.4718 H   0  0  0  0  0  0  0  0  0  0  0  0
    2.3233    2.4685   -1.8187 H   0  0  0  0  0  0  0  0  0  0  0  0
    4.6303   -2.1775    1.5196 H   0  0  0  0  0  0  0  0  0  0  0  0
  1  4  1  0
  1 13  1  0
  2 15  1  0
  2  1  1  0
  2 14  1  0
  3  6  1  0
  4  3  1  0
  5  2  1  0
  6 11  1  0
  6 10  2  0
  7  4  2  0
  8  5  2  0
  9  5  1  0
  9 18  1  0
 12  1  1  0
 16  3  1  0
 17  3  1  0
 19 11  1  0
M  END
>  <HBA>  (40) 
5

>  <HBD>  (40) 
2

>  <TPSA>  (40) 
91.67

>  <cid>  (40) 
93

>  <dipole>  (40) 
6.18

>  <excitation_energy_1>  (40) 
4.477

>  <excitation_energy_2>  (40) 
4.727

>  <excitation_energy_3>  (40) 
5.56

>  <excitation_energy_4>  (40) 
5.666

>  <homo_energy>  (40) 
-7.021

>  <homo_lumo_gap>  (40) 
5.295

>  <logP>  (40) 
-0.105

>  <lumo_energy>  (40) 
-1.725

>  <melting_point>  (40) 
149.15

>  <molecular_refractivity>  (40) 
34.7

>  <oscillator_strength_1>  (40) 
0.0009

>  <oscillator_strength_2>  (40) 
0.0023

>  <oscillator_strength_3>  (40) 
0.0017

>  <oscillator_strength_4>  (40) 
0.0111

>  <open_babel_can_smiles>  (40) 
OC(=O)CCC(=O)CC(=O)O

>  <mulliken_charges>  (40) 
19
1   -0.384936
2   -0.379023
3   -0.49237
4   0.490556
5   0.575992
6   0.617246
7   -0.455254
8   -0.445849
9   -0.585747
10   -0.423394
11   -0.547332
12   0.188758
13   0.221732
14   0.177685
15   0.184939
16   0.190576
17   0.209189
18   0.43752
19   0.41971

>  <lowdin_charges>  (40) 
19
1   -0.312753
2   -0.314186
3   -0.350212
4   0.192931
5   0.189179
6   0.205728
7   -0.234443
8   -0.253094
9   -0.370482
10   -0.230769
11   -0.336955
12   0.178476
13   0.195139
14   0.170855
15   0.177791
16   0.177534
17   0.192022
18   0.357057
19   0.36618

$$$$
PCCDB-ID:  95
     RDKit          3D

 23 22  0  0  1  0  0  0  0  0999 V2000
   -1.4134    0.1480   -0.8875 C   0  0  0  0  0  0  0  0  0  0  0  0
    0.0740    0.4719   -0.9573 C   0  0  1  0  0  0  0  0  0  0  0  0
    0.5115    1.8673   -0.5080 C   0  0  1  0  0  0  0  0  0  0  0  0
    0.0980    2.2761    0.9109 C   0  0  0  0  0  0  0  0  0  0  0  0
    0.7174    3.5695    1.4694 C   0  0  1  0  0  0  0  0  0  0  0  0
    0.0898    4.7999    0.7566 C   0  0  0  0  0  0  0  0  0  0  0  0
   -1.5146   -1.1887   -1.3935 O   0  0  0  0  0  0  0  0  0  0  0  0
    0.8221   -0.4460   -0.1627 O   0  0  0  0  0  0  0  0  0  0  0  0
    1.9311    1.9553   -0.5952 O   0  0  0  0  0  0  0  0  0  0  0  0
   -0.6708    1.6678    1.6353 O   0  0  0  0  0  0  0  0  0  0  0  0
    0.4840    3.6446    2.8625 O   0  0  0  0  0  0  0  0  0  0  0  0
    0.0765    4.9381   -0.4433 O   0  0  0  0  0  0  0  0  0  0  0  0
   -0.4280    5.6859    1.6123 O   0  0  0  0  0  0  0  0  0  0  0  0
   -1.9873    0.8532   -1.5083 H   0  0  0  0  0  0  0  0  0  0  0  0
   -1.7627    0.2103    0.1467 H   0  0  0  0  0  0  0  0  0  0  0  0
    0.3820    0.3815   -2.0116 H   0  0  0  0  0  0  0  0  0  0  0  0
    0.1087    2.6316   -1.1827 H   0  0  0  0  0  0  0  0  0  0  0  0
    1.7907    3.5777    1.2568 H   0  0  0  0  0  0  0  0  0  0  0  0
   -2.3680   -1.5538   -1.1179 H   0  0  0  0  0  0  0  0  0  0  0  0
    0.4954   -1.3293   -0.4053 H   0  0  0  0  0  0  0  0  0  0  0  0
    2.2558    1.0897   -0.2841 H   0  0  0  0  0  0  0  0  0  0  0  0
   -0.1611    2.9274    3.0489 H   0  0  0  0  0  0  0  0  0  0  0  0
   -0.2843    5.3053    2.5098 H   0  0  0  0  0  0  0  0  0  0  0  0
  1 15  1  0
  2 16  1  6
  2  1  1  0
  2  3  1  0
  2  8  1  0
  3 17  1  6
  3  4  1  0
  4  5  1  0
  4 10  2  0
  5 18  1  1
  5 11  1  0
  6  5  1  0
  6 13  1  0
  7 19  1  0
  7  1  1  0
  9  3  1  0
  9 21  1  0
 11 22  1  0
 12  6  2  0
 13 23  1  0
 14  1  1  0
 20  8  1  0
M  END
>  <HBA>  (41) 
7

>  <HBD>  (41) 
5

>  <TPSA>  (41) 
135.29

>  <cid>  (41) 
95

>  <dipole>  (41) 
4.26

>  <excitation_energy_1>  (41) 
4.234

>  <excitation_energy_2>  (41) 
4.872

>  <excitation_energy_3>  (41) 
5.375

>  <excitation_energy_4>  (41) 
5.708

>  <homo_energy>  (41) 
-7.353

>  <homo_lumo_gap>  (41) 
5.785

>  <logP>  (41) 
-3.285

>  <lumo_energy>  (41) 
-1.567

>  <melting_point>  (41) 
146.46

>  <molecular_refractivity>  (41) 
37.58

>  <oscillator_strength_1>  (41) 
0.001

>  <oscillator_strength_2>  (41) 
0.0256

>  <oscillator_strength_3>  (41) 
0.0008

>  <oscillator_strength_4>  (41) 
0.0043

>  <open_babel_can_smiles>  (41) 
OC[C@@H]([C@@H](C(=O)[C@@H](C(=O)O)O)O)O

>  <mulliken_charges>  (41) 
23
1   -0.07544
2   0.115106
3   0.048796
4   0.41701
5   -0.030287
6   0.585273
7   -0.635352
8   -0.660539
9   -0.6322
10   -0.454765
11   -0.658264
12   -0.445875
13   -0.563419
14   0.132951
15   0.171921
16   0.151594
17   0.205918
18   0.222962
19   0.405433
20   0.417755
21   0.420765
22   0.422626
23   0.438033

>  <lowdin_charges>  (41) 
23
1   -0.160595
2   -0.016849
3   -0.03891
4   0.157065
5   -0.07591
6   0.174191
7   -0.477496
8   -0.471531
9   -0.444608
10   -0.223643
11   -0.452064
12   -0.246095
13   -0.331906
14   0.139964
15   0.153868
16   0.146324
17   0.187244
18   0.192607
19   0.353257
20   0.356582
21   0.354155
22   0.356163
23   0.368187

$$$$
PCCDB-ID:  96
     RDKit          3D

 13 12  0  0  0  0  0  0  0  0999 V2000
    2.5025   -0.7555   -0.9555 C   0  0  0  0  0  0  0  0  0  0  0  0
    2.5697    1.3652    0.5246 C   0  0  0  0  0  0  0  0  0  0  0  0
    1.7660    0.4124   -0.3483 C   0  0  0  0  0  0  0  0  0  0  0  0
    2.0998    2.8309    0.6013 C   0  0  0  0  0  0  0  0  0  0  0  0
    0.5662    0.5769   -0.5334 O   0  0  0  0  0  0  0  0  0  0  0  0
    2.8784    3.7162    0.8574 O   0  0  0  0  0  0  0  0  0  0  0  0
    0.7907    3.0473    0.4239 O   0  0  0  0  0  0  0  0  0  0  0  0
    3.2018   -0.3874   -1.7177 H   0  0  0  0  0  0  0  0  0  0  0  0
    1.7955   -1.4475   -1.4165 H   0  0  0  0  0  0  0  0  0  0  0  0
    3.1026   -1.2742   -0.1984 H   0  0  0  0  0  0  0  0  0  0  0  0
    3.6282    1.3650    0.2531 H   0  0  0  0  0  0  0  0  0  0  0  0
    2.5198    0.9640    1.5494 H   0  0  0  0  0  0  0  0  0  0  0  0
    0.3635    2.2049    0.1323 H   0  0  0  0  0  0  0  0  0  0  0  0
  1  3  1  0
  1 10  1  0
  2  4  1  0
  2 12  1  0
  3  2  1  0
  4  6  2  0
  5  3  2  0
  7  4  1  0
  8  1  1  0
  9  1  1  0
 11  2  1  0
 13  7  1  0
M  END
>  <HBA>  (42) 
3

>  <HBD>  (42) 
1

>  <TPSA>  (42) 
54.37

>  <cid>  (42) 
96

>  <dipole>  (42) 
5.23

>  <excitation_energy_1>  (42) 
4.557

>  <excitation_energy_2>  (42) 
5.209

>  <excitation_energy_3>  (42) 
5.692

>  <excitation_energy_4>  (42) 
6.113

>  <homo_energy>  (42) 
-7.298

>  <homo_lumo_gap>  (42) 
5.826

>  <logP>  (42) 
0.05

>  <lumo_energy>  (42) 
-1.472

>  <melting_point>  (42) 
73.31

>  <molecular_refractivity>  (42) 
23.31

>  <oscillator_strength_1>  (42) 
0.0017

>  <oscillator_strength_2>  (42) 
0.0185

>  <oscillator_strength_3>  (42) 
0.0009

>  <oscillator_strength_4>  (42) 
0.0004

>  <open_babel_can_smiles>  (42) 
CC(=O)CC(=O)O

>  <mulliken_charges>  (42) 
13
1   -0.531229
2   -0.485874
3   0.470608
4   0.603959
5   -0.4571
6   -0.446397
7   -0.575457
8   0.192354
9   0.194454
10   0.181733
11   0.198026
12   0.217543
13   0.437379

>  <lowdin_charges>  (42) 
13
1   -0.469351
2   -0.353383
3   0.181351
4   0.194667
5   -0.242411
6   -0.248434
7   -0.355429
8   0.185483
9   0.182114
10   0.178174
11   0.184638
12   0.201175
13   0.361406

$$$$
PCCDB-ID:  98
     RDKit          3D

 11 10  0  0  0  0  0  0  0  0999 V2000
    1.5155   -0.4344   -0.1320 C   0  0  0  0  0  0  0  0  0  0  0  0
    0.6551   -1.6670   -0.2934 C   0  0  0  0  0  0  0  0  0  0  0  0
    0.8344   -2.7302    0.8120 C   0  0  0  0  0  0  0  0  0  0  0  0
   -0.1268   -1.8303   -1.2028 O   0  0  0  0  0  0  0  0  0  0  0  0
   -0.1675   -3.6206    0.8226 O   0  0  0  0  0  0  0  0  0  0  0  0
    1.7952   -2.7614    1.5486 O   0  0  0  0  0  0  0  0  0  0  0  0
    0.6965    0.6870    1.0854 S   0  0  0  0  0  0  0  0  0  0  0  0
    1.6447    0.0649   -1.0932 H   0  0  0  0  0  0  0  0  0  0  0  0
    2.4820   -0.6833    0.3092 H   0  0  0  0  0  0  0  0  0  0  0  0
    0.0391   -4.2625    1.5287 H   0  0  0  0  0  0  0  0  0  0  0  0
   -0.3776    0.9653    0.3146 H   0  0  0  0  0  0  0  0  0  0  0  0
  1  9  1  0
  1  7  1  0
  2  1  1  0
  2  3  1  0
  3  5  1  0
  3  6  2  0
  4  2  2  0
  5 10  1  0
  8  1  1  0
 11  7  1  0
M  END
>  <HBA>  (43) 
4

>  <HBD>  (43) 
2

>  <TPSA>  (43) 
93.17

>  <cid>  (43) 
98

>  <dipole>  (43) 
0.36

>  <excitation_energy_1>  (43) 
3.169

>  <excitation_energy_2>  (43) 
3.857

>  <excitation_energy_3>  (43) 
5.057

>  <excitation_energy_4>  (43) 
5.535

>  <homo_energy>  (43) 
-6.934

>  <homo_lumo_gap>  (43) 
4.555

>  <logP>  (43) 
-0.43

>  <lumo_energy>  (43) 
-2.378

>  <melting_point>  (43) 
94.24

>  <molecular_refractivity>  (43) 
26.44

>  <oscillator_strength_1>  (43) 
0.0081

>  <oscillator_strength_2>  (43) 
0.0213

>  <oscillator_strength_3>  (43) 
0.0016

>  <oscillator_strength_4>  (43) 
0.0063

>  <open_babel_can_smiles>  (43) 
OC(=O)C(=O)CS

>  <mulliken_charges>  (43) 
11
1   -0.501232
2   0.409798
3   0.534086
4   -0.39929
5   -0.534825
6   -0.444932
7   -0.034368
8   0.209953
9   0.226636
10   0.419524
11   0.114651

>  <lowdin_charges>  (43) 
11
1   -0.39622
2   0.125066
3   0.165359
4   -0.180785
5   -0.316784
6   -0.241533
7   -0.032624
8   0.183012
9   0.198162
10   0.3705
11   0.125848

$$$$
PCCDB-ID:  102
     RDKit          3D

 17 17  0  0  0  0  0  0  0  0999 V2000
   -0.7601    1.1660   -0.1330 C   0  0  0  0  0  0  0  0  0  0  0  0
   -1.3525   -0.0893   -0.2563 C   0  0  0  0  0  0  0  0  0  0  0  0
    0.6231    1.2917    0.0063 C   0  0  0  0  0  0  0  0  0  0  0  0
    0.8309   -1.1198   -0.1133 C   0  0  0  0  0  0  0  0  0  0  0  0
   -1.1907   -2.6150   -0.3465 C   0  0  0  0  0  0  0  0  0  0  0  0
   -0.5535   -1.2415   -0.2435 C   0  0  0  0  0  0  0  0  0  0  0  0
    1.4191    0.1422    0.0173 C   0  0  0  0  0  0  0  0  0  0  0  0
   -2.3584   -2.6434   -1.1582 O   0  0  0  0  0  0  0  0  0  0  0  0
    2.7812    0.1878    0.1441 O   0  0  0  0  0  0  0  0  0  0  0  0
   -1.3773    2.0607   -0.1426 H   0  0  0  0  0  0  0  0  0  0  0  0
   -2.4274   -0.1893   -0.3668 H   0  0  0  0  0  0  0  0  0  0  0  0
    1.0817    2.2745    0.1013 H   0  0  0  0  0  0  0  0  0  0  0  0
    1.4735   -1.9963   -0.1127 H   0  0  0  0  0  0  0  0  0  0  0  0
   -1.5280   -2.9493    0.6419 H   0  0  0  0  0  0  0  0  0  0  0  0
   -0.4426   -3.3458   -0.6931 H   0  0  0  0  0  0  0  0  0  0  0  0
   -2.1106   -2.2932   -2.0288 H   0  0  0  0  0  0  0  0  0  0  0  0
    3.0592    1.1144    0.2118 H   0  0  0  0  0  0  0  0  0  0  0  0
  1  3  2  0
  2  6  2  0
  2  1  1  0
  3  7  1  0
  3 12  1  0
  4 13  1  0
  4  7  2  0
  5  6  1  0
  5 14  1  0
  6  4  1  0
  7  9  1  0
  8  5  1  0
  9 17  1  0
 10  1  1  0
 11  2  1  0
 15  5  1  0
 16  8  1  0
M  END
>  <HBA>  (44) 
2

>  <HBD>  (44) 
2

>  <TPSA>  (44) 
40.46

>  <cid>  (44) 
102

>  <dipole>  (44) 
2.34

>  <excitation_energy_1>  (44) 
4.971

>  <excitation_energy_2>  (44) 
5.258

>  <excitation_energy_3>  (44) 
5.635

>  <excitation_energy_4>  (44) 
5.896

>  <homo_energy>  (44) 
-6.016

>  <homo_lumo_gap>  (44) 
5.883

>  <logP>  (44) 
0.884

>  <lumo_energy>  (44) 
-0.133

>  <melting_point>  (44) 
66.74

>  <molecular_refractivity>  (44) 
34.59

>  <oscillator_strength_1>  (44) 
0.0386

>  <oscillator_strength_2>  (44) 
0.0001

>  <oscillator_strength_3>  (44) 
0.014

>  <oscillator_strength_4>  (44) 
0.005

>  <open_babel_can_smiles>  (44) 
OCc1cccc(c1)O

>  <mulliken_charges>  (44) 
17
1   -0.133192
2   -0.180131
3   -0.195347
4   -0.21833
5   -0.0905
6   0.098907
7   0.355524
8   -0.609622
9   -0.643718
10   0.13191
11   0.139899
12   0.117434
13   0.133504
14   0.166038
15   0.131424
16   0.389055
17   0.407146

>  <lowdin_charges>  (44) 
17
1   -0.143147
2   -0.18615
3   -0.217747
4   -0.198924
5   -0.132991
6   -0.020183
7   0.106763
8   -0.459841
9   -0.379502
10   0.159433
11   0.162806
12   0.152687
13   0.16511
14   0.158263
15   0.135031
16   0.342539
17   0.355854

$$$$
PCCDB-ID:  104
     RDKit          3D

 16 16  0  0  0  0  0  0  0  0999 V2000
    0.7529    1.1138    0.0039 C   0  0  0  0  0  0  0  0  0  0  0  0
   -0.7259    1.3590   -0.0656 C   0  0  0  0  0  0  0  0  0  0  0  0
    2.2185   -1.0178   -0.2006 C   0  0  0  0  0  0  0  0  0  0  0  0
    0.9799   -0.1895   -0.1680 C   0  0  0  0  0  0  0  0  0  0  0  0
    2.3207   -2.0968    0.8973 C   0  0  0  0  0  0  0  0  0  0  0  0
   -1.2908   -0.0398   -0.2931 C   0  0  0  0  0  0  0  0  0  0  0  0
    3.3471   -2.3141    1.4883 O   0  0  0  0  0  0  0  0  0  0  0  0
    1.2077   -2.8235    1.1266 O   0  0  0  0  0  0  0  0  0  0  0  0
   -2.4174   -0.4213   -0.4084 O   0  0  0  0  0  0  0  0  0  0  0  0
   -0.2050   -0.9228   -0.3588 O   0  0  0  0  0  0  0  0  0  0  0  0
    1.5107    1.8671    0.1705 H   0  0  0  0  0  0  0  0  0  0  0  0
   -1.0378    2.0153   -0.8884 H   0  0  0  0  0  0  0  0  0  0  0  0
   -1.1573    1.7787    0.8523 H   0  0  0  0  0  0  0  0  0  0  0  0
    3.0984   -0.3797   -0.1078 H   0  0  0  0  0  0  0  0  0  0  0  0
    2.2803   -1.5364   -1.1690 H   0  0  0  0  0  0  0  0  0  0  0  0
    0.4612   -2.4945    0.5891 H   0  0  0  0  0  0  0  0  0  0  0  0
  1 11  1  0
  2  1  1  0
  2 13  1  0
  3  4  1  0
  3 14  1  0
  3  5  1  0
  4  1  2  0
  5  8  1  0
  5  7  2  0
  6  2  1  0
  9  6  2  0
 10  6  1  0
 10  4  1  0
 12  2  1  0
 15  3  1  0
 16  8  1  0
M  END
>  <HBA>  (45) 
4

>  <HBD>  (45) 
1

>  <TPSA>  (45) 
63.6

>  <cid>  (45) 
104

>  <dipole>  (45) 
4.9

>  <excitation_energy_1>  (45) 
5.347

>  <excitation_energy_2>  (45) 
5.543

>  <excitation_energy_3>  (45) 
5.553

>  <excitation_energy_4>  (45) 
6.05

>  <homo_energy>  (45) 
-7.075

>  <homo_lumo_gap>  (45) 
6.079

>  <logP>  (45) 
0.292

>  <lumo_energy>  (45) 
-0.996

>  <melting_point>  (45) 
98.83

>  <molecular_refractivity>  (45) 
31.42

>  <oscillator_strength_1>  (45) 
0.0534

>  <oscillator_strength_2>  (45) 
0.0013

>  <oscillator_strength_3>  (45) 
0.0086

>  <oscillator_strength_4>  (45) 
0.0025

>  <open_babel_can_smiles>  (45) 
OC(=O)CC1=CCC(=O)O1

>  <mulliken_charges>  (45) 
16
1   -0.207732
2   -0.413071
3   -0.470471
4   0.386842
5   0.600148
6   0.617154
7   -0.432201
8   -0.571196
9   -0.419787
10   -0.51572
11   0.164152
12   0.208051
13   0.210054
14   0.20126
15   0.20519
16   0.437327

>  <lowdin_charges>  (45) 
16
1   -0.219343
2   -0.298301
3   -0.316602
4   0.089743
5   0.196309
6   0.215517
7   -0.23445
8   -0.354128
9   -0.194962
10   -0.189855
11   0.181114
12   0.191003
13   0.191742
14   0.191373
15   0.188411
16   0.362429

$$$$
PCCDB-ID:  107
     RDKit          3D

 21 21  0  0  0  0  0  0  0  0999 V2000
   -1.8611   -0.1002   -0.0186 C   0  0  0  0  0  0  0  0  0  0  0  0
   -1.2215    1.1249    0.1663 C   0  0  0  0  0  0  0  0  0  0  0  0
   -1.0992   -1.2490   -0.2483 C   0  0  0  0  0  0  0  0  0  0  0  0
    0.1735    1.2017    0.1220 C   0  0  0  0  0  0  0  0  0  0  0  0
    0.2917   -1.1695   -0.2924 C   0  0  0  0  0  0  0  0  0  0  0  0
    2.4676    0.1286   -0.1579 C   0  0  0  0  0  0  0  0  0  0  0  0
    3.0903   -0.0533   -1.5667 C   0  0  0  0  0  0  0  0  0  0  0  0
    0.9519    0.0568   -0.1074 C   0  0  0  0  0  0  0  0  0  0  0  0
    2.9237    1.1297   -2.5182 C   0  0  0  0  0  0  0  0  0  0  0  0
    3.8470    1.6605   -3.0845 O   0  0  0  0  0  0  0  0  0  0  0  0
    1.6550    1.5669   -2.7276 O   0  0  0  0  0  0  0  0  0  0  0  0
   -2.9452   -0.1620    0.0168 H   0  0  0  0  0  0  0  0  0  0  0  0
   -1.8038    2.0241    0.3477 H   0  0  0  0  0  0  0  0  0  0  0  0
   -1.5894   -2.2085   -0.3896 H   0  0  0  0  0  0  0  0  0  0  0  0
    0.6653    2.1601    0.2719 H   0  0  0  0  0  0  0  0  0  0  0  0
    0.8764   -2.0715   -0.4616 H   0  0  0  0  0  0  0  0  0  0  0  0
    2.8098    1.0789    0.2680 H   0  0  0  0  0  0  0  0  0  0  0  0
    2.8802   -0.6615    0.4814 H   0  0  0  0  0  0  0  0  0  0  0  0
    2.6594   -0.9452   -2.0425 H   0  0  0  0  0  0  0  0  0  0  0  0
    4.1664   -0.2186   -1.4777 H   0  0  0  0  0  0  0  0  0  0  0  0
    1.0243    1.0735   -2.1723 H   0  0  0  0  0  0  0  0  0  0  0  0
  1 12  1  0
  1  2  2  0
  2 13  1  0
  3  1  1  0
  4  2  1  0
  4 15  1  0
  5  3  2  0
  5  8  1  0
  6  8  1  0
  6 17  1  0
  6 18  1  0
  7 20  1  0
  7  6  1  0
  8  4  2  0
  9  7  1  0
 10  9  2  0
 11  9  1  0
 11 21  1  0
 14  3  1  0
 16  5  1  0
 19  7  1  0
M  END
>  <HBA>  (46) 
2

>  <HBD>  (46) 
1

>  <TPSA>  (46) 
37.3

>  <cid>  (46) 
107

>  <dipole>  (46) 
5.06

>  <excitation_energy_1>  (46) 
5.29

>  <excitation_energy_2>  (46) 
5.52

>  <excitation_energy_3>  (46) 
5.811

>  <excitation_energy_4>  (46) 
6.033

>  <homo_energy>  (46) 
-6.983

>  <homo_lumo_gap>  (46) 
6.348

>  <logP>  (46) 
1.704

>  <lumo_energy>  (46) 
-0.634

>  <melting_point>  (46) 
82.98

>  <molecular_refractivity>  (46) 
42.79

>  <oscillator_strength_1>  (46) 
0.0009

>  <oscillator_strength_2>  (46) 
0.0049

>  <oscillator_strength_3>  (46) 
0.0339

>  <oscillator_strength_4>  (46) 
0.0021

>  <open_babel_can_smiles>  (46) 
OC(=O)CCc1ccccc1

>  <mulliken_charges>  (46) 
21
1   -0.129396
2   -0.120176
3   -0.125601
4   -0.197433
5   -0.173296
6   -0.349881
7   -0.378059
8   0.105801
9   0.581925
10   -0.44057
11   -0.573174
12   0.139583
13   0.142387
14   0.139466
15   0.145206
16   0.133224
17   0.164825
18   0.165904
19   0.169252
20   0.180828
21   0.419183

>  <lowdin_charges>  (46) 
21
1   -0.150824
2   -0.15158
3   -0.149674
4   -0.174361
5   -0.16812
6   -0.275465
7   -0.315256
8   -0.027274
9   0.19362
10   -0.244505
11   -0.36676
12   0.160638
13   0.164512
14   0.162322
15   0.163862
16   0.158904
17   0.159086
18   0.164746
19   0.165002
20   0.172849
21   0.358278

$$$$
PCCDB-ID:  108
     RDKit          3D

 17 17  0  0  0  0  0  0  0  0999 V2000
   -0.7337    1.2828   -0.1391 C   0  0  0  0  0  0  0  0  0  0  0  0
   -1.2094   -0.0241   -0.1677 C   0  0  0  0  0  0  0  0  0  0  0  0
    0.6441    1.4904   -0.0266 C   0  0  0  0  0  0  0  0  0  0  0  0
   -0.7525   -2.5285   -0.1276 C   0  0  0  0  0  0  0  0  0  0  0  0
    1.0578   -0.7548    0.0380 C   0  0  0  0  0  0  0  0  0  0  0  0
   -0.2994   -1.0876   -0.0790 C   0  0  0  0  0  0  0  0  0  0  0  0
   -1.0823   -3.0726   -1.5285 C   0  0  0  0  0  0  0  0  0  0  0  0
    1.5333    0.4961    0.0618 N   0  0  0  0  0  0  0  0  0  0  0  0
   -1.8968   -3.9394   -1.7169 O   0  0  0  0  0  0  0  0  0  0  0  0
   -0.3656   -2.5566   -2.5558 O   0  0  0  0  0  0  0  0  0  0  0  0
   -1.4130    2.1275   -0.2016 H   0  0  0  0  0  0  0  0  0  0  0  0
   -2.2749   -0.2237   -0.2550 H   0  0  0  0  0  0  0  0  0  0  0  0
    1.0499    2.5002   -0.0041 H   0  0  0  0  0  0  0  0  0  0  0  0
   -1.6456   -2.6910    0.4817 H   0  0  0  0  0  0  0  0  0  0  0  0
    0.0306   -3.1805    0.2822 H   0  0  0  0  0  0  0  0  0  0  0  0
    1.8022   -1.5470    0.1295 H   0  0  0  0  0  0  0  0  0  0  0  0
    0.2064   -1.8384   -2.2313 H   0  0  0  0  0  0  0  0  0  0  0  0
  1  3  2  0
  2  1  1  0
  2  6  2  0
  3 13  1  0
  3  8  1  0
  4  6  1  0
  4 15  1  0
  4 14  1  0
  5  8  2  0
  5 16  1  0
  6  5  1  0
  7  4  1  0
  9  7  2  0
 10 17  1  0
 10  7  1  0
 11  1  1  0
 12  2  1  0
M  END
>  <HBA>  (47) 
3

>  <HBD>  (47) 
1

>  <TPSA>  (47) 
50.19

>  <cid>  (47) 
108

>  <dipole>  (47) 
3.58

>  <excitation_energy_1>  (47) 
4.708

>  <excitation_energy_2>  (47) 
5.031

>  <excitation_energy_3>  (47) 
5.173

>  <excitation_energy_4>  (47) 
5.56

>  <homo_energy>  (47) 
-7.159

>  <homo_lumo_gap>  (47) 
5.845

>  <logP>  (47) 
0.709

>  <lumo_energy>  (47) 
-1.314

>  <melting_point>  (47) 
99.15

>  <molecular_refractivity>  (47) 
35.78

>  <oscillator_strength_1>  (47) 
0.0059

>  <oscillator_strength_2>  (47) 
0.0007

>  <oscillator_strength_3>  (47) 
0.0423

>  <oscillator_strength_4>  (47) 
0.0548

>  <open_babel_can_smiles>  (47) 
OC(=O)Cc1cccnc1

>  <mulliken_charges>  (47) 
17
1   -0.136679
2   -0.130683
3   0.041707
4   -0.459708
5   -0.022181
6   0.089985
7   0.59439
8   -0.397318
9   -0.435846
10   -0.56014
11   0.150565
12   0.158816
13   0.153289
14   0.195244
15   0.194712
16   0.149573
17   0.414275

>  <lowdin_charges>  (47) 
17
1   -0.16721
2   -0.128083
3   -0.08206
4   -0.315254
5   -0.113612
6   -0.044064
7   0.188377
8   -0.140418
9   -0.235735
10   -0.35148
11   0.171341
12   0.168158
13   0.16167
14   0.184754
15   0.183126
16   0.15967
17   0.360821

$$$$
PCCDB-ID:  109
     RDKit          3D

 16 15  0  0  1  0  0  0  0  0999 V2000
    0.3404    0.3846   -0.3080 C   0  0  0  0  0  0  0  0  0  0  0  0
    0.4888    1.3569    0.8891 C   0  0  1  0  0  0  0  0  0  0  0  0
   -0.0216    2.7618    0.4752 C   0  0  0  0  0  0  0  0  0  0  0  0
   -0.2166    0.8143    2.0425 N   0  0  0  0  0  0  0  0  0  0  0  0
   -1.0207    3.2407    0.9629 O   0  0  0  0  0  0  0  0  0  0  0  0
    0.6710    3.3885   -0.4834 O   0  0  0  0  0  0  0  0  0  0  0  0
    1.0920    0.2188   -2.8661 O   0  0  0  0  0  0  0  0  0  0  0  0
    2.5515    1.6157   -1.2398 O   0  0  0  0  0  1  0  0  0  0  0  0
    1.8549    0.2839   -1.3852 S   0  0  1  0  0  0  0  0  0  0  0  0
   -0.5086    0.6354   -0.9529 H   0  0  0  0  0  0  0  0  0  0  0  0
    0.1909   -0.6279    0.0783 H   0  0  0  0  0  0  0  0  0  0  0  0
    1.5525    1.4386    1.1435 H   0  0  0  0  0  0  0  0  0  0  0  0
   -1.1974    1.0869    1.9602 H   0  0  0  0  0  0  0  0  0  0  0  0
    0.1095    1.2963    2.8793 H   0  0  0  0  0  0  0  0  0  0  0  0
    1.4711    2.8597   -0.7455 H   0  0  0  0  0  0  0  0  0  0  0  0
    0.6412    1.0719   -3.0378 H   0  0  0  0  0  0  0  0  0  0  0  0
  1 11  1  0
  1  2  1  0
  2 12  1  1
  2  4  1  0
  3  2  1  0
  3  5  2  0
  4 14  1  0
  6  3  1  0
  7  9  1  0
  9  8  1  6
  9  1  1  0
 10  1  1  0
 13  4  1  0
 15  6  1  0
 16  7  1  0
M  RAD  1   8   2
M  END
>  <HBA>  (48) 
5

>  <HBD>  (48) 
3

>  <TPSA>  (48) 
119.83

>  <cid>  (48) 
109

>  <dipole>  (48) 
2.64

>  <excitation_energy_1>  (48) 
5.277

>  <excitation_energy_2>  (48) 
5.606

>  <excitation_energy_3>  (48) 
5.64

>  <excitation_energy_4>  (48) 
6.038

>  <homo_energy>  (48) 
-7.08

>  <homo_lumo_gap>  (48) 
6.253

>  <logP>  (48) 
0.186

>  <lumo_energy>  (48) 
-0.827

>  <melting_point>  (48) 
177.49

>  <molecular_refractivity>  (48) 
30.86

>  <oscillator_strength_1>  (48) 
0.0026

>  <oscillator_strength_2>  (48) 
0.0156

>  <oscillator_strength_3>  (48) 
0.0036

>  <oscillator_strength_4>  (48) 
0.0065

>  <open_babel_can_smiles>  (48) 
O[S](C[C@@H](C(=O)O)N)[O]

>  <mulliken_charges>  (48) 
16
1   -0.513507
2   -0.111239
3   0.571041
4   -0.698143
5   -0.453212
6   -0.594943
7   -0.648035
8   -0.616781
9   0.948423
10   0.201585
11   0.226293
12   0.182102
13   0.318518
14   0.314616
15   0.452032
16   0.421249

>  <lowdin_charges>  (48) 
16
1   -0.438771
2   -0.115002
3   0.166454
4   -0.531791
5   -0.257718
6   -0.36487
7   -0.585187
8   -0.634511
9   0.966774
10   0.179385
11   0.196317
12   0.165841
13   0.26582
14   0.267636
15   0.359543
16   0.360079

$$$$
PCCDB-ID:  110
     RDKit          3D

 13 12  0  0  0  0  0  0  0  0999 V2000
    1.3578    0.5443    0.2345 C   0  0  0  0  0  0  0  0  0  0  0  0
    1.9864    1.9134    0.2807 C   0  0  0  0  0  0  0  0  0  0  0  0
    2.3408    2.5008   -1.1001 C   0  0  0  0  0  0  0  0  0  0  0  0
    2.2291    2.5101    1.3062 O   0  0  0  0  0  0  0  0  0  0  0  0
    3.1494    3.5624   -1.0018 O   0  0  0  0  0  0  0  0  0  0  0  0
    1.9057    2.0507   -2.1370 O   0  0  0  0  0  0  0  0  0  0  0  0
    1.8079   -2.0512   -0.1048 O   0  0  0  0  0  0  0  0  0  0  0  0
    3.7147   -0.3985   -0.6561 O   0  0  0  0  0  1  0  0  0  0  0  0
    2.7226   -0.7426    0.3973 S   0  0  0  0  0  0  0  0  0  0  0  0
    0.8564    0.3641   -0.7181 H   0  0  0  0  0  0  0  0  0  0  0  0
    0.6904    0.3898    1.0850 H   0  0  0  0  0  0  0  0  0  0  0  0
    3.3209    3.8689   -1.9127 H   0  0  0  0  0  0  0  0  0  0  0  0
    1.7001   -1.9900   -1.0766 H   0  0  0  0  0  0  0  0  0  0  0  0
  1  2  1  0
  1  9  1  0
  1 11  1  0
  2  4  2  0
  3  5  1  0
  3  2  1  0
  6  3  2  0
  7  9  1  0
  8  9  1  0
 10  1  1  0
 12  5  1  0
 13  7  1  0
M  RAD  1   8   2
M  END
>  <HBA>  (49) 
5

>  <HBD>  (49) 
2

>  <TPSA>  (49) 
110.88

>  <cid>  (49) 
110

>  <dipole>  (49) 
2.27

>  <excitation_energy_1>  (49) 
3.147

>  <excitation_energy_2>  (49) 
3.843

>  <excitation_energy_3>  (49) 
4.926

>  <excitation_energy_4>  (49) 
5.099

>  <homo_energy>  (49) 
-7.246

>  <homo_lumo_gap>  (49) 
4.582

>  <logP>  (49) 
-0.273

>  <lumo_energy>  (49) 
-2.664

>  <melting_point>  (49) 
144.63

>  <molecular_refractivity>  (49) 
28.36

>  <oscillator_strength_1>  (49) 
0.0023

>  <oscillator_strength_2>  (49) 
0.0507

>  <oscillator_strength_3>  (49) 
0.0005

>  <oscillator_strength_4>  (49) 
0.0007

>  <open_babel_can_smiles>  (49) 
O[S](CC(=O)C(=O)O)[O]

>  <mulliken_charges>  (49) 
13
1   -0.576492
2   0.407688
3   0.547075
4   -0.396291
5   -0.53417
6   -0.446384
7   -0.654036
8   -0.572968
9   0.945516
10   0.220992
11   0.217569
12   0.422098
13   0.419403

>  <lowdin_charges>  (49) 
13
1   -0.467055
2   0.131585
3   0.167869
4   -0.171722
5   -0.311535
6   -0.240466
7   -0.592766
8   -0.612376
9   0.977761
10   0.19412
11   0.196779
12   0.370417
13   0.357389

$$$$
PCCDB-ID:  111
     RDKit          3D

 17 16  0  0  0  0  0  0  0  0999 V2000
    1.1926   -0.0572    0.1712 C   0  0  0  0  0  0  0  0  0  0  0  0
    0.3977    0.7073   -0.9013 C   0  0  0  0  0  0  0  0  0  0  0  0
    2.6215   -0.3408   -0.2705 C   0  0  0  0  0  0  0  0  0  0  0  0
   -1.9119   -0.0461   -0.4275 C   0  0  0  0  0  0  0  0  0  0  0  0
   -1.9005   -1.2390   -0.8903 N   0  0  0  0  0  0  0  0  0  0  0  0
   -0.9819    0.9641   -0.5305 N   0  0  0  0  0  0  0  0  0  0  0  0
    3.0919    0.0246   -1.3187 O   0  0  0  0  0  0  0  0  0  0  0  0
    3.3810   -1.0474    0.6096 O   0  0  0  0  0  0  0  0  0  0  0  0
   -2.9899    0.3883    0.2792 O   0  0  0  0  0  0  0  0  0  0  0  0
    0.6833   -1.0024    0.4036 H   0  0  0  0  0  0  0  0  0  0  0  0
    1.2179    0.5195    1.1068 H   0  0  0  0  0  0  0  0  0  0  0  0
    0.4214    0.1490   -1.8422 H   0  0  0  0  0  0  0  0  0  0  0  0
    0.8795    1.6650   -1.1116 H   0  0  0  0  0  0  0  0  0  0  0  0
   -1.0624   -1.4392   -1.4336 H   0  0  0  0  0  0  0  0  0  0  0  0
   -1.1650    1.7633    0.0615 H   0  0  0  0  0  0  0  0  0  0  0  0
    2.8558   -1.2835    1.3926 H   0  0  0  0  0  0  0  0  0  0  0  0
   -3.6212   -0.3520    0.2505 H   0  0  0  0  0  0  0  0  0  0  0  0
  1 10  1  0
  1 11  1  0
  2  6  1  0
  2  1  1  0
  3  1  1  0
  3  8  1  0
  4  9  1  0
  5  4  2  0
  6  4  1  0
  6 15  1  0
  7  3  2  0
  8 16  1  0
 12  2  1  0
 13  2  1  0
 14  5  1  0
 17  9  1  0
M  END
>  <HBA>  (50) 
5

>  <HBD>  (50) 
3

>  <TPSA>  (50) 
92.42

>  <cid>  (50) 
111

>  <dipole>  (50) 
3.56

>  <excitation_energy_1>  (50) 
5.516

>  <excitation_energy_2>  (50) 
5.621

>  <excitation_energy_3>  (50) 
5.829

>  <excitation_energy_4>  (50) 
5.893

>  <homo_energy>  (50) 
-6.493

>  <homo_lumo_gap>  (50) 
6.49

>  <logP>  (50) 
0.221

>  <lumo_energy>  (50) 
-0.003

>  <melting_point>  (50) 
165.08

>  <molecular_refractivity>  (50) 
29.21

>  <oscillator_strength_1>  (50) 
0.0054

>  <oscillator_strength_2>  (50) 
0.0012

>  <oscillator_strength_3>  (50) 
0.0008

>  <oscillator_strength_4>  (50) 
0.0113

>  <open_babel_can_smiles>  (50) 
OC(=O)CCNC(=N)O

>  <mulliken_charges>  (50) 
17
1   -0.412674
2   -0.149473
3   0.614431
4   0.636301
5   -0.661712
6   -0.585613
7   -0.437123
8   -0.56486
9   -0.606197
10   0.184462
11   0.170584
12   0.180731
13   0.178419
14   0.28287
15   0.336081
16   0.411771
17   0.422002

>  <lowdin_charges>  (50) 
17
1   -0.340125
2   -0.193403
3   0.195226
4   0.158759
5   -0.49622
6   -0.297173
7   -0.236252
8   -0.353617
9   -0.383245
10   0.171519
11   0.165189
12   0.163332
13   0.168578
14   0.257439
15   0.289791
16   0.360856
17   0.369348

$$$$
PCCDB-ID:  113
     RDKit          3D

 20 19  0  0  1  0  0  0  0  0999 V2000
    1.1168    0.2903    0.4285 C   0  0  0  0  0  0  0  0  0  0  0  0
    0.0668    1.4011    0.3302 C   0  0  1  0  0  0  0  0  0  0  0  0
    0.4582    2.6248    1.1596 C   0  0  0  0  0  0  0  0  0  0  0  0
    0.5977    2.4299    2.6762 C   0  0  0  0  0  0  0  0  0  0  0  0
   -0.1352    1.7837   -1.0047 O   0  0  0  0  0  0  0  0  0  0  0  0
    0.6118    3.7079    0.6401 O   0  0  0  0  0  0  0  0  0  0  0  0
    1.1067    3.5088    3.2803 O   0  0  0  0  0  0  0  0  0  0  0  0
    0.2625    1.4095    3.2384 O   0  0  0  0  0  0  0  0  0  0  0  0
    3.8117   -1.0735    0.7078 O   0  0  0  0  0  0  0  0  0  0  0  0
    3.0125   -0.8800   -1.6519 O   0  0  0  0  0  0  0  0  0  0  0  0
    4.7867    0.8522   -0.8353 O   0  0  0  0  0  0  0  0  0  0  0  0
    2.4003    0.8791    0.1307 O   0  0  0  0  0  0  0  0  0  0  0  0
    3.6247    0.0306   -0.4546 P   0  0  0  0  0  0  0  0  0  0  0  0
    0.8748   -0.4774   -0.3109 H   0  0  0  0  0  0  0  0  0  0  0  0
    1.1424   -0.1445    1.4300 H   0  0  0  0  0  0  0  0  0  0  0  0
   -0.8668    0.9946    0.7509 H   0  0  0  0  0  0  0  0  0  0  0  0
    0.1657    2.7098   -1.0738 H   0  0  0  0  0  0  0  0  0  0  0  0
    1.1568    3.3019    4.2336 H   0  0  0  0  0  0  0  0  0  0  0  0
    4.6105   -1.6071    0.5637 H   0  0  0  0  0  0  0  0  0  0  0  0
    3.1260   -0.4243   -2.5031 H   0  0  0  0  0  0  0  0  0  0  0  0
  1 15  1  0
  2  1  1  0
  2 16  1  1
  2  3  1  0
  3  4  1  0
  4  8  2  0
  4  7  1  0
  5  2  1  0
  6  3  2  0
  7 18  1  0
 10 13  1  0
 11 13  2  0
 12  1  1  0
 13 12  1  0
 13  9  1  0
 14  1  1  0
 17  5  1  0
 19  9  1  0
 20 10  1  0
M  END
>  <HBA>  (51) 
8

>  <HBD>  (51) 
4

>  <TPSA>  (51) 
151.17

>  <cid>  (51) 
113

>  <dipole>  (51) 
2.71

>  <excitation_energy_1>  (51) 
3.421

>  <excitation_energy_2>  (51) 
4.252

>  <excitation_energy_3>  (51) 
4.846

>  <excitation_energy_4>  (51) 
4.971

>  <homo_energy>  (51) 
-7.706

>  <homo_lumo_gap>  (51) 
5.015

>  <logP>  (51) 
-1.89

>  <lumo_energy>  (51) 
-2.691

>  <melting_point>  (51) 
171.66

>  <molecular_refractivity>  (51) 
36.55

>  <oscillator_strength_1>  (51) 
0.0001

>  <oscillator_strength_2>  (51) 
0.018

>  <oscillator_strength_3>  (51) 
0.0018

>  <oscillator_strength_4>  (51) 
0.0

>  <open_babel_can_smiles>  (51) 
O[C@H](C(=O)C(=O)O)COP(=O)(O)O

>  <mulliken_charges>  (51) 
20
1   -0.067505
2   0.068502
3   0.382791
4   0.550221
5   -0.633679
6   -0.414277
7   -0.531043
8   -0.445522
9   -0.648296
10   -0.655487
11   -0.52521
12   -0.517297
13   1.153648
14   0.188763
15   0.190394
16   0.17428
17   0.417722
18   0.424587
19   0.443755
20   0.443653

>  <lowdin_charges>  (51) 
20
1   -0.131653
2   -0.035224
3   0.134035
4   0.168003
5   -0.447296
6   -0.170964
7   -0.304573
8   -0.240186
9   -0.561362
10   -0.571426
11   -0.570176
12   -0.386781
13   1.105323
14   0.172882
15   0.168411
16   0.169919
17   0.353124
18   0.371513
19   0.388283
20   0.388147

$$$$
PCCDB-ID:  114
     RDKit          3D

 23 23  0  0  0  0  0  0  0  0999 V2000
   -0.7931    0.1156   -0.4387 C   0  0  0  0  0  0  0  0  0  0  0  0
   -3.8856    3.0537    1.5787 C   0  0  0  0  0  0  0  0  0  0  0  0
   -0.7778    0.9512    0.8618 C   0  0  0  0  0  0  0  0  0  0  0  0
   -2.6040    2.7081    1.1498 C   0  0  0  0  0  0  0  0  0  0  0  0
   -1.4102    0.8209   -1.6513 C   0  0  0  0  0  0  0  0  0  0  0  0
   -4.6759    2.0704    2.1731 C   0  0  0  0  0  0  0  0  0  0  0  0
   -3.0317    0.5011    1.9453 C   0  0  0  0  0  0  0  0  0  0  0  0
   -2.1471    1.3973    1.3254 C   0  0  0  0  0  0  0  0  0  0  0  0
   -0.6000    2.0117   -2.1523 C   0  0  0  0  0  0  0  0  0  0  0  0
   -4.2639    0.8097    2.3613 N   0  0  0  0  0  0  0  0  0  0  0  0
    0.4796    2.3435   -1.7298 O   0  0  0  0  0  0  0  0  0  0  0  0
   -1.1763    2.7187   -3.1642 O   0  0  0  0  0  0  0  0  0  0  0  0
   -1.3488   -0.8144   -0.2671 H   0  0  0  0  0  0  0  0  0  0  0  0
    0.2381   -0.1641   -0.6803 H   0  0  0  0  0  0  0  0  0  0  0  0
   -4.2633    4.0652    1.4588 H   0  0  0  0  0  0  0  0  0  0  0  0
   -0.1327    1.8221    0.7113 H   0  0  0  0  0  0  0  0  0  0  0  0
   -0.3091    0.3411    1.6444 H   0  0  0  0  0  0  0  0  0  0  0  0
   -1.9556    3.4515    0.6906 H   0  0  0  0  0  0  0  0  0  0  0  0
   -2.4301    1.1604   -1.4225 H   0  0  0  0  0  0  0  0  0  0  0  0
   -1.5044    0.1116   -2.4864 H   0  0  0  0  0  0  0  0  0  0  0  0
   -5.6818    2.3023    2.5193 H   0  0  0  0  0  0  0  0  0  0  0  0
   -2.7178   -0.5286    2.1216 H   0  0  0  0  0  0  0  0  0  0  0  0
   -2.0380    2.3314   -3.3921 H   0  0  0  0  0  0  0  0  0  0  0  0
  1 13  1  0
  1  3  1  0
  2  6  2  0
  3  8  1  0
  3 17  1  0
  4  8  2  0
  4  2  1  0
  5 19  1  0
  5  1  1  0
  6 10  1  0
  6 21  1  0
  7 22  1  0
  7 10  2  0
  8  7  1  0
  9 11  2  0
  9  5  1  0
 12  9  1  0
 14  1  1  0
 15  2  1  0
 16  3  1  0
 18  4  1  0
 20  5  1  0
 23 12  1  0
M  END
>  <HBA>  (52) 
3

>  <HBD>  (52) 
1

>  <TPSA>  (52) 
50.19

>  <cid>  (52) 
114

>  <dipole>  (52) 
2.48

>  <excitation_energy_1>  (52) 
4.818

>  <excitation_energy_2>  (52) 
5.101

>  <excitation_energy_3>  (52) 
5.352

>  <excitation_energy_4>  (52) 
5.682

>  <homo_energy>  (52) 
-6.895

>  <homo_lumo_gap>  (52) 
6.212

>  <logP>  (52) 
1.489

>  <lumo_energy>  (52) 
-0.683

>  <melting_point>  (52) 
97.82

>  <molecular_refractivity>  (52) 
45.4

>  <oscillator_strength_1>  (52) 
0.0041

>  <oscillator_strength_2>  (52) 
0.0002

>  <oscillator_strength_3>  (52) 
0.0431

>  <oscillator_strength_4>  (52) 
0.0008

>  <open_babel_can_smiles>  (52) 
OC(=O)CCCc1cccnc1

>  <mulliken_charges>  (52) 
23
1   -0.248935
2   -0.137268
3   -0.364541
4   -0.167957
5   -0.410418
6   0.034293
7   -0.011275
8   0.151508
9   0.609025
10   -0.407556
11   -0.440356
12   -0.566244
13   0.141682
14   0.163415
15   0.138755
16   0.179667
17   0.153008
18   0.150552
19   0.171289
20   0.173238
21   0.14146
22   0.136086
23   0.410573

>  <lowdin_charges>  (52) 
23
1   -0.266098
2   -0.173994
3   -0.280897
4   -0.148027
5   -0.328495
6   -0.094114
7   -0.101843
8   -0.022478
9   0.194013
10   -0.146058
11   -0.239612
12   -0.357127
13   0.148962
14   0.159901
15   0.163761
16   0.166993
17   0.159516
18   0.166065
19   0.164057
20   0.169515
21   0.155627
22   0.151631
23   0.358703

$$$$
PCCDB-ID:  117
     RDKit          3D

 14 14  0  0  0  0  0  0  0  0999 V2000
   -0.8354   -0.0559    0.6108 C   0  0  0  0  0  0  0  0  0  0  0  0
    1.2453   -0.3632    0.1939 C   0  0  0  0  0  0  0  0  0  0  0  0
    0.9809    0.9371   -0.2058 C   0  0  0  0  0  0  0  0  0  0  0  0
    2.5442   -1.0226    0.1437 C   0  0  0  0  0  0  0  0  0  0  0  0
    1.7918    1.8597   -0.8309 N   0  0  0  0  0  0  0  0  0  0  0  0
    0.0992   -0.9620    0.6967 N   0  0  0  0  0  0  0  0  0  0  0  0
   -0.3520    1.1241    0.0687 N   0  0  0  0  0  0  0  0  0  0  0  0
    3.5531   -0.4871   -0.2893 O   0  0  0  0  0  0  0  0  0  0  0  0
    2.5604   -2.2851    0.6240 O   0  0  0  0  0  0  0  0  0  0  0  0
   -1.8650   -0.1607    0.9234 H   0  0  0  0  0  0  0  0  0  0  0  0
    1.7500    2.8040   -0.4614 H   0  0  0  0  0  0  0  0  0  0  0  0
    2.7459    1.5018   -0.8657 H   0  0  0  0  0  0  0  0  0  0  0  0
   -0.8952    1.9421   -0.1695 H   0  0  0  0  0  0  0  0  0  0  0  0
    1.6493   -2.4962    0.9120 H   0  0  0  0  0  0  0  0  0  0  0  0
  1  6  2  0
  1 10  1  0
  2  6  1  0
  3  7  1  0
  3  2  2  0
  4  2  1  0
  4  9  1  0
  5 11  1  0
  5  3  1  0
  7  1  1  0
  8  4  2  0
  9 14  1  0
 12  5  1  0
 13  7  1  0
M  END
>  <HBA>  (53) 
4

>  <HBD>  (53) 
3

>  <TPSA>  (53) 
92.0

>  <cid>  (53) 
117

>  <dipole>  (53) 
6.71

>  <excitation_energy_1>  (53) 
4.764

>  <excitation_energy_2>  (53) 
5.105

>  <excitation_energy_3>  (53) 
5.373

>  <excitation_energy_4>  (53) 
5.488

>  <homo_energy>  (53) 
-5.889

>  <homo_lumo_gap>  (53) 
5.652

>  <logP>  (53) 
0.271

>  <lumo_energy>  (53) 
-0.237

>  <melting_point>  (53) 
207.58

>  <molecular_refractivity>  (53) 
29.95

>  <oscillator_strength_1>  (53) 
0.0065

>  <oscillator_strength_2>  (53) 
0.1625

>  <oscillator_strength_3>  (53) 
0.0322

>  <oscillator_strength_4>  (53) 
0.026

>  <open_babel_can_smiles>  (53) 
Nc1c(nc[nH]1)C(=O)O

>  <mulliken_charges>  (53) 
14
1   0.222599
2   0.115389
3   0.47934
4   0.590787
5   -0.793002
6   -0.523486
7   -0.622028
8   -0.51209
9   -0.589945
10   0.167459
11   0.325201
12   0.370996
13   0.339289
14   0.429491

>  <lowdin_charges>  (53) 
14
1   -0.081554
2   -0.113432
3   0.087315
4   0.193807
5   -0.473841
6   -0.189537
7   -0.196568
8   -0.294822
9   -0.350995
10   0.171718
11   0.281171
12   0.303219
13   0.299332
14   0.364188

$$$$
PCCDB-ID:  118
     RDKit          3D

 15 14  0  0  0  0  0  0  0  0999 V2000
    1.2305   -0.1432    0.0102 C   0  0  0  0  0  0  0  0  0  0  0  0
    0.7269   -0.6782    1.3658 C   0  0  0  0  0  0  0  0  0  0  0  0
    2.7605   -0.1056   -0.1218 C   0  0  0  0  0  0  0  0  0  0  0  0
    0.8108   -2.1807    1.4961 C   0  0  0  0  0  0  0  0  0  0  0  0
    3.3491    0.7506    0.9144 N   0  0  0  0  0  0  0  0  0  0  0  0
   -0.0374   -2.8753    2.0134 O   0  0  0  0  0  0  0  0  0  0  0  0
    0.8431    0.8759   -0.1251 H   0  0  0  0  0  0  0  0  0  0  0  0
    0.8149   -0.7352   -0.8164 H   0  0  0  0  0  0  0  0  0  0  0  0
   -0.3101   -0.3856    1.5602 H   0  0  0  0  0  0  0  0  0  0  0  0
    1.3548   -0.2373    2.1543 H   0  0  0  0  0  0  0  0  0  0  0  0
    3.0150    0.1984   -1.1526 H   0  0  0  0  0  0  0  0  0  0  0  0
    3.1730   -1.1133    0.0125 H   0  0  0  0  0  0  0  0  0  0  0  0
    1.7346   -2.6473    1.0805 H   0  0  0  0  0  0  0  0  0  0  0  0
    3.1266    1.7267    0.7218 H   0  0  0  0  0  0  0  0  0  0  0  0
    4.3646    0.6811    0.8915 H   0  0  0  0  0  0  0  0  0  0  0  0
  1  2  1  0
  2  4  1  0
  2  9  1  0
  2 10  1  0
  3  1  1  0
  3 12  1  0
  3  5  1  0
  4  6  2  0
  7  1  1  0
  8  1  1  0
 11  3  1  0
 13  4  1  0
 14  5  1  0
 15  5  1  0
M  END
>  <HBA>  (54) 
2

>  <HBD>  (54) 
1

>  <TPSA>  (54) 
43.09

>  <cid>  (54) 
118

>  <dipole>  (54) 
4.3

>  <excitation_energy_1>  (54) 
4.209

>  <excitation_energy_2>  (54) 
5.4

>  <excitation_energy_3>  (54) 
5.775

>  <excitation_energy_4>  (54) 
6.192

>  <homo_energy>  (54) 
-6.588

>  <homo_lumo_gap>  (54) 
6.196

>  <logP>  (54) 
0.625

>  <lumo_energy>  (54) 
-0.392

>  <melting_point>  (54) 
60.74

>  <molecular_refractivity>  (54) 
24.25

>  <oscillator_strength_1>  (54) 
0.0001

>  <oscillator_strength_2>  (54) 
0.016

>  <oscillator_strength_3>  (54) 
0.0051

>  <oscillator_strength_4>  (54) 
0.0034

>  <open_babel_can_smiles>  (54) 
NCCCC=O

>  <mulliken_charges>  (54) 
15
1   -0.275439
2   -0.335795
3   -0.145348
4   0.258831
5   -0.71392
6   -0.392562
7   0.140929
8   0.143524
9   0.160073
10   0.196655
11   0.123007
12   0.145818
13   0.094841
14   0.296495
15   0.302893

>  <lowdin_charges>  (54) 
15
1   -0.28031
2   -0.316442
3   -0.206348
4   0.056379
5   -0.554092
6   -0.223459
7   0.147071
8   0.148858
9   0.161448
10   0.183607
11   0.123442
12   0.140745
13   0.109946
14   0.252393
15   0.256762

$$$$
PCCDB-ID:  119
     RDKit          3D

 16 15  0  0  0  0  0  0  0  0999 V2000
    1.2356    0.0042   -0.0762 C   0  0  0  0  0  0  0  0  0  0  0  0
    0.7316   -0.9659   -1.1706 C   0  0  0  0  0  0  0  0  0  0  0  0
    2.7544    0.0131    0.1542 C   0  0  0  0  0  0  0  0  0  0  0  0
    1.4525   -0.8475   -2.5159 C   0  0  0  0  0  0  0  0  0  0  0  0
    3.3072   -1.3577    0.1537 N   0  0  0  0  0  0  0  0  0  0  0  0
    0.9475   -0.3542   -3.4983 O   0  0  0  0  0  0  0  0  0  0  0  0
    2.7070   -1.3404   -2.5396 O   0  0  0  0  0  0  0  0  0  0  0  0
    0.7241   -0.2546    0.8610 H   0  0  0  0  0  0  0  0  0  0  0  0
    0.9269    1.0270   -0.3221 H   0  0  0  0  0  0  0  0  0  0  0  0
   -0.3286   -0.7772   -1.3546 H   0  0  0  0  0  0  0  0  0  0  0  0
    0.8279   -1.9990   -0.8144 H   0  0  0  0  0  0  0  0  0  0  0  0
    2.9741    0.5633    1.0815 H   0  0  0  0  0  0  0  0  0  0  0  0
    3.2489    0.5489   -0.6630 H   0  0  0  0  0  0  0  0  0  0  0  0
    2.8924   -1.9127    0.9018 H   0  0  0  0  0  0  0  0  0  0  0  0
    4.3101   -1.3334    0.3310 H   0  0  0  0  0  0  0  0  0  0  0  0
    2.9695   -1.6244   -1.6200 H   0  0  0  0  0  0  0  0  0  0  0  0
  1  3  1  0
  1  8  1  0
  2 11  1  0
  2  1  1  0
  3 12  1  0
  4  2  1  0
  5  3  1  0
  5 15  1  0
  5 14  1  0
  6  4  2  0
  7  4  1  0
  7 16  1  0
  9  1  1  0
 10  2  1  0
 13  3  1  0
M  END
>  <HBA>  (55) 
3

>  <HBD>  (55) 
2

>  <TPSA>  (55) 
63.32

>  <cid>  (55) 
119

>  <dipole>  (55) 
6.63

>  <excitation_energy_1>  (55) 
5.49

>  <excitation_energy_2>  (55) 
5.994

>  <excitation_energy_3>  (55) 
6.359

>  <excitation_energy_4>  (55) 
6.747

>  <homo_energy>  (55) 
-6.629

>  <homo_lumo_gap>  (55) 
7.372

>  <logP>  (55) 
0.51

>  <lumo_energy>  (55) 
0.743

>  <melting_point>  (55) 
106.17

>  <molecular_refractivity>  (55) 
25.82

>  <oscillator_strength_1>  (55) 
0.002

>  <oscillator_strength_2>  (55) 
0.0049

>  <oscillator_strength_3>  (55) 
0.0132

>  <oscillator_strength_4>  (55) 
0.0017

>  <open_babel_can_smiles>  (55) 
NCCCC(=O)O

>  <mulliken_charges>  (55) 
16
1   -0.276516
2   -0.363268
3   -0.158173
4   0.579373
5   -0.761936
6   -0.458916
7   -0.60181
8   0.143008
9   0.165791
10   0.172907
11   0.151132
12   0.141702
13   0.174505
14   0.317524
15   0.326236
16   0.448443

>  <lowdin_charges>  (55) 
16
1   -0.277955
2   -0.316199
3   -0.217243
4   0.186507
5   -0.54219
6   -0.262568
7   -0.38431
8   0.146676
9   0.159895
10   0.169927
11   0.154177
12   0.138388
13   0.157918
14   0.266438
15   0.269732
16   0.350807

$$$$
PCCDB-ID:  122
     RDKit          3D

 22 21  0  0  0  0  0  0  0  0999 V2000
    2.5555   -1.2394   -1.6392 C   0  0  0  0  0  0  0  0  0  0  0  0
    2.7507   -2.5613   -1.7179 C   0  0  0  0  0  0  0  0  0  0  0  0
    2.5074    0.9934   -0.3615 C   0  0  0  0  0  0  0  0  0  0  0  0
    0.7692    2.8928   -0.7534 C   0  0  0  0  0  0  0  0  0  0  0  0
    2.7218   -0.5133   -0.3447 C   0  0  0  0  0  0  0  0  0  0  0  0
    1.0865    1.3941   -0.7327 C   0  0  0  0  0  0  0  0  0  0  0  0
    2.6000   -3.2843   -3.0148 C   0  0  0  0  0  0  0  0  0  0  0  0
    1.4577    3.6271   -1.8931 C   0  0  0  0  0  0  0  0  0  0  0  0
    3.0430   -1.0907    0.6804 O   0  0  0  0  0  0  0  0  0  0  0  0
    0.2233    0.5798   -0.9880 O   0  0  0  0  0  0  0  0  0  0  0  0
    2.3672   -2.7442   -4.0699 O   0  0  0  0  0  0  0  0  0  0  0  0
    2.7470   -4.6349   -2.9537 O   0  0  0  0  0  0  0  0  0  0  0  0
    2.5406    3.3532   -2.3640 O   0  0  0  0  0  0  0  0  0  0  0  0
    0.7103    4.6642   -2.3223 O   0  0  0  0  0  0  0  0  0  0  0  0
    2.2783   -0.6838   -2.5303 H   0  0  0  0  0  0  0  0  0  0  0  0
    3.0211   -3.1061   -0.8146 H   0  0  0  0  0  0  0  0  0  0  0  0
    3.1843    1.4791   -1.0791 H   0  0  0  0  0  0  0  0  0  0  0  0
    2.7516    1.3914    0.6306 H   0  0  0  0  0  0  0  0  0  0  0  0
    1.1118    3.3581    0.1814 H   0  0  0  0  0  0  0  0  0  0  0  0
   -0.3123    3.0221   -0.8250 H   0  0  0  0  0  0  0  0  0  0  0  0
    2.9138   -4.9178   -2.0396 H   0  0  0  0  0  0  0  0  0  0  0  0
    1.2187    5.0970   -3.0354 H   0  0  0  0  0  0  0  0  0  0  0  0
  1  5  1  0
  2  1  2  0
  2 16  1  0
  3  5  1  0
  3 18  1  0
  4  6  1  0
  4 19  1  0
  5  9  2  0
  6  3  1  0
  7 12  1  0
  7  2  1  0
  8  4  1  0
 10  6  2  0
 11  7  2  0
 12 21  1  0
 13  8  2  0
 14  8  1  0
 15  1  1  0
 17  3  1  0
 20  4  1  0
 22 14  1  0
M  END
>  <HBA>  (56) 
6

>  <HBD>  (56) 
2

>  <TPSA>  (56) 
108.74

>  <cid>  (56) 
122

>  <dipole>  (56) 
4.51

>  <excitation_energy_1>  (56) 
3.255

>  <excitation_energy_2>  (56) 
3.863

>  <excitation_energy_3>  (56) 
4.124

>  <excitation_energy_4>  (56) 
4.408

>  <homo_energy>  (56) 
-7.225

>  <homo_lumo_gap>  (56) 
4.615

>  <logP>  (56) 
-0.37

>  <lumo_energy>  (56) 
-2.61

>  <melting_point>  (56) 
179.0

>  <molecular_refractivity>  (56) 
44.04

>  <oscillator_strength_1>  (56) 
0.0003

>  <oscillator_strength_2>  (56) 
0.0001

>  <oscillator_strength_3>  (56) 
0.0067

>  <oscillator_strength_4>  (56) 
0.0008

>  <open_babel_can_smiles>  (56) 
O=C(CC(=O)CC(=O)O)/C=C/C(=O)O

>  <mulliken_charges>  (56) 
22
1   -0.12407
2   -0.206646
3   -0.475302
4   -0.440856
5   0.451162
6   0.459312
7   0.608039
8   0.584549
9   -0.445414
10   -0.415304
11   -0.442721
12   -0.573967
13   -0.450689
14   -0.548762
15   0.183555
16   0.166282
17   0.229881
18   0.192689
19   0.204065
20   0.21138
21   0.413577
22   0.41924

>  <lowdin_charges>  (56) 
22
1   -0.137272
2   -0.168967
3   -0.34778
4   -0.329672
5   0.171291
6   0.179636
7   0.196406
8   0.202033
9   -0.223746
10   -0.211813
11   -0.234333
12   -0.349912
13   -0.263267
14   -0.341211
15   0.186849
16   0.173694
17   0.203219
18   0.183688
19   0.191872
20   0.190955
21   0.359064
22   0.369268

$$$$
PCCDB-ID:  124
     RDKit          3D

 17 16  0  0  1  0  0  0  0  0999 V2000
    2.0870   -1.1701    0.4652 C   0  0  0  0  0  0  0  0  0  0  0  0
    2.2978    0.2521   -1.6374 C   0  0  0  0  0  0  0  0  0  0  0  0
    1.4318   -0.7731   -0.8575 C   0  0  1  0  0  0  0  0  0  0  0  0
    1.7316    0.5005   -3.0180 C   0  0  0  0  0  0  0  0  0  0  0  0
    2.1824   -0.5037   -4.1064 C   0  0  0  0  0  0  0  0  0  0  0  0
    1.1227   -1.9097   -1.6569 O   0  0  0  0  0  0  0  0  0  0  0  0
    0.9652    1.3951   -3.2938 O   0  0  0  0  0  0  0  0  0  0  0  0
    1.6854   -0.2070   -5.3116 O   0  0  0  0  0  0  0  0  0  0  0  0
    2.9153   -1.4485   -3.8856 O   0  0  0  0  0  0  0  0  0  0  0  0
    2.2528   -0.2977    1.1084 H   0  0  0  0  0  0  0  0  0  0  0  0
    3.0568   -1.6522    0.2883 H   0  0  0  0  0  0  0  0  0  0  0  0
    1.4450   -1.8785    0.9975 H   0  0  0  0  0  0  0  0  0  0  0  0
    3.3222   -0.1287   -1.7190 H   0  0  0  0  0  0  0  0  0  0  0  0
    2.3117    1.2045   -1.0994 H   0  0  0  0  0  0  0  0  0  0  0  0
    0.4610   -0.3056   -0.6567 H   0  0  0  0  0  0  0  0  0  0  0  0
    1.9485   -2.2295   -2.0598 H   0  0  0  0  0  0  0  0  0  0  0  0
    2.0112   -0.8933   -5.9250 H   0  0  0  0  0  0  0  0  0  0  0  0
  1 12  1  0
  1 10  1  0
  2 14  1  0
  2  3  1  0
  3 15  1  1
  3  1  1  0
  4  2  1  0
  5  9  2  0
  5  4  1  0
  6  3  1  0
  7  4  2  0
  8  5  1  0
 11  1  1  0
 13  2  1  0
 16  6  1  0
 17  8  1  0
M  END
>  <HBA>  (57) 
4

>  <HBD>  (57) 
2

>  <TPSA>  (57) 
74.6

>  <cid>  (57) 
124

>  <dipole>  (57) 
2.11

>  <excitation_energy_1>  (57) 
3.196

>  <excitation_energy_2>  (57) 
4.219

>  <excitation_energy_3>  (57) 
5.074

>  <excitation_energy_4>  (57) 
5.688

>  <homo_energy>  (57) 
-7.094

>  <homo_lumo_gap>  (57) 
4.814

>  <logP>  (57) 
-0.589

>  <lumo_energy>  (57) 
-2.28

>  <melting_point>  (57) 
91.27

>  <molecular_refractivity>  (57) 
29.28

>  <oscillator_strength_1>  (57) 
0.0002

>  <oscillator_strength_2>  (57) 
0.0012

>  <oscillator_strength_3>  (57) 
0.003

>  <oscillator_strength_4>  (57) 
0.0294

>  <open_babel_can_smiles>  (57) 
C[C@@H](CC(=O)C(=O)O)O

>  <mulliken_charges>  (57) 
17
1   -0.451025
2   -0.384088
3   0.141952
4   0.428862
5   0.540252
6   -0.636083
7   -0.407778
8   -0.532237
9   -0.473
10   0.144462
11   0.142863
12   0.166141
13   0.166198
14   0.173208
15   0.156
16   0.404642
17   0.41963

>  <lowdin_charges>  (57) 
17
1   -0.459545
2   -0.322957
3   0.01163
4   0.141361
5   0.168773
6   -0.46585
7   -0.174855
8   -0.309167
9   -0.262635
10   0.154403
11   0.149126
12   0.16497
13   0.165386
14   0.173929
15   0.15008
16   0.344328
17   0.371023

$$$$
PCCDB-ID:  125
     RDKit          3D

 17 17  0  0  0  0  0  0  0  0999 V2000
   -0.7191    1.1245    0.1390 C   0  0  0  0  0  0  0  0  0  0  0  0
    1.3733   -0.0226   -0.1500 C   0  0  0  0  0  0  0  0  0  0  0  0
   -1.3950   -0.0936    0.1085 C   0  0  0  0  0  0  0  0  0  0  0  0
    0.7117   -1.2473   -0.1904 C   0  0  0  0  0  0  0  0  0  0  0  0
    1.3935    2.5136    0.0211 C   0  0  0  0  0  0  0  0  0  0  0  0
    0.6738    1.1804    0.0084 C   0  0  0  0  0  0  0  0  0  0  0  0
   -0.6800   -1.2849   -0.0599 C   0  0  0  0  0  0  0  0  0  0  0  0
    0.8553    3.4397    0.9607 O   0  0  0  0  0  0  0  0  0  0  0  0
   -1.2852   -2.5114   -0.0984 O   0  0  0  0  0  0  0  0  0  0  0  0
   -1.2739    2.0483    0.2758 H   0  0  0  0  0  0  0  0  0  0  0  0
    2.4573   -0.0035   -0.2421 H   0  0  0  0  0  0  0  0  0  0  0  0
   -2.4788   -0.1206    0.2125 H   0  0  0  0  0  0  0  0  0  0  0  0
    1.2546   -2.1795   -0.3108 H   0  0  0  0  0  0  0  0  0  0  0  0
    1.2975    3.0169   -0.9486 H   0  0  0  0  0  0  0  0  0  0  0  0
    2.4704    2.3508    0.1899 H   0  0  0  0  0  0  0  0  0  0  0  0
    0.8598    3.0005    1.8262 H   0  0  0  0  0  0  0  0  0  0  0  0
   -2.2419   -2.3931    0.0074 H   0  0  0  0  0  0  0  0  0  0  0  0
  1 10  1  0
  2  6  2  0
  3  1  2  0
  3 12  1  0
  4  2  1  0
  4  7  2  0
  5 15  1  0
  5  8  1  0
  6  5  1  0
  6  1  1  0
  7  3  1  0
  8 16  1  0
  9  7  1  0
  9 17  1  0
 11  2  1  0
 13  4  1  0
 14  5  1  0
M  END
>  <HBA>  (58) 
2

>  <HBD>  (58) 
2

>  <TPSA>  (58) 
40.46

>  <cid>  (58) 
125

>  <dipole>  (58) 
1.4

>  <excitation_energy_1>  (58) 
4.931

>  <excitation_energy_2>  (58) 
5.209

>  <excitation_energy_3>  (58) 
5.531

>  <excitation_energy_4>  (58) 
5.769

>  <homo_energy>  (58) 
-5.94

>  <homo_lumo_gap>  (58) 
5.84

>  <logP>  (58) 
0.884

>  <lumo_energy>  (58) 
-0.101

>  <melting_point>  (58) 
66.74

>  <molecular_refractivity>  (58) 
34.59

>  <oscillator_strength_1>  (58) 
0.0284

>  <oscillator_strength_2>  (58) 
0.0008

>  <oscillator_strength_3>  (58) 
0.1236

>  <oscillator_strength_4>  (58) 
0.0067

>  <open_babel_can_smiles>  (58) 
OCc1ccc(cc1)O

>  <mulliken_charges>  (58) 
17
1   -0.17883
2   -0.188639
3   -0.193807
4   -0.158083
5   -0.092858
6   0.101098
7   0.351021
8   -0.610304
9   -0.642353
10   0.145018
11   0.126475
12   0.119535
13   0.140261
14   0.160602
15   0.126722
16   0.386715
17   0.407425

>  <lowdin_charges>  (58) 
17
1   -0.150559
2   -0.151663
3   -0.209457
4   -0.185804
5   -0.129524
6   -0.054952
7   0.101474
8   -0.463367
9   -0.376431
10   0.166355
11   0.154402
12   0.151231
13   0.167831
14   0.154544
15   0.129201
16   0.340949
17   0.355771

$$$$
PCCDB-ID:  127
     RDKit          3D

 19 19  0  0  0  0  0  0  0  0999 V2000
   -0.9858    0.8149    0.0587 C   0  0  0  0  0  0  0  0  0  0  0  0
    1.1742   -0.1604   -0.3424 C   0  0  0  0  0  0  0  0  0  0  0  0
   -1.5603   -0.4540    0.0740 C   0  0  0  0  0  0  0  0  0  0  0  0
    0.6154   -1.4357   -0.3253 C   0  0  0  0  0  0  0  0  0  0  0  0
    1.0110    2.3684   -0.1312 C   0  0  0  0  0  0  0  0  0  0  0  0
    0.3898    0.9898   -0.1494 C   0  0  0  0  0  0  0  0  0  0  0  0
   -0.7596   -1.5864   -0.1170 C   0  0  0  0  0  0  0  0  0  0  0  0
    1.4507    2.8951    1.2478 C   0  0  0  0  0  0  0  0  0  0  0  0
   -1.2595   -2.8560   -0.1132 O   0  0  0  0  0  0  0  0  0  0  0  0
    1.6590    4.0636    1.4581 O   0  0  0  0  0  0  0  0  0  0  0  0
    1.6342    1.9688    2.2176 O   0  0  0  0  0  0  0  0  0  0  0  0
   -1.6202    1.6852    0.2093 H   0  0  0  0  0  0  0  0  0  0  0  0
    2.2423   -0.0550   -0.5216 H   0  0  0  0  0  0  0  0  0  0  0  0
   -2.6313   -0.5651    0.2334 H   0  0  0  0  0  0  0  0  0  0  0  0
    1.2243   -2.3204   -0.4810 H   0  0  0  0  0  0  0  0  0  0  0  0
    0.3312    3.1218   -0.5400 H   0  0  0  0  0  0  0  0  0  0  0  0
    1.9087    2.3929   -0.7625 H   0  0  0  0  0  0  0  0  0  0  0  0
   -2.2178   -2.8220    0.0328 H   0  0  0  0  0  0  0  0  0  0  0  0
    1.3766    1.0928    1.8755 H   0  0  0  0  0  0  0  0  0  0  0  0
  1  3  2  0
  1 12  1  0
  2  4  1  0
  2  6  2  0
  3 14  1  0
  4  7  2  0
  5  8  1  0
  6  5  1  0
  6  1  1  0
  7  9  1  0
  7  3  1  0
  8 10  2  0
  8 11  1  0
  9 18  1  0
 13  2  1  0
 15  4  1  0
 16  5  1  0
 17  5  1  0
 19 11  1  0
M  END
>  <HBA>  (59) 
3

>  <HBD>  (59) 
2

>  <TPSA>  (59) 
57.53

>  <cid>  (59) 
127

>  <dipole>  (59) 
5.17

>  <excitation_energy_1>  (59) 
4.851

>  <excitation_energy_2>  (59) 
5.376

>  <excitation_energy_3>  (59) 
5.479

>  <excitation_energy_4>  (59) 
5.573

>  <homo_energy>  (59) 
-6.37

>  <homo_lumo_gap>  (59) 
5.676

>  <logP>  (59) 
1.019

>  <lumo_energy>  (59) 
-0.694

>  <melting_point>  (59) 
124.62

>  <molecular_refractivity>  (59) 
40.01

>  <oscillator_strength_1>  (59) 
0.0251

>  <oscillator_strength_2>  (59) 
0.0023

>  <oscillator_strength_3>  (59) 
0.0396

>  <oscillator_strength_4>  (59) 
0.0979

>  <open_babel_can_smiles>  (59) 
OC(=O)Cc1ccc(cc1)O

>  <mulliken_charges>  (59) 
19
1   -0.168399
2   -0.198987
3   -0.189954
4   -0.151704
5   -0.454778
6   0.091612
7   0.352993
8   0.588011
9   -0.635705
10   -0.442949
11   -0.565324
12   0.144033
13   0.142096
14   0.130039
15   0.15121
16   0.189582
17   0.190772
18   0.411781
19   0.41567

>  <lowdin_charges>  (59) 
19
1   -0.148981
2   -0.162204
3   -0.2039
4   -0.181853
5   -0.315389
6   -0.050865
7   0.105898
8   0.186345
9   -0.368595
10   -0.244903
11   -0.353234
12   0.165099
13   0.160714
14   0.157049
15   0.173591
16   0.182116
17   0.180632
18   0.358808
19   0.359672

$$$$
PCCDB-ID:  128
     RDKit          3D

 19 19  0  0  1  0  0  0  0  0999 V2000
    1.5188    0.8191    0.2670 C   0  0  0  0  0  0  0  0  0  0  0  0
    0.8182    1.2526    1.5557 C   0  0  0  0  0  0  0  0  0  0  0  0
    4.3055   -0.9521    0.5993 C   0  0  0  0  0  0  0  0  0  0  0  0
    3.0511    0.8094    0.4229 C   0  0  2  0  0  0  0  0  0  0  0  0
    0.9790    2.7452    1.8239 C   0  0  0  0  0  0  0  0  0  0  0  0
    3.8004    0.4869   -0.8557 C   0  0  0  0  0  0  0  0  0  0  0  0
    3.5004   -0.2518    1.3248 N   0  0  0  0  0  0  0  0  0  0  0  0
    4.5393   -0.5653   -0.7403 N   0  0  0  0  0  0  0  0  0  0  0  0
    1.5049    3.5216    1.0618 O   0  0  0  0  0  0  0  0  0  0  0  0
    0.4697    3.1901    2.9997 O   0  0  0  0  0  0  0  0  0  0  0  0
    3.7207    1.1918   -1.9889 O   0  0  0  0  0  0  0  0  0  0  0  0
    1.2328    1.5041   -0.5398 H   0  0  0  0  0  0  0  0  0  0  0  0
    1.1899   -0.1867   -0.0137 H   0  0  0  0  0  0  0  0  0  0  0  0
    1.2172    0.6794    2.4026 H   0  0  0  0  0  0  0  0  0  0  0  0
   -0.2571    1.0326    1.4986 H   0  0  0  0  0  0  0  0  0  0  0  0
    4.8156   -1.8334    0.9793 H   0  0  0  0  0  0  0  0  0  0  0  0
    3.3760    1.7852    0.8101 H   0  0  0  0  0  0  0  0  0  0  0  0
    0.1034    2.4472    3.5084 H   0  0  0  0  0  0  0  0  0  0  0  0
    3.1500    1.9656   -1.8482 H   0  0  0  0  0  0  0  0  0  0  0  0
  1  4  1  0
  1  2  1  0
  2  5  1  0
  2 14  1  0
  3 16  1  0
  3  7  2  0
  4 17  1  1
  4  7  1  0
  5 10  1  0
  6  8  2  0
  6  4  1  0
  8  3  1  0
  9  5  2  0
 10 18  1  0
 11 19  1  0
 11  6  1  0
 12  1  1  0
 13  1  1  0
 15  2  1  0
M  END
>  <HBA>  (60) 
5

>  <HBD>  (60) 
2

>  <TPSA>  (60) 
78.76

>  <cid>  (60) 
128

>  <dipole>  (60) 
3.93

>  <excitation_energy_1>  (60) 
4.898

>  <excitation_energy_2>  (60) 
5.451

>  <excitation_energy_3>  (60) 
5.709

>  <excitation_energy_4>  (60) 
5.754

>  <homo_energy>  (60) 
-6.996

>  <homo_lumo_gap>  (60) 
6.046

>  <logP>  (60) 
-0.858

>  <lumo_energy>  (60) 
-0.95

>  <melting_point>  (60) 
139.61

>  <molecular_refractivity>  (60) 
44.54

>  <oscillator_strength_1>  (60) 
0.0025

>  <oscillator_strength_2>  (60) 
0.0755

>  <oscillator_strength_3>  (60) 
0.0022

>  <oscillator_strength_4>  (60) 
0.0006

>  <open_babel_can_smiles>  (60) 
OC(=O)CC[C@H]1N=CN=C1O

>  <mulliken_charges>  (60) 
19
1   -0.249824
2   -0.413372
3   0.183448
4   -0.108211
5   0.612822
6   0.510144
7   -0.39914
8   -0.445568
9   -0.452415
10   -0.559571
11   -0.576478
12   0.149303
13   0.163963
14   0.202102
15   0.177559
16   0.156012
17   0.201512
18   0.415064
19   0.43265

>  <lowdin_charges>  (60) 
19
1   -0.263033
2   -0.325728
3   -0.037193
4   -0.110698
5   0.201581
6   0.132467
7   -0.221557
8   -0.209419
9   -0.253573
10   -0.349066
11   -0.314867
12   0.153283
13   0.16254
14   0.181023
15   0.169625
16   0.163648
17   0.182611
18   0.363338
19   0.375019

$$$$
PCCDB-ID:  129
     RDKit          3D

 19 18  0  0  0  0  0  0  0  0999 V2000
    0.7990   -0.1961    0.3267 C   0  0  0  0  0  0  0  0  0  0  0  0
    2.4989   -1.9059   -0.4221 C   0  0  0  0  0  0  0  0  0  0  0  0
    4.2892    0.5196   -1.2984 C   0  0  0  0  0  0  0  0  0  0  0  0
    2.7826    0.5641   -1.0355 C   0  0  0  0  0  0  0  0  0  0  0  0
    4.7843    1.5946   -2.2391 C   0  0  0  0  0  0  0  0  0  0  0  0
    2.2813   -0.4480    0.0125 C   0  0  0  0  0  0  0  0  0  0  0  0
    4.0859    2.4328   -2.7659 O   0  0  0  0  0  0  0  0  0  0  0  0
    0.4355   -0.8810    1.1018 H   0  0  0  0  0  0  0  0  0  0  0  0
    0.1786   -0.3454   -0.5665 H   0  0  0  0  0  0  0  0  0  0  0  0
    0.6335    0.8289    0.6788 H   0  0  0  0  0  0  0  0  0  0  0  0
    2.1175   -2.6006    0.3353 H   0  0  0  0  0  0  0  0  0  0  0  0
    3.5584   -2.1400   -0.5757 H   0  0  0  0  0  0  0  0  0  0  0  0
    1.9704   -2.1161   -1.3614 H   0  0  0  0  0  0  0  0  0  0  0  0
    4.6088   -0.4451   -1.7213 H   0  0  0  0  0  0  0  0  0  0  0  0
    4.8638    0.6186   -0.3624 H   0  0  0  0  0  0  0  0  0  0  0  0
    2.2492    0.4068   -1.9828 H   0  0  0  0  0  0  0  0  0  0  0  0
    2.5192    1.5792   -0.7139 H   0  0  0  0  0  0  0  0  0  0  0  0
    5.8821    1.5734   -2.4320 H   0  0  0  0  0  0  0  0  0  0  0  0
    2.8534   -0.2831    0.9393 H   0  0  0  0  0  0  0  0  0  0  0  0
  1 10  1  0
  1  8  1  0
  2  6  1  0
  2 11  1  0
  3  4  1  0
  3 15  1  0
  4 17  1  0
  4  6  1  0
  5  3  1  0
  6  1  1  0
  6 19  1  0
  7  5  2  0
  9  1  1  0
 12  2  1  0
 13  2  1  0
 14  3  1  0
 16  4  1  0
 18  5  1  0
M  END
>  <HBA>  (61) 
1

>  <HBD>  (61) 
0

>  <TPSA>  (61) 
17.07

>  <cid>  (61) 
129

>  <dipole>  (61) 
2.55

>  <excitation_energy_1>  (61) 
4.338

>  <excitation_energy_2>  (61) 
6.458

>  <excitation_energy_3>  (61) 
6.86

>  <excitation_energy_4>  (61) 
7.132

>  <homo_energy>  (61) 
-6.857

>  <homo_lumo_gap>  (61) 
6.359

>  <logP>  (61) 
1.621

>  <lumo_energy>  (61) 
-0.498

>  <melting_point>  (61) 
5.16

>  <molecular_refractivity>  (61) 
31.16

>  <oscillator_strength_1>  (61) 
0.0002

>  <oscillator_strength_2>  (61) 
0.0235

>  <oscillator_strength_3>  (61) 
0.0352

>  <oscillator_strength_4>  (61) 
0.0022

>  <open_babel_can_smiles>  (61) 
O=CCCC(C)C

>  <mulliken_charges>  (61) 
19
1   -0.442328
2   -0.446448
3   -0.356701
4   -0.240906
5   0.252613
6   -0.070959
7   -0.382465
8   0.140258
9   0.141867
10   0.143003
11   0.143697
12   0.139718
13   0.141385
14   0.164051
15   0.159418
16   0.143391
17   0.148663
18   0.102715
19   0.119027

>  <lowdin_charges>  (61) 
19
1   -0.444321
2   -0.447508
3   -0.3165
4   -0.27182
5   0.059811
6   -0.12034
7   -0.219912
8   0.149202
9   0.147686
10   0.148315
11   0.151404
12   0.144209
13   0.146829
14   0.164306
15   0.162786
16   0.148741
17   0.151778
18   0.111722
19   0.133611

$$$$
PCCDB-ID:  137
     RDKit          3D

 18 17  0  0  0  0  0  0  0  0999 V2000
    1.3462    0.6091    0.4067 C   0  0  0  0  0  0  0  0  0  0  0  0
    0.3355    1.7331    0.7164 C   0  0  0  0  0  0  0  0  0  0  0  0
    3.8703    0.0880    0.0438 C   0  0  0  0  0  0  0  0  0  0  0  0
    2.7945    0.9186    0.7438 C   0  0  0  0  0  0  0  0  0  0  0  0
   -0.0990    1.8298    2.1837 C   0  0  0  0  0  0  0  0  0  0  0  0
    5.2345    0.2880    0.4921 N   0  0  0  0  0  0  0  0  0  0  0  0
    3.1141    1.7962    1.5364 O   0  0  0  0  0  0  0  0  0  0  0  0
   -1.2408    1.6476    2.5355 O   0  0  0  0  0  0  0  0  0  0  0  0
    0.8680    2.1370    3.0677 O   0  0  0  0  0  0  0  0  0  0  0  0
    1.2939    0.3475   -0.6583 H   0  0  0  0  0  0  0  0  0  0  0  0
    1.0743   -0.3140    0.9410 H   0  0  0  0  0  0  0  0  0  0  0  0
   -0.5760    1.5629    0.1407 H   0  0  0  0  0  0  0  0  0  0  0  0
    0.7561    2.6969    0.4018 H   0  0  0  0  0  0  0  0  0  0  0  0
    3.8025    0.3088   -1.0324 H   0  0  0  0  0  0  0  0  0  0  0  0
    3.6017   -0.9741    0.1338 H   0  0  0  0  0  0  0  0  0  0  0  0
    5.4559    1.2821    0.4553 H   0  0  0  0  0  0  0  0  0  0  0  0
    5.3083    0.0362    1.4767 H   0  0  0  0  0  0  0  0  0  0  0  0
    1.7316    2.2223    2.6014 H   0  0  0  0  0  0  0  0  0  0  0  0
  1  2  1  0
  1  4  1  0
  1 11  1  0
  2  5  1  0
  3 15  1  0
  3  6  1  0
  3  4  1  0
  4  7  2  0
  5  8  2  0
  5  9  1  0
  6 17  1  0
 10  1  1  0
 12  2  1  0
 13  2  1  0
 14  3  1  0
 16  6  1  0
 18  9  1  0
M  END
>  <HBA>  (62) 
4

>  <HBD>  (62) 
2

>  <TPSA>  (62) 
80.39

>  <cid>  (62) 
137

>  <dipole>  (62) 
5.01

>  <excitation_energy_1>  (62) 
4.254

>  <excitation_energy_2>  (62) 
4.972

>  <excitation_energy_3>  (62) 
5.093

>  <excitation_energy_4>  (62) 
5.534

>  <homo_energy>  (62) 
-6.928

>  <homo_lumo_gap>  (62) 
5.464

>  <logP>  (62) 
0.079

>  <lumo_energy>  (62) 
-1.464

>  <melting_point>  (62) 
126.9

>  <molecular_refractivity>  (62) 
30.83

>  <oscillator_strength_1>  (62) 
0.0002

>  <oscillator_strength_2>  (62) 
0.0006

>  <oscillator_strength_3>  (62) 
0.0004

>  <oscillator_strength_4>  (62) 
0.0013

>  <open_babel_can_smiles>  (62) 
NCC(=O)CCC(=O)O

>  <mulliken_charges>  (62) 
18
1   -0.376597
2   -0.376138
3   -0.238683
4   0.447616
5   0.576853
6   -0.682889
7   -0.468046
8   -0.447292
9   -0.586874
10   0.176088
11   0.199463
12   0.182864
13   0.173273
14   0.180497
15   0.177882
16   0.312732
17   0.309627
18   0.439624

>  <lowdin_charges>  (62) 
18
1   -0.308291
2   -0.314417
3   -0.238678
4   0.160287
5   0.183068
6   -0.527033
7   -0.250178
8   -0.253414
9   -0.367019
10   0.169868
11   0.183302
12   0.177772
13   0.167113
14   0.168722
15   0.167602
16   0.262814
17   0.261747
18   0.356734

$$$$
PCCDB-ID:  138
     RDKit          3D

 19 18  0  0  0  0  0  0  0  0999 V2000
    0.9732    0.6553   -0.2107 C   0  0  0  0  0  0  0  0  0  0  0  0
    0.7122    1.1030    1.2401 C   0  0  0  0  0  0  0  0  0  0  0  0
    2.4622    0.4316   -0.5866 C   0  0  0  0  0  0  0  0  0  0  0  0
    1.2993    0.1922    2.3252 C   0  0  0  0  0  0  0  0  0  0  0  0
    2.8384   -0.9986   -0.9962 C   0  0  0  0  0  0  0  0  0  0  0  0
    0.9882   -1.2253    2.0586 N   0  0  0  0  0  0  0  0  0  0  0  0
    3.5402   -1.2245   -1.9573 O   0  0  0  0  0  0  0  0  0  0  0  0
    2.3739   -1.9978   -0.2280 O   0  0  0  0  0  0  0  0  0  0  0  0
    0.5494    1.4174   -0.8739 H   0  0  0  0  0  0  0  0  0  0  0  0
    0.4025   -0.2577   -0.4142 H   0  0  0  0  0  0  0  0  0  0  0  0
   -0.3742    1.1840    1.3888 H   0  0  0  0  0  0  0  0  0  0  0  0
    1.1146    2.1125    1.3986 H   0  0  0  0  0  0  0  0  0  0  0  0
    3.1183    0.7138    0.2492 H   0  0  0  0  0  0  0  0  0  0  0  0
    2.7546    1.0653   -1.4262 H   0  0  0  0  0  0  0  0  0  0  0  0
    0.9420    0.5284    3.3108 H   0  0  0  0  0  0  0  0  0  0  0  0
    2.3919    0.2782    2.3422 H   0  0  0  0  0  0  0  0  0  0  0  0
   -0.0212   -1.3704    2.0373 H   0  0  0  0  0  0  0  0  0  0  0  0
    1.3497   -1.8164    2.8058 H   0  0  0  0  0  0  0  0  0  0  0  0
    1.8359   -1.6822    0.5558 H   0  0  0  0  0  0  0  0  0  0  0  0
  1  2  1  0
  2 11  1  0
  2 12  1  0
  2  4  1  0
  3  1  1  0
  3 13  1  0
  4 16  1  0
  4 15  1  0
  5  3  1  0
  5  8  1  0
  6  4  1  0
  6 18  1  0
  7  5  2  0
  8 19  1  0
  9  1  1  0
 10  1  1  0
 14  3  1  0
 17  6  1  0
M  END
>  <HBA>  (63) 
3

>  <HBD>  (63) 
2

>  <TPSA>  (63) 
63.32

>  <cid>  (63) 
138

>  <dipole>  (63) 
7.22

>  <excitation_energy_1>  (63) 
5.568

>  <excitation_energy_2>  (63) 
5.847

>  <excitation_energy_3>  (63) 
6.397

>  <excitation_energy_4>  (63) 
6.504

>  <homo_energy>  (63) 
-6.425

>  <homo_lumo_gap>  (63) 
7.464

>  <logP>  (63) 
0.9

>  <lumo_energy>  (63) 
1.039

>  <melting_point>  (63) 
105.51

>  <molecular_refractivity>  (63) 
30.63

>  <oscillator_strength_1>  (63) 
0.0015

>  <oscillator_strength_2>  (63) 
0.0051

>  <oscillator_strength_3>  (63) 
0.0121

>  <oscillator_strength_4>  (63) 
0.0071

>  <open_babel_can_smiles>  (63) 
NCCCCC(=O)O

>  <mulliken_charges>  (63) 
19
1   -0.277689
2   -0.276276
3   -0.372667
4   -0.139812
5   0.564943
6   -0.763869
7   -0.462059
8   -0.614543
9   0.152118
10   0.152506
11   0.136467
12   0.148752
13   0.158574
14   0.175856
15   0.140364
16   0.157703
17   0.321127
18   0.328766
19   0.469739

>  <lowdin_charges>  (63) 
19
1   -0.286393
2   -0.28219
3   -0.323366
4   -0.207002
5   0.181252
6   -0.529495
7   -0.269425
8   -0.388298
9   0.156763
10   0.149844
11   0.141986
12   0.151087
13   0.160671
14   0.172775
15   0.136685
16   0.145718
17   0.265653
18   0.273693
19   0.350043

$$$$
PCCDB-ID:  155
     RDKit          3D

 18 18  0  0  0  0  0  0  0  0999 V2000
   -1.3826   -0.4361    0.3400 C   0  0  0  0  0  0  0  0  0  0  0  0
    0.5352   -1.3735    0.1742 C   0  0  0  0  0  0  0  0  0  0  0  0
    0.7871   -0.0133    0.2705 C   0  0  0  0  0  0  0  0  0  0  0  0
    1.5492   -2.4091    0.0445 C   0  0  0  0  0  0  0  0  0  0  0  0
    2.3355    1.9386    0.3543 C   0  0  0  0  0  0  0  0  0  0  0  0
    3.4798    2.4937    0.3414 N   0  0  0  0  0  0  0  0  0  0  0  0
   -0.8268   -1.6128    0.2198 N   0  0  0  0  0  0  0  0  0  0  0  0
   -0.4412    0.5765    0.3751 N   0  0  0  0  0  0  0  0  0  0  0  0
    2.0214    0.5973    0.2631 N   0  0  0  0  0  0  0  0  0  0  0  0
    2.7482   -2.1629    0.0073 O   0  0  0  0  0  0  0  0  0  0  0  0
    1.0816   -3.6702   -0.0323 O   0  0  0  0  0  0  0  0  0  0  0  0
    1.2166    2.7113    0.4732 O   0  0  0  0  0  0  0  0  0  0  0  0
   -2.4415   -0.2298    0.4054 H   0  0  0  0  0  0  0  0  0  0  0  0
    4.2445    1.8267    0.2489 H   0  0  0  0  0  0  0  0  0  0  0  0
   -0.5854    1.5729    0.4662 H   0  0  0  0  0  0  0  0  0  0  0  0
    2.7736   -0.0865    0.1732 H   0  0  0  0  0  0  0  0  0  0  0  0
    0.1054   -3.6219    0.0157 H   0  0  0  0  0  0  0  0  0  0  0  0
    1.5534    3.6238    0.5278 H   0  0  0  0  0  0  0  0  0  0  0  0
  1  8  1  0
  1 13  1  0
  2  7  1  0
  2  3  2  0
  3  8  1  0
  4  2  1  0
  5 12  1  0
  6  5  2  0
  7  1  2  0
  8 15  1  0
  9  3  1  0
  9  5  1  0
 10  4  2  0
 11 17  1  0
 11  4  1  0
 12 18  1  0
 14  6  1  0
 16  9  1  0
M  END
>  <HBA>  (64) 
6

>  <HBD>  (64) 
4

>  <TPSA>  (64) 
121.1

>  <cid>  (64) 
155

>  <dipole>  (64) 
5.36

>  <excitation_energy_1>  (64) 
4.831

>  <excitation_energy_2>  (64) 
5.082

>  <excitation_energy_3>  (64) 
5.331

>  <excitation_energy_4>  (64) 
5.507

>  <homo_energy>  (64) 
-6.011

>  <homo_lumo_gap>  (64) 
5.323

>  <logP>  (64) 
0.372

>  <lumo_energy>  (64) 
-0.688

>  <melting_point>  (64) 
278.95

>  <molecular_refractivity>  (64) 
38.15

>  <oscillator_strength_1>  (64) 
0.3428

>  <oscillator_strength_2>  (64) 
0.0

>  <oscillator_strength_3>  (64) 
0.0

>  <oscillator_strength_4>  (64) 
0.1854

>  <open_babel_can_smiles>  (64) 
OC(=N)Nc1[nH]cnc1C(=O)O

>  <mulliken_charges>  (64) 
18
1   0.225254
2   0.087816
3   0.586461
4   0.608056
5   0.687226
6   -0.652926
7   -0.524388
8   -0.633771
9   -0.740989
10   -0.522293
11   -0.583915
12   -0.624771
13   0.171893
14   0.298665
15   0.366947
16   0.383572
17   0.432613
18   0.43455

>  <lowdin_charges>  (64) 
18
1   -0.079763
2   -0.107401
3   0.09417
4   0.192412
5   0.168696
6   -0.458357
7   -0.187421
8   -0.176856
9   -0.237449
10   -0.297792
11   -0.339633
12   -0.385024
13   0.174343
14   0.270837
15   0.307639
16   0.319384
17   0.366123
18   0.37609

$$$$
PCCDB-ID:  156
     RDKit          3D

 18 19  0  0  0  0  0  0  0  0999 V2000
    2.3415   -0.7601   -0.3561 C   0  0  0  0  0  0  0  0  0  0  0  0
    2.4098    0.6847    0.1548 C   0  0  0  0  0  0  0  0  0  0  0  0
   -1.2732   -1.3136    0.1243 C   0  0  0  0  0  0  0  0  0  0  0  0
   -2.3485    0.6823   -0.0545 C   0  0  0  0  0  0  0  0  0  0  0  0
   -0.0303   -0.7416    0.1171 C   0  0  0  0  0  0  0  0  0  0  0  0
    0.0865    0.7135    0.0116 C   0  0  0  0  0  0  0  0  0  0  0  0
   -2.4563   -0.6023    0.0526 N   0  0  0  0  0  0  0  0  0  0  0  0
    1.1763   -1.4169    0.2423 N   0  0  0  0  0  0  0  0  0  0  0  0
    1.1603    1.4231    0.0127 N   0  0  0  0  0  0  0  0  0  0  0  0
   -1.1527    1.3465   -0.0916 N   0  0  0  0  0  0  0  0  0  0  0  0
    3.2403   -1.3127   -0.0634 H   0  0  0  0  0  0  0  0  0  0  0  0
    2.2893   -0.7581   -1.4577 H   0  0  0  0  0  0  0  0  0  0  0  0
    3.1952    1.2191   -0.3944 H   0  0  0  0  0  0  0  0  0  0  0  0
    2.7121    0.6810    1.2126 H   0  0  0  0  0  0  0  0  0  0  0  0
   -1.3814   -2.3940    0.2025 H   0  0  0  0  0  0  0  0  0  0  0  0
   -3.2363    1.3060   -0.1237 H   0  0  0  0  0  0  0  0  0  0  0  0
    1.1144   -2.4151    0.0771 H   0  0  0  0  0  0  0  0  0  0  0  0
   -1.1198    2.3574   -0.1591 H   0  0  0  0  0  0  0  0  0  0  0  0
  1 11  1  0
  1  2  1  0
  1  8  1  0
  2 14  1  0
  3 15  1  0
  4  7  2  0
  5  3  2  0
  5  8  1  0
  6  9  2  0
  6  5  1  0
  7  3  1  0
  9  2  1  0
 10  4  1  0
 10  6  1  0
 12  1  1  0
 13  2  1  0
 16  4  1  0
 17  8  1  0
 18 10  1  0
M  END
>  <HBA>  (65) 
4

>  <HBD>  (65) 
2

>  <TPSA>  (65) 
49.84

>  <cid>  (65) 
156

>  <dipole>  (65) 
1.37

>  <excitation_energy_1>  (65) 
3.93

>  <excitation_energy_2>  (65) 
4.373

>  <excitation_energy_3>  (65) 
4.612

>  <excitation_energy_4>  (65) 
4.863

>  <homo_energy>  (65) 
-5.001

>  <homo_lumo_gap>  (65) 
4.446

>  <logP>  (65) 
0.59

>  <lumo_energy>  (65) 
-0.555

>  <melting_point>  (65) 
127.02

>  <molecular_refractivity>  (65) 
44.4

>  <oscillator_strength_1>  (65) 
0.1443

>  <oscillator_strength_2>  (65) 
0.0082

>  <oscillator_strength_3>  (65) 
0.0007

>  <oscillator_strength_4>  (65) 
0.0892

>  <open_babel_can_smiles>  (65) 
C1CN=c2c(N1)cnc[nH]2

>  <mulliken_charges>  (65) 
18
1   -0.157679
2   -0.132045
3   -0.06236
4   0.234884
5   0.316148
6   0.509731
7   -0.431727
8   -0.654933
9   -0.514522
10   -0.633127
11   0.145824
12   0.142644
13   0.140991
14   0.150068
15   0.129953
16   0.158899
17   0.317701
18   0.33955

>  <lowdin_charges>  (65) 
18
1   -0.207314
2   -0.201301
3   -0.149755
4   -0.046839
5   0.002866
6   0.07439
7   -0.184192
8   -0.290764
9   -0.269876
10   -0.191513
11   0.152766
12   0.13104
13   0.148666
14   0.144613
15   0.151757
16   0.166
17   0.273086
18   0.29637

$$$$
PCCDB-ID:  157
     RDKit          3D

 23 22  0  0  1  0  0  0  0  0999 V2000
    1.2773   -1.4706    4.3883 C   0  0  0  0  0  0  0  0  0  0  0  0
    2.1904   -1.8672    3.2252 C   0  0  0  0  0  0  0  0  0  0  0  0
    1.5301   -2.1307    1.8650 C   0  0  1  0  0  0  0  0  0  0  0  0
    1.2639   -3.6341    1.5737 C   0  0  1  0  0  0  0  0  0  0  0  0
    2.3951   -4.6240    1.8808 C   0  0  1  0  0  0  0  0  0  0  0  0
    3.7429   -4.2082    1.2838 C   0  0  0  0  0  0  0  0  0  0  0  0
    0.6806   -0.1919    4.1005 O   0  0  0  0  0  0  0  0  0  0  0  0
    3.3985   -1.8910    3.3516 O   0  0  0  0  0  0  0  0  0  0  0  0
    0.2381   -1.5340    1.7505 O   0  0  0  0  0  0  0  0  0  0  0  0
    0.1616   -4.0790    2.3566 O   0  0  0  0  0  0  0  0  0  0  0  0
    2.5388   -4.8243    3.2802 O   0  0  0  0  0  0  0  0  0  0  0  0
    3.8404   -3.8356    0.1381 O   0  0  0  0  0  0  0  0  0  0  0  0
    4.7943   -4.3511    2.0997 O   0  0  0  0  0  0  0  0  0  0  0  0
    1.8609   -1.4455    5.3144 H   0  0  0  0  0  0  0  0  0  0  0  0
    0.4490   -2.1764    4.4908 H   0  0  0  0  0  0  0  0  0  0  0  0
    2.2189   -1.7541    1.0982 H   0  0  0  0  0  0  0  0  0  0  0  0
    1.0312   -3.6970    0.5027 H   0  0  0  0  0  0  0  0  0  0  0  0
    2.1222   -5.5739    1.3946 H   0  0  0  0  0  0  0  0  0  0  0  0
    1.3774    0.4809    4.1716 H   0  0  0  0  0  0  0  0  0  0  0  0
    0.2030   -0.7518    2.3351 H   0  0  0  0  0  0  0  0  0  0  0  0
   -0.4865   -3.3512    2.2970 H   0  0  0  0  0  0  0  0  0  0  0  0
    1.6363   -4.9460    3.6252 H   0  0  0  0  0  0  0  0  0  0  0  0
    4.4535   -4.5682    2.9906 H   0  0  0  0  0  0  0  0  0  0  0  0
  1 15  1  0
  1 14  1  0
  2  8  2  0
  2  1  1  0
  3 16  1  6
  3  2  1  0
  4 17  1  6
  4  3  1  0
  4  5  1  0
  4 10  1  0
  5 18  1  6
  5 11  1  0
  6  5  1  0
  6 13  1  0
  7 19  1  0
  7  1  1  0
  9  3  1  0
  9 20  1  0
 11 22  1  0
 12  6  2  0
 13 23  1  0
 21 10  1  0
M  END
>  <HBA>  (66) 
7

>  <HBD>  (66) 
5

>  <TPSA>  (66) 
135.29

>  <cid>  (66) 
157

>  <dipole>  (66) 
5.12

>  <excitation_energy_1>  (66) 
3.823

>  <excitation_energy_2>  (66) 
5.015

>  <excitation_energy_3>  (66) 
5.548

>  <excitation_energy_4>  (66) 
5.683

>  <homo_energy>  (66) 
-7.056

>  <homo_lumo_gap>  (66) 
5.521

>  <logP>  (66) 
-3.285

>  <lumo_energy>  (66) 
-1.535

>  <melting_point>  (66) 
146.46

>  <molecular_refractivity>  (66) 
37.58

>  <oscillator_strength_1>  (66) 
0.0001

>  <oscillator_strength_2>  (66) 
0.0093

>  <oscillator_strength_3>  (66) 
0.0187

>  <oscillator_strength_4>  (66) 
0.0013

>  <open_babel_can_smiles>  (66) 
OCC(=O)[C@@H]([C@@H]([C@@H](C(=O)O)O)O)O

>  <mulliken_charges>  (66) 
23
1   -0.127098
2   0.405973
3   0.039017
4   0.121115
5   0.009266
6   0.624775
7   -0.61929
8   -0.429507
9   -0.676516
10   -0.66445
11   -0.66739
12   -0.469639
13   -0.570897
14   0.174516
15   0.176654
16   0.183869
17   0.168521
18   0.179619
19   0.415957
20   0.430799
21   0.42323
22   0.426912
23   0.444564

>  <lowdin_charges>  (66) 
23
1   -0.163252
2   0.120493
3   -0.051913
4   -0.013892
5   -0.046181
6   0.179797
7   -0.450916
8   -0.209413
9   -0.472299
10   -0.472564
11   -0.467472
12   -0.253887
13   -0.325504
14   0.161538
15   0.167343
16   0.172533
17   0.158459
18   0.16731
19   0.359944
20   0.353341
21   0.355649
22   0.35927
23   0.371618

$$$$
PCCDB-ID:  162
     RDKit          3D

 26 27  0  0  1  0  0  0  0  0999 V2000
    0.7032    0.1906    0.1669 C   0  0  0  0  0  0  0  0  0  0  0  0
    2.1220    0.4820   -1.8864 C   0  0  0  0  0  0  0  0  0  0  0  0
    5.8244    0.8549    0.9342 C   0  0  2  0  0  0  0  0  0  0  0  0
    3.0350   -0.9529    0.0054 C   0  0  1  0  0  0  0  0  0  0  0  0
    5.4548   -0.6636    0.9349 C   0  0  0  0  0  0  0  0  0  0  0  0
    4.6284    1.0015   -0.0559 C   0  0  1  0  0  0  0  0  0  0  0  0
    2.6322   -1.6217    1.3398 C   0  0  0  0  0  0  0  0  0  0  0  0
    2.1393    0.2890   -0.3610 C   0  0  0  0  0  0  0  0  0  0  0  0
    7.1077    1.3418    0.4900 N   0  0  0  0  0  0  0  0  0  0  0  0
    4.4081   -0.4478    0.0227 N   0  0  0  0  0  0  0  0  0  0  0  0
    5.8519   -1.6619    1.4776 O   0  0  0  0  0  0  0  0  0  0  0  0
    2.2110   -2.7486    1.3859 O   0  0  0  0  0  0  0  0  0  0  0  0
    2.7420   -0.8581    2.4493 O   0  0  0  0  0  0  0  0  0  0  0  0
    3.0231    1.7391    0.4646 S   0  0  0  0  0  0  0  0  0  0  0  0
    0.2206   -0.7040   -0.2432 H   0  0  0  0  0  0  0  0  0  0  0  0
    0.1231    1.0616   -0.1533 H   0  0  0  0  0  0  0  0  0  0  0  0
    0.6606    0.1286    1.2572 H   0  0  0  0  0  0  0  0  0  0  0  0
    1.5914   -0.3549   -2.3570 H   0  0  0  0  0  0  0  0  0  0  0  0
    3.1287    0.5202   -2.3131 H   0  0  0  0  0  0  0  0  0  0  0  0
    1.6030    1.4084   -2.1488 H   0  0  0  0  0  0  0  0  0  0  0  0
    5.5922    1.2903    1.9113 H   0  0  0  0  0  0  0  0  0  0  0  0
    2.9014   -1.7231   -0.7594 H   0  0  0  0  0  0  0  0  0  0  0  0
    4.9135    1.3707   -1.0446 H   0  0  0  0  0  0  0  0  0  0  0  0
    7.4857    0.7555   -0.2519 H   0  0  0  0  0  0  0  0  0  0  0  0
    7.7793    1.3213    1.2532 H   0  0  0  0  0  0  0  0  0  0  0  0
    2.9663    0.0657    2.2029 H   0  0  0  0  0  0  0  0  0  0  0  0
  1 17  1  0
  2  8  1  0
  3  5  1  0
  3 21  1  1
  4 22  1  6
  4 10  1  0
  4  7  1  0
  5 11  2  0
  6 23  1  6
  6 10  1  0
  6 14  1  0
  6  3  1  0
  7 12  2  0
  7 13  1  0
  8  4  1  0
  8  1  1  0
  8 14  1  0
  9  3  1  0
  9 25  1  0
 10  5  1  0
 15  1  1  0
 16  1  1  0
 18  2  1  0
 19  2  1  0
 20  2  1  0
 24  9  1  0
 26 13  1  0
M  END
>  <HBA>  (67) 
6

>  <HBD>  (67) 
2

>  <TPSA>  (67) 
108.93

>  <cid>  (67) 
162

>  <dipole>  (67) 
5.35

>  <excitation_energy_1>  (67) 
4.759

>  <excitation_energy_2>  (67) 
5.12

>  <excitation_energy_3>  (67) 
5.295

>  <excitation_energy_4>  (67) 
5.508

>  <homo_energy>  (67) 
-6.618

>  <homo_lumo_gap>  (67) 
5.959

>  <logP>  (67) 
0.099

>  <lumo_energy>  (67) 
-0.659

>  <melting_point>  (67) 
192.69

>  <molecular_refractivity>  (67) 
55.46

>  <oscillator_strength_1>  (67) 
0.0019

>  <oscillator_strength_2>  (67) 
0.0016

>  <oscillator_strength_3>  (67) 
0.0006

>  <oscillator_strength_4>  (67) 
0.0136

>  <open_babel_can_smiles>  (67) 
OC(=O)[C@@H]1N2C(=O)[C@H]([C@@H]2SC1(C)C)N

>  <mulliken_charges>  (67) 
26
1   -0.470538
2   -0.444152
3   -0.10538
4   -0.060817
5   0.560251
6   -0.105134
7   0.610462
8   -0.110307
9   -0.704677
10   -0.433909
11   -0.449327
12   -0.435923
13   -0.578265
14   0.072404
15   0.177966
16   0.16897
17   0.180595
18   0.164889
19   0.165272
20   0.172164
21   0.186754
22   0.190695
23   0.190676
24   0.312931
25   0.323396
26   0.421004

>  <lowdin_charges>  (67) 
26
1   -0.449291
2   -0.4446
3   -0.096349
4   -0.099496
5   0.130389
6   -0.16162
7   0.180016
8   -0.069462
9   -0.527899
10   -0.13652
11   -0.22874
12   -0.222211
13   -0.351306
14   0.086238
15   0.170016
16   0.166718
17   0.167297
18   0.161482
19   0.158889
20   0.166193
21   0.172914
22   0.17947
23   0.161866
24   0.26675
25   0.275707
26   0.343548

$$$$
PCCDB-ID:  167
     RDKit          3D

 16 17  0  0  0  0  0  0  0  0999 V2000
    1.0789   -0.0753   -0.2599 C   0  0  0  0  0  0  0  0  0  0  0  0
    0.3928   -1.2362    0.4616 C   0  0  0  0  0  0  0  0  0  0  0  0
    4.5357   -1.2260    0.3587 C   0  0  0  0  0  0  0  0  0  0  0  0
    4.3867   -3.5118    0.2113 C   0  0  0  0  0  0  0  0  0  0  0  0
    3.0816   -1.1416    0.1826 C   0  0  0  0  0  0  0  0  0  0  0  0
    2.3556   -2.4443    0.1953 C   0  0  0  0  0  0  0  0  0  0  0  0
    5.1723   -2.3462    0.3750 N   0  0  0  0  0  0  0  0  0  0  0  0
    2.5204    0.0018    0.0039 N   0  0  0  0  0  2  0  0  0  0  0  0
    1.0800   -2.5224    0.3237 N   0  0  0  0  0  0  0  0  0  0  0  0
    3.1071   -3.6267    0.1250 N   0  0  0  0  0  2  0  0  0  0  0  0
    0.6226    0.8815    0.0136 H   0  0  0  0  0  0  0  0  0  0  0  0
    0.9651   -0.1774   -1.3515 H   0  0  0  0  0  0  0  0  0  0  0  0
   -0.6333   -1.3527    0.0968 H   0  0  0  0  0  0  0  0  0  0  0  0
    0.3135   -1.0297    1.5415 H   0  0  0  0  0  0  0  0  0  0  0  0
    5.0906   -0.2907    0.4499 H   0  0  0  0  0  0  0  0  0  0  0  0
    4.9792   -4.4234    0.1600 H   0  0  0  0  0  0  0  0  0  0  0  0
  1  8  1  0
  1 11  1  0
  1  2  1  0
  2 14  1  0
  3  7  1  0
  3 15  1  0
  4  7  2  0
  5  6  1  0
  5  3  2  0
  6  9  2  0
  8  5  1  0
  9  2  1  0
 10  6  1  0
 10  4  1  0
 12  1  1  0
 13  2  1  0
 16  4  1  0
M  RAD  2   8   2  10   2
M  END
>  <HBA>  (68) 
4

>  <HBD>  (68) 
0

>  <TPSA>  (68) 
50.5

>  <cid>  (68) 
167

>  <dipole>  (68) 
2.4

>  <excitation_energy_1>  (68) 
1.999

>  <excitation_energy_2>  (68) 
3.102

>  <excitation_energy_3>  (68) 
3.391

>  <excitation_energy_4>  (68) 
4.172

>  <homo_energy>  (68) 
-6.558

>  <homo_lumo_gap>  (68) 
3.181

>  <logP>  (68) 
-2.399

>  <lumo_energy>  (68) 
-3.377

>  <melting_point>  (68) 
133.73

>  <molecular_refractivity>  (68) 
40.61

>  <oscillator_strength_1>  (68) 
0.0001

>  <oscillator_strength_2>  (68) 
0.0021

>  <oscillator_strength_3>  (68) 
0.0576

>  <oscillator_strength_4>  (68) 
0.0005

>  <open_babel_can_smiles>  (68) 
C1CN=c2c([N]1)cnc[n]2

>  <mulliken_charges>  (68) 
16
1   -0.181496
2   -0.177219
3   0.085091
4   0.158402
5   0.272768
6   0.412491
7   -0.383365
8   -0.436628
9   -0.391651
10   -0.389248
11   0.16942
12   0.173384
13   0.171424
14   0.168051
15   0.177257
16   0.171317

>  <lowdin_charges>  (68) 
16
1   -0.22055
2   -0.216018
3   -0.036176
4   -0.025977
5   -0.007333
6   0.045829
7   -0.154029
8   -0.118581
9   -0.123048
10   -0.134453
11   0.164474
12   0.15957
13   0.164692
14   0.156338
15   0.175375
16   0.169886

$$$$
PCCDB-ID:  174
     RDKit          3D

 10  9  0  0  0  0  0  0  0  0999 V2000
    1.0408   -0.0536   -0.0525 C   0  0  0  0  0  0  0  0  0  0  0  0
    0.4994   -1.0338    0.9919 C   0  0  0  0  0  0  0  0  0  0  0  0
    2.4605   -0.0450   -0.1001 O   0  0  0  0  0  0  0  0  0  0  0  0
   -0.9200   -1.0893    0.9955 O   0  0  0  0  0  0  0  0  0  0  0  0
    0.6339    0.9558    0.1380 H   0  0  0  0  0  0  0  0  0  0  0  0
    0.7009   -0.3589   -1.0463 H   0  0  0  0  0  0  0  0  0  0  0  0
    0.8991   -0.7741    1.9888 H   0  0  0  0  0  0  0  0  0  0  0  0
    0.8467   -2.0436    0.7555 H   0  0  0  0  0  0  0  0  0  0  0  0
    2.7838    0.2990    0.7471 H   0  0  0  0  0  0  0  0  0  0  0  0
   -1.2503   -0.2233    1.2818 H   0  0  0  0  0  0  0  0  0  0  0  0
  1  5  1  0
  1  2  1  0
  2  4  1  0
  2  7  1  0
  3  1  1  0
  3  9  1  0
  4 10  1  0
  6  1  1  0
  8  2  1  0
M  END
>  <HBA>  (69) 
2

>  <HBD>  (69) 
2

>  <TPSA>  (69) 
40.46

>  <cid>  (69) 
174

>  <dipole>  (69) 
2.48

>  <excitation_energy_1>  (69) 
6.266

>  <excitation_energy_2>  (69) 
6.415

>  <excitation_energy_3>  (69) 
7.187

>  <excitation_energy_4>  (69) 
7.332

>  <homo_energy>  (69) 
-7.037

>  <homo_lumo_gap>  (69) 
8.743

>  <logP>  (69) 
-1.029

>  <lumo_energy>  (69) 
1.706

>  <melting_point>  (69) 
13.33

>  <molecular_refractivity>  (69) 
14.05

>  <oscillator_strength_1>  (69) 
0.0031

>  <oscillator_strength_2>  (69) 
0.0206

>  <oscillator_strength_3>  (69) 
0.0183

>  <oscillator_strength_4>  (69) 
0.0189

>  <open_babel_can_smiles>  (69) 
OCCO

>  <mulliken_charges>  (69) 
10
1   -0.052514
2   -0.052877
3   -0.607219
4   -0.607195
5   0.107737
6   0.163283
7   0.107772
8   0.163344
9   0.388832
10   0.388837

>  <lowdin_charges>  (69) 
10
1   -0.152058
2   -0.152116
3   -0.462108
4   -0.461816
5   0.118199
6   0.154672
7   0.118393
8   0.154462
9   0.341324
10   0.341046

$$$$
PCCDB-ID:  176
     RDKit          3D

  8  7  0  0  0  0  0  0  0  0999 V2000
    1.0332   -0.0674   -0.0714 C   0  0  0  0  0  0  0  0  0  0  0  0
    2.5513   -0.0183   -0.1108 C   0  0  0  0  0  0  0  0  0  0  0  0
    3.1966    0.7793   -0.7396 O   0  0  0  0  0  0  0  0  0  0  0  0
    3.1836   -0.9688    0.6368 O   0  0  0  0  0  0  0  0  0  0  0  0
    0.6317    0.7345   -0.6913 H   0  0  0  0  0  0  0  0  0  0  0  0
    0.6664    0.0541    0.9551 H   0  0  0  0  0  0  0  0  0  0  0  0
    0.6662   -1.0300   -0.4479 H   0  0  0  0  0  0  0  0  0  0  0  0
    2.5310   -1.5331    1.0827 H   0  0  0  0  0  0  0  0  0  0  0  0
  1  6  1  0
  2  1  1  0
  2  4  1  0
  3  2  2  0
  4  8  1  0
  5  1  1  0
  7  1  1  0
M  END
>  <HBA>  (70) 
2

>  <HBD>  (70) 
1

>  <TPSA>  (70) 
37.3

>  <cid>  (70) 
176

>  <dipole>  (70) 
4.3

>  <excitation_energy_1>  (70) 
5.72

>  <excitation_energy_2>  (70) 
6.521

>  <excitation_energy_3>  (70) 
7.575

>  <excitation_energy_4>  (70) 
7.706

>  <homo_energy>  (70) 
-7.415

>  <homo_lumo_gap>  (70) 
7.668

>  <logP>  (70) 
0.091

>  <lumo_energy>  (70) 
0.253

>  <melting_point>  (70) 
53.25

>  <molecular_refractivity>  (70) 
13.5

>  <oscillator_strength_1>  (70) 
0.001

>  <oscillator_strength_2>  (70) 
0.0222

>  <oscillator_strength_3>  (70) 
0.0042

>  <oscillator_strength_4>  (70) 
0.0165

>  <open_babel_can_smiles>  (70) 
CC(=O)O

>  <mulliken_charges>  (70) 
8
1   -0.566564
2   0.584817
3   -0.424665
4   -0.555009
5   0.199834
6   0.176672
7   0.177527
8   0.407388

>  <lowdin_charges>  (70) 
8
1   -0.488886
2   0.19909
3   -0.233832
4   -0.364842
5   0.186422
6   0.170885
7   0.172144
8   0.359019

$$$$
PCCDB-ID:  177
     RDKit          3D

  7  6  0  0  0  0  0  0  0  0999 V2000
    0.9433    0.0955    0.0155 C   0  0  0  0  0  0  0  0  0  0  0  0
    2.4507    0.1327   -0.0196 C   0  0  0  0  0  0  0  0  0  0  0  0
    3.1219    1.1101    0.2245 O   0  0  0  0  0  0  0  0  0  0  0  0
    0.6057   -0.6721    0.7244 H   0  0  0  0  0  0  0  0  0  0  0  0
    0.5557   -0.1937   -0.9703 H   0  0  0  0  0  0  0  0  0  0  0  0
    0.5433    1.0708    0.3018 H   0  0  0  0  0  0  0  0  0  0  0  0
    2.9357   -0.8318   -0.2954 H   0  0  0  0  0  0  0  0  0  0  0  0
  1  6  1  0
  1  4  1  0
  2  1  1  0
  2  3  2  0
  5  1  1  0
  7  2  1  0
M  END
>  <HBA>  (71) 
1

>  <HBD>  (71) 
0

>  <TPSA>  (71) 
17.07

>  <cid>  (71) 
177

>  <dipole>  (71) 
2.64

>  <excitation_energy_1>  (71) 
4.318

>  <excitation_energy_2>  (71) 
6.665

>  <excitation_energy_3>  (71) 
7.144

>  <excitation_energy_4>  (71) 
7.634

>  <homo_energy>  (71) 
-6.944

>  <homo_lumo_gap>  (71) 
6.351

>  <logP>  (71) 
0.205

>  <lumo_energy>  (71) 
-0.593

>  <melting_point>  (71) 
7.82

>  <molecular_refractivity>  (71) 
11.93

>  <oscillator_strength_1>  (71) 
0.0

>  <oscillator_strength_2>  (71) 
0.0251

>  <oscillator_strength_3>  (71) 
0.075

>  <oscillator_strength_4>  (71) 
0.0401

>  <open_babel_can_smiles>  (71) 
CC=O

>  <mulliken_charges>  (71) 
7
1   -0.517367
2   0.260918
3   -0.374311
4   0.173094
5   0.173657
6   0.182184
7   0.101825

>  <lowdin_charges>  (71) 
7
1   -0.479101
2   0.061474
3   -0.216621
4   0.174387
5   0.173596
6   0.172725
7   0.113539

$$$$
PCCDB-ID:  178
     RDKit          3D

  9  8  0  0  0  0  0  0  0  0999 V2000
    0.9892    0.1036    0.1067 C   0  0  0  0  0  0  0  0  0  0  0  0
    2.5007    0.0344    0.0191 C   0  0  0  0  0  0  0  0  0  0  0  0
    3.2120   -0.6125   -0.8081 N   0  0  0  0  0  0  0  0  0  0  0  0
    3.1594    0.7716    0.9622 O   0  0  0  0  0  0  0  0  0  0  0  0
    0.5190   -0.5088   -0.6659 H   0  0  0  0  0  0  0  0  0  0  0  0
    0.6412    1.1374   -0.0156 H   0  0  0  0  0  0  0  0  0  0  0  0
    0.6412   -0.2516    1.0854 H   0  0  0  0  0  0  0  0  0  0  0  0
    2.6124   -1.1212   -1.4583 H   0  0  0  0  0  0  0  0  0  0  0  0
    2.5152    1.2214    1.5290 H   0  0  0  0  0  0  0  0  0  0  0  0
  1  7  1  0
  2  1  1  0
  2  4  1  0
  3  2  2  0
  4  9  1  0
  5  1  1  0
  6  1  1  0
  8  3  1  0
M  END
>  <HBA>  (72) 
2

>  <HBD>  (72) 
1

>  <TPSA>  (72) 
43.09

>  <cid>  (72) 
178

>  <dipole>  (72) 
4.24

>  <excitation_energy_1>  (72) 
6.256

>  <excitation_energy_2>  (72) 
6.308

>  <excitation_energy_3>  (72) 
6.333

>  <excitation_energy_4>  (72) 
7.213

>  <homo_energy>  (72) 
-7.135

>  <homo_lumo_gap>  (72) 
7.919

>  <logP>  (72) 
0.192

>  <lumo_energy>  (72) 
0.784

>  <melting_point>  (72) 
51.73

>  <molecular_refractivity>  (72) 
14.64

>  <oscillator_strength_1>  (72) 
0.0018

>  <oscillator_strength_2>  (72) 
0.001

>  <oscillator_strength_3>  (72) 
0.0255

>  <oscillator_strength_4>  (72) 
0.0118

>  <open_babel_can_smiles>  (72) 
CC(=N)O

>  <mulliken_charges>  (72) 
9
1   -0.54588
2   0.476014
3   -0.571973
4   -0.565555
5   0.171963
6   0.174134
7   0.17387
8   0.281808
9   0.405619

>  <lowdin_charges>  (72) 
9
1   -0.48226
2   0.128859
3   -0.397437
4   -0.369196
5   0.170876
6   0.167006
7   0.167533
8   0.258117
9   0.356501

$$$$
PCCDB-ID:  179
     RDKit          3D

 14 13  0  0  1  0  0  0  0  0999 V2000
    1.2198   -0.6941    0.0786 C   0  0  0  0  0  0  0  0  0  0  0  0
    3.7849    1.6280   -1.6668 C   0  0  0  0  0  0  0  0  0  0  0  0
    2.5516    0.0494    0.0077 C   0  0  1  0  0  0  0  0  0  0  0  0
    2.9584    0.3768   -1.4451 C   0  0  0  0  0  0  0  0  0  0  0  0
    2.5917    1.1964    0.8548 O   0  0  0  0  0  0  0  0  0  0  0  0
    2.6487   -0.3691   -2.3553 O   0  0  0  0  0  0  0  0  0  0  0  0
    1.2387   -1.5731   -0.5697 H   0  0  0  0  0  0  0  0  0  0  0  0
    0.3990   -0.0504   -0.2648 H   0  0  0  0  0  0  0  0  0  0  0  0
    1.0138   -1.0021    1.1078 H   0  0  0  0  0  0  0  0  0  0  0  0
    4.6337    1.6635   -0.9751 H   0  0  0  0  0  0  0  0  0  0  0  0
    3.1858    2.5225   -1.4583 H   0  0  0  0  0  0  0  0  0  0  0  0
    4.1307    1.6551   -2.7019 H   0  0  0  0  0  0  0  0  0  0  0  0
    3.3498   -0.6020    0.3926 H   0  0  0  0  0  0  0  0  0  0  0  0
    1.7811    1.7060    0.6953 H   0  0  0  0  0  0  0  0  0  0  0  0
  1  9  1  0
  2 11  1  0
  2  4  1  0
  2 10  1  0
  3  1  1  0
  3 13  1  1
  3  5  1  0
  4  3  1  0
  6  4  2  0
  7  1  1  0
  8  1  1  0
 12  2  1  0
 14  5  1  0
M  END
>  <HBA>  (73) 
2

>  <HBD>  (73) 
1

>  <TPSA>  (73) 
37.3

>  <cid>  (73) 
179

>  <dipole>  (73) 
1.76

>  <excitation_energy_1>  (73) 
4.155

>  <excitation_energy_2>  (73) 
5.901

>  <excitation_energy_3>  (73) 
6.493

>  <excitation_energy_4>  (73) 
6.566

>  <homo_energy>  (73) 
-6.468

>  <homo_lumo_gap>  (73) 
5.943

>  <logP>  (73) 
-0.044

>  <lumo_energy>  (73) 
-0.525

>  <melting_point>  (73) 
14.77

>  <molecular_refractivity>  (73) 
22.7

>  <oscillator_strength_1>  (73) 
0.0001

>  <oscillator_strength_2>  (73) 
0.0033

>  <oscillator_strength_3>  (73) 
0.0184

>  <oscillator_strength_4>  (73) 
0.0208

>  <open_babel_can_smiles>  (73) 
CC(=O)[C@@H](O)C

>  <mulliken_charges>  (73) 
14
1   -0.464104
2   -0.513864
3   0.055409
4   0.421785
5   -0.617434
6   -0.43757
7   0.180494
8   0.13888
9   0.158605
10   0.178694
11   0.16571
12   0.174242
13   0.169899
14   0.389253

>  <lowdin_charges>  (73) 
14
1   -0.455713
2   -0.472789
3   -0.034639
4   0.14863
5   -0.457316
6   -0.235012
7   0.174523
8   0.148732
9   0.158264
10   0.176753
11   0.17168
12   0.16907
13   0.165331
14   0.342486

$$$$
PCCDB-ID:  180
     RDKit          3D

 10  9  0  0  0  0  0  0  0  0999 V2000
    1.0017   -0.0243   -0.1181 C   0  0  0  0  0  0  0  0  0  0  0  0
    3.2775    0.0754    1.1920 C   0  0  0  0  0  0  0  0  0  0  0  0
    2.5269   -0.0246   -0.1319 C   0  0  0  0  0  0  0  0  0  0  0  0
    3.1348   -0.1038   -1.1819 O   0  0  0  0  0  0  0  0  0  0  0  0
    0.5742    0.0527    0.8845 H   0  0  0  0  0  0  0  0  0  0  0  0
    0.6413   -0.9437   -0.5933 H   0  0  0  0  0  0  0  0  0  0  0  0
    0.6403    0.8109   -0.7285 H   0  0  0  0  0  0  0  0  0  0  0  0
    2.6204    0.1418    2.0625 H   0  0  0  0  0  0  0  0  0  0  0  0
    3.9301    0.9553    1.1658 H   0  0  0  0  0  0  0  0  0  0  0  0
    3.9287   -0.7995    1.2989 H   0  0  0  0  0  0  0  0  0  0  0  0
  1  5  1  0
  2 10  1  0
  2  8  1  0
  3  1  1  0
  3  2  1  0
  4  3  2  0
  6  1  1  0
  7  1  1  0
  9  2  1  0
M  END
>  <HBA>  (74) 
1

>  <HBD>  (74) 
0

>  <TPSA>  (74) 
17.07

>  <cid>  (74) 
180

>  <dipole>  (74) 
2.61

>  <excitation_energy_1>  (74) 
4.299

>  <excitation_energy_2>  (74) 
6.181

>  <excitation_energy_3>  (74) 
7.054

>  <excitation_energy_4>  (74) 
7.387

>  <homo_energy>  (74) 
-6.615

>  <homo_lumo_gap>  (74) 
6.147

>  <logP>  (74) 
0.595

>  <lumo_energy>  (74) 
-0.468

>  <melting_point>  (74) 
-3.18

>  <molecular_refractivity>  (74) 
16.73

>  <oscillator_strength_1>  (74) 
0.0

>  <oscillator_strength_2>  (74) 
0.0529

>  <oscillator_strength_3>  (74) 
0.0027

>  <oscillator_strength_4>  (74) 
0.0

>  <open_babel_can_smiles>  (74) 
CC(=O)C

>  <mulliken_charges>  (74) 
10
1   -0.523737
2   -0.523639
3   0.434615
4   -0.43064
5   0.1511
6   0.185325
7   0.185312
8   0.151063
9   0.185295
10   0.185307

>  <lowdin_charges>  (74) 
10
1   -0.481662
2   -0.48138
3   0.172889
4   -0.243023
5   0.155775
6   0.18008
7   0.180522
8   0.156685
9   0.180023
10   0.18009

$$$$
PCCDB-ID:  186
     RDKit          3D

 13 12  0  0  0  0  0  0  0  0999 V2000
    1.3059    0.9517    0.5640 C   0  0  0  0  0  0  0  0  0  0  0  0
    2.6837    0.4584    0.2272 C   0  0  0  0  0  0  0  0  0  0  0  0
    3.1993    0.5123   -0.8732 O   0  0  0  0  0  0  0  0  0  0  0  0
    4.9138   -1.7566    2.2737 O   0  0  0  0  0  0  0  0  0  0  0  0
    5.1734   -1.1231   -0.1062 O   0  0  0  0  0  0  0  0  0  0  0  0
    5.7810    0.6526    1.7826 O   0  0  0  0  0  0  0  0  0  0  0  0
    3.3097   -0.0610    1.3193 O   0  0  0  0  0  0  0  0  0  0  0  0
    4.9391   -0.4660    1.3230 P   0  0  0  0  0  0  0  0  0  0  0  0
    0.7817    1.2275   -0.3512 H   0  0  0  0  0  0  0  0  0  0  0  0
    1.3880    1.8244    1.2215 H   0  0  0  0  0  0  0  0  0  0  0  0
    0.7516    0.1819    1.1088 H   0  0  0  0  0  0  0  0  0  0  0  0
    5.3726   -1.5575    3.1070 H   0  0  0  0  0  0  0  0  0  0  0  0
    4.6885   -0.5870   -0.7788 H   0  0  0  0  0  0  0  0  0  0  0  0
  1 11  1  0
  1 10  1  0
  2  1  1  0
  2  7  1  0
  3  2  2  0
  4 12  1  0
  5  8  1  0
  7  8  1  0
  8  6  2  0
  8  4  1  0
  9  1  1  0
 13  5  1  0
M  END
>  <HBA>  (75) 
5

>  <HBD>  (75) 
2

>  <TPSA>  (75) 
93.64

>  <cid>  (75) 
186

>  <dipole>  (75) 
3.53

>  <excitation_energy_1>  (75) 
5.871

>  <excitation_energy_2>  (75) 
6.644

>  <excitation_energy_3>  (75) 
6.753

>  <excitation_energy_4>  (75) 
7.17

>  <homo_energy>  (75) 
-8.313

>  <homo_lumo_gap>  (75) 
7.429

>  <logP>  (75) 
-0.358

>  <lumo_energy>  (75) 
-0.884

>  <melting_point>  (75) 
77.21

>  <molecular_refractivity>  (75) 
24.0

>  <oscillator_strength_1>  (75) 
0.0009

>  <oscillator_strength_2>  (75) 
0.0138

>  <oscillator_strength_3>  (75) 
0.0312

>  <oscillator_strength_4>  (75) 
0.0104

>  <open_babel_can_smiles>  (75) 
CC(=O)OP(=O)(O)O

>  <mulliken_charges>  (75) 
13
1   -0.52177
2   0.61835
3   -0.475077
4   -0.61277
5   -0.636535
6   -0.511075
7   -0.502913
8   1.132249
9   0.194916
10   0.204782
11   0.198196
12   0.450115
13   0.46153

>  <lowdin_charges>  (75) 
13
1   -0.45861
2   0.234802
3   -0.256701
4   -0.541859
5   -0.554279
6   -0.561495
7   -0.335309
8   1.131277
9   0.183588
10   0.19242
11   0.188579
12   0.39259
13   0.384997

$$$$
PCCDB-ID:  189
     RDKit          3D

 19 18  0  0  1  0  0  0  0  0999 V2000
    2.5940   -4.3962   -3.0518 C   0  0  0  0  0  0  0  0  0  0  0  0
    5.3420   -2.6293   -1.2987 C   0  0  0  0  0  0  0  0  0  0  0  0
    3.8436   -3.5736   -2.8781 C   0  0  0  0  0  0  0  0  0  0  0  0
    6.6870   -3.2946   -1.6935 C   0  0  1  0  0  0  0  0  0  0  0  0
    7.5460   -2.3099   -2.5256 C   0  0  0  0  0  0  0  0  0  0  0  0
    7.3739   -3.7977   -0.5098 N   0  0  0  0  0  0  0  0  0  0  0  0
    4.4658   -3.0638   -3.7986 O   0  0  0  0  0  0  0  0  0  0  0  0
    8.6307   -1.9269   -2.1517 O   0  0  0  0  0  0  0  0  0  0  0  0
    7.0085   -1.9005   -3.6853 O   0  0  0  0  0  0  0  0  0  0  0  0
    4.1924   -3.4622   -1.5893 O   0  0  0  0  0  0  0  0  0  0  0  0
    2.7170   -5.3717   -2.5711 H   0  0  0  0  0  0  0  0  0  0  0  0
    2.3841   -4.5228   -4.1140 H   0  0  0  0  0  0  0  0  0  0  0  0
    1.7512   -3.8961   -2.5632 H   0  0  0  0  0  0  0  0  0  0  0  0
    5.1921   -1.6621   -1.7860 H   0  0  0  0  0  0  0  0  0  0  0  0
    5.3132   -2.5063   -0.2165 H   0  0  0  0  0  0  0  0  0  0  0  0
    6.4548   -4.1476   -2.3408 H   0  0  0  0  0  0  0  0  0  0  0  0
    7.9221   -3.0279   -0.1215 H   0  0  0  0  0  0  0  0  0  0  0  0
    8.0753   -4.4772   -0.8013 H   0  0  0  0  0  0  0  0  0  0  0  0
    6.1134   -2.2952   -3.8121 H   0  0  0  0  0  0  0  0  0  0  0  0
  1  3  1  0
  1 11  1  0
  1 13  1  0
  2 15  1  0
  3 10  1  0
  4 16  1  6
  4  2  1  0
  4  6  1  0
  5  8  2  0
  5  4  1  0
  6 17  1  0
  7  3  2  0
  9  5  1  0
 10  2  1  0
 12  1  1  0
 14  2  1  0
 18  6  1  0
 19  9  1  0
M  END
>  <HBA>  (76) 
5

>  <HBD>  (76) 
2

>  <TPSA>  (76) 
89.62

>  <cid>  (76) 
189

>  <dipole>  (76) 
4.77

>  <excitation_energy_1>  (76) 
5.561

>  <excitation_energy_2>  (76) 
5.646

>  <excitation_energy_3>  (76) 
5.927

>  <excitation_energy_4>  (76) 
6.002

>  <homo_energy>  (76) 
-6.863

>  <homo_lumo_gap>  (76) 
6.286

>  <logP>  (76) 
-0.338

>  <lumo_energy>  (76) 
-0.577

>  <melting_point>  (76) 
117.95

>  <molecular_refractivity>  (76) 
31.91

>  <oscillator_strength_1>  (76) 
0.0075

>  <oscillator_strength_2>  (76) 
0.0014

>  <oscillator_strength_3>  (76) 
0.0009

>  <oscillator_strength_4>  (76) 
0.0044

>  <open_babel_can_smiles>  (76) 
CC(=O)OC[C@@H](C(=O)O)N

>  <mulliken_charges>  (76) 
19
1   -0.52693
2   -0.063553
3   0.621238
4   -0.119522
5   0.557951
6   -0.700671
7   -0.497953
8   -0.453527
9   -0.591609
10   -0.430499
11   0.193968
12   0.192512
13   0.194603
14   0.175385
15   0.190505
16   0.176853
17   0.315944
18   0.310714
19   0.454589

>  <lowdin_charges>  (76) 
19
1   -0.460649
2   -0.133274
3   0.217905
4   -0.126555
5   0.165204
6   -0.535731
7   -0.285917
8   -0.255397
9   -0.357164
10   -0.170769
11   0.184801
12   0.180093
13   0.186702
14   0.156995
15   0.174806
16   0.167986
17   0.266189
18   0.265769
19   0.359006

$$$$
PCCDB-ID:  190
     RDKit          3D

 15 16  0  0  0  0  0  0  0  0999 V2000
    2.2762    0.0436   -0.0016 C   0  0  0  0  0  0  0  0  0  0  0  0
   -2.0453    0.5905    0.0004 C   0  0  0  0  0  0  0  0  0  0  0  0
    0.3207   -0.7207    0.0306 C   0  0  0  0  0  0  0  0  0  0  0  0
   -0.8951   -1.4114    0.0486 C   0  0  0  0  0  0  0  0  0  0  0  0
    0.3002    0.6960   -0.0044 C   0  0  0  0  0  0  0  0  0  0  0  0
   -0.9700   -2.7571    0.0945 N   0  0  0  0  0  0  0  0  0  0  0  0
    1.6287   -1.1264    0.0305 N   0  0  0  0  0  0  0  0  0  0  0  0
   -2.0769   -0.7184    0.0306 N   0  0  0  0  0  0  0  0  0  0  0  0
    1.5305    1.1987   -0.0239 N   0  0  0  0  0  0  0  0  0  0  0  0
   -0.9147    1.3400   -0.0168 N   0  0  0  0  0  0  0  0  0  0  0  0
    3.3594    0.0941   -0.0100 H   0  0  0  0  0  0  0  0  0  0  0  0
   -2.9825    1.1392   -0.0119 H   0  0  0  0  0  0  0  0  0  0  0  0
   -0.1213   -3.2998    0.0379 H   0  0  0  0  0  0  0  0  0  0  0  0
   -1.8684   -3.2095    0.0240 H   0  0  0  0  0  0  0  0  0  0  0  0
   -0.9566    2.3528   -0.0424 H   0  0  0  0  0  0  0  0  0  0  0  0
  1  7  2  0
  2  8  2  0
  3  4  2  0
  4  6  1  0
  5  3  1  0
  7  3  1  0
  8  4  1  0
  9  5  2  0
  9  1  1  0
 10  5  1  0
 10  2  1  0
 11  1  1  0
 12  2  1  0
 13  6  1  0
 14  6  1  0
 15 10  1  0
M  END
>  <HBA>  (77) 
4

>  <HBD>  (77) 
2

>  <TPSA>  (77) 
80.48

>  <cid>  (77) 
190

>  <dipole>  (77) 
4.09

>  <excitation_energy_1>  (77) 
4.334

>  <excitation_energy_2>  (77) 
4.65

>  <excitation_energy_3>  (77) 
4.714

>  <excitation_energy_4>  (77) 
5.057

>  <homo_energy>  (77) 
-5.842

>  <homo_lumo_gap>  (77) 
4.724

>  <logP>  (77) 
0.516

>  <lumo_energy>  (77) 
-1.118

>  <melting_point>  (77) 
191.6

>  <molecular_refractivity>  (77) 
36.09

>  <oscillator_strength_1>  (77) 
0.0849

>  <oscillator_strength_2>  (77) 
0.1237

>  <oscillator_strength_3>  (77) 
0.0004

>  <oscillator_strength_4>  (77) 
0.0028

>  <open_babel_can_smiles>  (77) 
Nc1nc[nH]c2c1ncn2

>  <mulliken_charges>  (77) 
15
1   0.16275
2   0.233895
3   0.234718
4   0.476241
5   0.48363
6   -0.772201
7   -0.533386
8   -0.509821
9   -0.512702
10   -0.641893
11   0.134343
12   0.173833
13   0.367031
14   0.350001
15   0.353562

>  <lowdin_charges>  (77) 
15
1   -0.064161
2   -0.025818
3   -0.066096
4   0.127161
5   0.039323
6   -0.426063
7   -0.232251
8   -0.202458
9   -0.242743
10   -0.147003
11   0.153511
12   0.173709
13   0.308268
14   0.298826
15   0.305795

$$$$
PCCDB-ID:  196
     RDKit          3D

 20 19  0  0  0  0  0  0  0  0999 V2000
    1.6793   -0.1167   -0.3303 C   0  0  0  0  0  0  0  0  0  0  0  0
    1.3857   -0.2074   -1.8409 C   0  0  0  0  0  0  0  0  0  0  0  0
    3.1650   -0.0852    0.0646 C   0  0  0  0  0  0  0  0  0  0  0  0
    1.5453   -1.5941   -2.5048 C   0  0  0  0  0  0  0  0  0  0  0  0
    3.8806   -1.4272    0.1333 C   0  0  0  0  0  0  0  0  0  0  0  0
    0.4931   -2.5781   -1.9917 C   0  0  0  0  0  0  0  0  0  0  0  0
    3.3749   -2.5165   -0.0348 O   0  0  0  0  0  0  0  0  0  0  0  0
    5.1963   -1.3677    0.4359 O   0  0  0  0  0  0  0  0  0  0  0  0
   -0.5963   -2.6910   -2.5047 O   0  0  0  0  0  0  0  0  0  0  0  0
    0.8168   -3.2839   -0.8879 O   0  0  0  0  0  0  0  0  0  0  0  0
    1.1757   -0.9263    0.2090 H   0  0  0  0  0  0  0  0  0  0  0  0
    1.2360    0.8154    0.0391 H   0  0  0  0  0  0  0  0  0  0  0  0
    2.0237    0.5116   -2.3735 H   0  0  0  0  0  0  0  0  0  0  0  0
    0.3521    0.1179   -2.0087 H   0  0  0  0  0  0  0  0  0  0  0  0
    3.2709    0.3668    1.0621 H   0  0  0  0  0  0  0  0  0  0  0  0
    3.7281    0.5673   -0.6194 H   0  0  0  0  0  0  0  0  0  0  0  0
    2.5566   -1.9875   -2.3626 H   0  0  0  0  0  0  0  0  0  0  0  0
    1.3719   -1.4865   -3.5789 H   0  0  0  0  0  0  0  0  0  0  0  0
    5.4771   -0.4440    0.5498 H   0  0  0  0  0  0  0  0  0  0  0  0
    1.7295   -3.0720   -0.5947 H   0  0  0  0  0  0  0  0  0  0  0  0
  1 12  1  0
  1  3  1  0
  1 11  1  0
  2  1  1  0
  3  5  1  0
  3 15  1  0
  4 17  1  0
  4  6  1  0
  4  2  1  0
  5  8  1  0
  6 10  1  0
  7  5  2  0
  8 19  1  0
  9  6  2  0
 10 20  1  0
 13  2  1  0
 14  2  1  0
 16  3  1  0
 18  4  1  0
M  END
>  <HBA>  (78) 
4

>  <HBD>  (78) 
2

>  <TPSA>  (78) 
74.6

>  <cid>  (78) 
196

>  <dipole>  (78) 
8.29

>  <excitation_energy_1>  (78) 
5.46

>  <excitation_energy_2>  (78) 
5.576

>  <excitation_energy_3>  (78) 
5.784

>  <excitation_energy_4>  (78) 
5.848

>  <homo_energy>  (78) 
-6.748

>  <homo_lumo_gap>  (78) 
6.063

>  <logP>  (78) 
0.716

>  <lumo_energy>  (78) 
-0.686

>  <melting_point>  (78) 
127.75

>  <molecular_refractivity>  (78) 
34.5

>  <oscillator_strength_1>  (78) 
0.0011

>  <oscillator_strength_2>  (78) 
0.0006

>  <oscillator_strength_3>  (78) 
0.0003

>  <oscillator_strength_4>  (78) 
0.0004

>  <open_babel_can_smiles>  (78) 
OC(=O)CCCCC(=O)O

>  <mulliken_charges>  (78) 
20
1   -0.274545
2   -0.274615
3   -0.407136
4   -0.364298
5   0.625418
6   0.574006
7   -0.460582
8   -0.547956
9   -0.455337
10   -0.597788
11   0.172348
12   0.150594
13   0.137036
14   0.170607
15   0.182713
16   0.171556
17   0.151114
18   0.171633
19   0.420198
20   0.455032

>  <lowdin_charges>  (78) 
20
1   -0.282308
2   -0.269908
3   -0.324932
4   -0.31941
5   0.213677
6   0.188351
7   -0.250479
8   -0.33524
9   -0.261013
10   -0.367944
11   0.16406
12   0.15779
13   0.145101
14   0.160467
15   0.173542
16   0.166414
17   0.152956
18   0.169154
19   0.364044
20   0.355679

$$$$
PCCDB-ID:  203
     RDKit          3D

 20 19  0  0  0  0  0  0  0  0999 V2000
    0.9222   -0.2402    0.7113 C   0  0  0  0  0  0  0  0  0  0  0  0
   -0.1154   -1.3727    0.4983 C   0  0  0  0  0  0  0  0  0  0  0  0
    0.9279    1.6715    2.2647 C   0  0  0  0  0  0  0  0  0  0  0  0
    3.3111   -0.0540   -0.0846 C   0  0  0  0  0  0  0  0  0  0  0  0
    1.5523    2.5524    1.5894 N   0  0  0  0  0  0  0  0  0  0  0  0
    4.5664   -0.1979    0.0489 N   0  0  0  0  0  0  0  0  0  0  0  0
    0.7121    0.3198    2.0153 N   0  0  0  0  0  0  0  0  0  0  0  0
    2.2728   -0.7951    0.4923 N   0  0  0  0  0  0  0  0  0  0  0  0
   -1.1496   -1.4313    1.1171 O   0  0  0  0  0  0  0  0  0  0  0  0
    0.2236   -2.2557   -0.4483 O   0  0  0  0  0  0  0  0  0  0  0  0
    0.3646    1.9936    3.4566 O   0  0  0  0  0  0  0  0  0  0  0  0
    2.8251    0.8793   -0.9450 O   0  0  0  0  0  0  0  0  0  0  0  0
    0.7622    0.4971   -0.0850 H   0  0  0  0  0  0  0  0  0  0  0  0
    1.9340    2.2016    0.7133 H   0  0  0  0  0  0  0  0  0  0  0  0
    4.8161   -0.9169    0.7269 H   0  0  0  0  0  0  0  0  0  0  0  0
   -0.0952   -0.0705    2.4941 H   0  0  0  0  0  0  0  0  0  0  0  0
    2.5912   -1.3257    1.2979 H   0  0  0  0  0  0  0  0  0  0  0  0
    1.1518   -2.0640   -0.7005 H   0  0  0  0  0  0  0  0  0  0  0  0
    0.5575    2.9399    3.5785 H   0  0  0  0  0  0  0  0  0  0  0  0
    3.6129    1.3180   -1.3148 H   0  0  0  0  0  0  0  0  0  0  0  0
  1  7  1  0
  2  1  1  0
  2  9  2  0
  3 11  1  0
  4  6  2  0
  4  8  1  0
  5  3  2  0
  6 15  1  0
  7  3  1  0
  7 16  1  0
  8  1  1  0
  8 17  1  0
 10  2  1  0
 11 19  1  0
 12  4  1  0
 13  1  1  0
 14  5  1  0
 18 10  1  0
 20 12  1  0
M  END
>  <HBA>  (79) 
8

>  <HBD>  (79) 
5

>  <TPSA>  (79) 
147.54

>  <cid>  (79) 
203

>  <dipole>  (79) 
2.36

>  <excitation_energy_1>  (79) 
5.291

>  <excitation_energy_2>  (79) 
5.633

>  <excitation_energy_3>  (79) 
5.835

>  <excitation_energy_4>  (79) 
6.079

>  <homo_energy>  (79) 
-6.822

>  <homo_lumo_gap>  (79) 
6.31

>  <logP>  (79) 
-0.084

>  <lumo_energy>  (79) 
-0.512

>  <melting_point>  (79) 
278.23

>  <molecular_refractivity>  (79) 
35.31

>  <oscillator_strength_1>  (79) 
0.0054

>  <oscillator_strength_2>  (79) 
0.0048

>  <oscillator_strength_3>  (79) 
0.0083

>  <oscillator_strength_4>  (79) 
0.002

>  <open_babel_can_smiles>  (79) 
OC(=O)C(NC(=N)O)NC(=N)O

>  <mulliken_charges>  (79) 
20
1   0.04091
2   0.599031
3   0.634714
4   0.657369
5   -0.662007
6   -0.632673
7   -0.607836
8   -0.645407
9   -0.44446
10   -0.558605
11   -0.600994
12   -0.593796
13   0.222555
14   0.304906
15   0.289771
16   0.365409
17   0.33705
18   0.433678
19   0.423868
20   0.436519

>  <lowdin_charges>  (79) 
20
1   -0.042918
2   0.17673
3   0.163497
4   0.154743
5   -0.482963
6   -0.450805
7   -0.305961
8   -0.319428
9   -0.232424
10   -0.327803
11   -0.373026
12   -0.372137
13   0.184064
14   0.261565
15   0.265377
16   0.302452
17   0.287176
18   0.364299
19   0.368687
20   0.378875

$$$$
PCCDB-ID:  205
     RDKit          3D

 17 16  0  0  1  0  0  0  0  0999 V2000
    1.4527    0.3263    0.4770 C   0  0  0  0  0  0  0  0  0  0  0  0
    2.8588   -0.2562    0.4457 C   0  0  1  0  0  0  0  0  0  0  0  0
    3.3734   -0.5356   -0.9854 C   0  0  1  0  0  0  0  0  0  0  0  0
    4.7702   -1.2179   -0.9969 C   0  0  0  0  0  0  0  0  0  0  0  0
    2.3864   -1.2913   -1.7475 N   0  0  0  0  0  0  0  0  0  0  0  0
    3.8014    0.6823    1.0192 O   0  0  0  0  0  0  0  0  0  0  0  0
    5.0043   -2.1713   -1.7044 O   0  0  0  0  0  0  0  0  0  0  0  0
    5.7110   -0.6821   -0.2013 O   0  0  0  0  0  0  0  0  0  0  0  0
    0.7373   -0.3741    0.0418 H   0  0  0  0  0  0  0  0  0  0  0  0
    1.4171    1.2586   -0.0967 H   0  0  0  0  0  0  0  0  0  0  0  0
    1.1539    0.5442    1.5102 H   0  0  0  0  0  0  0  0  0  0  0  0
    2.8881   -1.1936    1.0238 H   0  0  0  0  0  0  0  0  0  0  0  0
    3.4926    0.4490   -1.4599 H   0  0  0  0  0  0  0  0  0  0  0  0
    2.4799   -2.2769   -1.4976 H   0  0  0  0  0  0  0  0  0  0  0  0
    2.6584   -1.2660   -2.7287 H   0  0  0  0  0  0  0  0  0  0  0  0
    3.6276    0.7539    1.9705 H   0  0  0  0  0  0  0  0  0  0  0  0
    5.2851    0.0100    0.3573 H   0  0  0  0  0  0  0  0  0  0  0  0
  1 11  1  0
  2  1  1  0
  2  6  1  0
  2 12  1  1
  3 13  1  6
  3  2  1  0
  4  3  1  0
  4  8  1  0
  5 14  1  0
  5  3  1  0
  6 16  1  0
  7  4  2  0
  8 17  1  0
  9  1  1  0
 10  1  1  0
 15  5  1  0
M  END
>  <HBA>  (80) 
4

>  <HBD>  (80) 
3

>  <TPSA>  (80) 
83.55

>  <cid>  (80) 
205

>  <dipole>  (80) 
4.38

>  <excitation_energy_1>  (80) 
5.63

>  <excitation_energy_2>  (80) 
5.973

>  <excitation_energy_3>  (80) 
6.102

>  <excitation_energy_4>  (80) 
6.382

>  <homo_energy>  (80) 
-6.808

>  <homo_lumo_gap>  (80) 
7.26

>  <logP>  (80) 
-0.521

>  <lumo_energy>  (80) 
0.452

>  <melting_point>  (80) 
124.79

>  <molecular_refractivity>  (80) 
26.98

>  <oscillator_strength_1>  (80) 
0.0013

>  <oscillator_strength_2>  (80) 
0.0003

>  <oscillator_strength_3>  (80) 
0.008

>  <oscillator_strength_4>  (80) 
0.0013

>  <open_babel_can_smiles>  (80) 
C[C@@H]([C@@H](C(=O)O)N)O

>  <mulliken_charges>  (80) 
17
1   -0.439374
2   0.119775
3   -0.108893
4   0.570658
5   -0.699028
6   -0.650095
7   -0.46148
8   -0.586236
9   0.183673
10   0.158049
11   0.13144
12   0.134141
13   0.17243
14   0.308199
15   0.317334
16   0.411369
17   0.438037

>  <lowdin_charges>  (80) 
17
1   -0.453049
2   -0.002285
3   -0.120619
4   0.164487
5   -0.525848
6   -0.462694
7   -0.260707
8   -0.363314
9   0.176444
10   0.159695
11   0.14476
12   0.134396
13   0.164984
14   0.259872
15   0.267684
16   0.355297
17   0.360899

$$$$
PCCDB-ID:  207
     RDKit          3D

 21 20  0  0  1  0  0  0  0  0999 V2000
    0.9419   -0.3675   -1.4122 C   0  0  0  0  0  0  0  0  0  0  0  0
   -0.1141   -0.2219   -0.2943 C   0  0  0  0  0  0  0  0  0  0  0  0
    2.3855   -0.1168   -0.9566 C   0  0  0  0  0  0  0  0  0  0  0  0
   -0.3201    1.2072    0.1645 C   0  0  0  0  0  0  0  0  0  0  0  0
    3.4208   -0.3308   -2.0711 C   0  0  1  0  0  0  0  0  0  0  0  0
    4.8170    0.1726   -1.6283 C   0  0  0  0  0  0  0  0  0  0  0  0
    3.5538   -1.7104   -2.5786 N   0  0  0  0  0  0  0  0  0  0  0  0
   -1.3948    1.7659    0.1770 O   0  0  0  0  0  0  0  0  0  0  0  0
    4.9749    1.1526   -0.9383 O   0  0  0  0  0  0  0  0  0  0  0  0
    5.8305   -0.5593   -2.1115 O   0  0  0  0  0  0  0  0  0  0  0  0
    0.6906    0.3114   -2.2395 H   0  0  0  0  0  0  0  0  0  0  0  0
    0.8588   -1.3844   -1.8185 H   0  0  0  0  0  0  0  0  0  0  0  0
    0.2029   -0.8143    0.5782 H   0  0  0  0  0  0  0  0  0  0  0  0
   -1.0859   -0.6044   -0.6222 H   0  0  0  0  0  0  0  0  0  0  0  0
    2.6302   -0.7821   -0.1146 H   0  0  0  0  0  0  0  0  0  0  0  0
    2.5160    0.9039   -0.5852 H   0  0  0  0  0  0  0  0  0  0  0  0
    0.5948    1.7428    0.5030 H   0  0  0  0  0  0  0  0  0  0  0  0
    3.1489    0.2969   -2.9312 H   0  0  0  0  0  0  0  0  0  0  0  0
    3.4080   -2.3864   -1.8296 H   0  0  0  0  0  0  0  0  0  0  0  0
    2.8722   -1.9145   -3.3042 H   0  0  0  0  0  0  0  0  0  0  0  0
    5.3950   -1.2994   -2.6053 H   0  0  0  0  0  0  0  0  0  0  0  0
  1  3  1  0
  1  2  1  0
  2  4  1  0
  2 13  1  0
  3 16  1  0
  3 15  1  0
  4  8  2  0
  4 17  1  0
  5 18  1  6
  5  6  1  0
  5  3  1  0
  6  9  2  0
  7  5  1  0
  7 19  1  0
 10  6  1  0
 11  1  1  0
 12  1  1  0
 14  2  1  0
 20  7  1  0
 21 10  1  0
M  END
>  <HBA>  (81) 
4

>  <HBD>  (81) 
2

>  <TPSA>  (81) 
80.39

>  <cid>  (81) 
207

>  <dipole>  (81) 
5.48

>  <excitation_energy_1>  (81) 
4.15

>  <excitation_energy_2>  (81) 
5.402

>  <excitation_energy_3>  (81) 
5.626

>  <excitation_energy_4>  (81) 
6.019

>  <homo_energy>  (81) 
-6.944

>  <homo_lumo_gap>  (81) 
6.106

>  <logP>  (81) 
0.468

>  <lumo_energy>  (81) 
-0.838

>  <melting_point>  (81) 
136.57

>  <molecular_refractivity>  (81) 
35.64

>  <oscillator_strength_1>  (81) 
0.0

>  <oscillator_strength_2>  (81) 
0.0026

>  <oscillator_strength_3>  (81) 
0.0004

>  <oscillator_strength_4>  (81) 
0.0008

>  <open_babel_can_smiles>  (81) 
O=CCCC[C@@H](C(=O)O)N

>  <mulliken_charges>  (81) 
21
1   -0.281031
2   -0.336561
3   -0.273864
4   0.256385
5   -0.093706
6   0.613235
7   -0.769034
8   -0.380399
9   -0.46418
10   -0.580025
11   0.151634
12   0.131476
13   0.159647
14   0.167691
15   0.136893
16   0.186743
17   0.113422
18   0.177719
19   0.322146
20   0.328438
21   0.43337

>  <lowdin_charges>  (81) 
21
1   -0.276564
2   -0.309773
3   -0.28925
4   0.054491
5   -0.108354
6   0.170984
7   -0.547631
8   -0.213124
9   -0.255472
10   -0.35178
11   0.149033
12   0.140865
13   0.163618
14   0.165182
15   0.144752
16   0.169472
17   0.120634
18   0.168019
19   0.268976
20   0.274726
21   0.361195

$$$$
PCCDB-ID:  215
     RDKit          3D

 12 11  0  0  0  0  0  0  0  0999 V2000
    1.5904   -0.7079    0.8522 C   0  0  0  0  0  0  0  0  0  0  0  0
    2.6335   -0.2960   -1.5014 C   0  0  0  0  0  0  0  0  0  0  0  0
    2.4946    0.1246   -0.0335 C   0  0  0  0  0  0  0  0  0  0  0  0
    2.5071   -1.7410   -1.6996 N   0  0  0  0  0  0  0  0  0  0  0  0
    3.0733    1.1154    0.3711 O   0  0  0  0  0  0  0  0  0  0  0  0
    2.0127   -1.7094    0.9907 H   0  0  0  0  0  0  0  0  0  0  0  0
    0.6137   -0.8571    0.3782 H   0  0  0  0  0  0  0  0  0  0  0  0
    1.4764   -0.2148    1.8198 H   0  0  0  0  0  0  0  0  0  0  0  0
    3.5582    0.1647   -1.8822 H   0  0  0  0  0  0  0  0  0  0  0  0
    1.7988    0.1873   -2.0299 H   0  0  0  0  0  0  0  0  0  0  0  0
    3.3737   -2.2062   -1.4346 H   0  0  0  0  0  0  0  0  0  0  0  0
    2.3672   -1.9455   -2.6865 H   0  0  0  0  0  0  0  0  0  0  0  0
  1  6  1  0
  1  8  1  0
  2  3  1  0
  3  5  2  0
  3  1  1  0
  4  2  1  0
  4 11  1  0
  7  1  1  0
  9  2  1  0
 10  2  1  0
 12  4  1  0
M  END
>  <HBA>  (82) 
2

>  <HBD>  (82) 
1

>  <TPSA>  (82) 
43.09

>  <cid>  (82) 
215

>  <dipole>  (82) 
2.9

>  <excitation_energy_1>  (82) 
4.304

>  <excitation_energy_2>  (82) 
5.413

>  <excitation_energy_3>  (82) 
5.79

>  <excitation_energy_4>  (82) 
6.264

>  <homo_energy>  (82) 
-6.411

>  <homo_lumo_gap>  (82) 
6.112

>  <logP>  (82) 
0.234

>  <lumo_energy>  (82) 
-0.299

>  <melting_point>  (82) 
51.07

>  <molecular_refractivity>  (82) 
19.44

>  <oscillator_strength_1>  (82) 
0.0001

>  <oscillator_strength_2>  (82) 
0.0072

>  <oscillator_strength_3>  (82) 
0.0057

>  <oscillator_strength_4>  (82) 
0.0257

>  <open_babel_can_smiles>  (82) 
CC(=O)CN

>  <mulliken_charges>  (82) 
12
1   -0.505599
2   -0.226906
3   0.443153
4   -0.719813
5   -0.437943
6   0.175223
7   0.170188
8   0.168916
9   0.151985
10   0.168885
11   0.303992
12   0.307918

>  <lowdin_charges>  (82) 
12
1   -0.469898
2   -0.241136
3   0.157163
4   -0.553594
5   -0.237672
6   0.175945
7   0.172412
8   0.166982
9   0.144368
10   0.167007
11   0.257859
12   0.260562

$$$$
PCCDB-ID:  219
     RDKit          3D

 15 14  0  0  1  0  0  0  0  0999 V2000
    0.8762    0.5259    0.1597 C   0  0  0  0  0  0  0  0  0  0  0  0
    2.1152    0.0377   -0.5371 C   0  0  0  0  0  0  0  0  0  0  0  0
    3.3985    0.8865   -0.4538 C   0  0  1  0  0  0  0  0  0  0  0  0
    4.1144    0.9943   -1.8353 C   0  0  0  0  0  0  0  0  0  0  0  0
    3.1968    2.1729    0.1914 N   0  0  0  0  0  0  0  0  0  0  0  0
    2.1452   -1.0299   -1.1398 O   0  0  0  0  0  0  0  0  0  0  0  0
    4.5707    2.0462   -2.2159 O   0  0  0  0  0  0  0  0  0  0  0  0
    4.2220   -0.1411   -2.5319 O   0  0  0  0  0  0  0  0  0  0  0  0
    0.0842   -0.2181    0.0580 H   0  0  0  0  0  0  0  0  0  0  0  0
    0.5558    1.4819   -0.2704 H   0  0  0  0  0  0  0  0  0  0  0  0
    1.0914    0.7328    1.2127 H   0  0  0  0  0  0  0  0  0  0  0  0
    4.0659    0.2776    0.1748 H   0  0  0  0  0  0  0  0  0  0  0  0
    3.0420    2.8730   -0.5345 H   0  0  0  0  0  0  0  0  0  0  0  0
    4.0656    2.4608    0.6360 H   0  0  0  0  0  0  0  0  0  0  0  0
    3.6205   -0.8124   -2.1233 H   0  0  0  0  0  0  0  0  0  0  0  0
  1 11  1  0
  2  3  1  0
  2  1  1  0
  3 12  1  1
  3  5  1  0
  4  3  1  0
  5 14  1  0
  6  2  2  0
  7  4  2  0
  8 15  1  0
  8  4  1  0
  9  1  1  0
 10  1  1  0
 13  5  1  0
M  END
>  <HBA>  (83) 
4

>  <HBD>  (83) 
2

>  <TPSA>  (83) 
80.39

>  <cid>  (83) 
219

>  <dipole>  (83) 
3.61

>  <excitation_energy_1>  (83) 
4.248

>  <excitation_energy_2>  (83) 
5.287

>  <excitation_energy_3>  (83) 
5.415

>  <excitation_energy_4>  (83) 
5.747

>  <homo_energy>  (83) 
-7.034

>  <homo_lumo_gap>  (83) 
5.671

>  <logP>  (83) 
-0.312

>  <lumo_energy>  (83) 
-1.363

>  <melting_point>  (83) 
127.56

>  <molecular_refractivity>  (83) 
26.02

>  <oscillator_strength_1>  (83) 
0.0029

>  <oscillator_strength_2>  (83) 
0.0082

>  <oscillator_strength_3>  (83) 
0.0121

>  <oscillator_strength_4>  (83) 
0.0009

>  <open_babel_can_smiles>  (83) 
N[C@H](C(=O)O)C(=O)C

>  <mulliken_charges>  (83) 
15
1   -0.505635
2   0.463472
3   -0.200814
4   0.587075
5   -0.706477
6   -0.46496
7   -0.449277
8   -0.572708
9   0.180998
10   0.186927
11   0.197156
12   0.203658
13   0.322719
14   0.320309
15   0.437556

>  <lowdin_charges>  (83) 
15
1   -0.459934
2   0.175782
3   -0.149912
4   0.173716
5   -0.532949
6   -0.250871
7   -0.249997
8   -0.349302
9   0.174915
10   0.184631
11   0.187898
12   0.189859
13   0.270007
14   0.271345
15   0.364813

$$$$
PCCDB-ID:  222
     RDKit          3D

  4  3  0  0  0  0  0  0  0  0999 V2000
    0.9950    0.0511    0.0888 N   0  0  0  0  0  0  0  0  0  0  0  0
    2.0125   -0.0084    0.1070 H   0  0  0  0  0  0  0  0  0  0  0  0
    0.6852   -0.2198    1.0215 H   0  0  0  0  0  0  0  0  0  0  0  0
    0.6851   -0.6947   -0.5333 H   0  0  0  0  0  0  0  0  0  0  0  0
  1  2  1  0
  1  3  1  0
  4  1  1  0
M  END
>  <HBA>  (84) 
1

>  <HBD>  (84) 
1

>  <TPSA>  (84) 
3.24

>  <cid>  (84) 
222

>  <dipole>  (84) 
1.91

>  <excitation_energy_1>  (84) 
6.618

>  <excitation_energy_2>  (84) 
8.507

>  <excitation_energy_3>  (84) 
8.507

>  <excitation_energy_4>  (84) 
9.906

>  <homo_energy>  (84) 
-6.868

>  <homo_lumo_gap>  (84) 
9.007

>  <logP>  (84) 
0.324

>  <lumo_energy>  (84) 
2.139

>  <melting_point>  (84) 
110.39

>  <molecular_refractivity>  (84) 
4.73

>  <oscillator_strength_1>  (84) 
0.1251

>  <oscillator_strength_2>  (84) 
0.0011

>  <oscillator_strength_3>  (84) 
0.0011

>  <oscillator_strength_4>  (84) 
0.0161

>  <open_babel_can_smiles>  (84) 
N

>  <mulliken_charges>  (84) 
4
1   -0.887641
2   0.295884
3   0.295878
4   0.295878

>  <lowdin_charges>  (84) 
4
1   -0.768597
2   0.254761
3   0.256344
4   0.257492

$$$$
PCCDB-ID:  226
     RDKit          3D

 10  9  0  0  1  0  0  0  0  0999 V2000
    1.2293   -0.1196   -0.2384 C   0  0  1  0  0  0  0  0  0  0  0  0
    0.6381    0.7031   -1.2851 N   0  0  0  0  0  0  0  0  0  0  0  0
    0.9585   -1.4773   -0.5109 O   0  0  0  0  0  0  0  0  0  0  0  0
    3.1042    0.1129   -0.0310 P   0  0  0  0  0  0  0  0  0  0  0  0
    0.7689    0.2016    0.7102 H   0  0  0  0  0  0  0  0  0  0  0  0
    1.1598    0.6074   -2.1559 H   0  0  0  0  0  0  0  0  0  0  0  0
    0.6393    1.6881   -1.0277 H   0  0  0  0  0  0  0  0  0  0  0  0
    0.0205   -1.5035   -0.7743 H   0  0  0  0  0  0  0  0  0  0  0  0
    3.4472   -0.5963   -1.2184 H   0  0  0  0  0  0  0  0  0  0  0  0
    3.3389   -1.0063    0.8181 H   0  0  0  0  0  0  0  0  0  0  0  0
  1  4  1  0
  1  5  1  1
  2  7  1  0
  2  1  1  0
  3  1  1  0
  4 10  1  0
  6  2  1  0
  8  3  1  0
  9  4  1  0
M  END
>  <HBA>  (85) 
2

>  <HBD>  (85) 
3

>  <TPSA>  (85) 
59.84

>  <cid>  (85) 
226

>  <dipole>  (85) 
1.35

>  <excitation_energy_1>  (85) 
5.656

>  <excitation_energy_2>  (85) 
6.091

>  <excitation_energy_3>  (85) 
6.523

>  <excitation_energy_4>  (85) 
6.625

>  <homo_energy>  (85) 
-6.637

>  <homo_lumo_gap>  (85) 
7.268

>  <logP>  (85) 
-0.204

>  <lumo_energy>  (85) 
0.631

>  <melting_point>  (85) 
60.91

>  <molecular_refractivity>  (85) 
19.44

>  <oscillator_strength_1>  (85) 
0.0296

>  <oscillator_strength_2>  (85) 
0.0432

>  <oscillator_strength_3>  (85) 
0.1666

>  <oscillator_strength_4>  (85) 
0.0798

>  <open_babel_can_smiles>  (85) 
N[C@H](P)O

>  <mulliken_charges>  (85) 
10
1   0.083748
2   -0.723548
3   -0.596062
4   0.048286
5   0.141912
6   0.308373
7   0.31043
8   0.390552
9   0.014481
10   0.021828

>  <lowdin_charges>  (85) 
10
1   -0.078108
2   -0.550467
3   -0.455413
4   -0.012797
5   0.137874
6   0.262837
7   0.266168
8   0.34217
9   0.041604
10   0.046132

$$$$
PCCDB-ID:  227
     RDKit          3D

 17 17  0  0  0  0  0  0  0  0999 V2000
   -1.4066   -0.1064    0.0475 C   0  0  0  0  0  0  0  0  0  0  0  0
   -0.6238   -1.2694    0.0730 C   0  0  0  0  0  0  0  0  0  0  0  0
   -0.7691    1.1211   -0.0447 C   0  0  0  0  0  0  0  0  0  0  0  0
    0.7559   -1.1963   -0.0130 C   0  0  0  0  0  0  0  0  0  0  0  0
    0.6332    1.2353   -0.1141 C   0  0  0  0  0  0  0  0  0  0  0  0
    1.4220    0.0461   -0.1249 C   0  0  0  0  0  0  0  0  0  0  0  0
    1.2946    2.5603   -0.2173 C   0  0  0  0  0  0  0  0  0  0  0  0
    2.7878    0.0869   -0.1883 N   0  0  0  0  0  0  0  0  0  0  0  0
    2.4356    2.7354   -0.6095 O   0  0  0  0  0  0  0  0  0  0  0  0
    0.5708    3.6517    0.1520 O   0  0  0  0  0  0  0  0  0  0  0  0
   -2.4894   -0.1634    0.0895 H   0  0  0  0  0  0  0  0  0  0  0  0
   -1.1004   -2.2433    0.1490 H   0  0  0  0  0  0  0  0  0  0  0  0
   -1.3835    2.0165   -0.1136 H   0  0  0  0  0  0  0  0  0  0  0  0
    1.3522   -2.1057   -0.0019 H   0  0  0  0  0  0  0  0  0  0  0  0
    3.2750   -0.7705   -0.4028 H   0  0  0  0  0  0  0  0  0  0  0  0
    3.1988    0.9576   -0.5064 H   0  0  0  0  0  0  0  0  0  0  0  0
   -0.2377    3.3727    0.6101 H   0  0  0  0  0  0  0  0  0  0  0  0
  1  2  2  0
  1 11  1  0
  2 12  1  0
  3  1  1  0
  4 14  1  0
  4  2  1  0
  5  3  2  0
  6  5  1  0
  6  4  2  0
  7  5  1  0
  7 10  1  0
  8  6  1  0
  9  7  2  0
 10 17  1  0
 13  3  1  0
 15  8  1  0
 16  8  1  0
M  END
>  <HBA>  (86) 
3

>  <HBD>  (86) 
2

>  <TPSA>  (86) 
63.32

>  <cid>  (86) 
227

>  <dipole>  (86) 
3.63

>  <excitation_energy_1>  (86) 
3.905

>  <excitation_energy_2>  (86) 
4.896

>  <excitation_energy_3>  (86) 
5.049

>  <excitation_energy_4>  (86) 
5.141

>  <homo_energy>  (86) 
-5.755

>  <homo_lumo_gap>  (86) 
4.553

>  <logP>  (86) 
1.548

>  <lumo_energy>  (86) 
-1.203

>  <melting_point>  (86) 
144.8

>  <molecular_refractivity>  (86) 
37.81

>  <oscillator_strength_1>  (86) 
0.0903

>  <oscillator_strength_2>  (86) 
0.0058

>  <oscillator_strength_3>  (86) 
0.0156

>  <oscillator_strength_4>  (86) 
0.024

>  <open_babel_can_smiles>  (86) 
OC(=O)c1ccccc1N

>  <mulliken_charges>  (86) 
17
1   -0.141601
2   -0.127014
3   -0.219512
4   -0.174015
5   0.025853
6   0.309761
7   0.568184
8   -0.816241
9   -0.48859
10   -0.574147
11   0.131593
12   0.137253
13   0.127677
14   0.125936
15   0.325917
16   0.376999
17   0.411947

>  <lowdin_charges>  (86) 
17
1   -0.189384
2   -0.127251
3   -0.152323
4   -0.19969
5   -0.10809
6   0.092787
7   0.200037
8   -0.467826
9   -0.271658
10   -0.35423
11   0.158675
12   0.162071
13   0.154857
14   0.157586
15   0.281975
16   0.3046
17   0.357864

$$$$
PCCDB-ID:  229
     RDKit          3D

 20 20  0  0  1  0  0  0  0  0999 V2000
    0.6301    1.2135   -0.2280 C   0  0  0  0  0  0  0  0  0  0  0  0
    1.4135   -0.0005    0.2825 C   0  0  2  0  0  0  0  0  0  0  0  0
    0.7205   -1.2867   -0.2008 C   0  0  2  0  0  0  0  0  0  0  0  0
   -0.7743   -1.2452    0.1604 C   0  0  2  0  0  0  0  0  0  0  0  0
   -1.4486    0.0655   -0.2915 C   0  0  1  0  0  0  0  0  0  0  0  0
    1.4172   -0.0498    1.7195 O   0  0  0  0  0  0  0  0  0  0  0  0
    1.3381   -2.4581    0.2868 O   0  0  0  0  0  0  0  0  0  0  0  0
   -0.9648   -1.4032    1.5704 O   0  0  0  0  0  0  0  0  0  0  0  0
   -2.7426    0.1362    0.1870 O   0  0  0  0  0  0  0  0  0  0  0  0
   -0.7144    1.1889    0.2182 O   0  0  0  0  0  0  0  0  0  0  0  0
    0.6867    1.2470   -1.3304 H   0  0  0  0  0  0  0  0  0  0  0  0
    1.0617    2.1474    0.1512 H   0  0  0  0  0  0  0  0  0  0  0  0
    2.4466    0.0245   -0.0932 H   0  0  0  0  0  0  0  0  0  0  0  0
    0.8173   -1.3179   -1.2936 H   0  0  0  0  0  0  0  0  0  0  0  0
   -1.2889   -2.0900   -0.3082 H   0  0  0  0  0  0  0  0  0  0  0  0
   -1.4910    0.1341   -1.3895 H   0  0  0  0  0  0  0  0  0  0  0  0
    1.7137    0.8099    2.0574 H   0  0  0  0  0  0  0  0  0  0  0  0
    1.0446   -2.5481    1.2097 H   0  0  0  0  0  0  0  0  0  0  0  0
   -0.3748   -0.7436    1.9906 H   0  0  0  0  0  0  0  0  0  0  0  0
   -2.7023   -0.2422    1.0867 H   0  0  0  0  0  0  0  0  0  0  0  0
  1 12  1  0
  1 10  1  0
  1  2  1  0
  2 13  1  6
  2  6  1  0
  3 14  1  6
  3  4  1  0
  3  2  1  0
  3  7  1  0
  4 15  1  6
  4  8  1  0
  5 16  1  6
  5  4  1  0
  5  9  1  0
  5 10  1  0
  6 17  1  0
  7 18  1  0
  8 19  1  0
  9 20  1  0
 11  1  1  0
M  END
>  <HBA>  (87) 
5

>  <HBD>  (87) 
4

>  <TPSA>  (87) 
90.15

>  <cid>  (87) 
229

>  <dipole>  (87) 
3.09

>  <excitation_energy_1>  (87) 
6.198

>  <excitation_energy_2>  (87) 
6.458

>  <excitation_energy_3>  (87) 
6.761

>  <excitation_energy_4>  (87) 
6.858

>  <homo_energy>  (87) 
-7.048

>  <homo_lumo_gap>  (87) 
8.218

>  <logP>  (87) 
-2.582

>  <lumo_energy>  (87) 
1.17

>  <melting_point>  (87) 
62.2

>  <molecular_refractivity>  (87) 
29.77

>  <oscillator_strength_1>  (87) 
0.0071

>  <oscillator_strength_2>  (87) 
0.0001

>  <oscillator_strength_3>  (87) 
0.026

>  <oscillator_strength_4>  (87) 
0.0056

>  <open_babel_can_smiles>  (87) 
O[C@@H]1CO[C@@H]([C@@H]([C@@H]1O)O)O

>  <mulliken_charges>  (87) 
20
1   -0.069194
2   0.101622
3   0.109134
4   0.054557
5   0.332162
6   -0.642125
7   -0.624659
8   -0.663203
9   -0.607523
10   -0.470468
11   0.132204
12   0.146941
13   0.1382
14   0.139908
15   0.159325
16   0.120422
17   0.406348
18   0.406213
19   0.422934
20   0.407203

>  <lowdin_charges>  (87) 
20
1   -0.151819
2   -0.035934
3   -0.03084
4   -0.051213
5   0.077006
6   -0.46132
7   -0.44425
8   -0.473288
9   -0.415224
10   -0.279058
11   0.134181
12   0.151339
13   0.144203
14   0.149514
15   0.161132
16   0.128493
17   0.353129
18   0.348029
19   0.347475
20   0.348445

$$$$
PCCDB-ID:  236
     RDKit          3D

 17 16  0  0  1  0  0  0  0  0999 V2000
    0.6758    0.2940    0.5416 C   0  0  0  0  0  0  0  0  0  0  0  0
    0.0996   -0.8027    1.4693 C   0  0  1  0  0  0  0  0  0  0  0  0
    0.0259    1.6736    0.6733 C   0  0  0  0  0  0  0  0  0  0  0  0
    0.7446   -0.7865    2.8670 C   0  0  0  0  0  0  0  0  0  0  0  0
   -1.3606   -0.6973    1.5421 N   0  0  0  0  0  0  0  0  0  0  0  0
   -0.4844    2.3513   -0.2732 N   0  0  0  0  0  0  0  0  0  0  0  0
   -0.0060    2.1981    1.9207 O   0  0  0  0  0  0  0  0  0  0  0  0
    1.1125    0.2171    3.4456 O   0  0  0  0  0  0  0  0  0  0  0  0
    0.8231   -1.9742    3.5064 O   0  0  0  0  0  0  0  0  0  0  0  0
    0.5421   -0.0410   -0.4897 H   0  0  0  0  0  0  0  0  0  0  0  0
    1.7552    0.3833    0.7207 H   0  0  0  0  0  0  0  0  0  0  0  0
    0.3311   -1.7731    1.0072 H   0  0  0  0  0  0  0  0  0  0  0  0
   -1.6246    0.2014    1.9450 H   0  0  0  0  0  0  0  0  0  0  0  0
   -1.7611   -1.4264    2.1294 H   0  0  0  0  0  0  0  0  0  0  0  0
   -0.4330    1.8275   -1.1474 H   0  0  0  0  0  0  0  0  0  0  0  0
    0.5162    1.6401    2.5385 H   0  0  0  0  0  0  0  0  0  0  0  0
    0.5549   -2.6967    2.9143 H   0  0  0  0  0  0  0  0  0  0  0  0
  1  3  1  0
  1 11  1  0
  1  2  1  0
  2 12  1  6
  2  5  1  0
  2  4  1  0
  3  7  1  0
  4  8  2  0
  4  9  1  0
  5 13  1  0
  5 14  1  0
  6  3  2  0
  7 16  1  0
 10  1  1  0
 15  6  1  0
 17  9  1  0
M  END
>  <HBA>  (88) 
5

>  <HBD>  (88) 
3

>  <TPSA>  (88) 
106.41

>  <cid>  (88) 
236

>  <dipole>  (88) 
6.64

>  <excitation_energy_1>  (88) 
5.053

>  <excitation_energy_2>  (88) 
5.311

>  <excitation_energy_3>  (88) 
5.375

>  <excitation_energy_4>  (88) 
5.493

>  <homo_energy>  (88) 
-6.944

>  <homo_lumo_gap>  (88) 
6.104

>  <logP>  (88) 
-0.326

>  <lumo_energy>  (88) 
-0.841

>  <melting_point>  (88) 
181.81

>  <molecular_refractivity>  (88) 
28.73

>  <oscillator_strength_1>  (88) 
0.021

>  <oscillator_strength_2>  (88) 
0.0066

>  <oscillator_strength_3>  (88) 
0.0067

>  <oscillator_strength_4>  (88) 
0.0015

>  <open_babel_can_smiles>  (88) 
OC(=N)C[C@@H](C(=O)O)N

>  <mulliken_charges>  (88) 
17
1   -0.351732
2   -0.099895
3   0.463601
4   0.609816
5   -0.695088
6   -0.576427
7   -0.60654
8   -0.461336
9   -0.552201
10   0.164461
11   0.17845
12   0.144975
13   0.33734
14   0.305001
15   0.279957
16   0.44112
17   0.418497

>  <lowdin_charges>  (88) 
17
1   -0.308501
2   -0.104228
3   0.121406
4   0.187335
5   -0.529003
6   -0.396721
7   -0.386499
8   -0.251088
9   -0.334949
10   0.167487
11   0.168619
12   0.149495
13   0.277023
14   0.262637
15   0.253984
16   0.357855
17   0.365149

$$$$
PCCDB-ID:  239
     RDKit          3D

 13 12  0  0  0  0  0  0  0  0999 V2000
    1.2757    0.2769    0.2567 C   0  0  0  0  0  0  0  0  0  0  0  0
    0.6108    1.3212    1.1640 C   0  0  0  0  0  0  0  0  0  0  0  0
    2.7906    0.4451    0.0631 C   0  0  0  0  0  0  0  0  0  0  0  0
    1.1811    1.2490    2.5262 N   0  0  0  0  0  0  0  0  0  0  0  0
    3.3385    0.1792   -0.9817 O   0  0  0  0  0  0  0  0  0  0  0  0
    3.4736    0.8766    1.1368 O   0  0  0  0  0  0  0  0  0  0  0  0
    0.8216    0.2913   -0.7374 H   0  0  0  0  0  0  0  0  0  0  0  0
    1.1005   -0.7288    0.6674 H   0  0  0  0  0  0  0  0  0  0  0  0
   -0.4802    1.1834    1.1496 H   0  0  0  0  0  0  0  0  0  0  0  0
    0.8134    2.3271    0.7798 H   0  0  0  0  0  0  0  0  0  0  0  0
    0.8345    0.4251    3.0159 H   0  0  0  0  0  0  0  0  0  0  0  0
    0.9131    2.0601    3.0794 H   0  0  0  0  0  0  0  0  0  0  0  0
    2.8291    1.0525    1.8793 H   0  0  0  0  0  0  0  0  0  0  0  0
  1  8  1  0
  1  2  1  0
  2  4  1  0
  3  1  1  0
  3  6  1  0
  4 11  1  0
  4 12  1  0
  5  3  2  0
  6 13  1  0
  7  1  1  0
  9  2  1  0
 10  2  1  0
M  END
>  <HBA>  (89) 
3

>  <HBD>  (89) 
2

>  <TPSA>  (89) 
63.32

>  <cid>  (89) 
239

>  <dipole>  (89) 
6.66

>  <excitation_energy_1>  (89) 
5.559

>  <excitation_energy_2>  (89) 
6.116

>  <excitation_energy_3>  (89) 
6.36

>  <excitation_energy_4>  (89) 
6.827

>  <homo_energy>  (89) 
-6.729

>  <homo_lumo_gap>  (89) 
7.461

>  <logP>  (89) 
0.12

>  <lumo_energy>  (89) 
0.732

>  <melting_point>  (89) 
106.84

>  <molecular_refractivity>  (89) 
21.01

>  <oscillator_strength_1>  (89) 
0.0016

>  <oscillator_strength_2>  (89) 
0.001

>  <oscillator_strength_3>  (89) 
0.0142

>  <oscillator_strength_4>  (89) 
0.0021

>  <open_babel_can_smiles>  (89) 
NCCC(=O)O

>  <mulliken_charges>  (89) 
13
1   -0.372943
2   -0.163268
3   0.585389
4   -0.759996
5   -0.459779
6   -0.591469
7   0.181072
8   0.166723
9   0.148524
10   0.170945
11   0.322448
12   0.328209
13   0.444144

>  <lowdin_charges>  (89) 
13
1   -0.324436
2   -0.20511
3   0.184365
4   -0.543489
5   -0.262896
6   -0.379104
7   0.175655
8   0.163839
9   0.138848
10   0.155578
11   0.269367
12   0.274244
13   0.353138

$$$$
PCCDB-ID:  241
     RDKit          3D

 12 12  0  0  0  0  0  0  0  0999 V2000
   -0.7610    1.1707   -0.0003 C   0  0  0  0  0  0  0  0  0  0  0  0
   -1.3926   -0.0750   -0.0001 C   0  0  0  0  0  0  0  0  0  0  0  0
    0.6335    1.2464   -0.0002 C   0  0  0  0  0  0  0  0  0  0  0  0
   -0.6296   -1.2448    0.0014 C   0  0  0  0  0  0  0  0  0  0  0  0
    1.3965    0.0766    0.0014 C   0  0  0  0  0  0  0  0  0  0  0  0
    0.7649   -1.1691    0.0015 C   0  0  0  0  0  0  0  0  0  0  0  0
   -1.3549    2.0811   -0.0013 H   0  0  0  0  0  0  0  0  0  0  0  0
   -2.4780   -0.1341    0.0002 H   0  0  0  0  0  0  0  0  0  0  0  0
    1.1252    2.2159    0.0000 H   0  0  0  0  0  0  0  0  0  0  0  0
   -1.1213   -2.2143    0.0017 H   0  0  0  0  0  0  0  0  0  0  0  0
    2.4819    0.1358    0.0015 H   0  0  0  0  0  0  0  0  0  0  0  0
    1.3588   -2.0795    0.0029 H   0  0  0  0  0  0  0  0  0  0  0  0
  1  3  2  0
  1  2  1  0
  2  8  1  0
  2  4  2  0
  3  9  1  0
  3  5  1  0
  4  6  1  0
  4 10  1  0
  5  6  2  0
  5 11  1  0
  6 12  1  0
  7  1  1  0
M  END
>  <HBA>  (90) 
0

>  <HBD>  (90) 
0

>  <TPSA>  (90) 
0.0

>  <cid>  (90) 
241

>  <dipole>  (90) 
0.0

>  <excitation_energy_1>  (90) 
5.41

>  <excitation_energy_2>  (90) 
6.077

>  <excitation_energy_3>  (90) 
6.349

>  <excitation_energy_4>  (90) 
6.35

>  <homo_energy>  (90) 
-6.702

>  <homo_lumo_gap>  (90) 
6.8

>  <logP>  (90) 
1.687

>  <lumo_energy>  (90) 
0.098

>  <melting_point>  (90) 
2.31

>  <molecular_refractivity>  (90) 
26.44

>  <oscillator_strength_1>  (90) 
0.0

>  <oscillator_strength_2>  (90) 
0.0

>  <oscillator_strength_3>  (90) 
0.0

>  <oscillator_strength_4>  (90) 
0.0

>  <open_babel_can_smiles>  (90) 
c1ccccc1

>  <mulliken_charges>  (90) 
12
1   -0.128563
2   -0.128576
3   -0.128537
4   -0.128538
5   -0.128514
6   -0.128653
7   0.128602
8   0.128562
9   0.12852
10   0.128546
11   0.12855
12   0.1286

>  <lowdin_charges>  (90) 
12
1   -0.157693
2   -0.154119
3   -0.156921
4   -0.156921
5   -0.154117
6   -0.1577
7   0.157299
8   0.154738
9   0.156697
10   0.156698
11   0.154738
12   0.157301

$$$$
PCCDB-ID:  243
     RDKit          3D

 15 15  0  0  0  0  0  0  0  0999 V2000
   -1.4236   -0.0944    0.0229 C   0  0  0  0  0  0  0  0  0  0  0  0
   -0.8292    1.1682    0.0515 C   0  0  0  0  0  0  0  0  0  0  0  0
   -0.6281   -1.2394   -0.0758 C   0  0  0  0  0  0  0  0  0  0  0  0
    0.5594    1.2858   -0.0033 C   0  0  0  0  0  0  0  0  0  0  0  0
    0.7577   -1.1228   -0.1417 C   0  0  0  0  0  0  0  0  0  0  0  0
    1.3635    0.1401   -0.0910 C   0  0  0  0  0  0  0  0  0  0  0  0
    2.8603    0.1968   -0.1685 C   0  0  0  0  0  0  0  0  0  0  0  0
    3.5374   -0.6946   -0.6228 O   0  0  0  0  0  0  0  0  0  0  0  0
    3.4562    1.3256    0.3072 O   0  0  0  0  0  0  0  0  0  0  0  0
   -2.5054   -0.1856    0.0690 H   0  0  0  0  0  0  0  0  0  0  0  0
   -1.4450    2.0613    0.1082 H   0  0  0  0  0  0  0  0  0  0  0  0
   -1.0899   -2.2222   -0.1064 H   0  0  0  0  0  0  0  0  0  0  0  0
    1.0027    2.2793   -0.0205 H   0  0  0  0  0  0  0  0  0  0  0  0
    1.3930   -1.9978   -0.2307 H   0  0  0  0  0  0  0  0  0  0  0  0
    2.8066    1.8696    0.7810 H   0  0  0  0  0  0  0  0  0  0  0  0
  1  2  2  0
  1 10  1  0
  2 11  1  0
  3  1  1  0
  4  2  1  0
  5  6  1  0
  5  3  2  0
  6  4  2  0
  7  6  1  0
  7  9  1  0
  8  7  2  0
  9 15  1  0
 12  3  1  0
 13  4  1  0
 14  5  1  0
M  END
>  <HBA>  (91) 
2

>  <HBD>  (91) 
1

>  <TPSA>  (91) 
37.3

>  <cid>  (91) 
243

>  <dipole>  (91) 
4.78

>  <excitation_energy_1>  (91) 
4.708

>  <excitation_energy_2>  (91) 
5.02

>  <excitation_energy_3>  (91) 
5.527

>  <excitation_energy_4>  (91) 
5.95

>  <homo_energy>  (91) 
-7.214

>  <homo_lumo_gap>  (91) 
5.826

>  <logP>  (91) 
1.385

>  <lumo_energy>  (91) 
-1.388

>  <melting_point>  (91) 
94.64

>  <molecular_refractivity>  (91) 
33.4

>  <oscillator_strength_1>  (91) 
0.0095

>  <oscillator_strength_2>  (91) 
0.0141

>  <oscillator_strength_3>  (91) 
0.1498

>  <oscillator_strength_4>  (91) 
0.0234

>  <open_babel_can_smiles>  (91) 
OC(=O)c1ccccc1

>  <mulliken_charges>  (91) 
15
1   -0.118899
2   -0.131488
3   -0.133373
4   -0.197259
5   -0.149934
6   0.055338
7   0.547206
8   -0.444153
9   -0.573919
10   0.143215
11   0.142444
12   0.145103
13   0.134634
14   0.170575
15   0.410509

>  <lowdin_charges>  (91) 
15
1   -0.136243
2   -0.152428
3   -0.148904
4   -0.164378
5   -0.127719
6   -0.05613
7   0.19626
8   -0.239739
9   -0.358919
10   0.162389
11   0.164618
12   0.164974
13   0.156688
14   0.181021
15   0.35851

$$$$
PCCDB-ID:  244
     RDKit          3D

 16 16  0  0  0  0  0  0  0  0999 V2000
   -1.4538    0.0065   -0.0332 C   0  0  0  0  0  0  0  0  0  0  0  0
   -0.7395    1.1942    0.1410 C   0  0  0  0  0  0  0  0  0  0  0  0
   -0.7644   -1.1966   -0.1936 C   0  0  0  0  0  0  0  0  0  0  0  0
    0.6553    1.1796    0.1491 C   0  0  0  0  0  0  0  0  0  0  0  0
    0.6313   -1.2096   -0.1781 C   0  0  0  0  0  0  0  0  0  0  0  0
    2.8720   -0.0308   -0.0300 C   0  0  0  0  0  0  0  0  0  0  0  0
    1.3551   -0.0231   -0.0130 C   0  0  0  0  0  0  0  0  0  0  0  0
    3.4582    0.9360    0.8338 O   0  0  0  0  0  0  0  0  0  0  0  0
   -2.5405    0.0183   -0.0385 H   0  0  0  0  0  0  0  0  0  0  0  0
   -1.2705    2.1341    0.2691 H   0  0  0  0  0  0  0  0  0  0  0  0
   -1.3126   -2.1264   -0.3218 H   0  0  0  0  0  0  0  0  0  0  0  0
    1.2163    2.0993    0.2884 H   0  0  0  0  0  0  0  0  0  0  0  0
    1.1641   -2.1517   -0.2929 H   0  0  0  0  0  0  0  0  0  0  0  0
    3.2429    0.2266   -1.0295 H   0  0  0  0  0  0  0  0  0  0  0  0
    3.2395   -1.0453    0.1942 H   0  0  0  0  0  0  0  0  0  0  0  0
    3.1140    0.7692    1.7258 H   0  0  0  0  0  0  0  0  0  0  0  0
  1  2  2  0
  2  4  1  0
  2 10  1  0
  3  5  2  0
  3  1  1  0
  4 12  1  0
  5  7  1  0
  6  7  1  0
  6 15  1  0
  6  8  1  0
  7  4  2  0
  8 16  1  0
  9  1  1  0
 11  3  1  0
 13  5  1  0
 14  6  1  0
M  END
>  <HBA>  (92) 
1

>  <HBD>  (92) 
1

>  <TPSA>  (92) 
20.23

>  <cid>  (92) 
244

>  <dipole>  (92) 
1.53

>  <excitation_energy_1>  (92) 
5.273

>  <excitation_energy_2>  (92) 
5.804

>  <excitation_energy_3>  (92) 
6.141

>  <excitation_energy_4>  (92) 
6.327

>  <homo_energy>  (92) 
-6.577

>  <homo_lumo_gap>  (92) 
6.476

>  <logP>  (92) 
1.179

>  <lumo_energy>  (92) 
-0.101

>  <melting_point>  (92) 
25.77

>  <molecular_refractivity>  (92) 
32.57

>  <oscillator_strength_1>  (92) 
0.0002

>  <oscillator_strength_2>  (92) 
0.0553

>  <oscillator_strength_3>  (92) 
0.0096

>  <oscillator_strength_4>  (92) 
0.0497

>  <open_babel_can_smiles>  (92) 
OCc1ccccc1

>  <mulliken_charges>  (92) 
16
1   -0.128966
2   -0.128901
3   -0.12803
4   -0.173626
5   -0.181178
6   -0.091547
7   0.102441
8   -0.60895
9   0.129462
10   0.130497
11   0.129768
12   0.142951
13   0.123268
14   0.165062
15   0.128947
16   0.388802

>  <lowdin_charges>  (92) 
16
1   -0.155817
2   -0.154463
3   -0.155445
4   -0.164353
5   -0.167897
6   -0.131469
7   -0.031952
8   -0.460005
9   0.155463
10   0.157878
11   0.157859
12   0.164901
13   0.154462
14   0.157193
15   0.131598
16   0.342046

$$$$
PCCDB-ID:  261
     RDKit          3D

 13 12  0  0  0  0  0  0  0  0999 V2000
    0.9795   -0.2547    0.2224 C   0  0  0  0  0  0  0  0  0  0  0  0
    2.4682    0.0558    0.0416 C   0  0  0  0  0  0  0  0  0  0  0  0
    2.7144    1.2912   -0.8255 C   0  0  0  0  0  0  0  0  0  0  0  0
    4.1725    1.6417   -1.0145 C   0  0  0  0  0  0  0  0  0  0  0  0
    5.1003    1.0254   -0.5375 O   0  0  0  0  0  0  0  0  0  0  0  0
    0.8362   -1.1483    0.8400 H   0  0  0  0  0  0  0  0  0  0  0  0
    0.4880   -0.4349   -0.7417 H   0  0  0  0  0  0  0  0  0  0  0  0
    0.4539    0.5749    0.7114 H   0  0  0  0  0  0  0  0  0  0  0  0
    2.9806   -0.8025   -0.4091 H   0  0  0  0  0  0  0  0  0  0  0  0
    2.9439    0.2067    1.0179 H   0  0  0  0  0  0  0  0  0  0  0  0
    2.2160    2.1815   -0.4079 H   0  0  0  0  0  0  0  0  0  0  0  0
    2.2745    1.1724   -1.8293 H   0  0  0  0  0  0  0  0  0  0  0  0
    4.3581    2.5410   -1.6466 H   0  0  0  0  0  0  0  0  0  0  0  0
  1  8  1  0
  1  6  1  0
  2  1  1  0
  2 10  1  0
  3 11  1  0
  3  2  1  0
  4  3  1  0
  4  5  2  0
  7  1  1  0
  9  2  1  0
 12  3  1  0
 13  4  1  0
M  END
>  <HBA>  (93) 
1

>  <HBD>  (93) 
0

>  <TPSA>  (93) 
17.07

>  <cid>  (93) 
261

>  <dipole>  (93) 
2.5

>  <excitation_energy_1>  (93) 
4.333

>  <excitation_energy_2>  (93) 
6.56

>  <excitation_energy_3>  (93) 
6.921

>  <excitation_energy_4>  (93) 
7.216

>  <homo_energy>  (93) 
-6.868

>  <homo_lumo_gap>  (93) 
6.357

>  <logP>  (93) 
0.985

>  <lumo_energy>  (93) 
-0.512

>  <melting_point>  (93) 
6.49

>  <molecular_refractivity>  (93) 
21.54

>  <oscillator_strength_1>  (93) 
0.0002

>  <oscillator_strength_2>  (93) 
0.0255

>  <oscillator_strength_3>  (93) 
0.0606

>  <oscillator_strength_4>  (93) 
0.0045

>  <open_babel_can_smiles>  (93) 
CCCC=O

>  <mulliken_charges>  (93) 
13
1   -0.446458
2   -0.242837
3   -0.342202
4   0.252109
5   -0.382146
6   0.149687
7   0.141886
8   0.14206
9   0.152402
10   0.153057
11   0.159864
12   0.159879
13   0.1027

>  <lowdin_charges>  (93) 
13
1   -0.445808
2   -0.269994
3   -0.313801
4   0.057609
5   -0.220263
6   0.153763
7   0.146404
8   0.14757
9   0.153004
10   0.152171
11   0.163237
12   0.162066
13   0.114043

$$$$
PCCDB-ID:  262
     RDKit          3D

 16 15  0  0  1  0  0  0  0  0999 V2000
    0.9954   -0.0575   -0.1370 C   0  0  0  0  0  0  0  0  0  0  0  0
    4.5830    0.4318    1.3525 C   0  0  0  0  0  0  0  0  0  0  0  0
    2.5213   -0.0497   -0.0765 C   0  0  1  0  0  0  0  0  0  0  0  0
    3.0572    0.4240    1.2920 C   0  0  2  0  0  0  0  0  0  0  0  0
    3.0645   -1.3272   -0.4231 O   0  0  0  0  0  0  0  0  0  0  0  0
    2.5140    1.7016    1.6385 O   0  0  0  0  0  0  0  0  0  0  0  0
    0.5898    0.9314    0.0922 H   0  0  0  0  0  0  0  0  0  0  0  0
    0.5857   -0.7611    0.6019 H   0  0  0  0  0  0  0  0  0  0  0  0
    0.6545   -0.3673   -1.1299 H   0  0  0  0  0  0  0  0  0  0  0  0
    4.9886   -0.5572    1.1231 H   0  0  0  0  0  0  0  0  0  0  0  0
    4.9239    0.7412    2.3455 H   0  0  0  0  0  0  0  0  0  0  0  0
    4.9928    1.1355    0.6139 H   0  0  0  0  0  0  0  0  0  0  0  0
    2.9138    0.6307   -0.8458 H   0  0  0  0  0  0  0  0  0  0  0  0
    2.6646   -0.2563    2.0613 H   0  0  0  0  0  0  0  0  0  0  0  0
    2.6239   -1.9867    0.1373 H   0  0  0  0  0  0  0  0  0  0  0  0
    2.9548    2.3611    1.0783 H   0  0  0  0  0  0  0  0  0  0  0  0
  1  3  1  0
  1  7  1  0
  1  8  1  0
  2 11  1  0
  3 13  1  6
  3  4  1  0
  4  2  1  0
  4  6  1  0
  4 14  1  1
  5  3  1  0
  5 15  1  0
  9  1  1  0
 10  2  1  0
 12  2  1  0
 16  6  1  0
M  END
>  <HBA>  (94) 
2

>  <HBD>  (94) 
2

>  <TPSA>  (94) 
40.46

>  <cid>  (94) 
262

>  <dipole>  (94) 
0.0

>  <excitation_energy_1>  (94) 
6.338

>  <excitation_energy_2>  (94) 
6.432

>  <excitation_energy_3>  (94) 
7.145

>  <excitation_energy_4>  (94) 
7.167

>  <homo_energy>  (94) 
-6.77

>  <homo_lumo_gap>  (94) 
8.672

>  <logP>  (94) 
-0.252

>  <lumo_energy>  (94) 
1.902

>  <melting_point>  (94) 
12.0

>  <molecular_refractivity>  (94) 
23.67

>  <oscillator_strength_1>  (94) 
0.0143

>  <oscillator_strength_2>  (94) 
0.0

>  <oscillator_strength_3>  (94) 
0.016

>  <oscillator_strength_4>  (94) 
0.0236

>  <open_babel_can_smiles>  (94) 
C[C@H]([C@@H](O)C)O

>  <mulliken_charges>  (94) 
16
1   -0.459034
2   -0.459079
3   0.124959
4   0.124906
5   -0.619677
6   -0.619675
7   0.165339
8   0.129256
9   0.154257
10   0.165349
11   0.154263
12   0.129259
13   0.120666
14   0.120666
15   0.384272
16   0.384274

>  <lowdin_charges>  (94) 
16
1   -0.46171
2   -0.461719
3   -0.017537
4   -0.017537
5   -0.463496
6   -0.463499
7   0.16488
8   0.144096
9   0.155947
10   0.164883
11   0.155947
12   0.144097
13   0.137103
14   0.1371
15   0.340723
16   0.340724

$$$$
PCCDB-ID:  263
     RDKit          3D

 15 14  0  0  0  0  0  0  0  0999 V2000
    1.0967   -0.0789    0.1066 C   0  0  0  0  0  0  0  0  0  0  0  0
    2.6226   -0.0861   -0.0318 C   0  0  0  0  0  0  0  0  0  0  0  0
    3.1206    0.6945   -1.2549 C   0  0  0  0  0  0  0  0  0  0  0  0
    4.6426    0.6773   -1.4036 C   0  0  0  0  0  0  0  0  0  0  0  0
    5.1043    1.4503   -2.5067 O   0  0  0  0  0  0  0  0  0  0  0  0
    0.7737   -0.6427    0.9891 H   0  0  0  0  0  0  0  0  0  0  0  0
    0.6170   -0.5293   -0.7710 H   0  0  0  0  0  0  0  0  0  0  0  0
    0.7130    0.9438    0.2051 H   0  0  0  0  0  0  0  0  0  0  0  0
    2.9788   -1.1245   -0.0914 H   0  0  0  0  0  0  0  0  0  0  0  0
    3.0740    0.3379    0.8763 H   0  0  0  0  0  0  0  0  0  0  0  0
    2.7878    1.7396   -1.1991 H   0  0  0  0  0  0  0  0  0  0  0  0
    2.6665    0.2719   -2.1655 H   0  0  0  0  0  0  0  0  0  0  0  0
    5.0031   -0.3634   -1.4710 H   0  0  0  0  0  0  0  0  0  0  0  0
    5.1133    1.1234   -0.5205 H   0  0  0  0  0  0  0  0  0  0  0  0
    4.7258    1.0615   -3.3106 H   0  0  0  0  0  0  0  0  0  0  0  0
  1  8  1  0
  1  6  1  0
  2  1  1  0
  2 10  1  0
  3 11  1  0
  3  2  1  0
  4  3  1  0
  4 14  1  0
  5  4  1  0
  7  1  1  0
  9  2  1  0
 12  3  1  0
 13  4  1  0
 15  5  1  0
M  END
>  <HBA>  (95) 
1

>  <HBD>  (95) 
1

>  <TPSA>  (95) 
20.23

>  <cid>  (95) 
263

>  <dipole>  (95) 
1.72

>  <excitation_energy_1>  (95) 
6.45

>  <excitation_energy_2>  (95) 
7.24

>  <excitation_energy_3>  (95) 
7.381

>  <excitation_energy_4>  (95) 
7.606

>  <homo_energy>  (95) 
-7.075

>  <homo_lumo_gap>  (95) 
9.176

>  <logP>  (95) 
0.779

>  <lumo_energy>  (95) 
2.101

>  <melting_point>  (95) 
-6.62

>  <molecular_refractivity>  (95) 
22.5

>  <oscillator_strength_1>  (95) 
0.0089

>  <oscillator_strength_2>  (95) 
0.0165

>  <oscillator_strength_3>  (95) 
0.0193

>  <oscillator_strength_4>  (95) 
0.0205

>  <open_babel_can_smiles>  (95) 
CCCCO

>  <mulliken_charges>  (95) 
15
1   -0.440003
2   -0.254651
3   -0.270524
4   -0.025904
5   -0.615785
6   0.143895
7   0.142003
8   0.144838
9   0.132277
10   0.135605
11   0.144749
12   0.118135
13   0.116088
14   0.144576
15   0.384701

>  <lowdin_charges>  (95) 
15
1   -0.44355
2   -0.271928
3   -0.293143
4   -0.134916
5   -0.469101
6   0.150946
7   0.147334
8   0.147326
9   0.138373
10   0.141883
11   0.145816
12   0.133445
13   0.121438
14   0.146032
15   0.340043

$$$$
PCCDB-ID:  264
     RDKit          3D

 14 13  0  0  0  0  0  0  0  0999 V2000
    0.9603   -0.2491    0.2634 C   0  0  0  0  0  0  0  0  0  0  0  0
    2.4631   -0.0435    0.0550 C   0  0  0  0  0  0  0  0  0  0  0  0
    2.7736    1.1549   -0.8446 C   0  0  0  0  0  0  0  0  0  0  0  0
    4.2671    1.3724   -1.0582 C   0  0  0  0  0  0  0  0  0  0  0  0
    5.1388    0.7060   -0.5615 O   0  0  0  0  0  0  0  0  0  0  0  0
    4.5919    2.4136   -1.8781 O   0  0  0  0  0  0  0  0  0  0  0  0
    0.7700   -1.1060    0.9185 H   0  0  0  0  0  0  0  0  0  0  0  0
    0.4446   -0.4371   -0.6866 H   0  0  0  0  0  0  0  0  0  0  0  0
    0.4942    0.6306    0.7245 H   0  0  0  0  0  0  0  0  0  0  0  0
    2.9112   -0.9415   -0.3852 H   0  0  0  0  0  0  0  0  0  0  0  0
    2.9646    0.0992    1.0186 H   0  0  0  0  0  0  0  0  0  0  0  0
    2.3497    2.0765   -0.4172 H   0  0  0  0  0  0  0  0  0  0  0  0
    2.2957    1.0325   -1.8285 H   0  0  0  0  0  0  0  0  0  0  0  0
    3.7839    2.8472   -2.1993 H   0  0  0  0  0  0  0  0  0  0  0  0
  1  9  1  0
  1  7  1  0
  2  1  1  0
  2 11  1  0
  3 12  1  0
  3  2  1  0
  4  3  1  0
  4  5  2  0
  6  4  1  0
  8  1  1  0
 10  2  1  0
 13  3  1  0
 14  6  1  0
M  END
>  <HBA>  (96) 
2

>  <HBD>  (96) 
1

>  <TPSA>  (96) 
37.3

>  <cid>  (96) 
264

>  <dipole>  (96) 
4.13

>  <excitation_energy_1>  (96) 
5.747

>  <excitation_energy_2>  (96) 
6.454

>  <excitation_energy_3>  (96) 
7.372

>  <excitation_energy_4>  (96) 
7.48

>  <homo_energy>  (96) 
-7.369

>  <homo_lumo_gap>  (96) 
7.69

>  <logP>  (96) 
0.871

>  <lumo_energy>  (96) 
0.321

>  <melting_point>  (96) 
51.92

>  <molecular_refractivity>  (96) 
23.11

>  <oscillator_strength_1>  (96) 
0.0004

>  <oscillator_strength_2>  (96) 
0.015

>  <oscillator_strength_3>  (96) 
0.0154

>  <oscillator_strength_4>  (96) 
0.0037

>  <open_babel_can_smiles>  (96) 
CCCC(=O)O

>  <mulliken_charges>  (96) 
14
1   -0.449595
2   -0.241091
3   -0.398206
4   0.605757
5   -0.43597
6   -0.568826
7   0.153199
8   0.142343
9   0.142229
10   0.15831
11   0.159582
12   0.163826
13   0.161113
14   0.407329

>  <lowdin_charges>  (96) 
14
1   -0.446716
2   -0.266885
3   -0.323532
4   0.198122
5   -0.236563
6   -0.363249
7   0.156288
8   0.146737
9   0.14736
10   0.155953
11   0.155878
12   0.160887
13   0.158648
14   0.357071

$$$$
PCCDB-ID:  266
     RDKit          3D

 19 18  0  0  0  0  0  0  0  0999 V2000
    0.8117    0.3140   -0.0113 C   0  0  0  0  0  0  0  0  0  0  0  0
    2.3264    0.1164    0.0934 C   0  0  0  0  0  0  0  0  0  0  0  0
    3.0913    1.0248   -0.8952 C   0  0  0  0  0  0  0  0  0  0  0  0
    4.5803    0.8372   -0.7906 C   0  0  0  0  0  0  0  0  0  0  0  0
    5.3488    1.6225   -0.2654 O   0  0  0  0  0  0  0  0  0  0  0  0
    6.7865   -1.7696   -2.4335 O   0  0  0  0  0  0  0  0  0  0  0  0
    7.4611    0.3357   -1.2646 O   0  0  0  0  0  0  0  0  0  0  0  0
    6.6080   -1.7585    0.1458 O   0  0  0  0  0  0  0  0  0  0  0  0
    4.9877   -0.3423   -1.3453 O   0  0  0  0  0  0  0  0  0  0  0  0
    6.5346   -0.9554   -1.0802 P   0  0  0  0  0  0  0  0  0  0  0  0
    0.2866   -0.3324    0.6998 H   0  0  0  0  0  0  0  0  0  0  0  0
    0.4479    0.0706   -1.0166 H   0  0  0  0  0  0  0  0  0  0  0  0
    0.5284    1.3505    0.2066 H   0  0  0  0  0  0  0  0  0  0  0  0
    2.5864   -0.9289   -0.1064 H   0  0  0  0  0  0  0  0  0  0  0  0
    2.6619    0.3373    1.1141 H   0  0  0  0  0  0  0  0  0  0  0  0
    2.8772    2.0777   -0.6918 H   0  0  0  0  0  0  0  0  0  0  0  0
    2.7809    0.7927   -1.9208 H   0  0  0  0  0  0  0  0  0  0  0  0
    6.9974   -1.1873   -3.1824 H   0  0  0  0  0  0  0  0  0  0  0  0
    7.0544    1.0811   -0.7583 H   0  0  0  0  0  0  0  0  0  0  0  0
  1  2  1  0
  1 13  1  0
  1 11  1  0
  2 15  1  0
  3  4  1  0
  3 16  1  0
  3  2  1  0
  4  5  2  0
  6 10  1  0
  7 10  1  0
  7 19  1  0
  9 10  1  0
  9  4  1  0
 10  8  2  0
 12  1  1  0
 14  2  1  0
 17  3  1  0
 18  6  1  0
M  END
>  <HBA>  (97) 
5

>  <HBD>  (97) 
2

>  <TPSA>  (97) 
93.64

>  <cid>  (97) 
266

>  <dipole>  (97) 
4.98

>  <excitation_energy_1>  (97) 
5.742

>  <excitation_energy_2>  (97) 
6.584

>  <excitation_energy_3>  (97) 
6.727

>  <excitation_energy_4>  (97) 
7.053

>  <homo_energy>  (97) 
-8.248

>  <homo_lumo_gap>  (97) 
7.358

>  <logP>  (97) 
0.422

>  <lumo_energy>  (97) 
-0.89

>  <melting_point>  (97) 
75.88

>  <molecular_refractivity>  (97) 
33.61

>  <oscillator_strength_1>  (97) 
0.003

>  <oscillator_strength_2>  (97) 
0.0338

>  <oscillator_strength_3>  (97) 
0.0102

>  <oscillator_strength_4>  (97) 
0.0123

>  <open_babel_can_smiles>  (97) 
CCCC(=O)OP(=O)(O)O

>  <mulliken_charges>  (97) 
19
1   -0.445379
2   -0.27007
3   -0.326492
4   0.614031
5   -0.483449
6   -0.608018
7   -0.669299
8   -0.490955
9   -0.521611
10   1.155872
11   0.15881
12   0.149475
13   0.150357
14   0.172046
15   0.161416
16   0.175512
17   0.172741
18   0.443939
19   0.461072

>  <lowdin_charges>  (97) 
19
1   -0.442221
2   -0.263992
3   -0.288246
4   0.233333
5   -0.261337
6   -0.539723
7   -0.577072
8   -0.539457
9   -0.343003
10   1.135792
11   0.160487
12   0.150121
13   0.150069
14   0.158057
15   0.153621
16   0.168978
17   0.169716
18   0.39005
19   0.384825

$$$$
PCCDB-ID:  273
     RDKit          3D

 21 20  0  0  0  0  0  0  0  0999 V2000
    1.4366   -0.3495   -0.9713 C   0  0  0  0  0  0  0  0  0  0  0  0
    1.0234   -1.4745   -1.9316 C   0  0  0  0  0  0  0  0  0  0  0  0
    2.8542   -0.4887   -0.3880 C   0  0  0  0  0  0  0  0  0  0  0  0
   -0.3828   -1.3047   -2.5182 C   0  0  0  0  0  0  0  0  0  0  0  0
    3.9967   -0.4219   -1.4091 C   0  0  0  0  0  0  0  0  0  0  0  0
   -1.4153   -1.3731   -1.4755 N   0  0  0  0  0  0  0  0  0  0  0  0
    4.0167    0.8729   -2.1048 N   0  0  0  0  0  0  0  0  0  0  0  0
    0.7307   -0.3201   -0.1308 H   0  0  0  0  0  0  0  0  0  0  0  0
    1.3448    0.6233   -1.4776 H   0  0  0  0  0  0  0  0  0  0  0  0
    1.0685   -2.4376   -1.4064 H   0  0  0  0  0  0  0  0  0  0  0  0
    1.7337   -1.5329   -2.7682 H   0  0  0  0  0  0  0  0  0  0  0  0
    2.9278   -1.4427    0.1531 H   0  0  0  0  0  0  0  0  0  0  0  0
    3.0111    0.3101    0.3474 H   0  0  0  0  0  0  0  0  0  0  0  0
   -0.5736   -2.1263   -3.2194 H   0  0  0  0  0  0  0  0  0  0  0  0
   -0.4122   -0.3716   -3.1134 H   0  0  0  0  0  0  0  0  0  0  0  0
    3.9405   -1.2910   -2.0894 H   0  0  0  0  0  0  0  0  0  0  0  0
    4.9467   -0.5170   -0.8691 H   0  0  0  0  0  0  0  0  0  0  0  0
   -1.3987   -0.5217   -0.9167 H   0  0  0  0  0  0  0  0  0  0  0  0
   -2.3367   -1.3998   -1.9090 H   0  0  0  0  0  0  0  0  0  0  0  0
    3.2350    0.9241   -2.7564 H   0  0  0  0  0  0  0  0  0  0  0  0
    4.8562    0.9378   -2.6785 H   0  0  0  0  0  0  0  0  0  0  0  0
  1  3  1  0
  1  8  1  0
  2 10  1  0
  2  1  1  0
  3 12  1  0
  3 13  1  0
  4  2  1  0
  4  6  1  0
  5 17  1  0
  5  3  1  0
  6 18  1  0
  7  5  1  0
  9  1  1  0
 11  2  1  0
 14  4  1  0
 15  4  1  0
 16  5  1  0
 19  6  1  0
 20  7  1  0
 21  7  1  0
M  END
>  <HBA>  (98) 
2

>  <HBD>  (98) 
2

>  <TPSA>  (98) 
52.04

>  <cid>  (98) 
273

>  <dipole>  (98) 
1.68

>  <excitation_energy_1>  (98) 
5.577

>  <excitation_energy_2>  (98) 
5.625

>  <excitation_energy_3>  (98) 
6.172

>  <excitation_energy_4>  (98) 
6.207

>  <homo_energy>  (98) 
-6.223

>  <homo_lumo_gap>  (98) 
8.052

>  <logP>  (98) 
1.475

>  <lumo_energy>  (98) 
1.829

>  <melting_point>  (98) 
82.6

>  <molecular_refractivity>  (98) 
31.56

>  <oscillator_strength_1>  (98) 
0.0119

>  <oscillator_strength_2>  (98) 
0.0086

>  <oscillator_strength_3>  (98) 
0.0274

>  <oscillator_strength_4>  (98) 
0.0035

>  <open_babel_can_smiles>  (98) 
NCCCCCN

>  <mulliken_charges>  (98) 
21
1   -0.276919
2   -0.241002
3   -0.240259
4   -0.13951
5   -0.143719
6   -0.716056
7   -0.716993
8   0.136427
9   0.128912
10   0.142967
11   0.122441
12   0.126212
13   0.141049
14   0.135939
15   0.10667
16   0.115486
17   0.137218
18   0.296842
19   0.295312
20   0.294398
21   0.294584

>  <lowdin_charges>  (98) 
21
1   -0.284402
2   -0.283428
3   -0.279465
4   -0.205287
5   -0.208322
6   -0.560306
7   -0.563368
8   0.145019
9   0.136227
10   0.147235
11   0.137981
12   0.141041
13   0.149623
14   0.143284
15   0.113389
16   0.116842
17   0.143348
18   0.251367
19   0.25392
20   0.250828
21   0.254473

$$$$
PCCDB-ID:  278
     RDKit          3D

 12 11  0  0  0  0  0  0  0  0999 V2000
    1.2236   -0.1523    0.3039 C   0  0  0  0  0  0  0  0  0  0  0  0
    0.7041    1.0151    0.2446 N   0  0  0  0  0  0  0  0  0  0  0  0
    0.6382   -1.3522    0.1555 O   0  0  0  0  0  0  0  0  0  0  0  0
    4.9237    0.4601    0.6100 O   0  0  0  0  0  0  0  0  0  0  0  0
    3.0975    2.1600    0.3305 O   0  0  0  0  0  0  0  0  0  0  0  0
    3.4053    0.8927    2.6539 O   0  0  0  0  0  0  0  0  0  0  0  0
    2.5351   -0.3390    0.5066 O   0  0  0  0  0  0  0  0  0  0  0  0
    3.4931    0.8759    1.1893 P   0  0  0  0  0  0  0  0  0  0  0  0
   -0.3028    1.0269    0.1051 H   0  0  0  0  0  0  0  0  0  0  0  0
   -0.3021   -1.2297   -0.0520 H   0  0  0  0  0  0  0  0  0  0  0  0
    5.0080    0.6534   -0.3386 H   0  0  0  0  0  0  0  0  0  0  0  0
    2.1002    2.1532    0.2323 H   0  0  0  0  0  0  0  0  0  0  0  0
  1  7  1  0
  2  1  2  0
  3  1  1  0
  4  8  1  0
  5  8  1  0
  7  8  1  0
  8  6  2  0
  9  2  1  0
 10  3  1  0
 11  4  1  0
 12  5  1  0
M  END
>  <HBA>  (99) 
6

>  <HBD>  (99) 
3

>  <TPSA>  (99) 
119.66

>  <cid>  (99) 
278

>  <dipole>  (99) 
6.43

>  <excitation_energy_1>  (99) 
6.388

>  <excitation_energy_2>  (99) 
6.753

>  <excitation_energy_3>  (99) 
6.924

>  <excitation_energy_4>  (99) 
7.13

>  <homo_energy>  (99) 
-8.008

>  <homo_lumo_gap>  (99) 
8.117

>  <logP>  (99) 
-0.125

>  <lumo_energy>  (99) 
0.109

>  <melting_point>  (99) 
142.46

>  <molecular_refractivity>  (99) 
22.29

>  <oscillator_strength_1>  (99) 
0.0036

>  <oscillator_strength_2>  (99) 
0.0022

>  <oscillator_strength_3>  (99) 
0.011

>  <oscillator_strength_4>  (99) 
0.0289

>  <open_babel_can_smiles>  (99) 
OC(=N)OP(=O)(O)O

>  <mulliken_charges>  (99) 
12
1   0.706113
2   -0.692437
3   -0.5383
4   -0.607424
5   -0.670654
6   -0.492401
7   -0.508648
8   1.167846
9   0.304901
10   0.421685
11   0.443247
12   0.466072

>  <lowdin_charges>  (99) 
12
1   0.221508
2   -0.466722
3   -0.324955
4   -0.536291
5   -0.579514
6   -0.539295
7   -0.317385
8   1.135133
9   0.271292
10   0.370086
11   0.387017
12   0.379125

$$$$
PCCDB-ID:  279
     RDKit          3D

 20 19  0  0  1  0  0  0  0  0999 V2000
    1.2767    0.0473    0.0829 C   0  0  0  0  0  0  0  0  0  0  0  0
    0.4374   -0.4401   -1.1136 C   0  0  1  0  0  0  0  0  0  0  0  0
    2.7873    0.1456   -0.1868 C   0  0  0  0  0  0  0  0  0  0  0  0
    0.6088   -1.9599   -1.3703 C   0  0  0  0  0  0  0  0  0  0  0  0
   -1.9325    0.1108   -1.8213 C   0  0  0  0  0  0  0  0  0  0  0  0
   -3.1416    0.4903   -1.7146 N   0  0  0  0  0  0  0  0  0  0  0  0
   -0.9713   -0.1172   -0.8679 N   0  0  0  0  0  0  0  0  0  0  0  0
    3.3453    1.2118   -0.2926 O   0  0  0  0  0  0  0  0  0  0  0  0
    3.4523   -1.0153   -0.2879 O   0  0  0  0  0  0  0  0  0  0  0  0
    1.3269   -2.6704   -0.6904 O   0  0  0  0  0  0  0  0  0  0  0  0
   -0.0935   -2.4725   -2.3783 O   0  0  0  0  0  0  0  0  0  0  0  0
   -1.4355   -0.1540   -3.0771 O   0  0  0  0  0  0  0  0  0  0  0  0
    1.0957   -0.6116    0.9413 H   0  0  0  0  0  0  0  0  0  0  0  0
    0.9508    1.0580    0.3348 H   0  0  0  0  0  0  0  0  0  0  0  0
    0.7465    0.0939   -2.0192 H   0  0  0  0  0  0  0  0  0  0  0  0
   -3.4111    0.7023   -0.7552 H   0  0  0  0  0  0  0  0  0  0  0  0
   -1.2828   -0.1240    0.0926 H   0  0  0  0  0  0  0  0  0  0  0  0
    2.8193   -1.7685   -0.2435 H   0  0  0  0  0  0  0  0  0  0  0  0
   -0.6126   -1.7724   -2.8349 H   0  0  0  0  0  0  0  0  0  0  0  0
   -2.1602    0.0692   -3.6902 H   0  0  0  0  0  0  0  0  0  0  0  0
  1 14  1  0
  1 13  1  0
  2 15  1  6
  2  7  1  0
  2  1  1  0
  3  1  1  0
  4  2  1  0
  4 10  2  0
  5  6  2  0
  5  7  1  0
  6 16  1  0
  7 17  1  0
  8  3  2  0
  9 18  1  0
  9  3  1  0
 11  4  1  0
 12  5  1  0
 19 11  1  0
 20 12  1  0
M  END
>  <HBA>  (100) 
7

>  <HBD>  (100) 
4

>  <TPSA>  (100) 
129.72

>  <cid>  (100) 
279

>  <dipole>  (100) 
5.06

>  <excitation_energy_1>  (100) 
5.099

>  <excitation_energy_2>  (100) 
5.471

>  <excitation_energy_3>  (100) 
5.723

>  <excitation_energy_4>  (100) 
5.769

>  <homo_energy>  (100) 
-7.116

>  <homo_lumo_gap>  (100) 
6.248

>  <logP>  (100) 
-0.326

>  <lumo_energy>  (100) 
-0.868

>  <melting_point>  (100) 
241.57

>  <molecular_refractivity>  (100) 
35.79

>  <oscillator_strength_1>  (100) 
0.0121

>  <oscillator_strength_2>  (100) 
0.0034

>  <oscillator_strength_3>  (100) 
0.0014

>  <oscillator_strength_4>  (100) 
0.0071

>  <open_babel_can_smiles>  (100) 
OC(=O)C[C@@H](C(=O)O)NC(=N)O

>  <mulliken_charges>  (100) 
20
1   -0.407685
2   -0.073543
3   0.582954
4   0.631621
5   0.672742
6   -0.638604
7   -0.629004
8   -0.443059
9   -0.579909
10   -0.477627
11   -0.566937
12   -0.629224
13   0.177837
14   0.191374
15   0.213665
16   0.291228
17   0.342607
18   0.447434
19   0.451964
20   0.442167

>  <lowdin_charges>  (100) 
20
1   -0.322271
2   -0.089947
3   0.18741
4   0.196762
5   0.160727
6   -0.458764
7   -0.291141
8   -0.248291
9   -0.357388
10   -0.265103
11   -0.328078
12   -0.389816
13   0.169672
14   0.180834
15   0.18382
16   0.265144
17   0.293525
18   0.363709
19   0.367023
20   0.382176

$$$$
PCCDB-ID:  281
     RDKit          3D

  2  1  0  0  0  0  0  0  0  0999 V2000
    0.9527   -0.0249   -0.0906 C   0  0  0  0  0  2  0  0  0  0  0  0
    2.0907   -0.0249   -0.0906 O   0  0  0  0  0  0  0  0  0  0  0  0
  1  2  2  0
M  RAD  1   1   3
M  END
>  <HBA>  (101) 
1

>  <HBD>  (101) 
0

>  <TPSA>  (101) 
0.0

>  <cid>  (101) 
281

>  <dipole>  (101) 
0.06

>  <excitation_energy_1>  (101) 
8.35

>  <excitation_energy_2>  (101) 
8.35

>  <excitation_energy_3>  (101) 
9.56

>  <excitation_energy_4>  (101) 
9.895

>  <homo_energy>  (101) 
-10.109

>  <homo_lumo_gap>  (101) 
9.516

>  <logP>  (101) 
-0.208

>  <lumo_energy>  (101) 
-0.593

>  <melting_point>  (101) 
34.22

>  <molecular_refractivity>  (101) 
4.07

>  <oscillator_strength_1>  (101) 
0.09

>  <oscillator_strength_2>  (101) 
0.09

>  <oscillator_strength_3>  (101) 
0.0

>  <oscillator_strength_4>  (101) 
0.0

>  <open_babel_can_smiles>  (101) 
[C]=O

>  <mulliken_charges>  (101) 
2
1   0.17441
2   -0.17441

>  <lowdin_charges>  (101) 
2
1   0.012661
2   -0.012661

$$$$
PCCDB-ID:  286
     RDKit          3D

 11 10  0  0  0  0  0  0  0  0999 V2000
    0.7981    0.4700   -0.2766 C   0  0  0  0  0  0  0  0  0  0  0  0
   -0.2236    1.1214   -1.2241 C   0  0  0  0  0  0  0  0  0  0  0  0
    2.7414    1.4098   -1.2130 N   0  0  0  0  0  0  0  0  0  0  0  0
   -1.3983    0.8487   -1.1535 O   0  0  0  0  0  0  0  0  0  0  0  0
    0.2599    2.0364   -2.0766 O   0  0  0  0  0  0  0  0  0  0  0  0
    2.0830    0.1825   -0.8326 O   0  0  0  0  0  0  0  0  0  0  0  0
    0.4044   -0.5012    0.0258 H   0  0  0  0  0  0  0  0  0  0  0  0
    0.8977    1.0996    0.6222 H   0  0  0  0  0  0  0  0  0  0  0  0
    3.3806    1.0947   -1.9436 H   0  0  0  0  0  0  0  0  0  0  0  0
    3.3271    1.6656   -0.4114 H   0  0  0  0  0  0  0  0  0  0  0  0
    1.2334    2.1279   -1.9121 H   0  0  0  0  0  0  0  0  0  0  0  0
  1  7  1  0
  1  8  1  0
  2  4  2  0
  2  1  1  0
  3  6  1  0
  3 10  1  0
  5 11  1  0
  5  2  1  0
  6  1  1  0
  9  3  1  0
M  END
>  <HBA>  (102) 
4

>  <HBD>  (102) 
2

>  <TPSA>  (102) 
72.55

>  <cid>  (102) 
286

>  <dipole>  (102) 
5.81

>  <excitation_energy_1>  (102) 
5.452

>  <excitation_energy_2>  (102) 
6.116

>  <excitation_energy_3>  (102) 
6.478

>  <excitation_energy_4>  (102) 
6.781

>  <homo_energy>  (102) 
-6.876

>  <homo_lumo_gap>  (102) 
7.244

>  <logP>  (102) 
-0.338

>  <lumo_energy>  (102) 
0.367

>  <melting_point>  (102) 
100.9

>  <molecular_refractivity>  (102) 
17.29

>  <oscillator_strength_1>  (102) 
0.0019

>  <oscillator_strength_2>  (102) 
0.0138

>  <oscillator_strength_3>  (102) 
0.0036

>  <oscillator_strength_4>  (102) 
0.003

>  <open_babel_can_smiles>  (102) 
NOCC(=O)O

>  <mulliken_charges>  (102) 
11
1   -0.132635
2   0.572834
3   -0.517529
4   -0.444891
5   -0.580084
6   -0.386295
7   0.19877
8   0.160595
9   0.351106
10   0.33568
11   0.442449

>  <lowdin_charges>  (102) 
11
1   -0.176475
2   0.171559
3   -0.390783
4   -0.248679
5   -0.361306
6   -0.234094
7   0.183703
8   0.154048
9   0.281834
10   0.269878
11   0.350315

$$$$
PCCDB-ID:  296
     RDKit          3D

 13 12  0  0  1  0  0  0  0  0999 V2000
    1.0727   -0.2087   -0.4823 C   0  0  0  0  0  0  0  0  0  0  0  0
    2.4131    1.3699    0.9826 C   0  0  0  0  0  0  0  0  0  0  0  0
    2.4068    0.0568    0.2203 C   0  0  1  0  0  0  0  0  0  0  0  0
    2.8715   -1.1616    1.0610 C   0  0  0  0  0  0  0  0  0  0  0  0
    3.2455    1.6745    1.8193 O   0  0  0  0  0  0  0  0  0  0  0  0
    2.4127   -2.2621    0.8792 O   0  0  0  0  0  0  0  0  0  0  0  0
    3.8482   -0.9302    1.9490 O   0  0  0  0  0  0  0  0  0  0  0  0
    0.8065    0.6278   -1.1376 H   0  0  0  0  0  0  0  0  0  0  0  0
    0.2675   -0.3515    0.2455 H   0  0  0  0  0  0  0  0  0  0  0  0
    1.1392   -1.1184   -1.0804 H   0  0  0  0  0  0  0  0  0  0  0  0
    1.6096    2.0862    0.7195 H   0  0  0  0  0  0  0  0  0  0  0  0
    3.1950    0.1848   -0.5429 H   0  0  0  0  0  0  0  0  0  0  0  0
    3.9832    0.0421    2.0424 H   0  0  0  0  0  0  0  0  0  0  0  0
  1  3  1  0
  1  9  1  0
  2  5  2  0
  3 12  1  6
  3  2  1  0
  3  4  1  0
  4  7  1  0
  6  4  2  0
  7 13  1  0
  8  1  1  0
 10  1  1  0
 11  2  1  0
M  END
>  <HBA>  (103) 
3

>  <HBD>  (103) 
1

>  <TPSA>  (103) 
54.37

>  <cid>  (103) 
296

>  <dipole>  (103) 
4.22

>  <excitation_energy_1>  (103) 
4.297

>  <excitation_energy_2>  (103) 
4.945

>  <excitation_energy_3>  (103) 
5.689

>  <excitation_energy_4>  (103) 
5.837

>  <homo_energy>  (103) 
-7.497

>  <homo_lumo_gap>  (103) 
5.657

>  <logP>  (103) 
-0.094

>  <lumo_energy>  (103) 
-1.84

>  <melting_point>  (103) 
83.65

>  <molecular_refractivity>  (103) 
23.31

>  <oscillator_strength_1>  (103) 
0.0019

>  <oscillator_strength_2>  (103) 
0.0255

>  <oscillator_strength_3>  (103) 
0.0009

>  <oscillator_strength_4>  (103) 
0.0001

>  <open_babel_can_smiles>  (103) 
O=C[C@@H](C(=O)O)C

>  <mulliken_charges>  (103) 
13
1   -0.454449
2   0.261393
3   -0.304852
4   0.614919
5   -0.405577
6   -0.439554
7   -0.578404
8   0.147446
9   0.170777
10   0.192151
11   0.14939
12   0.211908
13   0.434852

>  <lowdin_charges>  (103) 
13
1   -0.442025
2   0.067861
3   -0.20665
4   0.191055
5   -0.220399
6   -0.23836
7   -0.348293
8   0.154182
9   0.164392
10   0.179318
11   0.144803
12   0.195623
13   0.358493

$$$$
PCCDB-ID:  297
     RDKit          3D

  5  4  0  0  0  0  0  0  0  0999 V2000
    1.0146   -0.0438    0.0887 C   0  0  0  0  0  0  0  0  0  0  0  0
    2.1079   -0.0438    0.0887 H   0  0  0  0  0  0  0  0  0  0  0  0
    0.6502    0.8895    0.5262 H   0  0  0  0  0  0  0  0  0  0  0  0
    0.6502   -0.8894    0.6782 H   0  0  0  0  0  0  0  0  0  0  0  0
    0.6502   -0.1315   -0.9383 H   0  0  0  0  0  0  0  0  0  0  0  0
  1  3  1  0
  1  4  1  0
  2  1  1  0
  5  1  1  0
M  END
>  <HBA>  (104) 
0

>  <HBD>  (104) 
0

>  <TPSA>  (104) 
0.0

>  <cid>  (104) 
297

>  <dipole>  (104) 
0.0

>  <excitation_energy_1>  (104) 
10.103

>  <excitation_energy_2>  (104) 
10.103

>  <excitation_energy_3>  (104) 
10.103

>  <excitation_energy_4>  (104) 
11.272

>  <homo_energy>  (104) 
-10.588

>  <homo_lumo_gap>  (104) 
13.796

>  <logP>  (104) 
0.636

>  <lumo_energy>  (104) 
3.208

>  <melting_point>  (104) 
-23.24

>  <molecular_refractivity>  (104) 
6.92

>  <oscillator_strength_1>  (104) 
0.1278

>  <oscillator_strength_2>  (104) 
0.1278

>  <oscillator_strength_3>  (104) 
0.1278

>  <oscillator_strength_4>  (104) 
0.0

>  <open_babel_can_smiles>  (104) 
C

>  <mulliken_charges>  (104) 
5
1   -0.628108
2   0.157034
3   0.157018
4   0.157027
5   0.15703

>  <lowdin_charges>  (104) 
5
1   -0.632744
2   0.156782
3   0.158821
4   0.159371
5   0.15777

$$$$
PCCDB-ID:  307
     RDKit          3D

 18 18  0  0  0  0  0  0  0  0999 V2000
   -1.6424   -0.0120   -0.0612 C   0  0  0  0  0  0  0  0  0  0  0  0
   -0.9463    1.1964    0.0505 C   0  0  0  0  0  0  0  0  0  0  0  0
   -0.9383   -1.2164   -0.0918 C   0  0  0  0  0  0  0  0  0  0  0  0
    3.4961    0.9683    0.3046 C   0  0  0  0  0  0  0  0  0  0  0  0
    0.4418    1.2022    0.1314 C   0  0  0  0  0  0  0  0  0  0  0  0
    0.4524   -1.2106   -0.0111 C   0  0  0  0  0  0  0  0  0  0  0  0
    2.6270   -0.0571    0.1846 C   0  0  0  0  0  0  0  0  0  0  0  0
    4.9385    0.7206    0.3734 C   0  0  0  0  0  0  0  0  0  0  0  0
    1.1683   -0.0046    0.1027 C   0  0  0  0  0  0  0  0  0  0  0  0
    5.7847    1.5908    0.4788 O   0  0  0  0  0  0  0  0  0  0  0  0
   -2.7270   -0.0116   -0.1246 H   0  0  0  0  0  0  0  0  0  0  0  0
   -1.4905    2.1364    0.0739 H   0  0  0  0  0  0  0  0  0  0  0  0
   -1.4713   -2.1592   -0.1782 H   0  0  0  0  0  0  0  0  0  0  0  0
    3.1847    2.0084    0.3562 H   0  0  0  0  0  0  0  0  0  0  0  0
    0.9679    2.1480    0.2173 H   0  0  0  0  0  0  0  0  0  0  0  0
    0.9993   -2.1503   -0.0349 H   0  0  0  0  0  0  0  0  0  0  0  0
    3.0511   -1.0623    0.1430 H   0  0  0  0  0  0  0  0  0  0  0  0
    5.2278   -0.3545    0.3205 H   0  0  0  0  0  0  0  0  0  0  0  0
  1  2  2  0
  2 12  1  0
  2  5  1  0
  3  1  1  0
  3  6  2  0
  4 14  1  0
  4  8  1  0
  5 15  1  0
  6  9  1  0
  7  4  2  0
  8 10  2  0
  9  5  2  0
  9  7  1  0
 11  1  1  0
 13  3  1  0
 16  6  1  0
 17  7  1  0
 18  8  1  0
M  END
>  <HBA>  (105) 
1

>  <HBD>  (105) 
0

>  <TPSA>  (105) 
17.07

>  <cid>  (105) 
307

>  <dipole>  (105) 
4.56

>  <excitation_energy_1>  (105) 
3.399

>  <excitation_energy_2>  (105) 
4.34

>  <excitation_energy_3>  (105) 
4.42

>  <excitation_energy_4>  (105) 
5.493

>  <homo_energy>  (105) 
-6.577

>  <homo_lumo_gap>  (105) 
4.49

>  <logP>  (105) 
1.899

>  <lumo_energy>  (105) 
-2.087

>  <melting_point>  (105) 
57.9

>  <molecular_refractivity>  (105) 
41.54

>  <oscillator_strength_1>  (105) 
0.0001

>  <oscillator_strength_2>  (105) 
0.6488

>  <oscillator_strength_3>  (105) 
0.0609

>  <oscillator_strength_4>  (105) 
0.1013

>  <open_babel_can_smiles>  (105) 
O=C/C=C/c1ccccc1

>  <mulliken_charges>  (105) 
18
1   -0.122824
2   -0.130397
3   -0.130075
4   -0.159673
5   -0.170338
6   -0.186495
7   -0.167172
8   0.233955
9   0.167599
10   -0.422675
11   0.140107
12   0.140631
13   0.13968
14   0.150532
15   0.141711
16   0.137763
17   0.141397
18   0.096274

>  <lowdin_charges>  (105) 
18
1   -0.140497
2   -0.150989
3   -0.153357
4   -0.196099
5   -0.143583
6   -0.149141
7   -0.110784
8   0.042494
9   -0.008882
10   -0.235984
11   0.16089
12   0.163225
13   0.162961
14   0.16618
15   0.163623
16   0.160781
17   0.159501
18   0.109659

$$$$
PCCDB-ID:  308
     RDKit          3D

 20 20  0  0  0  0  0  0  0  0999 V2000
   -1.6136   -0.0628   -0.0800 C   0  0  0  0  0  0  0  0  0  0  0  0
   -0.9719    1.1537    0.1729 C   0  0  0  0  0  0  0  0  0  0  0  0
   -0.8512   -1.2192   -0.2453 C   0  0  0  0  0  0  0  0  0  0  0  0
    3.4843    1.1102    0.3619 C   0  0  0  0  0  0  0  0  0  0  0  0
    0.4156    1.2141    0.2592 C   0  0  0  0  0  0  0  0  0  0  0  0
    0.5389   -1.1567   -0.1598 C   0  0  0  0  0  0  0  0  0  0  0  0
    2.6694    0.0618    0.1656 C   0  0  0  0  0  0  0  0  0  0  0  0
    4.9809    1.0041    0.4086 C   0  0  0  0  0  0  0  0  0  0  0  0
    1.2008    0.0579    0.0914 C   0  0  0  0  0  0  0  0  0  0  0  0
    5.6112    1.8256   -0.5762 O   0  0  0  0  0  0  0  0  0  0  0  0
   -2.6973   -0.1062   -0.1457 H   0  0  0  0  0  0  0  0  0  0  0  0
   -1.5578    2.0594    0.3060 H   0  0  0  0  0  0  0  0  0  0  0  0
   -1.3375   -2.1709   -0.4424 H   0  0  0  0  0  0  0  0  0  0  0  0
    3.0885    2.1188    0.4750 H   0  0  0  0  0  0  0  0  0  0  0  0
    0.8939    2.1681    0.4607 H   0  0  0  0  0  0  0  0  0  0  0  0
    1.1275   -2.0621   -0.2904 H   0  0  0  0  0  0  0  0  0  0  0  0
    3.1309   -0.9201    0.0455 H   0  0  0  0  0  0  0  0  0  0  0  0
    5.2900   -0.0496    0.3135 H   0  0  0  0  0  0  0  0  0  0  0  0
    5.3669    1.3720    1.3669 H   0  0  0  0  0  0  0  0  0  0  0  0
    5.2305    1.5763   -1.4334 H   0  0  0  0  0  0  0  0  0  0  0  0
  1  2  2  0
  2  5  1  0
  2 12  1  0
  3  6  2  0
  3  1  1  0
  4  8  1  0
  4 14  1  0
  5 15  1  0
  6  9  1  0
  7  4  2  0
  8 19  1  0
  9  7  1  0
  9  5  2  0
 10  8  1  0
 11  1  1  0
 13  3  1  0
 16  6  1  0
 17  7  1  0
 18  8  1  0
 20 10  1  0
M  END
>  <HBA>  (106) 
1

>  <HBD>  (106) 
1

>  <TPSA>  (106) 
20.23

>  <cid>  (106) 
308

>  <dipole>  (106) 
1.89

>  <excitation_energy_1>  (106) 
4.689

>  <excitation_energy_2>  (106) 
4.816

>  <excitation_energy_3>  (106) 
5.54

>  <excitation_energy_4>  (106) 
5.679

>  <homo_energy>  (106) 
-6.076

>  <homo_lumo_gap>  (106) 
5.07

>  <logP>  (106) 
1.692

>  <lumo_energy>  (106) 
-1.007

>  <melting_point>  (106) 
44.79

>  <molecular_refractivity>  (106) 
42.5

>  <oscillator_strength_1>  (106) 
0.3685

>  <oscillator_strength_2>  (106) 
0.1451

>  <oscillator_strength_3>  (106) 
0.004

>  <oscillator_strength_4>  (106) 
0.1736

>  <open_babel_can_smiles>  (106) 
OC/C=C/c1ccccc1

>  <mulliken_charges>  (106) 
20
1   -0.128716
2   -0.129792
3   -0.129002
4   -0.139879
5   -0.18164
6   -0.195954
7   -0.174588
8   -0.070452
9   0.176812
10   -0.610352
11   0.13156
12   0.132163
13   0.131717
14   0.137707
15   0.131014
16   0.128596
17   0.123983
18   0.127013
19   0.154237
20   0.385572

>  <lowdin_charges>  (106) 
20
1   -0.152963
2   -0.153921
3   -0.155073
4   -0.182807
5   -0.154577
6   -0.160324
7   -0.159677
8   -0.128229
9   -0.003141
10   -0.467125
11   0.156827
12   0.15926
13   0.158871
14   0.154856
15   0.158236
16   0.156673
17   0.151467
18   0.128344
19   0.153088
20   0.340213

$$$$
PCCDB-ID:  309
     RDKit          3D

 18 17  0  0  0  0  0  0  0  0999 V2000
    1.0874    0.4185   -0.2755 C   0  0  0  0  0  0  0  0  0  0  0  0
    0.9739   -1.8251    0.8973 C   0  0  0  0  0  0  0  0  0  0  0  0
    0.3827   -0.5507    0.3377 C   0  0  0  0  0  0  0  0  0  0  0  0
    2.5335    0.3444   -0.5504 C   0  0  0  0  0  0  0  0  0  0  0  0
    0.8858   -2.9155   -0.1775 C   0  0  0  0  0  0  0  0  0  0  0  0
   -1.1196   -0.3540    0.4552 C   0  0  0  0  0  0  0  0  0  0  0  0
    3.2376   -0.6632   -0.5317 O   0  0  0  0  0  0  0  0  0  0  0  0
    3.0441    1.5467   -0.8595 O   0  0  0  0  0  0  0  0  0  0  0  0
   -0.1447   -3.5429   -0.3470 O   0  0  0  0  0  0  0  0  0  0  0  0
    1.9582   -3.0922   -0.9408 O   0  0  0  0  0  0  0  0  0  0  0  0
   -1.6138    0.7471    0.5293 O   0  0  0  0  0  0  0  0  0  0  0  0
   -1.8635   -1.4696    0.4816 O   0  0  0  0  0  0  0  0  0  0  0  0
    0.5742    1.3220   -0.5876 H   0  0  0  0  0  0  0  0  0  0  0  0
    0.3836   -2.1636    1.7527 H   0  0  0  0  0  0  0  0  0  0  0  0
    2.0045   -1.6668    1.2161 H   0  0  0  0  0  0  0  0  0  0  0  0
    3.9931    1.4152   -1.0482 H   0  0  0  0  0  0  0  0  0  0  0  0
    2.6059   -2.3675   -0.7679 H   0  0  0  0  0  0  0  0  0  0  0  0
   -1.3600   -2.2890    0.2477 H   0  0  0  0  0  0  0  0  0  0  0  0
  1  3  2  0
  2 15  1  0
  2 14  1  0
  3  6  1  0
  3  2  1  0
  4  7  2  0
  4  1  1  0
  5  2  1  0
  6 12  1  0
  6 11  2  0
  8  4  1  0
  9  5  2  0
 10 17  1  0
 10  5  1  0
 13  1  1  0
 16  8  1  0
 18 12  1  0
M  END
>  <HBA>  (107) 
6

>  <HBD>  (107) 
3

>  <TPSA>  (107) 
111.9

>  <cid>  (107) 
309

>  <dipole>  (107) 
5.54

>  <excitation_energy_1>  (107) 
3.724

>  <excitation_energy_2>  (107) 
4.511

>  <excitation_energy_3>  (107) 
4.691

>  <excitation_energy_4>  (107) 
5.12

>  <homo_energy>  (107) 
-7.619

>  <homo_lumo_gap>  (107) 
4.718

>  <logP>  (107) 
-0.443

>  <lumo_energy>  (107) 
-2.901

>  <melting_point>  (107) 
218.12

>  <molecular_refractivity>  (107) 
35.8

>  <oscillator_strength_1>  (107) 
0.0102

>  <oscillator_strength_2>  (107) 
0.0633

>  <oscillator_strength_3>  (107) 
0.0032

>  <oscillator_strength_4>  (107) 
0.0475

>  <open_babel_can_smiles>  (107) 
OC(=O)C/C(=C\C(=O)O)/C(=O)O

>  <mulliken_charges>  (107) 
18
1   -0.194218
2   -0.483614
3   0.08016
4   0.586371
5   0.608781
6   0.56926
7   -0.520257
8   -0.546494
9   -0.459305
10   -0.55933
11   -0.436311
12   -0.591668
13   0.207709
14   0.206352
15   0.200451
16   0.425379
17   0.458304
18   0.448429

>  <lowdin_charges>  (107) 
18
1   -0.177841
2   -0.32639
3   0.006151
4   0.212869
5   0.20682
6   0.189343
7   -0.302001
8   -0.3187
9   -0.265516
10   -0.325183
11   -0.233864
12   -0.347138
13   0.202785
14   0.187315
15   0.183595
16   0.370689
17   0.370189
18   0.366876

$$$$
PCCDB-ID:  310
     RDKit          3D

 16 15  0  0  0  0  0  0  0  0999 V2000
    1.1820   -0.0204    0.0021 C   0  0  0  0  0  0  0  0  0  0  0  0
    0.5794   -0.5932   -1.1808 C   0  0  0  0  0  0  0  0  0  0  0  0
    2.5115    0.1241    0.1664 C   0  0  0  0  0  0  0  0  0  0  0  0
   -0.7502   -0.7361   -1.3459 C   0  0  0  0  0  0  0  0  0  0  0  0
    3.0551    0.7170    1.4058 C   0  0  0  0  0  0  0  0  0  0  0  0
   -1.2936   -1.3335   -2.5832 C   0  0  0  0  0  0  0  0  0  0  0  0
    4.4109    0.7751    1.3731 O   0  0  0  0  0  0  0  0  0  0  0  0
    2.4030    1.1121    2.3524 O   0  0  0  0  0  0  0  0  0  0  0  0
   -2.6496   -1.3877   -2.5523 O   0  0  0  0  0  0  0  0  0  0  0  0
   -0.6411   -1.7352   -3.5267 O   0  0  0  0  0  0  0  0  0  0  0  0
    0.5271    0.3122    0.8057 H   0  0  0  0  0  0  0  0  0  0  0  0
    1.2344   -0.9288   -1.9830 H   0  0  0  0  0  0  0  0  0  0  0  0
    3.2220   -0.1858   -0.5944 H   0  0  0  0  0  0  0  0  0  0  0  0
   -1.4609   -0.4228   -0.5867 H   0  0  0  0  0  0  0  0  0  0  0  0
    4.6839    1.1742    2.2203 H   0  0  0  0  0  0  0  0  0  0  0  0
   -2.9223   -1.7915   -3.3973 H   0  0  0  0  0  0  0  0  0  0  0  0
  1  3  2  0
  1 11  1  0
  2  1  1  0
  3  5  1  0
  4  2  2  0
  4 14  1  0
  5  8  2  0
  6  9  1  0
  6  4  1  0
  7  5  1  0
  7 15  1  0
 10  6  2  0
 12  2  1  0
 13  3  1  0
 16  9  1  0
M  END
>  <HBA>  (108) 
4

>  <HBD>  (108) 
2

>  <TPSA>  (108) 
74.6

>  <cid>  (108) 
310

>  <dipole>  (108) 
0.0

>  <excitation_energy_1>  (108) 
4.074

>  <excitation_energy_2>  (108) 
4.122

>  <excitation_energy_3>  (108) 
4.546

>  <excitation_energy_4>  (108) 
5.576

>  <homo_energy>  (108) 
-7.146

>  <homo_lumo_gap>  (108) 
4.504

>  <logP>  (108) 
0.268

>  <lumo_energy>  (108) 
-2.642

>  <melting_point>  (108) 
147.33

>  <molecular_refractivity>  (108) 
33.55

>  <oscillator_strength_1>  (108) 
0.0

>  <oscillator_strength_2>  (108) 
0.0

>  <oscillator_strength_3>  (108) 
0.8786

>  <oscillator_strength_4>  (108) 
0.0

>  <open_babel_can_smiles>  (108) 
OC(=O)/C=C/C=C/C(=O)O

>  <mulliken_charges>  (108) 
16
1   -0.081407
2   -0.081586
3   -0.187108
4   -0.187044
5   0.566448
6   0.566454
7   -0.578934
8   -0.472986
9   -0.578936
10   -0.472987
11   0.176729
12   0.176733
13   0.1647
14   0.164698
15   0.412613
16   0.412613

>  <lowdin_charges>  (108) 
16
1   -0.101234
2   -0.101247
3   -0.183197
4   -0.183204
5   0.194319
6   0.194322
7   -0.358671
8   -0.272425
9   -0.358698
10   -0.272425
11   0.18057
12   0.180577
13   0.177253
14   0.177257
15   0.363388
16   0.363415

$$$$
PCCDB-ID:  322
     RDKit          3D

 20 20  0  0  0  0  0  0  0  0999 V2000
   -0.7866    0.9008   -0.2299 C   0  0  0  0  0  0  0  0  0  0  0  0
    1.2755   -0.2520    0.2438 C   0  0  0  0  0  0  0  0  0  0  0  0
    1.2498    2.2668    0.0218 C   0  0  0  0  0  0  0  0  0  0  0  0
   -1.4690   -0.3109   -0.2479 C   0  0  0  0  0  0  0  0  0  0  0  0
    0.6092   -1.4662    0.2283 C   0  0  0  0  0  0  0  0  0  0  0  0
    2.5496    2.5529    0.2345 C   0  0  0  0  0  0  0  0  0  0  0  0
    0.5970    0.9641    0.0148 C   0  0  0  0  0  0  0  0  0  0  0  0
   -0.7720   -1.5019   -0.0177 C   0  0  0  0  0  0  0  0  0  0  0  0
    3.0076    3.9618    0.1948 C   0  0  0  0  0  0  0  0  0  0  0  0
   -1.3728   -2.7239   -0.0202 O   0  0  0  0  0  0  0  0  0  0  0  0
    2.2929    4.9173   -0.0122 O   0  0  0  0  0  0  0  0  0  0  0  0
    4.3424    4.1567    0.4120 O   0  0  0  0  0  0  0  0  0  0  0  0
   -1.3352    1.8218   -0.4097 H   0  0  0  0  0  0  0  0  0  0  0  0
    2.3441   -0.2463    0.4372 H   0  0  0  0  0  0  0  0  0  0  0  0
    0.6061    3.1246   -0.1697 H   0  0  0  0  0  0  0  0  0  0  0  0
   -2.5398   -0.3333   -0.4409 H   0  0  0  0  0  0  0  0  0  0  0  0
    1.1332   -2.4000    0.4045 H   0  0  0  0  0  0  0  0  0  0  0  0
    3.2801    1.7712    0.4352 H   0  0  0  0  0  0  0  0  0  0  0  0
   -2.3196   -2.6154   -0.2027 H   0  0  0  0  0  0  0  0  0  0  0  0
    4.7838    3.3052    0.5626 H   0  0  0  0  0  0  0  0  0  0  0  0
  1  7  2  0
  2 14  1  0
  3  6  2  0
  4  1  1  0
  4  8  2  0
  5  2  2  0
  5 17  1  0
  6 18  1  0
  7  3  1  0
  7  2  1  0
  8  5  1  0
  9  6  1  0
  9 12  1  0
 10  8  1  0
 11  9  2  0
 12 20  1  0
 13  1  1  0
 15  3  1  0
 16  4  1  0
 19 10  1  0
M  END
>  <HBA>  (109) 
3

>  <HBD>  (109) 
2

>  <TPSA>  (109) 
57.53

>  <cid>  (109) 
322

>  <dipole>  (109) 
5.49

>  <excitation_energy_1>  (109) 
4.131

>  <excitation_energy_2>  (109) 
4.325

>  <excitation_energy_3>  (109) 
4.571

>  <excitation_energy_4>  (109) 
5.206

>  <homo_energy>  (109) 
-6.109

>  <homo_lumo_gap>  (109) 
4.373

>  <logP>  (109) 
1.49

>  <lumo_energy>  (109) 
-1.736

>  <melting_point>  (109) 
144.31

>  <molecular_refractivity>  (109) 
45.13

>  <oscillator_strength_1>  (109) 
0.6431

>  <oscillator_strength_2>  (109) 
0.0001

>  <oscillator_strength_3>  (109) 
0.0215

>  <oscillator_strength_4>  (109) 
0.0003

>  <open_babel_can_smiles>  (109) 
OC(=O)/C=C/c1ccc(cc1)O

>  <mulliken_charges>  (109) 
20
1   -0.192481
2   -0.177119
3   -0.146936
4   -0.195784
5   -0.158515
6   -0.251317
7   0.166511
8   0.358363
9   0.608189
10   -0.631687
11   -0.465716
12   -0.586758
13   0.147781
14   0.135264
15   0.172119
16   0.130194
17   0.149779
18   0.120181
19   0.413432
20   0.404501

>  <lowdin_charges>  (109) 
20
1   -0.133938
2   -0.130642
3   -0.092941
4   -0.209249
5   -0.179592
6   -0.246236
7   -0.029994
8   0.112905
9   0.198521
10   -0.361846
11   -0.260298
12   -0.365557
13   0.166625
14   0.159169
15   0.179942
16   0.157084
17   0.17233
18   0.150064
19   0.360285
20   0.353368

$$$$
PCCDB-ID:  323
     RDKit          3D

 17 18  0  0  0  0  0  0  0  0999 V2000
    2.4301    0.7233    0.0223 C   0  0  0  0  0  0  0  0  0  0  0  0
    2.4211   -0.6797   -0.0061 C   0  0  0  0  0  0  0  0  0  0  0  0
    1.2304    1.4210    0.0209 C   0  0  0  0  0  0  0  0  0  0  0  0
    1.2215   -1.3833   -0.0354 C   0  0  0  0  0  0  0  0  0  0  0  0
   -1.2858    1.3815   -0.0118 C   0  0  0  0  0  0  0  0  0  0  0  0
   -2.4249    0.6542   -0.0417 C   0  0  0  0  0  0  0  0  0  0  0  0
    0.0025    0.7344   -0.0082 C   0  0  0  0  0  0  0  0  0  0  0  0
    0.0190   -0.6738   -0.0362 C   0  0  0  0  0  0  0  0  0  0  0  0
   -2.4032   -0.8057   -0.0729 C   0  0  0  0  0  0  0  0  0  0  0  0
   -3.3670   -1.5324   -0.1040 O   0  0  0  0  0  0  0  0  0  0  0  0
   -1.1376   -1.3983   -0.0649 O   0  0  0  0  0  0  0  0  0  0  0  0
    3.3731    1.2608    0.0451 H   0  0  0  0  0  0  0  0  0  0  0  0
    3.3596   -1.2267   -0.0052 H   0  0  0  0  0  0  0  0  0  0  0  0
    1.2237    2.5079    0.0416 H   0  0  0  0  0  0  0  0  0  0  0  0
    1.1925   -2.4675   -0.0586 H   0  0  0  0  0  0  0  0  0  0  0  0
   -1.3236    2.4684    0.0102 H   0  0  0  0  0  0  0  0  0  0  0  0
   -3.4097    1.1066   -0.0454 H   0  0  0  0  0  0  0  0  0  0  0  0
  1 12  1  0
  2 13  1  0
  2  1  2  0
  3  1  1  0
  3 14  1  0
  4  2  1  0
  5  7  1  0
  5 16  1  0
  6  5  2  0
  7  3  2  0
  8  4  2  0
  8  7  1  0
  9 11  1  0
  9  6  1  0
 10  9  2  0
 11  8  1  0
 15  4  1  0
 17  6  1  0
M  END
>  <HBA>  (110) 
2

>  <HBD>  (110) 
0

>  <TPSA>  (110) 
30.21

>  <cid>  (110) 
323

>  <dipole>  (110) 
4.82

>  <excitation_energy_1>  (110) 
4.134

>  <excitation_energy_2>  (110) 
4.457

>  <excitation_energy_3>  (110) 
4.594

>  <excitation_energy_4>  (110) 
5.396

>  <homo_energy>  (110) 
-6.495

>  <homo_lumo_gap>  (110) 
4.618

>  <logP>  (110) 
1.793

>  <lumo_energy>  (110) 
-1.878

>  <melting_point>  (110) 
82.32

>  <molecular_refractivity>  (110) 
42.48

>  <oscillator_strength_1>  (110) 
0.1192

>  <oscillator_strength_2>  (110) 
0.0

>  <oscillator_strength_3>  (110) 
0.1673

>  <oscillator_strength_4>  (110) 
0.0165

>  <open_babel_can_smiles>  (110) 
O=c1ccc2c(o1)cccc2

>  <mulliken_charges>  (110) 
17
1   -0.131166
2   -0.131815
3   -0.197467
4   -0.16868
5   -0.118129
6   -0.217974
7   0.124649
8   0.315
9   0.596152
10   -0.462407
11   -0.516302
12   0.140204
13   0.145162
14   0.14191
15   0.15861
16   0.156345
17   0.165908

>  <lowdin_charges>  (110) 
17
1   -0.16536
2   -0.135374
3   -0.141987
4   -0.169675
5   -0.105056
6   -0.198612
7   -0.040789
8   0.11405
9   0.198996
10   -0.239318
11   -0.134702
12   0.164335
13   0.166528
14   0.161436
15   0.174825
16   0.168141
17   0.182562

$$$$
PCCDB-ID:  325
     RDKit          3D

 25 25  0  0  0  0  0  0  0  0999 V2000
    3.5228   -0.6602   -0.7399 C   0  0  0  0  0  0  0  0  0  0  0  0
    1.6029   -0.9846    0.8907 C   0  0  0  0  0  0  0  0  0  0  0  0
    2.8927    3.5874    1.3652 C   0  0  0  0  0  0  0  0  0  0  0  0
    4.2563    2.0985    2.6685 C   0  0  0  0  0  0  0  0  0  0  0  0
    2.4450    2.5062    0.6039 C   0  0  0  0  0  0  0  0  0  0  0  0
    3.8022    1.0217    1.9112 C   0  0  0  0  0  0  0  0  0  0  0  0
    4.3233    4.5706    3.2177 C   0  0  0  0  0  0  0  0  0  0  0  0
    2.3827    0.0300    0.0329 C   0  0  0  0  0  0  0  0  0  0  0  0
    3.8082    3.3999    2.4043 C   0  0  0  0  0  0  0  0  0  0  0  0
    2.8875    1.2035    0.8618 C   0  0  0  0  0  0  0  0  0  0  0  0
    4.5249    4.2632    4.5934 O   0  0  0  0  0  0  0  0  0  0  0  0
    3.1293   -1.4669   -1.3699 H   0  0  0  0  0  0  0  0  0  0  0  0
    4.2584   -1.1005   -0.0563 H   0  0  0  0  0  0  0  0  0  0  0  0
    4.0508    0.0503   -1.3852 H   0  0  0  0  0  0  0  0  0  0  0  0
    1.2082   -1.7958    0.2672 H   0  0  0  0  0  0  0  0  0  0  0  0
    0.7605   -0.5059    1.4017 H   0  0  0  0  0  0  0  0  0  0  0  0
    2.2453   -1.4352    1.6565 H   0  0  0  0  0  0  0  0  0  0  0  0
    2.5216    4.5874    1.1484 H   0  0  0  0  0  0  0  0  0  0  0  0
    4.9593    1.9387    3.4813 H   0  0  0  0  0  0  0  0  0  0  0  0
    1.7300    2.6771   -0.1982 H   0  0  0  0  0  0  0  0  0  0  0  0
    4.1668    0.0236    2.1426 H   0  0  0  0  0  0  0  0  0  0  0  0
    3.6490    5.4335    3.0938 H   0  0  0  0  0  0  0  0  0  0  0  0
    5.3101    4.8843    2.8560 H   0  0  0  0  0  0  0  0  0  0  0  0
    1.6832    0.4374   -0.7101 H   0  0  0  0  0  0  0  0  0  0  0  0
    3.6870    3.9092    4.9322 H   0  0  0  0  0  0  0  0  0  0  0  0
  1 13  1  0
  1  8  1  0
  2 16  1  0
  2 17  1  0
  3  9  2  0
  4 19  1  0
  5 10  2  0
  5  3  1  0
  6 21  1  0
  6  4  2  0
  7 11  1  0
  8 10  1  0
  8  2  1  0
  9  4  1  0
  9  7  1  0
 10  6  1  0
 11 25  1  0
 12  1  1  0
 14  1  1  0
 15  2  1  0
 18  3  1  0
 20  5  1  0
 22  7  1  0
 23  7  1  0
 24  8  1  0
M  END
>  <HBA>  (111) 
1

>  <HBD>  (111) 
1

>  <TPSA>  (111) 
20.23

>  <cid>  (111) 
325

>  <dipole>  (111) 
1.78

>  <excitation_energy_1>  (111) 
5.179

>  <excitation_energy_2>  (111) 
5.665

>  <excitation_energy_3>  (111) 
5.902

>  <excitation_energy_4>  (111) 
6.171

>  <homo_energy>  (111) 
-6.338

>  <homo_lumo_gap>  (111) 
6.291

>  <logP>  (111) 
2.302

>  <lumo_energy>  (111) 
-0.046

>  <melting_point>  (111) 
29.28

>  <molecular_refractivity>  (111) 
47.15

>  <oscillator_strength_1>  (111) 
0.0016

>  <oscillator_strength_2>  (111) 
0.1391

>  <oscillator_strength_3>  (111) 
0.0007

>  <oscillator_strength_4>  (111) 
0.0505

>  <open_babel_can_smiles>  (111) 
OCc1ccc(cc1)C(C)C

>  <mulliken_charges>  (111) 
25
1   -0.438579
2   -0.438556
3   -0.179008
4   -0.174785
5   -0.197913
6   -0.186432
7   -0.091207
8   -0.160251
9   0.101135
10   0.189593
11   -0.609759
12   0.141339
13   0.143991
14   0.149806
15   0.14144
16   0.148592
17   0.143778
18   0.121695
19   0.141037
20   0.122651
21   0.125258
22   0.127543
23   0.162659
24   0.128197
25   0.387776

>  <lowdin_charges>  (111) 
25
1   -0.445015
2   -0.444528
3   -0.166252
4   -0.160607
5   -0.168504
6   -0.163335
7   -0.131706
8   -0.119616
9   -0.038201
10   -0.000756
11   -0.463558
12   0.149389
13   0.149006
14   0.154269
15   0.149461
16   0.153116
17   0.148836
18   0.153195
19   0.163837
20   0.154069
21   0.153691
22   0.132214
23   0.156451
24   0.142858
25   0.341684

$$$$
PCCDB-ID:  326
     RDKit          3D

 23 23  0  0  0  0  0  0  0  0999 V2000
    1.3007    0.8666    0.0552 C   0  0  0  0  0  0  0  0  0  0  0  0
    3.6352    0.6933   -0.9337 C   0  0  0  0  0  0  0  0  0  0  0  0
    4.1208    0.8981    3.4716 C   0  0  0  0  0  0  0  0  0  0  0  0
    3.9048   -1.5039    3.2874 C   0  0  0  0  0  0  0  0  0  0  0  0
    3.5874    1.0450    2.1946 C   0  0  0  0  0  0  0  0  0  0  0  0
    3.3728   -1.3498    2.0127 C   0  0  0  0  0  0  0  0  0  0  0  0
    4.8513   -0.5258    5.3865 C   0  0  0  0  0  0  0  0  0  0  0  0
    2.6201    0.0712    0.0444 C   0  0  0  0  0  0  0  0  0  0  0  0
    4.2843   -0.3767    4.0300 C   0  0  0  0  0  0  0  0  0  0  0  0
    3.2034   -0.0768    1.4425 C   0  0  0  0  0  0  0  0  0  0  0  0
    5.0380   -1.5883    5.9498 O   0  0  0  0  0  0  0  0  0  0  0  0
    0.8670    0.9018   -0.9509 H   0  0  0  0  0  0  0  0  0  0  0  0
    1.4597    1.9003    0.3844 H   0  0  0  0  0  0  0  0  0  0  0  0
    0.5666    0.4104    0.7279 H   0  0  0  0  0  0  0  0  0  0  0  0
    3.2172    0.7326   -1.9464 H   0  0  0  0  0  0  0  0  0  0  0  0
    4.5619    0.1104   -0.9693 H   0  0  0  0  0  0  0  0  0  0  0  0
    3.8949    1.7175   -0.6409 H   0  0  0  0  0  0  0  0  0  0  0  0
    4.4144    1.7758    4.0444 H   0  0  0  0  0  0  0  0  0  0  0  0
    4.0365   -2.4865    3.7305 H   0  0  0  0  0  0  0  0  0  0  0  0
    3.4676    2.0417    1.7783 H   0  0  0  0  0  0  0  0  0  0  0  0
    3.0804   -2.2283    1.4421 H   0  0  0  0  0  0  0  0  0  0  0  0
    5.1100    0.4343    5.8878 H   0  0  0  0  0  0  0  0  0  0  0  0
    2.3914   -0.9402   -0.3173 H   0  0  0  0  0  0  0  0  0  0  0  0
  1 13  1  0
  1 14  1  0
  2 17  1  0
  2  8  1  0
  3  9  2  0
  3 18  1  0
  4 19  1  0
  4  9  1  0
  5  3  1  0
  6  4  2  0
  7 22  1  0
  7 11  2  0
  8  1  1  0
  8 10  1  0
  9  7  1  0
 10  6  1  0
 10  5  2  0
 12  1  1  0
 15  2  1  0
 16  2  1  0
 20  5  1  0
 21  6  1  0
 23  8  1  0
M  END
>  <HBA>  (112) 
1

>  <HBD>  (112) 
0

>  <TPSA>  (112) 
17.07

>  <cid>  (112) 
326

>  <dipole>  (112) 
3.86

>  <excitation_energy_1>  (112) 
3.711

>  <excitation_energy_2>  (112) 
4.677

>  <excitation_energy_3>  (112) 
4.929

>  <excitation_energy_4>  (112) 
5.597

>  <homo_energy>  (112) 
-6.836

>  <homo_lumo_gap>  (112) 
5.238

>  <logP>  (112) 
2.623

>  <lumo_energy>  (112) 
-1.597

>  <melting_point>  (112) 
40.6

>  <molecular_refractivity>  (112) 
46.41

>  <oscillator_strength_1>  (112) 
0.0001

>  <oscillator_strength_2>  (112) 
0.0162

>  <oscillator_strength_3>  (112) 
0.3753

>  <oscillator_strength_4>  (112) 
0.0001

>  <open_babel_can_smiles>  (112) 
O=Cc1ccc(cc1)C(C)C

>  <mulliken_charges>  (112) 
23
1   -0.440594
2   -0.440259
3   -0.179538
4   -0.154454
5   -0.187417
6   -0.196994
7   0.19192
8   -0.164096
9   0.095405
10   0.194337
11   -0.410201
12   0.146731
13   0.145344
14   0.153406
15   0.146729
16   0.153337
17   0.145515
18   0.138402
19   0.161879
20   0.133175
21   0.133785
22   0.099466
23   0.134121

>  <lowdin_charges>  (112) 
23
1   -0.440578
2   -0.439279
3   -0.141471
4   -0.123511
5   -0.165367
6   -0.167516
7   0.046075
8   -0.118967
9   -0.060192
10   0.021574
11   -0.232125
12   0.151032
13   0.147449
14   0.155872
15   0.150765
16   0.154691
17   0.147785
18   0.161596
19   0.174913
20   0.157995
21   0.1597
22   0.115788
23   0.143772

$$$$
PCCDB-ID:  328
     RDKit          3D

 20 20  0  0  1  0  0  0  0  0999 V2000
   -0.7867    0.8637    0.1108 C   0  0  0  0  0  0  0  0  0  0  0  0
    1.0448   -0.4051   -0.8042 C   0  0  0  0  0  0  0  0  0  0  0  0
   -1.4988   -0.3145    0.3261 C   0  0  0  0  0  0  0  0  0  0  0  0
    0.3413   -1.5869   -0.6026 C   0  0  0  0  0  0  0  0  0  0  0  0
    0.4895    0.8366   -0.4579 C   0  0  0  0  0  0  0  0  0  0  0  0
   -0.9362   -1.5447   -0.0313 C   0  0  0  0  0  0  0  0  0  0  0  0
    1.2717    2.1182   -0.6645 C   0  0  1  0  0  0  0  0  0  0  0  0
    2.3161    2.3087    0.4574 C   0  0  0  0  0  0  0  0  0  0  0  0
   -1.5829   -2.7331    0.1459 O   0  0  0  0  0  0  0  0  0  0  0  0
    1.9852    2.1356   -1.9089 O   0  0  0  0  0  0  0  0  0  0  0  0
    2.0001    2.5716    1.5902 O   0  0  0  0  0  0  0  0  0  0  0  0
    3.5909    2.1293    0.0689 O   0  0  0  0  0  0  0  0  0  0  0  0
   -1.2300    1.8143    0.3948 H   0  0  0  0  0  0  0  0  0  0  0  0
    2.0415   -0.4479   -1.2355 H   0  0  0  0  0  0  0  0  0  0  0  0
   -2.4929   -0.2774    0.7677 H   0  0  0  0  0  0  0  0  0  0  0  0
    0.7663   -2.5492   -0.8690 H   0  0  0  0  0  0  0  0  0  0  0  0
    0.5927    2.9779   -0.6030 H   0  0  0  0  0  0  0  0  0  0  0  0
   -2.4391   -2.5695    0.5714 H   0  0  0  0  0  0  0  0  0  0  0  0
    1.4607    1.6513   -2.5657 H   0  0  0  0  0  0  0  0  0  0  0  0
    3.5718    1.9927   -0.9016 H   0  0  0  0  0  0  0  0  0  0  0  0
  1  3  2  0
  1 13  1  0
  2  4  1  0
  2  5  2  0
  3 15  1  0
  4  6  2  0
  5  1  1  0
  6  9  1  0
  6  3  1  0
  7 17  1  6
  7  5  1  0
  7  8  1  0
  8 11  2  0
  9 18  1  0
 10  7  1  0
 12  8  1  0
 14  2  1  0
 16  4  1  0
 19 10  1  0
 20 12  1  0
M  END
>  <HBA>  (113) 
4

>  <HBD>  (113) 
3

>  <TPSA>  (113) 
77.76

>  <cid>  (113) 
328

>  <dipole>  (113) 
5.12

>  <excitation_energy_1>  (113) 
4.917

>  <excitation_energy_2>  (113) 
5.302

>  <excitation_energy_3>  (113) 
5.397

>  <excitation_energy_4>  (113) 
5.57

>  <homo_energy>  (113) 
-6.335

>  <homo_lumo_gap>  (113) 
5.785

>  <logP>  (113) 
0.51

>  <lumo_energy>  (113) 
-0.55

>  <melting_point>  (113) 
143.24

>  <molecular_refractivity>  (113) 
41.17

>  <oscillator_strength_1>  (113) 
0.0244

>  <oscillator_strength_2>  (113) 
0.1315

>  <oscillator_strength_3>  (113) 
0.0126

>  <oscillator_strength_4>  (113) 
0.0223

>  <open_babel_can_smiles>  (113) 
OC(=O)[C@H](c1ccc(cc1)O)O

>  <mulliken_charges>  (113) 
20
1   -0.175677
2   -0.189853
3   -0.19352
4   -0.154438
5   0.11985
6   0.355761
7   -0.028305
8   0.603238
9   -0.636438
10   -0.657877
11   -0.453131
12   -0.573447
13   0.144882
14   0.137327
15   0.128715
16   0.148969
17   0.165749
18   0.411449
19   0.409508
20   0.437237

>  <lowdin_charges>  (113) 
20
1   -0.140241
2   -0.153126
3   -0.205225
4   -0.179288
5   -0.050708
6   0.107736
7   -0.033778
8   0.178731
9   -0.370048
10   -0.466044
11   -0.243053
12   -0.344453
13   0.166055
14   0.160394
15   0.157445
16   0.171779
17   0.161792
18   0.360449
19   0.358242
20   0.363339

$$$$
PCCDB-ID:  331
     RDKit          3D

 24 23  0  0  1  0  0  0  0  0999 V2000
    2.5751    1.2181    1.0741 C   0  0  0  0  0  0  0  0  0  0  0  0
    3.1429   -0.2034   -0.9761 C   0  0  0  0  0  0  0  0  0  0  0  0
    1.8538   -2.2667   -1.7587 C   0  0  0  0  0  0  0  0  0  0  0  0
    3.6854    0.6960    0.1591 C   0  0  1  0  0  0  0  0  0  0  0  0
    2.4339   -1.4952   -0.5353 C   0  0  1  0  0  0  0  0  0  0  0  0
    0.7121   -1.4984   -2.4111 C   0  0  0  0  0  0  0  0  0  0  0  0
    4.4579    1.8451   -0.3420 N   0  0  0  0  0  0  0  0  0  0  0  0
    3.3416   -2.2999    0.2836 N   0  0  0  0  0  0  0  0  0  0  0  0
   -0.3422   -1.2987   -1.8609 O   0  0  0  0  0  0  0  0  0  0  0  0
    0.9392   -0.9831   -3.6523 O   0  0  0  0  0  0  0  0  0  0  0  0
    2.0518    0.4007    1.5797 H   0  0  0  0  0  0  0  0  0  0  0  0
    1.8318    1.7931    0.5048 H   0  0  0  0  0  0  0  0  0  0  0  0
    3.0029    1.8778    1.8346 H   0  0  0  0  0  0  0  0  0  0  0  0
    3.9879   -0.4797   -1.6301 H   0  0  0  0  0  0  0  0  0  0  0  0
    2.4562    0.3907   -1.5970 H   0  0  0  0  0  0  0  0  0  0  0  0
    1.4367   -3.2168   -1.4069 H   0  0  0  0  0  0  0  0  0  0  0  0
    2.6614   -2.5021   -2.4665 H   0  0  0  0  0  0  0  0  0  0  0  0
    4.3714    0.0936    0.7647 H   0  0  0  0  0  0  0  0  0  0  0  0
    1.5760   -1.2355    0.0945 H   0  0  0  0  0  0  0  0  0  0  0  0
    3.8641    2.4168   -0.9449 H   0  0  0  0  0  0  0  0  0  0  0  0
    5.2216    1.5172   -0.9335 H   0  0  0  0  0  0  0  0  0  0  0  0
    4.1316   -2.6225   -0.2755 H   0  0  0  0  0  0  0  0  0  0  0  0
    2.8681   -3.1335    0.6282 H   0  0  0  0  0  0  0  0  0  0  0  0
    1.8254   -1.2337   -3.9581 H   0  0  0  0  0  0  0  0  0  0  0  0
  1 11  1  0
  1 13  1  0
  2  5  1  0
  2  4  1  0
  3 16  1  0
  3  5  1  0
  4 18  1  1
  4  1  1  0
  5 19  1  1
  5  8  1  0
  6  9  2  0
  6  3  1  0
  7  4  1  0
  8 23  1  0
 10  6  1  0
 12  1  1  0
 14  2  1  0
 15  2  1  0
 17  3  1  0
 20  7  1  0
 21  7  1  0
 22  8  1  0
 24 10  1  0
M  END
>  <HBA>  (114) 
4

>  <HBD>  (114) 
3

>  <TPSA>  (114) 
89.34

>  <cid>  (114) 
331

>  <dipole>  (114) 
4.76

>  <excitation_energy_1>  (114) 
5.262

>  <excitation_energy_2>  (114) 
5.457

>  <excitation_energy_3>  (114) 
5.587

>  <excitation_energy_4>  (114) 
5.725

>  <homo_energy>  (114) 
-6.215

>  <homo_lumo_gap>  (114) 
6.299

>  <logP>  (114) 
0.926

>  <lumo_energy>  (114) 
0.084

>  <melting_point>  (114) 
159.09

>  <molecular_refractivity>  (114) 
38.14

>  <oscillator_strength_1>  (114) 
0.0156

>  <oscillator_strength_2>  (114) 
0.0274

>  <oscillator_strength_3>  (114) 
0.0138

>  <oscillator_strength_4>  (114) 
0.0106

>  <open_babel_can_smiles>  (114) 
C[C@@H](C[C@@H](CC(=O)O)N)N

>  <mulliken_charges>  (114) 
24
1   -0.447183
2   -0.280348
3   -0.373145
4   0.034855
5   0.015804
6   0.590557
7   -0.706056
8   -0.705916
9   -0.441908
10   -0.563649
11   0.152675
12   0.134749
13   0.161332
14   0.102373
15   0.137088
16   0.171905
17   0.118628
18   0.155105
19   0.170366
20   0.285991
21   0.286947
22   0.291223
23   0.302362
24   0.406244

>  <lowdin_charges>  (114) 
24
1   -0.451803
2   -0.305174
3   -0.334459
4   -0.066227
5   -0.065933
6   0.193989
7   -0.551519
8   -0.541221
9   -0.243373
10   -0.358534
11   0.155636
12   0.145308
13   0.162174
14   0.128304
15   0.146334
16   0.171217
17   0.1385
18   0.152111
19   0.158454
20   0.249725
21   0.249511
22   0.252823
23   0.258635
24   0.355523

$$$$
PCCDB-ID:  332
     RDKit          3D

 21 21  0  0  0  0  0  0  0  0999 V2000
    2.4265    1.2594   -0.4054 C   0  0  0  0  0  0  0  0  0  0  0  0
    2.7101   -5.7998   -0.5814 C   0  0  0  0  0  0  0  0  0  0  0  0
    2.2268   -0.0185   -0.0577 C   0  0  0  0  0  0  0  0  0  0  0  0
    4.3215   -1.0768   -1.0108 C   0  0  0  0  0  0  0  0  0  0  0  0
    5.1017   -2.2060   -1.2366 C   0  0  0  0  0  0  0  0  0  0  0  0
    2.6871   -2.4488    0.0933 C   0  0  0  0  0  0  0  0  0  0  0  0
    3.0952   -1.1730   -0.3329 C   0  0  0  0  0  0  0  0  0  0  0  0
    4.6887   -3.4665   -0.7939 C   0  0  0  0  0  0  0  0  0  0  0  0
    3.4560   -3.5884   -0.1256 C   0  0  0  0  0  0  0  0  0  0  0  0
    5.4393   -4.5974   -0.9726 O   0  0  0  0  0  0  0  0  0  0  0  0
    3.0181   -4.7878    0.3807 O   0  0  0  0  0  0  0  0  0  0  0  0
    1.7068    2.0279   -0.1407 H   0  0  0  0  0  0  0  0  0  0  0  0
    3.3004    1.5915   -0.9598 H   0  0  0  0  0  0  0  0  0  0  0  0
    2.3235   -6.6476   -0.0111 H   0  0  0  0  0  0  0  0  0  0  0  0
    3.5983   -6.1086   -1.1409 H   0  0  0  0  0  0  0  0  0  0  0  0
    1.9381   -5.4512   -1.2807 H   0  0  0  0  0  0  0  0  0  0  0  0
    1.3195   -0.2610    0.4959 H   0  0  0  0  0  0  0  0  0  0  0  0
    4.6783   -0.1137   -1.3620 H   0  0  0  0  0  0  0  0  0  0  0  0
    6.0546   -2.1124   -1.7559 H   0  0  0  0  0  0  0  0  0  0  0  0
    1.7467   -2.5769    0.6223 H   0  0  0  0  0  0  0  0  0  0  0  0
    6.2590   -4.3552   -1.4310 H   0  0  0  0  0  0  0  0  0  0  0  0
  1 12  1  0
  1  3  2  3
  2 14  1  0
  2 11  1  0
  3 17  1  0
  4  7  2  0
  5  4  1  0
  5  8  2  0
  6 20  1  0
  7  3  1  0
  7  6  1  0
  8  9  1  0
  9  6  2  0
  9 11  1  0
 10  8  1  0
 13  1  1  0
 15  2  1  0
 16  2  1  0
 18  4  1  0
 19  5  1  0
 21 10  1  0
M  END
>  <HBA>  (115) 
2

>  <HBD>  (115) 
1

>  <TPSA>  (115) 
29.46

>  <cid>  (115) 
332

>  <dipole>  (115) 
2.23

>  <excitation_energy_1>  (115) 
4.548

>  <excitation_energy_2>  (115) 
4.572

>  <excitation_energy_3>  (115) 
4.807

>  <excitation_energy_4>  (115) 
5.426

>  <homo_energy>  (115) 
-5.529

>  <homo_lumo_gap>  (115) 
4.92

>  <logP>  (115) 
2.044

>  <lumo_energy>  (115) 
-0.61

>  <melting_point>  (115) 
43.53

>  <molecular_refractivity>  (115) 
45.05

>  <oscillator_strength_1>  (115) 
0.2444

>  <oscillator_strength_2>  (115) 
0.0644

>  <oscillator_strength_3>  (115) 
0.0008

>  <oscillator_strength_4>  (115) 
0.0263

>  <open_babel_can_smiles>  (115) 
COc1cc(C=C)ccc1O

>  <mulliken_charges>  (115) 
21
1   -0.356363
2   -0.214371
3   -0.114612
4   -0.188444
5   -0.198566
6   -0.257143
7   0.172282
8   0.3143
9   0.336078
10   -0.640107
11   -0.521723
12   0.142037
13   0.137179
14   0.158988
15   0.167788
16   0.139064
17   0.127454
18   0.128403
19   0.120673
20   0.136756
21   0.410329

>  <lowdin_charges>  (115) 
21
1   -0.34232
2   -0.279162
3   -0.143995
4   -0.153533
5   -0.204072
6   -0.170101
7   -0.016898
8   0.076361
9   0.067581
10   -0.372584
11   -0.222695
12   0.163051
13   0.154675
14   0.157252
15   0.152865
16   0.139631
17   0.154619
18   0.159458
19   0.153448
20   0.166089
21   0.36033

$$$$
PCCDB-ID:  335
     RDKit          3D

 16 16  0  0  0  0  0  0  0  0999 V2000
    1.0217   -0.0481    0.0004 C   0  0  0  0  0  0  0  0  0  0  0  0
    4.6498   -1.2759   -0.1975 C   0  0  0  0  0  0  0  0  0  0  0  0
    5.3425   -0.0687   -0.2609 C   0  0  0  0  0  0  0  0  0  0  0  0
    3.2545   -1.2636   -0.1140 C   0  0  0  0  0  0  0  0  0  0  0  0
    4.6412    1.1383   -0.2397 C   0  0  0  0  0  0  0  0  0  0  0  0
    2.5264   -0.0720   -0.0905 C   0  0  0  0  0  0  0  0  0  0  0  0
    3.2474    1.1342   -0.1555 C   0  0  0  0  0  0  0  0  0  0  0  0
    2.5122    2.2928   -0.1328 O   0  0  0  0  0  0  0  0  0  0  0  0
    0.6186   -1.0631    0.0678 H   0  0  0  0  0  0  0  0  0  0  0  0
    0.5761    0.4419   -0.8740 H   0  0  0  0  0  0  0  0  0  0  0  0
    0.6839    0.5165    0.8777 H   0  0  0  0  0  0  0  0  0  0  0  0
    5.1867   -2.2199   -0.2136 H   0  0  0  0  0  0  0  0  0  0  0  0
    6.4271   -0.0575   -0.3262 H   0  0  0  0  0  0  0  0  0  0  0  0
    2.7108   -2.2045   -0.0637 H   0  0  0  0  0  0  0  0  0  0  0  0
    5.1759    2.0859   -0.2887 H   0  0  0  0  0  0  0  0  0  0  0  0
    3.1188    3.0482   -0.1746 H   0  0  0  0  0  0  0  0  0  0  0  0
  1  9  1  0
  1 11  1  0
  2  4  2  0
  3  5  2  0
  3  2  1  0
  4  6  1  0
  4 14  1  0
  5  7  1  0
  6  1  1  0
  7  8  1  0
  7  6  2  0
 10  1  1  0
 12  2  1  0
 13  3  1  0
 15  5  1  0
 16  8  1  0
M  END
>  <HBA>  (116) 
1

>  <HBD>  (116) 
1

>  <TPSA>  (116) 
20.23

>  <cid>  (116) 
335

>  <dipole>  (116) 
1.16

>  <excitation_energy_1>  (116) 
5.051

>  <excitation_energy_2>  (116) 
5.122

>  <excitation_energy_3>  (116) 
5.752

>  <excitation_energy_4>  (116) 
5.773

>  <homo_energy>  (116) 
-5.823

>  <homo_lumo_gap>  (116) 
6.003

>  <logP>  (116) 
1.701

>  <lumo_energy>  (116) 
0.18

>  <melting_point>  (116) 
48.13

>  <molecular_refractivity>  (116) 
33.43

>  <oscillator_strength_1>  (116) 
0.0391

>  <oscillator_strength_2>  (116) 
0.0004

>  <oscillator_strength_3>  (116) 
0.0048

>  <oscillator_strength_4>  (116) 
0.019

>  <open_babel_can_smiles>  (116) 
Cc1ccccc1O

>  <mulliken_charges>  (116) 
16
1   -0.513116
2   -0.129797
3   -0.138704
4   -0.191932
5   -0.189462
6   0.141466
7   0.293503
8   -0.643533
9   0.146593
10   0.16599
11   0.166355
12   0.123406
13   0.12723
14   0.121487
15   0.11403
16   0.406484

>  <lowdin_charges>  (116) 
16
1   -0.437388
2   -0.179675
3   -0.149537
4   -0.158357
5   -0.214495
6   -0.026865
7   0.093562
8   -0.383597
9   0.153264
10   0.163841
11   0.164003
12   0.156376
13   0.155026
14   0.155011
15   0.151065
16   0.357766

$$$$
PCCDB-ID:  336
     RDKit          3D

 15 14  0  0  1  0  0  0  0  0999 V2000
    1.4129    0.2281    0.1575 C   0  0  1  0  0  0  0  0  0  0  0  0
    0.7463    0.9351    1.3607 C   0  0  0  0  0  0  0  0  0  0  0  0
    1.6021    0.6619   -2.2325 C   0  0  0  0  0  0  0  0  0  0  0  0
    2.0714   -0.4512   -2.6351 N   0  0  0  0  0  0  0  0  0  0  0  0
    1.4792    1.1489   -0.9322 N   0  0  0  0  0  0  0  0  0  0  0  0
    2.6958   -0.2869    0.5345 O   0  0  0  0  0  0  0  0  0  0  0  0
   -0.1000    1.7864    1.2341 O   0  0  0  0  0  0  0  0  0  0  0  0
    1.1827    0.4898    2.5446 O   0  0  0  0  0  0  0  0  0  0  0  0
    1.1506    1.5885   -3.1111 O   0  0  0  0  0  0  0  0  0  0  0  0
    0.8273   -0.6712   -0.0847 H   0  0  0  0  0  0  0  0  0  0  0  0
    2.4306   -1.0180   -1.8680 H   0  0  0  0  0  0  0  0  0  0  0  0
    0.8632    1.9502   -0.8250 H   0  0  0  0  0  0  0  0  0  0  0  0
    3.3284    0.4466    0.4268 H   0  0  0  0  0  0  0  0  0  0  0  0
    1.9300   -0.1185    2.3590 H   0  0  0  0  0  0  0  0  0  0  0  0
    1.3209    1.2115   -3.9925 H   0  0  0  0  0  0  0  0  0  0  0  0
  1 10  1  6
  1  6  1  0
  1  2  1  0
  2  8  1  0
  3  5  1  0
  4  3  2  0
  4 11  1  0
  5 12  1  0
  5  1  1  0
  7  2  2  0
  9  3  1  0
 13  6  1  0
 14  8  1  0
 15  9  1  0
M  END
>  <HBA>  (117) 
6

>  <HBD>  (117) 
4

>  <TPSA>  (117) 
112.65

>  <cid>  (117) 
336

>  <dipole>  (117) 
2.14

>  <excitation_energy_1>  (117) 
5.407

>  <excitation_energy_2>  (117) 
5.657

>  <excitation_energy_3>  (117) 
6.25

>  <excitation_energy_4>  (117) 
6.307

>  <homo_energy>  (117) 
-7.053

>  <homo_lumo_gap>  (117) 
6.544

>  <logP>  (117) 
-0.851

>  <lumo_energy>  (117) 
-0.509

>  <melting_point>  (117) 
184.36

>  <molecular_refractivity>  (117) 
25.57

>  <oscillator_strength_1>  (117) 
0.0067

>  <oscillator_strength_2>  (117) 
0.017

>  <oscillator_strength_3>  (117) 
0.0297

>  <oscillator_strength_4>  (117) 
0.0136

>  <open_babel_can_smiles>  (117) 
OC(=N)N[C@H](C(=O)O)O

>  <mulliken_charges>  (117) 
15
1   0.154616
2   0.574048
3   0.638416
4   -0.646748
5   -0.622759
6   -0.626456
7   -0.442081
8   -0.562709
9   -0.59756
10   0.194863
11   0.302045
12   0.366477
13   0.409435
14   0.432709
15   0.425705

>  <lowdin_charges>  (117) 
15
1   0.008712
2   0.16654
3   0.158154
4   -0.472025
5   -0.304322
6   -0.457043
7   -0.235434
8   -0.329389
9   -0.368309
10   0.165562
11   0.267432
12   0.304412
13   0.355703
14   0.368155
15   0.371853

$$$$
PCCDB-ID:  337
     RDKit          3D

 19 18  0  0  1  0  0  0  0  0999 V2000
    2.8074   -1.7039    1.0234 C   0  0  0  0  0  0  0  0  0  0  0  0
    1.9433   -0.6288   -2.4535 C   0  0  0  0  0  0  0  0  0  0  0  0
    2.2975   -0.3696    0.5373 C   0  0  0  0  0  0  0  0  0  0  0  0
    3.2837   -0.2178   -1.8291 C   0  0  2  0  0  0  0  0  0  0  0  0
    3.1580    0.4431   -0.4329 C   0  0  1  0  0  0  0  0  0  0  0  0
    2.1447   -1.0743   -3.7796 O   0  0  0  0  0  0  0  0  0  0  0  0
    1.2255    0.0967    0.8881 O   0  0  0  0  0  0  0  0  0  0  0  0
    3.9344    0.7016   -2.7027 O   0  0  0  0  0  0  0  0  0  0  0  0
    2.6077    1.7354   -0.5925 O   0  0  0  0  0  0  0  0  0  0  0  0
    3.0446   -2.3653    0.1816 H   0  0  0  0  0  0  0  0  0  0  0  0
    2.0579   -2.1757    1.6614 H   0  0  0  0  0  0  0  0  0  0  0  0
    3.7359   -1.5645    1.5912 H   0  0  0  0  0  0  0  0  0  0  0  0
    1.2476    0.2260   -2.4112 H   0  0  0  0  0  0  0  0  0  0  0  0
    1.4846   -1.4576   -1.9010 H   0  0  0  0  0  0  0  0  0  0  0  0
    3.9378   -1.0955   -1.7750 H   0  0  0  0  0  0  0  0  0  0  0  0
    4.1727    0.5390   -0.0194 H   0  0  0  0  0  0  0  0  0  0  0  0
    2.7720   -0.4356   -4.1635 H   0  0  0  0  0  0  0  0  0  0  0  0
    3.5157    1.5637   -2.5172 H   0  0  0  0  0  0  0  0  0  0  0  0
    1.7295    1.6947   -0.1601 H   0  0  0  0  0  0  0  0  0  0  0  0
  1 12  1  0
  1 11  1  0
  2 13  1  0
  2 14  1  0
  2  4  1  0
  3  7  2  0
  3  1  1  0
  4 15  1  1
  4  5  1  0
  5 16  1  1
  5  3  1  0
  6  2  1  0
  8 18  1  0
  8  4  1  0
  9  5  1  0
  9 19  1  0
 10  1  1  0
 17  6  1  0
M  END
>  <HBA>  (118) 
4

>  <HBD>  (118) 
3

>  <TPSA>  (118) 
77.76

>  <cid>  (118) 
337

>  <dipole>  (118) 
2.57

>  <excitation_energy_1>  (118) 
4.59

>  <excitation_energy_2>  (118) 
4.983

>  <excitation_energy_3>  (118) 
5.918

>  <excitation_energy_4>  (118) 
6.187

>  <homo_energy>  (118) 
-6.947

>  <homo_lumo_gap>  (118) 
5.723

>  <logP>  (118) 
-1.71

>  <lumo_energy>  (118) 
-1.225

>  <melting_point>  (118) 
51.35

>  <molecular_refractivity>  (118) 
29.83

>  <oscillator_strength_1>  (118) 
0.001

>  <oscillator_strength_2>  (118) 
0.0091

>  <oscillator_strength_3>  (118) 
0.0205

>  <oscillator_strength_4>  (118) 
0.0011

>  <open_babel_can_smiles>  (118) 
OC[C@H]([C@H](C(=O)C)O)O

>  <mulliken_charges>  (118) 
19
1   -0.539939
2   -0.03435
3   0.437707
4   0.102936
5   0.040347
6   -0.62525
7   -0.452643
8   -0.641132
9   -0.654498
10   0.188273
11   0.193992
12   0.185752
13   0.124615
14   0.137621
15   0.142328
16   0.159129
17   0.401525
18   0.4155
19   0.418088

>  <lowdin_charges>  (118) 
19
1   -0.472406
2   -0.158019
3   0.157827
4   -0.034719
5   -0.052381
6   -0.467499
7   -0.231999
8   -0.456424
9   -0.461408
10   0.17955
11   0.182868
12   0.180568
13   0.130159
14   0.146499
15   0.149146
16   0.158116
17   0.345495
18   0.351715
19   0.352913

$$$$
PCCDB-ID:  339
     RDKit          3D

 15 14  0  0  0  0  0  0  0  0999 V2000
    1.0637   -0.3571    0.2188 C   0  0  0  0  0  0  0  0  0  0  0  0
    0.5974   -1.0883   -1.0481 C   0  0  0  0  0  0  0  0  0  0  0  0
    2.4915   -0.0409    0.1070 N   0  0  0  0  0  0  0  0  0  0  0  0
   -1.4049   -2.2263   -2.4577 O   0  0  0  0  0  0  0  0  0  0  0  0
   -1.3239   -2.5166    0.1086 O   0  0  0  0  0  0  0  0  0  0  0  0
   -2.1108   -0.2425   -0.9350 O   0  0  0  0  0  0  0  0  0  0  0  0
   -1.1853   -1.3994   -1.0695 P   0  0  0  0  0  0  0  0  0  0  0  0
    0.8001   -0.9606    1.1031 H   0  0  0  0  0  0  0  0  0  0  0  0
    0.5147    0.5871    0.3010 H   0  0  0  0  0  0  0  0  0  0  0  0
    1.1103   -2.0516   -1.1628 H   0  0  0  0  0  0  0  0  0  0  0  0
    0.8399   -0.4859   -1.9299 H   0  0  0  0  0  0  0  0  0  0  0  0
    3.0398   -0.8967    0.1897 H   0  0  0  0  0  0  0  0  0  0  0  0
    2.7718    0.5474    0.8902 H   0  0  0  0  0  0  0  0  0  0  0  0
   -2.1684   -1.8579   -2.9337 H   0  0  0  0  0  0  0  0  0  0  0  0
   -2.2285   -2.5105    0.4650 H   0  0  0  0  0  0  0  0  0  0  0  0
  1  9  1  0
  1  8  1  0
  2  1  1  0
  3 12  1  0
  3  1  1  0
  3 13  1  0
  4  7  1  0
  5 15  1  0
  7  2  1  0
  7  6  2  0
  7  5  1  0
 10  2  1  0
 11  2  1  0
 14  4  1  0
M  END
>  <HBA>  (119) 
4

>  <HBD>  (119) 
3

>  <TPSA>  (119) 
93.36

>  <cid>  (119) 
339

>  <dipole>  (119) 
1.91

>  <excitation_energy_1>  (119) 
5.666

>  <excitation_energy_2>  (119) 
6.103

>  <excitation_energy_3>  (119) 
6.636

>  <excitation_energy_4>  (119) 
6.797

>  <homo_energy>  (119) 
-6.561

>  <homo_lumo_gap>  (119) 
7.728

>  <logP>  (119) 
-0.177

>  <lumo_energy>  (119) 
1.167

>  <melting_point>  (119) 
116.67

>  <molecular_refractivity>  (119) 
25.42

>  <oscillator_strength_1>  (119) 
0.0149

>  <oscillator_strength_2>  (119) 
0.0136

>  <oscillator_strength_3>  (119) 
0.0186

>  <oscillator_strength_4>  (119) 
0.0185

>  <open_babel_can_smiles>  (119) 
NCCP(=O)(O)O

>  <mulliken_charges>  (119) 
15
1   -0.156179
2   -0.463577
3   -0.716575
4   -0.650933
5   -0.653804
6   -0.567236
7   1.038654
8   0.141326
9   0.172241
10   0.183796
11   0.199912
12   0.295032
13   0.302538
14   0.43846
15   0.436346

>  <lowdin_charges>  (119) 
15
1   -0.203423
2   -0.456156
3   -0.556895
4   -0.583861
5   -0.57771
6   -0.610955
7   1.052008
8   0.133191
9   0.159697
10   0.180126
11   0.189188
12   0.253332
13   0.259146
14   0.383302
15   0.379012

$$$$
PCCDB-ID:  340
     RDKit          3D

 17 17  0  0  0  0  0  0  0  0999 V2000
    0.9194   -0.0276   -0.0584 C   0  0  0  0  0  0  0  0  0  0  0  0
    4.5362    1.1239    0.3801 C   0  0  0  0  0  0  0  0  0  0  0  0
    3.1529    1.1472    0.2338 C   0  0  0  0  0  0  0  0  0  0  0  0
    5.2120   -0.0985    0.3928 C   0  0  0  0  0  0  0  0  0  0  0  0
    2.4228   -0.0425    0.0985 C   0  0  0  0  0  0  0  0  0  0  0  0
    4.5077   -1.2939    0.2589 C   0  0  0  0  0  0  0  0  0  0  0  0
    3.1086   -1.2650    0.1108 C   0  0  0  0  0  0  0  0  0  0  0  0
    5.1063   -2.5243    0.2624 O   0  0  0  0  0  0  0  0  0  0  0  0
    2.4808   -2.4756   -0.0147 O   0  0  0  0  0  0  0  0  0  0  0  0
    0.5390    0.9974   -0.0490 H   0  0  0  0  0  0  0  0  0  0  0  0
    0.4114   -0.5665    0.7546 H   0  0  0  0  0  0  0  0  0  0  0  0
    0.5952   -0.4810   -1.0067 H   0  0  0  0  0  0  0  0  0  0  0  0
    5.0936    2.0501    0.4842 H   0  0  0  0  0  0  0  0  0  0  0  0
    2.6208    2.0949    0.2230 H   0  0  0  0  0  0  0  0  0  0  0  0
    6.2944   -0.1300    0.5074 H   0  0  0  0  0  0  0  0  0  0  0  0
    6.0612   -2.3964    0.3715 H   0  0  0  0  0  0  0  0  0  0  0  0
    1.5303   -2.3229   -0.1225 H   0  0  0  0  0  0  0  0  0  0  0  0
  1 10  1  0
  1  5  1  0
  1 11  1  0
  2  4  2  0
  2 13  1  0
  3  2  1  0
  4 15  1  0
  5  7  1  0
  5  3  2  0
  6  8  1  0
  6  4  1  0
  7  6  2  0
  8 16  1  0
  9  7  1  0
 12  1  1  0
 14  3  1  0
 17  9  1  0
M  END
>  <HBA>  (120) 
2

>  <HBD>  (120) 
2

>  <TPSA>  (120) 
40.46

>  <cid>  (120) 
340

>  <dipole>  (120) 
1.3

>  <excitation_energy_1>  (120) 
4.801

>  <excitation_energy_2>  (120) 
4.921

>  <excitation_energy_3>  (120) 
5.085

>  <excitation_energy_4>  (120) 
5.493

>  <homo_energy>  (120) 
-5.461

>  <homo_lumo_gap>  (120) 
5.755

>  <logP>  (120) 
1.406

>  <lumo_energy>  (120) 
0.294

>  <melting_point>  (120) 
89.1

>  <molecular_refractivity>  (120) 
35.45

>  <oscillator_strength_1>  (120) 
0.0014

>  <oscillator_strength_2>  (120) 
0.0417

>  <oscillator_strength_3>  (120) 
0.0001

>  <oscillator_strength_4>  (120) 
0.0075

>  <open_babel_can_smiles>  (120) 
Oc1c(C)cccc1O

>  <mulliken_charges>  (120) 
17
1   -0.578207
2   -0.134374
3   -0.198348
4   -0.201989
5   0.156123
6   0.324816
7   0.233232
8   -0.633951
9   -0.636538
10   0.170539
11   0.162357
12   0.161311
13   0.124302
14   0.11682
15   0.114817
16   0.405611
17   0.413481

>  <lowdin_charges>  (120) 
17
1   -0.453104
2   -0.169327
3   -0.181657
4   -0.20845
5   -0.044138
6   0.077427
7   0.067499
8   -0.369665
9   -0.371562
10   0.166759
11   0.157174
12   0.155668
13   0.157508
14   0.153762
15   0.1504
16   0.35525
17   0.356455

$$$$
PCCDB-ID:  342
     RDKit          3D

 16 16  0  0  0  0  0  0  0  0999 V2000
    0.9322   -0.1032    0.0855 C   0  0  0  0  0  0  0  0  0  0  0  0
    4.5633    1.0466   -0.1726 C   0  0  0  0  0  0  0  0  0  0  0  0
    3.1726    1.0760   -0.0654 C   0  0  0  0  0  0  0  0  0  0  0  0
    5.2443   -0.1668   -0.2553 C   0  0  0  0  0  0  0  0  0  0  0  0
    3.1236   -1.3346   -0.1226 C   0  0  0  0  0  0  0  0  0  0  0  0
    2.4389   -0.1178   -0.0384 C   0  0  0  0  0  0  0  0  0  0  0  0
    4.5159   -1.3613   -0.2298 C   0  0  0  0  0  0  0  0  0  0  0  0
    5.1153   -2.5905   -0.3074 O   0  0  0  0  0  0  0  0  0  0  0  0
    0.5406    0.9186    0.0697 H   0  0  0  0  0  0  0  0  0  0  0  0
    0.6045   -0.5715    1.0222 H   0  0  0  0  0  0  0  0  0  0  0  0
    0.4578   -0.6576   -0.7333 H   0  0  0  0  0  0  0  0  0  0  0  0
    5.1253    1.9767   -0.1932 H   0  0  0  0  0  0  0  0  0  0  0  0
    2.6530    2.0284   -0.0015 H   0  0  0  0  0  0  0  0  0  0  0  0
    6.3295   -0.1889   -0.3392 H   0  0  0  0  0  0  0  0  0  0  0  0
    2.5871   -2.2794   -0.1061 H   0  0  0  0  0  0  0  0  0  0  0  0
    6.0746   -2.4662   -0.3748 H   0  0  0  0  0  0  0  0  0  0  0  0
  1 10  1  0
  2  3  2  0
  3  6  1  0
  3 13  1  0
  4  7  2  0
  4  2  1  0
  5 15  1  0
  5  6  2  0
  6  1  1  0
  7  5  1  0
  8  7  1  0
  9  1  1  0
 11  1  1  0
 12  2  1  0
 14  4  1  0
 16  8  1  0
M  END
>  <HBA>  (121) 
1

>  <HBD>  (121) 
1

>  <TPSA>  (121) 
20.23

>  <cid>  (121) 
342

>  <dipole>  (121) 
1.06

>  <excitation_energy_1>  (121) 
4.996

>  <excitation_energy_2>  (121) 
5.201

>  <excitation_energy_3>  (121) 
5.763

>  <excitation_energy_4>  (121) 
5.794

>  <homo_energy>  (121) 
-5.878

>  <homo_lumo_gap>  (121) 
5.932

>  <logP>  (121) 
1.701

>  <lumo_energy>  (121) 
0.054

>  <melting_point>  (121) 
48.13

>  <molecular_refractivity>  (121) 
33.43

>  <oscillator_strength_1>  (121) 
0.0398

>  <oscillator_strength_2>  (121) 
0.0001

>  <oscillator_strength_3>  (121) 
0.0062

>  <oscillator_strength_4>  (121) 
0.0017

>  <open_babel_can_smiles>  (121) 
Cc1cccc(c1)O

>  <mulliken_charges>  (121) 
16
1   -0.529506
2   -0.130812
3   -0.1872
4   -0.19847
5   -0.211038
6   0.172564
7   0.352783
8   -0.644754
9   0.153837
10   0.16386
11   0.162327
12   0.12826
13   0.117687
14   0.11458
15   0.130098
16   0.405785

>  <lowdin_charges>  (121) 
16
1   -0.442285
2   -0.144885
3   -0.19301
4   -0.218172
5   -0.19802
6   0.013966
7   0.103701
8   -0.379258
9   0.155437
10   0.161676
11   0.161846
12   0.15782
13   0.153666
14   0.149548
15   0.163497
16   0.354475

$$$$
PCCDB-ID:  344
     RDKit          3D

 19 19  0  0  1  0  0  0  0  0999 V2000
    0.7372    1.2889   -0.2013 C   0  0  0  0  0  0  0  0  0  0  0  0
    1.3914    0.0200    0.3637 C   0  0  2  0  0  0  0  0  0  0  0  0
   -0.7605    1.3155    0.0803 C   0  0  0  0  0  0  0  0  0  0  0  0
    0.7394   -1.2537   -0.2136 C   0  0  2  0  0  0  0  0  0  0  0  0
   -1.5058   -0.0127   -0.2257 C   0  0  0  0  0  0  0  0  0  0  0  0
   -0.7694   -1.3166    0.1165 C   0  0  2  0  0  0  0  0  0  0  0  0
    1.2159   -0.0327    1.7912 O   0  0  0  0  0  0  0  0  0  0  0  0
   -1.3563    2.2919    0.4746 O   0  0  0  0  0  0  0  0  0  0  0  0
    1.3818   -2.4237    0.2376 O   0  0  0  0  0  0  0  0  0  0  0  0
   -2.6112    0.0131   -0.7184 O   0  0  0  0  0  0  0  0  0  0  0  0
   -0.9557   -1.6277    1.4994 O   0  0  0  0  0  0  0  0  0  0  0  0
    0.8805    1.3194   -1.2924 H   0  0  0  0  0  0  0  0  0  0  0  0
    1.1883    2.2000    0.2078 H   0  0  0  0  0  0  0  0  0  0  0  0
    2.4618   -0.0034    0.1222 H   0  0  0  0  0  0  0  0  0  0  0  0
    0.8685   -1.2181   -1.3034 H   0  0  0  0  0  0  0  0  0  0  0  0
   -1.2443   -2.1281   -0.4404 H   0  0  0  0  0  0  0  0  0  0  0  0
    1.6394    0.7419    2.1928 H   0  0  0  0  0  0  0  0  0  0  0  0
    0.9706   -2.6335    1.0956 H   0  0  0  0  0  0  0  0  0  0  0  0
   -0.4389   -0.9733    2.0099 H   0  0  0  0  0  0  0  0  0  0  0  0
  1  3  1  0
  1 13  1  0
  1  2  1  0
  2 14  1  1
  2  7  1  0
  3  8  2  0
  4 15  1  6
  4  6  1  0
  4  9  1  0
  4  2  1  0
  5  3  1  0
  5  6  1  0
  6 16  1  6
  6 11  1  0
  7 17  1  0
  9 18  1  0
 10  5  2  0
 11 19  1  0
 12  1  1  0
M  END
>  <HBA>  (122) 
5

>  <HBD>  (122) 
3

>  <TPSA>  (122) 
94.83

>  <cid>  (122) 
344

>  <dipole>  (122) 
4.7

>  <excitation_energy_1>  (122) 
2.61

>  <excitation_energy_2>  (122) 
3.954

>  <excitation_energy_3>  (122) 
4.496

>  <excitation_energy_4>  (122) 
5.058

>  <homo_energy>  (122) 
-6.631

>  <homo_lumo_gap>  (122) 
4.125

>  <logP>  (122) 
-2.389

>  <lumo_energy>  (122) 
-2.506

>  <melting_point>  (122) 
94.65

>  <molecular_refractivity>  (122) 
32.73

>  <oscillator_strength_1>  (122) 
0.0001

>  <oscillator_strength_2>  (122) 
0.0005

>  <oscillator_strength_3>  (122) 
0.0032

>  <oscillator_strength_4>  (122) 
0.0013

>  <open_babel_can_smiles>  (122) 
O[C@@H]1CC(=O)C(=O)[C@@H]([C@@H]1O)O

>  <mulliken_charges>  (122) 
19
1   -0.392871
2   0.098999
3   0.395739
4   0.105741
5   0.390413
6   0.026258
7   -0.646929
8   -0.399531
9   -0.624783
10   -0.399537
11   -0.637893
12   0.182116
13   0.173038
14   0.154928
15   0.14731
16   0.177652
17   0.413749
18   0.408698
19   0.426902

>  <lowdin_charges>  (122) 
19
1   -0.326684
2   -0.016869
3   0.13181
4   -0.032128
5   0.111984
6   -0.042522
7   -0.467102
8   -0.176675
9   -0.442465
10   -0.162842
11   -0.453544
12   0.17621
13   0.169498
14   0.149712
15   0.151578
16   0.171772
17   0.359179
18   0.349688
19   0.349402

$$$$
PCCDB-ID:  354
     RDKit          3D

 20 19  0  0  0  0  0  0  0  0999 V2000
    0.9760   -0.1741   -0.0260 C   0  0  0  0  0  0  0  0  0  0  0  0
    0.3638   -1.5120   -0.3052 C   0  0  0  0  0  0  0  0  0  0  0  0
    2.2888    0.1002   -0.0718 C   0  0  0  0  0  0  0  0  0  0  0  0
   -0.5917   -1.4620   -1.5258 C   0  0  0  0  0  0  0  0  0  0  0  0
    2.7787    1.4643    0.2139 C   0  0  0  0  0  0  0  0  0  0  0  0
   -1.2337   -2.8168   -1.8042 C   0  0  0  0  0  0  0  0  0  0  0  0
    4.3112    1.6294    0.1137 C   0  0  0  0  0  0  0  0  0  0  0  0
    2.0753    2.4128    0.5093 O   0  0  0  0  0  0  0  0  0  0  0  0
   -0.9622   -3.5155   -2.7457 O   0  0  0  0  0  0  0  0  0  0  0  0
   -2.1453   -3.2388   -0.8815 O   0  0  0  0  0  0  0  0  0  0  0  0
    4.7014    2.8881    0.3616 O   0  0  0  0  0  0  0  0  0  0  0  0
    5.0656    0.7200   -0.1585 O   0  0  0  0  0  0  0  0  0  0  0  0
    0.2967    0.6426    0.2226 H   0  0  0  0  0  0  0  0  0  0  0  0
   -0.1974   -1.8380    0.5838 H   0  0  0  0  0  0  0  0  0  0  0  0
    1.1422   -2.2622   -0.4818 H   0  0  0  0  0  0  0  0  0  0  0  0
    3.0289   -0.6550   -0.3166 H   0  0  0  0  0  0  0  0  0  0  0  0
   -0.0373   -1.1760   -2.4218 H   0  0  0  0  0  0  0  0  0  0  0  0
   -1.3719   -0.7063   -1.3582 H   0  0  0  0  0  0  0  0  0  0  0  0
   -2.2893   -2.5541   -0.2079 H   0  0  0  0  0  0  0  0  0  0  0  0
    5.6738    2.8965    0.2748 H   0  0  0  0  0  0  0  0  0  0  0  0
  1 13  1  0
  2  1  1  0
  2 14  1  0
  3  1  2  0
  3  5  1  0
  4 18  1  0
  4  2  1  0
  5  8  2  0
  6  4  1  0
  6 10  1  0
  7  5  1  0
  7 11  1  0
  9  6  2  0
 10 19  1  0
 12  7  2  0
 15  2  1  0
 16  3  1  0
 17  4  1  0
 20 11  1  0
M  END
>  <HBA>  (123) 
5

>  <HBD>  (123) 
2

>  <TPSA>  (123) 
91.67

>  <cid>  (123) 
354

>  <dipole>  (123) 
2.92

>  <excitation_energy_1>  (123) 
2.937

>  <excitation_energy_2>  (123) 
4.299

>  <excitation_energy_3>  (123) 
4.769

>  <excitation_energy_4>  (123) 
4.793

>  <homo_energy>  (123) 
-7.197

>  <homo_lumo_gap>  (123) 
4.444

>  <logP>  (123) 
0.061

>  <lumo_energy>  (123) 
-2.754

>  <melting_point>  (123) 
158.27

>  <molecular_refractivity>  (123) 
39.03

>  <oscillator_strength_1>  (123) 
0.0

>  <oscillator_strength_2>  (123) 
0.0909

>  <oscillator_strength_3>  (123) 
0.0535

>  <oscillator_strength_4>  (123) 
0.1299

>  <open_babel_can_smiles>  (123) 
OC(=O)CC/C=C/C(=O)C(=O)O

>  <mulliken_charges>  (123) 
20
1   -0.058025
2   -0.330652
3   -0.173268
4   -0.3828
5   0.367887
6   0.592043
7   0.52784
8   -0.437009
9   -0.425216
10   -0.559682
11   -0.539563
12   -0.446786
13   0.170001
14   0.154588
15   0.18169
16   0.175087
17   0.195107
18   0.161568
19   0.409292
20   0.4179

>  <lowdin_charges>  (123) 
20
1   -0.086683
2   -0.270282
3   -0.210485
4   -0.314013
5   0.129995
6   0.195435
7   0.16535
8   -0.2009
9   -0.228225
10   -0.35954
11   -0.315994
12   -0.247278
13   0.172315
14   0.155428
15   0.167688
16   0.181723
17   0.180744
18   0.159984
19   0.358512
20   0.366228

$$$$
PCCDB-ID:  355
     RDKit          3D

 18 18  0  0  0  0  0  0  0  0999 V2000
   -0.8136    0.7259    0.4428 C   0  0  0  0  0  0  0  0  0  0  0  0
    1.0406   -0.4748   -0.5663 C   0  0  0  0  0  0  0  0  0  0  0  0
   -1.5280   -0.4619    0.5220 C   0  0  0  0  0  0  0  0  0  0  0  0
    0.3333   -1.6592   -0.4900 C   0  0  0  0  0  0  0  0  0  0  0  0
    0.4856    0.7403   -0.1038 C   0  0  0  0  0  0  0  0  0  0  0  0
   -0.9611   -1.6567    0.0573 C   0  0  0  0  0  0  0  0  0  0  0  0
    1.3073    1.9464   -0.2245 C   0  0  0  0  0  0  0  0  0  0  0  0
    0.8096    3.3480    0.2461 C   0  0  0  0  0  0  0  0  0  0  0  0
   -1.6121   -2.8450    0.1092 O   0  0  0  0  0  0  0  0  0  0  0  0
    2.4439    1.9389   -0.7033 O   0  0  0  0  0  0  0  0  0  0  0  0
   -0.2639    3.5929    0.7465 O   0  0  0  0  0  0  0  0  0  0  0  0
    1.7426    4.2764    0.0232 O   0  0  0  0  0  0  0  0  0  0  0  0
   -1.2515    1.6485    0.8003 H   0  0  0  0  0  0  0  0  0  0  0  0
    2.0410   -0.4590   -0.9854 H   0  0  0  0  0  0  0  0  0  0  0  0
   -2.5305   -0.4654    0.9452 H   0  0  0  0  0  0  0  0  0  0  0  0
    0.7516   -2.5957   -0.8439 H   0  0  0  0  0  0  0  0  0  0  0  0
   -2.4908   -2.7168    0.5016 H   0  0  0  0  0  0  0  0  0  0  0  0
    2.4979    3.7917   -0.3866 H   0  0  0  0  0  0  0  0  0  0  0  0
  1  3  2  0
  1 13  1  0
  2  4  1  0
  2  5  2  0
  3 15  1  0
  4  6  2  0
  5  1  1  0
  6  9  1  0
  6  3  1  0
  7  5  1  0
  7  8  1  0
  8 11  2  0
  9 17  1  0
 10  7  2  0
 12  8  1  0
 14  2  1  0
 16  4  1  0
 18 12  1  0
M  END
>  <HBA>  (124) 
4

>  <HBD>  (124) 
2

>  <TPSA>  (124) 
74.6

>  <cid>  (124) 
355

>  <dipole>  (124) 
4.14

>  <excitation_energy_1>  (124) 
3.136

>  <excitation_energy_2>  (124) 
3.964

>  <excitation_energy_3>  (124) 
4.123

>  <excitation_energy_4>  (124) 
4.937

>  <homo_energy>  (124) 
-6.814

>  <homo_lumo_gap>  (124) 
4.256

>  <logP>  (124) 
0.659

>  <lumo_energy>  (124) 
-2.558

>  <melting_point>  (124) 
156.34

>  <molecular_refractivity>  (124) 
40.43

>  <oscillator_strength_1>  (124) 
0.0

>  <oscillator_strength_2>  (124) 
0.3162

>  <oscillator_strength_3>  (124) 
0.0076

>  <oscillator_strength_4>  (124) 
0.0

>  <open_babel_can_smiles>  (124) 
Oc1ccc(cc1)C(=O)C(=O)O

>  <mulliken_charges>  (124) 
18
1   -0.169004
2   -0.152327
3   -0.206164
4   -0.161586
5   0.065214
6   0.372446
7   0.303448
8   0.57311
9   -0.622476
10   -0.504617
11   -0.451172
12   -0.566835
13   0.201907
14   0.171871
15   0.136471
16   0.156072
17   0.417773
18   0.435869

>  <lowdin_charges>  (124) 
18
1   -0.11777
2   -0.106357
3   -0.212427
4   -0.182523
5   -0.068276
6   0.127145
7   0.120597
8   0.162622
9   -0.349912
10   -0.256653
11   -0.233381
12   -0.328705
13   0.194277
14   0.17975
15   0.160737
16   0.17543
17   0.364421
18   0.371025

$$$$
PCCDB-ID:  356
     RDKit          3D

 26 25  0  0  0  0  0  0  0  0999 V2000
    3.6812    2.6735   -0.2366 C   0  0  0  0  0  0  0  0  0  0  0  0
    5.0132   -4.8404    3.4359 C   0  0  0  0  0  0  0  0  0  0  0  0
    4.0782    1.2103   -0.0141 C   0  0  0  0  0  0  0  0  0  0  0  0
    4.6324   -3.3719    3.2200 C   0  0  0  0  0  0  0  0  0  0  0  0
    4.4146    0.8982    1.4511 C   0  0  0  0  0  0  0  0  0  0  0  0
    4.2715   -3.0565    1.7612 C   0  0  0  0  0  0  0  0  0  0  0  0
    4.8825   -0.5432    1.7170 C   0  0  0  0  0  0  0  0  0  0  0  0
    3.8012   -1.6142    1.5056 C   0  0  0  0  0  0  0  0  0  0  0  0
    3.4500    2.8706   -1.2898 H   0  0  0  0  0  0  0  0  0  0  0  0
    4.4895    3.3536    0.0597 H   0  0  0  0  0  0  0  0  0  0  0  0
    2.7949    2.9379    0.3535 H   0  0  0  0  0  0  0  0  0  0  0  0
    5.2654   -5.0395    4.4839 H   0  0  0  0  0  0  0  0  0  0  0  0
    5.8821   -5.1183    2.8265 H   0  0  0  0  0  0  0  0  0  0  0  0
    4.1887   -5.5090    3.1590 H   0  0  0  0  0  0  0  0  0  0  0  0
    4.9474    0.9671   -0.6425 H   0  0  0  0  0  0  0  0  0  0  0  0
    3.2630    0.5608   -0.3587 H   0  0  0  0  0  0  0  0  0  0  0  0
    5.4628   -2.7331    3.5480 H   0  0  0  0  0  0  0  0  0  0  0  0
    3.7786   -3.1167    3.8646 H   0  0  0  0  0  0  0  0  0  0  0  0
    3.5365    1.1160    2.0779 H   0  0  0  0  0  0  0  0  0  0  0  0
    5.2012    1.5908    1.7838 H   0  0  0  0  0  0  0  0  0  0  0  0
    3.4780   -3.7471    1.4409 H   0  0  0  0  0  0  0  0  0  0  0  0
    5.1382   -3.2751    1.1191 H   0  0  0  0  0  0  0  0  0  0  0  0
    5.2549   -0.6012    2.7480 H   0  0  0  0  0  0  0  0  0  0  0  0
    5.7440   -0.7683    1.0697 H   0  0  0  0  0  0  0  0  0  0  0  0
    2.9428   -1.3933    2.1584 H   0  0  0  0  0  0  0  0  0  0  0  0
    3.4229   -1.5516    0.4769 H   0  0  0  0  0  0  0  0  0  0  0  0
  1  3  1  0
  1 10  1  0
  1 11  1  0
  2 12  1  0
  3  5  1  0
  4  2  1  0
  4 17  1  0
  4 18  1  0
  5  7  1  0
  5 20  1  0
  5 19  1  0
  6  4  1  0
  7 23  1  0
  8  7  1  0
  8  6  1  0
  8 25  1  0
  9  1  1  0
 13  2  1  0
 14  2  1  0
 15  3  1  0
 16  3  1  0
 21  6  1  0
 22  6  1  0
 24  7  1  0
 26  8  1  0
M  END
>  <HBA>  (125) 
0

>  <HBD>  (125) 
0

>  <TPSA>  (125) 
0.0

>  <cid>  (125) 
356

>  <dipole>  (125) 
0.0

>  <excitation_energy_1>  (125) 
7.738

>  <excitation_energy_2>  (125) 
7.922

>  <excitation_energy_3>  (125) 
7.941

>  <excitation_energy_4>  (125) 
7.995

>  <homo_energy>  (125) 
-8.109

>  <homo_lumo_gap>  (125) 
10.653

>  <logP>  (125) 
3.367

>  <lumo_energy>  (125) 
2.544

>  <melting_point>  (125) 
-27.89

>  <molecular_refractivity>  (125) 
40.57

>  <oscillator_strength_1>  (125) 
0.0

>  <oscillator_strength_2>  (125) 
0.019

>  <oscillator_strength_3>  (125) 
0.0

>  <oscillator_strength_4>  (125) 
0.0138

>  <open_babel_can_smiles>  (125) 
CCCCCCCC

>  <mulliken_charges>  (125) 
26
1   -0.441267
2   -0.441288
3   -0.248503
4   -0.248406
5   -0.247525
6   -0.247497
7   -0.256159
8   -0.256339
9   0.140659
10   0.140587
11   0.141025
12   0.140641
13   0.141002
14   0.140602
15   0.128645
16   0.135404
17   0.135473
18   0.12855
19   0.125339
20   0.125556
21   0.125497
22   0.125388
23   0.131815
24   0.124501
25   0.124606
26   0.131692

>  <lowdin_charges>  (125) 
26
1   -0.44431
2   -0.444424
3   -0.276315
4   -0.276364
5   -0.276871
6   -0.276879
7   -0.277175
8   -0.277191
9   0.147346
10   0.146443
11   0.146517
12   0.147411
13   0.146616
14   0.146393
15   0.138512
16   0.140841
17   0.140873
18   0.138555
19   0.137393
20   0.140353
21   0.14028
22   0.13743
23   0.140412
24   0.136915
25   0.13692
26   0.140317

$$$$
PCCDB-ID:  358
     RDKit          3D

 21 20  0  0  1  0  0  0  0  0999 V2000
    0.8161   -0.5617    0.2681 C   0  0  0  0  0  0  0  0  0  0  0  0
    2.6567    1.1420   -0.1669 C   0  0  0  0  0  0  0  0  0  0  0  0
    2.6907    2.5547   -2.3389 C   0  0  0  0  0  0  0  0  0  0  0  0
    2.2922   -0.2151    0.4780 C   0  0  1  0  0  0  0  0  0  0  0  0
    2.6421    1.1827   -1.6807 C   0  0  0  0  0  0  0  0  0  0  0  0
    3.3896    2.6599   -3.7083 C   0  0  0  0  0  0  0  0  0  0  0  0
    2.5954   -0.2753    1.9122 N   0  0  0  0  0  0  0  0  0  0  0  0
    2.5909    0.1608   -2.3570 O   0  0  0  0  0  0  0  0  0  0  0  0
    3.9066    3.6907   -4.0627 O   0  0  0  0  0  0  0  0  0  0  0  0
    3.3381    1.5715   -4.4869 O   0  0  0  0  0  0  0  0  0  0  0  0
    0.5689   -0.6138   -0.7960 H   0  0  0  0  0  0  0  0  0  0  0  0
    0.1677    0.1918    0.7367 H   0  0  0  0  0  0  0  0  0  0  0  0
    0.5937   -1.5283    0.7283 H   0  0  0  0  0  0  0  0  0  0  0  0
    3.6769    1.4380    0.1292 H   0  0  0  0  0  0  0  0  0  0  0  0
    2.0059    1.9434    0.2154 H   0  0  0  0  0  0  0  0  0  0  0  0
    3.1308    3.3050   -1.6776 H   0  0  0  0  0  0  0  0  0  0  0  0
    1.6437    2.8596   -2.4944 H   0  0  0  0  0  0  0  0  0  0  0  0
    2.8993   -0.9868   -0.0089 H   0  0  0  0  0  0  0  0  0  0  0  0
    2.0726    0.4442    2.4121 H   0  0  0  0  0  0  0  0  0  0  0  0
    3.5824   -0.0829    2.0784 H   0  0  0  0  0  0  0  0  0  0  0  0
    2.9659    0.8208   -3.9634 H   0  0  0  0  0  0  0  0  0  0  0  0
  1  4  1  0
  1 13  1  0
  1 12  1  0
  2 14  1  0
  2 15  1  0
  2  4  1  0
  3  5  1  0
  3 16  1  0
  4 18  1  6
  4  7  1  0
  5  2  1  0
  6  3  1  0
  7 20  1  0
  7 19  1  0
  8  5  2  0
  9  6  2  0
 10 21  1  0
 10  6  1  0
 11  1  1  0
 17  3  1  0
M  END
>  <HBA>  (126) 
4

>  <HBD>  (126) 
2

>  <TPSA>  (126) 
80.39

>  <cid>  (126) 
358

>  <dipole>  (126) 
4.73

>  <excitation_energy_1>  (126) 
4.197

>  <excitation_energy_2>  (126) 
4.906

>  <excitation_energy_3>  (126) 
5.227

>  <excitation_energy_4>  (126) 
5.539

>  <homo_energy>  (126) 
-6.705

>  <homo_lumo_gap>  (126) 
5.219

>  <logP>  (126) 
0.468

>  <lumo_energy>  (126) 
-1.486

>  <melting_point>  (126) 
126.24

>  <molecular_refractivity>  (126) 
35.64

>  <oscillator_strength_1>  (126) 
0.0005

>  <oscillator_strength_2>  (126) 
0.002

>  <oscillator_strength_3>  (126) 
0.0237

>  <oscillator_strength_4>  (126) 
0.0125

>  <open_babel_can_smiles>  (126) 
C[C@@H](CC(=O)CC(=O)O)N

>  <mulliken_charges>  (126) 
21
1   -0.448518
2   -0.375334
3   -0.48769
4   0.034085
5   0.480047
6   0.60494
7   -0.703465
8   -0.475735
9   -0.446089
10   -0.575617
11   0.161075
12   0.129961
13   0.171198
14   0.172622
15   0.159487
16   0.197604
17   0.217144
18   0.160498
19   0.29034
20   0.295696
21   0.437751

>  <lowdin_charges>  (126) 
21
1   -0.449329
2   -0.324589
3   -0.3536
4   -0.0608
5   0.181185
6   0.190685
7   -0.544518
8   -0.248286
9   -0.246353
10   -0.35449
11   0.157536
12   0.142856
13   0.165871
14   0.17142
15   0.162304
16   0.18636
17   0.200446
18   0.15562
19   0.252577
20   0.252476
21   0.362628

$$$$
PCCDB-ID:  359
     RDKit          3D

 15 15  0  0  0  0  0  0  0  0999 V2000
   -0.6953    1.2184   -0.0020 C   0  0  0  0  0  0  0  0  0  0  0  0
   -0.6965   -1.2133   -0.0026 C   0  0  0  0  0  0  0  0  0  0  0  0
    1.4154    0.0036    0.0015 C   0  0  0  0  0  0  0  0  0  0  0  0
   -1.3837    0.0019   -0.0031 C   0  0  0  0  0  0  0  0  0  0  0  0
    0.7058    1.2031    0.0001 C   0  0  0  0  0  0  0  0  0  0  0  0
    0.7013   -1.1967   -0.0003 C   0  0  0  0  0  0  0  0  0  0  0  0
   -2.7499   -0.0602   -0.0050 O   0  0  0  0  0  0  0  0  0  0  0  0
    1.4382    2.3576    0.0013 O   0  0  0  0  0  0  0  0  0  0  0  0
    1.4339   -2.3501    0.0006 O   0  0  0  0  0  0  0  0  0  0  0  0
   -1.2390    2.1621   -0.0022 H   0  0  0  0  0  0  0  0  0  0  0  0
   -1.2582   -2.1430   -0.0027 H   0  0  0  0  0  0  0  0  0  0  0  0
    2.4986    0.0027    0.0052 H   0  0  0  0  0  0  0  0  0  0  0  0
   -3.1061    0.8414    0.0007 H   0  0  0  0  0  0  0  0  0  0  0  0
    0.8334    3.1151   -0.0007 H   0  0  0  0  0  0  0  0  0  0  0  0
    0.8265   -3.1059    0.0036 H   0  0  0  0  0  0  0  0  0  0  0  0
  1  5  2  0
  2  6  1  0
  3 12  1  0
  4  2  2  0
  4  1  1  0
  5  8  1  0
  5  3  1  0
  6  9  1  0
  6  3  2  0
  7  4  1  0
  7 13  1  0
  9 15  1  0
 10  1  1  0
 11  2  1  0
 14  8  1  0
M  END
>  <HBA>  (127) 
3

>  <HBD>  (127) 
3

>  <TPSA>  (127) 
60.69

>  <cid>  (127) 
359

>  <dipole>  (127) 
2.72

>  <excitation_energy_1>  (127) 
5.004

>  <excitation_energy_2>  (127) 
5.071

>  <excitation_energy_3>  (127) 
5.084

>  <excitation_energy_4>  (127) 
5.313

>  <homo_energy>  (127) 
-5.785

>  <homo_lumo_gap>  (127) 
6.373

>  <logP>  (127) 
0.803

>  <lumo_energy>  (127) 
0.588

>  <melting_point>  (127) 
125.24

>  <molecular_refractivity>  (127) 
32.51

>  <oscillator_strength_1>  (127) 
0.0006

>  <oscillator_strength_2>  (127) 
0.0018

>  <oscillator_strength_3>  (127) 
0.0013

>  <oscillator_strength_4>  (127) 
0.0011

>  <open_babel_can_smiles>  (127) 
Oc1cc(O)cc(c1)O

>  <mulliken_charges>  (127) 
15
1   -0.287702
2   -0.251922
3   -0.21336
4   0.364732
5   0.364774
6   0.363801
7   -0.647505
8   -0.645187
9   -0.645451
10   0.102113
11   0.125222
12   0.145737
13   0.408167
14   0.407206
15   0.409375

>  <lowdin_charges>  (127) 
15
1   -0.297169
2   -0.270051
3   -0.238543
4   0.125423
5   0.123681
6   0.123871
7   -0.377175
8   -0.375147
9   -0.374534
10   0.148035
11   0.163246
12   0.174761
13   0.356608
14   0.357723
15   0.359272

$$$$
PCCDB-ID:  361
     RDKit          3D

 17 17  0  0  1  0  0  0  0  0999 V2000
   -1.3268   -0.3540    0.2310 C   0  0  0  0  0  0  0  0  0  0  0  0
    1.0420   -1.0440   -0.2733 C   0  0  0  0  0  0  0  0  0  0  0  0
    0.4423    1.4118   -0.2751 C   0  0  0  0  0  0  0  0  0  0  0  0
   -0.4018   -1.3248    0.0351 C   0  0  0  0  0  0  0  0  0  0  0  0
   -0.9997    1.0703    0.1100 C   0  0  0  0  0  0  0  0  0  0  0  0
    1.4561    0.3621    0.1975 C   0  0  1  0  0  0  0  0  0  0  0  0
   -0.6716   -2.6485    0.0931 O   0  0  0  0  0  0  0  0  0  0  0  0
   -1.8384    1.9453    0.2821 O   0  0  0  0  0  0  0  0  0  0  0  0
    1.6399    0.4015    1.6095 O   0  0  0  0  0  0  0  0  0  0  0  0
   -2.3622   -0.5958    0.4646 H   0  0  0  0  0  0  0  0  0  0  0  0
    1.1999   -1.1497   -1.3566 H   0  0  0  0  0  0  0  0  0  0  0  0
    1.6678   -1.7983    0.2150 H   0  0  0  0  0  0  0  0  0  0  0  0
    0.6862    2.3970    0.1316 H   0  0  0  0  0  0  0  0  0  0  0  0
    0.4782    1.4919   -1.3720 H   0  0  0  0  0  0  0  0  0  0  0  0
    2.4443    0.5932   -0.2113 H   0  0  0  0  0  0  0  0  0  0  0  0
   -1.6215   -2.7767    0.2610 H   0  0  0  0  0  0  0  0  0  0  0  0
    0.7759    0.2448    2.0253 H   0  0  0  0  0  0  0  0  0  0  0  0
  1 10  1  0
  2  4  1  0
  2  6  1  0
  2 12  1  0
  3  5  1  0
  3 13  1  0
  3  6  1  0
  4  7  1  0
  4  1  2  0
  5  1  1  0
  5  8  2  0
  6 15  1  6
  6  9  1  0
  7 16  1  0
  9 17  1  0
 11  2  1  0
 14  3  1  0
M  END
>  <HBA>  (128) 
3

>  <HBD>  (128) 
2

>  <TPSA>  (128) 
57.53

>  <cid>  (128) 
361

>  <dipole>  (128) 
3.47

>  <excitation_energy_1>  (128) 
3.859

>  <excitation_energy_2>  (128) 
5.471

>  <excitation_energy_3>  (128) 
5.598

>  <excitation_energy_4>  (128) 
5.737

>  <homo_energy>  (128) 
-6.49

>  <homo_lumo_gap>  (128) 
5.336

>  <logP>  (128) 
0.152

>  <lumo_energy>  (128) 
-1.154

>  <melting_point>  (128) 
60.52

>  <molecular_refractivity>  (128) 
31.3

>  <oscillator_strength_1>  (128) 
0.0001

>  <oscillator_strength_2>  (128) 
0.0913

>  <oscillator_strength_3>  (128) 
0.1807

>  <oscillator_strength_4>  (128) 
0.0977

>  <open_babel_can_smiles>  (128) 
O[C@H]1CC(=CC(=O)C1)O

>  <mulliken_charges>  (128) 
17
1   -0.281424
2   -0.341929
3   -0.365368
4   0.371797
5   0.429854
6   0.102075
7   -0.600289
8   -0.48844
9   -0.61637
10   0.133099
11   0.171845
12   0.185133
13   0.180378
14   0.1631
15   0.147273
16   0.417925
17   0.391341

>  <lowdin_charges>  (128) 
17
1   -0.294812
2   -0.298526
3   -0.32124
4   0.126563
5   0.143304
6   0.002138
7   -0.342787
8   -0.262004
9   -0.460597
10   0.164717
11   0.168854
12   0.176999
13   0.174347
14   0.166862
15   0.152379
16   0.362693
17   0.341111

$$$$
PCCDB-ID:  362
     RDKit          3D

 22 23  0  0  1  0  0  0  0  0999 V2000
   -2.4944   -0.6989   -0.2112 C   0  0  0  0  0  0  0  0  0  0  0  0
   -2.4954    0.6954   -0.2743 C   0  0  0  0  0  0  0  0  0  0  0  0
   -1.2986   -1.3875   -0.0074 C   0  0  0  0  0  0  0  0  0  0  0  0
   -1.2952    1.3960   -0.1272 C   0  0  0  0  0  0  0  0  0  0  0  0
    1.1861   -1.4006    0.3309 C   0  0  0  0  0  0  0  0  0  0  0  0
    2.3646   -0.7688    0.2196 C   0  0  0  0  0  0  0  0  0  0  0  0
   -0.0873   -0.6953    0.1262 C   0  0  0  0  0  0  0  0  0  0  0  0
   -0.0929    0.7172    0.0657 C   0  0  0  0  0  0  0  0  0  0  0  0
    2.4416    0.6924   -0.1717 C   0  0  1  0  0  0  0  0  0  0  0  0
    1.2007    1.4638    0.3191 C   0  0  2  0  0  0  0  0  0  0  0  0
    3.6197    1.3199    0.3063 O   0  0  0  0  0  0  0  0  0  0  0  0
    1.3635    1.7576    1.7248 O   0  0  0  0  0  0  0  0  0  0  0  0
   -3.4242   -1.2505   -0.3209 H   0  0  0  0  0  0  0  0  0  0  0  0
   -3.4241    1.2357   -0.4347 H   0  0  0  0  0  0  0  0  0  0  0  0
   -1.2979   -2.4741    0.0409 H   0  0  0  0  0  0  0  0  0  0  0  0
   -1.2921    2.4830   -0.1598 H   0  0  0  0  0  0  0  0  0  0  0  0
    1.1409   -2.4646    0.5557 H   0  0  0  0  0  0  0  0  0  0  0  0
    3.3098   -1.2882    0.3547 H   0  0  0  0  0  0  0  0  0  0  0  0
    2.4784    0.7533   -1.2703 H   0  0  0  0  0  0  0  0  0  0  0  0
    1.1843    2.4478   -0.1575 H   0  0  0  0  0  0  0  0  0  0  0  0
    3.3819    1.6359    1.1983 H   0  0  0  0  0  0  0  0  0  0  0  0
    1.1731    0.9357    2.2083 H   0  0  0  0  0  0  0  0  0  0  0  0
  1  3  2  0
  2  1  1  0
  2  4  2  0
  3 15  1  0
  3  7  1  0
  4  8  1  0
  5 17  1  0
  6  5  2  0
  6 18  1  0
  7  5  1  0
  8  7  2  0
  8 10  1  0
  9 19  1  6
  9  6  1  0
  9 11  1  0
  9 10  1  0
 10 20  1  6
 10 12  1  0
 11 21  1  0
 12 22  1  0
 13  1  1  0
 14  2  1  0
 16  4  1  0
M  END
>  <HBA>  (129) 
2

>  <HBD>  (129) 
2

>  <TPSA>  (129) 
40.46

>  <cid>  (129) 
362

>  <dipole>  (129) 
2.72

>  <excitation_energy_1>  (129) 
4.419

>  <excitation_energy_2>  (129) 
4.692

>  <excitation_energy_3>  (129) 
5.136

>  <excitation_energy_4>  (129) 
5.552

>  <homo_energy>  (129) 
-6.128

>  <homo_lumo_gap>  (129) 
4.999

>  <logP>  (129) 
1.108

>  <lumo_energy>  (129) 
-1.129

>  <melting_point>  (129) 
90.83

>  <molecular_refractivity>  (129) 
46.52

>  <oscillator_strength_1>  (129) 
0.118

>  <oscillator_strength_2>  (129) 
0.0187

>  <oscillator_strength_3>  (129) 
0.0225

>  <oscillator_strength_4>  (129) 
0.3473

>  <open_babel_can_smiles>  (129) 
O[C@H]1C=Cc2c([C@H]1O)cccc2

>  <mulliken_charges>  (129) 
22
1   -0.12719
2   -0.12967
3   -0.195557
4   -0.184312
5   -0.14959
6   -0.180746
7   0.109689
8   0.092332
9   0.126157
10   -0.010071
11   -0.643904
12   -0.627871
13   0.134516
14   0.134559
15   0.132115
16   0.13683
17   0.132139
18   0.146253
19   0.153058
20   0.152557
21   0.401087
22   0.397618

>  <lowdin_charges>  (129) 
22
1   -0.150463
2   -0.156803
3   -0.157741
4   -0.147087
5   -0.173743
6   -0.176391
7   -0.011799
8   -0.033261
9   -0.018
10   -0.012848
11   -0.460732
12   -0.461662
13   0.16069
14   0.161047
15   0.156305
16   0.159452
17   0.157377
18   0.167006
19   0.152887
20   0.156819
21   0.341936
22   0.347009

$$$$
PCCDB-ID:  363
     RDKit          3D

  9  8  0  0  0  0  0  0  0  0999 V2000
    0.9749   -0.1023    0.1430 C   0  0  0  0  0  0  0  0  0  0  0  0
    0.4945   -1.0754   -0.9233 C   0  0  0  0  0  0  0  0  0  0  0  0
    2.4061    0.1532   -0.0066 N   0  0  0  0  0  0  0  0  0  0  0  0
   -0.4367   -1.8352   -0.7808 O   0  0  0  0  0  0  0  0  0  0  0  0
    0.6386   -0.4719    1.1250 H   0  0  0  0  0  0  0  0  0  0  0  0
    0.4404    0.8410   -0.0439 H   0  0  0  0  0  0  0  0  0  0  0  0
    1.0726   -1.0212   -1.8724 H   0  0  0  0  0  0  0  0  0  0  0  0
    2.9451   -0.6226    0.3730 H   0  0  0  0  0  0  0  0  0  0  0  0
    2.6768    0.9784    0.5221 H   0  0  0  0  0  0  0  0  0  0  0  0
  1  5  1  0
  2  4  2  0
  2  1  1  0
  3  1  1  0
  3  8  1  0
  3  9  1  0
  6  1  1  0
  7  2  1  0
M  END
>  <HBA>  (130) 
2

>  <HBD>  (130) 
1

>  <TPSA>  (130) 
43.09

>  <cid>  (130) 
363

>  <dipole>  (130) 
3.0

>  <excitation_energy_1>  (130) 
4.16

>  <excitation_energy_2>  (130) 
5.122

>  <excitation_energy_3>  (130) 
6.062

>  <excitation_energy_4>  (130) 
6.46

>  <homo_energy>  (130) 
-6.735

>  <homo_lumo_gap>  (130) 
6.041

>  <logP>  (130) 
-0.156

>  <lumo_energy>  (130) 
-0.694

>  <melting_point>  (130) 
62.07

>  <molecular_refractivity>  (130) 
14.64

>  <oscillator_strength_1>  (130) 
0.0001

>  <oscillator_strength_2>  (130) 
0.0089

>  <oscillator_strength_3>  (130) 
0.0051

>  <oscillator_strength_4>  (130) 
0.0088

>  <open_babel_can_smiles>  (130) 
NCC=O

>  <mulliken_charges>  (130) 
9
1   -0.217899
2   0.256386
3   -0.721366
4   -0.38315
5   0.15412
6   0.1751
7   0.119632
8   0.307037
9   0.310139

>  <lowdin_charges>  (130) 
9
1   -0.241947
2   0.046948
3   -0.555668
4   -0.21409
5   0.144368
6   0.170131
7   0.124252
8   0.261468
9   0.264538

$$$$
PCCDB-ID:  364
     RDKit          3D

 15 14  0  0  1  0  0  0  0  0999 V2000
    1.1727    0.0066   -0.0876 C   0  0  0  0  0  0  0  0  0  0  0  0
    0.6048    1.1952    0.7015 C   0  0  1  0  0  0  0  0  0  0  0  0
    1.0502    2.5684    0.1557 C   0  0  0  0  0  0  0  0  0  0  0  0
    0.6408    0.0187   -1.4675 N   0  0  0  0  0  0  0  0  0  0  0  0
   -0.8695    1.0891    0.7507 N   0  0  0  0  0  0  0  0  0  0  0  0
    1.3248    3.4966    0.8827 O   0  0  0  0  0  0  0  0  0  0  0  0
    1.0260    2.6934   -1.1855 O   0  0  0  0  0  0  0  0  0  0  0  0
    0.9305   -0.9193    0.4510 H   0  0  0  0  0  0  0  0  0  0  0  0
    2.2634    0.0934   -0.1461 H   0  0  0  0  0  0  0  0  0  0  0  0
    0.9757    1.1360    1.7277 H   0  0  0  0  0  0  0  0  0  0  0  0
   -0.3193   -0.3225   -1.4623 H   0  0  0  0  0  0  0  0  0  0  0  0
    1.1742   -0.6045   -2.0692 H   0  0  0  0  0  0  0  0  0  0  0  0
   -1.2642    1.4744   -0.1077 H   0  0  0  0  0  0  0  0  0  0  0  0
   -1.2182    1.6892    1.4966 H   0  0  0  0  0  0  0  0  0  0  0  0
    0.8475    1.7947   -1.5866 H   0  0  0  0  0  0  0  0  0  0  0  0
  1  8  1  0
  1  2  1  0
  2  5  1  0
  2 10  1  1
  3  2  1  0
  3  6  2  0
  4 11  1  0
  4  1  1  0
  5 14  1  0
  7  3  1  0
  9  1  1  0
 12  4  1  0
 13  5  1  0
 15  7  1  0
M  END
>  <HBA>  (131) 
4

>  <HBD>  (131) 
3

>  <TPSA>  (131) 
89.34

>  <cid>  (131) 
364

>  <dipole>  (131) 
5.26

>  <excitation_energy_1>  (131) 
5.297

>  <excitation_energy_2>  (131) 
5.596

>  <excitation_energy_3>  (131) 
6.326

>  <excitation_energy_4>  (131) 
6.332

>  <homo_energy>  (131) 
-6.381

>  <homo_lumo_gap>  (131) 
6.977

>  <logP>  (131) 
-0.242

>  <lumo_energy>  (131) 
0.596

>  <melting_point>  (131) 
161.09

>  <molecular_refractivity>  (131) 
23.72

>  <oscillator_strength_1>  (131) 
0.0104

>  <oscillator_strength_2>  (131) 
0.0088

>  <oscillator_strength_3>  (131) 
0.0025

>  <oscillator_strength_4>  (131) 
0.0076

>  <open_babel_can_smiles>  (131) 
N[C@H](C(=O)O)CN

>  <mulliken_charges>  (131) 
15
1   -0.148057
2   -0.077222
3   0.572709
4   -0.774864
5   -0.722248
6   -0.464927
7   -0.599337
8   0.156727
9   0.162519
10   0.167982
11   0.331395
12   0.329274
13   0.302853
14   0.321903
15   0.441293

>  <lowdin_charges>  (131) 
15
1   -0.211706
2   -0.109229
3   0.167874
4   -0.544552
5   -0.547016
6   -0.264373
7   -0.383863
8   0.148212
9   0.152689
10   0.165859
11   0.271455
12   0.275424
13   0.256854
14   0.271833
15   0.350538

$$$$
PCCDB-ID:  366
     RDKit          3D

 26 27  0  0  0  0  0  0  0  0999 V2000
    0.6423    0.9033    0.1326 C   0  0  0  0  0  0  0  0  0  0  0  0
    5.7896   -6.0949   -1.1263 C   0  0  0  0  0  0  0  0  0  0  0  0
    2.8493   -2.8711   -0.3499 C   0  0  0  0  0  0  0  0  0  0  0  0
    2.1551   -1.6797   -0.1954 C   0  0  0  0  0  0  0  0  0  0  0  0
    2.9038    1.9461    0.2894 C   0  0  0  0  0  0  0  0  0  0  0  0
    4.9450   -1.6453   -0.1852 C   0  0  0  0  0  0  0  0  0  0  0  0
    2.1455    0.8312    0.1349 C   0  0  0  0  0  0  0  0  0  0  0  0
    4.7457   -5.0168   -1.2728 C   0  0  0  0  0  0  0  0  0  0  0  0
    4.2510   -2.8380   -0.3480 C   0  0  0  0  0  0  0  0  0  0  0  0
    2.8170   -0.4481   -0.0316 C   0  0  0  0  0  0  0  0  0  0  0  0
    4.2264   -0.4611   -0.0268 C   0  0  0  0  0  0  0  0  0  0  0  0
    4.3592    1.9290    0.3002 C   0  0  0  0  0  0  0  0  0  0  0  0
    3.7973   -5.0386   -2.0152 O   0  0  0  0  0  0  0  0  0  0  0  0
    5.0846    2.8846    0.4398 O   0  0  0  0  0  0  0  0  0  0  0  0
    5.0431   -3.9777   -0.4212 O   0  0  0  0  0  0  0  0  0  0  0  0
    4.9581    0.6772    0.1309 O   0  0  0  0  0  0  0  0  0  0  0  0
    0.3001    1.9329    0.2634 H   0  0  0  0  0  0  0  0  0  0  0  0
    0.2164    0.2961    0.9408 H   0  0  0  0  0  0  0  0  0  0  0  0
    0.2299    0.5226   -0.8098 H   0  0  0  0  0  0  0  0  0  0  0  0
    5.5440   -6.9271   -1.7865 H   0  0  0  0  0  0  0  0  0  0  0  0
    5.8331   -6.4385   -0.0878 H   0  0  0  0  0  0  0  0  0  0  0  0
    6.7779   -5.6970   -1.3793 H   0  0  0  0  0  0  0  0  0  0  0  0
    2.3218   -3.8052   -0.4823 H   0  0  0  0  0  0  0  0  0  0  0  0
    1.0704   -1.7028   -0.2008 H   0  0  0  0  0  0  0  0  0  0  0  0
    2.4578    2.9264    0.4168 H   0  0  0  0  0  0  0  0  0  0  0  0
    6.0285   -1.6292   -0.1760 H   0  0  0  0  0  0  0  0  0  0  0  0
  1  7  1  0
  1 17  1  0
  1 18  1  0
  2 21  1  0
  3  9  2  0
  3  4  1  0
  4 10  2  0
  5 12  1  0
  5 25  1  0
  6 26  1  0
  6 11  2  0
  7  5  2  0
  8  2  1  0
  8 15  1  0
  9  6  1  0
 10 11  1  0
 10  7  1  0
 11 16  1  0
 12 14  2  0
 13  8  2  0
 15  9  1  0
 16 12  1  0
 19  1  1  0
 20  2  1  0
 22  2  1  0
 23  3  1  0
 24  4  1  0
M  END
>  <HBA>  (132) 
4

>  <HBD>  (132) 
0

>  <TPSA>  (132) 
56.51

>  <cid>  (132) 
366

>  <dipole>  (132) 
4.41

>  <excitation_energy_1>  (132) 
4.144

>  <excitation_energy_2>  (132) 
4.516

>  <excitation_energy_3>  (132) 
4.536

>  <excitation_energy_4>  (132) 
5.277

>  <homo_energy>  (132) 
-6.373

>  <homo_lumo_gap>  (132) 
4.585

>  <logP>  (132) 
2.027

>  <lumo_energy>  (132) 
-1.788

>  <melting_point>  (132) 
114.0

>  <molecular_refractivity>  (132) 
58.95

>  <oscillator_strength_1>  (132) 
0.2424

>  <oscillator_strength_2>  (132) 
0.0

>  <oscillator_strength_3>  (132) 
0.1328

>  <oscillator_strength_4>  (132) 
0.0454

>  <open_babel_can_smiles>  (132) 
CC(=O)Oc1ccc2c(c1)oc(=O)cc2C

>  <mulliken_charges>  (132) 
26
1   -0.537484
2   -0.52633
3   -0.141529
4   -0.221128
5   -0.302755
6   -0.230809
7   0.203937
8   0.59373
9   0.362776
10   0.090277
11   0.317152
12   0.606617
13   -0.438524
14   -0.468998
15   -0.515153
16   -0.520102
17   0.173186
18   0.175794
19   0.177491
20   0.188942
21   0.189091
22   0.190944
23   0.165958
24   0.144796
25   0.156251
26   0.165869

>  <lowdin_charges>  (132) 
26
1   -0.441493
2   -0.461483
3   -0.179652
4   -0.141025
5   -0.218004
6   -0.187875
7   0.044264
8   0.213667
9   0.118503
10   -0.051408
11   0.118186
12   0.198244
13   -0.233443
14   -0.242174
15   -0.162067
16   -0.134582
17   0.167127
18   0.170249
19   0.170233
20   0.18006
21   0.181156
22   0.182926
23   0.181588
24   0.16561
25   0.178248
26   0.183147

$$$$
PCCDB-ID:  368
     RDKit          3D

 32 31  0  0  0  0  0  0  0  0999 V2000
   -3.7405   -0.8474    3.1301 C   0  0  0  0  0  0  0  0  0  0  0  0
    0.7994    3.2233    0.5945 C   0  0  0  0  0  0  0  0  0  0  0  0
   -2.6874    0.0030    2.4067 C   0  0  0  0  0  0  0  0  0  0  0  0
   -0.5854    3.8062    0.9235 C   0  0  0  0  0  0  0  0  0  0  0  0
   -4.1922   -2.0880    2.3525 C   0  0  0  0  0  0  0  0  0  0  0  0
    0.8209    2.2636   -0.5986 C   0  0  0  0  0  0  0  0  0  0  0  0
   -2.3086    1.2702    3.1976 C   0  0  0  0  0  0  0  0  0  0  0  0
   -1.6451    2.7852    1.3606 C   0  0  0  0  0  0  0  0  0  0  0  0
   -3.0911   -3.0456    2.1826 N   0  0  0  0  0  0  0  0  0  0  0  0
    2.1798    1.7519   -0.8156 N   0  0  0  0  0  0  0  0  0  0  0  0
   -1.2803    2.1335    2.6173 N   0  0  0  0  0  0  0  0  0  0  0  0
   -4.6247   -0.2265    3.3349 H   0  0  0  0  0  0  0  0  0  0  0  0
   -3.3455   -1.1730    4.1014 H   0  0  0  0  0  0  0  0  0  0  0  0
    1.2222    2.7091    1.4668 H   0  0  0  0  0  0  0  0  0  0  0  0
    1.4848    4.0576    0.3837 H   0  0  0  0  0  0  0  0  0  0  0  0
   -3.0639    0.2820    1.4121 H   0  0  0  0  0  0  0  0  0  0  0  0
   -1.7753   -0.5905    2.2459 H   0  0  0  0  0  0  0  0  0  0  0  0
   -0.9686    4.3429    0.0436 H   0  0  0  0  0  0  0  0  0  0  0  0
   -0.4754    4.5460    1.7256 H   0  0  0  0  0  0  0  0  0  0  0  0
   -4.6544   -1.7665    1.3995 H   0  0  0  0  0  0  0  0  0  0  0  0
   -4.9789   -2.5948    2.9248 H   0  0  0  0  0  0  0  0  0  0  0  0
    0.3855    2.7750   -1.4783 H   0  0  0  0  0  0  0  0  0  0  0  0
    0.1773    1.3983   -0.3948 H   0  0  0  0  0  0  0  0  0  0  0  0
   -1.9640    0.9724    4.1973 H   0  0  0  0  0  0  0  0  0  0  0  0
   -3.2070    1.8846    3.3515 H   0  0  0  0  0  0  0  0  0  0  0  0
   -1.8450    2.0795    0.5325 H   0  0  0  0  0  0  0  0  0  0  0  0
   -2.5891    3.3188    1.5362 H   0  0  0  0  0  0  0  0  0  0  0  0
   -2.4253   -2.6875    1.4999 H   0  0  0  0  0  0  0  0  0  0  0  0
   -3.4508   -3.9131    1.7878 H   0  0  0  0  0  0  0  0  0  0  0  0
    2.7934    2.5228   -1.0789 H   0  0  0  0  0  0  0  0  0  0  0  0
    2.1854    1.1092   -1.6063 H   0  0  0  0  0  0  0  0  0  0  0  0
   -0.4245    1.5958    2.4905 H   0  0  0  0  0  0  0  0  0  0  0  0
  1 12  1  0
  1 13  1  0
  2  4  1  0
  2 14  1  0
  3  1  1  0
  3  7  1  0
  4  8  1  0
  4 19  1  0
  5 21  1  0
  5  1  1  0
  6 23  1  0
  6  2  1  0
  7 25  1  0
  7 24  1  0
  8 27  1  0
  8 11  1  0
  9  5  1  0
 10  6  1  0
 11  7  1  0
 15  2  1  0
 16  3  1  0
 17  3  1  0
 18  4  1  0
 20  5  1  0
 22  6  1  0
 26  8  1  0
 28  9  1  0
 29  9  1  0
 30 10  1  0
 31 10  1  0
 32 11  1  0
M  END
>  <HBA>  (133) 
3

>  <HBD>  (133) 
3

>  <TPSA>  (133) 
64.07

>  <cid>  (133) 
368

>  <dipole>  (133) 
3.08

>  <excitation_energy_1>  (133) 
5.167

>  <excitation_energy_2>  (133) 
5.475

>  <excitation_energy_3>  (133) 
5.541

>  <excitation_energy_4>  (133) 
5.571

>  <homo_energy>  (133) 
-5.657

>  <homo_lumo_gap>  (133) 
7.685

>  <logP>  (133) 
1.845

>  <lumo_energy>  (133) 
2.027

>  <melting_point>  (133) 
107.79

>  <molecular_refractivity>  (133) 
48.79

>  <oscillator_strength_1>  (133) 
0.0055

>  <oscillator_strength_2>  (133) 
0.007

>  <oscillator_strength_3>  (133) 
0.0045

>  <oscillator_strength_4>  (133) 
0.0128

>  <open_babel_can_smiles>  (133) 
NCCCCNCCCCN

>  <mulliken_charges>  (133) 
32
1   -0.240103
2   -0.261784
3   -0.275566
4   -0.259645
5   -0.140289
6   -0.133717
7   -0.128587
8   -0.123762
9   -0.715542
10   -0.716873
11   -0.552553
12   0.124534
13   0.143825
14   0.149256
15   0.125552
16   0.128573
17   0.127761
18   0.123248
19   0.144546
20   0.108744
21   0.13668
22   0.109753
23   0.137768
24   0.137443
25   0.133144
26   0.112774
27   0.133208
28   0.295355
29   0.295257
30   0.291108
31   0.293685
32   0.29621

>  <lowdin_charges>  (133) 
32
1   -0.279281
2   -0.285171
3   -0.298242
4   -0.281877
5   -0.206103
6   -0.209215
7   -0.205388
8   -0.205567
9   -0.562335
10   -0.560475
11   -0.363624
12   0.140597
13   0.14737
14   0.14824
15   0.140778
16   0.136329
17   0.137173
18   0.140338
19   0.151484
20   0.114587
21   0.144235
22   0.115836
23   0.139491
24   0.142094
25   0.139285
26   0.114703
27   0.141476
28   0.25194
29   0.254829
30   0.251571
31   0.253467
32   0.251456

$$$$
PCCDB-ID:  370
     RDKit          3D

 18 18  0  0  0  0  0  0  0  0999 V2000
   -0.6382    1.2658   -0.0255 C   0  0  0  0  0  0  0  0  0  0  0  0
   -0.6680   -1.1568    0.0431 C   0  0  0  0  0  0  0  0  0  0  0  0
   -1.3568    0.0607    0.0097 C   0  0  0  0  0  0  0  0  0  0  0  0
    0.7528    1.2274   -0.0374 C   0  0  0  0  0  0  0  0  0  0  0  0
    0.7248   -1.1912    0.0198 C   0  0  0  0  0  0  0  0  0  0  0  0
    1.4504    0.0112   -0.0240 C   0  0  0  0  0  0  0  0  0  0  0  0
   -2.8490    0.0083    0.0405 C   0  0  0  0  0  0  0  0  0  0  0  0
    1.5631    2.3396   -0.0569 O   0  0  0  0  0  0  0  0  0  0  0  0
    1.4507   -2.3433    0.0398 O   0  0  0  0  0  0  0  0  0  0  0  0
    2.8061   -0.0222   -0.0386 O   0  0  0  0  0  0  0  0  0  0  0  0
   -3.4795   -0.9418    0.4423 O   0  0  0  0  0  0  0  0  0  0  0  0
   -3.5075    1.1124   -0.4181 O   0  0  0  0  0  0  0  0  0  0  0  0
   -1.1414    2.2296    0.0186 H   0  0  0  0  0  0  0  0  0  0  0  0
   -1.2439   -2.0768    0.0889 H   0  0  0  0  0  0  0  0  0  0  0  0
    1.0270    3.1425    0.0210 H   0  0  0  0  0  0  0  0  0  0  0  0
    0.8386   -3.0939    0.0930 H   0  0  0  0  0  0  0  0  0  0  0  0
    3.1180    0.8996   -0.0457 H   0  0  0  0  0  0  0  0  0  0  0  0
   -2.8851    1.6914   -0.8867 H   0  0  0  0  0  0  0  0  0  0  0  0
  1  3  2  0
  1 13  1  0
  2 14  1  0
  3  7  1  0
  3  2  1  0
  4  1  1  0
  4  6  2  0
  5  9  1  0
  5  2  2  0
  6  5  1  0
  7 11  2  0
  8  4  1  0
  8 15  1  0
  9 16  1  0
 10  6  1  0
 12  7  1  0
 17 10  1  0
 18 12  1  0
M  END
>  <HBA>  (134) 
5

>  <HBD>  (134) 
4

>  <TPSA>  (134) 
97.99

>  <cid>  (134) 
370

>  <dipole>  (134) 
4.27

>  <excitation_energy_1>  (134) 
4.526

>  <excitation_energy_2>  (134) 
4.577

>  <excitation_energy_3>  (134) 
4.801

>  <excitation_energy_4>  (134) 
4.908

>  <homo_energy>  (134) 
-6.079

>  <homo_lumo_gap>  (134) 
4.936

>  <logP>  (134) 
0.502

>  <lumo_energy>  (134) 
-1.143

>  <melting_point>  (134) 
217.57

>  <molecular_refractivity>  (134) 
39.47

>  <oscillator_strength_1>  (134) 
0.0238

>  <oscillator_strength_2>  (134) 
0.1661

>  <oscillator_strength_3>  (134) 
0.0018

>  <oscillator_strength_4>  (134) 
0.0102

>  <open_babel_can_smiles>  (134) 
OC(=O)c1cc(O)c(c(c1)O)O

>  <mulliken_charges>  (134) 
18
1   -0.274369
2   -0.238318
3   0.048328
4   0.310173
5   0.320979
6   0.294728
7   0.54754
8   -0.677876
9   -0.628989
10   -0.630505
11   -0.451911
12   -0.578709
13   0.123784
14   0.157638
15   0.421708
16   0.415957
17   0.43204
18   0.407803

>  <lowdin_charges>  (134) 
18
1   -0.232951
2   -0.195401
3   -0.058408
4   0.064702
5   0.085385
6   0.068326
7   0.196288
8   -0.395272
9   -0.36006
10   -0.353123
11   -0.245971
12   -0.363764
13   0.154425
14   0.177516
15   0.368935
16   0.36523
17   0.367439
18   0.356705

$$$$
PCCDB-ID:  371
     RDKit          3D

 10  9  0  0  0  0  0  0  0  0999 V2000
    1.0755   -0.1643    0.1146 C   0  0  0  0  0  0  0  0  0  0  0  0
   -0.1362   -0.1687    0.0973 C   0  0  0  0  0  0  0  0  0  0  0  0
    2.5342   -0.1415    0.1964 C   0  0  0  0  0  0  0  0  0  0  0  0
   -1.5950   -0.1818    0.0150 C   0  0  0  0  0  0  0  0  0  0  0  0
    3.1315    0.1706    1.1945 O   0  0  0  0  0  0  0  0  0  0  0  0
    3.1705   -0.5001   -0.9399 O   0  0  0  0  0  0  0  0  0  0  0  0
   -2.1935   -0.3057   -1.0228 O   0  0  0  0  0  0  0  0  0  0  0  0
   -2.2299   -0.0437    1.1992 O   0  0  0  0  0  0  0  0  0  0  0  0
    2.5243   -0.7102   -1.6370 H   0  0  0  0  0  0  0  0  0  0  0  0
   -1.5829    0.0507    1.9204 H   0  0  0  0  0  0  0  0  0  0  0  0
  1  3  1  0
  2  1  3  0
  3  5  2  0
  4  2  1  0
  4  8  1  0
  6  3  1  0
  7  4  2  0
  8 10  1  0
  9  6  1  0
M  END
>  <HBA>  (135) 
4

>  <HBD>  (135) 
2

>  <TPSA>  (135) 
74.6

>  <cid>  (135) 
371

>  <dipole>  (135) 
0.49

>  <excitation_energy_1>  (135) 
4.043

>  <excitation_energy_2>  (135) 
4.436

>  <excitation_energy_3>  (135) 
5.288

>  <excitation_energy_4>  (135) 
5.404

>  <homo_energy>  (135) 
-8.27

>  <homo_lumo_gap>  (135) 
5.459

>  <logP>  (135) 
-0.841

>  <lumo_energy>  (135) 
-2.811

>  <melting_point>  (135) 
146.43

>  <molecular_refractivity>  (135) 
23.05

>  <oscillator_strength_1>  (135) 
0.0001

>  <oscillator_strength_2>  (135) 
0.0007

>  <oscillator_strength_3>  (135) 
0.0003

>  <oscillator_strength_4>  (135) 
0.1177

>  <open_babel_can_smiles>  (135) 
OC(=O)C#CC(=O)O

>  <mulliken_charges>  (135) 
10
1   -0.012805
2   -0.011304
3   0.533085
4   0.532738
5   -0.399475
6   -0.550247
7   -0.399455
8   -0.550236
9   0.428849
10   0.428851

>  <lowdin_charges>  (135) 
10
1   -0.064298
2   -0.064263
3   0.209818
4   0.210099
5   -0.19263
6   -0.326543
7   -0.192679
8   -0.326623
9   0.373634
10   0.373486

$$$$
PCCDB-ID:  376
     RDKit          3D

 20 19  0  0  1  0  0  0  0  0999 V2000
    4.7276    2.3723    1.9935 C   0  0  0  0  0  0  0  0  0  0  0  0
    3.1140    2.1071   -0.0121 C   0  0  0  0  0  0  0  0  0  0  0  0
    0.7686    3.1775    0.1271 C   0  0  0  0  0  0  0  0  0  0  0  0
    3.8402    3.0282    0.9559 C   0  0  0  0  0  0  0  0  0  0  0  0
    1.9496    2.7665   -0.7740 C   0  0  1  0  0  0  0  0  0  0  0  0
    0.0203    2.0224    0.7503 C   0  0  0  0  0  0  0  0  0  0  0  0
    3.7272    4.2463    0.9009 O   0  0  0  0  0  0  0  0  0  0  0  0
    2.3929    3.8805   -1.5327 O   0  0  0  0  0  0  0  0  0  0  0  0
    0.3596    0.8564    0.7463 O   0  0  0  0  0  0  0  0  0  0  0  0
   -1.1237    2.4358    1.3479 O   0  0  0  0  0  0  0  0  0  0  0  0
    5.3882    1.6311    1.5282 H   0  0  0  0  0  0  0  0  0  0  0  0
    4.1064    1.8308    2.7187 H   0  0  0  0  0  0  0  0  0  0  0  0
    5.3184    3.1278    2.5151 H   0  0  0  0  0  0  0  0  0  0  0  0
    2.7689    1.2070    0.5081 H   0  0  0  0  0  0  0  0  0  0  0  0
    3.8629    1.7726   -0.7458 H   0  0  0  0  0  0  0  0  0  0  0  0
    0.0633    3.7634   -0.4727 H   0  0  0  0  0  0  0  0  0  0  0  0
    1.1037    3.8464    0.9301 H   0  0  0  0  0  0  0  0  0  0  0  0
    1.5786    2.0377   -1.5024 H   0  0  0  0  0  0  0  0  0  0  0  0
    2.8350    4.4670   -0.8907 H   0  0  0  0  0  0  0  0  0  0  0  0
   -1.5367    1.6354    1.7244 H   0  0  0  0  0  0  0  0  0  0  0  0
  1 13  1  0
  1 12  1  0
  2 14  1  0
  2  4  1  0
  3  6  1  0
  3 17  1  0
  4  1  1  0
  5 18  1  6
  5  2  1  0
  5  3  1  0
  6 10  1  0
  7  4  2  0
  8 19  1  0
  8  5  1  0
  9  6  2  0
 10 20  1  0
 11  1  1  0
 15  2  1  0
 16  3  1  0
M  END
>  <HBA>  (136) 
4

>  <HBD>  (136) 
2

>  <TPSA>  (136) 
74.6

>  <cid>  (136) 
376

>  <dipole>  (136) 
2.74

>  <excitation_energy_1>  (136) 
4.387

>  <excitation_energy_2>  (136) 
5.456

>  <excitation_energy_3>  (136) 
5.803

>  <excitation_energy_4>  (136) 
6.219

>  <homo_energy>  (136) 
-7.04

>  <homo_lumo_gap>  (136) 
6.199

>  <logP>  (136) 
-0.199

>  <lumo_energy>  (136) 
-0.841

>  <melting_point>  (136) 
90.6

>  <molecular_refractivity>  (136) 
34.09

>  <oscillator_strength_1>  (136) 
0.0

>  <oscillator_strength_2>  (136) 
0.0006

>  <oscillator_strength_3>  (136) 
0.0008

>  <oscillator_strength_4>  (136) 
0.0032

>  <open_babel_can_smiles>  (136) 
CC(=O)C[C@@H](CC(=O)O)O

>  <mulliken_charges>  (136) 
20
1   -0.528813
2   -0.388947
3   -0.391297
4   0.459387
5   0.157029
6   0.579688
7   -0.462707
8   -0.649907
9   -0.471047
10   -0.56411
11   0.174119
12   0.181373
13   0.183444
14   0.18936
15   0.18028
16   0.194485
17   0.189208
18   0.148395
19   0.411448
20   0.408611

>  <lowdin_charges>  (136) 
20
1   -0.47451
2   -0.336371
3   -0.327138
4   0.177764
5   0.006901
6   0.197429
7   -0.25401
8   -0.470455
9   -0.276091
10   -0.35714
11   0.173946
12   0.179191
13   0.176089
14   0.17899
15   0.17956
16   0.185272
17   0.179445
18   0.154284
19   0.345665
20   0.361179

$$$$
PCCDB-ID:  379
     RDKit          3D

 26 25  0  0  0  0  0  0  0  0999 V2000
    0.3895   -0.4956   -0.8087 C   0  0  0  0  0  0  0  0  0  0  0  0
    1.9000   -0.4762   -1.0668 C   0  0  0  0  0  0  0  0  0  0  0  0
    2.4710   -1.8676   -1.3738 C   0  0  0  0  0  0  0  0  0  0  0  0
    4.0011   -1.9141   -1.5348 C   0  0  0  0  0  0  0  0  0  0  0  0
    4.5871   -1.0955   -2.6988 C   0  0  0  0  0  0  0  0  0  0  0  0
    4.1437   -1.5696   -4.0898 C   0  0  0  0  0  0  0  0  0  0  0  0
    4.7720   -0.7598   -5.2427 C   0  0  0  0  0  0  0  0  0  0  0  0
    6.2949   -0.8128   -5.2849 C   0  0  0  0  0  0  0  0  0  0  0  0
    7.0171    0.1492   -5.2226 O   0  0  0  0  0  0  0  0  0  0  0  0
    6.8369   -2.0603   -5.4041 O   0  0  0  0  0  0  0  0  0  0  0  0
    0.0063    0.5090   -0.5975 H   0  0  0  0  0  0  0  0  0  0  0  0
    0.1423   -1.1341    0.0483 H   0  0  0  0  0  0  0  0  0  0  0  0
   -0.1563   -0.8843   -1.6775 H   0  0  0  0  0  0  0  0  0  0  0  0
    2.4167   -0.0612   -0.1895 H   0  0  0  0  0  0  0  0  0  0  0  0
    2.1142    0.2099   -1.8972 H   0  0  0  0  0  0  0  0  0  0  0  0
    1.9828   -2.2701   -2.2732 H   0  0  0  0  0  0  0  0  0  0  0  0
    2.1925   -2.5492   -0.5576 H   0  0  0  0  0  0  0  0  0  0  0  0
    4.3127   -2.9624   -1.6495 H   0  0  0  0  0  0  0  0  0  0  0  0
    4.4625   -1.5640   -0.6011 H   0  0  0  0  0  0  0  0  0  0  0  0
    5.6825   -1.1437   -2.6367 H   0  0  0  0  0  0  0  0  0  0  0  0
    4.3288   -0.0343   -2.5846 H   0  0  0  0  0  0  0  0  0  0  0  0
    3.0538   -1.4986   -4.1868 H   0  0  0  0  0  0  0  0  0  0  0  0
    4.3791   -2.6402   -4.2007 H   0  0  0  0  0  0  0  0  0  0  0  0
    4.4981    0.2953   -5.1616 H   0  0  0  0  0  0  0  0  0  0  0  0
    4.3858   -1.1254   -6.2050 H   0  0  0  0  0  0  0  0  0  0  0  0
    6.1309   -2.7260   -5.4489 H   0  0  0  0  0  0  0  0  0  0  0  0
  1 11  1  0
  1 12  1  0
  2  1  1  0
  2 14  1  0
  3  2  1  0
  3 17  1  0
  4  3  1  0
  4 19  1  0
  5 20  1  0
  5 21  1  0
  5  4  1  0
  6  5  1  0
  7 24  1  0
  7  6  1  0
  8  7  1  0
  8  9  2  0
 10  8  1  0
 13  1  1  0
 15  2  1  0
 16  3  1  0
 18  4  1  0
 22  6  1  0
 23  6  1  0
 25  7  1  0
 26 10  1  0
M  END
>  <HBA>  (137) 
2

>  <HBD>  (137) 
1

>  <TPSA>  (137) 
37.3

>  <cid>  (137) 
379

>  <dipole>  (137) 
4.4

>  <excitation_energy_1>  (137) 
5.584

>  <excitation_energy_2>  (137) 
6.427

>  <excitation_energy_3>  (137) 
7.233

>  <excitation_energy_4>  (137) 
7.291

>  <homo_energy>  (137) 
-7.214

>  <homo_lumo_gap>  (137) 
7.502

>  <logP>  (137) 
2.432

>  <lumo_energy>  (137) 
0.288

>  <melting_point>  (137) 
49.27

>  <molecular_refractivity>  (137) 
42.34

>  <oscillator_strength_1>  (137) 
0.002

>  <oscillator_strength_2>  (137) 
0.0116

>  <oscillator_strength_3>  (137) 
0.0004

>  <oscillator_strength_4>  (137) 
0.0007

>  <open_babel_can_smiles>  (137) 
CCCCCCCC(=O)O

>  <mulliken_charges>  (137) 
26
1   -0.442011
2   -0.249176
3   -0.251438
4   -0.261768
5   -0.261675
6   -0.277861
7   -0.380041
8   0.591292
9   -0.437077
10   -0.566198
11   0.144249
12   0.143149
13   0.140252
14   0.133531
15   0.133133
16   0.127067
17   0.131553
18   0.127451
19   0.136156
20   0.152399
21   0.14585
22   0.154257
23   0.118786
24   0.179072
25   0.160547
26   0.408503

>  <lowdin_charges>  (137) 
26
1   -0.444844
2   -0.276205
3   -0.280278
4   -0.275164
5   -0.278132
6   -0.273136
7   -0.317129
8   0.195444
9   -0.237897
10   -0.366695
11   0.150012
12   0.147605
13   0.14652
14   0.141254
15   0.139595
16   0.136381
17   0.143637
18   0.138964
19   0.14545
20   0.149905
21   0.145206
22   0.15015
23   0.129362
24   0.171415
25   0.162184
26   0.356394

$$$$
PCCDB-ID:  385
     RDKit          3D

 23 22  0  0  0  0  0  0  0  0999 V2000
    1.2729    0.5475   -0.0640 C   0  0  0  0  0  0  0  0  0  0  0  0
    0.7007   -0.0055    1.2556 C   0  0  0  0  0  0  0  0  0  0  0  0
    2.4184   -0.2487   -0.7121 C   0  0  0  0  0  0  0  0  0  0  0  0
   -0.0029   -1.3678    1.1469 C   0  0  0  0  0  0  0  0  0  0  0  0
    3.7320   -0.2337    0.1007 C   0  0  0  0  0  0  0  0  0  0  0  0
    0.9279   -2.5730    1.1567 C   0  0  0  0  0  0  0  0  0  0  0  0
    4.7316   -1.2521   -0.4375 C   0  0  0  0  0  0  0  0  0  0  0  0
    2.0896   -2.5422    1.5030 O   0  0  0  0  0  0  0  0  0  0  0  0
    0.3806   -3.7515    0.7873 O   0  0  0  0  0  0  0  0  0  0  0  0
    5.6652   -0.9672   -1.1497 O   0  0  0  0  0  0  0  0  0  0  0  0
    4.4892   -2.5419   -0.1019 O   0  0  0  0  0  0  0  0  0  0  0  0
    1.6157    1.5746    0.1208 H   0  0  0  0  0  0  0  0  0  0  0  0
    0.4516    0.6313   -0.7903 H   0  0  0  0  0  0  0  0  0  0  0  0
   -0.0336    0.7164    1.6323 H   0  0  0  0  0  0  0  0  0  0  0  0
    1.4812   -0.0780    2.0205 H   0  0  0  0  0  0  0  0  0  0  0  0
    2.6216    0.1701   -1.7051 H   0  0  0  0  0  0  0  0  0  0  0  0
    2.1060   -1.2853   -0.8870 H   0  0  0  0  0  0  0  0  0  0  0  0
   -0.6333   -1.4071    0.2464 H   0  0  0  0  0  0  0  0  0  0  0  0
   -0.6851   -1.5035    1.9993 H   0  0  0  0  0  0  0  0  0  0  0  0
    3.5270   -0.4537    1.1532 H   0  0  0  0  0  0  0  0  0  0  0  0
    4.1990    0.7530    0.0388 H   0  0  0  0  0  0  0  0  0  0  0  0
   -0.5491   -3.6294    0.5308 H   0  0  0  0  0  0  0  0  0  0  0  0
    3.7233   -2.6136    0.5032 H   0  0  0  0  0  0  0  0  0  0  0  0
  1 12  1  0
  1  2  1  0
  2 14  1  0
  2 15  1  0
  3  1  1  0
  3  5  1  0
  4  6  1  0
  4  2  1  0
  4 19  1  0
  5 20  1  0
  6  8  2  0
  7 11  1  0
  7  5  1  0
  9  6  1  0
 10  7  2  0
 11 23  1  0
 13  1  1  0
 16  3  1  0
 17  3  1  0
 18  4  1  0
 21  5  1  0
 22  9  1  0
M  END
>  <HBA>  (138) 
4

>  <HBD>  (138) 
2

>  <TPSA>  (138) 
74.6

>  <cid>  (138) 
385

>  <dipole>  (138) 
8.94

>  <excitation_energy_1>  (138) 
5.397

>  <excitation_energy_2>  (138) 
5.61

>  <excitation_energy_3>  (138) 
5.726

>  <excitation_energy_4>  (138) 
5.779

>  <homo_energy>  (138) 
-6.648

>  <homo_lumo_gap>  (138) 
5.948

>  <logP>  (138) 
1.106

>  <lumo_energy>  (138) 
-0.699

>  <melting_point>  (138) 
127.09

>  <molecular_refractivity>  (138) 
39.31

>  <oscillator_strength_1>  (138) 
0.0008

>  <oscillator_strength_2>  (138) 
0.001

>  <oscillator_strength_3>  (138) 
0.0004

>  <oscillator_strength_4>  (138) 
0.0007

>  <open_babel_can_smiles>  (138) 
OC(=O)CCCCCC(=O)O

>  <mulliken_charges>  (138) 
23
1   -0.264915
2   -0.261943
3   -0.269986
4   -0.400649
5   -0.366108
6   0.62365
7   0.571112
8   -0.469532
9   -0.547788
10   -0.45169
11   -0.596046
12   0.146406
13   0.133175
14   0.144476
15   0.169799
16   0.159223
17   0.135436
18   0.160884
19   0.188098
20   0.164413
21   0.165377
22   0.41913
23   0.447477

>  <lowdin_charges>  (138) 
23
1   -0.275299
2   -0.277453
3   -0.2735
4   -0.321826
5   -0.316814
6   0.206558
7   0.191246
8   -0.260328
9   -0.332161
10   -0.257093
11   -0.370496
12   0.149252
13   0.143297
14   0.154881
15   0.160804
16   0.155921
17   0.139376
18   0.159539
19   0.178413
20   0.158248
21   0.16456
22   0.364006
23   0.358868

$$$$
PCCDB-ID:  389
     RDKit          3D

 21 20  0  0  1  0  0  0  0  0999 V2000
    0.9631    0.2001   -0.0061 C   0  0  0  0  0  0  0  0  0  0  0  0
   -0.0138    0.6736   -1.0976 C   0  0  0  0  0  0  0  0  0  0  0  0
    0.9097   -1.2922    0.3538 C   0  0  0  0  0  0  0  0  0  0  0  0
   -1.5197    0.5915   -0.7730 C   0  0  1  0  0  0  0  0  0  0  0  0
   -2.0749   -0.8514   -0.8212 C   0  0  0  0  0  0  0  0  0  0  0  0
    1.2209   -2.1277   -0.8070 N   0  0  0  0  0  0  0  0  0  0  0  0
   -1.9655    1.2228    0.4861 N   0  0  0  0  0  0  0  0  0  0  0  0
   -1.7041   -1.6805   -1.6250 O   0  0  0  0  0  0  0  0  0  0  0  0
   -3.0491   -1.0842    0.0660 O   0  0  0  0  0  0  0  0  0  0  0  0
    0.8221    0.7924    0.9117 H   0  0  0  0  0  0  0  0  0  0  0  0
    1.9771    0.4231   -0.3581 H   0  0  0  0  0  0  0  0  0  0  0  0
    0.1587    0.0998   -2.0137 H   0  0  0  0  0  0  0  0  0  0  0  0
    0.2171    1.7199   -1.3372 H   0  0  0  0  0  0  0  0  0  0  0  0
   -0.0619   -1.5291    0.8289 H   0  0  0  0  0  0  0  0  0  0  0  0
    1.6724   -1.4769    1.1205 H   0  0  0  0  0  0  0  0  0  0  0  0
   -2.0555    1.1045   -1.5832 H   0  0  0  0  0  0  0  0  0  0  0  0
    0.3956   -2.1813   -1.4044 H   0  0  0  0  0  0  0  0  0  0  0  0
    1.4028   -3.0807   -0.4972 H   0  0  0  0  0  0  0  0  0  0  0  0
   -1.2615    1.1106    1.2136 H   0  0  0  0  0  0  0  0  0  0  0  0
   -2.1117    2.2219    0.3668 H   0  0  0  0  0  0  0  0  0  0  0  0
   -3.1201   -0.2386    0.5816 H   0  0  0  0  0  0  0  0  0  0  0  0
  1  3  1  0
  1 10  1  0
  2  4  1  0
  2  1  1  0
  3 14  1  0
  3 15  1  0
  4 16  1  6
  4  7  1  0
  5  4  1  0
  5  9  1  0
  6 18  1  0
  6  3  1  0
  7 19  1  0
  8  5  2  0
  9 21  1  0
 11  1  1  0
 12  2  1  0
 13  2  1  0
 17  6  1  0
 20  7  1  0
M  END
>  <HBA>  (139) 
4

>  <HBD>  (139) 
3

>  <TPSA>  (139) 
89.34

>  <cid>  (139) 
389

>  <dipole>  (139) 
4.74

>  <excitation_energy_1>  (139) 
5.118

>  <excitation_energy_2>  (139) 
5.474

>  <excitation_energy_3>  (139) 
5.633

>  <excitation_energy_4>  (139) 
6.011

>  <homo_energy>  (139) 
-6.065

>  <homo_lumo_gap>  (139) 
6.289

>  <logP>  (139) 
0.538

>  <lumo_energy>  (139) 
0.223

>  <melting_point>  (139) 
159.76

>  <molecular_refractivity>  (139) 
33.34

>  <oscillator_strength_1>  (139) 
0.0167

>  <oscillator_strength_2>  (139) 
0.0051

>  <oscillator_strength_3>  (139) 
0.0057

>  <oscillator_strength_4>  (139) 
0.0131

>  <open_babel_can_smiles>  (139) 
N[C@H](C(=O)O)CCCN

>  <mulliken_charges>  (139) 
21
1   -0.253461
2   -0.278808
3   -0.144307
4   -0.091505
5   0.625752
6   -0.739843
7   -0.777054
8   -0.483979
9   -0.581304
10   0.105827
11   0.156066
12   0.180687
13   0.131251
14   0.114773
15   0.136102
16   0.17887
17   0.336707
18   0.294692
19   0.329482
20   0.32549
21   0.434564

>  <lowdin_charges>  (139) 
21
1   -0.285126
2   -0.287842
3   -0.209719
4   -0.113692
5   0.178289
6   -0.567551
7   -0.54628
8   -0.271141
9   -0.351046
10   0.128045
11   0.157456
12   0.170581
13   0.144316
14   0.116108
15   0.144371
16   0.172428
17   0.265793
18   0.254482
19   0.268606
20   0.271473
21   0.360447

$$$$
PCCDB-ID:  392
     RDKit          3D

 24 23  0  0  1  0  0  0  0  0999 V2000
    1.1192    0.1800    0.0255 C   0  0  0  0  0  0  0  0  0  0  0  0
    0.4853   -0.4557   -1.2167 C   0  0  0  0  0  0  0  0  0  0  0  0
    2.6510    0.1386    0.0092 C   0  0  0  0  0  0  0  0  0  0  0  0
   -1.6400   -1.0287   -2.5187 C   0  0  0  0  0  0  0  0  0  0  0  0
   -1.0472   -0.5515   -1.1573 C   0  0  1  0  0  0  0  0  0  0  0  0
   -1.4475    0.0044   -3.6198 C   0  0  0  0  0  0  0  0  0  0  0  0
    3.1397   -1.2489    0.0071 N   0  0  0  0  0  0  0  0  0  0  0  0
   -1.4430   -1.4022   -0.0322 N   0  0  0  0  0  0  0  0  0  0  0  0
   -2.1119    1.0070   -3.7090 O   0  0  0  0  0  0  0  0  0  0  0  0
   -0.4304   -0.2165   -4.5015 O   0  0  0  0  0  0  0  0  0  0  0  0
    0.7449   -0.3312    0.9212 H   0  0  0  0  0  0  0  0  0  0  0  0
    0.7962    1.2268    0.1107 H   0  0  0  0  0  0  0  0  0  0  0  0
    0.9063   -1.4624   -1.3508 H   0  0  0  0  0  0  0  0  0  0  0  0
    0.7766    0.1237   -2.1035 H   0  0  0  0  0  0  0  0  0  0  0  0
    3.0315    0.7400    0.8542 H   0  0  0  0  0  0  0  0  0  0  0  0
    3.0215    0.6191   -0.9062 H   0  0  0  0  0  0  0  0  0  0  0  0
   -2.7197   -1.1681   -2.4031 H   0  0  0  0  0  0  0  0  0  0  0  0
   -1.2040   -2.0023   -2.7842 H   0  0  0  0  0  0  0  0  0  0  0  0
   -1.4618    0.4465   -0.9655 H   0  0  0  0  0  0  0  0  0  0  0  0
    2.9316   -1.6778    0.9090 H   0  0  0  0  0  0  0  0  0  0  0  0
    4.1551   -1.2559   -0.0764 H   0  0  0  0  0  0  0  0  0  0  0  0
   -1.1300   -2.3600   -0.1930 H   0  0  0  0  0  0  0  0  0  0  0  0
   -2.4580   -1.4364    0.0487 H   0  0  0  0  0  0  0  0  0  0  0  0
    0.0164   -1.0512   -4.2877 H   0  0  0  0  0  0  0  0  0  0  0  0
  1 12  1  0
  1 11  1  0
  2  5  1  0
  2  1  1  0
  3  1  1  0
  3 15  1  0
  4 17  1  0
  4  5  1  0
  5 19  1  1
  5  8  1  0
  6  4  1  0
  7  3  1  0
  7 20  1  0
  8 23  1  0
  9  6  2  0
 10 24  1  0
 10  6  1  0
 13  2  1  0
 14  2  1  0
 16  3  1  0
 18  4  1  0
 21  7  1  0
 22  8  1  0
M  END
>  <HBA>  (140) 
4

>  <HBD>  (140) 
3

>  <TPSA>  (140) 
89.34

>  <cid>  (140) 
392

>  <dipole>  (140) 
4.53

>  <excitation_energy_1>  (140) 
5.425

>  <excitation_energy_2>  (140) 
5.631

>  <excitation_energy_3>  (140) 
5.72

>  <excitation_energy_4>  (140) 
5.812

>  <homo_energy>  (140) 
-6.389

>  <homo_lumo_gap>  (140) 
6.634

>  <logP>  (140) 
0.928

>  <lumo_energy>  (140) 
0.245

>  <melting_point>  (140) 
159.09

>  <molecular_refractivity>  (140) 
38.14

>  <oscillator_strength_1>  (140) 
0.0084

>  <oscillator_strength_2>  (140) 
0.0053

>  <oscillator_strength_3>  (140) 
0.0251

>  <oscillator_strength_4>  (140) 
0.0022

>  <open_babel_can_smiles>  (140) 
NCCC[C@@H](CC(=O)O)N

>  <mulliken_charges>  (140) 
24
1   -0.25473
2   -0.270243
3   -0.142338
4   -0.373588
5   0.020467
6   0.586127
7   -0.717001
8   -0.706051
9   -0.442672
10   -0.563128
11   0.155661
12   0.13184
13   0.145283
14   0.136577
15   0.116355
16   0.136918
17   0.168649
18   0.123156
19   0.157746
20   0.292938
21   0.296947
22   0.292072
23   0.300182
24   0.408833

>  <lowdin_charges>  (140) 
24
1   -0.279194
2   -0.288761
3   -0.20639
4   -0.332275
5   -0.060217
6   0.192842
7   -0.559316
8   -0.537598
9   -0.244137
10   -0.359701
11   0.152442
12   0.14339
13   0.146632
14   0.145211
15   0.121923
16   0.140072
17   0.16777
18   0.140233
19   0.150945
20   0.250763
21   0.252678
22   0.250798
23   0.254514
24   0.357377

$$$$
PCCDB-ID:  397
     RDKit          3D

 23 24  0  0  0  0  0  0  0  0999 V2000
    2.5347    0.2894    0.0134 C   0  0  0  0  0  0  0  0  0  0  0  0
    2.1839    1.6548    0.0514 C   0  0  0  0  0  0  0  0  0  0  0  0
    1.5623   -0.7020    0.0081 C   0  0  0  0  0  0  0  0  0  0  0  0
    0.8541    2.0572    0.0857 C   0  0  0  0  0  0  0  0  0  0  0  0
   -1.2070   -2.5562   -0.0022 C   0  0  0  0  0  0  0  0  0  0  0  0
   -2.0422   -0.1227    0.0940 C   0  0  0  0  0  0  0  0  0  0  0  0
   -1.0411   -1.0626    0.0533 C   0  0  0  0  0  0  0  0  0  0  0  0
    0.2046   -0.3275    0.0404 C   0  0  0  0  0  0  0  0  0  0  0  0
   -0.1234    1.0569    0.0788 C   0  0  0  0  0  0  0  0  0  0  0  0
   -1.1580   -3.1725   -1.4084 C   0  0  0  0  0  0  0  0  0  0  0  0
   -1.7816   -4.2076   -1.7999 N   0  0  0  0  0  0  0  0  0  0  0  0
   -1.4995    1.1460    0.1134 N   0  0  0  0  0  0  0  0  0  0  0  0
   -0.3098   -2.5762   -2.2839 O   0  0  0  0  0  0  0  0  0  0  0  0
    3.5844    0.0109   -0.0123 H   0  0  0  0  0  0  0  0  0  0  0  0
    2.9679    2.4067    0.0531 H   0  0  0  0  0  0  0  0  0  0  0  0
    1.8466   -1.7509   -0.0233 H   0  0  0  0  0  0  0  0  0  0  0  0
    0.5854    3.1098    0.1154 H   0  0  0  0  0  0  0  0  0  0  0  0
   -2.1529   -2.8521    0.4626 H   0  0  0  0  0  0  0  0  0  0  0  0
   -0.4108   -3.0317    0.5890 H   0  0  0  0  0  0  0  0  0  0  0  0
   -3.1147   -0.2618    0.1163 H   0  0  0  0  0  0  0  0  0  0  0  0
   -2.3601   -4.5704   -1.0403 H   0  0  0  0  0  0  0  0  0  0  0  0
   -2.0291    2.0032    0.1470 H   0  0  0  0  0  0  0  0  0  0  0  0
   -0.0159   -1.7250   -1.9175 H   0  0  0  0  0  0  0  0  0  0  0  0
  1  2  2  0
  2 15  1  0
  2  4  1  0
  3  1  1  0
  3  8  2  0
  4 17  1  0
  5  7  1  0
  5 18  1  0
  5 19  1  0
  6 12  1  0
  6 20  1  0
  7  6  2  0
  8  7  1  0
  8  9  1  0
  9  4  2  0
  9 12  1  0
 10  5  1  0
 11 10  2  0
 11 21  1  0
 12 22  1  0
 13 23  1  0
 13 10  1  0
 14  1  1  0
 16  3  1  0
M  END
>  <HBA>  (141) 
2

>  <HBD>  (141) 
2

>  <TPSA>  (141) 
58.88

>  <cid>  (141) 
397

>  <dipole>  (141) 
6.01

>  <excitation_energy_1>  (141) 
4.6

>  <excitation_energy_2>  (141) 
4.829

>  <excitation_energy_3>  (141) 
4.94

>  <excitation_energy_4>  (141) 
5.33

>  <homo_energy>  (141) 
-5.804

>  <homo_lumo_gap>  (141) 
5.192

>  <logP>  (141) 
1.896

>  <lumo_energy>  (141) 
-0.612

>  <melting_point>  (141) 
174.74

>  <molecular_refractivity>  (141) 
50.98

>  <oscillator_strength_1>  (141) 
0.0744

>  <oscillator_strength_2>  (141) 
0.0225

>  <oscillator_strength_3>  (141) 
0.0007

>  <oscillator_strength_4>  (141) 
0.012

>  <open_babel_can_smiles>  (141) 
OC(=N)Cc1c[nH]c2c1cccc2

>  <mulliken_charges>  (141) 
23
1   -0.136086
2   -0.150385
3   -0.213755
4   -0.159028
5   -0.437486
6   0.019312
7   0.025046
8   0.045512
9   0.321803
10   0.483788
11   -0.585708
12   -0.687525
13   -0.58427
14   0.130594
15   0.131052
16   0.137582
17   0.12848
18   0.158791
19   0.182101
20   0.159668
21   0.277002
22   0.333221
23   0.420291

>  <lowdin_charges>  (141) 
23
1   -0.167792
2   -0.160117
3   -0.170707
4   -0.181226
5   -0.306493
6   -0.120972
7   -0.082904
8   -0.05227
9   0.033368
10   0.123302
11   -0.406756
12   -0.193739
13   -0.363791
14   0.158282
15   0.160703
16   0.159528
17   0.157605
18   0.165206
19   0.173732
20   0.167932
21   0.252863
22   0.295395
23   0.35885

$$$$
PCCDB-ID:  398
     RDKit          3D

 13 12  0  0  0  0  0  0  0  0999 V2000
    1.0417   -0.0460    0.0955 C   0  0  0  0  0  0  0  0  0  0  0  0
    3.1624    1.3716    0.2340 C   0  0  0  0  0  0  0  0  0  0  0  0
    2.5689   -0.0285    0.0889 C   0  0  0  0  0  0  0  0  0  0  0  0
    3.0675   -0.8849    1.2466 N   0  0  0  0  0  0  0  0  0  0  0  0
    3.7546   -1.8640    0.9725 O   0  0  0  0  0  0  0  0  0  0  0  0
    2.7478   -0.5346    2.3801 O   0  0  0  0  0  0  0  0  0  0  0  0
    0.6711    0.5293   -0.7592 H   0  0  0  0  0  0  0  0  0  0  0  0
    0.6578    0.4033    1.0153 H   0  0  0  0  0  0  0  0  0  0  0  0
    0.6556   -1.0670    0.0130 H   0  0  0  0  0  0  0  0  0  0  0  0
    2.8533    1.9841   -0.6191 H   0  0  0  0  0  0  0  0  0  0  0  0
    4.2564    1.3390    0.2526 H   0  0  0  0  0  0  0  0  0  0  0  0
    2.8074    1.8442    1.1538 H   0  0  0  0  0  0  0  0  0  0  0  0
    2.9649   -0.5340   -0.7933 H   0  0  0  0  0  0  0  0  0  0  0  0
  1  8  1  0
  2 11  1  0
  2 12  1  0
  3  1  1  0
  3  2  1  0
  3  4  1  0
  4  6  1  0
  5  4  2  0
  7  1  1  0
  9  1  1  0
 10  2  1  0
 13  3  1  0
M  CHG  2   4   1   6  -1
M  END
>  <HBA>  (142) 
0

>  <HBD>  (142) 
0

>  <TPSA>  (142) 
45.82

>  <cid>  (142) 
398

>  <dipole>  (142) 
3.72

>  <excitation_energy_1>  (142) 
4.139

>  <excitation_energy_2>  (142) 
4.41

>  <excitation_energy_3>  (142) 
6.844

>  <excitation_energy_4>  (142) 
7.033

>  <homo_energy>  (142) 
-7.87

>  <homo_lumo_gap>  (142) 
6.166

>  <logP>  (142) 
1.195

>  <lumo_energy>  (142) 
-1.703

>  <melting_point>  (142) 
6.19

>  <molecular_refractivity>  (142) 
24.64

>  <oscillator_strength_1>  (142) 
0.0002

>  <oscillator_strength_2>  (142) 
0.0001

>  <oscillator_strength_3>  (142) 
0.1248

>  <oscillator_strength_4>  (142) 
0.0037

>  <open_babel_can_smiles>  (142) 
CC(N(=O)=O)C

>  <mulliken_charges>  (142) 
13
1   -0.455761
2   -0.455692
3   -0.002517
4   0.460493
5   -0.376974
6   -0.37906
7   0.162815
8   0.182631
9   0.170782
10   0.163064
11   0.171047
12   0.182359
13   0.176813

>  <lowdin_charges>  (142) 
13
1   -0.445838
2   -0.444408
3   -0.074244
4   0.291515
5   -0.242091
6   -0.248964
7   0.165026
8   0.170169
9   0.163769
10   0.165066
11   0.162688
12   0.169968
13   0.167342

$$$$
PCCDB-ID:  400
     RDKit          3D

 18 18  0  0  0  0  0  0  0  0999 V2000
   -1.5656   -0.0278    0.2462 C   0  0  0  0  0  0  0  0  0  0  0  0
   -0.7598   -1.1614    0.0944 C   0  0  0  0  0  0  0  0  0  0  0  0
   -1.0000    1.2330    0.0979 C   0  0  0  0  0  0  0  0  0  0  0  0
    0.5981   -1.0327   -0.1884 C   0  0  0  0  0  0  0  0  0  0  0  0
    0.9149    2.7485   -0.3591 C   0  0  0  0  0  0  0  0  0  0  0  0
    3.4214   -0.2930   -0.0183 C   0  0  0  0  0  0  0  0  0  0  0  0
    0.3639    1.3834   -0.1906 C   0  0  0  0  0  0  0  0  0  0  0  0
    1.1839    0.2378   -0.3187 C   0  0  0  0  0  0  0  0  0  0  0  0
    2.5467    0.3979   -0.6280 N   0  0  0  0  0  0  0  0  0  0  0  0
    0.2589    3.7664   -0.2178 O   0  0  0  0  0  0  0  0  0  0  0  0
    4.7252   -0.2342   -0.3261 O   0  0  0  0  0  0  0  0  0  0  0  0
   -2.6240   -0.1334    0.4655 H   0  0  0  0  0  0  0  0  0  0  0  0
   -1.1928   -2.1537    0.1903 H   0  0  0  0  0  0  0  0  0  0  0  0
   -1.5950    2.1358    0.1974 H   0  0  0  0  0  0  0  0  0  0  0  0
    1.2105   -1.9172   -0.3404 H   0  0  0  0  0  0  0  0  0  0  0  0
    1.9841    2.7958   -0.6381 H   0  0  0  0  0  0  0  0  0  0  0  0
    3.2411   -0.9855    0.8081 H   0  0  0  0  0  0  0  0  0  0  0  0
    4.8120    0.3947   -1.0684 H   0  0  0  0  0  0  0  0  0  0  0  0
  1 12  1  0
  2 13  1  0
  2  1  2  0
  3 14  1  0
  3  1  1  0
  4  2  1  0
  5 10  2  0
  5  7  1  0
  6 17  1  0
  7  3  2  0
  8  7  1  0
  8  4  2  0
  9  8  1  0
  9  6  2  0
 11  6  1  0
 15  4  1  0
 16  5  1  0
 18 11  1  0
M  END
>  <HBA>  (143) 
3

>  <HBD>  (143) 
1

>  <TPSA>  (143) 
46.17

>  <cid>  (143) 
400

>  <dipole>  (143) 
3.73

>  <excitation_energy_1>  (143) 
3.494

>  <excitation_energy_2>  (143) 
4.139

>  <excitation_energy_3>  (143) 
4.734

>  <excitation_energy_4>  (143) 
5.074

>  <homo_energy>  (143) 
-6.482

>  <homo_lumo_gap>  (143) 
4.836

>  <logP>  (143) 
1.776

>  <lumo_energy>  (143) 
-1.646

>  <melting_point>  (143) 
94.03

>  <molecular_refractivity>  (143) 
41.72

>  <oscillator_strength_1>  (143) 
0.0004

>  <oscillator_strength_2>  (143) 
0.0866

>  <oscillator_strength_3>  (143) 
0.0454

>  <oscillator_strength_4>  (143) 
0.0896

>  <open_babel_can_smiles>  (143) 
O/C=N/c1ccccc1C=O

>  <mulliken_charges>  (143) 
18
1   -0.125654
2   -0.131009
3   -0.177286
4   -0.161147
5   0.198602
6   0.291682
7   0.057769
8   0.218873
9   -0.496189
10   -0.414157
11   -0.5433
12   0.1388
13   0.140826
14   0.166097
15   0.134828
16   0.121238
17   0.163678
18   0.41635

>  <lowdin_charges>  (143) 
18
1   -0.161899
2   -0.132171
3   -0.120582
4   -0.188051
5   0.048136
6   0.036576
7   -0.070529
8   0.059309
9   -0.20527
10   -0.236582
11   -0.338024
12   0.161187
13   0.162713
14   0.177756
15   0.161408
16   0.128755
17   0.152909
18   0.36436

$$$$
PCCDB-ID:  401
     RDKit          3D

 13 13  0  0  1  0  0  0  0  0999 V2000
   -1.1984   -0.1812    0.1056 C   0  0  0  0  0  0  0  0  0  0  0  0
   -0.4189    1.1384    0.1018 C   0  0  2  0  0  0  0  0  0  0  0  0
    0.9691    0.5484   -0.0601 C   0  0  0  0  0  0  0  0  0  0  0  0
   -0.4382    2.0335    1.2548 N   0  0  0  0  0  0  0  0  0  0  0  0
    1.0144   -0.6703   -0.4449 N   0  0  0  0  0  0  0  0  0  0  0  0
    2.0464    1.3021    0.2001 O   0  0  0  0  0  0  0  0  0  0  0  0
   -0.3508   -1.0967   -0.6088 O   0  0  0  0  0  0  0  0  0  0  0  0
   -2.1636   -0.1546   -0.4056 H   0  0  0  0  0  0  0  0  0  0  0  0
   -1.3418   -0.5292    1.1432 H   0  0  0  0  0  0  0  0  0  0  0  0
   -0.6465    1.7430   -0.7870 H   0  0  0  0  0  0  0  0  0  0  0  0
   -0.4908    1.5029    2.1239 H   0  0  0  0  0  0  0  0  0  0  0  0
   -1.2367    2.6621    1.2307 H   0  0  0  0  0  0  0  0  0  0  0  0
    1.6920    2.0808    0.6803 H   0  0  0  0  0  0  0  0  0  0  0  0
  1  9  1  0
  2 10  1  6
  2  1  1  0
  2  4  1  0
  3  2  1  0
  3  6  1  0
  4 11  1  0
  5  3  2  0
  6 13  1  0
  7  5  1  0
  7  1  1  0
  8  1  1  0
 12  4  1  0
M  END
>  <HBA>  (144) 
4

>  <HBD>  (144) 
2

>  <TPSA>  (144) 
64.35

>  <cid>  (144) 
401

>  <dipole>  (144) 
5.92

>  <excitation_energy_1>  (144) 
5.011

>  <excitation_energy_2>  (144) 
5.655

>  <excitation_energy_3>  (144) 
6.013

>  <excitation_energy_4>  (144) 
6.083

>  <homo_energy>  (144) 
-6.068

>  <homo_lumo_gap>  (144) 
6.416

>  <logP>  (144) 
-0.596

>  <lumo_energy>  (144) 
0.348

>  <melting_point>  (144) 
94.22

>  <molecular_refractivity>  (144) 
25.13

>  <oscillator_strength_1>  (144) 
0.0206

>  <oscillator_strength_2>  (144) 
0.0286

>  <oscillator_strength_3>  (144) 
0.0141

>  <oscillator_strength_4>  (144) 
0.0179

>  <open_babel_can_smiles>  (144) 
N[C@@H]1CON=C1O

>  <mulliken_charges>  (144) 
13
1   -0.017731
2   -0.1071
3   0.53409
4   -0.743683
5   -0.203994
6   -0.601534
7   -0.394103
8   0.156799
9   0.130252
10   0.177533
11   0.316575
12   0.323724
13   0.429172

>  <lowdin_charges>  (144) 
13
1   -0.149455
2   -0.112378
3   0.07073
4   -0.540584
5   -0.071631
6   -0.343016
7   -0.214669
8   0.158321
9   0.133061
10   0.164808
11   0.26555
12   0.272467
13   0.366795

$$$$
PCCDB-ID:  402
     RDKit          3D

  3  2  0  0  0  0  0  0  0  0999 V2000
    0.9759   -0.0954   -0.1212 S   0  0  0  0  0  0  0  0  0  0  0  0
    2.3111    0.0065    0.0463 H   0  0  0  0  0  0  0  0  0  0  0  0
    0.7158    0.5932    1.0101 H   0  0  0  0  0  0  0  0  0  0  0  0
  1  2  1  0
  1  3  1  0
M  END
>  <HBA>  (145) 
1

>  <HBD>  (145) 
1

>  <TPSA>  (145) 
25.3

>  <cid>  (145) 
402

>  <dipole>  (145) 
1.43

>  <excitation_energy_1>  (145) 
5.806

>  <excitation_energy_2>  (145) 
6.13

>  <excitation_energy_3>  (145) 
7.548

>  <excitation_energy_4>  (145) 
7.797

>  <homo_energy>  (145) 
-7.116

>  <homo_lumo_gap>  (145) 
7.649

>  <logP>  (145) 
0.113

>  <lumo_energy>  (145) 
0.533

>  <melting_point>  (145) 
8.97

>  <molecular_refractivity>  (145) 
10.38

>  <oscillator_strength_1>  (145) 
0.0728

>  <oscillator_strength_2>  (145) 
0.0

>  <oscillator_strength_3>  (145) 
0.0

>  <oscillator_strength_4>  (145) 
0.0157

>  <open_babel_can_smiles>  (145) 
S

>  <mulliken_charges>  (145) 
3
1   -0.235026
2   0.117515
3   0.11751

>  <lowdin_charges>  (145) 
3
1   -0.256344
2   0.127001
3   0.129343

$$$$
PCCDB-ID:  403
     RDKit          3D

 15 15  0  0  0  0  0  0  0  0999 V2000
   -0.7530    1.1676   -0.0114 C   0  0  0  0  0  0  0  0  0  0  0  0
    1.3883    0.0701   -0.0005 C   0  0  0  0  0  0  0  0  0  0  0  0
   -1.3871   -0.0748   -0.0446 C   0  0  0  0  0  0  0  0  0  0  0  0
    0.7592   -1.1704   -0.0332 C   0  0  0  0  0  0  0  0  0  0  0  0
    0.6451    1.2622    0.0108 C   0  0  0  0  0  0  0  0  0  0  0  0
   -0.6358   -1.2517   -0.0551 C   0  0  0  0  0  0  0  0  0  0  0  0
    1.2864    2.5121    0.1088 N   0  0  0  0  0  0  0  0  0  0  0  0
   -1.2025   -2.5040   -0.0910 O   0  0  0  0  0  0  0  0  0  0  0  0
   -1.3542    2.0741    0.0015 H   0  0  0  0  0  0  0  0  0  0  0  0
    2.4750    0.1176    0.0210 H   0  0  0  0  0  0  0  0  0  0  0  0
   -2.4749   -0.1223   -0.0643 H   0  0  0  0  0  0  0  0  0  0  0  0
    1.3396   -2.0878   -0.0438 H   0  0  0  0  0  0  0  0  0  0  0  0
    0.7497    3.2769   -0.2845 H   0  0  0  0  0  0  0  0  0  0  0  0
    2.2261    2.5168   -0.2715 H   0  0  0  0  0  0  0  0  0  0  0  0
   -2.1669   -2.4075   -0.0893 H   0  0  0  0  0  0  0  0  0  0  0  0
  1  9  1  0
  1  5  2  0
  2  5  1  0
  2 10  1  0
  3  1  1  0
  4  2  2  0
  5  7  1  0
  6  3  2  0
  6  4  1  0
  8 15  1  0
  8  6  1  0
 11  3  1  0
 12  4  1  0
 13  7  1  0
 14  7  1  0
M  END
>  <HBA>  (146) 
2

>  <HBD>  (146) 
2

>  <TPSA>  (146) 
46.25

>  <cid>  (146) 
403

>  <dipole>  (146) 
2.11

>  <excitation_energy_1>  (146) 
4.337

>  <excitation_energy_2>  (146) 
4.475

>  <excitation_energy_3>  (146) 
4.552

>  <excitation_energy_4>  (146) 
5.223

>  <homo_energy>  (146) 
-4.991

>  <homo_lumo_gap>  (146) 
5.113

>  <logP>  (146) 
1.556

>  <lumo_energy>  (146) 
0.122

>  <melting_point>  (146) 
93.45

>  <molecular_refractivity>  (146) 
32.87

>  <oscillator_strength_1>  (146) 
0.0517

>  <oscillator_strength_2>  (146) 
0.0036

>  <oscillator_strength_3>  (146) 
0.0004

>  <oscillator_strength_4>  (146) 
0.0003

>  <open_babel_can_smiles>  (146) 
Nc1ccc(cc1)O

>  <mulliken_charges>  (146) 
15
1   -0.177382
2   -0.176696
3   -0.199303
4   -0.164565
5   0.296602
6   0.342398
7   -0.786005
8   -0.652951
9   0.117672
10   0.11861
11   0.114297
12   0.136343
13   0.313725
14   0.314402
15   0.402852

>  <lowdin_charges>  (146) 
15
1   -0.189913
2   -0.183309
3   -0.201364
4   -0.175852
5   0.040587
6   0.080598
7   -0.498519
8   -0.389153
9   0.153706
10   0.151783
11   0.149419
12   0.16639
13   0.272259
14   0.270801
15   0.352568

$$$$
PCCDB-ID:  404
     RDKit          3D

 25 24  0  0  1  0  0  0  0  0999 V2000
    1.1288   -0.1608   -0.1765 C   0  0  0  0  0  0  0  0  0  0  0  0
    0.7794   -1.5514    0.3812 C   0  0  0  0  0  0  0  0  0  0  0  0
    2.6371    0.1056   -0.3225 C   0  0  0  0  0  0  0  0  0  0  0  0
   -0.7237   -1.8316    0.5026 C   0  0  0  0  0  0  0  0  0  0  0  0
    3.4057   -0.7468   -1.3616 C   0  0  1  0  0  0  0  0  0  0  0  0
    2.8547   -0.4746   -2.7742 C   0  0  0  0  0  0  0  0  0  0  0  0
    4.8294   -0.4398   -1.2548 N   0  0  0  0  0  0  0  0  0  0  0  0
   -1.3340   -0.9654    1.5170 N   0  0  0  0  0  0  0  0  0  0  0  0
    3.3045    0.3746   -3.5038 O   0  0  0  0  0  0  0  0  0  0  0  0
    1.7901   -1.2231   -3.1757 O   0  0  0  0  0  0  0  0  0  0  0  0
   -2.7533   -1.2522    1.5190 O   0  0  0  0  0  0  0  0  0  0  0  0
    0.7316    0.6072    0.4991 H   0  0  0  0  0  0  0  0  0  0  0  0
    0.6205   -0.0084   -1.1387 H   0  0  0  0  0  0  0  0  0  0  0  0
    1.2475   -1.6794    1.3658 H   0  0  0  0  0  0  0  0  0  0  0  0
    1.2043   -2.3381   -0.2602 H   0  0  0  0  0  0  0  0  0  0  0  0
    3.1419   -0.0514    0.6376 H   0  0  0  0  0  0  0  0  0  0  0  0
    2.7892    1.1599   -0.5893 H   0  0  0  0  0  0  0  0  0  0  0  0
   -0.8799   -2.8634    0.8348 H   0  0  0  0  0  0  0  0  0  0  0  0
   -1.2179   -1.7276   -0.4783 H   0  0  0  0  0  0  0  0  0  0  0  0
    3.2790   -1.8115   -1.1231 H   0  0  0  0  0  0  0  0  0  0  0  0
    4.9746    0.4944   -1.6407 H   0  0  0  0  0  0  0  0  0  0  0  0
    5.3557   -1.0609   -1.8690 H   0  0  0  0  0  0  0  0  0  0  0  0
   -1.3091   -0.0046    1.1728 H   0  0  0  0  0  0  0  0  0  0  0  0
    1.5630   -1.8712   -2.4883 H   0  0  0  0  0  0  0  0  0  0  0  0
   -2.9050   -1.5224    2.4384 H   0  0  0  0  0  0  0  0  0  0  0  0
  1  2  1  0
  1 12  1  0
  2  4  1  0
  2 14  1  0
  3  1  1  0
  3 16  1  0
  4 18  1  0
  4  8  1  0
  5  7  1  0
  5 20  1  1
  5  3  1  0
  6  5  1  0
  8 11  1  0
  9  6  2  0
 10  6  1  0
 10 24  1  0
 11 25  1  0
 13  1  1  0
 15  2  1  0
 17  3  1  0
 19  4  1  0
 21  7  1  0
 22  7  1  0
 23  8  1  0
M  END
>  <HBA>  (147) 
5

>  <HBD>  (147) 
4

>  <TPSA>  (147) 
95.58

>  <cid>  (147) 
404

>  <dipole>  (147) 
3.12

>  <excitation_energy_1>  (147) 
5.488

>  <excitation_energy_2>  (147) 
5.864

>  <excitation_energy_3>  (147) 
5.907

>  <excitation_energy_4>  (147) 
6.001

>  <homo_energy>  (147) 
-6.7

>  <homo_lumo_gap>  (147) 
6.74

>  <logP>  (147) 
0.639

>  <lumo_energy>  (147) 
0.041

>  <melting_point>  (147) 
185.93

>  <molecular_refractivity>  (147) 
38.97

>  <oscillator_strength_1>  (147) 
0.0037

>  <oscillator_strength_2>  (147) 
0.0019

>  <oscillator_strength_3>  (147) 
0.0138

>  <oscillator_strength_4>  (147) 
0.0071

>  <open_babel_can_smiles>  (147) 
ONCCCC[C@@H](C(=O)O)N

>  <mulliken_charges>  (147) 
25
1   -0.301324
2   -0.278757
3   -0.251748
4   -0.106998
5   -0.102463
6   0.578866
7   -0.693574
8   -0.361323
9   -0.446478
10   -0.565566
11   -0.534254
12   0.147171
13   0.15019
14   0.158781
15   0.114158
16   0.16565
17   0.151457
18   0.147826
19   0.130972
20   0.135965
21   0.313794
22   0.303609
23   0.320343
24   0.413667
25   0.410036

>  <lowdin_charges>  (147) 
25
1   -0.293846
2   -0.28572
3   -0.272924
4   -0.210431
5   -0.111348
6   0.176098
7   -0.531366
8   -0.242687
9   -0.244432
10   -0.35576
11   -0.429933
12   0.151715
13   0.146088
14   0.154383
15   0.133053
16   0.160869
17   0.153202
18   0.14862
19   0.128759
20   0.141597
21   0.263986
22   0.261311
23   0.253446
24   0.356653
25   0.348669

$$$$
PCCDB-ID:  412
     RDKit          3D

 23 24  0  0  1  0  0  0  0  0999 V2000
    1.4440   -0.0464   -0.4207 C   0  0  0  0  0  0  0  0  0  0  0  0
   -1.3413   -5.0226    0.1223 C   0  0  0  0  0  0  0  0  0  0  0  0
    0.7166   -1.2231   -0.5795 C   0  0  0  0  0  0  0  0  0  0  0  0
   -0.9697   -3.7064    0.8602 C   0  0  0  0  0  0  0  0  0  0  0  0
    0.8699    1.0037    0.2991 C   0  0  0  0  0  0  0  0  0  0  0  0
   -1.8729   -4.5583   -1.2519 C   0  0  0  0  0  0  0  0  0  0  0  0
   -1.0374   -0.1935    0.6731 C   0  0  0  0  0  0  0  0  0  0  0  0
   -0.5619   -1.3141   -0.0173 C   0  0  0  0  0  0  0  0  0  0  0  0
   -1.3903   -2.5751   -0.1176 C   0  0  1  0  0  0  0  0  0  0  0  0
   -0.3523    0.9440    0.8406 N   0  0  0  0  0  0  0  0  0  0  0  0
   -1.2535   -3.2407   -1.4192 N   0  0  0  0  0  0  0  0  0  0  0  0
    2.4378    0.0603   -0.8464 H   0  0  0  0  0  0  0  0  0  0  0  0
   -2.0914   -5.6086    0.6618 H   0  0  0  0  0  0  0  0  0  0  0  0
   -0.4575   -5.6558    0.0012 H   0  0  0  0  0  0  0  0  0  0  0  0
    1.1122   -2.0649   -1.1405 H   0  0  0  0  0  0  0  0  0  0  0  0
    0.1081   -3.6533    1.0406 H   0  0  0  0  0  0  0  0  0  0  0  0
   -1.4700   -3.5977    1.8271 H   0  0  0  0  0  0  0  0  0  0  0  0
    1.4132    1.9366    0.4432 H   0  0  0  0  0  0  0  0  0  0  0  0
   -2.9772   -4.5088   -1.2286 H   0  0  0  0  0  0  0  0  0  0  0  0
   -1.5877   -5.2258   -2.0722 H   0  0  0  0  0  0  0  0  0  0  0  0
   -2.0344   -0.2166    1.1152 H   0  0  0  0  0  0  0  0  0  0  0  0
   -2.4440   -2.3131    0.1010 H   0  0  0  0  0  0  0  0  0  0  0  0
   -1.6895   -2.7004   -2.1643 H   0  0  0  0  0  0  0  0  0  0  0  0
  1  5  2  0
  2 13  1  0
  2  4  1  0
  3  1  1  0
  3  8  2  0
  4 16  1  0
  4 17  1  0
  5 18  1  0
  5 10  1  0
  6 19  1  0
  6  2  1  0
  7 10  2  0
  7 21  1  0
  8  7  1  0
  9  8  1  0
  9 22  1  1
  9  4  1  0
 11  6  1  0
 11  9  1  0
 12  1  1  0
 14  2  1  0
 15  3  1  0
 20  6  1  0
 23 11  1  0
M  END
>  <HBA>  (148) 
2

>  <HBD>  (148) 
1

>  <TPSA>  (148) 
24.92

>  <cid>  (148) 
412

>  <dipole>  (148) 
2.44

>  <excitation_energy_1>  (148) 
4.807

>  <excitation_energy_2>  (148) 
4.858

>  <excitation_energy_3>  (148) 
5.159

>  <excitation_energy_4>  (148) 
5.213

>  <homo_energy>  (148) 
-6.221

>  <homo_lumo_gap>  (148) 
5.739

>  <logP>  (148) 
1.835

>  <lumo_energy>  (148) 
-0.482

>  <melting_point>  (148) 
70.42

>  <molecular_refractivity>  (148) 
48.23

>  <oscillator_strength_1>  (148) 
0.0018

>  <oscillator_strength_2>  (148) 
0.0038

>  <oscillator_strength_3>  (148) 
0.0

>  <oscillator_strength_4>  (148) 
0.0005

>  <open_babel_can_smiles>  (148) 
C1CN[C@@H](C1)c1cccnc1

>  <mulliken_charges>  (148) 
23
1   -0.142635
2   -0.280242
3   -0.139658
4   -0.266285
5   0.037952
6   -0.121757
7   -0.01811
8   0.136201
9   -0.038788
10   -0.412457
11   -0.568804
12   0.134701
13   0.140597
14   0.149423
15   0.156434
16   0.150814
17   0.142504
18   0.138226
19   0.116234
20   0.142035
21   0.132893
22   0.112356
23   0.298367

>  <lowdin_charges>  (148) 
23
1   -0.174329
2   -0.287498
3   -0.133492
4   -0.27995
5   -0.094996
6   -0.202719
7   -0.103389
8   -0.028957
9   -0.061269
10   -0.149178
11   -0.366407
12   0.161647
13   0.149562
14   0.152056
15   0.171387
16   0.150729
17   0.149826
18   0.155062
19   0.116222
20   0.146967
21   0.150442
22   0.120521
23   0.257761

$$$$
PCCDB-ID:  413
     RDKit          3D

 22 23  0  0  1  0  0  0  0  0999 V2000
    1.2831    0.1081   -0.6856 C   0  0  0  0  0  0  0  0  0  0  0  0
    0.4344   -0.9588   -0.9778 C   0  0  0  0  0  0  0  0  0  0  0  0
   -0.9942   -3.8302    0.5363 C   0  0  0  0  0  0  0  0  0  0  0  0
   -1.4640   -4.9595   -0.3952 C   0  0  0  0  0  0  0  0  0  0  0  0
    1.1728    0.7310    0.5574 C   0  0  0  0  0  0  0  0  0  0  0  0
   -0.5266   -0.6568    1.1881 C   0  0  0  0  0  0  0  0  0  0  0  0
   -0.4970   -1.3660   -0.0199 C   0  0  0  0  0  0  0  0  0  0  0  0
   -1.4279   -2.5412   -0.2401 C   0  0  1  0  0  0  0  0  0  0  0  0
   -1.5527   -4.2026   -1.7103 C   0  0  0  0  0  0  0  0  0  0  0  0
    0.2818    0.3646    1.4884 N   0  0  0  0  0  0  0  0  0  0  0  0
   -1.5266   -2.9323   -1.6542 N   0  0  0  0  0  0  0  0  0  0  0  0
   -1.6976   -4.8454   -2.8918 O   0  0  0  0  0  0  0  0  0  0  0  0
    2.0155    0.4539   -1.4096 H   0  0  0  0  0  0  0  0  0  0  0  0
    0.4686   -1.4655   -1.9372 H   0  0  0  0  0  0  0  0  0  0  0  0
    0.0967   -3.8465    0.6287 H   0  0  0  0  0  0  0  0  0  0  0  0
   -1.4179   -3.8823    1.5429 H   0  0  0  0  0  0  0  0  0  0  0  0
   -2.4552   -5.3480   -0.1211 H   0  0  0  0  0  0  0  0  0  0  0  0
   -0.7786   -5.8150   -0.4402 H   0  0  0  0  0  0  0  0  0  0  0  0
    1.8219    1.5653    0.8187 H   0  0  0  0  0  0  0  0  0  0  0  0
   -1.2508   -0.9283    1.9578 H   0  0  0  0  0  0  0  0  0  0  0  0
   -2.4337   -2.2414    0.0928 H   0  0  0  0  0  0  0  0  0  0  0  0
   -1.6514   -5.8014   -2.7386 H   0  0  0  0  0  0  0  0  0  0  0  0
  1  5  2  0
  2  1  1  0
  2  7  2  0
  3 15  1  0
  3 16  1  0
  4 17  1  0
  4  3  1  0
  5 19  1  0
  5 10  1  0
  6 10  2  0
  6 20  1  0
  7  6  1  0
  8  7  1  0
  8 21  1  1
  8  3  1  0
  9 11  2  0
  9  4  1  0
 11  8  1  0
 12 22  1  0
 12  9  1  0
 13  1  1  0
 14  2  1  0
 18  4  1  0
M  END
>  <HBA>  (149) 
3

>  <HBD>  (149) 
1

>  <TPSA>  (149) 
41.99

>  <cid>  (149) 
413

>  <dipole>  (149) 
4.61

>  <excitation_energy_1>  (149) 
4.894

>  <excitation_energy_2>  (149) 
5.147

>  <excitation_energy_3>  (149) 
5.331

>  <excitation_energy_4>  (149) 
5.705

>  <homo_energy>  (149) 
-6.612

>  <homo_lumo_gap>  (149) 
6.237

>  <logP>  (149) 
1.361

>  <lumo_energy>  (149) 
-0.376

>  <melting_point>  (149) 
91.81

>  <molecular_refractivity>  (149) 
48.43

>  <oscillator_strength_1>  (149) 
0.0038

>  <oscillator_strength_2>  (149) 
0.0001

>  <oscillator_strength_3>  (149) 
0.0492

>  <oscillator_strength_4>  (149) 
0.0097

>  <open_babel_can_smiles>  (149) 
OC1=N[C@@H](CC1)c1cccnc1

>  <mulliken_charges>  (149) 
22
1   -0.143423
2   -0.142594
3   -0.286828
4   -0.376079
5   0.036926
6   -0.006657
7   0.132091
8   -0.051813
9   0.498731
10   -0.414263
11   -0.42807
12   -0.583172
13   0.13486
14   0.163006
15   0.160457
16   0.150317
17   0.171702
18   0.154677
19   0.137462
20   0.129466
21   0.15006
22   0.413143

>  <lowdin_charges>  (149) 
22
1   -0.175658
2   -0.133652
3   -0.281976
4   -0.31642
5   -0.096097
6   -0.105354
7   -0.026051
8   -0.05913
9   0.114212
10   -0.148691
11   -0.207291
12   -0.345225
13   0.16367
14   0.173782
15   0.154494
16   0.154366
17   0.162829
18   0.156309
19   0.154972
20   0.15089
21   0.149441
22   0.36058

$$$$
PCCDB-ID:  418
     RDKit          3D

 16 16  0  0  1  0  0  0  0  0999 V2000
    1.0403    0.8520    0.1639 C   0  0  0  0  0  0  0  0  0  0  0  0
   -0.3182    1.3037   -0.1624 C   0  0  0  0  0  0  0  0  0  0  0  0
    1.3436   -0.4562    0.2396 C   0  0  0  0  0  0  0  0  0  0  0  0
   -1.3443    0.4374   -0.2377 C   0  0  0  0  0  0  0  0  0  0  0  0
    0.3116   -1.5028   -0.1015 C   0  0  1  0  0  0  0  0  0  0  0  0
   -1.1440   -1.0187    0.1033 C   0  0  1  0  0  0  0  0  0  0  0  0
    0.5237   -1.9668   -1.4442 O   0  0  0  0  0  0  0  0  0  0  0  0
   -1.5905   -1.2630    1.4464 O   0  0  0  0  0  0  0  0  0  0  0  0
    1.8033    1.6082    0.3349 H   0  0  0  0  0  0  0  0  0  0  0  0
   -0.4764    2.3661   -0.3340 H   0  0  0  0  0  0  0  0  0  0  0  0
    2.3554   -0.7895    0.4558 H   0  0  0  0  0  0  0  0  0  0  0  0
   -2.3545    0.7760   -0.4536 H   0  0  0  0  0  0  0  0  0  0  0  0
    0.4306   -2.3917    0.5262 H   0  0  0  0  0  0  0  0  0  0  0  0
   -1.7722   -1.6592   -0.5240 H   0  0  0  0  0  0  0  0  0  0  0  0
    0.6066   -1.1777   -2.0044 H   0  0  0  0  0  0  0  0  0  0  0  0
   -1.1827   -0.5816    2.0055 H   0  0  0  0  0  0  0  0  0  0  0  0
  1  3  2  0
  1  9  1  0
  2  1  1  0
  3 11  1  0
  4  2  2  0
  4  6  1  0
  5  6  1  0
  5  3  1  0
  5 13  1  1
  6 14  1  6
  6  8  1  0
  7  5  1  0
  8 16  1  0
 10  2  1  0
 12  4  1  0
 15  7  1  0
M  END
>  <HBA>  (150) 
2

>  <HBD>  (150) 
2

>  <TPSA>  (150) 
40.46

>  <cid>  (150) 
418

>  <dipole>  (150) 
2.92

>  <excitation_energy_1>  (150) 
4.363

>  <excitation_energy_2>  (150) 
4.768

>  <excitation_energy_3>  (150) 
5.691

>  <excitation_energy_4>  (150) 
5.763

>  <homo_energy>  (150) 
-6.308

>  <homo_lumo_gap>  (150) 
5.037

>  <logP>  (150) 
-0.166

>  <lumo_energy>  (150) 
-1.271

>  <melting_point>  (150) 
52.83

>  <molecular_refractivity>  (150) 
30.22

>  <oscillator_strength_1>  (150) 
0.0386

>  <oscillator_strength_2>  (150) 
0.0816

>  <oscillator_strength_3>  (150) 
0.0009

>  <oscillator_strength_4>  (150) 
0.0264

>  <open_babel_can_smiles>  (150) 
O[C@H]1C=CC=C[C@@H]1O

>  <mulliken_charges>  (150) 
16
1   -0.126468
2   -0.126705
3   -0.159204
4   -0.158925
5   0.075736
6   0.075659
7   -0.616705
8   -0.616511
9   0.136693
10   0.136693
11   0.142831
12   0.14284
13   0.156124
14   0.156033
15   0.390965
16   0.390945

>  <lowdin_charges>  (150) 
16
1   -0.172748
2   -0.169312
3   -0.180789
4   -0.180935
5   -0.017811
6   -0.01838
7   -0.45609
8   -0.457112
9   0.161144
10   0.158422
11   0.161968
12   0.161923
13   0.15972
14   0.160808
15   0.344075
16   0.345119

$$$$
PCCDB-ID:  419
     RDKit          3D

 17 16  0  0  0  0  0  0  0  0999 V2000
    0.6004   -0.0548   -0.3707 C   0  0  0  0  0  0  0  0  0  0  0  0
    0.1404   -1.2019    0.1469 C   0  0  0  0  0  0  0  0  0  0  0  0
    2.2904    1.8667   -0.5246 C   0  0  0  0  0  0  0  0  0  0  0  0
    1.8186    0.6034    0.1695 C   0  0  0  0  0  0  0  0  0  0  0  0
   -1.0852   -1.8513   -0.4162 C   0  0  0  0  0  0  0  0  0  0  0  0
    3.1142    2.8773    0.2990 C   0  0  0  0  0  0  0  0  0  0  0  0
    2.4299    0.1173    1.1203 O   0  0  0  0  0  0  0  0  0  0  0  0
   -1.7043   -1.4036   -1.3508 O   0  0  0  0  0  0  0  0  0  0  0  0
   -1.4780   -2.9985    0.1898 O   0  0  0  0  0  0  0  0  0  0  0  0
    3.1487    4.0401   -0.0179 O   0  0  0  0  0  0  0  0  0  0  0  0
    3.8154    2.3854    1.3276 O   0  0  0  0  0  0  0  0  0  0  0  0
    0.0772    0.4036   -1.2056 H   0  0  0  0  0  0  0  0  0  0  0  0
    0.6692   -1.6552    0.9839 H   0  0  0  0  0  0  0  0  0  0  0  0
    1.4569    2.4071   -0.9805 H   0  0  0  0  0  0  0  0  0  0  0  0
    2.9324    1.5465   -1.3612 H   0  0  0  0  0  0  0  0  0  0  0  0
   -0.8814   -3.2287    0.9212 H   0  0  0  0  0  0  0  0  0  0  0  0
    3.5735    1.4378    1.4593 H   0  0  0  0  0  0  0  0  0  0  0  0
  1  2  2  0
  1  4  1  0
  2 13  1  0
  3  4  1  0
  3  6  1  0
  4  7  2  0
  5  2  1  0
  5  9  1  0
  6 11  1  0
  8  5  2  0
  9 16  1  0
 10  6  2  0
 11 17  1  0
 12  1  1  0
 14  3  1  0
 15  3  1  0
M  END
>  <HBA>  (151) 
5

>  <HBD>  (151) 
2

>  <TPSA>  (151) 
91.67

>  <cid>  (151) 
419

>  <dipole>  (151) 
4.21

>  <excitation_energy_1>  (151) 
3.324

>  <excitation_energy_2>  (151) 
3.591

>  <excitation_energy_3>  (151) 
3.749

>  <excitation_energy_4>  (151) 
4.476

>  <homo_energy>  (151) 
-7.51

>  <homo_lumo_gap>  (151) 
4.025

>  <logP>  (151) 
-0.329

>  <lumo_energy>  (151) 
-3.486

>  <melting_point>  (151) 
158.94

>  <molecular_refractivity>  (151) 
34.23

>  <oscillator_strength_1>  (151) 
0.0129

>  <oscillator_strength_2>  (151) 
0.0037

>  <oscillator_strength_3>  (151) 
0.0101

>  <oscillator_strength_4>  (151) 
0.0009

>  <open_babel_can_smiles>  (151) 
OC(=O)/C=C/C(=O)CC(=O)O

>  <mulliken_charges>  (151) 
17
1   -0.147583
2   -0.190809
3   -0.498541
4   0.452769
5   0.613195
6   0.609939
7   -0.486327
8   -0.432765
9   -0.566755
10   -0.441904
11   -0.574318
12   0.192825
13   0.177513
14   0.208888
15   0.226652
16   0.417965
17   0.439254

>  <lowdin_charges>  (151) 
17
1   -0.148563
2   -0.149046
3   -0.351279
4   0.172233
5   0.193642
6   0.18934
7   -0.247475
8   -0.223997
9   -0.340211
10   -0.239811
11   -0.348761
12   0.190452
13   0.178618
14   0.192439
15   0.207292
16   0.364529
17   0.3606

$$$$
PCCDB-ID:  421
     RDKit          3D

 28 27  0  0  1  0  0  0  0  0999 V2000
    1.6492   -0.1669   -1.0103 C   0  0  0  0  0  0  0  0  0  0  0  0
    0.5447   -0.8747   -1.8134 C   0  0  0  0  0  0  0  0  0  0  0  0
    3.0900   -0.4163   -1.5201 C   0  0  0  0  0  0  0  0  0  0  0  0
    0.4094   -0.4139   -3.2809 C   0  0  0  0  0  0  0  0  0  0  0  0
    4.0349    1.9540   -1.6567 C   0  0  0  0  0  0  0  0  0  0  0  0
    4.4630    3.1662   -2.4893 C   0  0  0  0  0  0  0  0  0  0  0  0
    3.6592    0.6857   -2.4382 C   0  0  1  0  0  0  0  0  0  0  0  0
   -0.7743   -1.0874   -3.9635 C   0  0  0  0  0  0  0  0  0  0  0  0
   -1.8414   -0.5629   -4.1543 O   0  0  0  0  0  0  0  0  0  0  0  0
   -0.5821   -2.3905   -4.3229 O   0  0  0  0  0  0  0  0  0  0  0  0
    3.1524    3.8629   -3.5903 S   0  0  0  0  0  0  0  0  0  0  0  0
    5.0672    0.0491   -3.4713 S   0  0  0  0  0  0  0  0  0  0  0  0
    1.5741   -0.5186    0.0258 H   0  0  0  0  0  0  0  0  0  0  0  0
    1.4353    0.9093   -0.9763 H   0  0  0  0  0  0  0  0  0  0  0  0
   -0.4171   -0.7079   -1.3131 H   0  0  0  0  0  0  0  0  0  0  0  0
    0.7224   -1.9595   -1.7848 H   0  0  0  0  0  0  0  0  0  0  0  0
    3.1247   -1.3756   -2.0496 H   0  0  0  0  0  0  0  0  0  0  0  0
    3.7690   -0.5228   -0.6628 H   0  0  0  0  0  0  0  0  0  0  0  0
    1.3307   -0.6316   -3.8383 H   0  0  0  0  0  0  0  0  0  0  0  0
    0.2367    0.6650   -3.3245 H   0  0  0  0  0  0  0  0  0  0  0  0
    3.1756    2.2428   -1.0378 H   0  0  0  0  0  0  0  0  0  0  0  0
    4.8535    1.7123   -0.9618 H   0  0  0  0  0  0  0  0  0  0  0  0
    5.3418    2.9394   -3.0968 H   0  0  0  0  0  0  0  0  0  0  0  0
    4.7283    3.9907   -1.8208 H   0  0  0  0  0  0  0  0  0  0  0  0
    2.9137    0.9518   -3.1959 H   0  0  0  0  0  0  0  0  0  0  0  0
    0.3305   -2.6588   -4.1276 H   0  0  0  0  0  0  0  0  0  0  0  0
    3.3473    3.0268   -4.6322 H   0  0  0  0  0  0  0  0  0  0  0  0
    5.8687   -0.3047   -2.4412 H   0  0  0  0  0  0  0  0  0  0  0  0
  1 14  1  0
  1 13  1  0
  2 16  1  0
  2 15  1  0
  2  1  1  0
  3  1  1  0
  3 18  1  0
  4  2  1  0
  5 21  1  0
  5 22  1  0
  6 24  1  0
  6  5  1  0
  7 25  1  6
  7  5  1  0
  7  3  1  0
  8  4  1  0
  9  8  2  0
 10 26  1  0
 10  8  1  0
 11  6  1  0
 12 28  1  0
 12  7  1  0
 17  3  1  0
 19  4  1  0
 20  4  1  0
 23  6  1  0
 27 11  1  0
M  END
>  <HBA>  (152) 
4

>  <HBD>  (152) 
3

>  <TPSA>  (152) 
114.9

>  <cid>  (152) 
421

>  <dipole>  (152) 
5.87

>  <excitation_energy_1>  (152) 
5.23

>  <excitation_energy_2>  (152) 
5.331

>  <excitation_energy_3>  (152) 
5.622

>  <excitation_energy_4>  (152) 
5.668

>  <homo_energy>  (152) 
-6.631

>  <homo_lumo_gap>  (152) 
6.797

>  <logP>  (152) 
2.25

>  <lumo_energy>  (152) 
0.166

>  <melting_point>  (152) 
89.79

>  <molecular_refractivity>  (152) 
58.2

>  <oscillator_strength_1>  (152) 
0.0312

>  <oscillator_strength_2>  (152) 
0.003

>  <oscillator_strength_3>  (152) 
0.001

>  <oscillator_strength_4>  (152) 
0.0024

>  <open_babel_can_smiles>  (152) 
SCC[C@H](CCCCC(=O)O)S

>  <mulliken_charges>  (152) 
28
1   -0.271985
2   -0.271059
3   -0.260408
4   -0.383107
5   -0.237912
6   -0.425353
7   -0.258672
8   0.587231
9   -0.432626
10   -0.562848
11   -0.086674
12   -0.099507
13   0.147783
14   0.153485
15   0.165395
16   0.132593
17   0.151662
18   0.140068
19   0.152047
20   0.186216
21   0.161576
22   0.141797
23   0.204043
24   0.182507
25   0.178325
26   0.408385
27   0.100615
28   0.096421

>  <lowdin_charges>  (152) 
28
1   -0.27749
2   -0.268676
3   -0.285796
4   -0.31995
5   -0.285721
6   -0.375961
7   -0.22179
8   0.196907
9   -0.235957
10   -0.362473
11   -0.091487
12   -0.099213
13   0.152291
14   0.147976
15   0.158742
16   0.136124
17   0.151787
18   0.147982
19   0.153032
20   0.173224
21   0.156662
22   0.148797
23   0.175511
24   0.171682
25   0.165171
26   0.35623
27   0.117188
28   0.11521

$$$$
PCCDB-ID:  423
     RDKit          3D

 18 17  0  0  1  0  0  0  0  0999 V2000
    2.1766    1.8909    0.5742 C   0  0  0  0  0  0  0  0  0  0  0  0
    2.0728   -0.6754    0.8382 C   0  0  0  0  0  0  0  0  0  0  0  0
    1.3674    0.6184    0.4741 C   0  0  0  0  0  0  0  0  0  0  0  0
    1.1518   -1.8725    1.1777 C   0  0  1  0  0  0  0  0  0  0  0  0
    0.6110   -2.5629   -0.0995 C   0  0  0  0  0  0  0  0  0  0  0  0
    1.8770   -2.7966    2.0446 N   0  0  0  0  0  0  0  0  0  0  0  0
    0.1910    0.6493    0.1310 O   0  0  0  0  0  0  0  0  0  0  0  0
    0.9445   -3.6858   -0.4064 O   0  0  0  0  0  0  0  0  0  0  0  0
   -0.2419   -1.8499   -0.8479 O   0  0  0  0  0  0  0  0  0  0  0  0
    3.1525    1.7734    0.0889 H   0  0  0  0  0  0  0  0  0  0  0  0
    2.3719    2.1166    1.6305 H   0  0  0  0  0  0  0  0  0  0  0  0
    1.6292    2.7210    0.1242 H   0  0  0  0  0  0  0  0  0  0  0  0
    2.7146   -0.4988    1.7097 H   0  0  0  0  0  0  0  0  0  0  0  0
    2.7592   -0.9267    0.0145 H   0  0  0  0  0  0  0  0  0  0  0  0
    0.2939   -1.4805    1.7386 H   0  0  0  0  0  0  0  0  0  0  0  0
    2.4526   -3.3909    1.4453 H   0  0  0  0  0  0  0  0  0  0  0  0
    1.2064   -3.4437    2.4584 H   0  0  0  0  0  0  0  0  0  0  0  0
   -0.3313   -0.9399   -0.4731 H   0  0  0  0  0  0  0  0  0  0  0  0
  1 11  1  0
  2  4  1  0
  2 13  1  0
  3  1  1  0
  3  2  1  0
  4 15  1  1
  4  6  1  0
  5  4  1  0
  6 17  1  0
  7  3  2  0
  8  5  2  0
  9 18  1  0
  9  5  1  0
 10  1  1  0
 12  1  1  0
 14  2  1  0
 16  6  1  0
M  END
>  <HBA>  (153) 
4

>  <HBD>  (153) 
2

>  <TPSA>  (153) 
80.39

>  <cid>  (153) 
423

>  <dipole>  (153) 
4.82

>  <excitation_energy_1>  (153) 
4.553

>  <excitation_energy_2>  (153) 
4.845

>  <excitation_energy_3>  (153) 
5.371

>  <excitation_energy_4>  (153) 
5.659

>  <homo_energy>  (153) 
-6.838

>  <homo_lumo_gap>  (153) 
5.491

>  <logP>  (153) 
0.078

>  <lumo_energy>  (153) 
-1.347

>  <melting_point>  (153) 
126.9

>  <molecular_refractivity>  (153) 
30.83

>  <oscillator_strength_1>  (153) 
0.0002

>  <oscillator_strength_2>  (153) 
0.0047

>  <oscillator_strength_3>  (153) 
0.005

>  <oscillator_strength_4>  (153) 
0.0031

>  <open_babel_can_smiles>  (153) 
CC(=O)C[C@@H](C(=O)O)N

>  <mulliken_charges>  (153) 
18
1   -0.530642
2   -0.366791
3   0.471017
4   -0.10957
5   0.571085
6   -0.700265
7   -0.464574
8   -0.459202
9   -0.587049
10   0.179871
11   0.188842
12   0.19207
13   0.195373
14   0.188633
15   0.165042
16   0.313291
17   0.309891
18   0.442979

>  <lowdin_charges>  (153) 
18
1   -0.466227
2   -0.315914
3   0.185276
4   -0.112341
5   0.164781
6   -0.536797
7   -0.249372
8   -0.261723
9   -0.357606
10   0.175583
11   0.181257
12   0.180601
13   0.183138
14   0.179331
15   0.160841
16   0.265567
17   0.265099
18   0.358507

$$$$
PCCDB-ID:  424
     RDKit          3D

 16 15  0  0  1  0  0  0  0  0999 V2000
    0.3758   -0.5020    0.4841 C   0  0  0  0  0  0  0  0  0  0  0  0
   -0.0745   -1.4101   -0.6865 C   0  0  1  0  0  0  0  0  0  0  0  0
    1.8677   -0.2223    0.5322 C   0  0  0  0  0  0  0  0  0  0  0  0
    0.2226   -2.9046   -0.3964 C   0  0  0  0  0  0  0  0  0  0  0  0
   -1.4901   -1.1693   -0.9473 N   0  0  0  0  0  0  0  0  0  0  0  0
    2.7079   -0.8360   -0.0967 O   0  0  0  0  0  0  0  0  0  0  0  0
    2.2597    0.7873    1.3328 O   0  0  0  0  0  0  0  0  0  0  0  0
   -0.6702   -3.6993   -0.2029 O   0  0  0  0  0  0  0  0  0  0  0  0
    1.5108   -3.2684   -0.3665 O   0  0  0  0  0  0  0  0  0  0  0  0
    0.0667   -0.9276    1.4500 H   0  0  0  0  0  0  0  0  0  0  0  0
   -0.1678    0.4445    0.3741 H   0  0  0  0  0  0  0  0  0  0  0  0
    0.4985   -1.1113   -1.5722 H   0  0  0  0  0  0  0  0  0  0  0  0
   -2.0227   -1.7849   -0.3297 H   0  0  0  0  0  0  0  0  0  0  0  0
   -1.7090   -1.5071   -1.8836 H   0  0  0  0  0  0  0  0  0  0  0  0
    1.4903    1.2046    1.7558 H   0  0  0  0  0  0  0  0  0  0  0  0
    2.0884   -2.4740   -0.4642 H   0  0  0  0  0  0  0  0  0  0  0  0
  1  3  1  0
  1 10  1  0
  2 12  1  6
  2  4  1  0
  2  1  1  0
  3  7  1  0
  4  9  1  0
  4  8  2  0
  5  2  1  0
  5 13  1  0
  6  3  2  0
  7 15  1  0
 11  1  1  0
 14  5  1  0
 16  9  1  0
M  END
>  <HBA>  (154) 
5

>  <HBD>  (154) 
3

>  <TPSA>  (154) 
100.62

>  <cid>  (154) 
424

>  <dipole>  (154) 
4.55

>  <excitation_energy_1>  (154) 
5.492

>  <excitation_energy_2>  (154) 
5.615

>  <excitation_energy_3>  (154) 
5.876

>  <excitation_energy_4>  (154) 
5.886

>  <homo_energy>  (154) 
-7.048

>  <homo_lumo_gap>  (154) 
6.305

>  <logP>  (154) 
-0.427

>  <lumo_energy>  (154) 
-0.743

>  <melting_point>  (154) 
183.33

>  <molecular_refractivity>  (154) 
27.59

>  <oscillator_strength_1>  (154) 
0.0047

>  <oscillator_strength_2>  (154) 
0.0039

>  <oscillator_strength_3>  (154) 
0.0009

>  <oscillator_strength_4>  (154) 
0.0069

>  <open_babel_can_smiles>  (154) 
OC(=O)C[C@@H](C(=O)O)N

>  <mulliken_charges>  (154) 
16
1   -0.410076
2   -0.109253
3   0.631448
4   0.573936
5   -0.704057
6   -0.466993
7   -0.546326
8   -0.45585
9   -0.58278
10   0.198523
11   0.197549
12   0.17231
13   0.317454
14   0.312826
15   0.423919
16   0.44737

>  <lowdin_charges>  (154) 
16
1   -0.328061
2   -0.111088
3   0.21411
4   0.171907
5   -0.53698
6   -0.257296
7   -0.32824
8   -0.260491
9   -0.35576
10   0.180048
11   0.181883
12   0.164514
13   0.267598
14   0.265521
15   0.369275
16   0.363061

$$$$
PCCDB-ID:  428
     RDKit          3D

 15 14  0  0  0  0  0  0  0  0999 V2000
    0.9786    0.1168   -0.0018 C   0  0  0  0  0  0  0  0  0  0  0  0
    0.3735    0.9329    1.1415 C   0  0  0  0  0  0  0  0  0  0  0  0
    2.5023    0.0071    0.0741 C   0  0  0  0  0  0  0  0  0  0  0  0
   -1.0922    0.9284    1.0557 N   0  0  0  0  0  0  0  0  0  0  0  0
    3.0235   -0.7183   -1.0912 N   0  0  0  0  0  0  0  0  0  0  0  0
    0.7125    0.5671   -0.9678 H   0  0  0  0  0  0  0  0  0  0  0  0
    0.5277   -0.8848    0.0131 H   0  0  0  0  0  0  0  0  0  0  0  0
    0.8200    1.9455    1.1379 H   0  0  0  0  0  0  0  0  0  0  0  0
    0.6488    0.4759    2.1014 H   0  0  0  0  0  0  0  0  0  0  0  0
    2.7838   -0.4430    1.0451 H   0  0  0  0  0  0  0  0  0  0  0  0
    2.9421    1.0133    0.0596 H   0  0  0  0  0  0  0  0  0  0  0  0
   -1.3813    1.4146    0.2071 H   0  0  0  0  0  0  0  0  0  0  0  0
   -1.4838    1.4633    1.8297 H   0  0  0  0  0  0  0  0  0  0  0  0
    2.6915   -1.6822   -1.0638 H   0  0  0  0  0  0  0  0  0  0  0  0
    4.0396   -0.7726   -1.0362 H   0  0  0  0  0  0  0  0  0  0  0  0
  1  7  1  0
  1  3  1  0
  1  2  1  0
  2  9  1  0
  3 10  1  0
  4  2  1  0
  4 13  1  0
  5 14  1  0
  5 15  1  0
  5  3  1  0
  6  1  1  0
  8  2  1  0
 11  3  1  0
 12  4  1  0
M  END
>  <HBA>  (155) 
2

>  <HBD>  (155) 
2

>  <TPSA>  (155) 
52.04

>  <cid>  (155) 
428

>  <dipole>  (155) 
1.43

>  <excitation_energy_1>  (155) 
5.619

>  <excitation_energy_2>  (155) 
5.628

>  <excitation_energy_3>  (155) 
6.174

>  <excitation_energy_4>  (155) 
6.176

>  <homo_energy>  (155) 
-6.221

>  <homo_lumo_gap>  (155) 
8.534

>  <logP>  (155) 
0.695

>  <lumo_energy>  (155) 
2.313

>  <melting_point>  (155) 
83.93

>  <molecular_refractivity>  (155) 
21.95

>  <oscillator_strength_1>  (155) 
0.0039

>  <oscillator_strength_2>  (155) 
0.0215

>  <oscillator_strength_3>  (155) 
0.0002

>  <oscillator_strength_4>  (155) 
0.0039

>  <open_babel_can_smiles>  (155) 
NCCCN

>  <mulliken_charges>  (155) 
15
1   -0.244632
2   -0.135304
3   -0.135145
4   -0.715337
5   -0.715362
6   0.141157
7   0.141189
8   0.110365
9   0.135831
10   0.110317
11   0.135835
12   0.291803
13   0.293757
14   0.291791
15   0.293736

>  <lowdin_charges>  (155) 
15
1   -0.282653
2   -0.202797
3   -0.203172
4   -0.560827
5   -0.554578
6   0.145414
7   0.144927
8   0.114453
9   0.139006
10   0.114757
11   0.138364
12   0.251815
13   0.254489
14   0.249715
15   0.251087

$$$$
PCCDB-ID:  439
     RDKit          3D

 21 21  0  0  0  0  0  0  0  0999 V2000
    1.1220   -0.2700    0.1555 C   0  0  0  0  0  0  0  0  0  0  0  0
   -3.3360   -0.0770    0.3980 C   0  0  0  0  0  0  0  0  0  0  0  0
    0.3142    0.7363   -0.2236 C   0  0  0  0  0  0  0  0  0  0  0  0
   -1.9573   -0.2450    0.3643 C   0  0  0  0  0  0  0  0  0  0  0  0
    2.6209   -0.2353    0.0427 C   0  0  0  0  0  0  0  0  0  0  0  0
   -3.8794    1.1234   -0.0690 C   0  0  0  0  0  0  0  0  0  0  0  0
   -1.8148    1.9482   -0.5793 C   0  0  0  0  0  0  0  0  0  0  0  0
   -1.1501    0.7904   -0.1367 C   0  0  0  0  0  0  0  0  0  0  0  0
    3.3555   -0.1277    1.3917 C   0  0  0  0  0  0  0  0  0  0  0  0
   -3.1374    2.1260   -0.5526 N   0  0  0  0  0  0  0  0  0  0  0  0
    4.4366   -0.6152    1.6003 O   0  0  0  0  0  0  0  0  0  0  0  0
    2.7201    0.6015    2.3408 O   0  0  0  0  0  0  0  0  0  0  0  0
    0.7000   -1.1748    0.5926 H   0  0  0  0  0  0  0  0  0  0  0  0
   -3.9843   -0.8606    0.7786 H   0  0  0  0  0  0  0  0  0  0  0  0
    0.7749    1.6220   -0.6647 H   0  0  0  0  0  0  0  0  0  0  0  0
   -1.5141   -1.1705    0.7210 H   0  0  0  0  0  0  0  0  0  0  0  0
    2.9357    0.6274   -0.5604 H   0  0  0  0  0  0  0  0  0  0  0  0
    3.0127   -1.1310   -0.4491 H   0  0  0  0  0  0  0  0  0  0  0  0
   -4.9556    1.2858   -0.0541 H   0  0  0  0  0  0  0  0  0  0  0  0
   -1.2317    2.7779   -0.9801 H   0  0  0  0  0  0  0  0  0  0  0  0
    1.8513    0.8805    1.9955 H   0  0  0  0  0  0  0  0  0  0  0  0
  1 13  1  0
  2 14  1  0
  3  8  1  0
  3  1  2  0
  4  2  2  0
  4 16  1  0
  5  1  1  0
  5  9  1  0
  6 19  1  0
  6  2  1  0
  7 10  1  0
  7  8  2  0
  8  4  1  0
  9 11  2  0
  9 12  1  0
 10  6  2  0
 15  3  1  0
 17  5  1  0
 18  5  1  0
 20  7  1  0
 21 12  1  0
M  END
>  <HBA>  (156) 
3

>  <HBD>  (156) 
1

>  <TPSA>  (156) 
50.19

>  <cid>  (156) 
439

>  <dipole>  (156) 
3.75

>  <excitation_energy_1>  (156) 
4.353

>  <excitation_energy_2>  (156) 
4.547

>  <excitation_energy_3>  (156) 
4.97

>  <excitation_energy_4>  (156) 
5.01

>  <homo_energy>  (156) 
-6.727

>  <homo_lumo_gap>  (156) 
4.969

>  <logP>  (156) 
1.569

>  <lumo_energy>  (156) 
-1.758

>  <melting_point>  (156) 
118.17

>  <molecular_refractivity>  (156) 
45.71

>  <oscillator_strength_1>  (156) 
0.0041

>  <oscillator_strength_2>  (156) 
0.3769

>  <oscillator_strength_3>  (156) 
0.0077

>  <oscillator_strength_4>  (156) 
0.0806

>  <open_babel_can_smiles>  (156) 
OC(=O)C/C=C/c1cccnc1

>  <mulliken_charges>  (156) 
21
1   -0.152745
2   -0.140723
3   -0.177991
4   -0.147768
5   -0.414894
6   0.042649
7   -0.015808
8   0.153806
9   0.588683
10   -0.406643
11   -0.437253
12   -0.560583
13   0.150734
14   0.146278
15   0.141174
16   0.146779
17   0.187452
18   0.192327
19   0.150275
20   0.146092
21   0.408159

>  <lowdin_charges>  (156) 
21
1   -0.174946
2   -0.170174
3   -0.161269
4   -0.127373
5   -0.312837
6   -0.08096
7   -0.093418
8   -0.025829
9   0.186693
10   -0.140245
11   -0.235801
12   -0.353199
13   0.160062
14   0.169589
15   0.160289
16   0.164294
17   0.177496
18   0.183319
19   0.159011
20   0.158678
21   0.356616

$$$$
PCCDB-ID:  441
     RDKit          3D

 15 14  0  0  1  0  0  0  0  0999 V2000
    0.9481   -0.5217    0.4554 C   0  0  0  0  0  0  0  0  0  0  0  0
    2.3461    0.8546   -1.1657 C   0  0  0  0  0  0  0  0  0  0  0  0
    2.2226    0.2910    0.2532 C   0  0  1  0  0  0  0  0  0  0  0  0
    3.6690    1.5638   -1.4784 C   0  0  0  0  0  0  0  0  0  0  0  0
    2.2361    1.4353    1.1398 O   0  0  0  0  0  0  0  0  0  0  0  0
    4.2308    1.4570   -2.5421 O   0  0  0  0  0  0  0  0  0  0  0  0
    4.1616    2.3451   -0.4954 O   0  0  0  0  0  0  0  0  0  0  0  0
    0.9300   -1.3909   -0.2111 H   0  0  0  0  0  0  0  0  0  0  0  0
    0.0660    0.0947    0.2520 H   0  0  0  0  0  0  0  0  0  0  0  0
    0.8793   -0.8903    1.4862 H   0  0  0  0  0  0  0  0  0  0  0  0
    1.5273    1.5710   -1.3226 H   0  0  0  0  0  0  0  0  0  0  0  0
    2.2297    0.0561   -1.9019 H   0  0  0  0  0  0  0  0  0  0  0  0
    3.0996   -0.3377    0.4692 H   0  0  0  0  0  0  0  0  0  0  0  0
    2.3407    1.1196    2.0512 H   0  0  0  0  0  0  0  0  0  0  0  0
    3.5662    2.2834    0.2864 H   0  0  0  0  0  0  0  0  0  0  0  0
  1 10  1  0
  2  3  1  0
  3  1  1  0
  3 13  1  1
  3  5  1  0
  4  2  1  0
  4  7  1  0
  5 14  1  0
  6  4  2  0
  7 15  1  0
  8  1  1  0
  9  1  1  0
 11  2  1  0
 12  2  1  0
M  END
>  <HBA>  (157) 
3

>  <HBD>  (157) 
2

>  <TPSA>  (157) 
57.53

>  <cid>  (157) 
441

>  <dipole>  (157) 
5.95

>  <excitation_energy_1>  (157) 
5.637

>  <excitation_energy_2>  (157) 
6.175

>  <excitation_energy_3>  (157) 
6.98

>  <excitation_energy_4>  (157) 
7.127

>  <homo_energy>  (157) 
-6.944

>  <homo_lumo_gap>  (157) 
7.543

>  <logP>  (157) 
-0.158

>  <lumo_energy>  (157) 
0.599

>  <melting_point>  (157) 
70.54

>  <molecular_refractivity>  (157) 
24.28

>  <oscillator_strength_1>  (157) 
0.0007

>  <oscillator_strength_2>  (157) 
0.0069

>  <oscillator_strength_3>  (157) 
0.0087

>  <oscillator_strength_4>  (157) 
0.0283

>  <open_babel_can_smiles>  (157) 
C[C@@H](CC(=O)O)O

>  <mulliken_charges>  (157) 
15
1   -0.453042
2   -0.377597
3   0.106019
4   0.585472
5   -0.638703
6   -0.45403
7   -0.587589
8   0.159483
9   0.165437
10   0.144402
11   0.182546
12   0.18011
13   0.144081
14   0.409172
15   0.43424

>  <lowdin_charges>  (157) 
15
1   -0.454105
2   -0.325597
3   -0.001088
4   0.187098
5   -0.463923
6   -0.253124
7   -0.370418
8   0.162677
9   0.16198
10   0.151179
11   0.175631
12   0.178374
13   0.138862
14   0.354626
15   0.357828

$$$$
PCCDB-ID:  449
     RDKit          3D

 22 21  0  0  1  0  0  0  0  0999 V2000
    1.0102   -0.0205    0.3866 C   0  0  0  0  0  0  0  0  0  0  0  0
    2.4023   -0.5693   -1.6826 C   0  0  0  0  0  0  0  0  0  0  0  0
    1.5559    0.0982   -2.7776 C   0  0  0  0  0  0  0  0  0  0  0  0
    2.8255    1.5789   -0.3352 C   0  0  0  0  0  0  0  0  0  0  0  0
    4.1469    1.8316   -1.0649 C   0  0  0  0  0  0  0  0  0  0  0  0
    2.3770    0.1028   -0.2939 C   0  0  1  0  0  0  0  0  0  0  0  0
    1.5669   -0.6633   -3.9780 O   0  0  0  0  0  0  0  0  0  0  0  0
    4.2874    2.6957   -1.8982 O   0  0  0  0  0  0  0  0  0  0  0  0
    5.1689    1.0268   -0.7044 O   0  0  0  0  0  0  0  0  0  0  0  0
    3.3705   -0.5430    0.5541 O   0  0  0  0  0  0  0  0  0  0  0  0
    0.2333    0.5162   -0.1680 H   0  0  0  0  0  0  0  0  0  0  0  0
    1.0561    0.3888    1.4005 H   0  0  0  0  0  0  0  0  0  0  0  0
    0.7074   -1.0725    0.4549 H   0  0  0  0  0  0  0  0  0  0  0  0
    3.4455   -0.6121   -2.0231 H   0  0  0  0  0  0  0  0  0  0  0  0
    2.0572   -1.6082   -1.5815 H   0  0  0  0  0  0  0  0  0  0  0  0
    1.9038    1.1255   -2.9575 H   0  0  0  0  0  0  0  0  0  0  0  0
    0.5049    0.1506   -2.4763 H   0  0  0  0  0  0  0  0  0  0  0  0
    2.0652    2.2002   -0.8119 H   0  0  0  0  0  0  0  0  0  0  0  0
    2.9325    1.9223    0.7024 H   0  0  0  0  0  0  0  0  0  0  0  0
    2.4492   -0.5774   -4.3717 H   0  0  0  0  0  0  0  0  0  0  0  0
    4.8209    0.3430   -0.0864 H   0  0  0  0  0  0  0  0  0  0  0  0
    3.2734   -1.5046    0.4588 H   0  0  0  0  0  0  0  0  0  0  0  0
  1 13  1  0
  1 12  1  0
  2 15  1  0
  2  6  1  0
  3 17  1  0
  3  2  1  0
  4  6  1  0
  4 19  1  0
  5  9  1  0
  5  4  1  0
  6  1  1  0
  6 10  1  1
  7  3  1  0
  8  5  2  0
  9 21  1  0
 11  1  1  0
 14  2  1  0
 16  3  1  0
 18  4  1  0
 20  7  1  0
 22 10  1  0
M  END
>  <HBA>  (158) 
4

>  <HBD>  (158) 
3

>  <TPSA>  (158) 
77.76

>  <cid>  (158) 
449

>  <dipole>  (158) 
4.54

>  <excitation_energy_1>  (158) 
5.596

>  <excitation_energy_2>  (158) 
6.418

>  <excitation_energy_3>  (158) 
6.628

>  <excitation_energy_4>  (158) 
6.728

>  <homo_energy>  (158) 
-7.108

>  <homo_lumo_gap>  (158) 
7.497

>  <logP>  (158) 
-0.406

>  <lumo_energy>  (158) 
0.389

>  <melting_point>  (158) 
98.85

>  <molecular_refractivity>  (158) 
35.09

>  <oscillator_strength_1>  (158) 
0.0011

>  <oscillator_strength_2>  (158) 
0.0111

>  <oscillator_strength_3>  (158) 
0.018

>  <oscillator_strength_4>  (158) 
0.0025

>  <open_babel_can_smiles>  (158) 
OCC[C@](CC(=O)O)(O)C

>  <mulliken_charges>  (158) 
22
1   -0.453698
2   -0.316153
3   -0.047218
4   -0.3861
5   0.586852
6   0.275283
7   -0.612974
8   -0.45745
9   -0.58823
10   -0.656479
11   0.157525
12   0.16407
13   0.144895
14   0.150015
15   0.140775
16   0.153693
17   0.149759
18   0.178707
19   0.181869
20   0.394979
21   0.434397
22   0.405481

>  <lowdin_charges>  (158) 
22
1   -0.451483
2   -0.315226
3   -0.136031
4   -0.324639
5   0.183897
6   0.122347
7   -0.461724
8   -0.253617
9   -0.369679
10   -0.458494
11   0.160572
12   0.16181
13   0.15172
14   0.150578
15   0.147541
16   0.141676
17   0.145932
18   0.175961
19   0.175105
20   0.345295
21   0.358307
22   0.350154

$$$$
PCCDB-ID:  454
     RDKit          3D

 25 24  0  0  0  0  0  0  0  0999 V2000
    1.4339   -0.5876    1.0639 C   0  0  0  0  0  0  0  0  0  0  0  0
    2.8938   -0.3579    0.6601 C   0  0  0  0  0  0  0  0  0  0  0  0
    3.1010    0.9213   -0.1605 C   0  0  0  0  0  0  0  0  0  0  0  0
    4.5600    1.1602   -0.5709 C   0  0  0  0  0  0  0  0  0  0  0  0
    4.7546    2.4411   -1.3948 C   0  0  0  0  0  0  0  0  0  0  0  0
    6.2134    2.7663   -1.7523 C   0  0  0  0  0  0  0  0  0  0  0  0
    6.8689    1.7575   -2.6983 C   0  0  0  0  0  0  0  0  0  0  0  0
    8.2762    2.1219   -3.1127 C   0  0  0  0  0  0  0  0  0  0  0  0
    8.8760    3.1073   -2.7425 O   0  0  0  0  0  0  0  0  0  0  0  0
    1.3208   -1.5063    1.6508 H   0  0  0  0  0  0  0  0  0  0  0  0
    0.7871   -0.6742    0.1821 H   0  0  0  0  0  0  0  0  0  0  0  0
    1.0551    0.2438    1.6710 H   0  0  0  0  0  0  0  0  0  0  0  0
    3.2540   -1.2213    0.0823 H   0  0  0  0  0  0  0  0  0  0  0  0
    3.5204   -0.3149    1.5625 H   0  0  0  0  0  0  0  0  0  0  0  0
    2.7411    1.7854    0.4176 H   0  0  0  0  0  0  0  0  0  0  0  0
    2.4718    0.8786   -1.0623 H   0  0  0  0  0  0  0  0  0  0  0  0
    4.9170    0.2881   -1.1375 H   0  0  0  0  0  0  0  0  0  0  0  0
    5.1870    1.2130    0.3320 H   0  0  0  0  0  0  0  0  0  0  0  0
    4.3416    3.2883   -0.8299 H   0  0  0  0  0  0  0  0  0  0  0  0
    4.1579    2.3740   -2.3171 H   0  0  0  0  0  0  0  0  0  0  0  0
    6.8143    2.8391   -0.8368 H   0  0  0  0  0  0  0  0  0  0  0  0
    6.2625    3.7582   -2.2171 H   0  0  0  0  0  0  0  0  0  0  0  0
    6.2799    1.6316   -3.6219 H   0  0  0  0  0  0  0  0  0  0  0  0
    6.9173    0.7494   -2.2583 H   0  0  0  0  0  0  0  0  0  0  0  0
    8.7573    1.3991   -3.8119 H   0  0  0  0  0  0  0  0  0  0  0  0
  1 10  1  0
  1 12  1  0
  2  1  1  0
  2 14  1  0
  3 15  1  0
  3  2  1  0
  4  3  1  0
  4 18  1  0
  5 19  1  0
  5  4  1  0
  6  5  1  0
  6 21  1  0
  7 24  1  0
  7  6  1  0
  8  9  2  0
  8  7  1  0
 11  1  1  0
 13  2  1  0
 16  3  1  0
 17  4  1  0
 20  5  1  0
 22  6  1  0
 23  7  1  0
 25  8  1  0
M  END
>  <HBA>  (159) 
1

>  <HBD>  (159) 
0

>  <TPSA>  (159) 
17.07

>  <cid>  (159) 
454

>  <dipole>  (159) 
2.57

>  <excitation_energy_1>  (159) 
4.335

>  <excitation_energy_2>  (159) 
6.505

>  <excitation_energy_3>  (159) 
6.824

>  <excitation_energy_4>  (159) 
6.969

>  <homo_energy>  (159) 
-6.849

>  <homo_lumo_gap>  (159) 
6.357

>  <logP>  (159) 
2.546

>  <lumo_energy>  (159) 
-0.493

>  <melting_point>  (159) 
3.83

>  <molecular_refractivity>  (159) 
40.77

>  <oscillator_strength_1>  (159) 
0.0002

>  <oscillator_strength_2>  (159) 
0.0232

>  <oscillator_strength_3>  (159) 
0.0446

>  <oscillator_strength_4>  (159) 
0.0012

>  <open_babel_can_smiles>  (159) 
CCCCCCCC=O

>  <mulliken_charges>  (159) 
25
1   -0.441374
2   -0.247621
3   -0.245615
4   -0.255948
5   -0.260767
6   -0.24982
7   -0.349939
8   0.252097
9   -0.382367
10   0.142263
11   0.141267
12   0.142118
13   0.128997
14   0.131037
15   0.128567
16   0.126737
17   0.126948
18   0.129652
19   0.134221
20   0.126173
21   0.147459
22   0.149941
23   0.158855
24   0.164679
25   0.102439

>  <lowdin_charges>  (159) 
25
1   -0.445854
2   -0.273182
3   -0.275082
4   -0.278429
5   -0.276231
6   -0.272479
7   -0.314488
8   0.054834
9   -0.219977
10   0.149699
11   0.146629
12   0.147547
13   0.138786
14   0.139401
15   0.138895
16   0.137612
17   0.136464
18   0.138915
19   0.144877
20   0.137214
21   0.150354
22   0.153118
23   0.162363
24   0.163458
25   0.115554

$$$$
PCCDB-ID:  456
     RDKit          3D

 13 12  0  0  1  0  0  0  0  0999 V2000
    0.4437   -0.3036    0.5047 C   0  0  0  0  0  3  0  0  0  0  0  0
   -0.0937   -1.5382   -0.2150 C   0  0  0  0  0  0  0  0  0  0  0  0
   -1.5267    0.9766    0.3003 C   0  0  0  0  0  0  0  0  0  0  0  0
   -1.9428    1.7699   -0.6014 N   0  0  0  0  0  2  0  0  0  0  0  0
   -0.1956    0.7733    0.6844 N   0  0  0  0  0  0  0  0  0  0  0  0
    1.7168   -0.3890    0.9354 O   0  0  0  0  0  0  0  0  0  0  0  0
    0.7830   -2.5722   -0.0977 O   0  0  0  0  0  0  0  0  0  0  0  0
   -1.1309   -1.5996   -0.8194 O   0  0  0  0  0  0  0  0  0  0  0  0
   -2.3912    0.3202    1.1086 O   0  0  0  0  0  0  0  0  0  0  0  0
   -1.1626    2.2116   -1.0872 H   0  0  0  0  0  0  0  0  0  0  0  0
    2.0605   -1.2764    0.7334 H   0  0  0  0  0  0  0  0  0  0  0  0
    0.4102   -3.3308   -0.5856 H   0  0  0  0  0  0  0  0  0  0  0  0
   -3.2771    0.5758    0.7926 H   0  0  0  0  0  0  0  0  0  0  0  0
  1  2  1  0
  1  5  1  0
  1  6  1  0
  2  7  1  0
  3  5  2  0
  3  9  1  0
  4  3  1  0
  8  2  2  0
 10  4  1  0
 11  6  1  0
 12  7  1  0
 13  9  1  0
M  RAD  2   1   2   4   2
M  END
>  <HBA>  (160) 
6

>  <HBD>  (160) 
3

>  <TPSA>  (160) 
109.49

>  <cid>  (160) 
456

>  <dipole>  (160) 
4.77

>  <excitation_energy_1>  (160) 
3.593

>  <excitation_energy_2>  (160) 
4.353

>  <excitation_energy_3>  (160) 
4.668

>  <excitation_energy_4>  (160) 
5.256

>  <homo_energy>  (160) 
-6.822

>  <homo_lumo_gap>  (160) 
4.61

>  <logP>  (160) 
-0.643

>  <lumo_energy>  (160) 
-2.212

>  <melting_point>  (160) 
187.13

>  <molecular_refractivity>  (160) 
24.6

>  <oscillator_strength_1>  (160) 
0.0066

>  <oscillator_strength_2>  (160) 
0.0477

>  <oscillator_strength_3>  (160) 
0.0074

>  <oscillator_strength_4>  (160) 
0.006

>  <open_babel_can_smiles>  (160) 
[NH]/C(=N/[C](C(=O)O)O)/O

>  <mulliken_charges>  (160) 
13
1   0.479602
2   0.565715
3   0.581205
4   -0.613725
5   -0.430741
6   -0.576392
7   -0.603934
8   -0.416458
9   -0.573306
10   0.29413
11   0.440653
12   0.433063
13   0.420187

>  <lowdin_charges>  (160) 
13
1   0.123863
2   0.169514
3   0.159875
4   -0.442817
5   -0.138657
6   -0.331444
7   -0.3628
8   -0.197133
9   -0.363514
10   0.267015
11   0.369191
12   0.37852
13   0.368385

$$$$
PCCDB-ID:  460
     RDKit          3D

 17 17  0  0  0  0  0  0  0  0999 V2000
    0.9356    0.0570    0.1067 C   0  0  0  0  0  0  0  0  0  0  0  0
    4.3421   -2.9749    2.1859 C   0  0  0  0  0  0  0  0  0  0  0  0
    4.7055   -1.6297    2.2067 C   0  0  0  0  0  0  0  0  0  0  0  0
    3.2823   -3.3986    1.3811 C   0  0  0  0  0  0  0  0  0  0  0  0
    3.9969   -0.7124    1.4272 C   0  0  0  0  0  0  0  0  0  0  0  0
    2.5818   -2.4857    0.5900 C   0  0  0  0  0  0  0  0  0  0  0  0
    2.9360   -1.1220    0.6204 C   0  0  0  0  0  0  0  0  0  0  0  0
    1.5535   -2.8593   -0.2361 O   0  0  0  0  0  0  0  0  0  0  0  0
    2.3141   -0.1926   -0.1776 O   0  0  0  0  0  0  0  0  0  0  0  0
    0.6315    0.8618   -0.5667 H   0  0  0  0  0  0  0  0  0  0  0  0
    0.8049    0.3860    1.1466 H   0  0  0  0  0  0  0  0  0  0  0  0
    0.3188   -0.8278   -0.0775 H   0  0  0  0  0  0  0  0  0  0  0  0
    4.8793   -3.7010    2.7893 H   0  0  0  0  0  0  0  0  0  0  0  0
    5.5320   -1.2919    2.8250 H   0  0  0  0  0  0  0  0  0  0  0  0
    2.9992   -4.4501    1.3557 H   0  0  0  0  0  0  0  0  0  0  0  0
    4.2556    0.3422    1.4212 H   0  0  0  0  0  0  0  0  0  0  0  0
    1.4414   -3.8205   -0.1722 H   0  0  0  0  0  0  0  0  0  0  0  0
  1 11  1  0
  2  3  2  0
  2 13  1  0
  3 14  1  0
  4  2  1  0
  5  3  1  0
  6  7  1  0
  6  4  2  0
  7  5  2  0
  8 17  1  0
  8  6  1  0
  9  1  1  0
  9  7  1  0
 10  1  1  0
 12  1  1  0
 15  4  1  0
 16  5  1  0
M  END
>  <HBA>  (161) 
2

>  <HBD>  (161) 
1

>  <TPSA>  (161) 
29.46

>  <cid>  (161) 
460

>  <dipole>  (161) 
2.14

>  <excitation_energy_1>  (161) 
5.0

>  <excitation_energy_2>  (161) 
5.108

>  <excitation_energy_3>  (161) 
5.631

>  <excitation_energy_4>  (161) 
5.746

>  <homo_energy>  (161) 
-5.821

>  <homo_lumo_gap>  (161) 
5.951

>  <logP>  (161) 
1.401

>  <lumo_energy>  (161) 
0.131

>  <melting_point>  (161) 
49.4

>  <molecular_refractivity>  (161) 
34.96

>  <oscillator_strength_1>  (161) 
0.0411

>  <oscillator_strength_2>  (161) 
0.0004

>  <oscillator_strength_3>  (161) 
0.0324

>  <oscillator_strength_4>  (161) 
0.0052

>  <open_babel_can_smiles>  (161) 
COc1ccccc1O

>  <mulliken_charges>  (161) 
17
1   -0.213048
2   -0.132426
3   -0.142307
4   -0.200988
5   -0.174114
6   0.315242
7   0.325674
8   -0.641918
9   -0.519141
10   0.157755
11   0.137838
12   0.16783
13   0.128322
14   0.127824
15   0.117782
16   0.136923
17   0.40875

>  <lowdin_charges>  (161) 
17
1   -0.275481
2   -0.159196
3   -0.173128
4   -0.209754
5   -0.167306
6   0.078623
7   0.067032
8   -0.374867
9   -0.223926
10   0.156584
11   0.136865
12   0.152624
13   0.159827
14   0.158989
15   0.151335
16   0.165201
17   0.356576

$$$$
PCCDB-ID:  469
     RDKit          3D

 22 21  0  0  1  0  0  0  0  0999 V2000
   -0.2560    0.7873    0.5763 C   0  0  0  0  0  0  0  0  0  0  0  0
   -0.6831    0.0047    1.8410 C   0  0  0  0  0  0  0  0  0  0  0  0
    1.2002    0.5425    0.1748 C   0  0  0  0  0  0  0  0  0  0  0  0
   -2.1305   -0.5113    1.7778 C   0  0  1  0  0  0  0  0  0  0  0  0
    1.4295   -0.8644   -0.3677 C   0  0  0  0  0  0  0  0  0  0  0  0
   -3.1053    0.6781    1.5911 C   0  0  0  0  0  0  0  0  0  0  0  0
   -2.3542   -1.5005    0.7013 N   0  0  0  0  0  0  0  0  0  0  0  0
    0.5621   -1.6906   -0.5389 O   0  0  0  0  0  0  0  0  0  0  0  0
    2.7113   -1.1734   -0.6831 O   0  0  0  0  0  0  0  0  0  0  0  0
   -3.1041    1.6429    2.3235 O   0  0  0  0  0  0  0  0  0  0  0  0
   -3.9267    0.5351    0.5457 O   0  0  0  0  0  0  0  0  0  0  0  0
   -0.4092    1.8580    0.7431 H   0  0  0  0  0  0  0  0  0  0  0  0
   -0.8883    0.5196   -0.2774 H   0  0  0  0  0  0  0  0  0  0  0  0
   -0.5879    0.6478    2.7212 H   0  0  0  0  0  0  0  0  0  0  0  0
   -0.0288   -0.8609    1.9970 H   0  0  0  0  0  0  0  0  0  0  0  0
    1.8776    0.7059    1.0260 H   0  0  0  0  0  0  0  0  0  0  0  0
    1.5117    1.2536   -0.6041 H   0  0  0  0  0  0  0  0  0  0  0  0
   -2.3802   -0.9531    2.7501 H   0  0  0  0  0  0  0  0  0  0  0  0
   -1.5075   -1.6393    0.1473 H   0  0  0  0  0  0  0  0  0  0  0  0
   -2.6183   -2.4051    1.0808 H   0  0  0  0  0  0  0  0  0  0  0  0
    3.2929   -0.4165   -0.4993 H   0  0  0  0  0  0  0  0  0  0  0  0
   -3.6609   -0.3467    0.1594 H   0  0  0  0  0  0  0  0  0  0  0  0
  1 12  1  0
  1  2  1  0
  2 15  1  0
  2 14  1  0
  3  1  1  0
  3 16  1  0
  4  2  1  0
  4 18  1  1
  5  3  1  0
  6  4  1  0
  6 10  2  0
  7 20  1  0
  7  4  1  0
  8  5  2  0
  9 21  1  0
  9  5  1  0
 11  6  1  0
 13  1  1  0
 17  3  1  0
 19  7  1  0
 22 11  1  0
M  END
>  <HBA>  (162) 
5

>  <HBD>  (162) 
3

>  <TPSA>  (162) 
100.62

>  <cid>  (162) 
469

>  <dipole>  (162) 
5.25

>  <excitation_energy_1>  (162) 
5.428

>  <excitation_energy_2>  (162) 
5.612

>  <excitation_energy_3>  (162) 
5.705

>  <excitation_energy_4>  (162) 
5.831

>  <homo_energy>  (162) 
-6.517

>  <homo_lumo_gap>  (162) 
6.204

>  <logP>  (162) 
0.353

>  <lumo_energy>  (162) 
-0.313

>  <melting_point>  (162) 
182.0

>  <molecular_refractivity>  (162) 
37.21

>  <oscillator_strength_1>  (162) 
0.0024

>  <oscillator_strength_2>  (162) 
0.001

>  <oscillator_strength_3>  (162) 
0.003

>  <oscillator_strength_4>  (162) 
0.0004

>  <open_babel_can_smiles>  (162) 
OC(=O)CCC[C@@H](C(=O)O)N

>  <mulliken_charges>  (162) 
22
1   -0.271686
2   -0.274925
3   -0.415785
4   -0.083372
5   0.613998
6   0.608004
7   -0.81134
8   -0.447016
9   -0.556952
10   -0.481374
11   -0.584385
12   0.170084
13   0.164461
14   0.171346
15   0.14394
16   0.170708
17   0.178604
18   0.16514
19   0.36806
20   0.322397
21   0.415897
22   0.434195

>  <lowdin_charges>  (162) 
22
1   -0.27803
2   -0.282178
3   -0.326198
4   -0.107705
5   0.207177
6   0.168877
7   -0.559952
8   -0.251456
9   -0.34796
10   -0.273703
11   -0.357845
12   0.163232
13   0.158111
14   0.165475
15   0.147869
16   0.164569
17   0.171941
18   0.162672
19   0.280651
20   0.272423
21   0.36336
22   0.358671

$$$$
PCCDB-ID:  470
     RDKit          3D

 18 17  0  0  1  0  0  0  0  0999 V2000
    0.9073   -0.1025    0.1919 C   0  0  0  0  0  0  0  0  0  0  0  0
    0.0501    0.1986    1.4258 C   0  0  0  0  0  0  0  0  0  0  0  0
    2.4381   -0.1399    0.4468 C   0  0  1  0  0  0  0  0  0  0  0  0
    2.9740   -1.5605    0.7640 C   0  0  0  0  0  0  0  0  0  0  0  0
    0.1262   -0.8878    2.4263 N   0  0  0  0  0  0  0  0  0  0  0  0
    3.1331    0.4754   -0.6839 N   0  0  0  0  0  0  0  0  0  0  0  0
    3.8608   -2.0646    0.1075 O   0  0  0  0  0  0  0  0  0  0  0  0
    2.4300   -2.1904    1.8111 O   0  0  0  0  0  0  0  0  0  0  0  0
    0.7343    0.6978   -0.5359 H   0  0  0  0  0  0  0  0  0  0  0  0
    0.5685   -1.0363   -0.2792 H   0  0  0  0  0  0  0  0  0  0  0  0
   -0.9854    0.4003    1.1143 H   0  0  0  0  0  0  0  0  0  0  0  0
    0.4239    1.1109    1.9042 H   0  0  0  0  0  0  0  0  0  0  0  0
    2.6487    0.4800    1.3315 H   0  0  0  0  0  0  0  0  0  0  0  0
   -0.4883   -1.6564    2.1584 H   0  0  0  0  0  0  0  0  0  0  0  0
   -0.1915   -0.5672    3.3388 H   0  0  0  0  0  0  0  0  0  0  0  0
    2.9933   -0.1262   -1.4980 H   0  0  0  0  0  0  0  0  0  0  0  0
    4.1359    0.3997   -0.5097 H   0  0  0  0  0  0  0  0  0  0  0  0
    1.6697   -1.6582    2.1969 H   0  0  0  0  0  0  0  0  0  0  0  0
  1  3  1  0
  1  2  1  0
  2 12  1  0
  2  5  1  0
  3  4  1  0
  3 13  1  1
  4  8  1  0
  5 15  1  0
  6 17  1  0
  6  3  1  0
  7  4  2  0
  8 18  1  0
  9  1  1  0
 10  1  1  0
 11  2  1  0
 14  5  1  0
 16  6  1  0
M  END
>  <HBA>  (163) 
4

>  <HBD>  (163) 
3

>  <TPSA>  (163) 
89.34

>  <cid>  (163) 
470

>  <dipole>  (163) 
5.96

>  <excitation_energy_1>  (163) 
5.587

>  <excitation_energy_2>  (163) 
5.759

>  <excitation_energy_3>  (163) 
6.023

>  <excitation_energy_4>  (163) 
6.126

>  <homo_energy>  (163) 
-6.436

>  <homo_lumo_gap>  (163) 
7.282

>  <logP>  (163) 
0.148

>  <lumo_energy>  (163) 
0.846

>  <melting_point>  (163) 
160.42

>  <molecular_refractivity>  (163) 
28.53

>  <oscillator_strength_1>  (163) 
0.001

>  <oscillator_strength_2>  (163) 
0.0002

>  <oscillator_strength_3>  (163) 
0.0049

>  <oscillator_strength_4>  (163) 
0.0051

>  <open_babel_can_smiles>  (163) 
N[C@H](C(=O)O)CCN

>  <mulliken_charges>  (163) 
18
1   -0.2816
2   -0.149404
3   -0.088187
4   0.561319
5   -0.765435
6   -0.699061
7   -0.471584
8   -0.607008
9   0.173989
10   0.146785
11   0.143856
12   0.161138
13   0.152089
14   0.329003
15   0.327976
16   0.300375
17   0.308994
18   0.456756

>  <lowdin_charges>  (163) 
18
1   -0.291439
2   -0.205194
3   -0.114069
4   0.162262
5   -0.533025
6   -0.534303
7   -0.274956
8   -0.382719
9   0.169269
10   0.148004
11   0.137726
12   0.152208
13   0.152251
14   0.272466
15   0.272795
16   0.257668
17   0.260041
18   0.351014

$$$$
PCCDB-ID:  472
     RDKit          3D

 24 24  0  0  0  0  0  0  0  0999 V2000
   -1.4354   -0.2349    0.7905 C   0  0  0  0  0  0  0  0  0  0  0  0
   -1.4323   -1.2808   -0.1487 C   0  0  0  0  0  0  0  0  0  0  0  0
   -0.4869    0.7629    0.6751 C   0  0  0  0  0  0  0  0  0  0  0  0
   -0.5013   -1.3162   -1.1690 C   0  0  0  0  0  0  0  0  0  0  0  0
    1.4431    2.9675    0.6158 C   0  0  0  0  0  0  0  0  0  0  0  0
    0.4849    0.7690   -0.3515 C   0  0  0  0  0  0  0  0  0  0  0  0
    0.4804   -0.3026   -1.3035 C   0  0  0  0  0  0  0  0  0  0  0  0
    1.4719    1.8474   -0.4341 C   0  0  0  0  0  0  0  0  0  0  0  0
    2.5403    3.9769    0.3276 C   0  0  0  0  0  0  0  0  0  0  0  0
    2.3090    4.8369   -0.9281 C   0  0  0  0  0  0  0  0  0  0  0  0
    1.3835   -0.3643   -2.3143 N   0  0  0  0  0  0  0  0  0  0  0  0
    2.3509    1.9076   -1.3041 O   0  0  0  0  0  0  0  0  0  0  0  0
    3.4998    4.1552    1.0404 O   0  0  0  0  0  0  0  0  0  0  0  0
    3.4282    5.4464   -1.3440 O   0  0  0  0  0  0  0  0  0  0  0  0
    1.2201    4.9689   -1.4435 O   0  0  0  0  0  0  0  0  0  0  0  0
   -2.1684   -0.2104    1.5902 H   0  0  0  0  0  0  0  0  0  0  0  0
   -2.1710   -2.0751   -0.0760 H   0  0  0  0  0  0  0  0  0  0  0  0
   -0.4877    1.5702    1.3999 H   0  0  0  0  0  0  0  0  0  0  0  0
   -0.5091   -2.1316   -1.8888 H   0  0  0  0  0  0  0  0  0  0  0  0
    1.6109    2.5635    1.6188 H   0  0  0  0  0  0  0  0  0  0  0  0
    0.4703    3.4719    0.5956 H   0  0  0  0  0  0  0  0  0  0  0  0
    1.3530   -1.1245   -2.9746 H   0  0  0  0  0  0  0  0  0  0  0  0
    2.0763    0.3706   -2.3945 H   0  0  0  0  0  0  0  0  0  0  0  0
    3.1787    5.9733   -2.1270 H   0  0  0  0  0  0  0  0  0  0  0  0
  1 16  1  0
  2 17  1  0
  2  1  2  0
  3  1  1  0
  3 18  1  0
  4  2  1  0
  5 20  1  0
  6  3  2  0
  7  4  2  0
  7  6  1  0
  8  6  1  0
  8  5  1  0
  9  5  1  0
  9 13  2  0
 10  9  1  0
 11  7  1  0
 12  8  2  0
 14 10  1  0
 15 10  2  0
 19  4  1  0
 21  5  1  0
 22 11  1  0
 23 11  1  0
 24 14  1  0
M  END
>  <HBA>  (164) 
5

>  <HBD>  (164) 
2

>  <TPSA>  (164) 
97.46

>  <cid>  (164) 
472

>  <dipole>  (164) 
3.39

>  <excitation_energy_1>  (164) 
3.17

>  <excitation_energy_2>  (164) 
3.362

>  <excitation_energy_3>  (164) 
3.612

>  <excitation_energy_4>  (164) 
4.057

>  <homo_energy>  (164) 
-5.739

>  <homo_lumo_gap>  (164) 
3.845

>  <logP>  (164) 
1.077

>  <lumo_energy>  (164) 
-1.894

>  <melting_point>  (164) 
185.59

>  <molecular_refractivity>  (164) 
52.63

>  <oscillator_strength_1>  (164) 
0.0003

>  <oscillator_strength_2>  (164) 
0.0003

>  <oscillator_strength_3>  (164) 
0.1206

>  <oscillator_strength_4>  (164) 
0.0

>  <open_babel_can_smiles>  (164) 
OC(=O)C(=O)CC(=O)c1ccccc1N

>  <mulliken_charges>  (164) 
24
1   -0.144329
2   -0.123903
3   -0.196894
4   -0.178404
5   -0.458374
6   0.059465
7   0.336121
8   0.424868
9   0.425929
10   0.543318
11   -0.827739
12   -0.526059
13   -0.400751
14   -0.538452
15   -0.457868
16   0.13108
17   0.13757
18   0.139064
19   0.124819
20   0.196333
21   0.204111
22   0.331851
23   0.382668
24   0.415577

>  <lowdin_charges>  (164) 
24
1   -0.195958
2   -0.121444
3   -0.133179
4   -0.205318
5   -0.334803
6   -0.10077
7   0.101946
8   0.172432
9   0.152919
10   0.166474
11   -0.453978
12   -0.285092
13   -0.174816
14   -0.317046
15   -0.250362
16   0.160823
17   0.162818
18   0.163606
19   0.156756
20   0.183016
21   0.190274
22   0.285517
23   0.308522
24   0.367664

$$$$
PCCDB-ID:  484
     RDKit          3D

 11 11  0  0  0  0  0  0  0  0999 V2000
   -1.1100   -0.0515    0.1387 C   0  0  0  0  0  0  0  0  0  0  0  0
    0.8937    0.6846   -0.0285 C   0  0  0  0  0  0  0  0  0  0  0  0
   -0.3225   -1.1687   -0.0240 C   0  0  0  0  0  0  0  0  0  0  0  0
   -0.5491   -2.5611   -0.1217 N   0  0  0  0  0  0  0  0  0  0  0  0
   -0.3466    1.0956    0.1300 N   0  0  0  0  0  0  0  0  0  0  0  0
    0.9663   -0.6750   -0.1300 N   0  0  0  0  0  0  0  0  0  0  0  0
   -2.1851   -0.0120    0.2593 H   0  0  0  0  0  0  0  0  0  0  0  0
    1.7696    1.3186   -0.0704 H   0  0  0  0  0  0  0  0  0  0  0  0
   -1.3894   -2.7572   -0.6580 H   0  0  0  0  0  0  0  0  0  0  0  0
   -0.6614   -2.9957    0.7927 H   0  0  0  0  0  0  0  0  0  0  0  0
    1.7815   -1.2457   -0.3036 H   0  0  0  0  0  0  0  0  0  0  0  0
  1  7  1  0
  2  5  2  0
  3  1  2  0
  4  3  1  0
  4 10  1  0
  5  1  1  0
  6  2  1  0
  6  3  1  0
  8  2  1  0
  9  4  1  0
 11  6  1  0
M  END
>  <HBA>  (165) 
2

>  <HBD>  (165) 
2

>  <TPSA>  (165) 
54.7

>  <cid>  (165) 
484

>  <dipole>  (165) 
3.23

>  <excitation_energy_1>  (165) 
4.938

>  <excitation_energy_2>  (165) 
5.576

>  <excitation_energy_3>  (165) 
6.039

>  <excitation_energy_4>  (165) 
6.088

>  <homo_energy>  (165) 
-5.761

>  <homo_lumo_gap>  (165) 
6.808

>  <logP>  (165) 
0.573

>  <lumo_energy>  (165) 
1.048

>  <melting_point>  (165) 
115.25

>  <molecular_refractivity>  (165) 
22.99

>  <oscillator_strength_1>  (165) 
0.0026

>  <oscillator_strength_2>  (165) 
0.0055

>  <oscillator_strength_3>  (165) 
0.0199

>  <oscillator_strength_4>  (165) 
0.1023

>  <open_babel_can_smiles>  (165) 
Nc1cnc[nH]1

>  <mulliken_charges>  (165) 
11
1   -0.048223
2   0.203089
3   0.377245
4   -0.801241
5   -0.42979
6   -0.557082
7   0.124366
8   0.150404
9   0.325367
10   0.323201
11   0.332665

>  <lowdin_charges>  (165) 
11
1   -0.185097
2   -0.098724
3   0.01371
4   -0.521552
5   -0.188709
6   -0.18613
7   0.155107
8   0.165269
9   0.277222
10   0.273134
11   0.29577

$$$$
PCCDB-ID:  487
     RDKit          3D

 14 13  0  0  0  0  0  0  0  0999 V2000
    0.8499    0.3904    0.2666 C   0  0  0  0  0  0  0  0  0  0  0  0
    2.3042   -0.0211   -0.0863 C   0  0  0  0  0  0  0  0  0  0  0  0
    2.2798   -1.2711   -0.9387 C   0  0  0  0  0  0  0  0  0  0  0  0
    3.0273    1.1955   -0.7056 C   0  0  0  0  0  0  0  0  0  0  0  0
    2.3497   -1.3037   -2.1586 O   0  0  0  0  0  0  0  0  0  0  0  0
    2.1250   -2.3851   -0.2066 O   0  0  0  0  0  0  0  0  0  0  0  0
    3.3887    2.1016    0.0063 O   0  0  0  0  0  0  0  0  0  0  0  0
    3.1722    1.2296   -2.0364 O   0  0  0  0  0  0  0  0  0  0  0  0
    0.3431   -0.4143    0.8064 H   0  0  0  0  0  0  0  0  0  0  0  0
    0.2801    0.6238   -0.6387 H   0  0  0  0  0  0  0  0  0  0  0  0
    0.8825    1.2808    0.8988 H   0  0  0  0  0  0  0  0  0  0  0  0
    2.8268   -0.2499    0.8464 H   0  0  0  0  0  0  0  0  0  0  0  0
    2.0811   -3.1344   -0.8321 H   0  0  0  0  0  0  0  0  0  0  0  0
    2.8583    0.3776   -2.4222 H   0  0  0  0  0  0  0  0  0  0  0  0
  1  9  1  0
  1 11  1  0
  2  1  1  0
  2 12  1  0
  3  6  1  0
  3  2  1  0
  4  2  1  0
  4  7  2  0
  5  3  2  0
  8  4  1  0
 10  1  1  0
 13  6  1  0
 14  8  1  0
M  END
>  <HBA>  (166) 
4

>  <HBD>  (166) 
2

>  <TPSA>  (166) 
74.6

>  <cid>  (166) 
487

>  <dipole>  (166) 
5.0

>  <excitation_energy_1>  (166) 
5.556

>  <excitation_energy_2>  (166) 
5.799

>  <excitation_energy_3>  (166) 
5.943

>  <excitation_energy_4>  (166) 
6.616

>  <homo_energy>  (166) 
-7.353

>  <homo_lumo_gap>  (166) 
6.514

>  <logP>  (166) 
-0.208

>  <lumo_energy>  (166) 
-0.838

>  <melting_point>  (166) 
129.08

>  <molecular_refractivity>  (166) 
24.89

>  <oscillator_strength_1>  (166) 
0.0065

>  <oscillator_strength_2>  (166) 
0.007

>  <oscillator_strength_3>  (166) 
0.0017

>  <oscillator_strength_4>  (166) 
0.0129

>  <open_babel_can_smiles>  (166) 
CC(C(=O)O)C(=O)O

>  <mulliken_charges>  (166) 
14
1   -0.458656
2   -0.284843
3   0.60576
4   0.608244
5   -0.491193
6   -0.549972
7   -0.456117
8   -0.580917
9   0.173872
10   0.169409
11   0.197067
12   0.202994
13   0.422337
14   0.442015

>  <lowdin_charges>  (166) 
14
1   -0.428895
2   -0.189116
3   0.204212
4   0.193473
5   -0.280228
6   -0.328022
7   -0.250932
8   -0.353018
9   0.165816
10   0.162011
11   0.178937
12   0.190033
13   0.371325
14   0.364405

$$$$
PCCDB-ID:  490
     RDKit          3D

 12 11  0  0  0  0  0  0  0  0999 V2000
    0.8600   -0.3601    0.0001 C   0  0  0  0  0  0  0  0  0  0  0  0
    0.2666    1.0143    0.2604 C   0  0  0  0  0  0  0  0  0  0  0  0
    1.6106   -0.5951   -0.9178 O   0  0  0  0  0  0  0  0  0  0  0  0
   -1.9205    2.5829    0.2000 O   0  0  0  0  0  0  0  0  0  0  0  0
   -1.9351    0.4943   -1.2720 O   0  0  0  0  0  0  0  0  0  0  0  0
   -2.2028    0.2022    1.2970 O   0  0  0  0  0  0  0  0  0  0  0  0
   -1.5599    0.9920    0.2252 P   0  0  0  0  0  0  0  0  0  0  0  0
    0.5598   -1.1472    0.7216 H   0  0  0  0  0  0  0  0  0  0  0  0
    0.6599    1.7229   -0.4747 H   0  0  0  0  0  0  0  0  0  0  0  0
    0.5485    1.3481    1.2676 H   0  0  0  0  0  0  0  0  0  0  0  0
   -2.6800    2.7545    0.7835 H   0  0  0  0  0  0  0  0  0  0  0  0
   -1.9706    1.2179   -1.9187 H   0  0  0  0  0  0  0  0  0  0  0  0
  1  2  1  0
  1  8  1  0
  2 10  1  0
  3  1  2  0
  4  7  1  0
  4 11  1  0
  5  7  1  0
  7  2  1  0
  7  6  2  0
  9  2  1  0
 12  5  1  0
M  END
>  <HBA>  (167) 
4

>  <HBD>  (167) 
2

>  <TPSA>  (167) 
84.41

>  <cid>  (167) 
490

>  <dipole>  (167) 
3.77

>  <excitation_energy_1>  (167) 
4.218

>  <excitation_energy_2>  (167) 
6.15

>  <excitation_energy_3>  (167) 
6.248

>  <excitation_energy_4>  (167) 
6.504

>  <homo_energy>  (167) 
-7.276

>  <homo_lumo_gap>  (167) 
6.174

>  <logP>  (167) 
-0.637

>  <lumo_energy>  (167) 
-1.102

>  <melting_point>  (167) 
94.15

>  <molecular_refractivity>  (167) 
22.92

>  <oscillator_strength_1>  (167) 
0.0007

>  <oscillator_strength_2>  (167) 
0.0097

>  <oscillator_strength_3>  (167) 
0.0265

>  <oscillator_strength_4>  (167) 
0.0015

>  <open_babel_can_smiles>  (167) 
O=CCP(=O)(O)O

>  <mulliken_charges>  (167) 
12
1   0.253462
2   -0.555668
3   -0.366973
4   -0.672443
5   -0.637745
6   -0.532383
7   1.071778
8   0.143017
9   0.204838
10   0.208392
11   0.445924
12   0.437801

>  <lowdin_charges>  (167) 
12
1   0.059938
2   -0.494548
3   -0.200782
4   -0.592834
5   -0.572105
6   -0.580792
7   1.073443
8   0.140584
9   0.193594
10   0.200009
11   0.388387
12   0.385105

$$$$
PCCDB-ID:  499
     RDKit          3D

 16 16  0  0  1  0  0  0  0  0999 V2000
   -1.3376    0.3209   -0.5261 C   0  0  0  0  0  0  0  0  0  0  0  0
   -0.2619    1.3008   -0.0150 C   0  0  0  0  0  0  0  0  0  0  0  0
   -0.8741   -1.0366    0.0741 C   0  0  1  0  0  0  0  0  0  0  0  0
    0.8474    0.3411    0.3787 C   0  0  0  0  0  0  0  0  0  0  0  0
   -1.0674   -2.2269   -0.8734 C   0  0  0  0  0  0  0  0  0  0  0  0
    0.5420   -0.8948    0.4392 N   0  0  0  0  0  0  0  0  0  0  0  0
    2.0910    0.7637    0.6774 O   0  0  0  0  0  0  0  0  0  0  0  0
   -2.0663   -2.3823   -1.5348 O   0  0  0  0  0  0  0  0  0  0  0  0
   -0.0415   -3.0962   -0.8830 O   0  0  0  0  0  0  0  0  0  0  0  0
   -1.3317    0.2655   -1.6182 H   0  0  0  0  0  0  0  0  0  0  0  0
   -2.3496    0.5905   -0.2186 H   0  0  0  0  0  0  0  0  0  0  0  0
   -0.5915    1.8695    0.8656 H   0  0  0  0  0  0  0  0  0  0  0  0
    0.0667    2.0284   -0.7673 H   0  0  0  0  0  0  0  0  0  0  0  0
   -1.4472   -1.2780    0.9819 H   0  0  0  0  0  0  0  0  0  0  0  0
    2.1461    1.7217    0.5394 H   0  0  0  0  0  0  0  0  0  0  0  0
    0.6634   -2.7050   -0.3194 H   0  0  0  0  0  0  0  0  0  0  0  0
  1 11  1  0
  1  2  1  0
  1  3  1  0
  2  4  1  0
  2 12  1  0
  3  6  1  0
  3 14  1  1
  4  6  2  0
  4  7  1  0
  5  3  1  0
  8  5  2  0
  9  5  1  0
  9 16  1  0
 10  1  1  0
 13  2  1  0
 15  7  1  0
M  END
>  <HBA>  (168) 
4

>  <HBD>  (168) 
2

>  <TPSA>  (168) 
66.4

>  <cid>  (168) 
499

>  <dipole>  (168) 
6.51

>  <excitation_energy_1>  (168) 
5.552

>  <excitation_energy_2>  (168) 
5.845

>  <excitation_energy_3>  (168) 
6.216

>  <excitation_energy_4>  (168) 
6.378

>  <homo_energy>  (168) 
-6.887

>  <homo_lumo_gap>  (168) 
6.833

>  <logP>  (168) 
-0.322

>  <lumo_energy>  (168) 
-0.054

>  <melting_point>  (168) 
122.41

>  <molecular_refractivity>  (168) 
32.72

>  <oscillator_strength_1>  (168) 
0.0021

>  <oscillator_strength_2>  (168) 
0.0014

>  <oscillator_strength_3>  (168) 
0.0611

>  <oscillator_strength_4>  (168) 
0.002

>  <open_babel_can_smiles>  (168) 
OC(=O)[C@@H]1CCC(=N1)O

>  <mulliken_charges>  (168) 
16
1   -0.287947
2   -0.380979
3   -0.077962
4   0.511679
5   0.597124
6   -0.473089
7   -0.573944
8   -0.461424
9   -0.576461
10   0.179078
11   0.166164
12   0.178428
13   0.164719
14   0.181592
15   0.420489
16   0.432532

>  <lowdin_charges>  (168) 
16
1   -0.274416
2   -0.315652
3   -0.102426
4   0.12993
5   0.179909
6   -0.233315
7   -0.334644
8   -0.254966
9   -0.349709
10   0.164656
11   0.163823
12   0.167839
13   0.162219
14   0.167847
15   0.365597
16   0.363309

$$$$
PCCDB-ID:  502
     RDKit          3D

 22 21  0  0  0  0  0  0  0  0999 V2000
    1.4387   -0.2296    0.9419 C   0  0  0  0  0  0  0  0  0  0  0  0
    0.6781   -1.2037    0.0279 C   0  0  0  0  0  0  0  0  0  0  0  0
    0.6834    0.2081    2.2041 C   0  0  0  0  0  0  0  0  0  0  0  0
   -0.6377   -0.6543   -0.5485 C   0  0  0  0  0  0  0  0  0  0  0  0
    0.0524    0.5131   -2.6284 C   0  0  0  0  0  0  0  0  0  0  0  0
    0.2295   -0.9521    2.9803 N   0  0  0  0  0  0  0  0  0  0  0  0
    0.2901   -0.4647   -3.4195 N   0  0  0  0  0  0  0  0  0  0  0  0
   -0.5066    0.5398   -1.3728 N   0  0  0  0  0  0  0  0  0  0  0  0
    0.3400    1.7819   -3.0345 O   0  0  0  0  0  0  0  0  0  0  0  0
    1.7238    0.6693    0.3786 H   0  0  0  0  0  0  0  0  0  0  0  0
    2.3848   -0.7023    1.2431 H   0  0  0  0  0  0  0  0  0  0  0  0
    0.4403   -2.1150    0.5878 H   0  0  0  0  0  0  0  0  0  0  0  0
    1.3341   -1.4912   -0.8031 H   0  0  0  0  0  0  0  0  0  0  0  0
   -0.2105    0.7824    1.9262 H   0  0  0  0  0  0  0  0  0  0  0  0
    1.3288    0.9030    2.7712 H   0  0  0  0  0  0  0  0  0  0  0  0
   -1.3376   -0.4190    0.2592 H   0  0  0  0  0  0  0  0  0  0  0  0
   -1.1260   -1.4288   -1.1523 H   0  0  0  0  0  0  0  0  0  0  0  0
    1.0394   -1.4619    3.3331 H   0  0  0  0  0  0  0  0  0  0  0  0
   -0.2859   -0.6407    3.8018 H   0  0  0  0  0  0  0  0  0  0  0  0
    0.0303   -1.3619   -3.0137 H   0  0  0  0  0  0  0  0  0  0  0  0
   -0.4268    1.4293   -0.8997 H   0  0  0  0  0  0  0  0  0  0  0  0
    0.6822    1.6768   -3.9395 H   0  0  0  0  0  0  0  0  0  0  0  0
  1 11  1  0
  1  3  1  0
  2 12  1  0
  2  1  1  0
  3 15  1  0
  3  6  1  0
  4  2  1  0
  4 16  1  0
  5  8  1  0
  6 18  1  0
  6 19  1  0
  7 20  1  0
  7  5  2  0
  8 21  1  0
  8  4  1  0
  9  5  1  0
 10  1  1  0
 13  2  1  0
 14  3  1  0
 17  4  1  0
 22  9  1  0
M  END
>  <HBA>  (169) 
4

>  <HBD>  (169) 
3

>  <TPSA>  (169) 
81.14

>  <cid>  (169) 
502

>  <dipole>  (169) 
3.77

>  <excitation_energy_1>  (169) 
5.47

>  <excitation_energy_2>  (169) 
5.634

>  <excitation_energy_3>  (169) 
5.925

>  <excitation_energy_4>  (169) 
5.958

>  <homo_energy>  (169) 
-6.033

>  <homo_lumo_gap>  (169) 
7.592

>  <logP>  (169) 
1.185

>  <lumo_energy>  (169) 
1.559

>  <melting_point>  (169) 
141.5

>  <molecular_refractivity>  (169) 
34.95

>  <oscillator_strength_1>  (169) 
0.0016

>  <oscillator_strength_2>  (169) 
0.0077

>  <oscillator_strength_3>  (169) 
0.0104

>  <oscillator_strength_4>  (169) 
0.0033

>  <open_babel_can_smiles>  (169) 
NCCCCNC(=N)O

>  <mulliken_charges>  (169) 
22
1   -0.271682
2   -0.245467
3   -0.137026
4   -0.162915
5   0.641033
6   -0.714269
7   -0.667986
8   -0.585559
9   -0.612068
10   0.136787
11   0.132602
12   0.154847
13   0.142111
14   0.130693
15   0.118771
16   0.163138
17   0.151392
18   0.294421
19   0.299156
20   0.281484
21   0.332322
22   0.418215

>  <lowdin_charges>  (169) 
22
1   -0.286345
2   -0.293355
3   -0.210411
4   -0.203347
5   0.16364
6   -0.561505
7   -0.502343
8   -0.301167
9   -0.388198
10   0.145487
11   0.14327
12   0.157496
13   0.149138
14   0.135514
15   0.123653
16   0.158292
17   0.151769
18   0.25365
19   0.257116
20   0.256381
21   0.285958
22   0.365308

$$$$
PCCDB-ID:  503
     RDKit          3D

 15 14  0  0  1  0  0  0  0  0999 V2000
    1.0163    0.3481    0.3241 C   0  0  0  0  0  0  0  0  0  0  0  0
    0.8365   -1.0396    0.9381 C   0  0  0  0  0  3  0  0  0  0  0  0
    3.0911   -1.5723    1.1994 C   0  0  0  0  0  0  0  0  0  0  0  0
    1.0796    0.3484   -1.1390 N   0  0  0  0  0  0  0  0  0  0  0  0
    3.9752   -1.6578    2.1115 N   0  0  0  0  0  2  0  0  0  0  0  0
    1.7367   -1.8607    1.3128 N   0  0  0  0  0  0  0  0  0  0  0  0
   -0.4441   -1.4784    1.0348 O   0  0  0  0  0  0  0  0  0  0  0  0
    3.4797   -1.2417   -0.0724 O   0  0  0  0  0  0  0  0  0  0  0  0
    1.9361    0.7954    0.7068 H   0  0  0  0  0  0  0  0  0  0  0  0
    0.1874    0.9956    0.6440 H   0  0  0  0  0  0  0  0  0  0  0  0
    1.9013   -0.1853   -1.4180 H   0  0  0  0  0  0  0  0  0  0  0  0
    0.2691   -0.1280   -1.5325 H   0  0  0  0  0  0  0  0  0  0  0  0
    3.5442   -1.9471    2.9896 H   0  0  0  0  0  0  0  0  0  0  0  0
   -1.0512   -0.7476    0.8378 H   0  0  0  0  0  0  0  0  0  0  0  0
    4.4487   -1.1450   -0.0219 H   0  0  0  0  0  0  0  0  0  0  0  0
  1 10  1  0
  1  9  1  0
  1  2  1  0
  2  7  1  0
  2  6  1  0
  3  6  2  0
  3  5  1  0
  4  1  1  0
  5 13  1  0
  8 15  1  0
  8  3  1  0
 11  4  1  0
 12  4  1  0
 14  7  1  0
M  RAD  2   2   2   5   2
M  END
>  <HBA>  (170) 
5

>  <HBD>  (170) 
3

>  <TPSA>  (170) 
98.21

>  <cid>  (170) 
503

>  <dipole>  (170) 
3.18

>  <excitation_energy_1>  (170) 
4.826

>  <excitation_energy_2>  (170) 
5.469

>  <excitation_energy_3>  (170) 
5.694

>  <excitation_energy_4>  (170) 
5.79

>  <homo_energy>  (170) 
-6.539

>  <homo_lumo_gap>  (170) 
5.938

>  <logP>  (170) 
-0.068

>  <lumo_energy>  (170) 
-0.601

>  <melting_point>  (170) 
164.22

>  <molecular_refractivity>  (170) 
25.54

>  <oscillator_strength_1>  (170) 
0.0612

>  <oscillator_strength_2>  (170) 
0.0019

>  <oscillator_strength_3>  (170) 
0.0137

>  <oscillator_strength_4>  (170) 
0.0785

>  <open_babel_can_smiles>  (170) 
NC[C](/N=C(/O)\[NH])O

>  <mulliken_charges>  (170) 
15
1   -0.219908
2   0.477777
3   0.567023
4   -0.699324
5   -0.625811
6   -0.437739
7   -0.561053
8   -0.596983
9   0.188334
10   0.145062
11   0.335484
12   0.296582
13   0.298303
14   0.412987
15   0.419266

>  <lowdin_charges>  (170) 
15
1   -0.235842
2   0.144924
3   0.152233
4   -0.537962
5   -0.444563
6   -0.191455
7   -0.345637
8   -0.387149
9   0.174306
10   0.150158
11   0.271636
12   0.2561
13   0.268202
14   0.360456
15   0.364593

$$$$
PCCDB-ID:  504
     RDKit          3D

 10 10  0  0  0  0  0  0  0  0999 V2000
   -0.0443    1.2301   -0.0001 C   0  0  0  0  0  0  0  0  0  0  0  0
   -0.6362   -0.8490   -0.0025 C   0  0  0  0  0  0  0  0  0  0  0  0
    1.1439    0.2866    0.0011 C   0  0  0  0  0  0  0  0  0  0  0  0
   -1.1837    0.3186   -0.0031 N   0  0  0  0  0  0  0  0  0  0  0  0
    0.7755   -0.9487   -0.0000 N   0  0  0  0  0  0  0  0  0  0  0  0
    2.4335    0.6489    0.0032 O   0  0  0  0  0  0  0  0  0  0  0  0
   -0.0627    1.8816   -0.8844 H   0  0  0  0  0  0  0  0  0  0  0  0
   -0.0658    1.8786    0.8863 H   0  0  0  0  0  0  0  0  0  0  0  0
   -1.2206   -1.7650   -0.0039 H   0  0  0  0  0  0  0  0  0  0  0  0
    2.5009    1.6168    0.0025 H   0  0  0  0  0  0  0  0  0  0  0  0
  1  3  1  0
  1  8  1  0
  2  5  1  0
  3  6  1  0
  4  2  2  0
  4  1  1  0
  5  3  2  0
  7  1  1  0
  9  2  1  0
 10  6  1  0
M  END
>  <HBA>  (171) 
3

>  <HBD>  (171) 
1

>  <TPSA>  (171) 
41.46

>  <cid>  (171) 
504

>  <dipole>  (171) 
3.52

>  <excitation_energy_1>  (171) 
4.895

>  <excitation_energy_2>  (171) 
5.53

>  <excitation_energy_3>  (171) 
5.692

>  <excitation_energy_4>  (171) 
5.814

>  <homo_energy>  (171) 
-7.021

>  <homo_lumo_gap>  (171) 
6.074

>  <logP>  (171) 
-1.091

>  <lumo_energy>  (171) 
-0.947

>  <melting_point>  (171) 
64.44

>  <molecular_refractivity>  (171) 
28.35

>  <oscillator_strength_1>  (171) 
0.0031

>  <oscillator_strength_2>  (171) 
0.0991

>  <oscillator_strength_3>  (171) 
0.0

>  <oscillator_strength_4>  (171) 
0.0009

>  <open_babel_can_smiles>  (171) 
OC1=NC=NC1

>  <mulliken_charges>  (171) 
10
1   -0.253194
2   0.184823
3   0.48566
4   -0.379686
5   -0.434158
6   -0.565391
7   0.190256
8   0.190404
9   0.157999
10   0.423287

>  <lowdin_charges>  (171) 
10
1   -0.250611
2   -0.039742
3   0.128149
4   -0.206599
5   -0.207354
6   -0.317178
7   0.179966
8   0.180055
9   0.165354
10   0.367959

$$$$
PCCDB-ID:  510
     RDKit          3D

 15 15  0  0  0  0  0  0  0  0999 V2000
    1.0195   -0.3774    1.0622 O   0  0  0  0  0  0  0  0  0  0  0  0
    3.5143    0.4565    1.0275 O   0  0  0  0  0  0  0  0  0  0  0  0
    2.1877    1.9951   -2.7781 O   0  0  0  0  0  0  0  0  0  0  0  0
   -0.1205    2.8518   -1.8482 O   0  0  0  0  0  0  0  0  0  0  0  0
    2.3474   -0.7945   -3.5569 O   0  0  0  0  0  0  0  0  0  0  0  0
    0.7181   -2.2904   -2.2064 O   0  0  0  0  0  0  0  0  0  0  0  0
    1.5702    1.5826   -0.3341 O   0  0  0  0  0  0  0  0  0  0  0  0
    2.4713   -0.6794   -1.0442 O   0  0  0  0  0  0  0  0  0  0  0  0
    0.4650    0.3103   -2.2053 O   0  0  0  0  0  0  0  0  0  0  0  0
    2.2703    0.2461    0.2832 P   0  0  2  0  0  0  0  0  0  0  0  0
    0.9045    1.8103   -1.7999 P   0  0  2  0  0  0  0  0  0  0  0  0
    1.4368   -1.0215   -2.2751 P   0  0  1  0  0  0  0  0  0  0  0  0
    1.2964   -0.9632    1.7882 H   0  0  0  0  0  0  0  0  0  0  0  0
    2.3630    2.9298   -2.9848 H   0  0  0  0  0  0  0  0  0  0  0  0
    2.7144    0.1108   -3.6019 H   0  0  0  0  0  0  0  0  0  0  0  0
  1 13  1  0
  3 11  1  0
  5 12  1  0
  7 10  1  0
  8 10  1  0
  9 11  1  0
 10  2  2  0
 10  1  1  0
 11  4  2  0
 11  7  1  0
 12  6  2  0
 12  9  1  0
 12  8  1  0
 14  3  1  0
 15  5  1  0
M  END
>  <HBA>  (172) 
9

>  <HBD>  (172) 
3

>  <TPSA>  (172) 
169.02

>  <cid>  (172) 
510

>  <dipole>  (172) 
2.96

>  <excitation_energy_1>  (172) 
6.912

>  <excitation_energy_2>  (172) 
7.014

>  <excitation_energy_3>  (172) 
7.162

>  <excitation_energy_4>  (172) 
7.313

>  <homo_energy>  (172) 
-9.094

>  <homo_lumo_gap>  (172) 
8.24

>  <logP>  (172) 
0.351

>  <lumo_energy>  (172) 
-0.854

>  <melting_point>  (172) 
145.61

>  <molecular_refractivity>  (172) 
32.73

>  <oscillator_strength_1>  (172) 
0.0149

>  <oscillator_strength_2>  (172) 
0.0293

>  <oscillator_strength_3>  (172) 
0.0184

>  <oscillator_strength_4>  (172) 
0.0036

>  <open_babel_can_smiles>  (172) 
O[P@]1(=O)O[P@@](=O)(O)O[P@@](=O)(O1)O

>  <mulliken_charges>  (172) 
15
1   -0.624359
2   -0.466728
3   -0.690746
4   -0.45532
5   -0.622174
6   -0.45794
7   -0.584499
8   -0.61657
9   -0.611573
10   1.223933
11   1.247305
12   1.268262
13   0.462029
14   0.465605
15   0.462776

>  <lowdin_charges>  (172) 
15
1   -0.532887
2   -0.523246
3   -0.570537
4   -0.511293
5   -0.526554
6   -0.50599
7   -0.502658
8   -0.524713
9   -0.51295
10   1.163614
11   1.175795
12   1.177942
13   0.403044
14   0.401607
15   0.388825

$$$$
PCCDB-ID:  512
     RDKit          3D

 26 26  0  0  0  0  0  0  0  0999 V2000
   -0.8889   -0.3024    2.4059 C   0  0  0  0  0  0  0  0  0  0  0  0
   -1.0022   -0.6600    1.0587 C   0  0  0  0  0  0  0  0  0  0  0  0
    0.2646    0.3362    2.8640 C   0  0  0  0  0  0  0  0  0  0  0  0
    3.1990    2.8213    0.1666 C   0  0  0  0  0  0  0  0  0  0  0  0
    0.0341   -0.3789    0.1751 C   0  0  0  0  0  0  0  0  0  0  0  0
    1.3039    0.6199    1.9784 C   0  0  0  0  0  0  0  0  0  0  0  0
    3.5144    1.3615    0.0313 C   0  0  0  0  0  0  0  0  0  0  0  0
    3.6760    3.7811   -0.6430 C   0  0  0  0  0  0  0  0  0  0  0  0
    1.1985    0.2670    0.6238 C   0  0  0  0  0  0  0  0  0  0  0  0
    2.2742    0.5374   -0.3796 C   0  0  0  0  0  0  0  0  0  0  0  0
    3.2987    5.1911   -0.4290 C   0  0  0  0  0  0  0  0  0  0  0  0
    3.9225    6.1819   -1.4366 C   0  0  0  0  0  0  0  0  0  0  0  0
    2.1886    0.1310   -1.5255 O   0  0  0  0  0  0  0  0  0  0  0  0
    2.5656    5.5961    0.4555 O   0  0  0  0  0  0  0  0  0  0  0  0
    3.5144    7.4426   -1.2252 O   0  0  0  0  0  0  0  0  0  0  0  0
    4.6930    5.8528   -2.3132 O   0  0  0  0  0  0  0  0  0  0  0  0
   -1.6981   -0.5216    3.0971 H   0  0  0  0  0  0  0  0  0  0  0  0
   -1.8994   -1.1574    0.7010 H   0  0  0  0  0  0  0  0  0  0  0  0
    0.3561    0.6134    3.9103 H   0  0  0  0  0  0  0  0  0  0  0  0
    2.5237    3.1246    0.9657 H   0  0  0  0  0  0  0  0  0  0  0  0
   -0.0323   -0.6473   -0.8740 H   0  0  0  0  0  0  0  0  0  0  0  0
    2.1953    1.1119    2.3543 H   0  0  0  0  0  0  0  0  0  0  0  0
    3.9085    0.9776    0.9823 H   0  0  0  0  0  0  0  0  0  0  0  0
    4.2646    1.1977   -0.7456 H   0  0  0  0  0  0  0  0  0  0  0  0
    4.3457    3.5612   -1.4678 H   0  0  0  0  0  0  0  0  0  0  0  0
    3.9571    7.9895   -1.9017 H   0  0  0  0  0  0  0  0  0  0  0  0
  1  3  2  0
  1 17  1  0
  2  1  1  0
  3 19  1  0
  4 20  1  0
  5  9  1  0
  5  2  2  0
  6 22  1  0
  6  3  1  0
  7  4  1  0
  7 23  1  0
  8 11  1  0
  8  4  2  0
  9  6  2  0
 10  7  1  0
 10  9  1  0
 11 14  2  0
 12 15  1  0
 12 11  1  0
 13 10  2  0
 16 12  2  0
 18  2  1  0
 21  5  1  0
 24  7  1  0
 25  8  1  0
 26 15  1  0
M  END
>  <HBA>  (173) 
4

>  <HBD>  (173) 
1

>  <TPSA>  (173) 
71.44

>  <cid>  (173) 
512

>  <dipole>  (173) 
2.58

>  <excitation_energy_1>  (173) 
2.934

>  <excitation_energy_2>  (173) 
3.548

>  <excitation_energy_3>  (173) 
3.926

>  <excitation_energy_4>  (173) 
4.036

>  <homo_energy>  (173) 
-6.876

>  <homo_lumo_gap>  (173) 
4.302

>  <logP>  (173) 
1.469

>  <lumo_energy>  (173) 
-2.574

>  <melting_point>  (173) 
143.89

>  <molecular_refractivity>  (173) 
57.36

>  <oscillator_strength_1>  (173) 
0.0007

>  <oscillator_strength_2>  (173) 
0.0679

>  <oscillator_strength_3>  (173) 
0.0882

>  <oscillator_strength_4>  (173) 
0.003

>  <open_babel_can_smiles>  (173) 
O=C(c1ccccc1)C/C=C/C(=O)C(=O)O

>  <mulliken_charges>  (173) 
26
1   -0.117178
2   -0.130496
3   -0.132933
4   -0.06848
5   -0.153411
6   -0.181184
7   -0.416419
8   -0.164721
9   0.078136
10   0.401973
11   0.367027
12   0.526532
13   -0.44116
14   -0.441068
15   -0.540674
16   -0.448166
17   0.143019
18   0.143348
19   0.14235
20   0.176683
21   0.168567
22   0.1383
23   0.17463
24   0.18393
25   0.17538
26   0.416013

>  <lowdin_charges>  (173) 
26
1   -0.135697
2   -0.151612
3   -0.152537
4   -0.084035
5   -0.122265
6   -0.149854
7   -0.302616
8   -0.207555
9   -0.051669
10   0.162957
11   0.125132
12   0.164741
13   -0.22715
14   -0.202989
15   -0.321437
16   -0.246948
17   0.165044
18   0.164604
19   0.162457
20   0.174222
21   0.177285
22   0.162437
23   0.170726
24   0.176972
25   0.18132
26   0.368464

$$$$
PCCDB-ID:  513
     RDKit          3D

 24 23  0  0  1  0  0  0  0  0999 V2000
    2.0858   -0.1235   -1.8982 C   0  0  0  0  0  0  0  0  0  0  0  0
    4.2237    1.7364   -0.4755 C   0  0  0  0  0  0  0  0  0  0  0  0
    2.6858    1.9158   -0.5063 C   0  0  1  0  0  0  0  0  0  0  0  0
    4.7719    1.5535    0.9219 C   0  0  0  0  0  0  0  0  0  0  0  0
    2.3153    3.3740   -0.1592 C   0  0  0  0  0  0  0  0  0  0  0  0
    2.7905    1.9906   -3.0805 C   0  0  0  0  0  0  0  0  0  0  0  0
    2.0540    1.4091   -1.8364 C   0  0  1  0  0  0  0  0  0  0  0  0
    4.1622    1.7611    1.9599 O   0  0  0  0  0  0  0  0  0  0  0  0
    6.0396    1.1211    0.9146 O   0  0  0  0  0  0  0  0  0  0  0  0
    1.9838    4.2199   -0.9675 O   0  0  0  0  0  0  0  0  0  0  0  0
    2.4084    3.6907    1.1345 O   0  0  0  0  0  0  0  0  0  0  0  0
    3.5837    1.3310   -3.7182 O   0  0  0  0  0  0  0  0  0  0  0  0
    2.4758    3.2440   -3.4089 O   0  0  0  0  0  0  0  0  0  0  0  0
    0.6999    1.8619   -1.7893 O   0  0  0  0  0  0  0  0  0  0  0  0
    3.1005   -0.5259   -1.9046 H   0  0  0  0  0  0  0  0  0  0  0  0
    1.6112   -0.4655   -2.8243 H   0  0  0  0  0  0  0  0  0  0  0  0
    1.5325   -0.5335   -1.0473 H   0  0  0  0  0  0  0  0  0  0  0  0
    4.7350    2.5946   -0.9312 H   0  0  0  0  0  0  0  0  0  0  0  0
    4.5303    0.8746   -1.0750 H   0  0  0  0  0  0  0  0  0  0  0  0
    2.2516    1.2891    0.2816 H   0  0  0  0  0  0  0  0  0  0  0  0
    6.3269    1.0519    1.8457 H   0  0  0  0  0  0  0  0  0  0  0  0
    2.8205    2.9521    1.6408 H   0  0  0  0  0  0  0  0  0  0  0  0
    2.0006    3.6671   -2.6474 H   0  0  0  0  0  0  0  0  0  0  0  0
    0.2351    1.4955   -2.5588 H   0  0  0  0  0  0  0  0  0  0  0  0
  1  7  1  0
  1 17  1  0
  2  4  1  0
  3  2  1  0
  3  5  1  0
  3 20  1  1
  4  8  2  0
  5 11  1  0
  7  6  1  0
  7 14  1  6
  7  3  1  0
  9  4  1  0
  9 21  1  0
 10  5  2  0
 11 22  1  0
 12  6  2  0
 13  6  1  0
 13 23  1  0
 15  1  1  0
 16  1  1  0
 18  2  1  0
 19  2  1  0
 24 14  1  0
M  END
>  <HBA>  (174) 
7

>  <HBD>  (174) 
4

>  <TPSA>  (174) 
132.13

>  <cid>  (174) 
513

>  <dipole>  (174) 
5.32

>  <excitation_energy_1>  (174) 
5.27

>  <excitation_energy_2>  (174) 
5.458

>  <excitation_energy_3>  (174) 
5.685

>  <excitation_energy_4>  (174) 
5.98

>  <homo_energy>  (174) 
-7.048

>  <homo_lumo_gap>  (174) 
6.044

>  <logP>  (174) 
-1.002

>  <lumo_energy>  (174) 
-1.004

>  <melting_point>  (174) 
233.89

>  <molecular_refractivity>  (174) 
42.28

>  <oscillator_strength_1>  (174) 
0.0019

>  <oscillator_strength_2>  (174) 
0.0006

>  <oscillator_strength_3>  (174) 
0.0006

>  <oscillator_strength_4>  (174) 
0.0001

>  <open_babel_can_smiles>  (174) 
OC(=O)C[C@H]([C@](C(=O)O)(O)C)C(=O)O

>  <mulliken_charges>  (174) 
24
1   -0.464445
2   -0.392966
3   -0.237626
4   0.603142
5   0.637938
6   0.583663
7   0.18647
8   -0.487607
9   -0.542633
10   -0.474447
11   -0.577118
12   -0.468981
13   -0.588326
14   -0.632747
15   0.171598
16   0.159913
17   0.155874
18   0.223577
19   0.223148
20   0.181641
21   0.425895
22   0.449591
23   0.460524
24   0.403921

>  <lowdin_charges>  (174) 
24
1   -0.451446
2   -0.305983
3   -0.170127
4   0.214533
5   0.211631
6   0.160604
7   0.082239
8   -0.283921
9   -0.323627
10   -0.256456
11   -0.339795
12   -0.261672
13   -0.346955
14   -0.444716
15   0.16641
16   0.163156
17   0.157572
18   0.196743
19   0.196739
20   0.174429
21   0.371554
22   0.365577
23   0.370077
24   0.353433

$$$$
PCCDB-ID:  515
     RDKit          3D

 24 23  0  0  1  0  0  0  0  0999 V2000
    1.7883   -1.7022    0.7117 C   0  0  0  0  0  0  0  0  0  0  0  0
    0.9055    0.1064   -1.5934 C   0  0  0  0  0  0  0  0  0  0  0  0
    1.5580   -0.1879    0.9022 C   0  0  1  0  0  0  0  0  0  0  0  0
   -0.5628   -0.1584   -1.3155 C   0  0  0  0  0  0  0  0  0  0  0  0
    2.4976    0.3020    1.9980 C   0  0  0  0  0  0  0  0  0  0  0  0
    1.5657    2.1419   -0.1467 C   0  0  0  0  0  0  0  0  0  0  0  0
    1.7849    0.6202   -0.4199 C   0  0  2  0  0  0  0  0  0  0  0  0
   -1.2318    0.4346   -0.4893 O   0  0  0  0  0  0  0  0  0  0  0  0
   -1.1558   -1.1012   -2.0695 O   0  0  0  0  0  0  0  0  0  0  0  0
    3.6008    0.7802    1.8419 O   0  0  0  0  0  0  0  0  0  0  0  0
    1.9636    0.0957    3.2239 O   0  0  0  0  0  0  0  0  0  0  0  0
    2.4985    2.9096   -0.1797 O   0  0  0  0  0  0  0  0  0  0  0  0
    0.3294    2.5421    0.1695 O   0  0  0  0  0  0  0  0  0  0  0  0
    3.0931    0.4401   -0.9055 O   0  0  0  0  0  0  0  0  0  0  0  0
    1.7318   -2.2183    1.6744 H   0  0  0  0  0  0  0  0  0  0  0  0
    2.7703   -1.8831    0.2666 H   0  0  0  0  0  0  0  0  0  0  0  0
    1.0205   -2.1392    0.0643 H   0  0  0  0  0  0  0  0  0  0  0  0
    0.9670    0.8384   -2.4101 H   0  0  0  0  0  0  0  0  0  0  0  0
    1.3907   -0.8014   -1.9675 H   0  0  0  0  0  0  0  0  0  0  0  0
    0.5369   -0.0303    1.2598 H   0  0  0  0  0  0  0  0  0  0  0  0
   -0.5176   -1.5015   -2.6837 H   0  0  0  0  0  0  0  0  0  0  0  0
    2.6330    0.3953    3.8688 H   0  0  0  0  0  0  0  0  0  0  0  0
   -0.3278    1.8095    0.0658 H   0  0  0  0  0  0  0  0  0  0  0  0
    3.6551    1.0421   -0.3799 H   0  0  0  0  0  0  0  0  0  0  0  0
  1  3  1  0
  1 15  1  0
  2  4  1  0
  2  7  1  0
  3 20  1  1
  3  5  1  0
  4  8  2  0
  5 11  1  0
  6 13  1  0
  7 14  1  6
  7  6  1  0
  7  3  1  0
  9  4  1  0
 10  5  2  0
 11 22  1  0
 12  6  2  0
 14 24  1  0
 16  1  1  0
 17  1  1  0
 18  2  1  0
 19  2  1  0
 21  9  1  0
 23 13  1  0
M  END
>  <HBA>  (175) 
7

>  <HBD>  (175) 
4

>  <TPSA>  (175) 
132.13

>  <cid>  (175) 
515

>  <dipole>  (175) 
5.29

>  <excitation_energy_1>  (175) 
5.482

>  <excitation_energy_2>  (175) 
5.586

>  <excitation_energy_3>  (175) 
5.649

>  <excitation_energy_4>  (175) 
5.714

>  <homo_energy>  (175) 
-7.342

>  <homo_lumo_gap>  (175) 
6.332

>  <logP>  (175) 
-1.002

>  <lumo_energy>  (175) 
-1.01

>  <melting_point>  (175) 
233.89

>  <molecular_refractivity>  (175) 
42.28

>  <oscillator_strength_1>  (175) 
0.002

>  <oscillator_strength_2>  (175) 
0.0005

>  <oscillator_strength_3>  (175) 
0.0006

>  <oscillator_strength_4>  (175) 
0.0002

>  <open_babel_can_smiles>  (175) 
OC(=O)C[C@]([C@H](C(=O)O)C)(C(=O)O)O

>  <mulliken_charges>  (175) 
24
1   -0.46889
2   -0.455818
3   -0.177609
4   0.642651
5   0.580614
6   0.576296
7   0.219978
8   -0.468351
9   -0.546812
10   -0.460686
11   -0.564509
12   -0.451374
13   -0.594615
14   -0.652556
15   0.175537
16   0.187816
17   0.143723
18   0.221219
19   0.185401
20   0.178887
21   0.426158
22   0.415476
23   0.453242
24   0.434221

>  <lowdin_charges>  (175) 
24
1   -0.441285
2   -0.32898
3   -0.171045
4   0.212881
5   0.197983
6   0.169154
7   0.084261
8   -0.255465
9   -0.322815
10   -0.257074
11   -0.349844
12   -0.240611
13   -0.355672
14   -0.439494
15   0.167746
16   0.169564
17   0.150924
18   0.196878
19   0.176646
20   0.172023
21   0.371217
22   0.366496
23   0.363774
24   0.362738

$$$$
PCCDB-ID:  523
     RDKit          3D

 15 14  0  0  0  0  0  0  0  0999 V2000
    0.8537    0.3340   -0.2710 C   0  0  0  0  0  0  0  0  0  0  0  0
    0.0118   -0.6210    0.5670 C   0  0  0  0  0  0  0  0  0  0  0  0
    2.3385    0.0802   -0.1576 C   0  0  0  0  0  0  0  0  0  0  0  0
   -1.4535   -0.2547    0.5694 C   0  0  0  0  0  0  0  0  0  0  0  0
   -2.3650   -1.2402    1.3367 C   0  0  0  0  0  0  0  0  0  0  0  0
    2.8431   -0.7504    0.5659 O   0  0  0  0  0  0  0  0  0  0  0  0
   -1.9214    0.7238    0.0297 O   0  0  0  0  0  0  0  0  0  0  0  0
   -3.6448   -0.8373    1.3558 O   0  0  0  0  0  0  0  0  0  0  0  0
   -1.9554   -2.2558    1.8541 O   0  0  0  0  0  0  0  0  0  0  0  0
    0.6657    1.3795    0.0141 H   0  0  0  0  0  0  0  0  0  0  0  0
    0.5771    0.2883   -1.3342 H   0  0  0  0  0  0  0  0  0  0  0  0
    0.3669   -0.6491    1.6059 H   0  0  0  0  0  0  0  0  0  0  0  0
    0.1171   -1.6589    0.2279 H   0  0  0  0  0  0  0  0  0  0  0  0
    2.9713    0.7324   -0.8003 H   0  0  0  0  0  0  0  0  0  0  0  0
   -4.1397   -1.5148    1.8551 H   0  0  0  0  0  0  0  0  0  0  0  0
  1  3  1  0
  1 10  1  0
  1  2  1  0
  2  4  1  0
  2 12  1  0
  3  6  2  0
  4  5  1  0
  5  8  1  0
  5  9  2  0
  7  4  2  0
  8 15  1  0
 11  1  1  0
 13  2  1  0
 14  3  1  0
M  END
>  <HBA>  (176) 
4

>  <HBD>  (176) 
1

>  <TPSA>  (176) 
71.44

>  <cid>  (176) 
523

>  <dipole>  (176) 
1.47

>  <excitation_energy_1>  (176) 
3.301

>  <excitation_energy_2>  (176) 
4.134

>  <excitation_energy_3>  (176) 
4.36

>  <excitation_energy_4>  (176) 
5.044

>  <homo_energy>  (176) 
-7.173

>  <homo_lumo_gap>  (176) 
4.871

>  <logP>  (176) 
-0.381

>  <lumo_energy>  (176) 
-2.302

>  <melting_point>  (176) 
104.37

>  <molecular_refractivity>  (176) 
28.32

>  <oscillator_strength_1>  (176) 
0.0

>  <oscillator_strength_2>  (176) 
0.0007

>  <oscillator_strength_3>  (176) 
0.0002

>  <oscillator_strength_4>  (176) 
0.0

>  <open_babel_can_smiles>  (176) 
O=CCCC(=O)C(=O)O

>  <mulliken_charges>  (176) 
15
1   -0.351107
2   -0.351364
3   0.250467
4   0.397085
5   0.52835
6   -0.380337
7   -0.415059
8   -0.538022
9   -0.441806
10   0.187397
11   0.178618
12   0.203542
13   0.19908
14   0.114417
15   0.418739

>  <lowdin_charges>  (176) 
15
1   -0.307712
2   -0.297962
3   0.055256
4   0.136197
5   0.159872
6   -0.216923
7   -0.18394
8   -0.321015
9   -0.239807
10   0.177483
11   0.172377
12   0.18754
13   0.185316
14   0.1231
15   0.370219

$$$$
PCCDB-ID:  524
     RDKit          3D

 14 13  0  0  1  0  0  0  0  0999 V2000
    1.1754    0.0550    0.0014 C   0  0  1  0  0  0  0  0  0  0  0  0
    0.9222    1.1126   -1.0674 C   0  0  0  0  0  0  0  0  0  0  0  0
    0.3261   -1.1993   -0.3397 C   0  0  0  0  0  0  0  0  0  0  0  0
   -0.4610    1.7613   -1.0775 C   0  0  0  0  0  0  0  0  0  0  0  0
    2.5478   -0.2652    0.0519 O   0  0  0  0  0  0  0  0  0  0  0  0
    1.8190    1.4611   -1.8066 O   0  0  0  0  0  0  0  0  0  0  0  0
   -0.8653   -1.1400   -0.5205 O   0  0  0  0  0  0  0  0  0  0  0  0
    1.0479   -2.3193   -0.4155 O   0  0  0  0  0  0  0  0  0  0  0  0
   -0.9373    1.9292   -2.3142 O   0  0  0  0  0  0  0  0  0  0  0  0
   -0.9901    2.1201   -0.0521 O   0  0  0  0  0  0  0  0  0  0  0  0
    0.8250    0.4362    0.9685 H   0  0  0  0  0  0  0  0  0  0  0  0
    2.9634    0.2129   -0.6970 H   0  0  0  0  0  0  0  0  0  0  0  0
    1.9807   -2.0582   -0.2427 H   0  0  0  0  0  0  0  0  0  0  0  0
   -1.8096    2.3618   -2.2308 H   0  0  0  0  0  0  0  0  0  0  0  0
  1  5  1  0
  1 11  1  1
  2  1  1  0
  3  1  1  0
  4  2  1  0
  4 10  2  0
  6  2  2  0
  7  3  2  0
  8  3  1  0
  8 13  1  0
  9 14  1  0
  9  4  1  0
 12  5  1  0
M  END
>  <HBA>  (177) 
6

>  <HBD>  (177) 
3

>  <TPSA>  (177) 
111.9

>  <cid>  (177) 
524

>  <dipole>  (177) 
2.08

>  <excitation_energy_1>  (177) 
3.837

>  <excitation_energy_2>  (177) 
4.201

>  <excitation_energy_3>  (177) 
5.257

>  <excitation_energy_4>  (177) 
5.546

>  <homo_energy>  (177) 
-7.698

>  <homo_lumo_gap>  (177) 
5.102

>  <logP>  (177) 
-1.914

>  <lumo_energy>  (177) 
-2.596

>  <melting_point>  (177) 
169.09

>  <molecular_refractivity>  (177) 
26.25

>  <oscillator_strength_1>  (177) 
0.0016

>  <oscillator_strength_2>  (177) 
0.0084

>  <oscillator_strength_3>  (177) 
0.0034

>  <oscillator_strength_4>  (177) 
0.0032

>  <open_babel_can_smiles>  (177) 
OC(=O)C(=O)[C@@H](C(=O)O)O

>  <mulliken_charges>  (177) 
14
1   -0.036904
2   0.380338
3   0.594151
4   0.563283
5   -0.652137
6   -0.412794
7   -0.43892
8   -0.558646
9   -0.534153
10   -0.428584
11   0.229249
12   0.426658
13   0.440639
14   0.42782

>  <lowdin_charges>  (177) 
14
1   -0.072749
2   0.145865
3   0.173006
4   0.175547
5   -0.445409
6   -0.1853
7   -0.236701
8   -0.323949
9   -0.309572
10   -0.224216
11   0.198288
12   0.360347
13   0.369738
14   0.375106

$$$$
PCCDB-ID:  525
     RDKit          3D

 15 14  0  0  1  0  0  0  0  0999 V2000
    0.9194    0.1353   -0.0157 C   0  0  0  0  0  0  0  0  0  0  0  0
    0.1467    0.1975    1.3129 C   0  0  1  0  0  0  0  0  0  0  0  0
    1.0238    1.5480   -0.5741 C   0  0  0  0  0  0  0  0  0  0  0  0
    0.9342    1.0326    2.3461 C   0  0  0  0  0  0  0  0  0  0  0  0
   -1.1742    0.7087    1.1746 O   0  0  0  0  0  0  0  0  0  0  0  0
    0.0848    2.0719   -1.1400 O   0  0  0  0  0  0  0  0  0  0  0  0
    2.1584    2.2257   -0.3346 O   0  0  0  0  0  0  0  0  0  0  0  0
    2.1476    1.0544    2.3871 O   0  0  0  0  0  0  0  0  0  0  0  0
    0.1607    1.7143    3.1921 O   0  0  0  0  0  0  0  0  0  0  0  0
    0.3587   -0.4747   -0.7280 H   0  0  0  0  0  0  0  0  0  0  0  0
    1.8956   -0.3220    0.1600 H   0  0  0  0  0  0  0  0  0  0  0  0
    0.0508   -0.8164    1.7214 H   0  0  0  0  0  0  0  0  0  0  0  0
   -1.1777    1.3247    0.4136 H   0  0  0  0  0  0  0  0  0  0  0  0
    2.6890    1.7521    0.3354 H   0  0  0  0  0  0  0  0  0  0  0  0
   -0.7605    1.6051    2.8653 H   0  0  0  0  0  0  0  0  0  0  0  0
  1 11  1  0
  1  2  1  0
  2 12  1  1
  2  4  1  0
  3  7  1  0
  3  1  1  0
  4  8  2  0
  4  9  1  0
  5  2  1  0
  6  3  2  0
  7 14  1  0
 10  1  1  0
 13  5  1  0
 15  9  1  0
M  END
>  <HBA>  (178) 
5

>  <HBD>  (178) 
3

>  <TPSA>  (178) 
94.83

>  <cid>  (178) 
525

>  <dipole>  (178) 
3.08

>  <excitation_energy_1>  (178) 
5.383

>  <excitation_energy_2>  (178) 
5.518

>  <excitation_energy_3>  (178) 
6.257

>  <excitation_energy_4>  (178) 
6.502

>  <homo_energy>  (178) 
-7.695

>  <homo_lumo_gap>  (178) 
6.966

>  <logP>  (178) 
-1.093

>  <lumo_energy>  (178) 
-0.729

>  <melting_point>  (178) 
147.7

>  <molecular_refractivity>  (178) 
26.05

>  <oscillator_strength_1>  (178) 
0.0011

>  <oscillator_strength_2>  (178) 
0.0007

>  <oscillator_strength_3>  (178) 
0.0013

>  <oscillator_strength_4>  (178) 
0.0024

>  <open_babel_can_smiles>  (178) 
OC(=O)C[C@@H](C(=O)O)O

>  <mulliken_charges>  (178) 
15
1   -0.385361
2   0.019383
3   0.576082
4   0.598259
5   -0.65025
6   -0.454952
7   -0.551812
8   -0.478412
9   -0.556566
10   0.199594
11   0.182538
12   0.19532
13   0.429527
14   0.438502
15   0.438148

>  <lowdin_charges>  (178) 
15
1   -0.326031
2   -0.036991
3   0.193873
4   0.169364
5   -0.456998
6   -0.263525
7   -0.332608
8   -0.26882
9   -0.319507
10   0.186738
11   0.176692
12   0.174622
13   0.361278
14   0.372051
15   0.369863

$$$$
PCCDB-ID:  527
     RDKit          3D

 10  9  0  0  0  0  0  0  0  0999 V2000
    0.9060   -0.0128   -0.1194 C   0  0  0  0  0  0  0  0  0  0  0  0
    2.4387    0.0299   -0.0060 C   0  0  0  0  0  0  0  0  0  0  0  0
    2.9813    1.4292   -0.1946 C   0  0  0  0  0  0  0  0  0  0  0  0
    3.7196    1.9995    0.5769 O   0  0  0  0  0  0  0  0  0  0  0  0
    0.5430   -1.0434   -0.0581 H   0  0  0  0  0  0  0  0  0  0  0  0
    0.5654    0.4050   -1.0742 H   0  0  0  0  0  0  0  0  0  0  0  0
    0.4337    0.5601    0.6859 H   0  0  0  0  0  0  0  0  0  0  0  0
    2.8778   -0.6004   -0.7946 H   0  0  0  0  0  0  0  0  0  0  0  0
    2.7873   -0.3495    0.9596 H   0  0  0  0  0  0  0  0  0  0  0  0
    2.6421    1.9326   -1.1314 H   0  0  0  0  0  0  0  0  0  0  0  0
  1  5  1  0
  1  2  1  0
  1  7  1  0
  2  9  1  0
  3  2  1  0
  3  4  2  0
  6  1  1  0
  8  2  1  0
 10  3  1  0
M  END
>  <HBA>  (179) 
1

>  <HBD>  (179) 
0

>  <TPSA>  (179) 
17.07

>  <cid>  (179) 
527

>  <dipole>  (179) 
2.74

>  <excitation_energy_1>  (179) 
4.228

>  <excitation_energy_2>  (179) 
6.646

>  <excitation_energy_3>  (179) 
7.038

>  <excitation_energy_4>  (179) 
7.122

>  <homo_energy>  (179) 
-6.838

>  <homo_lumo_gap>  (179) 
6.226

>  <logP>  (179) 
0.595

>  <lumo_energy>  (179) 
-0.612

>  <melting_point>  (179) 
7.15

>  <molecular_refractivity>  (179) 
16.73

>  <oscillator_strength_1>  (179) 
0.0001

>  <oscillator_strength_2>  (179) 
0.0101

>  <oscillator_strength_3>  (179) 
0.0479

>  <oscillator_strength_4>  (179) 
0.0168

>  <open_babel_can_smiles>  (179) 
CCC=O

>  <mulliken_charges>  (179) 
10
1   -0.459595
2   -0.325591
3   0.262102
4   -0.381157
5   0.161687
6   0.153309
7   0.16391
8   0.161087
9   0.167928
10   0.096319

>  <lowdin_charges>  (179) 
10
1   -0.441958
2   -0.308501
3   0.056712
4   -0.215612
5   0.159338
6   0.152622
7   0.158191
8   0.165191
9   0.162933
10   0.111083

$$$$
PCCDB-ID:  528
     RDKit          3D

 22 21  0  0  1  0  0  0  0  0999 V2000
    1.6484    0.1030    1.3243 C   0  0  0  0  0  0  0  0  0  0  0  0
    5.3467   -2.3428    1.8498 C   0  0  0  0  0  0  0  0  0  0  0  0
    4.7713   -1.7401    0.5507 C   0  0  0  0  0  0  0  0  0  0  0  0
    3.1281   -0.1899    1.2876 C   0  0  0  0  0  0  0  0  0  0  0  0
    6.7462   -1.8053    2.1961 C   0  0  1  0  0  0  0  0  0  0  0  0
    7.7200   -2.0231    1.0116 C   0  0  0  0  0  0  0  0  0  0  0  0
    6.8046   -0.3892    2.6061 N   0  0  0  0  0  0  0  0  0  0  0  0
    3.9923    0.5492    1.7231 O   0  0  0  0  0  0  0  0  0  0  0  0
    7.6905   -3.0109    0.3111 O   0  0  0  0  0  0  0  0  0  0  0  0
    8.5962   -1.0256    0.8554 O   0  0  0  0  0  0  0  0  0  0  0  0
    3.3782   -1.3697    0.6889 O   0  0  0  0  0  0  0  0  0  0  0  0
    1.4624    0.9648    1.9661 H   0  0  0  0  0  0  0  0  0  0  0  0
    1.0931   -0.7680    1.6838 H   0  0  0  0  0  0  0  0  0  0  0  0
    1.2939    0.3222    0.3109 H   0  0  0  0  0  0  0  0  0  0  0  0
    5.4019   -3.4303    1.7534 H   0  0  0  0  0  0  0  0  0  0  0  0
    4.6724   -2.1220    2.6839 H   0  0  0  0  0  0  0  0  0  0  0  0
    4.7806   -2.4675   -0.2601 H   0  0  0  0  0  0  0  0  0  0  0  0
    5.3291   -0.8567    0.2274 H   0  0  0  0  0  0  0  0  0  0  0  0
    7.1526   -2.4091    3.0176 H   0  0  0  0  0  0  0  0  0  0  0  0
    6.0050    0.1261    2.2306 H   0  0  0  0  0  0  0  0  0  0  0  0
    6.7569   -0.3020    3.6178 H   0  0  0  0  0  0  0  0  0  0  0  0
    8.3102   -0.3491    1.5289 H   0  0  0  0  0  0  0  0  0  0  0  0
  1 13  1  0
  1 12  1  0
  2  5  1  0
  2 16  1  0
  3 11  1  0
  3  2  1  0
  4  1  1  0
  4  8  2  0
  5  7  1  0
  5 19  1  1
  6  5  1  0
  7 21  1  0
  9  6  2  0
 10  6  1  0
 10 22  1  0
 11  4  1  0
 14  1  1  0
 15  2  1  0
 17  3  1  0
 18  3  1  0
 20  7  1  0
M  END
>  <HBA>  (180) 
5

>  <HBD>  (180) 
2

>  <TPSA>  (180) 
89.62

>  <cid>  (180) 
528

>  <dipole>  (180) 
5.22

>  <excitation_energy_1>  (180) 
5.389

>  <excitation_energy_2>  (180) 
5.819

>  <excitation_energy_3>  (180) 
6.09

>  <excitation_energy_4>  (180) 
6.191

>  <homo_energy>  (180) 
-6.743

>  <homo_lumo_gap>  (180) 
6.585

>  <logP>  (180) 
0.052

>  <lumo_energy>  (180) 
-0.158

>  <melting_point>  (180) 
117.29

>  <molecular_refractivity>  (180) 
36.72

>  <oscillator_strength_1>  (180) 
0.0022

>  <oscillator_strength_2>  (180) 
0.0013

>  <oscillator_strength_3>  (180) 
0.0008

>  <oscillator_strength_4>  (180) 
0.0082

>  <open_babel_can_smiles>  (180) 
CC(=O)OCC[C@@H](C(=O)O)N

>  <mulliken_charges>  (180) 
22
1   -0.525835
2   -0.280278
3   -0.062542
4   0.607423
5   -0.106278
6   0.613468
7   -0.799929
8   -0.482063
9   -0.480035
10   -0.580896
11   -0.446471
12   0.185686
13   0.185008
14   0.191795
15   0.176681
16   0.1537
17   0.18762
18   0.16714
19   0.17384
20   0.36726
21   0.3201
22   0.434607

>  <lowdin_charges>  (180) 
22
1   -0.463773
2   -0.292025
3   -0.133248
4   0.209454
5   -0.111712
6   0.16791
7   -0.556247
8   -0.283565
9   -0.269582
10   -0.353356
11   -0.186795
12   0.178217
13   0.179855
14   0.183432
15   0.167432
16   0.156755
17   0.172762
18   0.155765
19   0.168387
20   0.279183
21   0.269478
22   0.361674

$$$$
PCCDB-ID:  529
     RDKit          3D

 14 13  0  0  0  0  0  0  0  0999 V2000
    0.9120    0.0639   -0.0669 C   0  0  0  0  0  0  0  0  0  0  0  0
    0.3533    0.0708   -1.4899 C   0  0  0  0  0  0  0  0  0  0  0  0
   -0.8261   -0.0767   -1.6865 O   0  0  0  0  0  0  0  0  0  0  0  0
    1.2475    0.2466   -2.4752 O   0  0  0  0  0  0  0  0  0  0  0  0
    2.5904    1.1583    2.1465 O   0  0  0  0  0  0  0  0  0  0  0  0
    2.8016   -1.3276    1.8885 O   0  0  0  0  0  0  0  0  0  0  0  0
    4.7136    0.1495    0.9025 O   0  0  0  0  0  0  0  0  0  0  0  0
    2.3467    0.2106   -0.1169 O   0  0  0  0  0  0  0  0  0  0  0  0
    3.2733    0.0582    1.1919 P   0  0  0  0  0  0  0  0  0  0  0  0
    0.6425   -0.8815    0.4122 H   0  0  0  0  0  0  0  0  0  0  0  0
    0.4681    0.8898    0.4960 H   0  0  0  0  0  0  0  0  0  0  0  0
    2.1358    0.3415   -2.0794 H   0  0  0  0  0  0  0  0  0  0  0  0
    3.0505    1.2524    2.9974 H   0  0  0  0  0  0  0  0  0  0  0  0
    3.4637   -2.0207    1.7262 H   0  0  0  0  0  0  0  0  0  0  0  0
  1 10  1  0
  1 11  1  0
  2  1  1  0
  3  2  2  0
  4 12  1  0
  4  2  1  0
  5 13  1  0
  7  9  2  0
  8  1  1  0
  8  9  1  0
  9  6  1  0
  9  5  1  0
 14  6  1  0
M  END
>  <HBA>  (181) 
6

>  <HBD>  (181) 
3

>  <TPSA>  (181) 
113.87

>  <cid>  (181) 
529

>  <dipole>  (181) 
4.59

>  <excitation_energy_1>  (181) 
5.804

>  <excitation_energy_2>  (181) 
6.383

>  <excitation_energy_3>  (181) 
6.943

>  <excitation_energy_4>  (181) 
7.167

>  <homo_energy>  (181) 
-7.676

>  <homo_lumo_gap>  (181) 
7.698

>  <logP>  (181) 
-0.82

>  <lumo_energy>  (181) 
0.022

>  <melting_point>  (181) 
132.98

>  <molecular_refractivity>  (181) 
25.57

>  <oscillator_strength_1>  (181) 
0.0003

>  <oscillator_strength_2>  (181) 
0.0073

>  <oscillator_strength_3>  (181) 
0.0232

>  <oscillator_strength_4>  (181) 
0.0207

>  <open_babel_can_smiles>  (181) 
OC(=O)COP(=O)(O)O

>  <mulliken_charges>  (181) 
14
1   -0.143126
2   0.576626
3   -0.438745
4   -0.561232
5   -0.643048
6   -0.654819
7   -0.516819
8   -0.546181
9   1.164815
10   0.208148
11   0.213466
12   0.443693
13   0.449732
14   0.44749

>  <lowdin_charges>  (181) 
14
1   -0.159554
2   0.17898
3   -0.235184
4   -0.333958
5   -0.553989
6   -0.57255
7   -0.562479
8   -0.401126
9   1.112183
10   0.184702
11   0.187749
12   0.371449
13   0.392311
14   0.391466

$$$$
PCCDB-ID:  535
     RDKit          3D

 14 14  0  0  0  0  0  0  0  0999 V2000
   -0.5194    0.9895   -0.2255 C   0  0  0  0  0  0  0  0  0  0  0  0
    0.6659    0.1853    0.2064 C   0  0  0  0  0  0  0  0  0  0  0  0
   -1.3929   -0.8400    1.3532 C   0  0  0  0  0  0  0  0  0  0  0  0
   -0.6844   -0.4934    0.0575 C   0  0  0  0  0  0  0  0  0  0  0  0
   -0.9424   -1.4461   -1.0092 N   0  0  0  0  0  0  0  0  0  0  0  0
   -1.3052   -0.1713    2.3596 O   0  0  0  0  0  0  0  0  0  0  0  0
   -2.1284   -1.9602    1.2764 O   0  0  0  0  0  0  0  0  0  0  0  0
   -0.5813    1.2981   -1.2662 H   0  0  0  0  0  0  0  0  0  0  0  0
   -0.9634    1.6698    0.4940 H   0  0  0  0  0  0  0  0  0  0  0  0
    1.0291    0.3170    1.2205 H   0  0  0  0  0  0  0  0  0  0  0  0
    1.4210   -0.0598   -0.5364 H   0  0  0  0  0  0  0  0  0  0  0  0
   -0.0965   -1.9067   -1.3333 H   0  0  0  0  0  0  0  0  0  0  0  0
   -1.4051   -1.0203   -1.8075 H   0  0  0  0  0  0  0  0  0  0  0  0
   -2.0016   -2.2813    0.3496 H   0  0  0  0  0  0  0  0  0  0  0  0
  1  4  1  0
  1  2  1  0
  1  9  1  0
  2 10  1  0
  3  6  2  0
  4  2  1  0
  4  3  1  0
  5  4  1  0
  7  3  1  0
  8  1  1  0
 11  2  1  0
 12  5  1  0
 13  5  1  0
 14  7  1  0
M  END
>  <HBA>  (182) 
3

>  <HBD>  (182) 
2

>  <TPSA>  (182) 
63.32

>  <cid>  (182) 
535

>  <dipole>  (182) 
5.68

>  <excitation_energy_1>  (182) 
5.624

>  <excitation_energy_2>  (182) 
5.927

>  <excitation_energy_3>  (182) 
6.874

>  <excitation_energy_4>  (182) 
6.914

>  <homo_energy>  (182) 
-6.77

>  <homo_lumo_gap>  (182) 
7.32

>  <logP>  (182) 
0.263

>  <lumo_energy>  (182) 
0.55

>  <melting_point>  (182) 
139.77

>  <molecular_refractivity>  (182) 
23.75

>  <oscillator_strength_1>  (182) 
0.0004

>  <oscillator_strength_2>  (182) 
0.0138

>  <oscillator_strength_3>  (182) 
0.0025

>  <oscillator_strength_4>  (182) 
0.0114

>  <open_babel_can_smiles>  (182) 
OC(=O)C1(N)CC1

>  <mulliken_charges>  (182) 
14
1   -0.312118
2   -0.312392
3   0.616587
4   0.106162
5   -0.802993
6   -0.485513
7   -0.590794
8   0.153243
9   0.194487
10   0.19453
11   0.153275
12   0.32742
13   0.327465
14   0.43064

>  <lowdin_charges>  (182) 
14
1   -0.297524
2   -0.29829
3   0.18357
4   -0.016663
5   -0.532846
6   -0.274159
7   -0.354568
8   0.159085
9   0.182961
10   0.181031
11   0.161228
12   0.273878
13   0.274264
14   0.358035

$$$$
PCCDB-ID:  542
     RDKit          3D

 16 16  0  0  1  0  0  0  0  0999 V2000
    1.0367    0.5861    0.0156 C   0  0  0  0  0  0  0  0  0  0  0  0
    1.1007   -0.7437   -0.0816 C   0  0  0  0  0  0  0  0  0  0  0  0
   -0.6535    1.7482    1.5309 C   0  0  0  0  0  0  0  0  0  0  0  0
   -0.3919    1.0148    0.2065 C   0  0  2  0  0  0  0  0  0  0  0  0
   -2.1108    2.1712    1.7618 C   0  0  0  0  0  0  0  0  0  0  0  0
   -0.2647   -1.3053    0.0305 C   0  0  0  0  0  0  0  0  0  0  0  0
   -2.4046    3.2573    2.1958 O   0  0  0  0  0  0  0  0  0  0  0  0
   -3.0525    1.2476    1.4821 O   0  0  0  0  0  0  0  0  0  0  0  0
   -0.6555   -2.4394    0.0111 O   0  0  0  0  0  0  0  0  0  0  0  0
   -1.1327   -0.2236    0.1815 O   0  0  0  0  0  0  0  0  0  0  0  0
    1.8572    1.2939   -0.0251 H   0  0  0  0  0  0  0  0  0  0  0  0
    1.9694   -1.3741   -0.2161 H   0  0  0  0  0  0  0  0  0  0  0  0
   -0.0476    2.6565    1.5776 H   0  0  0  0  0  0  0  0  0  0  0  0
   -0.3420    1.0954    2.3570 H   0  0  0  0  0  0  0  0  0  0  0  0
   -0.7418    1.6245   -0.6371 H   0  0  0  0  0  0  0  0  0  0  0  0
   -2.6436    0.4361    1.1194 H   0  0  0  0  0  0  0  0  0  0  0  0
  1  4  1  0
  2  1  2  0
  2  6  1  0
  3 13  1  0
  3  5  1  0
  3 14  1  0
  4 15  1  6
  4  3  1  0
  5  7  2  0
  6 10  1  0
  8  5  1  0
  9  6  2  0
 10  4  1  0
 11  1  1  0
 12  2  1  0
 16  8  1  0
M  END
>  <HBA>  (183) 
4

>  <HBD>  (183) 
1

>  <TPSA>  (183) 
63.6

>  <cid>  (183) 
542

>  <dipole>  (183) 
5.6

>  <excitation_energy_1>  (183) 
4.751

>  <excitation_energy_2>  (183) 
4.904

>  <excitation_energy_3>  (183) 
5.597

>  <excitation_energy_4>  (183) 
6.022

>  <homo_energy>  (183) 
-7.431

>  <homo_lumo_gap>  (183) 
5.44

>  <logP>  (183) 
-0.057

>  <lumo_energy>  (183) 
-1.992

>  <melting_point>  (183) 
95.41

>  <molecular_refractivity>  (183) 
31.42

>  <oscillator_strength_1>  (183) 
0.0002

>  <oscillator_strength_2>  (183) 
0.0328

>  <oscillator_strength_3>  (183) 
0.0006

>  <oscillator_strength_4>  (183) 
0.033

>  <open_babel_can_smiles>  (183) 
OC(=O)C[C@H]1C=CC(=O)O1

>  <mulliken_charges>  (183) 
16
1   -0.110452
2   -0.176173
3   -0.387702
4   0.069102
5   0.59561
6   0.60495
7   -0.440011
8   -0.574731
9   -0.439511
10   -0.509189
11   0.179777
12   0.180436
13   0.18811
14   0.18877
15   0.190328
16   0.440685

>  <lowdin_charges>  (183) 
16
1   -0.127179
2   -0.185379
3   -0.322782
4   0.005225
5   0.186872
6   0.19696
7   -0.238941
8   -0.353709
9   -0.210585
10   -0.219665
11   0.183257
12   0.190081
13   0.18235
14   0.17909
15   0.171807
16   0.362599

$$$$
PCCDB-ID:  546
     RDKit          3D

 13 12  0  0  0  0  0  0  0  0999 V2000
    1.1763    0.4065   -0.1335 C   0  0  0  0  0  0  0  0  0  0  0  0
    0.5808    0.6141    1.2688 C   0  0  0  0  0  0  0  0  0  0  0  0
    0.1273    1.6717    1.6201 O   0  0  0  0  0  0  0  0  0  0  0  0
    0.5423   -0.4726    2.0666 O   0  0  0  0  0  0  0  0  0  0  0  0
    2.3464   -1.8929    0.4246 O   0  0  0  0  0  0  0  0  0  0  0  0
    2.9147   -0.7269   -1.8151 O   0  0  0  0  0  0  0  0  0  0  0  0
    3.9846    0.1539    0.3981 O   0  0  0  0  0  0  0  0  0  0  0  0
    2.7797   -0.4437   -0.2236 P   0  0  0  0  0  0  0  0  0  0  0  0
    1.2819    1.3875   -0.6007 H   0  0  0  0  0  0  0  0  0  0  0  0
    0.4698   -0.1792   -0.7362 H   0  0  0  0  0  0  0  0  0  0  0  0
    0.9932   -1.2281    1.6389 H   0  0  0  0  0  0  0  0  0  0  0  0
    3.1186   -2.3359    0.8188 H   0  0  0  0  0  0  0  0  0  0  0  0
    3.8295   -0.5696   -2.1062 H   0  0  0  0  0  0  0  0  0  0  0  0
  1  2  1  0
  2  3  2  0
  2  4  1  0
  5 12  1  0
  6  8  1  0
  8  1  1  0
  8  7  2  0
  8  5  1  0
  9  1  1  0
 10  1  1  0
 11  4  1  0
 13  6  1  0
M  END
>  <HBA>  (184) 
5

>  <HBD>  (184) 
3

>  <TPSA>  (184) 
104.64

>  <cid>  (184) 
546

>  <dipole>  (184) 
5.39

>  <excitation_energy_1>  (184) 
5.638

>  <excitation_energy_2>  (184) 
6.35

>  <excitation_energy_3>  (184) 
7.003

>  <excitation_energy_4>  (184) 
7.109

>  <homo_energy>  (184) 
-7.581

>  <homo_lumo_gap>  (184) 
7.524

>  <logP>  (184) 
-0.751

>  <lumo_energy>  (184) 
-0.057

>  <melting_point>  (184) 
139.58

>  <molecular_refractivity>  (184) 
24.49

>  <oscillator_strength_1>  (184) 
0.0027

>  <oscillator_strength_2>  (184) 
0.0121

>  <oscillator_strength_3>  (184) 
0.0177

>  <oscillator_strength_4>  (184) 
0.0453

>  <open_babel_can_smiles>  (184) 
OC(=O)CP(=O)(O)O

>  <mulliken_charges>  (184) 
13
1   -0.606991
2   0.59913
3   -0.423419
4   -0.572103
5   -0.684632
6   -0.639578
7   -0.524145
8   1.05326
9   0.233097
10   0.228213
11   0.437731
12   0.45122
13   0.448218

>  <lowdin_charges>  (184) 
13
1   -0.496961
2   0.19912
3   -0.227863
4   -0.355687
5   -0.587892
6   -0.570727
7   -0.580338
8   1.058699
9   0.211225
10   0.210937
11   0.362045
12   0.389369
13   0.388072

$$$$
PCCDB-ID:  547
     RDKit          3D

 20 20  0  0  0  0  0  0  0  0999 V2000
   -1.0526    0.2686   -0.0869 C   0  0  0  0  0  0  0  0  0  0  0  0
   -0.5122    1.5602   -0.0846 C   0  0  0  0  0  0  0  0  0  0  0  0
    1.1740   -0.6434   -0.0509 C   0  0  0  0  0  0  0  0  0  0  0  0
   -0.7800   -2.2537   -0.1125 C   0  0  0  0  0  0  0  0  0  0  0  0
   -0.2161   -0.8512   -0.0686 C   0  0  0  0  0  0  0  0  0  0  0  0
    0.8648    1.7596   -0.0621 C   0  0  0  0  0  0  0  0  0  0  0  0
    1.7210    0.6361   -0.0442 C   0  0  0  0  0  0  0  0  0  0  0  0
   -0.9216   -2.8703   -1.5158 C   0  0  0  0  0  0  0  0  0  0  0  0
    1.4558    2.9878   -0.0546 O   0  0  0  0  0  0  0  0  0  0  0  0
    3.0605    0.8835   -0.0206 O   0  0  0  0  0  0  0  0  0  0  0  0
   -0.9413   -4.0605   -1.7062 O   0  0  0  0  0  0  0  0  0  0  0  0
   -1.0732   -1.9972   -2.5389 O   0  0  0  0  0  0  0  0  0  0  0  0
   -2.1325    0.1430   -0.0791 H   0  0  0  0  0  0  0  0  0  0  0  0
   -1.1737    2.4245   -0.0899 H   0  0  0  0  0  0  0  0  0  0  0  0
    1.8446   -1.5017   -0.0393 H   0  0  0  0  0  0  0  0  0  0  0  0
   -1.7849   -2.2705    0.3299 H   0  0  0  0  0  0  0  0  0  0  0  0
   -0.1749   -2.9542    0.4695 H   0  0  0  0  0  0  0  0  0  0  0  0
    0.7631    3.6667   -0.0628 H   0  0  0  0  0  0  0  0  0  0  0  0
    3.5344    0.0371   -0.0159 H   0  0  0  0  0  0  0  0  0  0  0  0
   -0.9794   -1.0876   -2.1985 H   0  0  0  0  0  0  0  0  0  0  0  0
  1  2  2  0
  1 13  1  0
  1  5  1  0
  2  6  1  0
  3  7  1  0
  3 15  1  0
  4  5  1  0
  4 16  1  0
  4 17  1  0
  5  3  2  0
  6  9  1  0
  6  7  2  0
  7 10  1  0
  8  4  1  0
 10 19  1  0
 11  8  2  0
 12 20  1  0
 12  8  1  0
 14  2  1  0
 18  9  1  0
M  END
>  <HBA>  (185) 
4

>  <HBD>  (185) 
3

>  <TPSA>  (185) 
77.76

>  <cid>  (185) 
547

>  <dipole>  (185) 
4.46

>  <excitation_energy_1>  (185) 
4.751

>  <excitation_energy_2>  (185) 
5.036

>  <excitation_energy_3>  (185) 
5.265

>  <excitation_energy_4>  (185) 
5.327

>  <homo_energy>  (185) 
-6.06

>  <homo_lumo_gap>  (185) 
5.578

>  <logP>  (185) 
0.725

>  <lumo_energy>  (185) 
-0.482

>  <melting_point>  (185) 
165.6

>  <molecular_refractivity>  (185) 
42.03

>  <oscillator_strength_1>  (185) 
0.0594

>  <oscillator_strength_2>  (185) 
0.0015

>  <oscillator_strength_3>  (185) 
0.0449

>  <oscillator_strength_4>  (185) 
0.0035

>  <open_babel_can_smiles>  (185) 
OC(=O)Cc1ccc(c(c1)O)O

>  <mulliken_charges>  (185) 
20
1   -0.215469
2   -0.190692
3   -0.239653
4   -0.457632
5   0.104579
6   0.322952
7   0.333033
8   0.590546
9   -0.624903
10   -0.626406
11   -0.443385
12   -0.566347
13   0.137131
14   0.12952
15   0.131078
16   0.189837
17   0.187033
18   0.41135
19   0.412942
20   0.414488

>  <lowdin_charges>  (185) 
20
1   -0.191252
2   -0.204141
3   -0.21261
4   -0.313528
5   -0.034981
6   0.081853
7   0.08733
8   0.185618
9   -0.362088
10   -0.360884
11   -0.244279
12   -0.353149
13   0.159247
14   0.160023
15   0.160305
16   0.179154
17   0.180937
18   0.362202
19   0.361903
20   0.358342

$$$$
PCCDB-ID:  548
     RDKit          3D

 22 21  0  0  0  0  0  0  0  0999 V2000
    1.2047    0.2081   -0.1822 C   0  0  0  0  0  0  0  0  0  0  0  0
    0.3623   -0.5389    0.5792 C   0  0  0  0  0  0  0  0  0  0  0  0
    3.4383   -0.6452    0.7942 C   0  0  0  0  0  0  0  0  0  0  0  0
    3.2734    1.0170   -1.0898 C   0  0  0  0  0  0  0  0  0  0  0  0
    2.6412    0.2015   -0.1921 C   0  0  0  0  0  0  0  0  0  0  0  0
   -1.0818   -0.3886    0.4358 C   0  0  0  0  0  0  0  0  0  0  0  0
    4.2982   -1.6935    0.0992 C   0  0  0  0  0  0  0  0  0  0  0  0
   -1.9053   -1.3250    1.3477 C   0  0  0  0  0  0  0  0  0  0  0  0
    4.5790    1.1129   -1.3181 O   0  0  0  0  0  0  0  0  0  0  0  0
   -1.6515    0.3832   -0.3227 O   0  0  0  0  0  0  0  0  0  0  0  0
    5.2696   -1.3858   -0.5680 O   0  0  0  0  0  0  0  0  0  0  0  0
    3.9651   -2.9873    0.2229 O   0  0  0  0  0  0  0  0  0  0  0  0
   -3.2265   -1.1321    1.2148 O   0  0  0  0  0  0  0  0  0  0  0  0
   -1.4150   -2.1455    2.0973 O   0  0  0  0  0  0  0  0  0  0  0  0
    0.7257    0.8934   -0.8822 H   0  0  0  0  0  0  0  0  0  0  0  0
    0.7020   -1.2657    1.3081 H   0  0  0  0  0  0  0  0  0  0  0  0
    2.7709   -1.0927    1.5342 H   0  0  0  0  0  0  0  0  0  0  0  0
    4.1361   -0.0033    1.3475 H   0  0  0  0  0  0  0  0  0  0  0  0
    2.6962    1.7009   -1.7085 H   0  0  0  0  0  0  0  0  0  0  0  0
    5.0530    0.3164   -0.9634 H   0  0  0  0  0  0  0  0  0  0  0  0
    3.1622   -3.0862    0.7606 H   0  0  0  0  0  0  0  0  0  0  0  0
   -3.6557   -1.7644    1.8219 H   0  0  0  0  0  0  0  0  0  0  0  0
  1  2  2  0
  2 16  1  0
  3 18  1  0
  3 17  1  0
  4  5  2  0
  5  1  1  0
  5  3  1  0
  6  2  1  0
  6  8  1  0
  7 12  1  0
  7  3  1  0
  8 14  2  0
  9  4  1  0
  9 20  1  0
 10  6  2  0
 11  7  2  0
 12 21  1  0
 13  8  1  0
 13 22  1  0
 15  1  1  0
 19  4  1  0
M  END
>  <HBA>  (186) 
6

>  <HBD>  (186) 
3

>  <TPSA>  (186) 
111.9

>  <cid>  (186) 
548

>  <dipole>  (186) 
2.77

>  <excitation_energy_1>  (186) 
2.955

>  <excitation_energy_2>  (186) 
3.675

>  <excitation_energy_3>  (186) 
4.564

>  <excitation_energy_4>  (186) 
4.856

>  <homo_energy>  (186) 
-6.278

>  <homo_lumo_gap>  (186) 
3.812

>  <logP>  (186) 
0.113

>  <lumo_energy>  (186) 
-2.465

>  <melting_point>  (186) 
182.11

>  <molecular_refractivity>  (186) 
44.94

>  <oscillator_strength_1>  (186) 
0.0002

>  <oscillator_strength_2>  (186) 
0.4597

>  <oscillator_strength_3>  (186) 
0.0144

>  <oscillator_strength_4>  (186) 
0.0

>  <open_babel_can_smiles>  (186) 
O/C=C(\CC(=O)O)/C=C/C(=O)C(=O)O

>  <mulliken_charges>  (186) 
22
1   -0.12106
2   -0.226785
3   -0.483567
4   0.096905
5   0.10722
6   0.364905
7   0.620458
8   0.528271
9   -0.575516
10   -0.464948
11   -0.463724
12   -0.53541
13   -0.540807
14   -0.464883
15   0.172554
16   0.141455
17   0.169327
18   0.207115
19   0.174924
20   0.453191
21   0.427294
22   0.413078

>  <lowdin_charges>  (186) 
22
1   -0.083892
2   -0.253577
3   -0.31544
4   0.001419
5   -0.092259
6   0.114625
7   0.212431
8   0.168307
9   -0.338672
10   -0.228896
11   -0.261615
12   -0.318358
13   -0.321823
14   -0.263504
15   0.179454
16   0.163937
17   0.168754
18   0.187942
19   0.173734
20   0.368938
21   0.372039
22   0.366457

$$$$
PCCDB-ID:  550
     RDKit          3D

 23 22  0  0  1  0  0  0  0  0999 V2000
    1.1792    0.8065    0.6037 C   0  0  0  0  0  0  0  0  0  0  0  0
    0.3844    0.7150    1.6797 C   0  0  0  0  0  0  0  0  0  0  0  0
    3.4434    1.6803    0.0417 C   0  0  0  0  0  0  0  0  0  0  0  0
    2.6248    0.4169    0.4310 C   0  0  1  0  0  0  0  0  0  0  0  0
   -1.0191    1.1732    1.5646 C   0  0  0  0  0  0  0  0  0  0  0  0
    4.7086    1.3799   -0.7535 C   0  0  0  0  0  0  0  0  0  0  0  0
    3.2860   -0.3128    1.6205 C   0  0  0  0  0  0  0  0  0  0  0  0
   -1.8617    0.9952    2.8462 C   0  0  0  0  0  0  0  0  0  0  0  0
   -1.5189    1.6615    0.5671 O   0  0  0  0  0  0  0  0  0  0  0  0
    5.1183    0.2645   -1.0002 O   0  0  0  0  0  0  0  0  0  0  0  0
    5.3824    2.4490   -1.2167 O   0  0  0  0  0  0  0  0  0  0  0  0
    2.8852   -0.2585    2.7590 O   0  0  0  0  0  0  0  0  0  0  0  0
    4.3845   -1.0189    1.3070 O   0  0  0  0  0  0  0  0  0  0  0  0
   -3.1285    1.4067    2.6773 O   0  0  0  0  0  0  0  0  0  0  0  0
   -1.4239    0.5385    3.8793 O   0  0  0  0  0  0  0  0  0  0  0  0
    0.7290    1.2224   -0.3000 H   0  0  0  0  0  0  0  0  0  0  0  0
    0.7248    0.3203    2.6270 H   0  0  0  0  0  0  0  0  0  0  0  0
    3.7046    2.2551    0.9404 H   0  0  0  0  0  0  0  0  0  0  0  0
    2.8161    2.3413   -0.5723 H   0  0  0  0  0  0  0  0  0  0  0  0
    2.6709   -0.2570   -0.4368 H   0  0  0  0  0  0  0  0  0  0  0  0
    4.9418    3.2760   -0.9569 H   0  0  0  0  0  0  0  0  0  0  0  0
    4.6489   -0.8509    0.3743 H   0  0  0  0  0  0  0  0  0  0  0  0
   -3.5798    1.2557    3.5296 H   0  0  0  0  0  0  0  0  0  0  0  0
  1  2  2  0
  2 17  1  0
  3  4  1  0
  3 18  1  0
  4 20  1  6
  4  1  1  0
  4  7  1  0
  5  2  1  0
  5  8  1  0
  6  3  1  0
  7 12  2  0
  8 15  2  0
  9  5  2  0
 10  6  2  0
 11 21  1  0
 11  6  1  0
 13  7  1  0
 14  8  1  0
 14 23  1  0
 16  1  1  0
 19  3  1  0
 22 13  1  0
M  END
>  <HBA>  (187) 
7

>  <HBD>  (187) 
3

>  <TPSA>  (187) 
128.97

>  <cid>  (187) 
550

>  <dipole>  (187) 
4.58

>  <excitation_energy_1>  (187) 
2.917

>  <excitation_energy_2>  (187) 
4.108

>  <excitation_energy_3>  (187) 
4.709

>  <excitation_energy_4>  (187) 
4.722

>  <homo_energy>  (187) 
-7.078

>  <homo_lumo_gap>  (187) 
4.416

>  <logP>  (187) 
-0.628

>  <lumo_energy>  (187) 
-2.661

>  <melting_point>  (187) 
234.77

>  <molecular_refractivity>  (187) 
45.61

>  <oscillator_strength_1>  (187) 
0.0

>  <oscillator_strength_2>  (187) 
0.0011

>  <oscillator_strength_3>  (187) 
0.1813

>  <oscillator_strength_4>  (187) 
0.0669

>  <open_babel_can_smiles>  (187) 
OC(=O)C[C@@H](C(=O)O)/C=C/C(=O)C(=O)O

>  <mulliken_charges>  (187) 
23
1   -0.111237
2   -0.168505
3   -0.430254
4   -0.248809
5   0.365303
6   0.634763
7   0.610258
8   0.528781
9   -0.442016
10   -0.459063
11   -0.543354
12   -0.441253
13   -0.585239
14   -0.542824
15   -0.439315
16   0.167901
17   0.221356
18   0.2122
19   0.192118
20   0.189966
21   0.425425
22   0.446953
23   0.416846

>  <lowdin_charges>  (187) 
23
1   -0.100738
2   -0.200368
3   -0.320376
4   -0.161977
5   0.128322
6   0.210177
7   0.191515
8   0.164367
9   -0.203171
10   -0.249174
11   -0.323623
12   -0.23989
13   -0.350648
14   -0.322108
15   -0.238748
16   0.170839
17   0.202742
18   0.186454
19   0.179005
20   0.178416
21   0.370433
22   0.361232
23   0.367316

$$$$
PCCDB-ID:  551
     RDKit          3D

 20 19  0  0  0  0  0  0  0  0999 V2000
    0.7253    0.5125   -0.0987 C   0  0  0  0  0  0  0  0  0  0  0  0
   -0.3441   -0.1068    0.4237 C   0  0  0  0  0  0  0  0  0  0  0  0
    1.2933    1.7785    0.3580 C   0  0  0  0  0  0  0  0  0  0  0  0
   -0.8317   -1.4560    0.0018 C   0  0  0  0  0  0  0  0  0  0  0  0
    1.5346    2.2088    1.6145 C   0  0  0  0  0  0  0  0  0  0  0  0
   -0.6378   -2.5798    1.0478 C   0  0  0  0  0  0  0  0  0  0  0  0
    1.4284    1.4229    2.8933 C   0  0  0  0  0  0  0  0  0  0  0  0
    2.0492    3.4636    1.8795 O   0  0  0  0  0  0  0  0  0  0  0  0
   -1.1181   -3.6738    0.8742 O   0  0  0  0  0  0  0  0  0  0  0  0
    0.0929   -2.3061    2.1406 O   0  0  0  0  0  0  0  0  0  0  0  0
    1.0223    0.2839    2.9884 O   0  0  0  0  0  0  0  0  0  0  0  0
    1.8606    2.0811    3.9811 O   0  0  0  0  0  0  0  0  0  0  0  0
    1.2131    0.0759   -0.9718 H   0  0  0  0  0  0  0  0  0  0  0  0
   -0.8724    0.3642    1.2500 H   0  0  0  0  0  0  0  0  0  0  0  0
    1.5978    2.4629   -0.4391 H   0  0  0  0  0  0  0  0  0  0  0  0
   -0.3245   -1.7924   -0.9106 H   0  0  0  0  0  0  0  0  0  0  0  0
   -1.9052   -1.4464   -0.2216 H   0  0  0  0  0  0  0  0  0  0  0  0
    2.1525    3.9686    1.0573 H   0  0  0  0  0  0  0  0  0  0  0  0
    0.4191   -1.3824    2.1759 H   0  0  0  0  0  0  0  0  0  0  0  0
    2.1612    2.9717    3.7165 H   0  0  0  0  0  0  0  0  0  0  0  0
  1  3  1  0
  1  2  2  0
  2 14  1  0
  3  5  2  0
  4  2  1  0
  4  6  1  0
  5  8  1  0
  5  7  1  0
  6 10  1  0
  7 11  2  0
  7 12  1  0
  9  6  2  0
 10 19  1  0
 13  1  1  0
 15  3  1  0
 16  4  1  0
 17  4  1  0
 18  8  1  0
 20 12  1  0
M  END
>  <HBA>  (188) 
5

>  <HBD>  (188) 
3

>  <TPSA>  (188) 
94.83

>  <cid>  (188) 
551

>  <dipole>  (188) 
9.48

>  <excitation_energy_1>  (188) 
3.835

>  <excitation_energy_2>  (188) 
4.416

>  <excitation_energy_3>  (188) 
4.896

>  <excitation_energy_4>  (188) 
5.13

>  <homo_energy>  (188) 
-6.509

>  <homo_lumo_gap>  (188) 
4.381

>  <logP>  (188) 
0.544

>  <lumo_energy>  (188) 
-2.128

>  <melting_point>  (188) 
161.38

>  <molecular_refractivity>  (188) 
39.93

>  <oscillator_strength_1>  (188) 
0.1633

>  <oscillator_strength_2>  (188) 
0.0088

>  <oscillator_strength_3>  (188) 
0.0916

>  <oscillator_strength_4>  (188) 
0.016

>  <open_babel_can_smiles>  (188) 
OC(=O)C/C=C/C=C(\C(=O)O)/O

>  <mulliken_charges>  (188) 
20
1   -0.120096
2   -0.1188
3   -0.225191
4   -0.415193
5   0.313024
6   0.5766
7   0.591898
8   -0.672799
9   -0.45031
10   -0.586044
11   -0.474016
12   -0.566761
13   0.144172
14   0.159633
15   0.138206
16   0.1844
17   0.189852
18   0.425352
19   0.462748
20   0.443325

>  <lowdin_charges>  (188) 
20
1   -0.167802
2   -0.14605
3   -0.176982
4   -0.313419
5   0.045881
6   0.189267
7   0.196459
8   -0.398123
9   -0.2543
10   -0.348506
11   -0.249075
12   -0.327312
13   0.162319
14   0.165951
15   0.161973
16   0.176822
17   0.179997
18   0.368979
19   0.363138
20   0.370784

$$$$
PCCDB-ID:  556
     RDKit          3D

 29 28  0  0  1  0  0  0  0  0999 V2000
    1.6164    0.4608   -2.0667 C   0  0  0  0  0  0  0  0  0  0  0  0
    0.7925   -0.3832   -1.0740 C   0  0  0  0  0  0  0  0  0  0  0  0
   -1.6804   -2.7957   -2.2494 C   0  0  0  0  0  0  0  0  0  0  0  0
   -3.0856   -3.3797   -1.9879 C   0  0  0  0  0  0  0  0  0  0  0  0
    3.0967    0.2582   -1.8332 C   0  0  0  0  0  0  0  0  0  0  0  0
   -0.7345   -0.1523   -1.1701 C   0  0  1  0  0  0  0  0  0  0  0  0
   -1.6700   -1.4523   -2.9703 C   0  0  0  0  0  0  0  0  0  0  0  0
   -3.7237   -4.0393   -3.2038 C   0  0  0  0  0  0  0  0  0  0  0  0
   -1.0446    1.2981   -0.7294 C   0  0  0  0  0  0  0  0  0  0  0  0
   -1.2519   -0.3377   -2.5125 N   0  0  0  0  0  0  0  0  0  0  0  0
    3.8594   -0.2419   -2.6299 O   0  0  0  0  0  0  0  0  0  0  0  0
   -2.1476   -1.4553   -4.2251 O   0  0  0  0  0  0  0  0  0  0  0  0
   -3.3128   -3.9222   -4.3404 O   0  0  0  0  0  0  0  0  0  0  0  0
   -4.8122   -4.7950   -2.9720 O   0  0  0  0  0  0  0  0  0  0  0  0
   -0.8298    1.6858    0.3960 O   0  0  0  0  0  0  0  0  0  0  0  0
   -1.5304    2.0812   -1.7004 O   0  0  0  0  0  0  0  0  0  0  0  0
    1.3900    1.5263   -1.9144 H   0  0  0  0  0  0  0  0  0  0  0  0
    1.3803    0.1994   -3.1014 H   0  0  0  0  0  0  0  0  0  0  0  0
    1.0882   -0.1531   -0.0438 H   0  0  0  0  0  0  0  0  0  0  0  0
    1.0002   -1.4471   -1.2463 H   0  0  0  0  0  0  0  0  0  0  0  0
   -1.1022   -3.5125   -2.8450 H   0  0  0  0  0  0  0  0  0  0  0  0
   -1.1693   -2.6982   -1.2907 H   0  0  0  0  0  0  0  0  0  0  0  0
   -3.7702   -2.6033   -1.6186 H   0  0  0  0  0  0  0  0  0  0  0  0
   -3.0152   -4.1304   -1.1897 H   0  0  0  0  0  0  0  0  0  0  0  0
    3.4606    0.5943   -0.8343 H   0  0  0  0  0  0  0  0  0  0  0  0
   -1.2158   -0.7952   -0.4189 H   0  0  0  0  0  0  0  0  0  0  0  0
   -2.4510   -2.3590   -4.4698 H   0  0  0  0  0  0  0  0  0  0  0  0
   -5.0276   -4.8138   -2.0242 H   0  0  0  0  0  0  0  0  0  0  0  0
   -1.6078    1.4939   -2.4947 H   0  0  0  0  0  0  0  0  0  0  0  0
  1 17  1  0
  1  5  1  0
  1  2  1  0
  2 19  1  0
  3  4  1  0
  3 22  1  0
  4 23  1  0
  4 24  1  0
  5 25  1  0
  6  2  1  0
  6  9  1  0
  6 26  1  1
  7 10  2  0
  7  3  1  0
  8 14  1  0
  8  4  1  0
  9 15  2  0
 10  6  1  0
 11  5  2  0
 12  7  1  0
 13  8  2  0
 14 28  1  0
 16  9  1  0
 18  1  1  0
 20  2  1  0
 21  3  1  0
 27 12  1  0
 29 16  1  0
M  END
>  <HBA>  (189) 
7

>  <HBD>  (189) 
3

>  <TPSA>  (189) 
120.77

>  <cid>  (189) 
556

>  <dipole>  (189) 
8.23

>  <excitation_energy_1>  (189) 
4.197

>  <excitation_energy_2>  (189) 
5.254

>  <excitation_energy_3>  (189) 
5.295

>  <excitation_energy_4>  (189) 
5.379

>  <homo_energy>  (189) 
-6.836

>  <homo_lumo_gap>  (189) 
5.704

>  <logP>  (189) 
-0.209

>  <lumo_energy>  (189) 
-1.132

>  <melting_point>  (189) 
206.06

>  <molecular_refractivity>  (189) 
52.12

>  <oscillator_strength_1>  (189) 
0.0003

>  <oscillator_strength_2>  (189) 
0.0183

>  <oscillator_strength_3>  (189) 
0.0004

>  <oscillator_strength_4>  (189) 
0.0002

>  <open_babel_can_smiles>  (189) 
O=CCC[C@@H](C(=O)O)/N=C(\CCC(=O)O)/O

>  <mulliken_charges>  (189) 
29
1   -0.34103
2   -0.282921
3   -0.380246
4   -0.413663
5   0.252402
6   -0.077868
7   0.508227
8   0.629774
9   0.600025
10   -0.479801
11   -0.380936
12   -0.593482
13   -0.456455
14   -0.540084
15   -0.472939
16   -0.578181
17   0.176146
18   0.180254
19   0.174597
20   0.146556
21   0.197688
22   0.179604
23   0.20857
24   0.182282
25   0.105357
26   0.147564
27   0.449933
28   0.425027
29   0.4336

>  <lowdin_charges>  (189) 
29
1   -0.310637
2   -0.269893
3   -0.307732
4   -0.322814
5   0.059073
6   -0.106228
7   0.145087
8   0.21049
9   0.173872
10   -0.236138
11   -0.216354
12   -0.355741
13   -0.247893
14   -0.320932
15   -0.26332
16   -0.347388
17   0.169194
18   0.168346
19   0.164199
20   0.144691
21   0.181397
22   0.17273
23   0.185111
24   0.173668
25   0.114438
26   0.151141
27   0.362505
28   0.367609
29   0.361517

$$$$
PCCDB-ID:  557
     RDKit          3D

 20 20  0  0  1  0  0  0  0  0999 V2000
    1.0385   -0.1820   -0.0347 C   0  0  0  0  0  0  0  0  0  0  0  0
    3.0680   -1.6467   -1.8364 C   0  0  0  0  0  0  0  0  0  0  0  0
    2.6113   -0.3958   -2.6390 C   0  0  0  0  0  0  0  0  0  0  0  0
    3.2502   -1.1269   -0.3750 C   0  0  0  0  0  0  0  0  0  0  0  0
    2.7239    0.7315   -1.5948 C   0  0  1  0  0  0  0  0  0  0  0  0
    1.9151    2.0004   -1.8253 C   0  0  0  0  0  0  0  0  0  0  0  0
    2.4641    0.1209   -0.2685 N   0  0  0  0  0  0  0  0  0  0  0  0
    1.4297    2.3287   -2.8784 O   0  0  0  0  0  0  0  0  0  0  0  0
    1.8324    2.7853   -0.7211 O   0  0  0  0  0  0  0  0  0  0  0  0
    0.9448   -0.6474    0.9511 H   0  0  0  0  0  0  0  0  0  0  0  0
    0.5907   -0.8598   -0.7785 H   0  0  0  0  0  0  0  0  0  0  0  0
    0.4568    0.7434   -0.0241 H   0  0  0  0  0  0  0  0  0  0  0  0
    4.0015   -2.0686   -2.2212 H   0  0  0  0  0  0  0  0  0  0  0  0
    2.3164   -2.4407   -1.8844 H   0  0  0  0  0  0  0  0  0  0  0  0
    1.5811   -0.4879   -2.9945 H   0  0  0  0  0  0  0  0  0  0  0  0
    3.2333   -0.1958   -3.5150 H   0  0  0  0  0  0  0  0  0  0  0  0
    4.3030   -0.8833   -0.1877 H   0  0  0  0  0  0  0  0  0  0  0  0
    2.9330   -1.8421    0.3888 H   0  0  0  0  0  0  0  0  0  0  0  0
    3.7749    1.0623   -1.5630 H   0  0  0  0  0  0  0  0  0  0  0  0
    2.2507    2.2923    0.0147 H   0  0  0  0  0  0  0  0  0  0  0  0
  1 12  1  0
  1 10  1  0
  2  4  1  0
  3  2  1  0
  3  5  1  0
  4  7  1  0
  4 17  1  0
  4 18  1  0
  5 19  1  1
  5  7  1  0
  6  5  1  0
  6  9  1  0
  7  1  1  0
  8  6  2  0
  9 20  1  0
 11  1  1  0
 13  2  1  0
 14  2  1  0
 15  3  1  0
 16  3  1  0
M  END
>  <HBA>  (190) 
3

>  <HBD>  (190) 
1

>  <TPSA>  (190) 
40.54

>  <cid>  (190) 
557

>  <dipole>  (190) 
4.42

>  <excitation_energy_1>  (190) 
5.448

>  <excitation_energy_2>  (190) 
5.586

>  <excitation_energy_3>  (190) 
5.941

>  <excitation_energy_4>  (190) 
6.255

>  <homo_energy>  (190) 
-6.645

>  <homo_lumo_gap>  (190) 
6.841

>  <logP>  (190) 
0.103

>  <lumo_energy>  (190) 
0.196

>  <melting_point>  (190) 
75.81

>  <molecular_refractivity>  (190) 
37.42

>  <oscillator_strength_1>  (190) 
0.0078

>  <oscillator_strength_2>  (190) 
0.0001

>  <oscillator_strength_3>  (190) 
0.0084

>  <oscillator_strength_4>  (190) 
0.0045

>  <open_babel_can_smiles>  (190) 
CN1CCC[C@H]1C(=O)O

>  <mulliken_charges>  (190) 
20
1   -0.329976
2   -0.300854
3   -0.27448
4   -0.1405
5   -0.089718
6   0.591404
7   -0.42126
8   -0.445952
9   -0.577735
10   0.161339
11   0.143841
12   0.170617
13   0.147933
14   0.150574
15   0.164674
16   0.157821
17   0.150283
18   0.148287
19   0.170527
20   0.423176

>  <lowdin_charges>  (190) 
20
1   -0.373037
2   -0.302052
3   -0.289646
4   -0.208516
5   -0.110805
6   0.184836
7   -0.204745
8   -0.235498
9   -0.358716
10   0.156925
11   0.137771
12   0.159816
13   0.153246
14   0.151403
15   0.15754
16   0.160728
17   0.145467
18   0.152555
19   0.160832
20   0.361897

$$$$
PCCDB-ID:  562
     RDKit          3D

 20 19  0  0  0  0  0  0  0  0999 V2000
    1.1190    0.7227    1.1222 C   0  0  0  0  0  0  0  0  0  0  0  0
    4.8210   -1.1908    1.4568 C   0  0  0  0  0  0  0  0  0  0  0  0
    3.3179   -0.9426    1.5552 C   0  0  0  0  0  0  0  0  0  0  0  0
    7.0517   -4.1223    2.4272 C   0  0  0  0  0  0  0  0  0  0  0  0
    5.2231   -2.5502    1.9924 C   0  0  0  0  0  0  0  0  0  0  0  0
    6.6347   -2.9127    1.9591 C   0  0  0  0  0  0  0  0  0  0  0  0
    6.2554   -5.0617    2.9415 O   0  0  0  0  0  0  0  0  0  0  0  0
    4.3777   -3.3415    2.4500 O   0  0  0  0  0  0  0  0  0  0  0  0
    7.4840   -1.9575    1.4301 O   0  0  0  0  0  0  0  0  0  0  0  0
    2.9280    0.7157    0.8718 S   0  0  0  0  0  0  0  0  0  0  0  0
    0.7455    1.6751    0.7370 H   0  0  0  0  0  0  0  0  0  0  0  0
    0.8653    0.6479    2.1841 H   0  0  0  0  0  0  0  0  0  0  0  0
    0.6398   -0.0926    0.5716 H   0  0  0  0  0  0  0  0  0  0  0  0
    5.3875   -0.4242    2.0027 H   0  0  0  0  0  0  0  0  0  0  0  0
    5.1697   -1.1137    0.4179 H   0  0  0  0  0  0  0  0  0  0  0  0
    2.9919   -0.9961    2.5986 H   0  0  0  0  0  0  0  0  0  0  0  0
    2.7694   -1.7079    0.9975 H   0  0  0  0  0  0  0  0  0  0  0  0
    8.1027   -4.4111    2.4118 H   0  0  0  0  0  0  0  0  0  0  0  0
    5.3326   -4.6841    2.9029 H   0  0  0  0  0  0  0  0  0  0  0  0
    8.3951   -2.2886    1.4542 H   0  0  0  0  0  0  0  0  0  0  0  0
  1 12  1  0
  2  3  1  0
  2  5  1  0
  2 14  1  0
  3 16  1  0
  4  7  1  0
  5  8  2  0
  6  5  1  0
  6  4  2  0
  9 20  1  0
  9  6  1  0
 10  1  1  0
 10  3  1  0
 11  1  1  0
 13  1  1  0
 15  2  1  0
 17  3  1  0
 18  4  1  0
 19  7  1  0
M  END
>  <HBA>  (191) 
4

>  <HBD>  (191) 
2

>  <TPSA>  (191) 
82.83

>  <cid>  (191) 
562

>  <dipole>  (191) 
1.51

>  <excitation_energy_1>  (191) 
3.632

>  <excitation_energy_2>  (191) 
4.187

>  <excitation_energy_3>  (191) 
4.292

>  <excitation_energy_4>  (191) 
4.915

>  <homo_energy>  (191) 
-5.916

>  <homo_lumo_gap>  (191) 
4.463

>  <logP>  (191) 
1.266

>  <lumo_energy>  (191) 
-1.453

>  <melting_point>  (191) 
39.59

>  <molecular_refractivity>  (191) 
41.42

>  <oscillator_strength_1>  (191) 
0.0037

>  <oscillator_strength_2>  (191) 
0.0003

>  <oscillator_strength_3>  (191) 
0.211

>  <oscillator_strength_4>  (191) 
0.0007

>  <open_babel_can_smiles>  (191) 
CSCCC(=O)/C(=C\O)/O

>  <mulliken_charges>  (191) 
20
1   -0.583184
2   -0.360063
3   -0.394881
4   0.079881
5   0.426755
6   0.240191
7   -0.574417
8   -0.545726
9   -0.657408
10   0.084998
11   0.182816
12   0.177272
13   0.177212
14   0.192702
15   0.192792
16   0.178069
17   0.178552
18   0.149285
19   0.447536
20   0.407619

>  <lowdin_charges>  (191) 
20
1   -0.545112
2   -0.301985
3   -0.367172
4   -0.038688
5   0.162414
6   -0.024501
7   -0.347613
8   -0.29894
9   -0.398215
10   0.090124
11   0.175976
12   0.160373
13   0.162877
14   0.181335
15   0.179159
16   0.160371
17   0.163089
18   0.158206
19   0.369672
20   0.358629

$$$$
PCCDB-ID:  563
     RDKit          3D

 15 14  0  0  0  0  0  0  0  0999 V2000
    1.1498   -0.1492   -0.0234 C   0  0  0  0  0  0  0  0  0  0  0  0
    4.9258    0.4083   -1.7309 C   0  0  0  0  0  0  0  0  0  0  0  0
    3.4068    0.3728   -1.5823 C   0  0  0  0  0  0  0  0  0  0  0  0
    5.3517    0.9079   -3.1076 C   0  0  0  0  0  0  0  0  0  0  0  0
    4.5921    1.2505   -3.9774 O   0  0  0  0  0  0  0  0  0  0  0  0
    6.6960    0.9525   -3.3171 O   0  0  0  0  0  0  0  0  0  0  0  0
    2.9703   -0.2327    0.0940 S   0  0  0  0  0  0  0  0  0  0  0  0
    0.7527   -0.4863    0.9375 H   0  0  0  0  0  0  0  0  0  0  0  0
    0.7729   -0.8080   -0.8116 H   0  0  0  0  0  0  0  0  0  0  0  0
    0.8116    0.8753   -0.2052 H   0  0  0  0  0  0  0  0  0  0  0  0
    5.3511   -0.5924   -1.5700 H   0  0  0  0  0  0  0  0  0  0  0  0
    5.3712    1.0605   -0.9664 H   0  0  0  0  0  0  0  0  0  0  0  0
    2.9731   -0.2862   -2.3404 H   0  0  0  0  0  0  0  0  0  0  0  0
    2.9940    1.3745   -1.7347 H   0  0  0  0  0  0  0  0  0  0  0  0
    7.1695    0.6463   -2.5256 H   0  0  0  0  0  0  0  0  0  0  0  0
  1  7  1  0
  1  8  1  0
  2  3  1  0
  2 11  1  0
  2 12  1  0
  3  7  1  0
  4  2  1  0
  5  4  2  0
  6  4  1  0
  6 15  1  0
  9  1  1  0
 10  1  1  0
 13  3  1  0
 14  3  1  0
M  END
>  <HBA>  (192) 
3

>  <HBD>  (192) 
1

>  <TPSA>  (192) 
62.6

>  <cid>  (192) 
563

>  <dipole>  (192) 
2.57

>  <excitation_energy_1>  (192) 
4.991

>  <excitation_energy_2>  (192) 
5.359

>  <excitation_energy_3>  (192) 
5.37

>  <excitation_energy_4>  (192) 
5.675

>  <homo_energy>  (192) 
-6.161

>  <homo_lumo_gap>  (192) 
6.302

>  <logP>  (192) 
0.824

>  <lumo_energy>  (192) 
0.142

>  <melting_point>  (192) 
60.89

>  <molecular_refractivity>  (192) 
30.7

>  <oscillator_strength_1>  (192) 
0.0014

>  <oscillator_strength_2>  (192) 
0.0088

>  <oscillator_strength_3>  (192) 
0.0029

>  <oscillator_strength_4>  (192) 
0.0047

>  <open_babel_can_smiles>  (192) 
CSCCC(=O)O

>  <mulliken_charges>  (192) 
15
1   -0.584052
2   -0.418644
3   -0.390928
4   0.607987
5   -0.433049
6   -0.563833
7   0.082842
8   0.18582
9   0.180674
10   0.180637
11   0.18334
12   0.184705
13   0.18637
14   0.186774
15   0.411357

>  <lowdin_charges>  (192) 
15
1   -0.544009
2   -0.327624
3   -0.366585
4   0.200889
5   -0.23549
6   -0.358737
7   0.089312
8   0.177617
9   0.164786
10   0.163056
11   0.170604
12   0.172981
13   0.167257
14   0.165746
15   0.360195

$$$$
PCCDB-ID:  564
     RDKit          3D

 22 21  0  0  0  0  0  0  0  0999 V2000
    1.2670    0.0132   -0.1911 C   0  0  0  0  0  0  0  0  0  0  0  0
    1.2630   -1.3785    0.4511 C   0  0  0  0  0  0  0  0  0  0  0  0
    2.6780    0.5165   -0.5180 C   0  0  0  0  0  0  0  0  0  0  0  0
   -0.1472   -1.8716    0.7814 C   0  0  0  0  0  0  0  0  0  0  0  0
    2.7092    1.9258   -1.1197 C   0  0  0  0  0  0  0  0  0  0  0  0
   -0.1673   -3.2526    1.4253 C   0  0  0  0  0  0  0  0  0  0  0  0
    2.1500    2.9132   -0.1857 N   0  0  0  0  0  0  0  0  0  0  0  0
    0.8076   -3.9185    1.6648 O   0  0  0  0  0  0  0  0  0  0  0  0
   -1.4076   -3.7299    1.7366 O   0  0  0  0  0  0  0  0  0  0  0  0
    0.7778    0.7392    0.4693 H   0  0  0  0  0  0  0  0  0  0  0  0
    0.6715   -0.0072   -1.1167 H   0  0  0  0  0  0  0  0  0  0  0  0
    1.8587   -1.3716    1.3722 H   0  0  0  0  0  0  0  0  0  0  0  0
    1.7463   -2.1070   -0.2117 H   0  0  0  0  0  0  0  0  0  0  0  0
    3.1668   -0.1733   -1.2203 H   0  0  0  0  0  0  0  0  0  0  0  0
    3.2928    0.5035    0.3953 H   0  0  0  0  0  0  0  0  0  0  0  0
   -0.7661   -1.9067   -0.1282 H   0  0  0  0  0  0  0  0  0  0  0  0
   -0.6516   -1.1666    1.4595 H   0  0  0  0  0  0  0  0  0  0  0  0
    2.0912    1.9449   -2.0273 H   0  0  0  0  0  0  0  0  0  0  0  0
    3.7424    2.1532   -1.4393 H   0  0  0  0  0  0  0  0  0  0  0  0
    2.7747    3.0111    0.6147 H   0  0  0  0  0  0  0  0  0  0  0  0
    2.1205    3.8296   -0.6297 H   0  0  0  0  0  0  0  0  0  0  0  0
   -2.0843   -3.0800    1.4839 H   0  0  0  0  0  0  0  0  0  0  0  0
  1  2  1  0
  1 10  1  0
  2  4  1  0
  2 12  1  0
  3  1  1  0
  3 15  1  0
  4  6  1  0
  4 17  1  0
  5  3  1  0
  5  7  1  0
  6  8  2  0
  6  9  1  0
  7 20  1  0
 11  1  1  0
 13  2  1  0
 14  3  1  0
 16  4  1  0
 18  5  1  0
 19  5  1  0
 21  7  1  0
 22  9  1  0
M  END
>  <HBA>  (193) 
3

>  <HBD>  (193) 
2

>  <TPSA>  (193) 
63.32

>  <cid>  (193) 
564

>  <dipole>  (193) 
4.51

>  <excitation_energy_1>  (193) 
5.642

>  <excitation_energy_2>  (193) 
5.744

>  <excitation_energy_3>  (193) 
5.913

>  <excitation_energy_4>  (193) 
6.232

>  <homo_energy>  (193) 
-6.392

>  <homo_lumo_gap>  (193) 
6.811

>  <logP>  (193) 
1.29

>  <lumo_energy>  (193) 
0.419

>  <melting_point>  (193) 
104.84

>  <molecular_refractivity>  (193) 
35.44

>  <oscillator_strength_1>  (193) 
0.0089

>  <oscillator_strength_2>  (193) 
0.0003

>  <oscillator_strength_3>  (193) 
0.001

>  <oscillator_strength_4>  (193) 
0.0008

>  <open_babel_can_smiles>  (193) 
NCCCCCC(=O)O

>  <mulliken_charges>  (193) 
22
1   -0.250748
2   -0.247112
3   -0.257279
4   -0.407072
5   -0.138076
6   0.607973
7   -0.713259
8   -0.438339
9   -0.57072
10   0.156562
11   0.120913
12   0.152224
13   0.151128
14   0.132187
15   0.126844
16   0.162105
17   0.16427
18   0.13679
19   0.114959
20   0.292036
21   0.297266
22   0.407348

>  <lowdin_charges>  (193) 
22
1   -0.278657
2   -0.270177
3   -0.280289
4   -0.325295
5   -0.20369
6   0.198525
7   -0.559763
8   -0.237826
9   -0.36581
10   0.153518
11   0.135631
12   0.152504
13   0.152816
14   0.144955
15   0.137815
16   0.160107
17   0.162258
18   0.140282
19   0.11874
20   0.251614
21   0.254941
22   0.357801

$$$$
PCCDB-ID:  568
     RDKit          3D

 21 23  0  0  0  0  0  0  0  0999 V2000
    3.0617    1.1014   -0.0005 C   0  0  0  0  0  0  0  0  0  0  0  0
   -3.0585    1.1188   -0.0001 C   0  0  0  0  0  0  0  0  0  0  0  0
    3.3986   -0.2626   -0.0008 C   0  0  0  0  0  0  0  0  0  0  0  0
   -3.4032   -0.2433   -0.0004 C   0  0  0  0  0  0  0  0  0  0  0  0
    1.7299    1.5128    0.0001 C   0  0  0  0  0  0  0  0  0  0  0  0
   -1.7243    1.5226    0.0003 C   0  0  0  0  0  0  0  0  0  0  0  0
    2.4144   -1.2530   -0.0010 C   0  0  0  0  0  0  0  0  0  0  0  0
   -2.4246   -1.2392   -0.0007 C   0  0  0  0  0  0  0  0  0  0  0  0
    0.7262    0.5375   -0.0000 C   0  0  0  0  0  0  0  0  0  0  0  0
   -0.7262    0.5416    0.0001 C   0  0  0  0  0  0  0  0  0  0  0  0
    1.0955   -0.8213   -0.0010 C   0  0  0  0  0  0  0  0  0  0  0  0
   -1.1033   -0.8150   -0.0008 C   0  0  0  0  0  0  0  0  0  0  0  0
   -0.0062   -1.6475   -0.0015 O   0  0  0  0  0  0  0  0  0  0  0  0
    3.8528    1.8457   -0.0013 H   0  0  0  0  0  0  0  0  0  0  0  0
   -3.8454    1.8676   -0.0009 H   0  0  0  0  0  0  0  0  0  0  0  0
    4.4449   -0.5549   -0.0003 H   0  0  0  0  0  0  0  0  0  0  0  0
   -4.4511   -0.5296    0.0001 H   0  0  0  0  0  0  0  0  0  0  0  0
    1.4777    2.5697    0.0012 H   0  0  0  0  0  0  0  0  0  0  0  0
   -1.4662    2.5781    0.0013 H   0  0  0  0  0  0  0  0  0  0  0  0
    2.6590   -2.3100   -0.0011 H   0  0  0  0  0  0  0  0  0  0  0  0
   -2.6752   -2.2948   -0.0008 H   0  0  0  0  0  0  0  0  0  0  0  0
  1  5  2  0
  2  6  1  0
  3  1  1  0
  3 16  1  0
  4  2  2  0
  4 17  1  0
  5 18  1  0
  6 19  1  0
  7 11  1  0
  7  3  2  0
  8  4  1  0
  9 10  1  0
  9  5  1  0
 10  6  2  0
 11  9  2  0
 12  8  2  0
 12 10  1  0
 13 11  1  0
 13 12  1  0
 14  1  1  0
 15  2  1  0
 20  7  1  0
 21  8  1  0
M  END
>  <HBA>  (194) 
1

>  <HBD>  (194) 
0

>  <TPSA>  (194) 
13.14

>  <cid>  (194) 
568

>  <dipole>  (194) 
0.71

>  <excitation_energy_1>  (194) 
4.45

>  <excitation_energy_2>  (194) 
4.581

>  <excitation_energy_3>  (194) 
5.239

>  <excitation_energy_4>  (194) 
5.429

>  <homo_energy>  (194) 
-6.008

>  <homo_lumo_gap>  (194) 
5.089

>  <logP>  (194) 
3.586

>  <lumo_energy>  (194) 
-0.92

>  <melting_point>  (194) 
92.22

>  <molecular_refractivity>  (194) 
53.72

>  <oscillator_strength_1>  (194) 
0.0289

>  <oscillator_strength_2>  (194) 
0.2991

>  <oscillator_strength_3>  (194) 
0.0324

>  <oscillator_strength_4>  (194) 
0.0781

>  <open_babel_can_smiles>  (194) 
c1ccc2c(c1)oc1c2cccc1

>  <mulliken_charges>  (194) 
21
1   -0.144869
2   -0.144893
3   -0.136756
4   -0.13676
5   -0.191216
6   -0.191216
7   -0.200229
8   -0.200211
9   0.083812
10   0.083653
11   0.318496
12   0.318534
13   -0.550367
14   0.130463
15   0.130468
16   0.133634
17   0.133639
18   0.135165
19   0.135153
20   0.146752
21   0.146748

>  <lowdin_charges>  (194) 
21
1   -0.168822
2   -0.16883
3   -0.149513
4   -0.149475
5   -0.151216
6   -0.151257
7   -0.175439
8   -0.175469
9   -0.034984
10   -0.034971
11   0.094972
12   0.094952
13   -0.12708
14   0.160233
15   0.160239
16   0.159747
17   0.159719
18   0.159483
19   0.159509
20   0.16909
21   0.169114

$$$$
PCCDB-ID:  570
     RDKit          3D

 26 26  0  0  0  0  0  0  0  0999 V2000
   -1.6286   -0.1124    0.0102 C   0  0  0  0  0  0  0  0  0  0  0  0
   -0.9649   -0.5929    1.1420 C   0  0  0  0  0  0  0  0  0  0  0  0
   -0.8999    0.4810   -1.0217 C   0  0  0  0  0  0  0  0  0  0  0  0
    2.9736    2.5677   -0.5351 C   0  0  0  0  0  0  0  0  0  0  0  0
    0.4179   -0.4729    1.2467 C   0  0  0  0  0  0  0  0  0  0  0  0
    0.4845    0.6062   -0.9207 C   0  0  0  0  0  0  0  0  0  0  0  0
    3.4161    1.2981   -0.0488 C   0  0  0  0  0  0  0  0  0  0  0  0
    3.7994    3.5560   -0.9737 C   0  0  0  0  0  0  0  0  0  0  0  0
    1.1585    0.1459    0.2234 C   0  0  0  0  0  0  0  0  0  0  0  0
    2.6224    0.2615    0.3572 C   0  0  0  0  0  0  0  0  0  0  0  0
    3.2499    4.8286   -1.4253 C   0  0  0  0  0  0  0  0  0  0  0  0
    4.3085    5.8483   -1.8988 C   0  0  0  0  0  0  0  0  0  0  0  0
    3.1596   -0.8292    0.9701 O   0  0  0  0  0  0  0  0  0  0  0  0
    2.0625    5.1253   -1.4551 O   0  0  0  0  0  0  0  0  0  0  0  0
    5.5046    5.6411   -1.8962 O   0  0  0  0  0  0  0  0  0  0  0  0
    3.7542    6.9993   -2.3165 O   0  0  0  0  0  0  0  0  0  0  0  0
   -2.7079   -0.2082   -0.0703 H   0  0  0  0  0  0  0  0  0  0  0  0
   -1.5265   -1.0620    1.9451 H   0  0  0  0  0  0  0  0  0  0  0  0
   -1.4068    0.8387   -1.9133 H   0  0  0  0  0  0  0  0  0  0  0  0
    1.9076    2.7833   -0.5369 H   0  0  0  0  0  0  0  0  0  0  0  0
    0.9351   -0.8474    2.1235 H   0  0  0  0  0  0  0  0  0  0  0  0
    1.0484    1.0320   -1.7436 H   0  0  0  0  0  0  0  0  0  0  0  0
    4.4947    1.1653    0.0524 H   0  0  0  0  0  0  0  0  0  0  0  0
    4.8768    3.4320   -1.0066 H   0  0  0  0  0  0  0  0  0  0  0  0
    4.1046   -0.6698    1.1333 H   0  0  0  0  0  0  0  0  0  0  0  0
    4.4971    7.5698   -2.5905 H   0  0  0  0  0  0  0  0  0  0  0  0
  1  2  2  0
  2  5  1  0
  2 18  1  0
  3  6  2  0
  3  1  1  0
  4  7  1  0
  5 21  1  0
  6  9  1  0
  7 23  1  0
  7 10  2  0
  8  4  2  0
  9 10  1  0
  9  5  2  0
 10 13  1  0
 11  8  1  0
 12 15  2  0
 12 11  1  0
 13 25  1  0
 14 11  2  0
 16 12  1  0
 17  1  1  0
 19  3  1  0
 20  4  1  0
 22  6  1  0
 24  8  1  0
 26 16  1  0
M  END
>  <HBA>  (195) 
4

>  <HBD>  (195) 
2

>  <TPSA>  (195) 
74.6

>  <cid>  (195) 
570

>  <dipole>  (195) 
3.43

>  <excitation_energy_1>  (195) 
2.878

>  <excitation_energy_2>  (195) 
3.364

>  <excitation_energy_3>  (195) 
4.087

>  <excitation_energy_4>  (195) 
4.31

>  <homo_energy>  (195) 
-5.91

>  <homo_lumo_gap>  (195) 
3.562

>  <logP>  (195) 
1.795

>  <lumo_energy>  (195) 
-2.348

>  <melting_point>  (195) 
136.32

>  <molecular_refractivity>  (195) 
58.83

>  <oscillator_strength_1>  (195) 
0.0006

>  <oscillator_strength_2>  (195) 
0.5897

>  <oscillator_strength_3>  (195) 
0.0033

>  <oscillator_strength_4>  (195) 
0.0658

>  <open_babel_can_smiles>  (195) 
O/C(=C/C=C/C(=O)C(=O)O)/c1ccccc1

>  <mulliken_charges>  (195) 
26
1   -0.118508
2   -0.134143
3   -0.135785
4   -0.081137
5   -0.146665
6   -0.16985
7   -0.23019
8   -0.209945
9   0.100439
10   0.300747
11   0.358815
12   0.522983
13   -0.601566
14   -0.468408
15   -0.45983
16   -0.543646
17   0.140555
18   0.139921
19   0.144589
20   0.176926
21   0.151744
22   0.158228
23   0.121376
24   0.156752
25   0.416072
26   0.410525

>  <lowdin_charges>  (195) 
26
1   -0.139404
2   -0.153284
3   -0.151851
4   -0.084195
5   -0.140815
6   -0.148213
7   -0.237553
8   -0.229311
9   -0.019392
10   0.130156
11   0.111873
12   0.164452
13   -0.347147
14   -0.233706
15   -0.257942
16   -0.324343
17   0.161224
18   0.164015
19   0.165911
20   0.177615
21   0.170629
22   0.17241
23   0.153806
24   0.170785
25   0.360254
26   0.364028

$$$$
PCCDB-ID:  581
     RDKit          3D

 19 18  0  0  1  0  0  0  0  0999 V2000
    5.1935   -2.2790   -1.8836 C   0  0  0  0  0  0  0  0  0  0  0  0
    0.8106   -2.3401   -2.5446 C   0  0  0  0  0  0  0  0  0  0  0  0
    4.2932   -3.2670   -2.5911 C   0  0  0  0  0  0  0  0  0  0  0  0
    2.1969   -2.3983   -1.8685 C   0  0  1  0  0  0  0  0  0  0  0  0
    2.1768   -2.7459   -0.3600 C   0  0  0  0  0  0  0  0  0  0  0  0
    3.0242   -3.3522   -2.5942 N   0  0  0  0  0  0  0  0  0  0  0  0
    4.9432   -4.1921   -3.3514 O   0  0  0  0  0  0  0  0  0  0  0  0
    2.8831   -2.1515    0.4250 O   0  0  0  0  0  0  0  0  0  0  0  0
    1.3899   -3.7536    0.0409 O   0  0  0  0  0  0  0  0  0  0  0  0
    0.0015   -3.9840   -2.7701 S   0  0  0  0  0  0  0  0  0  0  0  0
    5.9628   -2.8192   -1.3177 H   0  0  0  0  0  0  0  0  0  0  0  0
    4.6485   -1.6577   -1.1736 H   0  0  0  0  0  0  0  0  0  0  0  0
    5.7040   -1.6427   -2.6181 H   0  0  0  0  0  0  0  0  0  0  0  0
    0.9188   -1.8745   -3.5275 H   0  0  0  0  0  0  0  0  0  0  0  0
    0.1160   -1.7339   -1.9555 H   0  0  0  0  0  0  0  0  0  0  0  0
    2.5977   -1.3770   -1.9073 H   0  0  0  0  0  0  0  0  0  0  0  0
    5.9004   -4.0732   -3.2521 H   0  0  0  0  0  0  0  0  0  0  0  0
    0.8759   -4.1164   -0.7193 H   0  0  0  0  0  0  0  0  0  0  0  0
    1.1025   -4.5537   -3.3111 H   0  0  0  0  0  0  0  0  0  0  0  0
  1 11  1  0
  1 12  1  0
  2 15  1  0
  2  4  1  0
  3  1  1  0
  4 16  1  1
  4  5  1  0
  5  9  1  0
  5  8  2  0
  6  3  2  0
  6  4  1  0
  7 17  1  0
  7  3  1  0
 10  2  1  0
 13  1  1  0
 14  2  1  0
 18  9  1  0
 19 10  1  0
M  END
>  <HBA>  (196) 
5

>  <HBD>  (196) 
3

>  <TPSA>  (196) 
105.2

>  <cid>  (196) 
581

>  <dipole>  (196) 
4.33

>  <excitation_energy_1>  (196) 
5.324

>  <excitation_energy_2>  (196) 
5.672

>  <excitation_energy_3>  (196) 
5.707

>  <excitation_energy_4>  (196) 
5.833

>  <homo_energy>  (196) 
-6.806

>  <homo_lumo_gap>  (196) 
6.547

>  <logP>  (196) 
-0.104

>  <lumo_energy>  (196) 
-0.259

>  <melting_point>  (196) 
120.09

>  <molecular_refractivity>  (196) 
38.85

>  <oscillator_strength_1>  (196) 
0.0284

>  <oscillator_strength_2>  (196) 
0.0019

>  <oscillator_strength_3>  (196) 
0.0059

>  <oscillator_strength_4>  (196) 
0.0107

>  <open_babel_can_smiles>  (196) 
SC[C@@H](C(=O)O)/N=C(/O)\C

>  <mulliken_charges>  (196) 
19
1   -0.571566
2   -0.427522
3   0.509014
4   -0.097179
5   0.608834
6   -0.436257
7   -0.56945
8   -0.460025
9   -0.569219
10   -0.127479
11   0.178724
12   0.222292
13   0.177224
14   0.196174
15   0.191528
16   0.162655
17   0.412687
18   0.433449
19   0.166118

>  <lowdin_charges>  (196) 
19
1   -0.49213
2   -0.38097
3   0.147414
4   -0.101688
5   0.185394
6   -0.224225
7   -0.353187
8   -0.261409
9   -0.34828
10   -0.07504
11   0.175394
12   0.194436
13   0.172986
14   0.172591
15   0.176188
16   0.157549
17   0.357798
18   0.346466
19   0.150713

$$$$
PCCDB-ID:  587
     RDKit          3D

 23 22  0  0  0  0  0  0  0  0999 V2000
    1.2472   -0.3015    1.6845 C   0  0  0  0  0  0  0  0  0  0  0  0
    3.6566   -0.5835    1.2138 C   0  0  0  0  0  0  0  0  0  0  0  0
    3.8075   -2.1179    1.1187 C   0  0  0  0  0  0  0  0  0  0  0  0
    2.1781    0.1013   -0.5985 C   0  0  0  0  0  0  0  0  0  0  0  0
    3.0045   -0.4026   -1.4475 N   0  0  0  0  0  0  0  0  0  0  0  0
    1.0639    0.9020   -0.9238 N   0  0  0  0  0  0  0  0  0  0  0  0
    2.3575   -0.0830    0.7552 N   0  0  0  0  0  0  0  0  0  0  0  0
    3.9326   -2.8092    2.1064 O   0  0  0  0  0  0  0  0  0  0  0  0
    3.7826   -2.6181   -0.1185 O   0  0  0  0  0  0  0  0  0  0  0  0
   -1.0291    0.0437   -2.3773 O   0  0  0  0  0  0  0  0  0  0  0  0
   -0.3593    2.4383   -2.2188 O   0  0  0  0  0  0  0  0  0  0  0  0
    1.1720    0.6916   -3.5755 O   0  0  0  0  0  0  0  0  0  0  0  0
    0.2993    0.9806   -2.4162 P   0  0  0  0  0  0  0  0  0  0  0  0
    1.2647   -1.3315    2.0616 H   0  0  0  0  0  0  0  0  0  0  0  0
    0.2908   -0.1424    1.1848 H   0  0  0  0  0  0  0  0  0  0  0  0
    1.3215    0.3778    2.5426 H   0  0  0  0  0  0  0  0  0  0  0  0
    4.4364   -0.0982    0.6195 H   0  0  0  0  0  0  0  0  0  0  0  0
    3.7761   -0.3079    2.2638 H   0  0  0  0  0  0  0  0  0  0  0  0
    2.8539   -0.0606   -2.3960 H   0  0  0  0  0  0  0  0  0  0  0  0
    0.7143    1.5200   -0.2015 H   0  0  0  0  0  0  0  0  0  0  0  0
    3.6259   -1.8741   -0.7779 H   0  0  0  0  0  0  0  0  0  0  0  0
   -0.9059   -0.7214   -2.9650 H   0  0  0  0  0  0  0  0  0  0  0  0
   -1.1458    2.5575   -2.7768 H   0  0  0  0  0  0  0  0  0  0  0  0
  1 14  1  0
  1 16  1  0
  2 18  1  0
  3  2  1  0
  3  8  2  0
  4  7  1  0
  5  4  2  0
  6  4  1  0
  6 20  1  0
  7  2  1  0
  7  1  1  0
  9  3  1  0
 12 13  2  0
 13 10  1  0
 13 11  1  0
 13  6  1  0
 15  1  1  0
 17  2  1  0
 19  5  1  0
 21  9  1  0
 22 10  1  0
 23 11  1  0
M  END
>  <HBA>  (197) 
8

>  <HBD>  (197) 
4

>  <TPSA>  (197) 
146.26

>  <cid>  (197) 
587

>  <dipole>  (197) 
7.73

>  <excitation_energy_1>  (197) 
5.088

>  <excitation_energy_2>  (197) 
5.353

>  <excitation_energy_3>  (197) 
5.751

>  <excitation_energy_4>  (197) 
5.848

>  <homo_energy>  (197) 
-6.397

>  <homo_lumo_gap>  (197) 
6.637

>  <logP>  (197) 
-0.889

>  <lumo_energy>  (197) 
0.239

>  <melting_point>  (197) 
213.0

>  <molecular_refractivity>  (197) 
43.39

>  <oscillator_strength_1>  (197) 
0.008

>  <oscillator_strength_2>  (197) 
0.0007

>  <oscillator_strength_3>  (197) 
0.0359

>  <oscillator_strength_4>  (197) 
0.0062

>  <open_babel_can_smiles>  (197) 
OC(=O)CN(C(=N)NP(=O)(O)O)C

>  <mulliken_charges>  (197) 
23
1   -0.337918
2   -0.251773
3   0.579986
4   0.695486
5   -0.739494
6   -0.719501
7   -0.43023
8   -0.461987
9   -0.586676
10   -0.64089
11   -0.639726
12   -0.542163
13   1.115832
14   0.194267
15   0.169002
16   0.168492
17   0.193303
18   0.174785
19   0.343728
20   0.367583
21   0.450552
22   0.448891
23   0.448451

>  <lowdin_charges>  (197) 
23
1   -0.356947
2   -0.234295
3   0.173369
4   0.152043
5   -0.47184
6   -0.468709
7   -0.117529
8   -0.267271
9   -0.370499
10   -0.574624
11   -0.558171
12   -0.580406
13   1.098494
14   0.168109
15   0.163696
16   0.156249
17   0.179846
18   0.167852
19   0.285821
20   0.314284
21   0.358799
22   0.391738
23   0.389991

$$$$
PCCDB-ID:  594
     RDKit          3D

 14 13  0  0  1  0  0  0  0  0999 V2000
    0.7508   -0.9918    0.0477 C   0  0  0  0  0  0  0  0  0  0  0  0
    0.6203   -0.2109   -1.2717 C   0  0  1  0  0  0  0  0  0  0  0  0
    1.0567   -0.9746   -2.5387 C   0  0  0  0  0  0  0  0  0  0  0  0
   -0.7338    0.3530   -1.3979 N   0  0  0  0  0  0  0  0  0  0  0  0
    1.7976   -0.4875   -3.3589 O   0  0  0  0  0  0  0  0  0  0  0  0
    0.4969   -2.1898   -2.7462 O   0  0  0  0  0  0  0  0  0  0  0  0
   -0.4729   -2.3560    0.2931 S   0  0  0  0  0  0  0  0  0  0  0  0
    0.6471   -0.2960    0.8829 H   0  0  0  0  0  0  0  0  0  0  0  0
    1.7319   -1.4714    0.1196 H   0  0  0  0  0  0  0  0  0  0  0  0
    1.3166    0.6302   -1.2022 H   0  0  0  0  0  0  0  0  0  0  0  0
   -1.3697   -0.3476   -1.7776 H   0  0  0  0  0  0  0  0  0  0  0  0
   -0.7190    1.1117   -2.0774 H   0  0  0  0  0  0  0  0  0  0  0  0
   -0.0137   -2.4760   -1.9567 H   0  0  0  0  0  0  0  0  0  0  0  0
   -1.5587   -1.5566    0.3687 H   0  0  0  0  0  0  0  0  0  0  0  0
  1  9  1  0
  1  7  1  0
  1  8  1  0
  2 10  1  1
  2  1  1  0
  3  2  1  0
  4  2  1  0
  5  3  2  0
  6  3  1  0
  6 13  1  0
  7 14  1  0
 11  4  1  0
 12  4  1  0
M  END
>  <HBA>  (198) 
4

>  <HBD>  (198) 
3

>  <TPSA>  (198) 
102.12

>  <cid>  (198) 
594

>  <dipole>  (198) 
3.48

>  <excitation_energy_1>  (198) 
5.277

>  <excitation_energy_2>  (198) 
5.62

>  <excitation_energy_3>  (198) 
5.888

>  <excitation_energy_4>  (198) 
6.086

>  <homo_energy>  (198) 
-6.776

>  <homo_lumo_gap>  (198) 
6.792

>  <logP>  (198) 
0.028

>  <lumo_energy>  (198) 
0.016

>  <melting_point>  (198) 
127.1

>  <molecular_refractivity>  (198) 
28.94

>  <oscillator_strength_1>  (198) 
0.01

>  <oscillator_strength_2>  (198) 
0.0004

>  <oscillator_strength_3>  (198) 
0.0052

>  <oscillator_strength_4>  (198) 
0.0412

>  <open_babel_can_smiles>  (198) 
N[C@H](C(=O)O)CS

>  <mulliken_charges>  (198) 
14
1   -0.424327
2   -0.080823
3   0.576237
4   -0.711387
5   -0.446284
6   -0.578491
7   -0.110576
8   0.206041
9   0.198813
10   0.182168
11   0.303332
12   0.324719
13   0.425244
14   0.135334

>  <lowdin_charges>  (198) 
14
1   -0.37819
2   -0.110279
3   0.169683
4   -0.541487
5   -0.246332
6   -0.368113
7   -0.065933
8   0.180434
9   0.178119
10   0.17446
11   0.259122
12   0.273278
13   0.342628
14   0.132611

$$$$
PCCDB-ID:  597
     RDKit          3D

 13 13  0  0  0  0  0  0  0  0999 V2000
   -1.3848   -0.0095   -0.0168 C   0  0  0  0  0  0  0  0  0  0  0  0
   -0.6919    1.1598    0.0138 C   0  0  0  0  0  0  0  0  0  0  0  0
   -0.6770   -1.2787   -0.0619 C   0  0  0  0  0  0  0  0  0  0  0  0
    1.3126    0.1222   -0.0340 C   0  0  0  0  0  0  0  0  0  0  0  0
   -1.0981   -2.4909   -0.0982 N   0  0  0  0  0  0  0  0  0  0  0  0
    0.6839    1.2608    0.0055 N   0  0  0  0  0  0  0  0  0  0  0  0
    0.7261   -1.0944   -0.0666 N   0  0  0  0  0  0  0  0  0  0  0  0
    2.6546    0.0801   -0.0461 O   0  0  0  0  0  0  0  0  0  0  0  0
   -2.4690   -0.0204   -0.0079 H   0  0  0  0  0  0  0  0  0  0  0  0
   -1.2160    2.1118    0.0474 H   0  0  0  0  0  0  0  0  0  0  0  0
   -2.1190   -2.5050   -0.0898 H   0  0  0  0  0  0  0  0  0  0  0  0
    1.2941   -1.9339   -0.0979 H   0  0  0  0  0  0  0  0  0  0  0  0
    2.9456    1.0097   -0.0202 H   0  0  0  0  0  0  0  0  0  0  0  0
  1  9  1  0
  1  2  2  0
  2 10  1  0
  3  1  1  0
  4  6  2  0
  5 11  1  0
  5  3  2  0
  6  2  1  0
  7  3  1  0
  7  4  1  0
  8  4  1  0
  8 13  1  0
 12  7  1  0
M  END
>  <HBA>  (199) 
3

>  <HBD>  (199) 
2

>  <TPSA>  (199) 
71.77

>  <cid>  (199) 
597

>  <dipole>  (199) 
1.75

>  <excitation_energy_1>  (199) 
4.374

>  <excitation_energy_2>  (199) 
5.129

>  <excitation_energy_3>  (199) 
5.331

>  <excitation_energy_4>  (199) 
5.647

>  <homo_energy>  (199) 
-5.804

>  <homo_lumo_gap>  (199) 
5.042

>  <logP>  (199) 
-0.067

>  <lumo_energy>  (199) 
-0.762

>  <melting_point>  (199) 
150.69

>  <molecular_refractivity>  (199) 
29.26

>  <oscillator_strength_1>  (199) 
0.0857

>  <oscillator_strength_2>  (199) 
0.0

>  <oscillator_strength_3>  (199) 
0.0025

>  <oscillator_strength_4>  (199) 
0.0004

>  <open_babel_can_smiles>  (199) 
Oc1nccc(=N)[nH]1

>  <mulliken_charges>  (199) 
13
1   -0.193546
2   0.033505
3   0.491911
4   0.733018
5   -0.667927
6   -0.518541
7   -0.642382
8   -0.59768
9   0.138694
10   0.151421
11   0.283755
12   0.356247
13   0.431524

>  <lowdin_charges>  (199) 
13
1   -0.24203
2   -0.064872
3   0.096802
4   0.186752
5   -0.449159
6   -0.255076
7   -0.200596
8   -0.34383
9   0.168082
10   0.164162
11   0.253958
12   0.310388
13   0.37542

$$$$
PCCDB-ID:  599
     RDKit          3D

 17 16  0  0  1  0  0  0  0  0999 V2000
    1.2423    0.1104    1.1704 C   0  0  0  0  0  0  0  0  0  0  0  0
    0.6784    1.5242    1.0964 C   0  0  1  0  0  0  0  0  0  0  0  0
    2.7515    0.0847    1.3124 C   0  0  0  0  0  0  0  0  0  0  0  0
   -0.6990    1.5456    0.4028 C   0  0  0  0  0  0  0  0  0  0  0  0
    3.3235   -1.2281    1.8930 C   0  0  0  0  0  0  0  0  0  0  0  0
    0.6150    2.1838    2.3681 O   0  0  0  0  0  0  0  0  0  0  0  0
    3.4837    0.9929    0.9935 O   0  0  0  0  0  0  0  0  0  0  0  0
   -0.9746    0.8474   -0.5429 O   0  0  0  0  0  0  0  0  0  0  0  0
   -1.5497    2.4445    0.9253 O   0  0  0  0  0  0  0  0  0  0  0  0
    4.6569   -1.2901    1.7847 O   0  0  0  0  0  0  0  0  0  0  0  0
    2.6282   -2.0862    2.3917 O   0  0  0  0  0  0  0  0  0  0  0  0
    0.9821   -0.4144    0.2399 H   0  0  0  0  0  0  0  0  0  0  0  0
    0.7796   -0.4775    1.9722 H   0  0  0  0  0  0  0  0  0  0  0  0
    1.3536    2.1418    0.4933 H   0  0  0  0  0  0  0  0  0  0  0  0
    0.2889    1.5449    3.0242 H   0  0  0  0  0  0  0  0  0  0  0  0
   -1.0788    2.8623    1.6782 H   0  0  0  0  0  0  0  0  0  0  0  0
    4.9306   -2.1421    2.1756 H   0  0  0  0  0  0  0  0  0  0  0  0
  1  3  1  0
  1 13  1  0
  2 14  1  6
  2  1  1  0
  2  6  1  0
  3  5  1  0
  4  9  1  0
  4  2  1  0
  5 11  2  0
  6 15  1  0
  7  3  2  0
  8  4  2  0
  9 16  1  0
 10  5  1  0
 10 17  1  0
 12  1  1  0
M  END
>  <HBA>  (200) 
6

>  <HBD>  (200) 
3

>  <TPSA>  (200) 
111.9

>  <cid>  (200) 
599

>  <dipole>  (200) 
3.79

>  <excitation_energy_1>  (200) 
3.313

>  <excitation_energy_2>  (200) 
4.192

>  <excitation_energy_3>  (200) 
5.033

>  <excitation_energy_4>  (200) 
5.529

>  <homo_energy>  (200) 
-7.393

>  <homo_lumo_gap>  (200) 
4.814

>  <logP>  (200) 
-1.524

>  <lumo_energy>  (200) 
-2.58

>  <melting_point>  (200) 
168.43

>  <molecular_refractivity>  (200) 
31.05

>  <oscillator_strength_1>  (200) 
0.0001

>  <oscillator_strength_2>  (200) 
0.0105

>  <oscillator_strength_3>  (200) 
0.0

>  <oscillator_strength_4>  (200) 
0.0004

>  <open_babel_can_smiles>  (200) 
O[C@H](C(=O)O)CC(=O)C(=O)O

>  <mulliken_charges>  (200) 
17
1   -0.401731
2   0.021737
3   0.410857
4   0.585441
5   0.527774
6   -0.63223
7   -0.402374
8   -0.450516
9   -0.571203
10   -0.532326
11   -0.442289
12   0.231502
13   0.186941
14   0.216107
15   0.403433
16   0.426924
17   0.421952

>  <lowdin_charges>  (200) 
17
1   -0.323278
2   -0.041194
3   0.141236
4   0.166443
5   0.162988
6   -0.450743
7   -0.172334
8   -0.244622
9   -0.342692
10   -0.314567
11   -0.241908
12   0.207145
13   0.178916
14   0.187909
15   0.351799
16   0.363874
17   0.371027

$$$$
PCCDB-ID:  601
     RDKit          3D

 23 22  0  0  1  0  0  0  0  0999 V2000
    2.4256    1.1534   -0.6567 C   0  0  0  0  0  0  0  0  0  0  0  0
    5.4946   -1.3156   -0.8152 C   0  0  0  0  0  0  0  0  0  0  0  0
    1.8580   -0.0981    0.0304 C   0  0  1  0  0  0  0  0  0  0  0  0
    4.2343   -1.9919   -0.2435 C   0  0  1  0  0  0  0  0  0  0  0  0
    2.8244   -0.5996    1.1246 C   0  0  0  0  0  0  0  0  0  0  0  0
    4.5749   -3.4734    0.0416 C   0  0  0  0  0  0  0  0  0  0  0  0
    0.5075    0.1962    0.5008 N   0  0  0  0  0  0  0  0  0  0  0  0
    3.8252   -1.3743    1.0064 N   0  0  0  0  0  0  0  0  0  0  0  0
    2.5719   -0.1187    2.3673 O   0  0  0  0  0  0  0  0  0  0  0  0
    4.7504   -4.2770   -0.8437 O   0  0  0  0  0  0  0  0  0  0  0  0
    4.6971   -3.7750    1.3431 O   0  0  0  0  0  0  0  0  0  0  0  0
    3.3810    0.9404   -1.1415 H   0  0  0  0  0  0  0  0  0  0  0  0
    2.5917    1.9554    0.0732 H   0  0  0  0  0  0  0  0  0  0  0  0
    1.7169    1.5076   -1.4111 H   0  0  0  0  0  0  0  0  0  0  0  0
    5.8421   -1.8712   -1.6905 H   0  0  0  0  0  0  0  0  0  0  0  0
    6.2904   -1.3024   -0.0636 H   0  0  0  0  0  0  0  0  0  0  0  0
    5.2857   -0.2820   -1.1088 H   0  0  0  0  0  0  0  0  0  0  0  0
    1.7693   -0.8942   -0.7158 H   0  0  0  0  0  0  0  0  0  0  0  0
    3.4573   -2.0053   -1.0194 H   0  0  0  0  0  0  0  0  0  0  0  0
    0.3914    1.1076    0.9325 H   0  0  0  0  0  0  0  0  0  0  0  0
    0.0733   -0.5356    1.0536 H   0  0  0  0  0  0  0  0  0  0  0  0
    1.7103    0.3339    2.3271 H   0  0  0  0  0  0  0  0  0  0  0  0
    4.4801   -2.9414    1.8283 H   0  0  0  0  0  0  0  0  0  0  0  0
  1  3  1  0
  1 13  1  0
  2  4  1  0
  2 16  1  0
  3 18  1  6
  3  7  1  0
  3  5  1  0
  4 19  1  6
  4  6  1  0
  4  8  1  0
  5  9  1  0
  6 11  1  0
  7 20  1  0
  7 21  1  0
  8  5  2  0
 10  6  2  0
 11 23  1  0
 12  1  1  0
 14  1  1  0
 15  2  1  0
 17  2  1  0
 22  9  1  0
M  END
>  <HBA>  (201) 
5

>  <HBD>  (201) 
3

>  <TPSA>  (201) 
92.42

>  <cid>  (201) 
601

>  <dipole>  (201) 
7.24

>  <excitation_energy_1>  (201) 
5.45

>  <excitation_energy_2>  (201) 
5.569

>  <excitation_energy_3>  (201) 
5.587

>  <excitation_energy_4>  (201) 
5.767

>  <homo_energy>  (201) 
-6.683

>  <homo_lumo_gap>  (201) 
6.547

>  <logP>  (201) 
0.014

>  <lumo_energy>  (201) 
-0.136

>  <melting_point>  (201) 
153.41

>  <molecular_refractivity>  (201) 
38.44

>  <oscillator_strength_1>  (201) 
0.0109

>  <oscillator_strength_2>  (201) 
0.0097

>  <oscillator_strength_3>  (201) 
0.0055

>  <oscillator_strength_4>  (201) 
0.0038

>  <open_babel_can_smiles>  (201) 
C[C@@H](C(=O)O)/N=C(\[C@@H](N)C)/O

>  <mulliken_charges>  (201) 
23
1   -0.458047
2   -0.446989
3   -0.045213
4   -0.079987
5   0.486588
6   0.600452
7   -0.739411
8   -0.480072
9   -0.57219
10   -0.468584
11   -0.576744
12   0.17729
13   0.151653
14   0.17815
15   0.179452
16   0.1662
17   0.149933
18   0.174722
19   0.151824
20   0.312285
21   0.323486
22   0.38543
23   0.429773

>  <lowdin_charges>  (201) 
23
1   -0.443886
2   -0.439793
3   -0.090307
4   -0.100701
5   0.120089
6   0.183345
7   -0.550531
8   -0.229528
9   -0.356403
10   -0.261808
11   -0.353996
12   0.166356
13   0.154272
14   0.1689
15   0.171315
16   0.162158
17   0.148545
18   0.163933
19   0.149905
20   0.265332
21   0.272853
22   0.340871
23   0.35908

$$$$
PCCDB-ID:  602
     RDKit          3D

 13 12  0  0  1  0  0  0  0  0999 V2000
    1.1174   -0.0080    0.0319 C   0  0  0  0  0  0  0  0  0  0  0  0
    2.6518    0.0906   -0.0485 C   0  0  1  0  0  0  0  0  0  0  0  0
    3.1542   -0.5886   -1.3387 C   0  0  0  0  0  0  0  0  0  0  0  0
    3.0628    1.4831    0.0599 N   0  0  0  0  0  0  0  0  0  0  0  0
    3.6046    0.0143   -2.2808 O   0  0  0  0  0  0  0  0  0  0  0  0
    3.0427   -1.9449   -1.3846 O   0  0  0  0  0  0  0  0  0  0  0  0
    0.7656   -1.0456    0.0117 H   0  0  0  0  0  0  0  0  0  0  0  0
    0.6580    0.5156   -0.8144 H   0  0  0  0  0  0  0  0  0  0  0  0
    0.7732    0.4635    0.9559 H   0  0  0  0  0  0  0  0  0  0  0  0
    3.0821   -0.4522    0.8063 H   0  0  0  0  0  0  0  0  0  0  0  0
    2.7818    1.9625   -0.7964 H   0  0  0  0  0  0  0  0  0  0  0  0
    4.0813    1.5308    0.0564 H   0  0  0  0  0  0  0  0  0  0  0  0
    2.6804   -2.2768   -0.5461 H   0  0  0  0  0  0  0  0  0  0  0  0
  1  9  1  0
  2  1  1  0
  2  4  1  0
  2 10  1  1
  3  2  1  0
  5  3  2  0
  6  3  1  0
  6 13  1  0
  7  1  1  0
  8  1  1  0
 11  4  1  0
 12  4  1  0
M  END
>  <HBA>  (202) 
3

>  <HBD>  (202) 
2

>  <TPSA>  (202) 
63.32

>  <cid>  (202) 
602

>  <dipole>  (202) 
3.04

>  <excitation_energy_1>  (202) 
5.543

>  <excitation_energy_2>  (202) 
5.892

>  <excitation_energy_3>  (202) 
6.046

>  <excitation_energy_4>  (202) 
6.503

>  <homo_energy>  (202) 
-6.833

>  <homo_lumo_gap>  (202) 
6.977

>  <logP>  (202) 
0.118

>  <lumo_energy>  (202) 
0.144

>  <melting_point>  (202) 
106.84

>  <molecular_refractivity>  (202) 
21.01

>  <oscillator_strength_1>  (202) 
0.0028

>  <oscillator_strength_2>  (202) 
0.0014

>  <oscillator_strength_3>  (202) 
0.001

>  <oscillator_strength_4>  (202) 
0.025

>  <open_babel_can_smiles>  (202) 
C[C@@H](C(=O)O)N

>  <mulliken_charges>  (202) 
13
1   -0.440352
2   -0.103739
3   0.580327
4   -0.6854
5   -0.442574
6   -0.563957
7   0.136842
8   0.164595
9   0.180115
10   0.146681
11   0.309451
12   0.30691
13   0.411102

>  <lowdin_charges>  (202) 
13
1   -0.443638
2   -0.11203
3   0.176634
4   -0.527577
5   -0.243217
6   -0.358418
7   0.146144
8   0.161242
9   0.170132
10   0.150078
11   0.262844
12   0.259615
13   0.358191

$$$$
PCCDB-ID:  604
     RDKit          3D

 25 24  0  0  1  0  0  0  0  0999 V2000
    1.1849    0.2940    0.2105 C   0  0  0  0  0  0  0  0  0  0  0  0
    0.5010    1.2364   -0.7821 C   0  0  1  0  0  0  0  0  0  0  0  0
    1.0978    1.1485   -2.1931 C   0  0  1  0  0  0  0  0  0  0  0  0
    0.3551    2.0629   -3.1940 C   0  0  1  0  0  0  0  0  0  0  0  0
    0.9117    1.9576   -4.6319 C   0  0  1  0  0  0  0  0  0  0  0  0
    0.2895    3.0189   -5.5597 C   0  0  0  0  0  0  0  0  0  0  0  0
    0.4286    0.2678    1.4289 O   0  0  0  0  0  0  0  0  0  0  0  0
   -0.8885    0.9043   -0.8295 O   0  0  0  0  0  0  0  0  0  0  0  0
    2.4493    1.5389   -2.0386 O   0  0  0  0  0  0  0  0  0  0  0  0
   -1.0208    1.6975   -3.3355 O   0  0  0  0  0  0  0  0  0  0  0  0
    2.3156    2.1031   -4.6773 O   0  0  0  0  0  0  0  0  0  0  0  0
    1.0100    3.6877   -6.2740 O   0  0  0  0  0  0  0  0  0  0  0  0
   -1.0338    3.1465   -5.5410 O   0  0  0  0  0  0  0  0  0  0  0  0
    2.2274    0.5831    0.3740 H   0  0  0  0  0  0  0  0  0  0  0  0
    1.1584   -0.7303   -0.1741 H   0  0  0  0  0  0  0  0  0  0  0  0
    0.6250    2.2758   -0.4325 H   0  0  0  0  0  0  0  0  0  0  0  0
    1.0052    0.1080   -2.5513 H   0  0  0  0  0  0  0  0  0  0  0  0
    0.4538    3.1013   -2.8382 H   0  0  0  0  0  0  0  0  0  0  0  0
    0.6231    0.9649   -5.0122 H   0  0  0  0  0  0  0  0  0  0  0  0
    0.6552    1.0624    1.9380 H   0  0  0  0  0  0  0  0  0  0  0  0
   -1.1312    0.6643    0.0848 H   0  0  0  0  0  0  0  0  0  0  0  0
    2.7993    1.7235   -2.9324 H   0  0  0  0  0  0  0  0  0  0  0  0
   -1.3818    1.5022   -2.4448 H   0  0  0  0  0  0  0  0  0  0  0  0
    2.4770    2.8087   -5.3412 H   0  0  0  0  0  0  0  0  0  0  0  0
   -1.3933    2.5936   -4.8020 H   0  0  0  0  0  0  0  0  0  0  0  0
  1 14  1  0
  1  7  1  0
  2 16  1  1
  2  1  1  0
  3 17  1  6
  3  9  1  0
  3  2  1  0
  4 18  1  1
  4  3  1  0
  5 19  1  6
  5  4  1  0
  6 13  1  0
  6  5  1  0
  7 20  1  0
  8  2  1  0
  8 21  1  0
 10  4  1  0
 10 23  1  0
 11  5  1  0
 12  6  2  0
 13 25  1  0
 15  1  1  0
 22  9  1  0
 24 11  1  0
M  END
>  <HBA>  (203) 
7

>  <HBD>  (203) 
6

>  <TPSA>  (203) 
138.45

>  <cid>  (203) 
604

>  <dipole>  (203) 
4.31

>  <excitation_energy_1>  (203) 
5.942

>  <excitation_energy_2>  (203) 
6.462

>  <excitation_energy_3>  (203) 
6.589

>  <excitation_energy_4>  (203) 
6.679

>  <homo_energy>  (203) 
-7.41

>  <homo_lumo_gap>  (203) 
7.404

>  <logP>  (203) 
-3.493

>  <lumo_energy>  (203) 
-0.005

>  <melting_point>  (203) 
143.69

>  <molecular_refractivity>  (203) 
38.54

>  <oscillator_strength_1>  (203) 
0.0019

>  <oscillator_strength_2>  (203) 
0.0035

>  <oscillator_strength_3>  (203) 
0.0131

>  <oscillator_strength_4>  (203) 
0.0093

>  <open_babel_can_smiles>  (203) 
OC[C@@H]([C@@H]([C@@H]([C@@H](C(=O)O)O)O)O)O

>  <mulliken_charges>  (203) 
25
1   -0.07067
2   0.12086
3   0.123893
4   0.087772
5   0.05023
6   0.589649
7   -0.624441
8   -0.677582
9   -0.669277
10   -0.69435
11   -0.668497
12   -0.476232
13   -0.575544
14   0.170973
15   0.16291
16   0.123038
17   0.125254
18   0.137618
19   0.1718
20   0.40139
21   0.421385
22   0.437896
23   0.451589
24   0.427426
25   0.45291

>  <lowdin_charges>  (203) 
25
1   -0.148378
2   -0.023887
3   -0.017921
4   -0.026374
5   -0.05229
6   0.183785
7   -0.464703
8   -0.472179
9   -0.473293
10   -0.47908
11   -0.456872
12   -0.260848
13   -0.337466
14   0.157121
15   0.15611
16   0.128956
17   0.131976
18   0.137706
19   0.1598
20   0.350448
21   0.354788
22   0.354708
23   0.364369
24   0.361737
25   0.371788

$$$$
PCCDB-ID:  606
     RDKit          3D

 26 26  0  0  1  0  0  0  0  0999 V2000
   -4.3560   -2.9498    1.6348 C   0  0  0  0  0  0  0  0  0  0  0  0
   -0.8196   -3.8785    0.5100 C   0  0  0  0  0  0  0  0  0  0  0  0
   -5.2164   -3.8552   -0.1028 C   0  0  0  0  0  0  0  0  0  0  0  0
   -3.5420   -2.5851    0.5862 C   0  0  0  0  0  0  0  0  0  0  0  0
   -1.0470   -2.4836    1.0808 C   0  0  2  0  0  0  0  0  0  0  0  0
   -2.2802   -1.7829    0.4703 C   0  0  1  0  0  0  0  0  0  0  0  0
   -5.3939   -3.7433    1.1967 N   0  0  0  0  0  0  0  0  0  0  0  0
   -4.1044   -3.1831   -0.5217 N   0  0  0  0  0  0  0  0  0  0  0  0
    0.0515   -1.6338    0.7669 O   0  0  0  0  0  0  0  0  0  0  0  0
   -2.0485   -1.5354   -0.9137 O   0  0  0  0  0  0  0  0  0  0  0  0
   -0.0866   -6.8202    0.8908 O   0  0  0  0  0  0  0  0  0  0  0  0
    1.1210   -5.6375   -0.9607 O   0  0  0  0  0  0  0  0  0  0  0  0
    2.3569   -6.0333    1.3542 O   0  0  0  0  0  0  0  0  0  0  0  0
    0.4694   -4.3102    1.0235 O   0  0  0  0  0  0  0  0  0  0  0  0
    1.0976   -5.7359    0.6495 P   0  0  0  0  0  0  0  0  0  0  0  0
   -4.2570   -2.6848    2.6795 H   0  0  0  0  0  0  0  0  0  0  0  0
   -0.7755   -3.8457   -0.5817 H   0  0  0  0  0  0  0  0  0  0  0  0
   -1.5951   -4.5757    0.8350 H   0  0  0  0  0  0  0  0  0  0  0  0
   -5.8542   -4.4021   -0.7843 H   0  0  0  0  0  0  0  0  0  0  0  0
   -1.1814   -2.5612    2.1702 H   0  0  0  0  0  0  0  0  0  0  0  0
   -2.3924   -0.8304    1.0107 H   0  0  0  0  0  0  0  0  0  0  0  0
   -3.7632   -3.0471   -1.4632 H   0  0  0  0  0  0  0  0  0  0  0  0
    0.8621   -2.1444    0.9337 H   0  0  0  0  0  0  0  0  0  0  0  0
   -1.1361   -1.1966   -0.9590 H   0  0  0  0  0  0  0  0  0  0  0  0
    0.0676   -7.2866    1.7295 H   0  0  0  0  0  0  0  0  0  0  0  0
    1.5443   -6.4132   -1.3639 H   0  0  0  0  0  0  0  0  0  0  0  0
  1 16  1  0
  2 18  1  0
  2 14  1  0
  2  5  1  0
  3  7  2  0
  4  1  2  0
  5 20  1  1
  6  4  1  0
  6 21  1  1
  6  5  1  0
  7  1  1  0
  8  3  1  0
  8  4  1  0
  9 23  1  0
  9  5  1  0
 10  6  1  0
 11 25  1  0
 12 15  1  0
 15 11  1  0
 15 14  1  0
 15 13  2  0
 17  2  1  0
 19  3  1  0
 22  8  1  0
 24 10  1  0
 26 12  1  0
M  END
>  <HBA>  (204) 
7

>  <HBD>  (204) 
5

>  <TPSA>  (204) 
145.71

>  <cid>  (204) 
606

>  <dipole>  (204) 
2.98

>  <excitation_energy_1>  (204) 
5.028

>  <excitation_energy_2>  (204) 
5.563

>  <excitation_energy_3>  (204) 
5.803

>  <excitation_energy_4>  (204) 
5.903

>  <homo_energy>  (204) 
-6.076

>  <homo_lumo_gap>  (204) 
6.531

>  <logP>  (204) 
-1.087

>  <lumo_energy>  (204) 
0.454

>  <melting_point>  (204) 
185.57

>  <molecular_refractivity>  (204) 
47.56

>  <oscillator_strength_1>  (204) 
0.0006

>  <oscillator_strength_2>  (204) 
0.0004

>  <oscillator_strength_3>  (204) 
0.0203

>  <oscillator_strength_4>  (204) 
0.0111

>  <open_babel_can_smiles>  (204) 
O[C@@H]([C@H](c1[nH]cnc1)O)COP(=O)(O)O

>  <mulliken_charges>  (204) 
26
1   -0.087605
2   -0.066453
3   0.206193
4   0.296783
5   0.109197
6   0.054994
7   -0.426744
8   -0.591022
9   -0.654012
10   -0.660333
11   -0.656692
12   -0.648012
13   -0.52529
14   -0.538133
15   1.154435
16   0.132736
17   0.175144
18   0.185482
19   0.155704
20   0.140565
21   0.158314
22   0.3515
23   0.424435
24   0.41925
25   0.444205
26   0.445361

>  <lowdin_charges>  (204) 
26
1   -0.174761
2   -0.140452
3   -0.099586
4   -0.026866
5   -0.024496
6   -0.001037
7   -0.184545
8   -0.169718
9   -0.464409
10   -0.468432
11   -0.572412
12   -0.566136
13   -0.57154
14   -0.396903
15   1.113887
16   0.159134
17   0.15972
18   0.171129
19   0.169051
20   0.142173
21   0.153603
22   0.301712
23   0.359606
24   0.353548
25   0.388268
26   0.38946

$$$$
PCCDB-ID:  607
     RDKit          3D

 24 23  0  0  1  0  0  0  0  0999 V2000
    0.9197    0.5320    0.0719 C   0  0  1  0  0  0  0  0  0  0  0  0
   -0.1985   -0.1470    0.9008 C   0  0  1  0  0  0  0  0  0  0  0  0
    0.9449    2.0735   -0.0329 C   0  0  1  0  0  0  0  0  0  0  0  0
   -1.5743   -0.2837    0.2091 C   0  0  1  0  0  0  0  0  0  0  0  0
    0.6986    2.7855    1.3129 C   0  0  0  0  0  0  0  0  0  0  0  0
   -2.1653    0.9546   -0.4902 C   0  0  0  0  0  0  0  0  0  0  0  0
    2.1704    0.2118    0.6738 O   0  0  0  0  0  0  0  0  0  0  0  0
    0.2572   -1.4693    1.1992 O   0  0  0  0  0  0  0  0  0  0  0  0
    2.2130    2.4777   -0.5494 O   0  0  0  0  0  0  0  0  0  0  0  0
   -1.4604   -1.3157   -0.7510 O   0  0  0  0  0  0  0  0  0  0  0  0
   -0.3350    2.6624    1.9551 O   0  0  0  0  0  0  0  0  0  0  0  0
    1.6835    3.5727    1.7091 O   0  0  0  0  0  0  0  0  0  0  0  0
   -2.5804    0.8397   -1.6274 O   0  0  0  0  0  0  0  0  0  0  0  0
   -2.2745    2.0947    0.1825 O   0  0  0  0  0  0  0  0  0  0  0  0
    0.8818    0.1347   -0.9547 H   0  0  0  0  0  0  0  0  0  0  0  0
   -0.3008    0.3591    1.8609 H   0  0  0  0  0  0  0  0  0  0  0  0
    0.1756    2.4269   -0.7265 H   0  0  0  0  0  0  0  0  0  0  0  0
   -2.2936   -0.5792    0.9899 H   0  0  0  0  0  0  0  0  0  0  0  0
    2.0651   -0.7021    1.0053 H   0  0  0  0  0  0  0  0  0  0  0  0
   -0.0018   -2.0126    0.4289 H   0  0  0  0  0  0  0  0  0  0  0  0
    2.8276    1.7505   -0.3244 H   0  0  0  0  0  0  0  0  0  0  0  0
   -1.8986   -0.9668   -1.5561 H   0  0  0  0  0  0  0  0  0  0  0  0
    2.3589    3.5194    0.9904 H   0  0  0  0  0  0  0  0  0  0  0  0
   -1.7047    2.1418    0.9954 H   0  0  0  0  0  0  0  0  0  0  0  0
  1 15  1  6
  1  7  1  0
  1  2  1  0
  2  8  1  0
  2 16  1  1
  3 17  1  6
  3  1  1  0
  3  5  1  0
  4  2  1  0
  4 18  1  1
  5 12  1  0
  5 11  2  0
  6 14  1  0
  6  4  1  0
  7 19  1  0
  9 21  1  0
  9  3  1  0
 10  4  1  0
 13  6  2  0
 14 24  1  0
 20  8  1  0
 22 10  1  0
 23 12  1  0
M  END
>  <HBA>  (205) 
8

>  <HBD>  (205) 
6

>  <TPSA>  (205) 
155.52

>  <cid>  (205) 
607

>  <dipole>  (205) 
3.02

>  <excitation_energy_1>  (205) 
5.658

>  <excitation_energy_2>  (205) 
5.8

>  <excitation_energy_3>  (205) 
6.259

>  <excitation_energy_4>  (205) 
6.364

>  <homo_energy>  (205) 
-7.783

>  <homo_lumo_gap>  (205) 
7.067

>  <logP>  (205) 
-3.401

>  <lumo_energy>  (205) 
-0.716

>  <melting_point>  (205) 
202.23

>  <molecular_refractivity>  (205) 
39.15

>  <oscillator_strength_1>  (205) 
0.0005

>  <oscillator_strength_2>  (205) 
0.001

>  <oscillator_strength_3>  (205) 
0.0036

>  <oscillator_strength_4>  (205) 
0.0107

>  <open_babel_can_smiles>  (205) 
O[C@H]([C@@H](C(=O)O)O)[C@@H]([C@@H](C(=O)O)O)O

>  <mulliken_charges>  (205) 
24
1   0.092032
2   0.087199
3   0.012155
4   0.021081
5   0.6324
6   0.579568
7   -0.677458
8   -0.651611
9   -0.662301
10   -0.665567
11   -0.501986
12   -0.544214
13   -0.468773
14   -0.591277
15   0.152088
16   0.177701
17   0.204714
18   0.180717
19   0.429538
20   0.42891
21   0.439074
22   0.428029
23   0.438954
24   0.459026

>  <lowdin_charges>  (205) 
24
1   -0.030249
2   -0.041204
3   -0.059417
4   -0.056834
5   0.19652
6   0.169779
7   -0.475303
8   -0.452618
9   -0.451314
10   -0.467731
11   -0.280309
12   -0.303621
13   -0.255153
14   -0.339905
15   0.144277
16   0.168107
17   0.183512
18   0.16756
19   0.35902
20   0.357847
21   0.363697
22   0.361734
23   0.371963
24   0.369642

$$$$
PCCDB-ID:  610
     RDKit          3D

 23 23  0  0  1  0  0  0  0  0999 V2000
    0.7202    1.3537   -0.2108 C   0  0  2  0  0  0  0  0  0  0  0  0
    1.5408    0.1588    0.2849 C   0  0  2  0  0  0  0  0  0  0  0  0
   -0.7764    1.1155    0.0137 C   0  0  2  0  0  0  0  0  0  0  0  0
    0.9638   -1.1480   -0.2864 C   0  0  1  0  0  0  0  0  0  0  0  0
    1.6046   -2.3724    0.3722 C   0  0  0  0  0  0  0  0  0  0  0  0
   -1.2168   -0.2074   -0.6216 C   0  0  2  0  0  0  0  0  0  0  0  0
    0.9810    1.4993   -1.6010 O   0  0  0  0  0  0  0  0  0  0  0  0
    1.5055    0.1774    1.7013 O   0  0  0  0  0  0  0  0  0  0  0  0
   -1.4657    2.1997   -0.5966 O   0  0  0  0  0  0  0  0  0  0  0  0
    2.7442   -2.3691    0.7807 O   0  0  0  0  0  0  0  0  0  0  0  0
    0.8135   -3.4515    0.4495 O   0  0  0  0  0  0  0  0  0  0  0  0
   -2.5703   -0.4675   -0.3943 O   0  0  0  0  0  0  0  0  0  0  0  0
   -0.4497   -1.2773   -0.0744 O   0  0  0  0  0  0  0  0  0  0  0  0
    1.0326    2.2473    0.3475 H   0  0  0  0  0  0  0  0  0  0  0  0
    2.5652    0.2654   -0.0946 H   0  0  0  0  0  0  0  0  0  0  0  0
   -0.9749    1.0633    1.0958 H   0  0  0  0  0  0  0  0  0  0  0  0
    1.1779   -1.1813   -1.3666 H   0  0  0  0  0  0  0  0  0  0  0  0
   -1.0932   -0.1652   -1.7103 H   0  0  0  0  0  0  0  0  0  0  0  0
    0.3083    2.1225   -1.9271 H   0  0  0  0  0  0  0  0  0  0  0  0
    2.1623   -0.4749    1.9989 H   0  0  0  0  0  0  0  0  0  0  0  0
   -2.3985    1.9363   -0.6724 H   0  0  0  0  0  0  0  0  0  0  0  0
   -0.0790   -3.1797    0.1523 H   0  0  0  0  0  0  0  0  0  0  0  0
   -2.6882   -0.5681    0.5670 H   0  0  0  0  0  0  0  0  0  0  0  0
  1  3  1  0
  1  2  1  0
  1 14  1  1
  2 15  1  1
  2  8  1  0
  3 16  1  1
  4 17  1  6
  4 13  1  0
  4  2  1  0
  4  5  1  0
  5 11  1  0
  5 10  2  0
  6 18  1  6
  6 12  1  0
  6 13  1  0
  6  3  1  0
  7  1  1  0
  8 20  1  0
  9  3  1  0
 12 23  1  0
 19  7  1  0
 21  9  1  0
 22 11  1  0
M  END
>  <HBA>  (206) 
7

>  <HBD>  (206) 
5

>  <TPSA>  (206) 
127.45

>  <cid>  (206) 
610

>  <dipole>  (206) 
3.62

>  <excitation_energy_1>  (206) 
5.666

>  <excitation_energy_2>  (206) 
6.167

>  <excitation_energy_3>  (206) 
6.458

>  <excitation_energy_4>  (206) 
6.616

>  <homo_energy>  (206) 
-7.347

>  <homo_lumo_gap>  (206) 
7.159

>  <logP>  (206) 
-3.129

>  <lumo_energy>  (206) 
-0.188

>  <melting_point>  (206) 
138.7

>  <molecular_refractivity>  (206) 
36.35

>  <oscillator_strength_1>  (206) 
0.0005

>  <oscillator_strength_2>  (206) 
0.0101

>  <oscillator_strength_3>  (206) 
0.001

>  <oscillator_strength_4>  (206) 
0.0016

>  <open_babel_can_smiles>  (206) 
O[C@@H]1O[C@H](C(=O)O)[C@@H]([C@H]([C@H]1O)O)O

>  <mulliken_charges>  (206) 
23
1   0.101085
2   0.117211
3   0.088135
4   0.024851
5   0.600253
6   0.326314
7   -0.6487
8   -0.644739
9   -0.648317
10   -0.467763
11   -0.567467
12   -0.610214
13   -0.5445
14   0.154983
15   0.161922
16   0.141534
17   0.184999
18   0.15181
19   0.414346
20   0.418438
21   0.407693
22   0.436527
23   0.401596

>  <lowdin_charges>  (206) 
23
1   -0.014533
2   -0.016231
3   -0.052598
4   -0.050923
5   0.18555
6   0.078994
7   -0.466099
8   -0.4616
9   -0.456653
10   -0.254656
11   -0.329238
12   -0.420452
13   -0.285413
14   0.152027
15   0.157457
16   0.143024
17   0.166373
18   0.143297
19   0.354221
20   0.358008
21   0.351766
22   0.368258
23   0.349424

$$$$
PCCDB-ID:  611
     RDKit          3D

 19 18  0  0  1  0  0  0  0  0999 V2000
    1.1019    0.2674   -0.1687 C   0  0  0  0  0  0  0  0  0  0  0  0
    0.6555    0.6667   -1.5930 C   0  0  0  0  0  0  0  0  0  0  0  0
    2.6357    0.2622    0.0564 C   0  0  1  0  0  0  0  0  0  0  0  0
    1.2444    1.9906   -2.0883 C   0  0  0  0  0  0  0  0  0  0  0  0
    2.9693   -0.4456    1.3793 C   0  0  0  0  0  0  0  0  0  0  0  0
    3.3271   -0.3452   -1.0845 N   0  0  0  0  0  0  0  0  0  0  0  0
    0.6086    3.0172   -2.1455 O   0  0  0  0  0  0  0  0  0  0  0  0
    2.5417    1.9398   -2.4517 O   0  0  0  0  0  0  0  0  0  0  0  0
    3.5473   -1.5023    1.4345 O   0  0  0  0  0  0  0  0  0  0  0  0
    2.5532    0.1747    2.5105 O   0  0  0  0  0  0  0  0  0  0  0  0
    0.7053   -0.7330    0.0472 H   0  0  0  0  0  0  0  0  0  0  0  0
    0.6381    0.9478    0.5555 H   0  0  0  0  0  0  0  0  0  0  0  0
   -0.4320    0.7706   -1.6024 H   0  0  0  0  0  0  0  0  0  0  0  0
    0.9226   -0.1299   -2.2965 H   0  0  0  0  0  0  0  0  0  0  0  0
    2.9837    1.3020    0.1210 H   0  0  0  0  0  0  0  0  0  0  0  0
    3.0440   -1.3226   -1.1662 H   0  0  0  0  0  0  0  0  0  0  0  0
    4.3277   -0.3794   -0.8897 H   0  0  0  0  0  0  0  0  0  0  0  0
    2.9049    1.0355   -2.2514 H   0  0  0  0  0  0  0  0  0  0  0  0
    2.1347    1.0270    2.3016 H   0  0  0  0  0  0  0  0  0  0  0  0
  1 11  1  0
  1  3  1  0
  1 12  1  0
  2  1  1  0
  3 15  1  1
  3  5  1  0
  4  2  1  0
  5  9  2  0
  5 10  1  0
  6 17  1  0
  6  3  1  0
  7  4  2  0
  8 18  1  0
  8  4  1  0
 13  2  1  0
 14  2  1  0
 16  6  1  0
 19 10  1  0
M  END
>  <HBA>  (207) 
5

>  <HBD>  (207) 
3

>  <TPSA>  (207) 
100.62

>  <cid>  (207) 
611

>  <dipole>  (207) 
2.41

>  <excitation_energy_1>  (207) 
5.455

>  <excitation_energy_2>  (207) 
5.687

>  <excitation_energy_3>  (207) 
6.137

>  <excitation_energy_4>  (207) 
6.185

>  <homo_energy>  (207) 
-7.075

>  <homo_lumo_gap>  (207) 
6.648

>  <logP>  (207) 
-0.037

>  <lumo_energy>  (207) 
-0.427

>  <melting_point>  (207) 
182.67

>  <molecular_refractivity>  (207) 
32.4

>  <oscillator_strength_1>  (207) 
0.0021

>  <oscillator_strength_2>  (207) 
0.0012

>  <oscillator_strength_3>  (207) 
0.0005

>  <oscillator_strength_4>  (207) 
0.0038

>  <open_babel_can_smiles>  (207) 
OC(=O)CC[C@@H](C(=O)O)N

>  <mulliken_charges>  (207) 
19
1   -0.286283
2   -0.363979
3   -0.116637
4   0.578081
5   0.596326
6   -0.745779
7   -0.451929
8   -0.595205
9   -0.439973
10   -0.558032
11   0.168532
12   0.156432
13   0.181638
14   0.164466
15   0.180089
16   0.3309
17   0.337052
18   0.445382
19   0.41892

>  <lowdin_charges>  (207) 
19
1   -0.277103
2   -0.315109
3   -0.121273
4   0.185627
5   0.174537
6   -0.513364
7   -0.255912
8   -0.378971
9   -0.237128
10   -0.341802
11   0.159661
12   0.155955
13   0.174372
14   0.162845
15   0.161986
16   0.27337
17   0.277089
18   0.351633
19   0.363587

$$$$
PCCDB-ID:  612
     RDKit          3D

 12 11  0  0  1  0  0  0  0  0999 V2000
    1.0519   -0.1769    0.0037 C   0  0  0  0  0  0  0  0  0  0  0  0
    2.5594    0.1181   -0.0526 C   0  0  1  0  0  0  0  0  0  0  0  0
    3.0090    0.4887   -1.4717 C   0  0  0  0  0  0  0  0  0  0  0  0
    2.8833    1.1692    0.8215 O   0  0  0  0  0  0  0  0  0  0  0  0
    3.4768    1.5738   -1.7288 O   0  0  0  0  0  0  0  0  0  0  0  0
    2.8576   -0.4460   -2.4335 O   0  0  0  0  0  0  0  0  0  0  0  0
    0.7696   -1.0478   -0.6013 H   0  0  0  0  0  0  0  0  0  0  0  0
    0.4834    0.6916   -0.3430 H   0  0  0  0  0  0  0  0  0  0  0  0
    0.7708   -0.3809    1.0404 H   0  0  0  0  0  0  0  0  0  0  0  0
    3.1140   -0.7899    0.2433 H   0  0  0  0  0  0  0  0  0  0  0  0
    3.2688    1.8699    0.2601 H   0  0  0  0  0  0  0  0  0  0  0  0
    2.4802   -1.2582   -2.0554 H   0  0  0  0  0  0  0  0  0  0  0  0
  1  9  1  0
  2  1  1  0
  2 10  1  1
  2  4  1  0
  3  2  1  0
  5  3  2  0
  6 12  1  0
  6  3  1  0
  7  1  1  0
  8  1  1  0
 11  4  1  0
M  END
>  <HBA>  (208) 
3

>  <HBD>  (208) 
2

>  <TPSA>  (208) 
57.53

>  <cid>  (208) 
612

>  <dipole>  (208) 
3.44

>  <excitation_energy_1>  (208) 
5.89

>  <excitation_energy_2>  (208) 
6.272

>  <excitation_energy_3>  (208) 
6.784

>  <excitation_energy_4>  (208) 
7.011

>  <homo_energy>  (208) 
-7.581

>  <homo_lumo_gap>  (208) 
7.383

>  <logP>  (208) 
-0.548

>  <lumo_energy>  (208) 
-0.199

>  <melting_point>  (208) 
71.21

>  <molecular_refractivity>  (208) 
19.47

>  <oscillator_strength_1>  (208) 
0.0009

>  <oscillator_strength_2>  (208) 
0.0211

>  <oscillator_strength_3>  (208) 
0.0123

>  <oscillator_strength_4>  (208) 
0.0143

>  <open_babel_can_smiles>  (208) 
OC(=O)[C@@H](O)C

>  <mulliken_charges>  (208) 
12
1   -0.453706
2   0.05352
3   0.579281
4   -0.630304
5   -0.451872
6   -0.555559
7   0.125839
8   0.172552
9   0.18221
10   0.144641
11   0.41459
12   0.418807

>  <lowdin_charges>  (208) 
12
1   -0.452922
2   -0.040153
3   0.179352
4   -0.454712
5   -0.240425
6   -0.335614
7   0.14336
8   0.166075
9   0.171054
10   0.144464
11   0.354789
12   0.36473

$$$$
PCCDB-ID:  614
     RDKit          3D

 17 17  0  0  1  0  0  0  0  0999 V2000
   -0.8111   -1.0281    0.0804 C   0  0  0  0  0  0  0  0  0  0  0  0
    0.7221   -1.0744   -0.1838 C   0  0  0  0  0  0  0  0  0  0  0  0
   -1.1191    0.4686    0.3227 C   0  0  0  0  0  0  0  0  0  0  0  0
    1.1735    0.3980    0.0054 C   0  0  1  0  0  0  0  0  0  0  0  0
    2.3858    0.8473   -0.8040 C   0  0  0  0  0  0  0  0  0  0  0  0
   -0.0190    1.1358   -0.3677 N   0  0  0  0  0  0  0  0  0  0  0  0
    2.4591    1.8965   -1.3895 O   0  0  0  0  0  0  0  0  0  0  0  0
    3.4510   -0.0022   -0.7766 O   0  0  0  0  0  0  0  0  0  0  0  0
   -1.1030   -1.6425    0.9370 H   0  0  0  0  0  0  0  0  0  0  0  0
   -1.3556   -1.3985   -0.7922 H   0  0  0  0  0  0  0  0  0  0  0  0
    0.9280   -1.4036   -1.2070 H   0  0  0  0  0  0  0  0  0  0  0  0
    1.2408   -1.7544    0.5018 H   0  0  0  0  0  0  0  0  0  0  0  0
   -1.1402    0.6760    1.4095 H   0  0  0  0  0  0  0  0  0  0  0  0
   -2.0822    0.7794   -0.0951 H   0  0  0  0  0  0  0  0  0  0  0  0
    1.4545    0.5355    1.0737 H   0  0  0  0  0  0  0  0  0  0  0  0
    0.0606    2.1315   -0.1823 H   0  0  0  0  0  0  0  0  0  0  0  0
    3.2216   -0.8063   -0.2814 H   0  0  0  0  0  0  0  0  0  0  0  0
  1  3  1  0
  1  9  1  0
  2  4  1  0
  2  1  1  0
  2 12  1  0
  3 13  1  0
  4 15  1  1
  5  8  1  0
  5  4  1  0
  6 16  1  0
  6  4  1  0
  6  3  1  0
  7  5  2  0
  8 17  1  0
 10  1  1  0
 11  2  1  0
 14  3  1  0
M  END
>  <HBA>  (209) 
3

>  <HBD>  (209) 
2

>  <TPSA>  (209) 
49.33

>  <cid>  (209) 
614

>  <dipole>  (209) 
4.68

>  <excitation_energy_1>  (209) 
5.222

>  <excitation_energy_2>  (209) 
5.611

>  <excitation_energy_3>  (209) 
5.749

>  <excitation_energy_4>  (209) 
5.867

>  <homo_energy>  (209) 
-6.294

>  <homo_lumo_gap>  (209) 
6.604

>  <logP>  (209) 
0.152

>  <lumo_energy>  (209) 
0.31

>  <melting_point>  (209) 
101.02

>  <molecular_refractivity>  (209) 
32.52

>  <oscillator_strength_1>  (209) 
0.0126

>  <oscillator_strength_2>  (209) 
0.0059

>  <oscillator_strength_3>  (209) 
0.0011

>  <oscillator_strength_4>  (209) 
0.006

>  <open_babel_can_smiles>  (209) 
OC(=O)[C@@H]1CCCN1

>  <mulliken_charges>  (209) 
17
1   -0.278283
2   -0.298501
3   -0.121319
4   -0.075444
5   0.604827
6   -0.5511
7   -0.439239
8   -0.57314
9   0.143676
10   0.158817
11   0.166718
12   0.133098
13   0.116066
14   0.149232
15   0.137164
16   0.31439
17   0.413035

>  <lowdin_charges>  (209) 
17
1   -0.283255
2   -0.296056
3   -0.199686
4   -0.105839
5   0.189252
6   -0.346813
7   -0.229789
8   -0.357659
9   0.150484
10   0.157439
11   0.156955
12   0.144196
13   0.11565
14   0.1502
15   0.130231
16   0.265611
17   0.359079

$$$$
PCCDB-ID:  617
     RDKit          3D

 14 13  0  0  1  0  0  0  0  0999 V2000
    0.9232   -0.1109   -0.2620 C   0  0  0  0  0  0  0  0  0  0  0  0
    0.5375    1.1776   -0.9830 C   0  0  1  0  0  0  0  0  0  0  0  0
    0.9924    1.1525   -2.4548 C   0  0  0  0  0  0  0  0  0  0  0  0
   -0.8915    1.5256   -0.9258 N   0  0  0  0  0  0  0  0  0  0  0  0
    0.5119    0.0413    1.0930 O   0  0  0  0  0  0  0  0  0  0  0  0
    1.9877    0.5793   -2.8330 O   0  0  0  0  0  0  0  0  0  0  0  0
    0.1902    1.8536   -3.2698 O   0  0  0  0  0  0  0  0  0  0  0  0
    2.0048   -0.2656   -0.3569 H   0  0  0  0  0  0  0  0  0  0  0  0
    0.4201   -0.9673   -0.7422 H   0  0  0  0  0  0  0  0  0  0  0  0
    1.0823    2.0026   -0.5046 H   0  0  0  0  0  0  0  0  0  0  0  0
   -1.4566    0.6864   -1.0625 H   0  0  0  0  0  0  0  0  0  0  0  0
   -1.1237    1.8705    0.0029 H   0  0  0  0  0  0  0  0  0  0  0  0
    0.7957   -0.7447    1.5829 H   0  0  0  0  0  0  0  0  0  0  0  0
   -0.5534    2.1624   -2.6933 H   0  0  0  0  0  0  0  0  0  0  0  0
  1  5  1  0
  2  4  1  0
  2 10  1  1
  2  1  1  0
  3  2  1  0
  4 12  1  0
  5 13  1  0
  6  3  2  0
  7 14  1  0
  7  3  1  0
  8  1  1  0
  9  1  1  0
 11  4  1  0
M  END
>  <HBA>  (210) 
4

>  <HBD>  (210) 
3

>  <TPSA>  (210) 
83.55

>  <cid>  (210) 
617

>  <dipole>  (210) 
4.58

>  <excitation_energy_1>  (210) 
5.5

>  <excitation_energy_2>  (210) 
6.251

>  <excitation_energy_3>  (210) 
6.544

>  <excitation_energy_4>  (210) 
6.724

>  <homo_energy>  (210) 
-6.985

>  <homo_lumo_gap>  (210) 
7.323

>  <logP>  (210) 
-0.909

>  <lumo_energy>  (210) 
0.337

>  <melting_point>  (210) 
125.45

>  <molecular_refractivity>  (210) 
22.18

>  <oscillator_strength_1>  (210) 
0.001

>  <oscillator_strength_2>  (210) 
0.0042

>  <oscillator_strength_3>  (210) 
0.0051

>  <oscillator_strength_4>  (210) 
0.018

>  <open_babel_can_smiles>  (210) 
OC[C@@H](C(=O)O)N

>  <mulliken_charges>  (210) 
14
1   -0.035367
2   -0.10683
3   0.61325
4   -0.759812
5   -0.630164
6   -0.467475
7   -0.580628
8   0.162028
9   0.125513
10   0.189085
11   0.319014
12   0.337082
13   0.40171
14   0.432592

>  <lowdin_charges>  (210) 
14
1   -0.143829
2   -0.11695
3   0.174382
4   -0.540379
5   -0.479987
6   -0.256537
7   -0.351795
8   0.151255
9   0.131062
10   0.174552
11   0.266659
12   0.278183
13   0.351629
14   0.361755

$$$$
PCCDB-ID:  619
     RDKit          3D

 20 19  0  0  1  0  0  0  0  0999 V2000
    0.8031   -0.3748    0.5471 C   0  0  0  0  0  0  0  0  0  0  0  0
   -0.6516    3.7782    2.2261 C   0  0  0  0  0  0  0  0  0  0  0  0
    0.5914    0.8731    1.4130 C   0  0  1  0  0  0  0  0  0  0  0  0
    0.5832    3.4259    1.4247 C   0  0  0  0  0  0  0  0  0  0  0  0
    0.6595    2.1604    0.5661 C   0  0  1  0  0  0  0  0  0  0  0  0
    0.4779   -1.5400    1.3136 O   0  0  0  0  0  0  0  0  0  0  0  0
   -0.5017    5.0027    2.8955 O   0  0  0  0  0  0  0  0  0  0  0  0
   -0.6833    0.7986    2.0278 O   0  0  0  0  0  0  0  0  0  0  0  0
    1.5489    4.1802    1.4361 O   0  0  0  0  0  0  0  0  0  0  0  0
    1.8550    2.1686   -0.1774 O   0  0  0  0  0  0  0  0  0  0  0  0
    1.8211   -0.4117    0.1473 H   0  0  0  0  0  0  0  0  0  0  0  0
    0.0974   -0.3666   -0.2898 H   0  0  0  0  0  0  0  0  0  0  0  0
   -0.8572    2.9573    2.9271 H   0  0  0  0  0  0  0  0  0  0  0  0
   -1.5095    3.8027    1.5330 H   0  0  0  0  0  0  0  0  0  0  0  0
    1.3915    0.9158    2.1749 H   0  0  0  0  0  0  0  0  0  0  0  0
   -0.2116    2.1527   -0.1089 H   0  0  0  0  0  0  0  0  0  0  0  0
    1.2267   -1.7309    1.9007 H   0  0  0  0  0  0  0  0  0  0  0  0
    0.3771    5.3408    2.6417 H   0  0  0  0  0  0  0  0  0  0  0  0
   -0.8182   -0.1498    2.2141 H   0  0  0  0  0  0  0  0  0  0  0  0
    2.3428    2.9623    0.1215 H   0  0  0  0  0  0  0  0  0  0  0  0
  1  6  1  0
  1  3  1  0
  2  7  1  0
  2 13  1  0
  3  8  1  0
  3 15  1  1
  4  9  2  0
  4  2  1  0
  5 16  1  6
  5  3  1  0
  5  4  1  0
  6 17  1  0
  8 19  1  0
 10 20  1  0
 10  5  1  0
 11  1  1  0
 12  1  1  0
 14  2  1  0
 18  7  1  0
M  END
>  <HBA>  (211) 
5

>  <HBD>  (211) 
4

>  <TPSA>  (211) 
97.99

>  <cid>  (211) 
619

>  <dipole>  (211) 
2.65

>  <excitation_energy_1>  (211) 
4.856

>  <excitation_energy_2>  (211) 
5.193

>  <excitation_energy_3>  (211) 
5.579

>  <excitation_energy_4>  (211) 
5.753

>  <homo_energy>  (211) 
-7.271

>  <homo_lumo_gap>  (211) 
6.087

>  <logP>  (211) 
-2.738

>  <lumo_energy>  (211) 
-1.184

>  <melting_point>  (211) 
69.96

>  <molecular_refractivity>  (211) 
31.0

>  <oscillator_strength_1>  (211) 
0.0016

>  <oscillator_strength_2>  (211) 
0.0257

>  <oscillator_strength_3>  (211) 
0.01

>  <oscillator_strength_4>  (211) 
0.0299

>  <open_babel_can_smiles>  (211) 
OC[C@@H]([C@@H](C(=O)CO)O)O

>  <mulliken_charges>  (211) 
20
1   -0.066978
2   -0.070845
3   0.111517
4   0.375905
5   0.075882
6   -0.621337
7   -0.627237
8   -0.646301
9   -0.480114
10   -0.647415
11   0.164993
12   0.161741
13   0.199034
14   0.160071
15   0.115615
16   0.154795
17   0.400497
18   0.409721
19   0.413823
20   0.416633

>  <lowdin_charges>  (211) 
20
1   -0.152656
2   -0.165072
3   -0.030342
4   0.149536
5   -0.037046
6   -0.462257
7   -0.461205
8   -0.465915
9   -0.250124
10   -0.457357
11   0.154248
12   0.156627
13   0.179312
14   0.16003
15   0.125899
16   0.156048
17   0.350192
18   0.34771
19   0.349666
20   0.352704

$$$$
PCCDB-ID:  632
     RDKit          3D

 21 21  0  0  1  0  0  0  0  0999 V2000
    0.3569    1.4804    0.0092 C   0  0  0  0  0  0  0  0  0  0  0  0
    1.4002    0.4195   -0.3525 C   0  0  0  0  0  0  0  0  0  0  0  0
   -1.0250    1.0377   -0.4841 C   0  0  0  0  0  0  0  0  0  0  0  0
    0.9978   -0.9524    0.2072 C   0  0  1  0  0  0  0  0  0  0  0  0
   -1.3040   -0.3863   -0.0610 C   0  0  0  0  0  0  0  0  0  0  0  0
    1.5686   -1.2265    1.6252 C   0  0  0  0  0  0  0  0  0  0  0  0
   -2.7609   -0.7854    0.0132 C   0  0  0  0  0  0  0  0  0  0  0  0
   -0.4317   -1.2634    0.2550 N   0  0  0  0  0  0  0  0  0  0  0  0
    2.5842   -0.7210    2.0345 O   0  0  0  0  0  0  0  0  0  0  0  0
    0.8638   -2.1189    2.3400 O   0  0  0  0  0  0  0  0  0  0  0  0
   -2.9609   -2.0308    0.4850 O   0  0  0  0  0  0  0  0  0  0  0  0
   -3.6612   -0.0466   -0.3280 O   0  0  0  0  0  0  0  0  0  0  0  0
    0.6232    2.4486   -0.4270 H   0  0  0  0  0  0  0  0  0  0  0  0
    0.3315    1.6180    1.0982 H   0  0  0  0  0  0  0  0  0  0  0  0
    2.3881    0.6759    0.0388 H   0  0  0  0  0  0  0  0  0  0  0  0
    1.4821    0.3485   -1.4443 H   0  0  0  0  0  0  0  0  0  0  0  0
   -1.0874    1.1000   -1.5807 H   0  0  0  0  0  0  0  0  0  0  0  0
   -1.8275    1.6787   -0.1075 H   0  0  0  0  0  0  0  0  0  0  0  0
    1.4441   -1.7439   -0.4141 H   0  0  0  0  0  0  0  0  0  0  0  0
    0.0535   -2.3264    1.8219 H   0  0  0  0  0  0  0  0  0  0  0  0
   -3.9277   -2.1633    0.4818 H   0  0  0  0  0  0  0  0  0  0  0  0
  1 14  1  0
  2  1  1  0
  2 15  1  0
  2  4  1  0
  3 18  1  0
  3  5  1  0
  3  1  1  0
  4 19  1  6
  4  8  1  0
  4  6  1  0
  5  7  1  0
  5  8  2  0
  6  9  2  0
  6 10  1  0
  7 11  1  0
 12  7  2  0
 13  1  1  0
 16  2  1  0
 17  3  1  0
 20 10  1  0
 21 11  1  0
M  END
>  <HBA>  (212) 
5

>  <HBD>  (212) 
2

>  <TPSA>  (212) 
86.96

>  <cid>  (212) 
632

>  <dipole>  (212) 
3.58

>  <excitation_energy_1>  (212) 
3.935

>  <excitation_energy_2>  (212) 
4.607

>  <excitation_energy_3>  (212) 
4.883

>  <excitation_energy_4>  (212) 
5.658

>  <homo_energy>  (212) 
-7.32

>  <homo_lumo_gap>  (212) 
5.187

>  <logP>  (212) 
-0.415

>  <lumo_energy>  (212) 
-2.133

>  <melting_point>  (212) 
167.53

>  <molecular_refractivity>  (212) 
44.2

>  <oscillator_strength_1>  (212) 
0.0009

>  <oscillator_strength_2>  (212) 
0.086

>  <oscillator_strength_3>  (212) 
0.0248

>  <oscillator_strength_4>  (212) 
0.0032

>  <open_babel_can_smiles>  (212) 
OC(=O)[C@@H]1CCCC(=N1)C(=O)O

>  <mulliken_charges>  (212) 
21
1   -0.281485
2   -0.287999
3   -0.328881
4   -0.091965
5   0.266137
6   0.610229
7   0.564104
8   -0.469185
9   -0.449174
10   -0.573974
11   -0.555521
12   -0.454973
13   0.15334
14   0.15924
15   0.188485
16   0.140714
17   0.175935
18   0.186744
19   0.196499
20   0.434169
21   0.41756

>  <lowdin_charges>  (212) 
21
1   -0.27266
2   -0.286156
3   -0.292565
4   -0.111855
5   0.037192
6   0.182445
7   0.185136
8   -0.159063
9   -0.240866
10   -0.344942
11   -0.331649
12   -0.253176
13   0.156911
14   0.150784
15   0.176124
16   0.145739
17   0.168095
18   0.179201
19   0.181915
20   0.363772
21   0.365616

$$$$
PCCDB-ID:  634
     RDKit          3D

 24 24  0  0  1  0  0  0  0  0999 V2000
    0.0518   -1.4801   -1.1457 C   0  0  0  0  0  0  0  0  0  0  0  0
    2.6871    1.1575   -1.7400 C   0  0  0  0  0  0  0  0  0  0  0  0
    1.1553   -0.9492   -2.0785 C   0  0  2  0  0  0  0  0  0  0  0  0
    1.9580   -0.0321   -1.1354 C   0  0  2  0  0  0  0  0  0  0  0  0
    0.0323   -0.4996    0.0416 C   0  0  2  0  0  0  0  0  0  0  0  0
    3.3567    1.9084   -0.7425 O   0  0  0  0  0  0  0  0  0  0  0  0
    0.5143   -0.2490   -3.1412 O   0  0  0  0  0  0  0  0  0  0  0  0
    0.4055   -1.8012    3.6527 O   0  0  0  0  0  0  0  0  0  0  0  0
    1.6755    0.2205    2.9604 O   0  0  0  0  0  0  0  0  0  0  0  0
   -0.9060    0.3450    2.8262 O   0  0  0  0  0  0  0  0  0  0  0  0
    0.9634    0.5035   -0.2409 O   0  0  0  0  0  0  0  0  0  0  0  0
    0.4267   -1.2422    1.2279 O   0  0  0  0  0  0  0  0  0  0  0  0
    0.2779   -0.5188    2.6759 P   0  0  0  0  0  0  0  0  0  0  0  0
    0.2706   -2.4891   -0.7890 H   0  0  0  0  0  0  0  0  0  0  0  0
   -0.9019   -1.4955   -1.6783 H   0  0  0  0  0  0  0  0  0  0  0  0
    1.9625    1.7713   -2.2943 H   0  0  0  0  0  0  0  0  0  0  0  0
    3.4583    0.8112   -2.4380 H   0  0  0  0  0  0  0  0  0  0  0  0
    1.7844   -1.7596   -2.4719 H   0  0  0  0  0  0  0  0  0  0  0  0
    2.6748   -0.6388   -0.5612 H   0  0  0  0  0  0  0  0  0  0  0  0
   -0.9249   -0.0209    0.2490 H   0  0  0  0  0  0  0  0  0  0  0  0
    2.6794    2.1620   -0.0935 H   0  0  0  0  0  0  0  0  0  0  0  0
    1.1886    0.0106   -3.7877 H   0  0  0  0  0  0  0  0  0  0  0  0
   -0.4347   -2.2855    3.7107 H   0  0  0  0  0  0  0  0  0  0  0  0
    2.4434   -0.3539    2.8064 H   0  0  0  0  0  0  0  0  0  0  0  0
  1 14  1  0
  1  5  1  0
  2  4  1  0
  2  6  1  0
  3 18  1  6
  3  1  1  0
  3  4  1  0
  4 19  1  1
  4 11  1  0
  5 20  1  1
  5 12  1  0
  6 21  1  0
  7  3  1  0
  8 23  1  0
 11  5  1  0
 12 13  1  0
 13 10  2  0
 13  9  1  0
 13  8  1  0
 15  1  1  0
 16  2  1  0
 17  2  1  0
 22  7  1  0
 24  9  1  0
M  END
>  <HBA>  (213) 
7

>  <HBD>  (213) 
4

>  <TPSA>  (213) 
126.26

>  <cid>  (213) 
634

>  <dipole>  (213) 
5.33

>  <excitation_energy_1>  (213) 
6.314

>  <excitation_energy_2>  (213) 
6.476

>  <excitation_energy_3>  (213) 
6.621

>  <excitation_energy_4>  (213) 
6.773

>  <homo_energy>  (213) 
-7.301

>  <homo_lumo_gap>  (213) 
8.068

>  <logP>  (213) 
-1.436

>  <lumo_energy>  (213) 
0.767

>  <melting_point>  (213) 
104.69

>  <molecular_refractivity>  (213) 
39.52

>  <oscillator_strength_1>  (213) 
0.0031

>  <oscillator_strength_2>  (213) 
0.0082

>  <oscillator_strength_3>  (213) 
0.0148

>  <oscillator_strength_4>  (213) 
0.0006

>  <open_babel_can_smiles>  (213) 
OC[C@H]1O[C@@H](C[C@H]1O)OP(=O)(O)O

>  <mulliken_charges>  (213) 
24
1   -0.350734
2   -0.049723
3   0.09776
4   0.109075
5   0.36645
6   -0.621262
7   -0.619561
8   -0.63708
9   -0.621686
10   -0.543133
11   -0.493267
12   -0.564372
13   1.147828
14   0.175181
15   0.186454
16   0.142687
17   0.137595
18   0.13062
19   0.131868
20   0.185907
21   0.410691
22   0.398871
23   0.441636
24   0.438196

>  <lowdin_charges>  (213) 
24
1   -0.301698
2   -0.148194
3   -0.017643
4   -0.038864
5   0.107356
6   -0.461769
7   -0.455758
8   -0.565998
9   -0.550298
10   -0.574628
11   -0.249642
12   -0.417918
13   1.114713
14   0.170235
15   0.177464
16   0.141771
17   0.148288
18   0.138258
19   0.140647
20   0.16961
21   0.353554
22   0.348271
23   0.385658
24   0.386583

$$$$
PCCDB-ID:  635
     RDKit          3D

 24 24  0  0  1  0  0  0  0  0999 V2000
    3.1567   -1.1579    3.2936 C   0  0  0  0  0  0  0  0  0  0  0  0
    0.4246    0.1010    1.5292 C   0  0  0  0  0  0  0  0  0  0  0  0
    2.8208   -0.8342    1.8226 C   0  0  2  0  0  0  0  0  0  0  0  0
    1.8597    0.4010    1.9337 C   0  0  2  0  0  0  0  0  0  0  0  0
    3.0106    0.1862    3.9819 C   0  0  1  0  0  0  0  0  0  0  0  0
    2.3074   -1.9148    1.0755 O   0  0  0  0  0  0  0  0  0  0  0  0
    4.1842    0.9240    3.7774 O   0  0  0  0  0  0  0  0  0  0  0  0
   -0.4166   -2.0575    4.4565 O   0  0  0  0  0  0  0  0  0  0  0  0
   -0.6774    0.5065    4.1977 O   0  0  0  0  0  0  0  0  0  0  0  0
   -2.5179   -1.0616    3.2906 O   0  0  0  0  0  0  0  0  0  0  0  0
   -0.0642   -1.0380    2.2677 O   0  0  0  0  0  0  0  0  0  0  0  0
    1.8896    0.8118    3.3259 O   0  0  0  0  0  0  0  0  0  0  0  0
   -1.0741   -0.8937    3.5352 P   0  0  0  0  0  0  0  0  0  0  0  0
    4.1552   -1.5811    3.4192 H   0  0  0  0  0  0  0  0  0  0  0  0
    2.4170   -1.8569    3.6985 H   0  0  0  0  0  0  0  0  0  0  0  0
    0.3969   -0.1759    0.4730 H   0  0  0  0  0  0  0  0  0  0  0  0
   -0.2175    0.9727    1.6851 H   0  0  0  0  0  0  0  0  0  0  0  0
    3.7271   -0.5290    1.2953 H   0  0  0  0  0  0  0  0  0  0  0  0
    2.2192    1.2363    1.3202 H   0  0  0  0  0  0  0  0  0  0  0  0
    2.7355    0.1406    5.0421 H   0  0  0  0  0  0  0  0  0  0  0  0
    1.4996   -2.2205    1.5246 H   0  0  0  0  0  0  0  0  0  0  0  0
    4.0460    1.8110    4.1477 H   0  0  0  0  0  0  0  0  0  0  0  0
   -1.1277   -2.5829    4.8595 H   0  0  0  0  0  0  0  0  0  0  0  0
    0.2842    0.7117    4.0815 H   0  0  0  0  0  0  0  0  0  0  0  0
  1 14  1  0
  1 15  1  0
  1  5  1  0
  2 17  1  0
  2  4  1  0
  2 11  1  0
  3 18  1  6
  3  4  1  0
  3  1  1  0
  4 19  1  6
  4 12  1  0
  5 20  1  1
  6 21  1  0
  6  3  1  0
  7  5  1  0
  7 22  1  0
  8 23  1  0
 10 13  2  0
 11 13  1  0
 12  5  1  0
 13  9  1  0
 13  8  1  0
 16  2  1  0
 24  9  1  0
M  END
>  <HBA>  (214) 
7

>  <HBD>  (214) 
4

>  <TPSA>  (214) 
126.26

>  <cid>  (214) 
635

>  <dipole>  (214) 
4.05

>  <excitation_energy_1>  (214) 
6.612

>  <excitation_energy_2>  (214) 
6.789

>  <excitation_energy_3>  (214) 
6.957

>  <excitation_energy_4>  (214) 
6.982

>  <homo_energy>  (214) 
-7.508

>  <homo_lumo_gap>  (214) 
8.417

>  <logP>  (214) 
-1.436

>  <lumo_energy>  (214) 
0.909

>  <melting_point>  (214) 
104.69

>  <molecular_refractivity>  (214) 
39.52

>  <oscillator_strength_1>  (214) 
0.005

>  <oscillator_strength_2>  (214) 
0.0074

>  <oscillator_strength_3>  (214) 
0.0086

>  <oscillator_strength_4>  (214) 
0.0172

>  <open_babel_can_smiles>  (214) 
O[C@@H]1C[C@H]([C@H](O1)COP(=O)(O)O)O

>  <mulliken_charges>  (214) 
24
1   -0.324857
2   -0.105539
3   0.110998
4   0.124987
5   0.311934
6   -0.634649
7   -0.602916
8   -0.654581
9   -0.674682
10   -0.527266
11   -0.557814
12   -0.545643
13   1.15959
14   0.177187
15   0.176861
16   0.19001
17   0.184308
18   0.165584
19   0.153673
20   0.146054
21   0.419947
22   0.401508
23   0.443512
24   0.461792

>  <lowdin_charges>  (214) 
24
1   -0.311935
2   -0.14055
3   -0.013545
4   -0.030083
5   0.092876
6   -0.448597
7   -0.438301
8   -0.575796
9   -0.576606
10   -0.571925
11   -0.407486
12   -0.292898
13   1.11173
14   0.171757
15   0.170267
16   0.17282
17   0.170323
18   0.160203
19   0.155609
20   0.139634
21   0.350289
22   0.35173
23   0.38834
24   0.372144

$$$$
PCCDB-ID:  641
     RDKit          3D

 24 23  0  0  1  0  0  0  0  0999 V2000
    5.9967    0.6794   -1.4756 C   0  0  0  0  0  0  0  0  0  0  0  0
    4.9522   -2.0697    1.2777 C   0  0  0  0  0  0  0  0  0  0  0  0
    4.8415    0.5548   -0.5190 C   0  0  0  0  0  0  0  0  0  0  0  0
    3.6893   -1.4985    0.6320 C   0  0  2  0  0  0  0  0  0  0  0  0
    3.9279   -0.6821   -0.6661 C   0  0  1  0  0  0  0  0  0  0  0  0
    4.5820    1.4264    0.3027 O   0  0  0  0  0  0  0  0  0  0  0  0
    2.8444   -0.7863    1.5206 O   0  0  0  0  0  0  0  0  0  0  0  0
    2.6764   -0.2260   -1.1534 O   0  0  0  0  0  0  0  0  0  0  0  0
    4.9283    0.7421    2.8739 O   0  0  0  0  0  0  0  0  0  0  0  0
    5.8771   -1.2195    4.0161 O   0  0  0  0  0  0  0  0  0  0  0  0
    7.5590    0.4098    2.8272 O   0  0  0  0  0  0  0  0  0  0  0  0
    6.0085   -1.0979    1.4589 O   0  0  0  0  0  0  0  0  0  0  0  0
    6.2268   -0.2180    2.7992 P   0  0  0  0  0  0  0  0  0  0  0  0
    6.6969   -0.1473   -1.2996 H   0  0  0  0  0  0  0  0  0  0  0  0
    6.5102    1.6317   -1.3324 H   0  0  0  0  0  0  0  0  0  0  0  0
    5.6412    0.5921   -2.5098 H   0  0  0  0  0  0  0  0  0  0  0  0
    5.3847   -2.8305    0.6206 H   0  0  0  0  0  0  0  0  0  0  0  0
    4.6991   -2.5357    2.2343 H   0  0  0  0  0  0  0  0  0  0  0  0
    3.0918   -2.3645    0.3186 H   0  0  0  0  0  0  0  0  0  0  0  0
    4.3427   -1.3475   -1.4317 H   0  0  0  0  0  0  0  0  0  0  0  0
    3.3782   -0.1522    2.0341 H   0  0  0  0  0  0  0  0  0  0  0  0
    2.2106    0.1016   -0.3600 H   0  0  0  0  0  0  0  0  0  0  0  0
    4.8883    1.3217    2.0761 H   0  0  0  0  0  0  0  0  0  0  0  0
    6.6579   -1.3183    4.5855 H   0  0  0  0  0  0  0  0  0  0  0  0
  1 15  1  0
  1 14  1  0
  1  3  1  0
  2 12  1  0
  2 18  1  0
  3  6  2  0
  4 19  1  6
  4  2  1  0
  4  7  1  0
  5 20  1  6
  5  3  1  0
  5  4  1  0
  7 21  1  0
  8  5  1  0
  8 22  1  0
 10 24  1  0
 12 13  1  0
 13 11  2  0
 13  9  1  0
 13 10  1  0
 16  1  1  0
 17  2  1  0
 23  9  1  0
M  END
>  <HBA>  (215) 
7

>  <HBD>  (215) 
4

>  <TPSA>  (215) 
134.1

>  <cid>  (215) 
641

>  <dipole>  (215) 
3.25

>  <excitation_energy_1>  (215) 
4.05

>  <excitation_energy_2>  (215) 
5.563

>  <excitation_energy_3>  (215) 
5.946

>  <excitation_energy_4>  (215) 
6.088

>  <homo_energy>  (215) 
-6.988

>  <homo_lumo_gap>  (215) 
5.638

>  <logP>  (215) 
-1.593

>  <lumo_energy>  (215) 
-1.35

>  <melting_point>  (215) 
112.46

>  <molecular_refractivity>  (215) 
40.74

>  <oscillator_strength_1>  (215) 
0.0017

>  <oscillator_strength_2>  (215) 
0.0091

>  <oscillator_strength_3>  (215) 
0.0007

>  <oscillator_strength_4>  (215) 
0.0044

>  <open_babel_can_smiles>  (215) 
O[C@@H]([C@H](C(=O)C)O)COP(=O)(O)O

>  <mulliken_charges>  (215) 
24
1   -0.543478
2   -0.087566
3   0.494526
4   0.080994
5   0.062804
6   -0.510754
7   -0.6506
8   -0.619068
9   -0.689742
10   -0.654527
11   -0.520833
12   -0.539686
13   1.172886
14   0.19388
15   0.190749
16   0.18624
17   0.165362
18   0.191836
19   0.162642
20   0.139241
21   0.431955
22   0.414611
23   0.478998
24   0.449529

>  <lowdin_charges>  (215) 
24
1   -0.470093
2   -0.142463
3   0.186551
4   -0.031601
5   -0.048728
6   -0.274583
7   -0.461596
8   -0.441937
9   -0.57187
10   -0.563113
11   -0.566355
12   -0.403184
13   1.112919
14   0.185202
15   0.178825
16   0.178934
17   0.16391
18   0.172237
19   0.164334
20   0.152539
21   0.3506
22   0.352818
23   0.384224
24   0.392431

$$$$
PCCDB-ID:  643
     RDKit          3D

 33 33  0  0  1  0  0  0  0  0999 V2000
    1.1143   -0.2589    3.9226 C   0  0  0  0  0  0  0  0  0  0  0  0
    2.0255   -3.7635    0.7022 C   0  0  0  0  0  0  0  0  0  0  0  0
    2.5597   -2.5435   -0.0623 C   0  0  0  0  0  0  0  0  0  0  0  0
    1.6700   -4.9262   -0.2356 C   0  0  0  0  0  0  0  0  0  0  0  0
    3.0717   -1.3674    0.7916 C   0  0  0  0  0  0  0  0  0  0  0  0
    1.1248   -6.1526    0.5043 C   0  0  0  0  0  0  0  0  0  0  0  0
    1.2187   -1.1504    2.6810 C   0  0  2  0  0  0  0  0  0  0  0  0
    2.0470   -0.4761    1.5261 C   0  0  2  0  0  0  0  0  0  0  0  0
    2.1920   -6.8991    1.3003 C   0  0  0  0  0  0  0  0  0  0  0  0
   -0.1605   -0.7321    1.0251 C   0  0  0  0  0  0  0  0  0  0  0  0
   -0.1224   -1.4059    2.1147 N   0  0  0  0  0  0  0  0  0  0  0  0
    0.9494    0.0072    0.6698 N   0  0  0  0  0  0  0  0  0  0  0  0
    3.3783   -6.7011    1.2204 O   0  0  0  0  0  0  0  0  0  0  0  0
    1.7242   -7.8736    2.1307 O   0  0  0  0  0  0  0  0  0  0  0  0
   -1.2215   -0.6545    0.1986 O   0  0  0  0  0  0  0  0  0  0  0  0
    2.0994   -0.1106    4.3825 H   0  0  0  0  0  0  0  0  0  0  0  0
    0.4518   -0.7186    4.6628 H   0  0  0  0  0  0  0  0  0  0  0  0
    0.7033    0.7228    3.6606 H   0  0  0  0  0  0  0  0  0  0  0  0
    1.1344   -3.4841    1.2763 H   0  0  0  0  0  0  0  0  0  0  0  0
    2.7855   -4.1071    1.4150 H   0  0  0  0  0  0  0  0  0  0  0  0
    1.7899   -2.1844   -0.7607 H   0  0  0  0  0  0  0  0  0  0  0  0
    3.3979   -2.8734   -0.6917 H   0  0  0  0  0  0  0  0  0  0  0  0
    2.5560   -5.2284   -0.8061 H   0  0  0  0  0  0  0  0  0  0  0  0
    0.9171   -4.5945   -0.9628 H   0  0  0  0  0  0  0  0  0  0  0  0
    3.6601   -0.7097    0.1348 H   0  0  0  0  0  0  0  0  0  0  0  0
    3.7809   -1.7422    1.5434 H   0  0  0  0  0  0  0  0  0  0  0  0
    0.6905   -6.8712   -0.2066 H   0  0  0  0  0  0  0  0  0  0  0  0
    0.3080   -5.8623    1.1814 H   0  0  0  0  0  0  0  0  0  0  0  0
    1.6781   -2.1017    2.9747 H   0  0  0  0  0  0  0  0  0  0  0  0
    2.5988    0.3846    1.9245 H   0  0  0  0  0  0  0  0  0  0  0  0
    1.1145    0.1718   -0.3162 H   0  0  0  0  0  0  0  0  0  0  0  0
    0.7541   -7.9078    2.0880 H   0  0  0  0  0  0  0  0  0  0  0  0
   -1.9208   -1.1839    0.6199 H   0  0  0  0  0  0  0  0  0  0  0  0
  1 16  1  0
  1 17  1  0
  2 19  1  0
  2 20  1  0
  3  2  1  0
  3  5  1  0
  4  6  1  0
  4  2  1  0
  5  8  1  0
  5 26  1  0
  6 28  1  0
  6  9  1  0
  7 29  1  1
  7  1  1  0
  8 30  1  1
  8  7  1  0
  9 14  1  0
 10 11  2  0
 11  7  1  0
 12 10  1  0
 12  8  1  0
 13  9  2  0
 15 33  1  0
 15 10  1  0
 18  1  1  0
 21  3  1  0
 22  3  1  0
 23  4  1  0
 24  4  1  0
 25  5  1  0
 27  6  1  0
 31 12  1  0
 32 14  1  0
M  END
>  <HBA>  (216) 
5

>  <HBD>  (216) 
3

>  <TPSA>  (216) 
78.43

>  <cid>  (216) 
643

>  <dipole>  (216) 
3.22

>  <excitation_energy_1>  (216) 
5.198

>  <excitation_energy_2>  (216) 
5.396

>  <excitation_energy_3>  (216) 
5.616

>  <excitation_energy_4>  (216) 
5.659

>  <homo_energy>  (216) 
-5.921

>  <homo_lumo_gap>  (216) 
6.231

>  <logP>  (216) 
1.749

>  <lumo_energy>  (216) 
0.31

>  <melting_point>  (216) 
156.6

>  <molecular_refractivity>  (216) 
63.86

>  <oscillator_strength_1>  (216) 
0.0001

>  <oscillator_strength_2>  (216) 
0.0011

>  <oscillator_strength_3>  (216) 
0.0008

>  <oscillator_strength_4>  (216) 
0.0099

>  <open_babel_can_smiles>  (216) 
OC(=O)CCCCC[C@H]1NC(=N[C@@H]1C)O

>  <mulliken_charges>  (216) 
33
1   -0.439544
2   -0.277809
3   -0.262124
4   -0.249623
5   -0.285056
6   -0.406891
7   0.005672
8   0.027279
9   0.609003
10   0.669451
11   -0.498892
12   -0.603131
13   -0.440145
14   -0.566851
15   -0.614978
16   0.135267
17   0.155514
18   0.150154
19   0.160507
20   0.15369
21   0.121883
22   0.139257
23   0.157943
24   0.129952
25   0.130731
26   0.144522
27   0.171068
28   0.159608
29   0.133531
30   0.137768
31   0.322905
32   0.408488
33   0.420852

>  <lowdin_charges>  (216) 
33
1   -0.448132
2   -0.292151
3   -0.279359
4   -0.271888
5   -0.292345
6   -0.325288
7   -0.062797
8   -0.068744
9   0.193943
10   0.145548
11   -0.303883
12   -0.302352
13   -0.238829
14   -0.356541
15   -0.361901
16   0.145538
17   0.158708
18   0.151926
19   0.153484
20   0.15159
21   0.135836
22   0.147757
23   0.156151
24   0.144408
25   0.145121
26   0.152057
27   0.168701
28   0.158981
29   0.141228
30   0.146317
31   0.279043
32   0.355127
33   0.372745

$$$$
PCCDB-ID:  650
     RDKit          3D

 12 11  0  0  0  0  0  0  0  0999 V2000
    1.0469    0.2254   -0.3237 C   0  0  0  0  0  0  0  0  0  0  0  0
    3.9566   -2.1213    0.9784 C   0  0  0  0  0  0  0  0  0  0  0  0
    2.2301   -0.2404    0.4884 C   0  0  0  0  0  0  0  0  0  0  0  0
    2.7739   -1.6551    0.1658 C   0  0  0  0  0  0  0  0  0  0  0  0
    2.7638    0.4193    1.3594 O   0  0  0  0  0  0  0  0  0  0  0  0
    2.2401   -2.3150   -0.7051 O   0  0  0  0  0  0  0  0  0  0  0  0
    0.2070   -0.4676   -0.2000 H   0  0  0  0  0  0  0  0  0  0  0  0
    1.2942    0.2184   -1.3912 H   0  0  0  0  0  0  0  0  0  0  0  0
    0.7582    1.2296   -0.0087 H   0  0  0  0  0  0  0  0  0  0  0  0
    3.7072   -2.1181    2.0455 H   0  0  0  0  0  0  0  0  0  0  0  0
    4.7955   -1.4264    0.8586 H   0  0  0  0  0  0  0  0  0  0  0  0
    4.2476   -3.1241    0.6610 H   0  0  0  0  0  0  0  0  0  0  0  0
  1  7  1  0
  1  9  1  0
  1  3  1  0
  2 10  1  0
  3  5  2  0
  4  3  1  0
  4  2  1  0
  6  4  2  0
  8  1  1  0
 11  2  1  0
 12  2  1  0
M  END
>  <HBA>  (217) 
2

>  <HBD>  (217) 
0

>  <TPSA>  (217) 
34.14

>  <cid>  (217) 
650

>  <dipole>  (217) 
0.0

>  <excitation_energy_1>  (217) 
2.676

>  <excitation_energy_2>  (217) 
4.451

>  <excitation_energy_3>  (217) 
6.098

>  <excitation_energy_4>  (217) 
6.171

>  <homo_energy>  (217) 
-6.629

>  <homo_lumo_gap>  (217) 
4.286

>  <logP>  (217) 
0.164

>  <lumo_energy>  (217) 
-2.343

>  <melting_point>  (217) 
17.55

>  <molecular_refractivity>  (217) 
21.74

>  <oscillator_strength_1>  (217) 
0.0001

>  <oscillator_strength_2>  (217) 
0.0

>  <oscillator_strength_3>  (217) 
0.0

>  <oscillator_strength_4>  (217) 
0.0

>  <open_babel_can_smiles>  (217) 
CC(=O)C(=O)C

>  <mulliken_charges>  (217) 
12
1   -0.522452
2   -0.522491
3   0.384806
4   0.384789
5   -0.415554
6   -0.415541
7   0.187506
8   0.187508
9   0.1782
10   0.187507
11   0.187517
12   0.178204

>  <lowdin_charges>  (217) 
12
1   -0.468019
2   -0.468048
3   0.134894
4   0.134899
5   -0.204925
6   -0.204933
7   0.18358
8   0.181658
9   0.172815
10   0.181685
11   0.183563
12   0.172832

$$$$
PCCDB-ID:  654
     RDKit          3D

 20 19  0  0  0  0  0  0  0  0999 V2000
    1.5959   -2.3536   -2.1531 C   0  0  0  0  0  0  0  0  0  0  0  0
    7.9882   -1.9127   -2.1312 C   0  0  0  0  0  0  0  0  0  0  0  0
    2.2982   -1.6414   -1.0129 C   0  0  0  0  0  0  0  0  0  0  0  0
    6.6120   -2.1109   -1.5265 C   0  0  0  0  0  0  0  0  0  0  0  0
    4.4813    0.8938   -0.3528 O   0  0  0  0  0  0  0  0  0  0  0  0
    4.6457   -1.3338    0.9415 O   0  0  0  0  0  0  0  0  0  0  0  0
    3.6268   -1.2739   -1.4676 O   0  0  0  0  0  0  0  0  0  0  0  0
    6.0527   -0.8013   -1.2448 O   0  0  0  0  0  0  0  0  0  0  0  0
    4.6929   -0.7055   -0.3924 P   0  0  0  0  0  0  0  0  0  0  0  0
    0.5844   -2.6413   -1.8458 H   0  0  0  0  0  0  0  0  0  0  0  0
    2.1409   -3.2589   -2.4391 H   0  0  0  0  0  0  0  0  0  0  0  0
    1.5196   -1.7034   -3.0306 H   0  0  0  0  0  0  0  0  0  0  0  0
    8.4281   -2.8857   -2.3769 H   0  0  0  0  0  0  0  0  0  0  0  0
    8.6506   -1.3998   -1.4271 H   0  0  0  0  0  0  0  0  0  0  0  0
    7.9292   -1.3188   -3.0488 H   0  0  0  0  0  0  0  0  0  0  0  0
    2.3950   -2.2781   -0.1286 H   0  0  0  0  0  0  0  0  0  0  0  0
    1.7618   -0.7293   -0.7253 H   0  0  0  0  0  0  0  0  0  0  0  0
    6.6644   -2.6776   -0.5909 H   0  0  0  0  0  0  0  0  0  0  0  0
    5.9397   -2.6320   -2.2169 H   0  0  0  0  0  0  0  0  0  0  0  0
    4.6846    1.3048   -1.2094 H   0  0  0  0  0  0  0  0  0  0  0  0
  1 10  1  0
  1  3  1  0
  2  4  1  0
  2 14  1  0
  3 17  1  0
  3 16  1  0
  4  8  1  0
  4 18  1  0
  7  3  1  0
  7  9  1  0
  8  9  1  0
  9  5  1  0
  9  6  2  0
 11  1  1  0
 12  1  1  0
 13  2  1  0
 15  2  1  0
 19  4  1  0
 20  5  1  0
M  END
>  <HBA>  (218) 
4

>  <HBD>  (218) 
1

>  <TPSA>  (218) 
65.57

>  <cid>  (218) 
654

>  <dipole>  (218) 
3.93

>  <excitation_energy_1>  (218) 
6.874

>  <excitation_energy_2>  (218) 
7.075

>  <excitation_energy_3>  (218) 
7.565

>  <excitation_energy_4>  (218) 
7.641

>  <homo_energy>  (218) 
-7.709

>  <homo_lumo_gap>  (218) 
8.89

>  <logP>  (218) 
1.16

>  <lumo_energy>  (218) 
1.181

>  <melting_point>  (218) 
10.09

>  <molecular_refractivity>  (218) 
33.34

>  <oscillator_strength_1>  (218) 
0.0073

>  <oscillator_strength_2>  (218) 
0.0137

>  <oscillator_strength_3>  (218) 
0.0237

>  <oscillator_strength_4>  (218) 
0.0054

>  <open_babel_can_smiles>  (218) 
CCOP(=O)(OCC)O

>  <mulliken_charges>  (218) 
20
1   -0.45483
2   -0.456597
3   -0.041366
4   -0.038959
5   -0.627502
6   -0.554001
7   -0.538346
8   -0.527187
9   1.178241
10   0.153562
11   0.161754
12   0.160661
13   0.152764
14   0.169327
15   0.16164
16   0.177612
17   0.155737
18   0.173414
19   0.159572
20   0.434503

>  <lowdin_charges>  (218) 
20
1   -0.447787
2   -0.44815
3   -0.116321
4   -0.117923
5   -0.559912
6   -0.578362
7   -0.411236
8   -0.403154
9   1.116462
10   0.159583
11   0.159264
12   0.158674
13   0.15987
14   0.164016
15   0.15903
16   0.162309
17   0.149412
18   0.160016
19   0.152098
20   0.382111

$$$$
PCCDB-ID:  655
     RDKit          3D

 20 19  0  0  0  0  0  0  0  0999 V2000
    1.2078   -0.3069   -1.7652 C   0  0  0  0  0  0  0  0  0  0  0  0
    4.6646    2.6822    2.7233 C   0  0  0  0  0  0  0  0  0  0  0  0
    2.6888   -0.0852   -2.0076 C   0  0  0  0  0  0  0  0  0  0  0  0
    4.4945    1.6062    1.6683 C   0  0  0  0  0  0  0  0  0  0  0  0
    4.9193    2.4800   -2.0777 O   0  0  0  0  0  0  0  0  0  0  0  0
    3.1511    0.8996   -1.0474 O   0  0  0  0  0  0  0  0  0  0  0  0
    4.6801    2.2243    0.3682 O   0  0  0  0  0  0  0  0  0  0  0  0
    4.7164    1.3182   -0.9672 P   0  0  0  0  0  0  0  0  0  0  0  0
    6.0048   -0.1140   -1.1112 S   0  0  0  0  0  1  0  0  0  0  0  0
    0.8265   -1.0560   -2.4678 H   0  0  0  0  0  0  0  0  0  0  0  0
    0.6427    0.6198   -1.9071 H   0  0  0  0  0  0  0  0  0  0  0  0
    1.0329   -0.6677   -0.7466 H   0  0  0  0  0  0  0  0  0  0  0  0
    4.5179    2.2498    3.7192 H   0  0  0  0  0  0  0  0  0  0  0  0
    3.9331    3.4845    2.5835 H   0  0  0  0  0  0  0  0  0  0  0  0
    5.6689    3.1144    2.6771 H   0  0  0  0  0  0  0  0  0  0  0  0
    2.8761    0.2948   -3.0185 H   0  0  0  0  0  0  0  0  0  0  0  0
    3.2658   -1.0051   -1.8711 H   0  0  0  0  0  0  0  0  0  0  0  0
    3.4931    1.1636    1.7003 H   0  0  0  0  0  0  0  0  0  0  0  0
    5.2369    0.8095    1.7834 H   0  0  0  0  0  0  0  0  0  0  0  0
    4.4025    3.2723   -1.8471 H   0  0  0  0  0  0  0  0  0  0  0  0
  1 12  1  0
  2 13  1  0
  3 17  1  0
  3  1  1  0
  3  6  1  0
  4 18  1  0
  4 19  1  0
  4  2  1  0
  5 20  1  0
  5  8  1  0
  6  8  1  0
  7  4  1  0
  8  7  1  0
  9  8  1  0
 10  1  1  0
 11  1  1  0
 14  2  1  0
 15  2  1  0
 16  3  1  0
M  RAD  1   9   2
M  END
>  <HBA>  (219) 
4

>  <HBD>  (219) 
1

>  <TPSA>  (219) 
80.59

>  <cid>  (219) 
655

>  <dipole>  (219) 
4.43

>  <excitation_energy_1>  (219) 
5.486

>  <excitation_energy_2>  (219) 
5.639

>  <excitation_energy_3>  (219) 
6.181

>  <excitation_energy_4>  (219) 
6.36

>  <homo_energy>  (219) 
-6.463

>  <homo_lumo_gap>  (219) 
7.336

>  <logP>  (219) 
1.927

>  <lumo_energy>  (219) 
0.873

>  <melting_point>  (219) 
8.73

>  <molecular_refractivity>  (219) 
40.24

>  <oscillator_strength_1>  (219) 
0.0193

>  <oscillator_strength_2>  (219) 
0.0283

>  <oscillator_strength_3>  (219) 
0.0231

>  <oscillator_strength_4>  (219) 
0.0175

>  <open_babel_can_smiles>  (219) 
CCOP(OCC)([S])O

>  <mulliken_charges>  (219) 
20
1   -0.455675
2   -0.457396
3   -0.044426
4   -0.038206
5   -0.616759
6   -0.518422
7   -0.514342
8   0.955877
9   -0.393492
10   0.155646
11   0.161228
12   0.164011
13   0.154692
14   0.161769
15   0.170466
16   0.160144
17   0.180279
18   0.161295
19   0.176062
20   0.437249

>  <lowdin_charges>  (219) 
20
1   -0.447834
2   -0.446723
3   -0.117749
4   -0.115454
5   -0.555559
6   -0.410351
7   -0.403746
8   0.910787
9   -0.385059
10   0.162473
11   0.158609
12   0.159442
13   0.160743
14   0.159525
15   0.162761
16   0.150368
17   0.162558
18   0.151109
19   0.161868
20   0.382233

$$$$
PCCDB-ID:  660
     RDKit          3D

 19 20  0  0  0  0  0  0  0  0999 V2000
    2.4556    0.6775   -0.1404 C   0  0  0  0  0  0  0  0  0  0  0  0
    2.4150   -0.7164   -0.0579 C   0  0  0  0  0  0  0  0  0  0  0  0
    1.2726    1.4123   -0.0521 C   0  0  0  0  0  0  0  0  0  0  0  0
    1.1968   -1.3729    0.1104 C   0  0  0  0  0  0  0  0  0  0  0  0
   -1.2780    1.5004    0.2323 C   0  0  0  0  0  0  0  0  0  0  0  0
   -2.3788    0.6359   -0.3985 C   0  0  0  0  0  0  0  0  0  0  0  0
    0.0406    0.7767    0.1249 C   0  0  0  0  0  0  0  0  0  0  0  0
    0.0278   -0.6205    0.1999 C   0  0  0  0  0  0  0  0  0  0  0  0
   -2.3833   -0.7726    0.1642 C   0  0  0  0  0  0  0  0  0  0  0  0
   -3.3665   -1.4282    0.3890 O   0  0  0  0  0  0  0  0  0  0  0  0
   -1.1496   -1.3306    0.4093 O   0  0  0  0  0  0  0  0  0  0  0  0
    3.4033    1.1903   -0.2760 H   0  0  0  0  0  0  0  0  0  0  0  0
    3.3310   -1.2959   -0.1288 H   0  0  0  0  0  0  0  0  0  0  0  0
    1.2997    2.4974   -0.1205 H   0  0  0  0  0  0  0  0  0  0  0  0
    1.1335   -2.4543    0.1753 H   0  0  0  0  0  0  0  0  0  0  0  0
   -1.5227    1.6928    1.2872 H   0  0  0  0  0  0  0  0  0  0  0  0
   -1.2302    2.4772   -0.2606 H   0  0  0  0  0  0  0  0  0  0  0  0
   -2.2079    0.5561   -1.4814 H   0  0  0  0  0  0  0  0  0  0  0  0
   -3.3784    1.0499   -0.2506 H   0  0  0  0  0  0  0  0  0  0  0  0
  1  2  2  0
  1  3  1  0
  2  4  1  0
  3  7  2  0
  4 15  1  0
  4  8  2  0
  5 16  1  0
  6 19  1  0
  6  9  1  0
  6  5  1  0
  7  8  1  0
  7  5  1  0
  8 11  1  0
  9 10  2  0
  9 11  1  0
 12  1  1  0
 13  2  1  0
 14  3  1  0
 17  5  1  0
 18  6  1  0
M  END
>  <HBA>  (220) 
2

>  <HBD>  (220) 
0

>  <TPSA>  (220) 
26.3

>  <cid>  (220) 
660

>  <dipole>  (220) 
3.99

>  <excitation_energy_1>  (220) 
5.066

>  <excitation_energy_2>  (220) 
5.3

>  <excitation_energy_3>  (220) 
5.476

>  <excitation_energy_4>  (220) 
5.848

>  <homo_energy>  (220) 
-6.506

>  <homo_lumo_gap>  (220) 
6.003

>  <logP>  (220) 
1.538

>  <lumo_energy>  (220) 
-0.503

>  <melting_point>  (220) 
56.56

>  <molecular_refractivity>  (220) 
40.79

>  <oscillator_strength_1>  (220) 
0.0136

>  <oscillator_strength_2>  (220) 
0.0627

>  <oscillator_strength_3>  (220) 
0.0328

>  <oscillator_strength_4>  (220) 
0.0042

>  <open_babel_can_smiles>  (220) 
O=C1CCc2c(O1)cccc2

>  <mulliken_charges>  (220) 
19
1   -0.124437
2   -0.13768
3   -0.204343
4   -0.17234
5   -0.350273
6   -0.37776
7   0.144321
8   0.301003
9   0.600753
10   -0.437006
11   -0.501418
12   0.133785
13   0.138312
14   0.131389
15   0.152209
16   0.173597
17   0.161079
18   0.185318
19   0.18349

>  <lowdin_charges>  (220) 
19
1   -0.164127
2   -0.148765
3   -0.153579
4   -0.167809
5   -0.268599
6   -0.304168
7   -0.038364
8   0.09007
9   0.206531
10   -0.223724
11   -0.151638
12   0.161061
13   0.163205
14   0.156891
15   0.171417
16   0.160596
17   0.161029
18   0.173466
19   0.17651

$$$$
PCCDB-ID:  663
     RDKit          3D

 29 28  0  0  1  0  0  0  0  0999 V2000
    2.0456   -1.0910   -0.4240 C   0  0  0  0  0  0  0  0  0  0  0  0
    1.8631   -0.0549    0.7026 C   0  0  0  0  0  0  0  0  0  0  0  0
    3.0762   -2.1966   -0.1337 C   0  0  0  0  0  0  0  0  0  0  0  0
    0.8516   -0.4386    1.8111 C   0  0  0  0  0  0  0  0  0  0  0  0
    4.1909   -4.3495   -1.0234 C   0  0  0  0  0  0  0  0  0  0  0  0
    5.4842   -3.7305   -1.5697 C   0  0  0  0  0  0  0  0  0  0  0  0
    2.9787   -3.3994   -1.0893 C   0  0  1  0  0  0  0  0  0  0  0  0
    1.2655   -1.5948    2.7102 C   0  0  0  0  0  0  0  0  0  0  0  0
    1.8771   -1.5189    3.8217 N   0  0  0  0  0  0  0  0  0  0  0  0
    0.9619   -2.8487    2.2630 O   0  0  0  0  0  0  0  0  0  0  0  0
    6.9039   -4.9053   -1.6153 S   0  0  0  0  0  0  0  0  0  0  0  0
    1.3999   -4.3557   -0.8241 S   0  0  0  0  0  0  0  0  0  0  0  0
    2.3545   -0.5681   -1.3390 H   0  0  0  0  0  0  0  0  0  0  0  0
    1.0710   -1.5413   -0.6570 H   0  0  0  0  0  0  0  0  0  0  0  0
    1.5020    0.8825    0.2621 H   0  0  0  0  0  0  0  0  0  0  0  0
    2.8324    0.1767    1.1643 H   0  0  0  0  0  0  0  0  0  0  0  0
    2.9855   -2.5636    0.8938 H   0  0  0  0  0  0  0  0  0  0  0  0
    4.0799   -1.7578   -0.2151 H   0  0  0  0  0  0  0  0  0  0  0  0
   -0.1207   -0.6610    1.3484 H   0  0  0  0  0  0  0  0  0  0  0  0
    0.6939    0.4359    2.4518 H   0  0  0  0  0  0  0  0  0  0  0  0
    4.3447   -4.6609    0.0193 H   0  0  0  0  0  0  0  0  0  0  0  0
    3.9701   -5.2568   -1.5939 H   0  0  0  0  0  0  0  0  0  0  0  0
    5.7856   -2.8401   -1.0122 H   0  0  0  0  0  0  0  0  0  0  0  0
    5.3517   -3.4298   -2.6150 H   0  0  0  0  0  0  0  0  0  0  0  0
    2.8676   -3.0395   -2.1211 H   0  0  0  0  0  0  0  0  0  0  0  0
    2.0346   -0.5391    4.0629 H   0  0  0  0  0  0  0  0  0  0  0  0
    0.5666   -2.8135    1.3761 H   0  0  0  0  0  0  0  0  0  0  0  0
    6.9879   -5.1016   -0.2810 H   0  0  0  0  0  0  0  0  0  0  0  0
    1.7765   -4.9402    0.3346 H   0  0  0  0  0  0  0  0  0  0  0  0
  1  3  1  0
  1  2  1  0
  2 16  1  0
  2  4  1  0
  3 17  1  0
  4 20  1  0
  4  8  1  0
  5 21  1  0
  6  5  1  0
  6 23  1  0
  7 25  1  6
  7  5  1  0
  7 12  1  0
  7  3  1  0
  8  9  2  0
  9 26  1  0
 10  8  1  0
 11  6  1  0
 11 28  1  0
 12 29  1  0
 13  1  1  0
 14  1  1  0
 15  2  1  0
 18  3  1  0
 19  4  1  0
 22  5  1  0
 24  6  1  0
 27 10  1  0
M  END
>  <HBA>  (221) 
4

>  <HBD>  (221) 
3

>  <TPSA>  (221) 
120.69

>  <cid>  (221) 
663

>  <dipole>  (221) 
4.05

>  <excitation_energy_1>  (221) 
5.195

>  <excitation_energy_2>  (221) 
5.49

>  <excitation_energy_3>  (221) 
5.769

>  <excitation_energy_4>  (221) 
5.809

>  <homo_energy>  (221) 
-6.536

>  <homo_lumo_gap>  (221) 
6.716

>  <logP>  (221) 
2.351

>  <lumo_energy>  (221) 
0.18

>  <melting_point>  (221) 
88.27

>  <molecular_refractivity>  (221) 
59.34

>  <oscillator_strength_1>  (221) 
0.0025

>  <oscillator_strength_2>  (221) 
0.0091

>  <oscillator_strength_3>  (221) 
0.032

>  <oscillator_strength_4>  (221) 
0.0281

>  <open_babel_can_smiles>  (221) 
SCC[C@H](CCCCC(=N)O)S

>  <mulliken_charges>  (221) 
29
1   -0.281381
2   -0.25491
3   -0.273398
4   -0.363194
5   -0.250477
6   -0.426255
7   -0.253166
8   0.475744
9   -0.58049
10   -0.588552
11   -0.072162
12   -0.11441
13   0.140588
14   0.145884
15   0.146057
16   0.146927
17   0.178484
18   0.143274
19   0.148532
20   0.157492
21   0.147355
22   0.180142
23   0.183611
24   0.180203
25   0.167767
26   0.279982
27   0.420076
28   0.0964
29   0.119878

>  <lowdin_charges>  (221) 
29
1   -0.286912
2   -0.271683
3   -0.293029
4   -0.310291
5   -0.28633
6   -0.37341
7   -0.209906
8   0.120763
9   -0.400087
10   -0.372404
11   -0.075566
12   -0.098029
13   0.147271
14   0.145719
15   0.151858
16   0.147973
17   0.161176
18   0.14615
19   0.15128
20   0.162529
21   0.148262
22   0.16808
23   0.160662
24   0.16627
25   0.157669
26   0.252535
27   0.352213
28   0.111805
29   0.125433

$$$$
PCCDB-ID:  668
     RDKit          3D

 17 16  0  0  0  0  0  0  0  0999 V2000
   -0.7733   -2.5030   -0.3973 C   0  0  0  0  0  0  0  0  0  0  0  0
    1.4679   -1.1820   -0.3000 C   0  0  0  0  0  0  0  0  0  0  0  0
   -0.0514   -1.1785   -0.2360 C   0  0  0  0  0  0  0  0  0  0  0  0
   -2.1236   -2.4170   -0.0486 O   0  0  0  0  0  0  0  0  0  0  0  0
   -0.7077   -0.1603   -0.0619 O   0  0  0  0  0  0  0  0  0  0  0  0
    0.8701    2.0462    0.4268 O   0  0  0  0  0  0  0  0  0  0  0  0
    2.4603    0.5505    1.7700 O   0  0  0  0  0  0  0  0  0  0  0  0
    3.4272    2.1508   -0.0414 O   0  0  0  0  0  0  0  0  0  0  0  0
    2.0157    0.0649   -0.6811 O   0  0  0  0  0  0  0  0  0  0  0  0
    2.2805    1.3130    0.3410 P   0  0  0  0  0  0  0  0  0  0  0  0
   -0.2782   -3.2717    0.2145 H   0  0  0  0  0  0  0  0  0  0  0  0
   -0.6316   -2.8095   -1.4519 H   0  0  0  0  0  0  0  0  0  0  0  0
    1.8032   -1.9206   -1.0366 H   0  0  0  0  0  0  0  0  0  0  0  0
    1.8390   -1.4991    0.6853 H   0  0  0  0  0  0  0  0  0  0  0  0
   -2.3518   -1.4691   -0.0628 H   0  0  0  0  0  0  0  0  0  0  0  0
    0.1335    1.4178    0.2392 H   0  0  0  0  0  0  0  0  0  0  0  0
    3.3087    0.8164    2.1620 H   0  0  0  0  0  0  0  0  0  0  0  0
  1  3  1  0
  1  4  1  0
  1 11  1  0
  2  3  1  0
  2 14  1  0
  3  5  2  0
  7 17  1  0
  8 10  2  0
  9  2  1  0
  9 10  1  0
 10  6  1  0
 10  7  1  0
 12  1  1  0
 13  2  1  0
 15  4  1  0
 16  6  1  0
M  END
>  <HBA>  (222) 
6

>  <HBD>  (222) 
3

>  <TPSA>  (222) 
113.87

>  <cid>  (222) 
668

>  <dipole>  (222) 
4.94

>  <excitation_energy_1>  (222) 
4.586

>  <excitation_energy_2>  (222) 
5.356

>  <excitation_energy_3>  (222) 
5.566

>  <excitation_energy_4>  (222) 
5.8

>  <homo_energy>  (222) 
-7.913

>  <homo_lumo_gap>  (222) 
5.948

>  <logP>  (222) 
-1.343

>  <lumo_energy>  (222) 
-1.965

>  <melting_point>  (222) 
95.17

>  <molecular_refractivity>  (222) 
29.97

>  <oscillator_strength_1>  (222) 
0.0019

>  <oscillator_strength_2>  (222) 
0.0272

>  <oscillator_strength_3>  (222) 
0.0004

>  <oscillator_strength_4>  (222) 
0.0018

>  <open_babel_can_smiles>  (222) 
OCC(=O)COP(=O)(O)O

>  <mulliken_charges>  (222) 
17
1   -0.082533
2   -0.124694
3   0.424737
4   -0.607914
5   -0.474352
6   -0.65169
7   -0.67586
8   -0.524768
9   -0.521385
10   1.170258
11   0.173554
12   0.169135
13   0.190797
14   0.208341
15   0.415306
16   0.465487
17   0.445581

>  <lowdin_charges>  (222) 
17
1   -0.158673
2   -0.155884
3   0.159756
4   -0.444094
5   -0.236681
6   -0.564046
7   -0.587101
8   -0.56549
9   -0.384246
10   1.128062
11   0.16708
12   0.15961
13   0.178009
14   0.185139
15   0.351485
16   0.377315
17   0.389758

$$$$
PCCDB-ID:  670
     RDKit          3D

 12 11  0  0  0  0  0  0  0  0999 V2000
    1.3837   -0.0994    0.0799 C   0  0  0  0  0  0  0  0  0  0  0  0
    1.6528   -1.5107   -2.1279 C   0  0  0  0  0  0  0  0  0  0  0  0
    0.7697   -0.9063   -1.0505 C   0  0  0  0  0  0  0  0  0  0  0  0
    0.4255    0.2729    1.0308 O   0  0  0  0  0  0  0  0  0  0  0  0
    0.8960   -2.1097   -3.1426 O   0  0  0  0  0  0  0  0  0  0  0  0
   -0.4408   -1.0701   -1.0934 O   0  0  0  0  0  0  0  0  0  0  0  0
    1.8747    0.7832   -0.3676 H   0  0  0  0  0  0  0  0  0  0  0  0
    2.1842   -0.6925    0.5499 H   0  0  0  0  0  0  0  0  0  0  0  0
    2.3236   -2.2400   -1.6394 H   0  0  0  0  0  0  0  0  0  0  0  0
    2.3021   -0.7239   -2.5431 H   0  0  0  0  0  0  0  0  0  0  0  0
   -0.4363    0.0101    0.6556 H   0  0  0  0  0  0  0  0  0  0  0  0
   -0.0291   -2.0862   -2.8321 H   0  0  0  0  0  0  0  0  0  0  0  0
  1  8  1  0
  1  4  1  0
  2  9  1  0
  2  3  1  0
  3  1  1  0
  5 12  1  0
  5  2  1  0
  6  3  2  0
  7  1  1  0
 10  2  1  0
 11  4  1  0
M  END
>  <HBA>  (223) 
3

>  <HBD>  (223) 
2

>  <TPSA>  (223) 
57.53

>  <cid>  (223) 
670

>  <dipole>  (223) 
1.49

>  <excitation_energy_1>  (223) 
4.909

>  <excitation_energy_2>  (223) 
5.378

>  <excitation_energy_3>  (223) 
5.696

>  <excitation_energy_4>  (223) 
6.833

>  <homo_energy>  (223) 
-7.559

>  <homo_lumo_gap>  (223) 
6.291

>  <logP>  (223) 
-1.46

>  <lumo_energy>  (223) 
-1.268

>  <melting_point>  (223) 
34.06

>  <molecular_refractivity>  (223) 
19.06

>  <oscillator_strength_1>  (223) 
0.0003

>  <oscillator_strength_2>  (223) 
0.024

>  <oscillator_strength_3>  (223) 
0.0208

>  <oscillator_strength_4>  (223) 
0.0

>  <open_babel_can_smiles>  (223) 
OCC(=O)CO

>  <mulliken_charges>  (223) 
12
1   -0.068048
2   -0.067927
3   0.365439
4   -0.61945
5   -0.619497
6   -0.462425
7   0.160363
8   0.16282
9   0.160427
10   0.162664
11   0.412821
12   0.412813

>  <lowdin_charges>  (223) 
12
1   -0.16145
2   -0.161523
3   0.137805
4   -0.455383
5   -0.454223
6   -0.24212
7   0.157734
8   0.160172
9   0.158218
10   0.159964
11   0.350955
12   0.34985

$$$$
PCCDB-ID:  671
     RDKit          3D

 23 24  0  0  0  0  0  0  0  0999 V2000
   -2.4322   -0.7478   -0.0294 C   0  0  0  0  0  0  0  0  0  0  0  0
   -2.3931    0.6497   -0.2327 C   0  0  0  0  0  0  0  0  0  0  0  0
   -1.2624   -1.4593    0.1312 C   0  0  0  0  0  0  0  0  0  0  0  0
   -1.1855    1.3113   -0.2887 C   0  0  0  0  0  0  0  0  0  0  0  0
    2.4216   -0.8449    0.2164 C   0  0  0  0  0  0  0  0  0  0  0  0
   -0.0071   -0.8052    0.0797 C   0  0  0  0  0  0  0  0  0  0  0  0
    0.0396    0.6054   -0.1535 C   0  0  0  0  0  0  0  0  0  0  0  0
    2.4879    0.5483   -0.0546 C   0  0  0  0  0  0  0  0  0  0  0  0
    1.2225   -1.5091    0.2692 C   0  0  0  0  0  0  0  0  0  0  0  0
    1.3094    1.2502   -0.2415 C   0  0  0  0  0  0  0  0  0  0  0  0
    3.8789    1.1281   -0.1409 C   0  0  0  0  0  0  0  0  0  0  0  0
    1.1195   -2.8514    0.5061 O   0  0  0  0  0  0  0  0  0  0  0  0
    1.3621    2.6204   -0.4776 O   0  0  0  0  0  0  0  0  0  0  0  0
    4.8620    0.4413    0.0390 O   0  0  0  0  0  0  0  0  0  0  0  0
    4.0007    2.4352   -0.4349 O   0  0  0  0  0  0  0  0  0  0  0  0
   -3.3894   -1.2596    0.0124 H   0  0  0  0  0  0  0  0  0  0  0  0
   -3.3200    1.2075   -0.3320 H   0  0  0  0  0  0  0  0  0  0  0  0
   -1.2819   -2.5294    0.3042 H   0  0  0  0  0  0  0  0  0  0  0  0
   -1.1769    2.3918   -0.4027 H   0  0  0  0  0  0  0  0  0  0  0  0
    3.3667   -1.3604    0.3593 H   0  0  0  0  0  0  0  0  0  0  0  0
    2.0114   -3.2179    0.6130 H   0  0  0  0  0  0  0  0  0  0  0  0
    0.7023    2.8597   -1.1477 H   0  0  0  0  0  0  0  0  0  0  0  0
    3.1110    2.8320   -0.5406 H   0  0  0  0  0  0  0  0  0  0  0  0
  1 16  1  0
  1  3  2  0
  2  1  1  0
  3 18  1  0
  4  2  2  0
  4  7  1  0
  5  9  1  0
  5 20  1  0
  6  3  1  0
  6  9  2  0
  7  6  1  0
  8  5  2  0
  9 12  1  0
 10  7  2  0
 10  8  1  0
 11  8  1  0
 11 14  2  0
 12 21  1  0
 13 10  1  0
 15 11  1  0
 17  2  1  0
 19  4  1  0
 22 13  1  0
 23 15  1  0
M  END
>  <HBA>  (224) 
4

>  <HBD>  (224) 
3

>  <TPSA>  (224) 
77.76

>  <cid>  (224) 
671

>  <dipole>  (224) 
5.56

>  <excitation_energy_1>  (224) 
3.682

>  <excitation_energy_2>  (224) 
4.062

>  <excitation_energy_3>  (224) 
4.542

>  <excitation_energy_4>  (224) 
4.765

>  <homo_energy>  (224) 
-5.837

>  <homo_lumo_gap>  (224) 
4.196

>  <logP>  (224) 
1.949

>  <lumo_energy>  (224) 
-1.641

>  <melting_point>  (224) 
221.93

>  <molecular_refractivity>  (224) 
54.95

>  <oscillator_strength_1>  (224) 
0.0889

>  <oscillator_strength_2>  (224) 
0.0416

>  <oscillator_strength_3>  (224) 
0.0001

>  <oscillator_strength_4>  (224) 
0.0055

>  <open_babel_can_smiles>  (224) 
OC(=O)c1cc(O)c2c(c1O)cccc2

>  <mulliken_charges>  (224) 
23
1   -0.1317
2   -0.129645
3   -0.173892
4   -0.212534
5   -0.270182
6   0.081494
7   0.129811
8   0.025657
9   0.31557
10   0.1762
11   0.579532
12   -0.648033
13   -0.691061
14   -0.466211
15   -0.600451
16   0.140752
17   0.139547
18   0.164123
19   0.125263
20   0.163302
21   0.41754
22   0.425802
23   0.439116

>  <lowdin_charges>  (224) 
23
1   -0.150237
2   -0.14834
3   -0.139375
4   -0.166186
5   -0.198526
6   -0.010121
7   -0.022985
8   -0.07414
9   0.097603
10   0.080029
11   0.198601
12   -0.374731
13   -0.398874
14   -0.261035
15   -0.360756
16   0.163976
17   0.163701
18   0.174703
19   0.152895
20   0.18129
21   0.36433
22   0.369351
23   0.358826

$$$$
PCCDB-ID:  673
     RDKit          3D

 16 15  0  0  0  0  0  0  0  0999 V2000
    1.8986   -0.3422   -0.6027 C   0  0  0  0  0  0  0  0  0  0  0  0
    2.2051    2.0462   -0.8671 C   0  0  0  0  0  0  0  0  0  0  0  0
    2.4623    1.0501    1.3281 C   0  0  0  0  0  0  0  0  0  0  0  0
    3.6880    1.7802    1.9017 C   0  0  0  0  0  0  0  0  0  0  0  0
    2.5956    0.8485   -0.1170 N   0  0  0  0  0  0  0  0  0  0  0  0
    3.6886    2.3371    2.9717 O   0  0  0  0  0  0  0  0  0  0  0  0
    4.7724    1.6953    1.1094 O   0  0  0  0  0  0  0  0  0  0  0  0
    2.1118   -0.4770   -1.6679 H   0  0  0  0  0  0  0  0  0  0  0  0
    0.8035   -0.2800   -0.4772 H   0  0  0  0  0  0  0  0  0  0  0  0
    2.2596   -1.2258   -0.0673 H   0  0  0  0  0  0  0  0  0  0  0  0
    2.4081    1.8935   -1.9315 H   0  0  0  0  0  0  0  0  0  0  0  0
    2.7934    2.9037   -0.5265 H   0  0  0  0  0  0  0  0  0  0  0  0
    1.1347    2.2878   -0.7456 H   0  0  0  0  0  0  0  0  0  0  0  0
    1.5569    1.6025    1.6204 H   0  0  0  0  0  0  0  0  0  0  0  0
    2.4181    0.0723    1.8224 H   0  0  0  0  0  0  0  0  0  0  0  0
    4.4630    1.2015    0.3101 H   0  0  0  0  0  0  0  0  0  0  0  0
  1  9  1  0
  1  5  1  0
  1 10  1  0
  2 13  1  0
  2 12  1  0
  2  5  1  0
  3 14  1  0
  3 15  1  0
  3  4  1  0
  4  6  2  0
  5  3  1  0
  7  4  1  0
  8  1  1  0
 11  2  1  0
 16  7  1  0
M  END
>  <HBA>  (225) 
3

>  <HBD>  (225) 
1

>  <TPSA>  (225) 
40.54

>  <cid>  (225) 
673

>  <dipole>  (225) 
5.25

>  <excitation_energy_1>  (225) 
5.54

>  <excitation_energy_2>  (225) 
5.931

>  <excitation_energy_3>  (225) 
6.324

>  <excitation_energy_4>  (225) 
6.677

>  <homo_energy>  (225) 
-6.724

>  <homo_lumo_gap>  (225) 
7.178

>  <logP>  (225) 
-0.367

>  <lumo_energy>  (225) 
0.454

>  <melting_point>  (225) 
54.56

>  <molecular_refractivity>  (225) 
26.01

>  <oscillator_strength_1>  (225) 
0.0006

>  <oscillator_strength_2>  (225) 
0.0152

>  <oscillator_strength_3>  (225) 
0.0107

>  <oscillator_strength_4>  (225) 
0.0419

>  <open_babel_can_smiles>  (225) 
CN(CC(=O)O)C

>  <mulliken_charges>  (225) 
16
1   -0.300007
2   -0.311661
3   -0.232826
4   0.588298
5   -0.425836
6   -0.454696
7   -0.573156
8   0.160489
9   0.139222
10   0.161375
11   0.162082
12   0.172147
13   0.142459
14   0.168144
15   0.182526
16   0.421441

>  <lowdin_charges>  (225) 
16
1   -0.352427
2   -0.359423
3   -0.245147
4   0.17265
5   -0.190987
6   -0.248846
7   -0.358111
8   0.154707
9   0.13193
10   0.156779
11   0.155527
12   0.161748
13   0.13433
14   0.1583
15   0.174229
16   0.35474

$$$$
PCCDB-ID:  674
     RDKit          3D

 10  9  0  0  0  0  0  0  0  0999 V2000
    1.0021    0.0594    0.0475 C   0  0  0  0  0  0  0  0  0  0  0  0
    2.9836    0.9277   -1.0521 C   0  0  0  0  0  0  0  0  0  0  0  0
    2.4581    0.1162    0.0382 N   0  0  0  0  0  0  0  0  0  0  0  0
    0.6649   -0.6079    0.8479 H   0  0  0  0  0  0  0  0  0  0  0  0
    0.5509   -0.2843   -0.9037 H   0  0  0  0  0  0  0  0  0  0  0  0
    0.6023    1.0591    0.2574 H   0  0  0  0  0  0  0  0  0  0  0  0
    4.0781    0.8883   -1.0457 H   0  0  0  0  0  0  0  0  0  0  0  0
    2.6874    1.9729   -0.9003 H   0  0  0  0  0  0  0  0  0  0  0  0
    2.6315    0.6267   -2.0580 H   0  0  0  0  0  0  0  0  0  0  0  0
    2.8276   -0.8288   -0.0422 H   0  0  0  0  0  0  0  0  0  0  0  0
  1  6  1  0
  1  4  1  0
  2  7  1  0
  2  8  1  0
  2  3  1  0
  3  1  1  0
  5  1  1  0
  9  2  1  0
 10  3  1  0
M  END
>  <HBA>  (226) 
1

>  <HBD>  (226) 
1

>  <TPSA>  (226) 
12.03

>  <cid>  (226) 
674

>  <dipole>  (226) 
1.03

>  <excitation_energy_1>  (226) 
5.299

>  <excitation_energy_2>  (226) 
6.043

>  <excitation_energy_3>  (226) 
6.193

>  <excitation_energy_4>  (226) 
6.509

>  <homo_energy>  (226) 
-5.853

>  <homo_lumo_gap>  (226) 
8.215

>  <logP>  (226) 
0.227

>  <lumo_energy>  (226) 
2.362

>  <melting_point>  (226) 
3.27

>  <molecular_refractivity>  (226) 
14.53

>  <oscillator_strength_1>  (226) 
0.0017

>  <oscillator_strength_2>  (226) 
0.0324

>  <oscillator_strength_3>  (226) 
0.0053

>  <oscillator_strength_4>  (226) 
0.0783

>  <open_babel_can_smiles>  (226) 
CNC

>  <mulliken_charges>  (226) 
10
1   -0.299964
2   -0.300068
3   -0.523648
4   0.147259
5   0.116665
6   0.150746
7   0.147299
8   0.150752
9   0.116698
10   0.294262

>  <lowdin_charges>  (226) 
10
1   -0.361114
2   -0.35635
3   -0.361504
4   0.15076
5   0.118717
6   0.147096
7   0.147623
8   0.146124
9   0.11769
10   0.250958

$$$$
PCCDB-ID:  675
     RDKit          3D

 21 22  0  0  0  0  0  0  0  0999 V2000
    0.9302    0.1185   -0.0267 C   0  0  0  0  0  0  0  0  0  0  0  0
    2.3647   -2.4489    0.0031 C   0  0  0  0  0  0  0  0  0  0  0  0
    3.1495    1.2968   -0.0294 C   0  0  0  0  0  0  0  0  0  0  0  0
    4.5318   -1.1828   -0.0024 C   0  0  0  0  0  0  0  0  0  0  0  0
    6.6329    1.7385   -0.0199 C   0  0  0  0  0  0  0  0  0  0  0  0
    2.4422    0.0967   -0.0212 C   0  0  0  0  0  0  0  0  0  0  0  0
    3.1371   -1.1498   -0.0073 C   0  0  0  0  0  0  0  0  0  0  0  0
    4.5494    1.2735   -0.0247 C   0  0  0  0  0  0  0  0  0  0  0  0
    5.2192    0.0314   -0.0117 C   0  0  0  0  0  0  0  0  0  0  0  0
    5.4630    2.3227   -0.0306 N   0  0  0  0  0  0  0  0  0  0  0  0
    6.5645    0.3624   -0.0083 N   0  0  0  0  0  0  0  0  0  0  0  0
    0.5538    1.1460   -0.0339 H   0  0  0  0  0  0  0  0  0  0  0  0
    0.5091   -0.3826    0.8551 H   0  0  0  0  0  0  0  0  0  0  0  0
    0.5154   -0.3924   -0.9059 H   0  0  0  0  0  0  0  0  0  0  0  0
    3.0410   -3.3094    0.0119 H   0  0  0  0  0  0  0  0  0  0  0  0
    1.7154   -2.5451   -0.8768 H   0  0  0  0  0  0  0  0  0  0  0  0
    1.7130   -2.5293    0.8829 H   0  0  0  0  0  0  0  0  0  0  0  0
    2.6267    2.2491   -0.0404 H   0  0  0  0  0  0  0  0  0  0  0  0
    5.0571   -2.1347    0.0080 H   0  0  0  0  0  0  0  0  0  0  0  0
    7.5864    2.2521   -0.0210 H   0  0  0  0  0  0  0  0  0  0  0  0
    7.3458   -0.2760    0.0007 H   0  0  0  0  0  0  0  0  0  0  0  0
  1  6  1  0
  1 13  1  0
  2 15  1  0
  2 17  1  0
  3  8  2  0
  3  6  1  0
  4 19  1  0
  5 11  1  0
  6  7  2  0
  7  4  1  0
  7  2  1  0
  8  9  1  0
  9 11  1  0
  9  4  2  0
 10  8  1  0
 10  5  2  0
 11 21  1  0
 12  1  1  0
 14  1  1  0
 16  2  1  0
 18  3  1  0
 20  5  1  0
M  END
>  <HBA>  (227) 
1

>  <HBD>  (227) 
1

>  <TPSA>  (227) 
28.68

>  <cid>  (227) 
675

>  <dipole>  (227) 
3.34

>  <excitation_energy_1>  (227) 
4.834

>  <excitation_energy_2>  (227) 
5.129

>  <excitation_energy_3>  (227) 
5.167

>  <excitation_energy_4>  (227) 
5.26

>  <homo_energy>  (227) 
-5.802

>  <homo_lumo_gap>  (227) 
5.625

>  <logP>  (227) 
2.18

>  <lumo_energy>  (227) 
-0.177

>  <melting_point>  (227) 
120.11

>  <molecular_refractivity>  (227) 
46.03

>  <oscillator_strength_1>  (227) 
0.082

>  <oscillator_strength_2>  (227) 
0.0907

>  <oscillator_strength_3>  (227) 
0.0013

>  <oscillator_strength_4>  (227) 
0.0001

>  <open_babel_can_smiles>  (227) 
Cc1cc2[nH]cnc2cc1C

>  <mulliken_charges>  (227) 
21
1   -0.533595
2   -0.532759
3   -0.245099
4   -0.235061
5   0.225213
6   0.125968
7   0.117214
8   0.2334
9   0.353005
10   -0.496418
11   -0.685124
12   0.156389
13   0.155117
14   0.155198
15   0.15044
16   0.15878
17   0.158828
18   0.131792
19   0.118362
20   0.157746
21   0.330603

>  <lowdin_charges>  (227) 
21
1   -0.440796
2   -0.440758
3   -0.166804
4   -0.198558
5   -0.062022
6   -0.018664
7   -0.008307
8   0.004157
9   0.015681
10   -0.191429
11   -0.211017
12   0.156679
13   0.155953
14   0.155985
15   0.154767
16   0.157932
17   0.157923
18   0.163025
19   0.1537
20   0.16716
21   0.295393

$$$$
PCCDB-ID:  677
     RDKit          3D

 19 18  0  0  1  0  0  0  0  0999 V2000
    0.9952   -0.1140    0.1535 C   0  0  0  0  0  0  0  0  0  0  0  0
    2.8771   -1.1738   -1.1683 C   0  0  0  0  0  0  0  0  0  0  0  0
    3.0890    1.2171   -0.3061 C   0  0  2  0  0  0  0  0  0  0  0  0
    4.6158    1.2324   -0.5239 C   0  0  0  0  0  0  0  0  0  0  0  0
    2.5085   -0.1982   -0.0486 C   0  0  0  0  0  0  0  0  0  0  0  0
    2.4654    1.7952   -1.4233 O   0  0  0  0  0  0  0  0  0  0  0  0
    5.0915    1.8617   -1.4467 O   0  0  0  0  0  0  0  0  0  0  0  0
    5.3663    0.5663    0.3553 O   0  0  0  0  0  0  0  0  0  0  0  0
    3.1356   -0.5984    1.2042 O   0  0  0  0  0  0  0  0  0  0  0  0
    0.5108    0.2721   -0.7470 H   0  0  0  0  0  0  0  0  0  0  0  0
    0.7586    0.5495    0.9913 H   0  0  0  0  0  0  0  0  0  0  0  0
    0.5828   -1.1070    0.3719 H   0  0  0  0  0  0  0  0  0  0  0  0
    2.5175   -0.7907   -2.1273 H   0  0  0  0  0  0  0  0  0  0  0  0
    2.4142   -2.1539   -0.9983 H   0  0  0  0  0  0  0  0  0  0  0  0
    3.9616   -1.3122   -1.2334 H   0  0  0  0  0  0  0  0  0  0  0  0
    2.8929    1.8104    0.6047 H   0  0  0  0  0  0  0  0  0  0  0  0
    3.1996    2.1786   -1.9460 H   0  0  0  0  0  0  0  0  0  0  0  0
    4.7596    0.0489    0.9405 H   0  0  0  0  0  0  0  0  0  0  0  0
    2.9504   -1.5398    1.3498 H   0  0  0  0  0  0  0  0  0  0  0  0
  1 12  1  0
  1 11  1  0
  2 14  1  0
  2  5  1  0
  3  5  1  0
  3 16  1  1
  4  3  1  0
  4  8  1  0
  5  1  1  0
  5  9  1  0
  6  3  1  0
  7  4  2  0
  8 18  1  0
  9 19  1  0
 10  1  1  0
 13  2  1  0
 15  2  1  0
 17  6  1  0
M  END
>  <HBA>  (228) 
4

>  <HBD>  (228) 
3

>  <TPSA>  (228) 
77.76

>  <cid>  (228) 
677

>  <dipole>  (228) 
4.54

>  <excitation_energy_1>  (228) 
5.884

>  <excitation_energy_2>  (228) 
6.582

>  <excitation_energy_3>  (228) 
6.763

>  <excitation_energy_4>  (228) 
6.956

>  <homo_energy>  (228) 
-7.48

>  <homo_lumo_gap>  (228) 
7.606

>  <logP>  (228) 
-0.797

>  <lumo_energy>  (228) 
0.125

>  <melting_point>  (228) 
99.52

>  <molecular_refractivity>  (228) 
30.28

>  <oscillator_strength_1>  (228) 
0.0008

>  <oscillator_strength_2>  (228) 
0.0145

>  <oscillator_strength_3>  (228) 
0.0028

>  <oscillator_strength_4>  (228) 
0.0254

>  <open_babel_can_smiles>  (228) 
OC(=O)[C@H](C(O)(C)C)O

>  <mulliken_charges>  (228) 
19
1   -0.451837
2   -0.483795
3   0.056273
4   0.577464
5   0.273034
6   -0.643801
7   -0.474493
8   -0.581802
9   -0.666731
10   0.183884
11   0.159037
12   0.134812
13   0.183238
14   0.141127
15   0.165024
16   0.159226
17   0.418114
18   0.442247
19   0.40898

>  <lowdin_charges>  (228) 
19
1   -0.452091
2   -0.462548
3   -0.050274
4   0.175719
5   0.114624
6   -0.454734
7   -0.259701
8   -0.34645
9   -0.46155
10   0.17483
11   0.160912
12   0.147497
13   0.174901
14   0.150607
15   0.158754
16   0.154047
17   0.356638
18   0.364996
19   0.353823

$$$$
PCCDB-ID:  679
     RDKit          3D

 10  9  0  0  0  0  0  0  0  0999 V2000
    1.1048   -0.1706    0.0455 C   0  0  0  0  0  0  0  0  0  0  0  0
    3.3316   -1.6984   -0.3353 C   0  0  0  0  0  0  0  0  0  0  0  0
    3.3373    0.9181   -1.0336 O   0  0  0  0  0  0  0  0  0  0  0  0
    2.9295    0.0354    0.1233 S   0  0  0  0  0  0  0  0  0  0  0  0
    0.7776   -0.8912    0.8013 H   0  0  0  0  0  0  0  0  0  0  0  0
    0.8164   -0.4976   -0.9580 H   0  0  0  0  0  0  0  0  0  0  0  0
    0.6642    0.8078    0.2516 H   0  0  0  0  0  0  0  0  0  0  0  0
    2.9523   -2.3843    0.4285 H   0  0  0  0  0  0  0  0  0  0  0  0
    4.4206   -1.7699   -0.3893 H   0  0  0  0  0  0  0  0  0  0  0  0
    2.9010   -1.9267   -1.3149 H   0  0  0  0  0  0  0  0  0  0  0  0
  1  4  1  0
  1  7  1  0
  1  5  1  0
  2  4  1  0
  2  8  1  0
  3  4  2  0
  6  1  1  0
  9  2  1  0
 10  2  1  0
M  END
>  <HBA>  (229) 
1

>  <HBD>  (229) 
0

>  <TPSA>  (229) 
36.28

>  <cid>  (229) 
679

>  <dipole>  (229) 
3.93

>  <excitation_energy_1>  (229) 
5.568

>  <excitation_energy_2>  (229) 
5.668

>  <excitation_energy_3>  (229) 
5.805

>  <excitation_energy_4>  (229) 
6.162

>  <homo_energy>  (229) 
-6.052

>  <homo_lumo_gap>  (229) 
7.214

>  <logP>  (229) 
0.86

>  <lumo_energy>  (229) 
1.162

>  <melting_point>  (229) 
-4.6

>  <molecular_refractivity>  (229) 
20.01

>  <oscillator_strength_1>  (229) 
0.0575

>  <oscillator_strength_2>  (229) 
0.0071

>  <oscillator_strength_3>  (229) 
0.0243

>  <oscillator_strength_4>  (229) 
0.063

>  <open_babel_can_smiles>  (229) 
CS(=O)C

>  <mulliken_charges>  (229) 
10
1   -0.627175
2   -0.627284
3   -0.624687
4   0.750081
5   0.172763
6   0.193117
7   0.198609
8   0.172784
9   0.198604
10   0.193187

>  <lowdin_charges>  (229) 
10
1   -0.601724
2   -0.600651
3   -0.676898
4   0.818941
5   0.173939
6   0.174205
7   0.182588
8   0.174031
9   0.181082
10   0.174487

$$$$
PCCDB-ID:  681
     RDKit          3D

 22 22  0  0  0  0  0  0  0  0999 V2000
   -1.3533    0.0309   -0.0942 C   0  0  0  0  0  0  0  0  0  0  0  0
   -0.6960    1.2630   -0.0255 C   0  0  0  0  0  0  0  0  0  0  0  0
   -1.3205   -2.5077   -0.1600 C   0  0  0  0  0  0  0  0  0  0  0  0
   -1.5683   -3.0860    1.2433 C   0  0  0  0  0  0  0  0  0  0  0  0
    0.7720   -1.0834   -0.0963 C   0  0  0  0  0  0  0  0  0  0  0  0
   -0.6292   -1.1622   -0.1302 C   0  0  0  0  0  0  0  0  0  0  0  0
    0.6945    1.3329    0.0094 C   0  0  0  0  0  0  0  0  0  0  0  0
    1.4388    0.1376   -0.0292 C   0  0  0  0  0  0  0  0  0  0  0  0
   -2.1691   -4.4210    1.1457 N   0  0  0  0  0  0  0  0  0  0  0  0
    1.3951    2.5065    0.0727 O   0  0  0  0  0  0  0  0  0  0  0  0
    2.8014    0.2503   -0.0011 O   0  0  0  0  0  0  0  0  0  0  0  0
   -2.4396    0.0068   -0.1259 H   0  0  0  0  0  0  0  0  0  0  0  0
   -1.2722    2.1869   -0.0029 H   0  0  0  0  0  0  0  0  0  0  0  0
   -2.2843   -2.4155   -0.6801 H   0  0  0  0  0  0  0  0  0  0  0  0
   -0.7285   -3.2365   -0.7262 H   0  0  0  0  0  0  0  0  0  0  0  0
   -2.1627   -2.3601    1.8273 H   0  0  0  0  0  0  0  0  0  0  0  0
   -0.6069   -3.1879    1.7617 H   0  0  0  0  0  0  0  0  0  0  0  0
    1.3615   -1.9997   -0.1301 H   0  0  0  0  0  0  0  0  0  0  0  0
   -3.1113   -4.3431    0.7629 H   0  0  0  0  0  0  0  0  0  0  0  0
   -2.2799   -4.8172    2.0780 H   0  0  0  0  0  0  0  0  0  0  0  0
    0.7601    3.2390    0.0905 H   0  0  0  0  0  0  0  0  0  0  0  0
    3.1814   -0.6411   -0.0376 H   0  0  0  0  0  0  0  0  0  0  0  0
  1  2  2  0
  2 13  1  0
  2  7  1  0
  3  6  1  0
  3  4  1  0
  4 17  1  0
  4 16  1  0
  5  8  1  0
  6  5  2  0
  6  1  1  0
  7 10  1  0
  8 11  1  0
  8  7  2  0
  9  4  1  0
  9 20  1  0
 10 21  1  0
 12  1  1  0
 14  3  1  0
 15  3  1  0
 18  5  1  0
 19  9  1  0
 22 11  1  0
M  END
>  <HBA>  (230) 
3

>  <HBD>  (230) 
3

>  <TPSA>  (230) 
66.48

>  <cid>  (230) 
681

>  <dipole>  (230) 
2.13

>  <excitation_energy_1>  (230) 
4.782

>  <excitation_energy_2>  (230) 
4.81

>  <excitation_energy_3>  (230) 
5.018

>  <excitation_energy_4>  (230) 
5.233

>  <homo_energy>  (230) 
-5.44

>  <homo_lumo_gap>  (230) 
5.685

>  <logP>  (230) 
1.299

>  <lumo_energy>  (230) 
0.245

>  <melting_point>  (230) 
142.69

>  <molecular_refractivity>  (230) 
42.97

>  <oscillator_strength_1>  (230) 
0.0011

>  <oscillator_strength_2>  (230) 
0.0607

>  <oscillator_strength_3>  (230) 
0.0002

>  <oscillator_strength_4>  (230) 
0.004

>  <open_babel_can_smiles>  (230) 
NCCc1ccc(c(c1)O)O

>  <mulliken_charges>  (230) 
22
1   -0.195593
2   -0.196494
3   -0.343404
4   -0.128478
5   -0.260668
6   0.170252
7   0.315717
8   0.32808
9   -0.715223
10   -0.633789
11   -0.635144
12   0.11744
13   0.116132
14   0.133311
15   0.154217
16   0.117784
17   0.141476
18   0.114231
19   0.291457
20   0.296149
21   0.405788
22   0.40676

>  <lowdin_charges>  (230) 
22
1   -0.178682
2   -0.206327
3   -0.276331
4   -0.204736
5   -0.217103
6   -0.009808
7   0.073915
8   0.0807
9   -0.557766
10   -0.372743
11   -0.371304
12   0.151806
13   0.153078
14   0.143951
15   0.156627
16   0.121162
17   0.142484
18   0.15238
19   0.249537
20   0.254263
21   0.358172
22   0.356724

$$$$
PCCDB-ID:  682
     RDKit          3D

 23 23  0  0  1  0  0  0  0  0999 V2000
   -0.8893    0.5067   -1.4211 C   0  0  0  0  0  0  0  0  0  0  0  0
   -0.7036   -0.7809   -1.7794 C   0  0  0  0  0  0  0  0  0  0  0  0
   -1.0343    2.4368    0.2612 C   0  0  0  0  0  0  0  0  0  0  0  0
   -0.5386    0.0909    0.9752 C   0  0  0  0  0  0  0  0  0  0  0  0
   -0.8051    0.9697   -0.0236 C   0  0  0  0  0  0  0  0  0  0  0  0
   -2.5326    2.8226    0.4047 C   0  0  1  0  0  0  0  0  0  0  0  0
   -0.4106   -1.8130   -0.7701 C   0  0  0  0  0  0  0  0  0  0  0  0
   -0.3306   -1.3414    0.7123 C   0  0  0  0  0  0  0  0  0  0  0  0
   -3.2382    2.7351   -0.9745 C   0  0  0  0  0  0  0  0  0  0  0  0
   -3.1478    2.1058    1.5038 N   0  0  0  0  0  0  0  0  0  0  0  0
   -0.2365   -2.9863   -1.0486 O   0  0  0  0  0  0  0  0  0  0  0  0
   -0.1076   -2.1498    1.5976 O   0  0  0  0  0  0  0  0  0  0  0  0
   -2.7743    3.2312   -1.9746 O   0  0  0  0  0  0  0  0  0  0  0  0
   -4.4168    2.0827   -0.9881 O   0  0  0  0  0  0  0  0  0  0  0  0
   -1.1087    1.2559   -2.1768 H   0  0  0  0  0  0  0  0  0  0  0  0
   -0.7590   -1.1057   -2.8142 H   0  0  0  0  0  0  0  0  0  0  0  0
   -0.6161    3.0457   -0.5460 H   0  0  0  0  0  0  0  0  0  0  0  0
   -0.5397    2.7111    1.1965 H   0  0  0  0  0  0  0  0  0  0  0  0
   -0.4575    0.4103    2.0109 H   0  0  0  0  0  0  0  0  0  0  0  0
   -2.5497    3.8894    0.6597 H   0  0  0  0  0  0  0  0  0  0  0  0
   -3.1361    1.0944    1.4499 H   0  0  0  0  0  0  0  0  0  0  0  0
   -4.0081    2.4843    1.8783 H   0  0  0  0  0  0  0  0  0  0  0  0
   -4.5721    1.7551   -0.0807 H   0  0  0  0  0  0  0  0  0  0  0  0
  1  5  1  0
  2  1  2  0
  2  7  1  0
  3  6  1  0
  3 18  1  0
  4 19  1  0
  5  3  1  0
  5  4  2  0
  6 20  1  1
  6 10  1  0
  7  8  1  0
  8  4  1  0
  8 12  2  0
  9  6  1  0
 10 22  1  0
 11  7  2  0
 13  9  2  0
 14  9  1  0
 14 23  1  0
 15  1  1  0
 16  2  1  0
 17  3  1  0
 21 10  1  0
M  END
>  <HBA>  (231) 
5

>  <HBD>  (231) 
2

>  <TPSA>  (231) 
97.46

>  <cid>  (231) 
682

>  <dipole>  (231) 
5.18

>  <excitation_energy_1>  (231) 
1.815

>  <excitation_energy_2>  (231) 
2.866

>  <excitation_energy_3>  (231) 
3.058

>  <excitation_energy_4>  (231) 
3.088

>  <homo_energy>  (231) 
-6.77

>  <homo_lumo_gap>  (231) 
3.181

>  <logP>  (231) 
0.123

>  <lumo_energy>  (231) 
-3.589

>  <melting_point>  (231) 
191.21

>  <molecular_refractivity>  (231) 
47.19

>  <oscillator_strength_1>  (231) 
0.0

>  <oscillator_strength_2>  (231) 
0.0083

>  <oscillator_strength_3>  (231) 
0.0184

>  <oscillator_strength_4>  (231) 
0.0182

>  <open_babel_can_smiles>  (231) 
OC(=O)[C@H](CC1=CC(=O)C(=O)C=C1)N

>  <mulliken_charges>  (231) 
23
1   -0.164083
2   -0.173458
3   -0.342001
4   -0.258279
5   0.142734
6   -0.070325
7   0.381623
8   0.388269
9   0.59087
10   -0.757595
11   -0.420288
12   -0.427276
13   -0.459505
14   -0.555869
15   0.190451
16   0.16995
17   0.188878
18   0.174383
19   0.163534
20   0.190599
21   0.327047
22   0.327883
23   0.392459

>  <lowdin_charges>  (231) 
23
1   -0.134066
2   -0.170728
3   -0.273367
4   -0.201038
5   0.01727
6   -0.098235
7   0.117415
8   0.12069
9   0.170537
10   -0.554931
11   -0.173382
12   -0.181418
13   -0.256456
14   -0.342139
15   0.1866
16   0.179904
17   0.178202
18   0.169762
19   0.175799
20   0.176104
21   0.271486
22   0.276082
23   0.345909

$$$$
PCCDB-ID:  690
     RDKit          3D

 20 20  0  0  1  0  0  0  0  0999 V2000
    1.1144   -0.0188   -0.1472 C   0  0  0  0  0  0  0  0  0  0  0  0
    5.3535    0.0080   -0.4873 C   0  0  0  0  0  0  0  0  0  0  0  0
    4.6570    1.1789    0.2194 C   0  0  0  0  0  0  0  0  0  0  0  0
    2.6204    0.0453   -0.1052 C   0  0  0  0  0  0  0  0  0  0  0  0
    4.6624   -1.3198   -0.1178 C   0  0  1  0  0  0  0  0  0  0  0  0
    4.9169   -1.7636    1.3389 C   0  0  0  0  0  0  0  0  0  0  0  0
    3.2017    1.1626    0.1241 N   0  0  0  0  0  0  0  0  0  0  0  0
    3.2480   -1.1749   -0.3875 N   0  0  0  0  0  0  0  0  0  0  0  0
    4.0414   -1.9930    2.1333 O   0  0  0  0  0  0  0  0  0  0  0  0
    6.2212   -1.9351    1.6820 O   0  0  0  0  0  0  0  0  0  0  0  0
    0.7108    0.9856   -0.0166 H   0  0  0  0  0  0  0  0  0  0  0  0
    0.7331   -0.6611    0.6574 H   0  0  0  0  0  0  0  0  0  0  0  0
    0.7634   -0.4335   -1.0999 H   0  0  0  0  0  0  0  0  0  0  0  0
    6.4238   -0.0127   -0.2452 H   0  0  0  0  0  0  0  0  0  0  0  0
    5.2759    0.1294   -1.5733 H   0  0  0  0  0  0  0  0  0  0  0  0
    5.0199    2.1256   -0.1991 H   0  0  0  0  0  0  0  0  0  0  0  0
    4.9325    1.1941    1.2850 H   0  0  0  0  0  0  0  0  0  0  0  0
    5.0606   -2.1216   -0.7590 H   0  0  0  0  0  0  0  0  0  0  0  0
    2.6964   -1.9859   -0.1339 H   0  0  0  0  0  0  0  0  0  0  0  0
    6.7993   -1.7155    0.9322 H   0  0  0  0  0  0  0  0  0  0  0  0
  1  4  1  0
  1 11  1  0
  1 12  1  0
  2 14  1  0
  2  5  1  0
  2  3  1  0
  3 17  1  0
  4  7  2  0
  5 18  1  6
  5  6  1  0
  6 10  1  0
  6  9  2  0
  7  3  1  0
  8 19  1  0
  8  5  1  0
  8  4  1  0
 13  1  1  0
 15  2  1  0
 16  3  1  0
 20 10  1  0
M  END
>  <HBA>  (232) 
4

>  <HBD>  (232) 
2

>  <TPSA>  (232) 
61.69

>  <cid>  (232) 
690

>  <dipole>  (232) 
3.99

>  <excitation_energy_1>  (232) 
4.847

>  <excitation_energy_2>  (232) 
5.25

>  <excitation_energy_3>  (232) 
5.302

>  <excitation_energy_4>  (232) 
5.673

>  <homo_energy>  (232) 
-6.172

>  <homo_lumo_gap>  (232) 
6.101

>  <logP>  (232) 
-0.384

>  <lumo_energy>  (232) 
-0.071

>  <melting_point>  (232) 
118.22

>  <molecular_refractivity>  (232) 
44.34

>  <oscillator_strength_1>  (232) 
0.0006

>  <oscillator_strength_2>  (232) 
0.0004

>  <oscillator_strength_3>  (232) 
0.0082

>  <oscillator_strength_4>  (232) 
0.0005

>  <open_babel_can_smiles>  (232) 
OC(=O)[C@@H]1CCN=C(N1)C

>  <mulliken_charges>  (232) 
20
1   -0.525126
2   -0.304527
3   -0.149079
4   0.479895
5   -0.103008
6   0.607009
7   -0.445911
8   -0.580219
9   -0.438153
10   -0.566024
11   0.187192
12   0.166427
13   0.16172
14   0.125803
15   0.171691
16   0.150864
17   0.156566
18   0.163219
19   0.327785
20   0.413877

>  <lowdin_charges>  (232) 
20
1   -0.452142
2   -0.288992
3   -0.207538
4   0.096381
5   -0.10935
6   0.181892
7   -0.241853
8   -0.299682
9   -0.233709
10   -0.355074
11   0.178165
12   0.165478
13   0.161577
14   0.140975
15   0.159943
16   0.152229
17   0.147684
18   0.160988
19   0.283885
20   0.359141

$$$$
PCCDB-ID:  691
     RDKit          3D

 20 20  0  0  0  0  0  0  0  0999 V2000
   -2.0566    0.1038   -0.1032 C   0  0  0  0  0  0  0  0  0  0  0  0
   -1.3619    1.2650    0.2410 C   0  0  0  0  0  0  0  0  0  0  0  0
   -1.3961   -1.1256   -0.0653 C   0  0  0  0  0  0  0  0  0  0  0  0
   -0.0227    1.2149    0.6215 C   0  0  0  0  0  0  0  0  0  0  0  0
   -0.0593   -1.1821    0.3135 C   0  0  0  0  0  0  0  0  0  0  0  0
    2.0593   -0.2274    1.0447 C   0  0  0  0  0  0  0  0  0  0  0  0
    0.6601   -0.0176    0.6649 C   0  0  0  0  0  0  0  0  0  0  0  0
    3.1101    0.5391    1.4227 C   0  0  0  0  0  0  0  0  0  0  0  0
    3.2245    2.0231    1.6057 C   0  0  0  0  0  0  0  0  0  0  0  0
    4.3356   -0.0490    1.7103 O   0  0  0  0  0  0  0  0  0  0  0  0
    2.3225    2.8178    1.4609 O   0  0  0  0  0  0  0  0  0  0  0  0
    4.4569    2.4442    1.9579 O   0  0  0  0  0  0  0  0  0  0  0  0
   -3.1014    0.1554   -0.3975 H   0  0  0  0  0  0  0  0  0  0  0  0
   -1.8670    2.2270    0.2152 H   0  0  0  0  0  0  0  0  0  0  0  0
   -1.9209   -2.0395   -0.3302 H   0  0  0  0  0  0  0  0  0  0  0  0
    0.5032    2.1209    0.8871 H   0  0  0  0  0  0  0  0  0  0  0  0
    0.4456   -2.1454    0.3395 H   0  0  0  0  0  0  0  0  0  0  0  0
    2.3175   -1.2893    1.0076 H   0  0  0  0  0  0  0  0  0  0  0  0
    4.2944   -1.0058    1.5576 H   0  0  0  0  0  0  0  0  0  0  0  0
    5.0459    1.6690    2.0250 H   0  0  0  0  0  0  0  0  0  0  0  0
  1  3  2  0
  1  2  1  0
  2  4  2  0
  3  5  1  0
  4  7  1  0
  4 16  1  0
  5 17  1  0
  5  7  2  0
  6  8  2  0
  7  6  1  0
  8  9  1  0
  8 10  1  0
  9 12  1  0
 11  9  2  0
 12 20  1  0
 13  1  1  0
 14  2  1  0
 15  3  1  0
 18  6  1  0
 19 10  1  0
M  END
>  <HBA>  (233) 
3

>  <HBD>  (233) 
2

>  <TPSA>  (233) 
57.53

>  <cid>  (233) 
691

>  <dipole>  (233) 
4.74

>  <excitation_energy_1>  (233) 
4.109

>  <excitation_energy_2>  (233) 
4.337

>  <excitation_energy_3>  (233) 
4.513

>  <excitation_energy_4>  (233) 
4.897

>  <homo_energy>  (233) 
-6.06

>  <homo_lumo_gap>  (233) 
4.338

>  <logP>  (233) 
1.67

>  <lumo_energy>  (233) 
-1.722

>  <melting_point>  (233) 
118.04

>  <molecular_refractivity>  (233) 
44.68

>  <oscillator_strength_1>  (233) 
0.4835

>  <oscillator_strength_2>  (233) 
0.0276

>  <oscillator_strength_3>  (233) 
0.0

>  <oscillator_strength_4>  (233) 
0.0002

>  <open_babel_can_smiles>  (233) 
O/C(=C/c1ccccc1)/C(=O)O

>  <mulliken_charges>  (233) 
20
1   -0.124167
2   -0.136178
3   -0.131701
4   -0.194032
5   -0.194942
6   -0.284733
7   0.181339
8   0.30754
9   0.584037
10   -0.681313
11   -0.455428
12   -0.57913
13   0.133374
14   0.137447
15   0.131747
16   0.205348
17   0.12426
18   0.11716
19   0.421249
20   0.438123

>  <lowdin_charges>  (233) 
20
1   -0.146149
2   -0.153711
3   -0.160289
4   -0.155961
5   -0.158716
6   -0.173725
7   -0.002376
8   0.042086
9   0.195352
10   -0.404606
11   -0.241957
12   -0.347639
13   0.158034
14   0.161187
15   0.159548
16   0.193065
17   0.152725
18   0.153325
19   0.362271
20   0.367536

$$$$
PCCDB-ID:  696
     RDKit          3D

 22 21  0  0  1  0  0  0  0  0999 V2000
    1.3084   -0.1824   -0.1521 C   0  0  0  0  0  0  0  0  0  0  0  0
    0.4509   -0.7534   -1.2684 C   0  0  1  0  0  0  0  0  0  0  0  0
    0.9821   -2.1088   -1.7581 C   0  0  1  0  0  0  0  0  0  0  0  0
    0.1945   -2.6434   -2.9718 C   0  0  0  0  0  0  0  0  0  0  0  0
   -0.8817   -0.9887   -0.7968 O   0  0  0  0  0  0  0  0  0  0  0  0
    2.3361   -1.9845   -2.1056 O   0  0  0  0  0  0  0  0  0  0  0  0
    0.7934   -3.0920   -3.9267 O   0  0  0  0  0  0  0  0  0  0  0  0
   -1.1364   -2.6163   -2.9013 O   0  0  0  0  0  0  0  0  0  0  0  0
    1.4098    0.9496    2.6079 O   0  0  0  0  0  0  0  0  0  0  0  0
    2.7928    2.2569    0.9777 O   0  0  0  0  0  0  0  0  0  0  0  0
    0.4530    3.2207    1.6133 O   0  0  0  0  0  0  0  0  0  0  0  0
    0.6431    1.0407    0.2575 O   0  0  0  0  0  0  0  0  0  0  0  0
    1.2458    1.9987    1.3946 P   0  0  0  0  0  0  0  0  0  0  0  0
    2.3161    0.0374   -0.5098 H   0  0  0  0  0  0  0  0  0  0  0  0
    1.3514   -0.8688    0.6990 H   0  0  0  0  0  0  0  0  0  0  0  0
    0.4425   -0.0417   -2.1066 H   0  0  0  0  0  0  0  0  0  0  0  0
    0.8436   -2.8351   -0.9371 H   0  0  0  0  0  0  0  0  0  0  0  0
   -1.2239   -0.1481   -0.4482 H   0  0  0  0  0  0  0  0  0  0  0  0
    2.4177   -2.4481   -2.9648 H   0  0  0  0  0  0  0  0  0  0  0  0
   -1.4039   -2.1116   -2.0964 H   0  0  0  0  0  0  0  0  0  0  0  0
    1.7615    1.3708    3.4095 H   0  0  0  0  0  0  0  0  0  0  0  0
    2.8832    3.1450    0.5930 H   0  0  0  0  0  0  0  0  0  0  0  0
  1 12  1  0
  1 15  1  0
  2 16  1  6
  2  5  1  0
  2  1  1  0
  3  2  1  0
  3 17  1  1
  4  8  1  0
  4  3  1  0
  5 18  1  0
  6  3  1  0
  7  4  2  0
  8 20  1  0
  9 21  1  0
 10 13  1  0
 12 13  1  0
 13 11  2  0
 13  9  1  0
 14  1  1  0
 19  6  1  0
 22 10  1  0
M  END
>  <HBA>  (234) 
8

>  <HBD>  (234) 
5

>  <TPSA>  (234) 
154.33

>  <cid>  (234) 
696

>  <dipole>  (234) 
3.8

>  <excitation_energy_1>  (234) 
5.905

>  <excitation_energy_2>  (234) 
6.702

>  <excitation_energy_3>  (234) 
6.77

>  <excitation_energy_4>  (234) 
6.875

>  <homo_energy>  (234) 
-7.739

>  <homo_lumo_gap>  (234) 
7.674

>  <logP>  (234) 
-2.098

>  <lumo_energy>  (234) 
-0.065

>  <melting_point>  (234) 
168.89

>  <molecular_refractivity>  (234) 
37.51

>  <oscillator_strength_1>  (234) 
0.0007

>  <oscillator_strength_2>  (234) 
0.0069

>  <oscillator_strength_3>  (234) 
0.0117

>  <oscillator_strength_4>  (234) 
0.0214

>  <open_babel_can_smiles>  (234) 
O[C@H]([C@@H](C(=O)O)O)COP(=O)(O)O

>  <mulliken_charges>  (234) 
22
1   -0.046614
2   0.087885
3   0.042523
4   0.585408
5   -0.662894
6   -0.645191
7   -0.469037
8   -0.575351
9   -0.646526
10   -0.657024
11   -0.523226
12   -0.538857
13   1.155504
14   0.197936
15   0.178268
16   0.157437
17   0.164283
18   0.434632
19   0.420848
20   0.449102
21   0.446367
22   0.444528

>  <lowdin_charges>  (234) 
22
1   -0.131775
2   -0.018537
3   -0.04996
4   0.180572
5   -0.460684
6   -0.453956
7   -0.254311
8   -0.33927
9   -0.559009
10   -0.574618
11   -0.569333
12   -0.396521
13   1.109228
14   0.176048
15   0.165749
16   0.149507
17   0.155024
18   0.367795
19   0.357301
20   0.3681
21   0.390712
22   0.387939

$$$$
PCCDB-ID:  697
     RDKit          3D

 21 20  0  0  1  0  0  0  0  0999 V2000
    0.5292    0.8396    1.5742 C   0  0  0  0  0  0  0  0  0  0  0  0
    0.1185    3.6695    0.2140 C   0  0  0  0  0  0  0  0  0  0  0  0
   -0.0237    1.0899    0.1723 C   0  0  1  0  0  0  0  0  0  0  0  0
    0.5116    2.3683   -0.4872 C   0  0  2  0  0  0  0  0  0  0  0  0
    1.4792    1.4332    2.0531 O   0  0  0  0  0  0  0  0  0  0  0  0
    0.3797   -0.0533   -0.5812 O   0  0  0  0  0  0  0  0  0  0  0  0
    1.9302    2.2861   -0.6086 O   0  0  0  0  0  0  0  0  0  0  0  0
   -1.4088    5.3589    2.2684 O   0  0  0  0  0  0  0  0  0  0  0  0
   -1.5620    6.1293   -0.1169 O   0  0  0  0  0  0  0  0  0  0  0  0
   -3.5770    4.7720    0.9545 O   0  0  0  0  0  0  0  0  0  0  0  0
   -1.3255    3.7016    0.2977 O   0  0  0  0  0  0  0  0  0  0  0  0
   -2.1202    4.9717    0.8586 P   0  0  0  0  0  0  0  0  0  0  0  0
    0.0627   -0.0089    2.1141 H   0  0  0  0  0  0  0  0  0  0  0  0
    0.4789    4.5189   -0.3723 H   0  0  0  0  0  0  0  0  0  0  0  0
    0.5392    3.7217    1.2226 H   0  0  0  0  0  0  0  0  0  0  0  0
   -1.1177    1.0925    0.1977 H   0  0  0  0  0  0  0  0  0  0  0  0
    0.1219    2.3897   -1.5101 H   0  0  0  0  0  0  0  0  0  0  0  0
    1.2975    0.1409   -0.8516 H   0  0  0  0  0  0  0  0  0  0  0  0
    2.2711    2.2395    0.3054 H   0  0  0  0  0  0  0  0  0  0  0  0
   -1.9871    5.0943    3.0031 H   0  0  0  0  0  0  0  0  0  0  0  0
   -1.9777    6.9886    0.0635 H   0  0  0  0  0  0  0  0  0  0  0  0
  1  5  2  0
  1 13  1  0
  2 11  1  0
  2 15  1  0
  3 16  1  1
  3  1  1  0
  4 17  1  6
  4  3  1  0
  4  2  1  0
  6  3  1  0
  7  4  1  0
  7 19  1  0
  8 20  1  0
  9 21  1  0
  9 12  1  0
 11 12  1  0
 12 10  2  0
 12  8  1  0
 14  2  1  0
 18  6  1  0
M  END
>  <HBA>  (235) 
7

>  <HBD>  (235) 
4

>  <TPSA>  (235) 
134.1

>  <cid>  (235) 
697

>  <dipole>  (235) 
2.45

>  <excitation_energy_1>  (235) 
3.936

>  <excitation_energy_2>  (235) 
5.454

>  <excitation_energy_3>  (235) 
6.059

>  <excitation_energy_4>  (235) 
6.151

>  <homo_energy>  (235) 
-7.176

>  <homo_lumo_gap>  (235) 
5.668

>  <logP>  (235) 
-1.984

>  <lumo_energy>  (235) 
-1.508

>  <melting_point>  (235) 
123.45

>  <molecular_refractivity>  (235) 
35.94

>  <oscillator_strength_1>  (235) 
0.0019

>  <oscillator_strength_2>  (235) 
0.0035

>  <oscillator_strength_3>  (235) 
0.0195

>  <oscillator_strength_4>  (235) 
0.0013

>  <open_babel_can_smiles>  (235) 
O=C[C@@H]([C@@H](COP(=O)(O)O)O)O

>  <mulliken_charges>  (235) 
21
1   0.241608
2   -0.072965
3   0.061848
4   0.073377
5   -0.408214
6   -0.618701
7   -0.648658
8   -0.660911
9   -0.647118
10   -0.528067
11   -0.516932
12   1.156072
13   0.143308
14   0.1857
15   0.174456
16   0.17936
17   0.174068
18   0.408984
19   0.416015
20   0.44209
21   0.444682

>  <lowdin_charges>  (235) 
21
1   0.052926
2   -0.137994
3   -0.049253
4   -0.022976
5   -0.23273
6   -0.435543
7   -0.458955
8   -0.579267
9   -0.559958
10   -0.572064
11   -0.38823
12   1.107459
13   0.141119
14   0.16979
15   0.159646
16   0.1697
17   0.163825
18   0.3491
19   0.346505
20   0.387964
21   0.388935

$$$$
PCCDB-ID:  700
     RDKit          3D

 11 10  0  0  0  0  0  0  0  0999 V2000
    1.0667   -0.0764    0.0618 C   0  0  0  0  0  0  0  0  0  0  0  0
    0.5345    0.9207   -0.9692 C   0  0  0  0  0  0  0  0  0  0  0  0
    2.5314   -0.0866    0.0462 N   0  0  0  0  0  0  0  0  0  0  0  0
   -0.8852    0.9987   -0.9658 O   0  0  0  0  0  0  0  0  0  0  0  0
    0.6008   -1.0648   -0.1260 H   0  0  0  0  0  0  0  0  0  0  0  0
    0.7316    0.2440    1.0546 H   0  0  0  0  0  0  0  0  0  0  0  0
    0.9208    0.6661   -1.9717 H   0  0  0  0  0  0  0  0  0  0  0  0
    0.8990    1.9223   -0.7265 H   0  0  0  0  0  0  0  0  0  0  0  0
    2.8675   -0.5347   -0.8052 H   0  0  0  0  0  0  0  0  0  0  0  0
    2.8853   -0.6467    0.8188 H   0  0  0  0  0  0  0  0  0  0  0  0
   -1.2268    0.1356   -1.2471 H   0  0  0  0  0  0  0  0  0  0  0  0
  1  6  1  0
  2  4  1  0
  2  8  1  0
  2  1  1  0
  3  1  1  0
  3 10  1  0
  5  1  1  0
  7  2  1  0
  9  3  1  0
 11  4  1  0
M  END
>  <HBA>  (236) 
2

>  <HBD>  (236) 
2

>  <TPSA>  (236) 
46.25

>  <cid>  (236) 
700

>  <dipole>  (236) 
2.83

>  <excitation_energy_1>  (236) 
5.67

>  <excitation_energy_2>  (236) 
6.138

>  <excitation_energy_3>  (236) 
6.58

>  <excitation_energy_4>  (236) 
6.692

>  <homo_energy>  (236) 
-6.436

>  <homo_lumo_gap>  (236) 
8.425

>  <logP>  (236) 
-0.362

>  <lumo_energy>  (236) 
1.989

>  <melting_point>  (236) 
48.96

>  <molecular_refractivity>  (236) 
15.6

>  <oscillator_strength_1>  (236) 
0.0088

>  <oscillator_strength_2>  (236) 
0.034

>  <oscillator_strength_3>  (236) 
0.0106

>  <oscillator_strength_4>  (236) 
0.0164

>  <open_babel_can_smiles>  (236) 
NCCO

>  <mulliken_charges>  (236) 
11
1   -0.15634
2   -0.021924
3   -0.717182
4   -0.612982
5   0.099105
6   0.154626
7   0.111025
8   0.162963
9   0.293975
10   0.301316
11   0.385418

>  <lowdin_charges>  (236) 
11
1   -0.221665
2   -0.137253
3   -0.559269
4   -0.466319
5   0.108866
6   0.149541
7   0.120064
8   0.154628
9   0.252969
10   0.25963
11   0.338807

$$$$
PCCDB-ID:  701
     RDKit          3D

 22 21  0  0  1  0  0  0  0  0999 V2000
    2.8062   -3.2209    0.8276 C   0  0  0  0  0  0  0  0  0  0  0  0
    6.3459    0.2865   -1.5582 C   0  0  0  0  0  0  0  0  0  0  0  0
    4.6285    1.3596    1.8278 C   0  0  0  0  0  0  0  0  0  0  0  0
    3.5749   -2.9778   -0.4620 C   0  0  0  0  0  0  0  0  0  0  0  0
    5.6943    0.0736   -0.1814 C   0  0  1  0  0  0  0  0  0  0  0  0
    5.4114    1.4118    0.5300 C   0  0  0  0  0  0  0  0  0  0  0  0
    4.4243   -0.7527   -0.3367 C   0  0  0  0  0  0  0  0  0  0  0  0
    5.8337    2.4562    0.0773 O   0  0  0  0  0  0  0  0  0  0  0  0
    3.3245   -0.2904   -0.5611 O   0  0  0  0  0  0  0  0  0  0  0  0
    4.6893   -2.0734   -0.2476 O   0  0  0  0  0  0  0  0  0  0  0  0
    2.0185   -3.9632    0.6554 H   0  0  0  0  0  0  0  0  0  0  0  0
    2.3348   -2.2974    1.1755 H   0  0  0  0  0  0  0  0  0  0  0  0
    3.4695   -3.5997    1.6120 H   0  0  0  0  0  0  0  0  0  0  0  0
    7.2378    0.9084   -1.4539 H   0  0  0  0  0  0  0  0  0  0  0  0
    5.6553    0.8026   -2.2312 H   0  0  0  0  0  0  0  0  0  0  0  0
    6.6260   -0.6734   -2.0021 H   0  0  0  0  0  0  0  0  0  0  0  0
    4.9641    0.5343    2.4675 H   0  0  0  0  0  0  0  0  0  0  0  0
    3.5706    1.1875    1.5995 H   0  0  0  0  0  0  0  0  0  0  0  0
    4.7337    2.3095    2.3555 H   0  0  0  0  0  0  0  0  0  0  0  0
    2.9286   -2.5603   -1.2375 H   0  0  0  0  0  0  0  0  0  0  0  0
    4.0414   -3.8946   -0.8304 H   0  0  0  0  0  0  0  0  0  0  0  0
    6.3810   -0.4950    0.4608 H   0  0  0  0  0  0  0  0  0  0  0  0
  1 12  1  0
  1 13  1  0
  2 14  1  0
  2  5  1  0
  3 19  1  0
  3 17  1  0
  4 10  1  0
  4  1  1  0
  5 22  1  1
  5  6  1  0
  6  3  1  0
  7 10  1  0
  7  5  1  0
  8  6  2  0
  9  7  2  0
 11  1  1  0
 15  2  1  0
 16  2  1  0
 18  3  1  0
 20  4  1  0
 21  4  1  0
M  END
>  <HBA>  (237) 
3

>  <HBD>  (237) 
0

>  <TPSA>  (237) 
43.37

>  <cid>  (237) 
701

>  <dipole>  (237) 
3.76

>  <excitation_energy_1>  (237) 
4.403

>  <excitation_energy_2>  (237) 
5.648

>  <excitation_energy_3>  (237) 
5.756

>  <excitation_energy_4>  (237) 
6.212

>  <homo_energy>  (237) 
-6.795

>  <homo_lumo_gap>  (237) 
6.289

>  <logP>  (237) 
0.775

>  <lumo_energy>  (237) 
-0.506

>  <melting_point>  (237) 
6.61

>  <molecular_refractivity>  (237) 
37.25

>  <oscillator_strength_1>  (237) 
0.0002

>  <oscillator_strength_2>  (237) 
0.002

>  <oscillator_strength_3>  (237) 
0.0114

>  <oscillator_strength_4>  (237) 
0.0057

>  <open_babel_can_smiles>  (237) 
CCOC(=O)[C@H](C(=O)C)C

>  <mulliken_charges>  (237) 
22
1   -0.462602
2   -0.446183
3   -0.543689
4   -0.048024
5   -0.260148
6   0.477764
7   0.624179
8   -0.432312
9   -0.482864
10   -0.460272
11   0.15457
12   0.17488
13   0.158347
14   0.175713
15   0.173448
16   0.15253
17   0.159174
18   0.202886
19   0.180024
20   0.174232
21   0.156794
22   0.171552

>  <lowdin_charges>  (237) 
22
1   -0.456308
2   -0.434231
3   -0.47946
4   -0.130053
5   -0.181296
6   0.175642
7   0.199029
8   -0.222564
9   -0.270991
10   -0.192757
11   0.161802
12   0.165024
13   0.157683
14   0.169336
15   0.166753
16   0.155949
17   0.164066
18   0.18688
19   0.174577
20   0.161915
21   0.154933
22   0.174073

$$$$
PCCDB-ID:  702
     RDKit          3D

  9  8  0  0  0  0  0  0  0  0999 V2000
    0.9551   -0.0121   -0.0987 C   0  0  0  0  0  0  0  0  0  0  0  0
    2.4812   -0.0089   -0.1238 C   0  0  0  0  0  0  0  0  0  0  0  0
    3.0237    1.2234   -0.5873 O   0  0  0  0  0  0  0  0  0  0  0  0
    0.5699   -0.9547    0.3086 H   0  0  0  0  0  0  0  0  0  0  0  0
    0.5447    0.1040   -1.1106 H   0  0  0  0  0  0  0  0  0  0  0  0
    0.5804    0.8131    0.5158 H   0  0  0  0  0  0  0  0  0  0  0  0
    2.8527   -0.8557   -0.7244 H   0  0  0  0  0  0  0  0  0  0  0  0
    2.8777   -0.1353    0.8890 H   0  0  0  0  0  0  0  0  0  0  0  0
    2.7159    1.3508   -1.4982 H   0  0  0  0  0  0  0  0  0  0  0  0
  1  4  1  0
  1  6  1  0
  2  1  1  0
  2  8  1  0
  3  2  1  0
  5  1  1  0
  7  2  1  0
  9  3  1  0
M  END
>  <HBA>  (238) 
1

>  <HBD>  (238) 
1

>  <TPSA>  (238) 
20.23

>  <cid>  (238) 
702

>  <dipole>  (238) 
1.67

>  <excitation_energy_1>  (238) 
6.565

>  <excitation_energy_2>  (238) 
7.466

>  <excitation_energy_3>  (238) 
7.63

>  <excitation_energy_4>  (238) 
7.94

>  <homo_energy>  (238) 
-7.157

>  <homo_lumo_gap>  (238) 
9.219

>  <logP>  (238) 
-0.001

>  <lumo_energy>  (238) 
2.063

>  <melting_point>  (238) 
-5.29

>  <molecular_refractivity>  (238) 
12.89

>  <oscillator_strength_1>  (238) 
0.0108

>  <oscillator_strength_2>  (238) 
0.0254

>  <oscillator_strength_3>  (238) 
0.0323

>  <oscillator_strength_4>  (238) 
0.0435

>  <open_babel_can_smiles>  (238) 
CCO

>  <mulliken_charges>  (238) 
9
1   -0.457258
2   -0.025619
3   -0.60971
4   0.143375
5   0.135407
6   0.16023
7   0.120024
8   0.149021
9   0.384531

>  <lowdin_charges>  (238) 
9
1   -0.463855
2   -0.130845
3   -0.469378
4   0.154036
5   0.143097
6   0.157617
7   0.125148
8   0.146173
9   0.338008

$$$$
PCCDB-ID:  709
     RDKit          3D

 24 24  0  0  0  0  0  0  0  0999 V2000
    3.5249   -1.2734   -1.1939 C   0  0  0  0  0  0  0  0  0  0  0  0
    4.4426    3.5112   -2.3618 C   0  0  0  0  0  0  0  0  0  0  0  0
    3.0815    4.5519   -0.5903 C   0  0  0  0  0  0  0  0  0  0  0  0
    5.0754    2.4180   -2.9464 C   0  0  0  0  0  0  0  0  0  0  0  0
    2.3871    4.6478    0.5603 C   0  0  0  0  0  0  0  0  0  0  0  0
    3.6394    2.0904   -0.5888 C   0  0  0  0  0  0  0  0  0  0  0  0
    3.7181    3.3739   -1.1665 C   0  0  0  0  0  0  0  0  0  0  0  0
    5.0031    1.1560   -2.3533 C   0  0  0  0  0  0  0  0  0  0  0  0
    4.2617    0.9901   -1.1604 C   0  0  0  0  0  0  0  0  0  0  0  0
    1.8160    5.9532    0.9688 C   0  0  0  0  0  0  0  0  0  0  0  0
    5.6268    0.0582   -2.8690 O   0  0  0  0  0  0  0  0  0  0  0  0
    1.9035    6.9781    0.3298 O   0  0  0  0  0  0  0  0  0  0  0  0
    1.1479    5.9599    2.1604 O   0  0  0  0  0  0  0  0  0  0  0  0
    4.2021   -0.2143   -0.5086 O   0  0  0  0  0  0  0  0  0  0  0  0
    3.5385   -2.1257   -0.5113 H   0  0  0  0  0  0  0  0  0  0  0  0
    4.0327   -1.5408   -2.1249 H   0  0  0  0  0  0  0  0  0  0  0  0
    2.4843   -0.9950   -1.4065 H   0  0  0  0  0  0  0  0  0  0  0  0
    4.5151    4.4865   -2.8349 H   0  0  0  0  0  0  0  0  0  0  0  0
    3.1815    5.4754   -1.1594 H   0  0  0  0  0  0  0  0  0  0  0  0
    5.6415    2.5431   -3.8678 H   0  0  0  0  0  0  0  0  0  0  0  0
    2.2351    3.7847    1.2060 H   0  0  0  0  0  0  0  0  0  0  0  0
    3.0885    1.9211    0.3306 H   0  0  0  0  0  0  0  0  0  0  0  0
    6.1060    0.3176   -3.6720 H   0  0  0  0  0  0  0  0  0  0  0  0
    1.1694    5.0754    2.5602 H   0  0  0  0  0  0  0  0  0  0  0  0
  1 15  1  0
  1 14  1  0
  2  7  2  0
  3  5  2  0
  4  2  1  0
  4  8  2  0
  5 10  1  0
  5 21  1  0
  6 22  1  0
  7  3  1  0
  7  6  1  0
  8  9  1  0
  9  6  2  0
  9 14  1  0
 10 13  1  0
 11  8  1  0
 12 10  2  0
 13 24  1  0
 16  1  1  0
 17  1  1  0
 18  2  1  0
 19  3  1  0
 20  4  1  0
 23 11  1  0
M  END
>  <HBA>  (239) 
4

>  <HBD>  (239) 
2

>  <TPSA>  (239) 
66.76

>  <cid>  (239) 
709

>  <dipole>  (239) 
6.11

>  <excitation_energy_1>  (239) 
4.028

>  <excitation_energy_2>  (239) 
4.312

>  <excitation_energy_3>  (239) 
4.386

>  <excitation_energy_4>  (239) 
5.04

>  <homo_energy>  (239) 
-6.046

>  <homo_lumo_gap>  (239) 
4.31

>  <logP>  (239) 
1.499

>  <lumo_energy>  (239) 
-1.736

>  <melting_point>  (239) 
150.42

>  <molecular_refractivity>  (239) 
51.63

>  <oscillator_strength_1>  (239) 
0.4963

>  <oscillator_strength_2>  (239) 
0.0026

>  <oscillator_strength_3>  (239) 
0.1548

>  <oscillator_strength_4>  (239) 
0.0563

>  <open_babel_can_smiles>  (239) 
COc1cc(/C=C/C(=O)O)ccc1O

>  <mulliken_charges>  (239) 
24
1   -0.217906
2   -0.192896
3   -0.151981
4   -0.201055
5   -0.248592
6   -0.235759
7   0.170864
8   0.320958
9   0.34245
10   0.608383
11   -0.631591
12   -0.465613
13   -0.586711
14   -0.520005
15   0.164302
16   0.170629
17   0.142599
18   0.145438
19   0.172009
20   0.130772
21   0.12368
22   0.139644
23   0.415347
24   0.405035

>  <lowdin_charges>  (239) 
24
1   -0.275446
2   -0.145027
3   -0.091809
4   -0.206217
5   -0.24428
6   -0.15933
7   -0.023337
8   0.087881
9   0.071699
10   0.196656
11   -0.36151
12   -0.259178
13   -0.363721
14   -0.220185
15   0.159903
16   0.153841
17   0.139259
18   0.165987
19   0.179419
20   0.158821
21   0.15123
22   0.16819
23   0.363922
24   0.353232

$$$$
PCCDB-ID:  722
     RDKit          3D

 23 23  0  0  1  0  0  0  0  0999 V2000
    1.3771   -0.2607    0.2282 C   0  0  0  0  0  0  0  0  0  0  0  0
    0.7064   -1.1296    1.2774 C   0  0  2  0  0  0  0  0  0  0  0  0
    1.4511   -1.2185    2.6247 C   0  0  2  0  0  0  0  0  0  0  0  0
    1.0681   -2.6262    3.1149 C   0  0  2  0  0  0  0  0  0  0  0  0
    2.2849   -4.1498    1.4491 C   0  0  0  0  0  0  0  0  0  0  0  0
    0.9616   -3.4238    1.7926 C   0  0  1  0  0  0  0  0  0  0  0  0
    0.6506   -0.2310   -0.9893 O   0  0  0  0  0  0  0  0  0  0  0  0
    1.1217   -0.1919    3.5258 O   0  0  0  0  0  0  0  0  0  0  0  0
   -0.2047   -2.5078    3.7265 O   0  0  0  0  0  0  0  0  0  0  0  0
    3.3416   -3.5671    1.4734 O   0  0  0  0  0  0  0  0  0  0  0  0
    2.1592   -5.4429    1.1231 O   0  0  0  0  0  0  0  0  0  0  0  0
   -0.0912   -4.3924    1.8556 O   0  0  0  0  0  0  0  0  0  0  0  0
    0.6704   -2.4969    0.7718 O   0  0  0  0  0  0  0  0  0  0  0  0
    2.4084   -0.6157    0.0774 H   0  0  0  0  0  0  0  0  0  0  0  0
    1.4186    0.7683    0.5993 H   0  0  0  0  0  0  0  0  0  0  0  0
   -0.3265   -0.7962    1.4358 H   0  0  0  0  0  0  0  0  0  0  0  0
    2.5313   -1.1766    2.4577 H   0  0  0  0  0  0  0  0  0  0  0  0
    1.8043   -3.0578    3.8033 H   0  0  0  0  0  0  0  0  0  0  0  0
    0.6530   -1.1388   -1.3325 H   0  0  0  0  0  0  0  0  0  0  0  0
    0.2495   -0.4218    3.8924 H   0  0  0  0  0  0  0  0  0  0  0  0
   -0.6354   -3.3771    3.6540 H   0  0  0  0  0  0  0  0  0  0  0  0
    1.2079   -5.6621    1.2103 H   0  0  0  0  0  0  0  0  0  0  0  0
   -0.7852   -4.0558    1.2614 H   0  0  0  0  0  0  0  0  0  0  0  0
  1 15  1  0
  1  2  1  0
  2 16  1  1
  2  3  1  0
  3 17  1  6
  3  4  1  0
  3  8  1  0
  4  9  1  0
  4 18  1  1
  5 10  2  0
  6  5  1  0
  6 12  1  1
  6  4  1  0
  7  1  1  0
  8 20  1  0
 11 22  1  0
 11  5  1  0
 13  2  1  0
 13  6  1  0
 14  1  1  0
 19  7  1  0
 21  9  1  0
 23 12  1  0
M  END
>  <HBA>  (240) 
7

>  <HBD>  (240) 
5

>  <TPSA>  (240) 
127.45

>  <cid>  (240) 
722

>  <dipole>  (240) 
4.67

>  <excitation_energy_1>  (240) 
5.417

>  <excitation_energy_2>  (240) 
6.055

>  <excitation_energy_3>  (240) 
6.13

>  <excitation_energy_4>  (240) 
6.395

>  <homo_energy>  (240) 
-7.227

>  <homo_lumo_gap>  (240) 
6.827

>  <logP>  (240) 
-3.127

>  <lumo_energy>  (240) 
-0.4

>  <melting_point>  (240) 
149.72

>  <molecular_refractivity>  (240) 
36.38

>  <oscillator_strength_1>  (240) 
0.001

>  <oscillator_strength_2>  (240) 
0.0022

>  <oscillator_strength_3>  (240) 
0.001

>  <oscillator_strength_4>  (240) 
0.0131

>  <open_babel_can_smiles>  (240) 
OC[C@H]1O[C@@]([C@@H]([C@@H]1O)O)(O)C(=O)O

>  <mulliken_charges>  (240) 
23
1   -0.049644
2   0.113509
3   0.105573
4   0.060622
5   0.601777
6   0.443652
7   -0.616186
8   -0.62954
9   -0.658271
10   -0.450163
11   -0.570865
12   -0.68491
13   -0.548458
14   0.144832
15   0.165706
16   0.147739
17   0.18
18   0.162566
19   0.398524
20   0.414882
21   0.41331
22   0.434615
23   0.420732

>  <lowdin_charges>  (240) 
23
1   -0.141835
2   -0.024889
3   -0.022171
4   -0.039063
5   0.169112
6   0.15553
7   -0.460294
8   -0.437592
9   -0.459788
10   -0.237476
11   -0.331412
12   -0.452041
13   -0.266507
14   0.140212
15   0.161484
16   0.146704
17   0.165583
18   0.15621
19   0.344663
20   0.351288
21   0.352
22   0.364741
23   0.365541

$$$$
PCCDB-ID:  723
     RDKit          3D

 12 11  0  0  0  0  0  0  0  0999 V2000
    1.0090   -0.0524   -0.1022 C   0  0  0  0  0  0  0  0  0  0  0  0
    0.2293    0.4822   -1.0467 C   0  0  0  0  0  0  0  0  0  0  0  0
    2.4976    0.0175   -0.2180 C   0  0  0  0  0  0  0  0  0  0  0  0
   -1.2593    0.4122   -0.9311 C   0  0  0  0  0  0  0  0  0  0  0  0
    3.0749    0.5543   -1.1334 O   0  0  0  0  0  0  0  0  0  0  0  0
    3.1950   -0.5705    0.7860 O   0  0  0  0  0  0  0  0  0  0  0  0
   -1.8367   -0.1159   -0.0107 O   0  0  0  0  0  0  0  0  0  0  0  0
   -1.9565    0.9889   -1.9417 O   0  0  0  0  0  0  0  0  0  0  0  0
    0.5405   -0.5380    0.7521 H   0  0  0  0  0  0  0  0  0  0  0  0
    0.6980    0.9676   -1.9010 H   0  0  0  0  0  0  0  0  0  0  0  0
    2.5935   -0.9568    1.4438 H   0  0  0  0  0  0  0  0  0  0  0  0
   -1.3550    1.3696   -2.6029 H   0  0  0  0  0  0  0  0  0  0  0  0
  1  9  1  0
  2  4  1  0
  2  1  2  0
  3  1  1  0
  3  6  1  0
  4  7  2  0
  5  3  2  0
  6 11  1  0
  8  4  1  0
 10  2  1  0
 12  8  1  0
M  END
>  <HBA>  (241) 
4

>  <HBD>  (241) 
2

>  <TPSA>  (241) 
74.6

>  <cid>  (241) 
723

>  <dipole>  (241) 
0.03

>  <excitation_energy_1>  (241) 
3.905

>  <excitation_energy_2>  (241) 
4.087

>  <excitation_energy_3>  (241) 
5.336

>  <excitation_energy_4>  (241) 
5.718

>  <homo_energy>  (241) 
-7.943

>  <homo_lumo_gap>  (241) 
5.181

>  <logP>  (241) 
-0.288

>  <lumo_energy>  (241) 
-2.762

>  <melting_point>  (241) 
138.87

>  <molecular_refractivity>  (241) 
24.41

>  <oscillator_strength_1>  (241) 
0.0001

>  <oscillator_strength_2>  (241) 
0.0

>  <oscillator_strength_3>  (241) 
0.1976

>  <oscillator_strength_4>  (241) 
0.0

>  <open_babel_can_smiles>  (241) 
OC(=O)/C=C/C(=O)O

>  <mulliken_charges>  (241) 
12
1   -0.193266
2   -0.193502
3   0.608294
4   0.608407
5   -0.441461
6   -0.56857
7   -0.44148
8   -0.568599
9   0.177812
10   0.177821
11   0.417273
12   0.417271

>  <lowdin_charges>  (241) 
12
1   -0.162882
2   -0.162905
3   0.194629
4   0.194651
5   -0.233934
6   -0.343054
7   -0.233941
8   -0.34306
9   0.180646
10   0.180647
11   0.364607
12   0.364596

$$$$
PCCDB-ID:  729
     RDKit          3D

 17 16  0  0  1  0  0  0  0  0999 V2000
    0.0933    1.5126    3.4896 C   0  0  0  0  0  0  0  0  0  0  0  0
    0.1761    0.5351    1.1626 C   0  0  0  0  0  0  0  0  0  0  0  0
   -0.3104    0.3344    2.6026 C   0  0  1  0  0  0  0  0  0  0  0  0
    0.1554    2.6542    3.0938 O   0  0  0  0  0  0  0  0  0  0  0  0
    0.1181   -0.9012    3.1787 O   0  0  0  0  0  0  0  0  0  0  0  0
   -0.5548   -2.8985    1.2728 O   0  0  0  0  0  0  0  0  0  0  0  0
    0.3801   -2.6337   -0.9755 O   0  0  0  0  0  0  0  0  0  0  0  0
    1.8669   -1.8709    1.0553 O   0  0  0  0  0  0  0  0  0  0  0  0
   -0.2358   -0.5472    0.3154 O   0  0  0  0  0  0  0  0  0  0  0  0
    0.4970   -1.9860    0.4839 P   0  0  0  0  0  0  0  0  0  0  0  0
    0.3202    1.2319    4.5408 H   0  0  0  0  0  0  0  0  0  0  0  0
    1.2665    0.6343    1.1354 H   0  0  0  0  0  0  0  0  0  0  0  0
   -0.2712    1.4418    0.7540 H   0  0  0  0  0  0  0  0  0  0  0  0
   -1.4079    0.2872    2.6019 H   0  0  0  0  0  0  0  0  0  0  0  0
    1.0533   -1.0573    2.9361 H   0  0  0  0  0  0  0  0  0  0  0  0
   -0.6440   -2.5255    2.1758 H   0  0  0  0  0  0  0  0  0  0  0  0
    1.2397   -2.5987   -1.4259 H   0  0  0  0  0  0  0  0  0  0  0  0
  1 11  1  0
  2  3  1  0
  3 14  1  6
  3  5  1  0
  3  1  1  0
  4  1  2  0
  6 16  1  0
  7 10  1  0
  9 10  1  0
  9  2  1  0
 10  8  2  0
 10  6  1  0
 12  2  1  0
 13  2  1  0
 15  5  1  0
 17  7  1  0
M  END
>  <HBA>  (242) 
6

>  <HBD>  (242) 
3

>  <TPSA>  (242) 
113.87

>  <cid>  (242) 
729

>  <dipole>  (242) 
0.57

>  <excitation_energy_1>  (242) 
4.03

>  <excitation_energy_2>  (242) 
5.893

>  <excitation_energy_3>  (242) 
6.113

>  <excitation_energy_4>  (242) 
6.53

>  <homo_energy>  (242) 
-7.41

>  <homo_lumo_gap>  (242) 
5.91

>  <logP>  (242) 
-1.345

>  <lumo_energy>  (242) 
-1.499

>  <melting_point>  (242) 
105.5

>  <molecular_refractivity>  (242) 
29.97

>  <oscillator_strength_1>  (242) 
0.0004

>  <oscillator_strength_2>  (242) 
0.0143

>  <oscillator_strength_3>  (242) 
0.0097

>  <oscillator_strength_4>  (242) 
0.0006

>  <open_babel_can_smiles>  (242) 
O=C[C@@H](COP(=O)(O)O)O

>  <mulliken_charges>  (242) 
17
1   0.230203
2   -0.071163
3   0.038826
4   -0.371619
5   -0.65283
6   -0.638341
7   -0.610742
8   -0.608724
9   -0.522868
10   1.180173
11   0.138102
12   0.178367
13   0.191541
14   0.192306
15   0.426068
16   0.453122
17   0.447579

>  <lowdin_charges>  (242) 
17
1   0.045224
2   -0.135624
3   -0.050732
4   -0.200035
5   -0.453072
6   -0.55108
7   -0.538737
8   -0.617907
9   -0.389577
10   1.114498
11   0.133302
12   0.162597
13   0.178942
14   0.173248
15   0.359518
16   0.378598
17   0.390838

$$$$
PCCDB-ID:  738
     RDKit          3D

 20 19  0  0  1  0  0  0  0  0999 V2000
    0.9473    0.1443    0.0531 C   0  0  0  0  0  0  0  0  0  0  0  0
    0.4779    1.2768    0.9906 C   0  0  0  0  0  0  0  0  0  0  0  0
    2.4641   -0.1381    0.1778 C   0  0  1  0  0  0  0  0  0  0  0  0
    0.6585    0.8996    2.4494 C   0  0  0  0  0  3  0  0  0  0  0  0
    2.8132   -1.3562   -0.6950 C   0  0  0  0  0  0  0  0  0  0  0  0
    3.2247    1.0530   -0.1820 N   0  0  0  0  0  0  0  0  0  0  0  0
    1.5945    1.2529    3.2311 N   0  0  0  0  0  2  0  0  0  0  0  0
   -0.2461   -0.0082    2.9313 O   0  0  0  0  0  0  0  0  0  0  0  0
    3.3190   -1.2648   -1.7864 O   0  0  0  0  0  0  0  0  0  0  0  0
    2.4741   -2.5725   -0.1929 O   0  0  0  0  0  0  0  0  0  0  0  0
    0.7283    0.4215   -0.9854 H   0  0  0  0  0  0  0  0  0  0  0  0
    0.3840   -0.7757    0.2575 H   0  0  0  0  0  0  0  0  0  0  0  0
   -0.5777    1.5044    0.7846 H   0  0  0  0  0  0  0  0  0  0  0  0
    1.0582    2.1760    0.7735 H   0  0  0  0  0  0  0  0  0  0  0  0
    2.6864   -0.3747    1.2271 H   0  0  0  0  0  0  0  0  0  0  0  0
    3.2451    1.1143   -1.2012 H   0  0  0  0  0  0  0  0  0  0  0  0
    4.1976    0.9288    0.0948 H   0  0  0  0  0  0  0  0  0  0  0  0
    2.2174    1.8969    2.7410 H   0  0  0  0  0  0  0  0  0  0  0  0
   -0.9801   -0.0925    2.3040 H   0  0  0  0  0  0  0  0  0  0  0  0
    2.1321   -2.4783    0.7125 H   0  0  0  0  0  0  0  0  0  0  0  0
  1  3  1  0
  1 12  1  0
  1  2  1  0
  2  4  1  0
  3 15  1  1
  4  8  1  0
  4  7  1  0
  5 10  1  0
  5  3  1  0
  6 17  1  0
  6  3  1  0
  9  5  2  0
 10 20  1  0
 11  1  1  0
 13  2  1  0
 14  2  1  0
 16  6  1  0
 18  7  1  0
 19  8  1  0
M  RAD  2   4   2   7   2
M  END
>  <HBA>  (243) 
5

>  <HBD>  (243) 
3

>  <TPSA>  (243) 
106.41

>  <cid>  (243) 
738

>  <dipole>  (243) 
2.48

>  <excitation_energy_1>  (243) 
5.573

>  <excitation_energy_2>  (243) 
5.957

>  <excitation_energy_3>  (243) 
5.994

>  <excitation_energy_4>  (243) 
6.111

>  <homo_energy>  (243) 
-7.11

>  <homo_lumo_gap>  (243) 
6.996

>  <logP>  (243) 
0.064

>  <lumo_energy>  (243) 
-0.114

>  <melting_point>  (243) 
181.15

>  <molecular_refractivity>  (243) 
33.54

>  <oscillator_strength_1>  (243) 
0.0015

>  <oscillator_strength_2>  (243) 
0.005

>  <oscillator_strength_3>  (243) 
0.0006

>  <oscillator_strength_4>  (243) 
0.0041

>  <open_babel_can_smiles>  (243) 
[NH][C](CC[C@@H](C(=O)O)N)O

>  <mulliken_charges>  (243) 
20
1   -0.263005
2   -0.35325
3   -0.116352
4   0.46181
5   0.58667
6   -0.704098
7   -0.579259
8   -0.575554
9   -0.443455
10   -0.562929
11   0.165352
12   0.133959
13   0.145585
14   0.190429
15   0.163282
16   0.318069
17   0.313131
18   0.295749
19   0.406291
20   0.417577

>  <lowdin_charges>  (243) 
20
1   -0.275152
2   -0.310463
3   -0.115847
4   0.12167
5   0.173393
6   -0.531403
7   -0.397603
8   -0.372895
9   -0.240818
10   -0.349011
11   0.159579
12   0.142486
13   0.152216
14   0.177042
15   0.156227
16   0.264574
17   0.264511
18   0.264174
19   0.355514
20   0.361806

$$$$
PCCDB-ID:  742
     RDKit          3D

 18 17  0  0  1  0  0  0  0  0999 V2000
    1.3163    0.1604   -0.0572 C   0  0  0  0  0  0  0  0  0  0  0  0
    0.6917    0.2690   -1.4673 C   0  0  0  0  0  0  0  0  0  0  0  0
    3.3850    0.0024    1.3640 C   0  0  0  0  0  0  0  0  0  0  0  0
    2.8465    0.3803   -0.0095 C   0  0  1  0  0  0  0  0  0  0  0  0
    1.0514    1.5488   -2.2276 C   0  0  0  0  0  0  0  0  0  0  0  0
    3.5243   -0.3150   -1.1097 N   0  0  0  0  0  0  0  0  0  0  0  0
    4.2762   -0.8003    1.5326 O   0  0  0  0  0  0  0  0  0  0  0  0
    0.2734    2.4593   -2.3932 O   0  0  0  0  0  0  0  0  0  0  0  0
    2.3098    1.5982   -2.7087 O   0  0  0  0  0  0  0  0  0  0  0  0
    1.0769   -0.8344    0.3431 H   0  0  0  0  0  0  0  0  0  0  0  0
    0.8432    0.8885    0.6115 H   0  0  0  0  0  0  0  0  0  0  0  0
   -0.3963    0.2434   -1.3720 H   0  0  0  0  0  0  0  0  0  0  0  0
    0.9949   -0.5963   -2.0683 H   0  0  0  0  0  0  0  0  0  0  0  0
    2.9022    0.5173    2.2237 H   0  0  0  0  0  0  0  0  0  0  0  0
    3.0365    1.4565   -0.1395 H   0  0  0  0  0  0  0  0  0  0  0  0
    3.3418   -1.3171   -1.0452 H   0  0  0  0  0  0  0  0  0  0  0  0
    4.5334   -0.2227   -0.9914 H   0  0  0  0  0  0  0  0  0  0  0  0
    2.8168    0.7973   -2.4039 H   0  0  0  0  0  0  0  0  0  0  0  0
  1  4  1  0
  1 10  1  0
  1 11  1  0
  2 12  1  0
  2  1  1  0
  3  7  2  0
  3 14  1  0
  4 15  1  6
  4  3  1  0
  5  2  1  0
  6 16  1  0
  6 17  1  0
  6  4  1  0
  8  5  2  0
  9 18  1  0
  9  5  1  0
 13  2  1  0
M  END
>  <HBA>  (244) 
4

>  <HBD>  (244) 
2

>  <TPSA>  (244) 
80.39

>  <cid>  (244) 
742

>  <dipole>  (244) 
4.18

>  <excitation_energy_1>  (244) 
4.239

>  <excitation_energy_2>  (244) 
5.018

>  <excitation_energy_3>  (244) 
5.584

>  <excitation_energy_4>  (244) 
5.703

>  <homo_energy>  (244) 
-6.931

>  <homo_lumo_gap>  (244) 
5.584

>  <logP>  (244) 
0.078

>  <lumo_energy>  (244) 
-1.347

>  <melting_point>  (244) 
137.23

>  <molecular_refractivity>  (244) 
30.83

>  <oscillator_strength_1>  (244) 
0.0003

>  <oscillator_strength_2>  (244) 
0.0034

>  <oscillator_strength_3>  (244) 
0.0006

>  <oscillator_strength_4>  (244) 
0.0001

>  <open_babel_can_smiles>  (244) 
O=C[C@H](CCC(=O)O)N

>  <mulliken_charges>  (244) 
18
1   -0.291915
2   -0.364097
3   0.248037
4   -0.069109
5   0.580438
6   -0.752432
7   -0.38426
8   -0.452983
9   -0.596819
10   0.155709
11   0.172599
12   0.179936
13   0.160157
14   0.118963
15   0.188177
16   0.324684
17   0.336051
18   0.446864

>  <lowdin_charges>  (244) 
18
1   -0.275972
2   -0.314896
3   0.039996
4   -0.113459
5   0.186963
6   -0.518589
7   -0.213554
8   -0.256549
9   -0.381157
10   0.152537
11   0.1651
12   0.173278
13   0.160403
14   0.128867
15   0.168546
16   0.269477
17   0.275835
18   0.353177

$$$$
PCCDB-ID:  743
     RDKit          3D

 17 16  0  0  0  0  0  0  0  0999 V2000
    1.4353   -0.4071    0.3911 C   0  0  0  0  0  0  0  0  0  0  0  0
    0.7184   -1.6480    0.9825 C   0  0  0  0  0  0  0  0  0  0  0  0
    2.9667   -0.5308    0.2368 C   0  0  0  0  0  0  0  0  0  0  0  0
    0.9808   -2.9069    0.1728 C   0  0  0  0  0  0  0  0  0  0  0  0
    3.6673   -0.8107    1.5677 C   0  0  0  0  0  0  0  0  0  0  0  0
    2.0514   -3.4852    0.1720 O   0  0  0  0  0  0  0  0  0  0  0  0
   -0.0116   -3.3745   -0.6106 O   0  0  0  0  0  0  0  0  0  0  0  0
    4.1220    0.0641    2.2669 O   0  0  0  0  0  0  0  0  0  0  0  0
    3.7100   -2.1045    1.9514 O   0  0  0  0  0  0  0  0  0  0  0  0
    1.2122    0.4416    1.0470 H   0  0  0  0  0  0  0  0  0  0  0  0
    1.0045   -0.1724   -0.5901 H   0  0  0  0  0  0  0  0  0  0  0  0
   -0.3555   -1.4401    1.0608 H   0  0  0  0  0  0  0  0  0  0  0  0
    1.0865   -1.8373    1.9958 H   0  0  0  0  0  0  0  0  0  0  0  0
    3.3533    0.4219   -0.1336 H   0  0  0  0  0  0  0  0  0  0  0  0
    3.2131   -1.3056   -0.4966 H   0  0  0  0  0  0  0  0  0  0  0  0
   -0.8112   -2.8342   -0.5028 H   0  0  0  0  0  0  0  0  0  0  0  0
    3.2766   -2.6831    1.2815 H   0  0  0  0  0  0  0  0  0  0  0  0
  1  2  1  0
  1 10  1  0
  2 12  1  0
  2 13  1  0
  3  1  1  0
  3  5  1  0
  4  2  1  0
  5  9  1  0
  5  8  2  0
  6  4  2  0
  7 16  1  0
  7  4  1  0
 11  1  1  0
 14  3  1  0
 15  3  1  0
 17  9  1  0
M  END
>  <HBA>  (245) 
4

>  <HBD>  (245) 
2

>  <TPSA>  (245) 
74.6

>  <cid>  (245) 
743

>  <dipole>  (245) 
6.5

>  <excitation_energy_1>  (245) 
5.478

>  <excitation_energy_2>  (245) 
5.563

>  <excitation_energy_3>  (245) 
5.75

>  <excitation_energy_4>  (245) 
6.033

>  <homo_energy>  (245) 
-6.985

>  <homo_lumo_gap>  (245) 
6.218

>  <logP>  (245) 
0.326

>  <lumo_energy>  (245) 
-0.767

>  <melting_point>  (245) 
128.42

>  <molecular_refractivity>  (245) 
29.69

>  <oscillator_strength_1>  (245) 
0.0007

>  <oscillator_strength_2>  (245) 
0.0011

>  <oscillator_strength_3>  (245) 
0.0009

>  <oscillator_strength_4>  (245) 
0.0014

>  <open_babel_can_smiles>  (245) 
OC(=O)CCCC(=O)O

>  <mulliken_charges>  (245) 
17
1   -0.273191
2   -0.399566
3   -0.371463
4   0.614953
5   0.575117
6   -0.460583
7   -0.54263
8   -0.450999
9   -0.595984
10   0.179794
11   0.153811
12   0.146494
13   0.210079
14   0.179724
15   0.169807
16   0.41974
17   0.444895

>  <lowdin_charges>  (245) 
17
1   -0.262137
2   -0.32297
3   -0.323128
4   0.212163
5   0.190147
6   -0.257462
7   -0.328866
8   -0.256655
9   -0.373841
10   0.166804
11   0.151703
12   0.153283
13   0.185953
14   0.175628
15   0.163519
16   0.366843
17   0.359018

$$$$
PCCDB-ID:  750
     RDKit          3D

 10  9  0  0  0  0  0  0  0  0999 V2000
    1.0304    0.2862    0.2280 C   0  0  0  0  0  0  0  0  0  0  0  0
    0.3748   -0.7429    1.1664 C   0  0  0  0  0  0  0  0  0  0  0  0
    2.1863   -0.3047   -0.4631 N   0  0  0  0  0  0  0  0  0  0  0  0
   -0.4491   -0.4400    1.9954 O   0  0  0  0  0  0  0  0  0  0  0  0
    0.7875   -2.0010    0.9496 O   0  0  0  0  0  0  0  0  0  0  0  0
    1.2551    1.1849    0.8139 H   0  0  0  0  0  0  0  0  0  0  0  0
    0.2725    0.5688   -0.5108 H   0  0  0  0  0  0  0  0  0  0  0  0
    3.0528   -0.0971    0.0277 H   0  0  0  0  0  0  0  0  0  0  0  0
    2.2836    0.0509   -1.4098 H   0  0  0  0  0  0  0  0  0  0  0  0
    1.4664   -1.9253    0.2323 H   0  0  0  0  0  0  0  0  0  0  0  0
  1  6  1  0
  1  2  1  0
  2  4  2  0
  3  8  1  0
  3  1  1  0
  5  2  1  0
  7  1  1  0
  9  3  1  0
 10  5  1  0
M  END
>  <HBA>  (246) 
3

>  <HBD>  (246) 
2

>  <TPSA>  (246) 
63.32

>  <cid>  (246) 
750

>  <dipole>  (246) 
5.58

>  <excitation_energy_1>  (246) 
5.572

>  <excitation_energy_2>  (246) 
5.992

>  <excitation_energy_3>  (246) 
6.812

>  <excitation_energy_4>  (246) 
7.127

>  <homo_energy>  (246) 
-6.89

>  <homo_lumo_gap>  (246) 
7.391

>  <logP>  (246) 
-0.27

>  <lumo_energy>  (246) 
0.501

>  <melting_point>  (246) 
107.5

>  <molecular_refractivity>  (246) 
16.21

>  <oscillator_strength_1>  (246) 
0.0029

>  <oscillator_strength_2>  (246) 
0.0072

>  <oscillator_strength_3>  (246) 
0.032

>  <oscillator_strength_4>  (246) 
0.0324

>  <open_babel_can_smiles>  (246) 
NCC(=O)O

>  <mulliken_charges>  (246) 
10
1   -0.257523
2   0.594059
3   -0.763287
4   -0.457619
5   -0.573239
6   0.179973
7   0.189953
8   0.327975
9   0.327536
10   0.432171

>  <lowdin_charges>  (246) 
10
1   -0.252621
2   0.171718
3   -0.552068
4   -0.256117
5   -0.357483
6   0.164615
7   0.176807
8   0.272565
9   0.27367
10   0.358914

$$$$
PCCDB-ID:  751
     RDKit          3D

 12 11  0  0  1  0  0  0  0  0999 V2000
    0.9939   -0.1859   -0.1824 C   0  0  0  0  0  0  0  0  0  0  0  0
    1.0120   -0.6313    2.3015 C   0  0  0  0  0  0  0  0  0  0  0  0
    0.2735   -0.8573    0.9641 C   0  0  1  0  0  0  0  0  0  0  0  0
    0.4846    0.7273   -0.8012 O   0  0  0  0  0  0  0  0  0  0  0  0
    0.2783   -1.2087    3.3577 O   0  0  0  0  0  0  0  0  0  0  0  0
   -1.0426   -0.3614    1.0818 O   0  0  0  0  0  0  0  0  0  0  0  0
    2.0144   -0.5475   -0.4187 H   0  0  0  0  0  0  0  0  0  0  0  0
    1.1536    0.4525    2.4480 H   0  0  0  0  0  0  0  0  0  0  0  0
    1.9972   -1.1100    2.2903 H   0  0  0  0  0  0  0  0  0  0  0  0
    0.2414   -1.9423    0.7752 H   0  0  0  0  0  0  0  0  0  0  0  0
   -0.6279   -0.8672    3.2612 H   0  0  0  0  0  0  0  0  0  0  0  0
   -1.1011    0.3870    0.4552 H   0  0  0  0  0  0  0  0  0  0  0  0
  1  3  1  0
  2  8  1  0
  2  5  1  0
  3 10  1  6
  3  6  1  0
  3  2  1  0
  4  1  2  0
  7  1  1  0
  9  2  1  0
 11  5  1  0
 12  6  1  0
M  END
>  <HBA>  (247) 
3

>  <HBD>  (247) 
2

>  <TPSA>  (247) 
57.53

>  <cid>  (247) 
751

>  <dipole>  (247) 
1.41

>  <excitation_energy_1>  (247) 
4.376

>  <excitation_energy_2>  (247) 
5.121

>  <excitation_energy_3>  (247) 
5.807

>  <excitation_energy_4>  (247) 
6.793

>  <homo_energy>  (247) 
-7.244

>  <homo_lumo_gap>  (247) 
5.823

>  <logP>  (247) 
-1.462

>  <lumo_energy>  (247) 
-1.42

>  <melting_point>  (247) 
44.39

>  <molecular_refractivity>  (247) 
19.06

>  <oscillator_strength_1>  (247) 
0.003

>  <oscillator_strength_2>  (247) 
0.0282

>  <oscillator_strength_3>  (247) 
0.005

>  <oscillator_strength_4>  (247) 
0.0014

>  <open_babel_can_smiles>  (247) 
O[C@@H](C=O)CO

>  <mulliken_charges>  (247) 
12
1   0.228895
2   -0.023512
3   0.052285
4   -0.394291
5   -0.612683
6   -0.645692
7   0.133631
8   0.130469
9   0.144652
10   0.16291
11   0.409966
12   0.413369

>  <lowdin_charges>  (247) 
12
1   0.047432
2   -0.13971
3   -0.054569
4   -0.214833
5   -0.453427
6   -0.460386
7   0.135754
8   0.130344
9   0.149121
10   0.158116
11   0.350262
12   0.351897

$$$$
PCCDB-ID:  752
     RDKit          3D

 13 12  0  0  1  0  0  0  0  0999 V2000
    1.5935   -0.1218   -0.0030 C   0  0  0  0  0  0  0  0  0  0  0  0
    0.8185   -0.9331   -1.0397 C   0  0  1  0  0  0  0  0  0  0  0  0
    1.2320   -2.4196   -0.9874 C   0  0  0  0  0  0  0  0  0  0  0  0
    1.1547   -0.4918    1.3050 O   0  0  0  0  0  0  0  0  0  0  0  0
   -0.5881   -0.8143   -0.8221 O   0  0  0  0  0  0  0  0  0  0  0  0
    2.3746   -2.7823   -0.8249 O   0  0  0  0  0  0  0  0  0  0  0  0
    0.2053   -3.2693   -1.1380 O   0  0  0  0  0  0  0  0  0  0  0  0
    1.3574    0.9398   -0.1160 H   0  0  0  0  0  0  0  0  0  0  0  0
    2.6699   -0.2697   -0.1348 H   0  0  0  0  0  0  0  0  0  0  0  0
    1.0249   -0.5616   -2.0510 H   0  0  0  0  0  0  0  0  0  0  0  0
    1.6139   -1.3142    1.5427 H   0  0  0  0  0  0  0  0  0  0  0  0
   -0.6817   -0.7449    0.1488 H   0  0  0  0  0  0  0  0  0  0  0  0
   -0.5996   -2.7062   -1.1816 H   0  0  0  0  0  0  0  0  0  0  0  0
  1  4  1  0
  2 10  1  6
  2  3  1  0
  2  5  1  0
  2  1  1  0
  3  6  2  0
  4 11  1  0
  5 12  1  0
  7  3  1  0
  8  1  1  0
  9  1  1  0
 13  7  1  0
M  END
>  <HBA>  (248) 
4

>  <HBD>  (248) 
3

>  <TPSA>  (248) 
77.76

>  <cid>  (248) 
752

>  <dipole>  (248) 
2.24

>  <excitation_energy_1>  (248) 
5.461

>  <excitation_energy_2>  (248) 
6.435

>  <excitation_energy_3>  (248) 
6.936

>  <excitation_energy_4>  (248) 
7.166

>  <homo_energy>  (248) 
-7.285

>  <homo_lumo_gap>  (248) 
7.236

>  <logP>  (248) 
-1.576

>  <lumo_energy>  (248) 
-0.049

>  <melting_point>  (248) 
89.82

>  <molecular_refractivity>  (248) 
20.63

>  <oscillator_strength_1>  (248) 
0.0011

>  <oscillator_strength_2>  (248) 
0.0042

>  <oscillator_strength_3>  (248) 
0.0043

>  <oscillator_strength_4>  (248) 
0.0023

>  <open_babel_can_smiles>  (248) 
OC[C@@H](C(=O)O)O

>  <mulliken_charges>  (248) 
13
1   -0.076837
2   0.022117
3   0.56826
4   -0.627508
5   -0.64684
6   -0.461406
7   -0.56846
8   0.170231
9   0.174701
10   0.183527
11   0.414665
12   0.417229
13   0.430322

>  <lowdin_charges>  (248) 
13
1   -0.143243
2   -0.061957
3   0.16141
4   -0.465762
5   -0.455623
6   -0.257122
7   -0.340749
8   0.158178
9   0.159629
10   0.17193
11   0.357014
12   0.350979
13   0.365319

$$$$
PCCDB-ID:  753
     RDKit          3D

 14 13  0  0  0  0  0  0  0  0999 V2000
    1.3961   -0.1899   -0.0736 C   0  0  0  0  0  0  0  0  0  0  0  0
    1.6815    2.2502    0.6235 C   0  0  0  0  0  0  0  0  0  0  0  0
    0.8705    0.9668    0.7656 C   0  0  0  0  0  0  0  0  0  0  0  0
    0.4609   -1.2574    0.1012 O   0  0  0  0  0  0  0  0  0  0  0  0
    1.1095    3.2951    1.3883 O   0  0  0  0  0  0  0  0  0  0  0  0
   -0.4553    1.2966    0.3544 O   0  0  0  0  0  0  0  0  0  0  0  0
    2.4036   -0.4828    0.2594 H   0  0  0  0  0  0  0  0  0  0  0  0
    1.4499    0.1175   -1.1285 H   0  0  0  0  0  0  0  0  0  0  0  0
    1.7406    2.5209   -0.4444 H   0  0  0  0  0  0  0  0  0  0  0  0
    2.7013    2.1010    0.9948 H   0  0  0  0  0  0  0  0  0  0  0  0
    0.8699    0.6617    1.8245 H   0  0  0  0  0  0  0  0  0  0  0  0
    0.6391   -1.9354   -0.5668 H   0  0  0  0  0  0  0  0  0  0  0  0
    0.1603    3.2772    1.1781 H   0  0  0  0  0  0  0  0  0  0  0  0
   -0.9413    0.4552    0.3271 H   0  0  0  0  0  0  0  0  0  0  0  0
  1  4  1  0
  1  7  1  0
  1  3  1  0
  2  3  1  0
  2 10  1  0
  2  5  1  0
  3 11  1  0
  6  3  1  0
  8  1  1  0
  9  2  1  0
 12  4  1  0
 13  5  1  0
 14  6  1  0
M  END
>  <HBA>  (249) 
3

>  <HBD>  (249) 
3

>  <TPSA>  (249) 
60.69

>  <cid>  (249) 
753

>  <dipole>  (249) 
3.54

>  <excitation_energy_1>  (249) 
6.453

>  <excitation_energy_2>  (249) 
6.68

>  <excitation_energy_3>  (249) 
6.7

>  <excitation_energy_4>  (249) 
6.95

>  <homo_energy>  (249) 
-7.012

>  <homo_lumo_gap>  (249) 
8.433

>  <logP>  (249) 
-1.668

>  <lumo_energy>  (249) 
1.42

>  <melting_point>  (249) 
31.28

>  <molecular_refractivity>  (249) 
20.02

>  <oscillator_strength_1>  (249) 
0.0134

>  <oscillator_strength_2>  (249) 
0.0057

>  <oscillator_strength_3>  (249) 
0.0061

>  <oscillator_strength_4>  (249) 
0.0122

>  <open_babel_can_smiles>  (249) 
OCC(CO)O

>  <mulliken_charges>  (249) 
14
1   -0.052722
2   -0.016892
3   0.105484
4   -0.633093
5   -0.626638
6   -0.655333
7   0.128768
8   0.131551
9   0.120923
10   0.138914
11   0.136227
12   0.402706
13   0.408172
14   0.411933

>  <lowdin_charges>  (249) 
14
1   -0.149782
2   -0.135875
3   -0.025843
4   -0.476797
5   -0.462888
6   -0.47688
7   0.134606
8   0.133322
9   0.126389
10   0.146107
11   0.135841
12   0.352667
13   0.347363
14   0.351771

$$$$
PCCDB-ID:  754
     RDKit          3D

 19 18  0  0  1  0  0  0  0  0999 V2000
   -1.1876   -1.1000   -1.7805 C   0  0  0  0  0  0  0  0  0  0  0  0
    1.3053   -1.2294   -1.2487 C   0  0  0  0  0  0  0  0  0  0  0  0
    0.0321   -0.3842   -1.1963 C   0  0  1  0  0  0  0  0  0  0  0  0
   -2.3331   -0.2772   -1.7094 O   0  0  0  0  0  0  0  0  0  0  0  0
    0.2009    0.8770   -1.8821 O   0  0  0  0  0  0  0  0  0  0  0  0
    2.5710    2.0251   -0.9096 O   0  0  0  0  0  0  0  0  0  0  0  0
    4.6194    0.6938   -1.1344 O   0  0  0  0  0  0  0  0  0  0  0  0
    2.8402    0.5105   -3.0588 O   0  0  0  0  0  0  0  0  0  0  0  0
    2.4442   -0.5270   -0.7178 O   0  0  0  0  0  0  0  0  0  0  0  0
    3.0859    0.6768   -1.5996 P   0  0  0  0  0  0  0  0  0  0  0  0
   -1.4055   -2.0083   -1.2082 H   0  0  0  0  0  0  0  0  0  0  0  0
   -0.9692   -1.4024   -2.8205 H   0  0  0  0  0  0  0  0  0  0  0  0
    1.5182   -1.5455   -2.2765 H   0  0  0  0  0  0  0  0  0  0  0  0
    1.1923   -2.1181   -0.6226 H   0  0  0  0  0  0  0  0  0  0  0  0
   -0.1829   -0.1045   -0.1601 H   0  0  0  0  0  0  0  0  0  0  0  0
   -2.0574    0.5883   -2.0571 H   0  0  0  0  0  0  0  0  0  0  0  0
    0.6752    0.7162   -2.7240 H   0  0  0  0  0  0  0  0  0  0  0  0
    1.5955    2.0413   -1.0301 H   0  0  0  0  0  0  0  0  0  0  0  0
    5.1806    0.3326   -1.8397 H   0  0  0  0  0  0  0  0  0  0  0  0
  1  4  1  0
  1 11  1  0
  1  3  1  0
  2  3  1  0
  2  9  1  0
  2 14  1  0
  3 15  1  1
  5  3  1  0
  8 10  2  0
 10  7  1  0
 10  6  1  0
 10  9  1  0
 12  1  1  0
 13  2  1  0
 16  4  1  0
 17  5  1  0
 18  6  1  0
 19  7  1  0
M  END
>  <HBA>  (250) 
6

>  <HBD>  (250) 
4

>  <TPSA>  (250) 
117.03

>  <cid>  (250) 
754

>  <dipole>  (250) 
2.11

>  <excitation_energy_1>  (250) 
6.557

>  <excitation_energy_2>  (250) 
6.975

>  <excitation_energy_3>  (250) 
7.108

>  <excitation_energy_4>  (250) 
7.146

>  <homo_energy>  (250) 
-7.486

>  <homo_lumo_gap>  (250) 
8.245

>  <logP>  (250) 
-1.551

>  <lumo_energy>  (250) 
0.759

>  <melting_point>  (250) 
92.39

>  <molecular_refractivity>  (250) 
30.93

>  <oscillator_strength_1>  (250) 
0.002

>  <oscillator_strength_2>  (250) 
0.0089

>  <oscillator_strength_3>  (250) 
0.0112

>  <oscillator_strength_4>  (250) 
0.0082

>  <open_babel_can_smiles>  (250) 
OC[C@@H](COP(=O)(O)O)O

>  <mulliken_charges>  (250) 
19
1   -0.026312
2   -0.077464
3   0.077322
4   -0.613757
5   -0.66709
6   -0.638705
7   -0.612547
8   -0.611444
9   -0.523381
10   1.181463
11   0.151077
12   0.122863
13   0.170906
14   0.170854
15   0.170675
16   0.402425
17   0.422653
18   0.454444
19   0.446017

>  <lowdin_charges>  (250) 
19
1   -0.146582
2   -0.141627
3   -0.03378
4   -0.45742
5   -0.468339
6   -0.551944
7   -0.542801
8   -0.620191
9   -0.39005
10   1.11407
11   0.154016
12   0.127364
13   0.159145
14   0.16742
15   0.158465
16   0.346048
17   0.358189
18   0.376673
19   0.391343

$$$$
PCCDB-ID:  756
     RDKit          3D

  8  7  0  0  0  0  0  0  0  0999 V2000
    0.9977   -0.1232   -0.0218 C   0  0  0  0  0  0  0  0  0  0  0  0
    0.2053    0.6117    1.0534 C   0  0  0  0  0  0  0  0  0  0  0  0
    2.0801    0.2346   -0.4260 O   0  0  0  0  0  0  0  0  0  0  0  0
   -1.1653    0.2564    1.0587 O   0  0  0  0  0  0  0  0  0  0  0  0
    0.4962   -1.0427   -0.4026 H   0  0  0  0  0  0  0  0  0  0  0  0
    0.3799    1.6931    0.9545 H   0  0  0  0  0  0  0  0  0  0  0  0
    0.6072    0.3071    2.0287 H   0  0  0  0  0  0  0  0  0  0  0  0
   -1.5856    0.6626    0.2852 H   0  0  0  0  0  0  0  0  0  0  0  0
  1  2  1  0
  2  4  1  0
  2  7  1  0
  3  1  2  0
  5  1  1  0
  6  2  1  0
  8  4  1  0
M  END
>  <HBA>  (251) 
2

>  <HBD>  (251) 
1

>  <TPSA>  (251) 
37.3

>  <cid>  (251) 
756

>  <dipole>  (251) 
1.75

>  <excitation_energy_1>  (251) 
4.065

>  <excitation_energy_2>  (251) 
6.12

>  <excitation_energy_3>  (251) 
6.338

>  <excitation_energy_4>  (251) 
7.039

>  <homo_energy>  (251) 
-6.95

>  <homo_lumo_gap>  (251) 
5.951

>  <logP>  (251) 
-0.822

>  <lumo_energy>  (251) 
-0.999

>  <melting_point>  (251) 
26.44

>  <molecular_refractivity>  (251) 
13.09

>  <oscillator_strength_1>  (251) 
0.0001

>  <oscillator_strength_2>  (251) 
0.008

>  <oscillator_strength_3>  (251) 
0.004

>  <oscillator_strength_4>  (251) 
0.0056

>  <open_babel_can_smiles>  (251) 
OCC=O

>  <mulliken_charges>  (251) 
8
1   0.216464
2   -0.109204
3   -0.371418
4   -0.604489
5   0.11918
6   0.162843
7   0.187821
8   0.398803

>  <lowdin_charges>  (251) 
8
1   0.034397
2   -0.17077
3   -0.207806
4   -0.455512
5   0.12216
6   0.152584
7   0.175528
8   0.34942

$$$$
PCCDB-ID:  757
     RDKit          3D

  9  8  0  0  0  0  0  0  0  0999 V2000
    1.0563   -0.2410    0.2422 C   0  0  0  0  0  0  0  0  0  0  0  0
    0.3816   -1.3523   -0.5741 C   0  0  0  0  0  0  0  0  0  0  0  0
    2.1297    0.3739   -0.4757 O   0  0  0  0  0  0  0  0  0  0  0  0
   -0.4320   -2.1069   -0.1030 O   0  0  0  0  0  0  0  0  0  0  0  0
    0.7630   -1.3820   -1.8640 O   0  0  0  0  0  0  0  0  0  0  0  0
    1.3714   -0.6508    1.2072 H   0  0  0  0  0  0  0  0  0  0  0  0
    0.3112    0.5368    0.4380 H   0  0  0  0  0  0  0  0  0  0  0  0
    2.9502   -0.0945   -0.2573 H   0  0  0  0  0  0  0  0  0  0  0  0
    1.4180   -0.6588   -1.9709 H   0  0  0  0  0  0  0  0  0  0  0  0
  1  7  1  0
  1  6  1  0
  2  4  2  0
  2  1  1  0
  3  8  1  0
  3  1  1  0
  5  2  1  0
  9  5  1  0
M  END
>  <HBA>  (252) 
3

>  <HBD>  (252) 
2

>  <TPSA>  (252) 
57.53

>  <cid>  (252) 
757

>  <dipole>  (252) 
4.03

>  <excitation_energy_1>  (252) 
5.615

>  <excitation_energy_2>  (252) 
6.102

>  <excitation_energy_3>  (252) 
7.349

>  <excitation_energy_4>  (252) 
7.392

>  <homo_energy>  (252) 
-7.23

>  <homo_lumo_gap>  (252) 
7.442

>  <logP>  (252) 
-0.937

>  <lumo_energy>  (252) 
0.212

>  <melting_point>  (252) 
71.87

>  <molecular_refractivity>  (252) 
14.66

>  <oscillator_strength_1>  (252) 
0.0012

>  <oscillator_strength_2>  (252) 
0.0068

>  <oscillator_strength_3>  (252) 
0.0483

>  <oscillator_strength_4>  (252) 
0.0082

>  <open_babel_can_smiles>  (252) 
OCC(=O)O

>  <mulliken_charges>  (252) 
9
1   -0.159274
2   0.565825
3   -0.618131
4   -0.442118
5   -0.566108
6   0.181397
7   0.201915
8   0.412596
9   0.423898

>  <lowdin_charges>  (252) 
9
1   -0.181696
2   0.168205
3   -0.458747
4   -0.244277
5   -0.351055
6   0.16781
7   0.181495
8   0.357673
9   0.360592

$$$$
PCCDB-ID:  760
     RDKit          3D

  7  6  0  0  0  0  0  0  0  0999 V2000
    0.6989   -0.1300   -0.4198 C   0  0  0  0  0  0  0  0  0  0  0  0
    0.1714   -0.8451    0.8283 C   0  0  0  0  0  0  0  0  0  0  0  0
    1.7972   -0.3032   -0.8831 O   0  0  0  0  0  0  0  0  0  0  0  0
    1.0630   -1.6921    1.3624 O   0  0  0  0  0  0  0  0  0  0  0  0
   -0.9423   -0.6366    1.2543 O   0  0  0  0  0  0  0  0  0  0  0  0
   -0.0491    0.5656   -0.8470 H   0  0  0  0  0  0  0  0  0  0  0  0
    0.6374   -2.0935    2.1441 H   0  0  0  0  0  0  0  0  0  0  0  0
  1  2  1  0
  2  5  2  0
  2  4  1  0
  3  1  2  0
  4  7  1  0
  6  1  1  0
M  END
>  <HBA>  (253) 
3

>  <HBD>  (253) 
1

>  <TPSA>  (253) 
54.37

>  <cid>  (253) 
760

>  <dipole>  (253) 
1.29

>  <excitation_energy_1>  (253) 
3.212

>  <excitation_energy_2>  (253) 
4.773

>  <excitation_energy_3>  (253) 
6.191

>  <excitation_energy_4>  (253) 
6.781

>  <homo_energy>  (253) 
-7.543

>  <homo_lumo_gap>  (253) 
4.917

>  <logP>  (253) 
-0.73

>  <lumo_energy>  (253) 
-2.626

>  <melting_point>  (253) 
84.98

>  <molecular_refractivity>  (253) 
13.7

>  <oscillator_strength_1>  (253) 
0.0

>  <oscillator_strength_2>  (253) 
0.0001

>  <oscillator_strength_3>  (253) 
0.0487

>  <oscillator_strength_4>  (253) 
0.0573

>  <open_babel_can_smiles>  (253) 
O=CC(=O)O

>  <mulliken_charges>  (253) 
7
1   0.205424
2   0.523698
3   -0.332801
4   -0.534092
5   -0.433284
6   0.150578
7   0.420477

>  <lowdin_charges>  (253) 
7
1   0.031937
2   0.151291
3   -0.152179
4   -0.318807
5   -0.231163
6   0.147636
7   0.371285

$$$$
PCCDB-ID:  773
     RDKit          3D

 20 20  0  0  1  0  0  0  0  0999 V2000
    1.4255   -0.6664    0.8578 C   0  0  0  0  0  0  0  0  0  0  0  0
   -0.4424   -2.3039    1.7413 C   0  0  0  0  0  0  0  0  0  0  0  0
    0.0665   -2.3222    3.8165 C   0  0  0  0  0  0  0  0  0  0  0  0
    0.6418   -1.4613    1.8551 C   0  0  0  0  0  0  0  0  0  0  0  0
    2.7631   -1.3348    0.4487 C   0  0  1  0  0  0  0  0  0  0  0  0
    3.6747   -1.4457    1.6986 C   0  0  0  0  0  0  0  0  0  0  0  0
    2.5180   -2.5670   -0.2740 N   0  0  0  0  0  0  0  0  0  0  0  0
   -0.7957   -2.8331    2.9632 N   0  0  0  0  0  0  0  0  0  0  0  0
    0.9558   -1.4865    3.2047 N   0  0  0  0  0  0  0  0  0  0  0  0
    3.7978   -0.5501    2.5065 O   0  0  0  0  0  0  0  0  0  0  0  0
    4.3337   -2.6099    1.8379 O   0  0  0  0  0  0  0  0  0  0  0  0
    1.6523    0.3281    1.2551 H   0  0  0  0  0  0  0  0  0  0  0  0
    0.8295   -0.5397   -0.0500 H   0  0  0  0  0  0  0  0  0  0  0  0
   -0.9985   -2.5419    0.8433 H   0  0  0  0  0  0  0  0  0  0  0  0
    0.0938   -2.5163    4.8806 H   0  0  0  0  0  0  0  0  0  0  0  0
    3.2806   -0.6471   -0.2329 H   0  0  0  0  0  0  0  0  0  0  0  0
    1.9640   -3.2629    0.2118 H   0  0  0  0  0  0  0  0  0  0  0  0
    3.2697   -2.9461   -0.8342 H   0  0  0  0  0  0  0  0  0  0  0  0
    1.7382   -0.9989    3.6238 H   0  0  0  0  0  0  0  0  0  0  0  0
    4.0188   -3.1952    1.1202 H   0  0  0  0  0  0  0  0  0  0  0  0
  1 12  1  0
  1  4  1  0
  2  4  2  0
  2  8  1  0
  3 15  1  0
  4  9  1  0
  5 16  1  6
  5  1  1  0
  5  6  1  0
  6 11  1  0
  6 10  2  0
  7 17  1  0
  7  5  1  0
  8  3  2  0
  9 19  1  0
  9  3  1  0
 13  1  1  0
 14  2  1  0
 18  7  1  0
 20 11  1  0
M  END
>  <HBA>  (254) 
4

>  <HBD>  (254) 
3

>  <TPSA>  (254) 
92.0

>  <cid>  (254) 
773

>  <dipole>  (254) 
3.38

>  <excitation_energy_1>  (254) 
4.818

>  <excitation_energy_2>  (254) 
5.105

>  <excitation_energy_3>  (254) 
5.178

>  <excitation_energy_4>  (254) 
5.628

>  <homo_energy>  (254) 
-6.071

>  <homo_lumo_gap>  (254) 
5.916

>  <logP>  (254) 
0.064

>  <lumo_energy>  (254) 
-0.155

>  <melting_point>  (254) 
200.01

>  <molecular_refractivity>  (254) 
37.65

>  <oscillator_strength_1>  (254) 
0.0027

>  <oscillator_strength_2>  (254) 
0.0238

>  <oscillator_strength_3>  (254) 
0.0021

>  <oscillator_strength_4>  (254) 
0.0101

>  <open_babel_can_smiles>  (254) 
N[C@H](C(=O)O)Cc1cnc[nH]1

>  <mulliken_charges>  (254) 
20
1   -0.334136
2   -0.090554
3   0.206329
4   0.288578
5   -0.065024
6   0.592366
7   -0.761175
8   -0.425041
9   -0.600644
10   -0.478088
11   -0.555033
12   0.176786
13   0.173171
14   0.132865
15   0.156973
16   0.180032
17   0.331157
18   0.321909
19   0.356799
20   0.39273

>  <lowdin_charges>  (254) 
20
1   -0.271265
2   -0.178251
3   -0.089392
4   -0.025229
5   -0.104191
6   0.176013
7   -0.562431
8   -0.19086
9   -0.184681
10   -0.273341
11   -0.342755
12   0.170413
13   0.17221
14   0.160657
15   0.16584
16   0.173133
17   0.277866
18   0.273969
19   0.303848
20   0.348448

$$$$
PCCDB-ID:  774
     RDKit          3D

 17 17  0  0  0  0  0  0  0  0999 V2000
    1.0245    0.1026    0.0371 C   0  0  0  0  0  0  0  0  0  0  0  0
    0.3658    1.4905   -0.0376 C   0  0  0  0  0  0  0  0  0  0  0  0
    3.4663   -0.6276   -0.6518 C   0  0  0  0  0  0  0  0  0  0  0  0
    4.5742    0.8180    0.4672 C   0  0  0  0  0  0  0  0  0  0  0  0
    2.5220    0.1368   -0.0037 C   0  0  0  0  0  0  0  0  0  0  0  0
    0.7041    2.2939    1.1553 N   0  0  0  0  0  0  0  0  0  0  0  0
    4.7417   -0.2001   -0.3525 N   0  0  0  0  0  0  0  0  0  0  0  0
    3.2556    1.0570    0.7207 N   0  0  0  0  0  0  0  0  0  0  0  0
    0.6640   -0.5068   -0.7995 H   0  0  0  0  0  0  0  0  0  0  0  0
    0.6674   -0.3988    0.9520 H   0  0  0  0  0  0  0  0  0  0  0  0
   -0.7207    1.3669   -0.1778 H   0  0  0  0  0  0  0  0  0  0  0  0
    0.7469    2.0249   -0.9150 H   0  0  0  0  0  0  0  0  0  0  0  0
    3.2972   -1.4654   -1.3166 H   0  0  0  0  0  0  0  0  0  0  0  0
    5.3661    1.4110    0.9059 H   0  0  0  0  0  0  0  0  0  0  0  0
    0.2213    1.9114    1.9687 H   0  0  0  0  0  0  0  0  0  0  0  0
    0.3555    3.2445    1.0420 H   0  0  0  0  0  0  0  0  0  0  0  0
    2.8052    1.8132    1.2313 H   0  0  0  0  0  0  0  0  0  0  0  0
  1 10  1  0
  2  1  1  0
  2  6  1  0
  3  7  1  0
  3  5  2  0
  4  8  1  0
  4 14  1  0
  5  1  1  0
  5  8  1  0
  6 15  1  0
  7  4  2  0
  8 17  1  0
  9  1  1  0
 11  2  1  0
 12  2  1  0
 13  3  1  0
 16  6  1  0
M  END
>  <HBA>  (255) 
2

>  <HBD>  (255) 
2

>  <TPSA>  (255) 
54.7

>  <cid>  (255) 
774

>  <dipole>  (255) 
5.77

>  <excitation_energy_1>  (255) 
4.87

>  <excitation_energy_2>  (255) 
5.522

>  <excitation_energy_3>  (255) 
5.701

>  <excitation_energy_4>  (255) 
5.724

>  <homo_energy>  (255) 
-5.521

>  <homo_lumo_gap>  (255) 
6.759

>  <logP>  (255) 
0.611

>  <lumo_energy>  (255) 
1.238

>  <melting_point>  (255) 
123.52

>  <molecular_refractivity>  (255) 
31.07

>  <oscillator_strength_1>  (255) 
0.0194

>  <oscillator_strength_2>  (255) 
0.0146

>  <oscillator_strength_3>  (255) 
0.0096

>  <oscillator_strength_4>  (255) 
0.0163

>  <open_babel_can_smiles>  (255) 
NCCc1cnc[nH]1

>  <mulliken_charges>  (255) 
17
1   -0.345163
2   -0.147167
3   -0.088375
4   0.199797
5   0.317295
6   -0.737107
7   -0.432157
8   -0.594213
9   0.15734
10   0.146475
11   0.129143
12   0.158556
13   0.119283
14   0.142832
15   0.306045
16   0.311628
17   0.355788

>  <lowdin_charges>  (255) 
17
1   -0.277924
2   -0.203839
3   -0.18126
4   -0.104695
5   -0.020491
6   -0.555405
7   -0.195007
8   -0.189223
9   0.164235
10   0.148378
11   0.127179
12   0.152034
13   0.154446
14   0.162491
15   0.259096
16   0.262335
17   0.297649

$$$$
PCCDB-ID:  775
     RDKit          3D

 19 19  0  0  1  0  0  0  0  0999 V2000
    1.7051    0.6058    0.2252 C   0  0  0  0  0  0  0  0  0  0  0  0
    3.8748   -0.7458   -0.4154 C   0  0  0  0  0  0  0  0  0  0  0  0
   -0.3503    1.9266   -0.3383 C   0  0  0  0  0  0  0  0  0  0  0  0
    5.3208    0.8104   -0.1755 C   0  0  0  0  0  0  0  0  0  0  0  0
    1.1721    1.9117   -0.4239 C   0  0  1  0  0  0  0  0  0  0  0  0
    3.1594    0.3664   -0.0320 C   0  0  0  0  0  0  0  0  0  0  0  0
    1.7955    3.0866    0.1958 N   0  0  0  0  0  0  0  0  0  0  0  0
    5.2199   -0.4626   -0.5006 N   0  0  0  0  0  0  0  0  0  0  0  0
    4.1087    1.3575    0.1263 N   0  0  0  0  0  0  0  0  0  0  0  0
   -0.9745    2.7389    0.3086 O   0  0  0  0  0  0  0  0  0  0  0  0
    1.1375   -0.2531   -0.1525 H   0  0  0  0  0  0  0  0  0  0  0  0
    1.4956    0.6634    1.3048 H   0  0  0  0  0  0  0  0  0  0  0  0
    3.4946   -1.7365   -0.6303 H   0  0  0  0  0  0  0  0  0  0  0  0
   -0.8694    1.1144   -0.8948 H   0  0  0  0  0  0  0  0  0  0  0  0
    6.2390    1.3819   -0.1428 H   0  0  0  0  0  0  0  0  0  0  0  0
    1.4456    1.8897   -1.4881 H   0  0  0  0  0  0  0  0  0  0  0  0
    1.3252    3.2572    1.0867 H   0  0  0  0  0  0  0  0  0  0  0  0
    1.5852    3.9108   -0.3668 H   0  0  0  0  0  0  0  0  0  0  0  0
    3.8515    2.3210    0.3231 H   0  0  0  0  0  0  0  0  0  0  0  0
  1 12  1  0
  2  6  2  0
  3 10  2  0
  4 15  1  0
  4  9  1  0
  5 16  1  6
  5  3  1  0
  5  7  1  0
  5  1  1  0
  6  9  1  0
  6  1  1  0
  7 17  1  0
  8  2  1  0
  8  4  2  0
  9 19  1  0
 11  1  1  0
 13  2  1  0
 14  3  1  0
 18  7  1  0
M  END
>  <HBA>  (256) 
3

>  <HBD>  (256) 
2

>  <TPSA>  (256) 
71.77

>  <cid>  (256) 
775

>  <dipole>  (256) 
3.17

>  <excitation_energy_1>  (256) 
3.846

>  <excitation_energy_2>  (256) 
4.274

>  <excitation_energy_3>  (256) 
5.152

>  <excitation_energy_4>  (256) 
5.173

>  <homo_energy>  (256) 
-5.812

>  <homo_lumo_gap>  (256) 
4.629

>  <logP>  (256) 
0.179

>  <lumo_energy>  (256) 
-1.184

>  <melting_point>  (256) 
154.58

>  <molecular_refractivity>  (256) 
36.08

>  <oscillator_strength_1>  (256) 
0.01

>  <oscillator_strength_2>  (256) 
0.0004

>  <oscillator_strength_3>  (256) 
0.0014

>  <oscillator_strength_4>  (256) 
0.0195

>  <open_babel_can_smiles>  (256) 
N[C@H](C=O)Cc1cnc[nH]1

>  <mulliken_charges>  (256) 
19
1   -0.354095
2   -0.087343
3   0.243314
4   0.203221
5   -0.067421
6   0.319882
7   -0.724756
8   -0.429606
9   -0.593118
10   -0.383127
11   0.161794
12   0.163028
13   0.123945
14   0.114372
15   0.148392
16   0.167151
17   0.319621
18   0.317828
19   0.356919

>  <lowdin_charges>  (256) 
19
1   -0.270835
2   -0.176261
3   0.039472
4   -0.099978
5   -0.103891
6   -0.022408
7   -0.536494
8   -0.191944
9   -0.182363
10   -0.216398
11   0.165315
12   0.155668
13   0.156064
14   0.124853
15   0.164355
16   0.162382
17   0.266682
18   0.26867
19   0.297111

$$$$
PCCDB-ID:  776
     RDKit          3D

 21 21  0  0  1  0  0  0  0  0999 V2000
    1.8257    0.5766    0.0160 C   0  0  0  0  0  0  0  0  0  0  0  0
    3.9904   -0.9063   -0.1100 C   0  0  0  0  0  0  0  0  0  0  0  0
    2.7813    2.2343   -1.6909 C   0  0  0  0  0  0  0  0  0  0  0  0
    5.1321   -0.0354    1.4704 C   0  0  0  0  0  0  0  0  0  0  0  0
    1.7679    2.0165   -0.5507 C   0  0  1  0  0  0  0  0  0  0  0  0
    3.1879    0.0913    0.3976 C   0  0  0  0  0  0  0  0  0  0  0  0
    0.3764    2.2764   -0.9388 N   0  0  0  0  0  0  0  0  0  0  0  0
    5.1937   -0.9791    0.5593 N   0  0  0  0  0  0  0  0  0  0  0  0
    3.9452    0.6455    1.4173 N   0  0  0  0  0  0  0  0  0  0  0  0
    2.5673    1.3261   -2.7682 O   0  0  0  0  0  0  0  0  0  0  0  0
    1.4314   -0.1044   -0.7477 H   0  0  0  0  0  0  0  0  0  0  0  0
    1.1264    0.5217    0.8591 H   0  0  0  0  0  0  0  0  0  0  0  0
    3.7532   -1.5963   -0.9107 H   0  0  0  0  0  0  0  0  0  0  0  0
    3.8127    2.1691   -1.3163 H   0  0  0  0  0  0  0  0  0  0  0  0
    2.6428    3.2404   -2.1048 H   0  0  0  0  0  0  0  0  0  0  0  0
    5.9025    0.2020    2.1923 H   0  0  0  0  0  0  0  0  0  0  0  0
    2.0218    2.7251    0.2526 H   0  0  0  0  0  0  0  0  0  0  0  0
    0.1935    1.7571   -1.7994 H   0  0  0  0  0  0  0  0  0  0  0  0
    0.2713    3.2603   -1.1865 H   0  0  0  0  0  0  0  0  0  0  0  0
    3.6583    1.3982    2.0270 H   0  0  0  0  0  0  0  0  0  0  0  0
    3.0301    0.5049   -2.5401 H   0  0  0  0  0  0  0  0  0  0  0  0
  1  6  1  0
  1 12  1  0
  2  6  2  0
  2  8  1  0
  3 14  1  0
  3  5  1  0
  4 16  1  0
  5  1  1  0
  5 17  1  1
  6  9  1  0
  7  5  1  0
  8  4  2  0
  9  4  1  0
  9 20  1  0
 10 21  1  0
 10  3  1  0
 11  1  1  0
 13  2  1  0
 15  3  1  0
 18  7  1  0
 19  7  1  0
M  END
>  <HBA>  (257) 
3

>  <HBD>  (257) 
3

>  <TPSA>  (257) 
74.93

>  <cid>  (257) 
776

>  <dipole>  (257) 
3.26

>  <excitation_energy_1>  (257) 
5.17

>  <excitation_energy_2>  (257) 
5.627

>  <excitation_energy_3>  (257) 
5.688

>  <excitation_energy_4>  (257) 
5.969

>  <homo_energy>  (257) 
-6.074

>  <homo_lumo_gap>  (257) 
6.746

>  <logP>  (257) 
-0.028

>  <lumo_energy>  (257) 
0.672

>  <melting_point>  (257) 
141.47

>  <molecular_refractivity>  (257) 
37.04

>  <oscillator_strength_1>  (257) 
0.0062

>  <oscillator_strength_2>  (257) 
0.0096

>  <oscillator_strength_3>  (257) 
0.018

>  <oscillator_strength_4>  (257) 
0.0139

>  <open_babel_can_smiles>  (257) 
N[C@H](CO)Cc1cnc[nH]1

>  <mulliken_charges>  (257) 
21
1   -0.35463
2   -0.101016
3   -0.053343
4   0.206304
5   0.013265
6   0.325119
7   -0.712052
8   -0.420626
9   -0.607226
10   -0.62032
11   0.155297
12   0.167502
13   0.129108
14   0.136041
15   0.1356
16   0.155634
17   0.11156
18   0.307632
19   0.294433
20   0.332665
21   0.399054

>  <lowdin_charges>  (257) 
21
1   -0.286966
2   -0.187515
3   -0.154841
4   -0.095226
5   -0.087629
6   -0.013866
7   -0.546825
8   -0.183501
9   -0.18841
10   -0.471343
11   0.162313
12   0.165551
13   0.15809
14   0.136529
15   0.141468
16   0.167804
17   0.132856
18   0.258918
19   0.252615
20   0.293619
21   0.346358

$$$$
PCCDB-ID:  777
     RDKit          3D

 19 19  0  0  0  0  0  0  0  0999 V2000
    1.0512    0.1509    0.2245 C   0  0  0  0  0  0  0  0  0  0  0  0
    4.5077   -1.0554   -0.1404 C   0  0  0  0  0  0  0  0  0  0  0  0
    6.7583    0.0030   -0.4708 C   0  0  0  0  0  0  0  0  0  0  0  0
    2.5366    0.0684    0.0093 C   0  0  0  0  0  0  0  0  0  0  0  0
    5.2588    0.0592   -0.3669 C   0  0  0  0  0  0  0  0  0  0  0  0
    4.5812    1.3548   -0.4567 C   0  0  0  0  0  0  0  0  0  0  0  0
    5.0328    2.5294   -0.7052 N   0  0  0  0  0  0  0  0  0  0  0  0
    3.1421   -1.0885    0.0435 N   0  0  0  0  0  0  0  0  0  0  0  0
    3.1949    1.2377   -0.2129 N   0  0  0  0  0  0  0  0  0  0  0  0
    7.2813    0.6095   -1.6554 O   0  0  0  0  0  0  0  0  0  0  0  0
    0.6580   -0.8572    0.3579 H   0  0  0  0  0  0  0  0  0  0  0  0
    0.5526    0.6214   -0.6315 H   0  0  0  0  0  0  0  0  0  0  0  0
    0.8164    0.7469    1.1151 H   0  0  0  0  0  0  0  0  0  0  0  0
    4.9945   -2.0283   -0.0786 H   0  0  0  0  0  0  0  0  0  0  0  0
    7.0936   -1.0414   -0.3765 H   0  0  0  0  0  0  0  0  0  0  0  0
    7.2164    0.5694    0.3491 H   0  0  0  0  0  0  0  0  0  0  0  0
    6.0290    2.4775   -0.9204 H   0  0  0  0  0  0  0  0  0  0  0  0
    2.6902    2.1173   -0.2486 H   0  0  0  0  0  0  0  0  0  0  0  0
    6.8278    0.2068   -2.4133 H   0  0  0  0  0  0  0  0  0  0  0  0
  1 11  1  0
  1 13  1  0
  2 14  1  0
  2  8  1  0
  3 15  1  0
  3  5  1  0
  3 16  1  0
  4  8  2  0
  4  1  1  0
  5  2  2  0
  6  5  1  0
  6  9  1  0
  7  6  2  0
  9  4  1  0
 10  3  1  0
 12  1  1  0
 17  7  1  0
 18  9  1  0
 19 10  1  0
M  END
>  <HBA>  (258) 
4

>  <HBD>  (258) 
2

>  <TPSA>  (258) 
72.03

>  <cid>  (258) 
777

>  <dipole>  (258) 
2.38

>  <excitation_energy_1>  (258) 
4.011

>  <excitation_energy_2>  (258) 
4.902

>  <excitation_energy_3>  (258) 
4.917

>  <excitation_energy_4>  (258) 
5.211

>  <homo_energy>  (258) 
-5.788

>  <homo_lumo_gap>  (258) 
4.702

>  <logP>  (258) 
0.441

>  <lumo_energy>  (258) 
-1.086

>  <melting_point>  (258) 
111.78

>  <molecular_refractivity>  (258) 
37.53

>  <oscillator_strength_1>  (258) 
0.0872

>  <oscillator_strength_2>  (258) 
0.0031

>  <oscillator_strength_3>  (258) 
0.0008

>  <oscillator_strength_4>  (258) 
0.0084

>  <open_babel_can_smiles>  (258) 
Cc1ncc(c(=N)[nH]1)CO

>  <mulliken_charges>  (258) 
19
1   -0.533705
2   -0.039338
3   -0.121748
4   0.53189
5   0.076764
6   0.44716
7   -0.673875
8   -0.483564
9   -0.636661
10   -0.60659
11   0.199611
12   0.174239
13   0.177235
14   0.141989
15   0.138825
16   0.165727
17   0.307912
18   0.341411
19   0.392718

>  <lowdin_charges>  (258) 
19
1   -0.45216
2   -0.086499
3   -0.130362
4   0.123202
5   -0.099938
6   0.085995
7   -0.451027
8   -0.216521
9   -0.198173
10   -0.465221
11   0.184866
12   0.170451
13   0.171866
14   0.158243
15   0.138088
16   0.15831
17   0.263868
18   0.298916
19   0.346097

$$$$
PCCDB-ID:  778
     RDKit          3D

 17 16  0  0  1  0  0  0  0  0999 V2000
    1.5593   -0.0388   -0.8891 C   0  0  0  0  0  0  0  0  0  0  0  0
    1.4588   -0.5018   -2.3476 C   0  0  0  0  0  0  0  0  0  0  0  0
    2.8853   -0.3203   -0.1430 C   0  0  1  0  0  0  0  0  0  0  0  0
    3.2409   -1.8199   -0.2941 C   0  0  0  0  0  0  0  0  0  0  0  0
    3.9187    0.6492   -0.4820 N   0  0  0  0  0  0  0  0  0  0  0  0
    2.4914   -2.7018    0.0530 O   0  0  0  0  0  0  0  0  0  0  0  0
    4.4411   -2.0918   -0.8511 O   0  0  0  0  0  0  0  0  0  0  0  0
    2.6431    0.2454   -3.5581 S   0  0  0  0  0  0  0  0  0  0  0  0
    0.7645   -0.5639   -0.3467 H   0  0  0  0  0  0  0  0  0  0  0  0
    1.3571    1.0353   -0.8125 H   0  0  0  0  0  0  0  0  0  0  0  0
    0.4449   -0.3277   -2.7183 H   0  0  0  0  0  0  0  0  0  0  0  0
    1.6424   -1.5781   -2.4221 H   0  0  0  0  0  0  0  0  0  0  0  0
    2.6697   -0.1950    0.9251 H   0  0  0  0  0  0  0  0  0  0  0  0
    4.1325    0.7062   -1.4733 H   0  0  0  0  0  0  0  0  0  0  0  0
    4.7524    0.5966    0.0937 H   0  0  0  0  0  0  0  0  0  0  0  0
    4.8578   -1.2357   -1.0678 H   0  0  0  0  0  0  0  0  0  0  0  0
    2.2246    1.5239   -3.4288 H   0  0  0  0  0  0  0  0  0  0  0  0
  1 10  1  0
  1  9  1  0
  1  3  1  0
  2  1  1  0
  3 13  1  1
  4  3  1  0
  4  6  2  0
  5  3  1  0
  5 15  1  0
  7  4  1  0
  8 17  1  0
  8  2  1  0
 11  2  1  0
 12  2  1  0
 14  5  1  0
 16  7  1  0
M  END
>  <HBA>  (259) 
4

>  <HBD>  (259) 
3

>  <TPSA>  (259) 
102.12

>  <cid>  (259) 
778

>  <dipole>  (259) 
3.61

>  <excitation_energy_1>  (259) 
5.206

>  <excitation_energy_2>  (259) 
5.405

>  <excitation_energy_3>  (259) 
5.579

>  <excitation_energy_4>  (259) 
5.935

>  <homo_energy>  (259) 
-6.539

>  <homo_lumo_gap>  (259) 
6.713

>  <logP>  (259) 
0.418

>  <lumo_energy>  (259) 
0.174

>  <melting_point>  (259) 
126.43

>  <molecular_refractivity>  (259) 
33.75

>  <oscillator_strength_1>  (259) 
0.001

>  <oscillator_strength_2>  (259) 
0.0127

>  <oscillator_strength_3>  (259) 
0.0131

>  <oscillator_strength_4>  (259) 
0.0458

>  <open_babel_can_smiles>  (259) 
N[C@H](C(=O)O)CCS

>  <mulliken_charges>  (259) 
17
1   -0.255293
2   -0.433749
3   -0.064763
4   0.574299
5   -0.757071
6   -0.458732
7   -0.56067
8   -0.103936
9   0.177444
10   0.159521
11   0.18875
12   0.207398
13   0.178392
14   0.336982
15   0.312222
16   0.39186
17   0.107348

>  <lowdin_charges>  (259) 
17
1   -0.276684
2   -0.372794
3   -0.102703
4   0.171358
5   -0.563753
6   -0.257458
7   -0.351061
8   -0.088569
9   0.172178
10   0.156214
11   0.168215
12   0.178761
13   0.170217
14   0.266608
15   0.265888
16   0.346934
17   0.11665

$$$$
PCCDB-ID:  779
     RDKit          3D

 17 16  0  0  1  0  0  0  0  0999 V2000
    1.1893   -0.0137   -0.8372 C   0  0  0  0  0  0  0  0  0  0  0  0
    0.1221   -0.7627   -0.0399 C   0  0  0  0  0  0  0  0  0  0  0  0
    2.6439   -0.1847   -0.3236 C   0  0  1  0  0  0  0  0  0  0  0  0
    3.3823   -1.3682   -0.9970 C   0  0  0  0  0  0  0  0  0  0  0  0
    3.3646    1.0775   -0.4753 N   0  0  0  0  0  0  0  0  0  0  0  0
    0.2622   -2.1965   -0.0775 O   0  0  0  0  0  0  0  0  0  0  0  0
    4.4064   -1.2134   -1.6235 O   0  0  0  0  0  0  0  0  0  0  0  0
    2.8401   -2.5881   -0.8388 O   0  0  0  0  0  0  0  0  0  0  0  0
    0.9608    1.0560   -0.7620 H   0  0  0  0  0  0  0  0  0  0  0  0
    1.1176   -0.2772   -1.9023 H   0  0  0  0  0  0  0  0  0  0  0  0
   -0.8807   -0.4831   -0.3871 H   0  0  0  0  0  0  0  0  0  0  0  0
    0.1908   -0.5000    1.0202 H   0  0  0  0  0  0  0  0  0  0  0  0
    2.5995   -0.4065    0.7533 H   0  0  0  0  0  0  0  0  0  0  0  0
    3.4971    1.2434   -1.4746 H   0  0  0  0  0  0  0  0  0  0  0  0
    4.3150    0.9424   -0.1298 H   0  0  0  0  0  0  0  0  0  0  0  0
   -0.0663   -2.5089   -0.9365 H   0  0  0  0  0  0  0  0  0  0  0  0
    1.9760   -2.5275   -0.3624 H   0  0  0  0  0  0  0  0  0  0  0  0
  1  9  1  0
  1  3  1  0
  1  2  1  0
  2 12  1  0
  3 13  1  1
  4  8  1  0
  4  3  1  0
  5  3  1  0
  5 15  1  0
  6  2  1  0
  7  4  2  0
  8 17  1  0
 10  1  1  0
 11  2  1  0
 14  5  1  0
 16  6  1  0
M  END
>  <HBA>  (260) 
4

>  <HBD>  (260) 
3

>  <TPSA>  (260) 
83.55

>  <cid>  (260) 
779

>  <dipole>  (260) 
4.43

>  <excitation_energy_1>  (260) 
5.613

>  <excitation_energy_2>  (260) 
5.922

>  <excitation_energy_3>  (260) 
6.076

>  <excitation_energy_4>  (260) 
6.343

>  <homo_energy>  (260) 
-6.7

>  <homo_lumo_gap>  (260) 
7.219

>  <logP>  (260) 
-0.519

>  <lumo_energy>  (260) 
0.52

>  <melting_point>  (260) 
124.79

>  <molecular_refractivity>  (260) 
26.98

>  <oscillator_strength_1>  (260) 
0.0011

>  <oscillator_strength_2>  (260) 
0.0006

>  <oscillator_strength_3>  (260) 
0.003

>  <oscillator_strength_4>  (260) 
0.0089

>  <open_babel_can_smiles>  (260) 
OCC[C@@H](C(=O)O)N

>  <mulliken_charges>  (260) 
17
1   -0.300735
2   -0.062006
3   -0.094118
4   0.563805
5   -0.696752
6   -0.620639
7   -0.45958
8   -0.600638
9   0.178711
10   0.147105
11   0.150219
12   0.17086
13   0.159177
14   0.304015
15   0.310562
16   0.41119
17   0.438825

>  <lowdin_charges>  (260) 
17
1   -0.298928
2   -0.133388
3   -0.111244
4   0.162532
5   -0.529964
6   -0.457095
7   -0.261531
8   -0.371751
9   0.172112
10   0.146539
11   0.145144
12   0.155581
13   0.153465
14   0.257425
15   0.262024
16   0.355031
17   0.354048

$$$$
PCCDB-ID:  780
     RDKit          3D

 20 20  0  0  0  0  0  0  0  0999 V2000
   -1.7529    0.0024    0.0395 C   0  0  0  0  0  0  0  0  0  0  0  0
   -1.0834    1.2111    0.2438 C   0  0  0  0  0  0  0  0  0  0  0  0
    0.3768   -1.1009   -0.2623 C   0  0  0  0  0  0  0  0  0  0  0  0
    2.5744    0.1469   -0.1065 C   0  0  0  0  0  0  0  0  0  0  0  0
    1.0596    0.0975   -0.0570 C   0  0  0  0  0  0  0  0  0  0  0  0
   -1.0208   -1.1578   -0.2166 C   0  0  0  0  0  0  0  0  0  0  0  0
    0.3049    1.2557    0.1928 C   0  0  0  0  0  0  0  0  0  0  0  0
    3.1404    0.7094   -1.4225 C   0  0  0  0  0  0  0  0  0  0  0  0
   -1.6031   -2.3782   -0.4265 O   0  0  0  0  0  0  0  0  0  0  0  0
    1.0152    2.4357    0.3850 O   0  0  0  0  0  0  0  0  0  0  0  0
    3.8171    0.0586   -2.1796 O   0  0  0  0  0  0  0  0  0  0  0  0
    2.8440    2.0013   -1.6827 O   0  0  0  0  0  0  0  0  0  0  0  0
   -2.8395   -0.0279    0.0810 H   0  0  0  0  0  0  0  0  0  0  0  0
   -1.6527    2.1169    0.4430 H   0  0  0  0  0  0  0  0  0  0  0  0
    0.9281   -2.0148   -0.4602 H   0  0  0  0  0  0  0  0  0  0  0  0
    2.9857   -0.8576    0.0031 H   0  0  0  0  0  0  0  0  0  0  0  0
    2.9532    0.7618    0.7205 H   0  0  0  0  0  0  0  0  0  0  0  0
   -2.5669   -2.2824   -0.3831 H   0  0  0  0  0  0  0  0  0  0  0  0
    0.3946    3.1718    0.5016 H   0  0  0  0  0  0  0  0  0  0  0  0
    2.2823    2.3679   -0.9682 H   0  0  0  0  0  0  0  0  0  0  0  0
  1 13  1  0
  1  2  2  0
  2 14  1  0
  3  6  2  0
  3  5  1  0
  4  5  1  0
  4 16  1  0
  4 17  1  0
  5  7  2  0
  6  1  1  0
  7  2  1  0
  7 10  1  0
  8  4  1  0
  9 18  1  0
  9  6  1  0
 10 19  1  0
 11  8  2  0
 12  8  1  0
 12 20  1  0
 15  3  1  0
M  END
>  <HBA>  (261) 
4

>  <HBD>  (261) 
3

>  <TPSA>  (261) 
77.76

>  <cid>  (261) 
780

>  <dipole>  (261) 
7.18

>  <excitation_energy_1>  (261) 
4.643

>  <excitation_energy_2>  (261) 
4.853

>  <excitation_energy_3>  (261) 
5.108

>  <excitation_energy_4>  (261) 
5.348

>  <homo_energy>  (261) 
-6.006

>  <homo_lumo_gap>  (261) 
5.407

>  <logP>  (261) 
0.725

>  <lumo_energy>  (261) 
-0.599

>  <melting_point>  (261) 
165.6

>  <molecular_refractivity>  (261) 
42.03

>  <oscillator_strength_1>  (261) 
0.069

>  <oscillator_strength_2>  (261) 
0.0011

>  <oscillator_strength_3>  (261) 
0.0003

>  <oscillator_strength_4>  (261) 
0.0218

>  <open_babel_can_smiles>  (261) 
OC(=O)Cc1cc(O)ccc1O

>  <mulliken_charges>  (261) 
20
1   -0.202493
2   -0.179907
3   -0.22652
4   -0.468425
5   0.139691
6   0.363216
7   0.286981
8   0.593549
9   -0.643249
10   -0.682648
11   -0.441909
12   -0.589301
13   0.127998
14   0.129
15   0.15514
16   0.184303
17   0.184114
18   0.408913
19   0.42191
20   0.439635

>  <lowdin_charges>  (261) 
20
1   -0.201093
2   -0.191824
3   -0.17476
4   -0.312009
5   -0.017457
6   0.095765
7   0.069993
8   0.197927
9   -0.37471
10   -0.39871
11   -0.247505
12   -0.372129
13   0.156758
14   0.159251
15   0.176063
16   0.177967
17   0.174811
18   0.35703
19   0.367585
20   0.357047

$$$$
PCCDB-ID:  785
     RDKit          3D

 14 14  0  0  0  0  0  0  0  0999 V2000
   -0.7605    1.1719   -0.0451 C   0  0  0  0  0  0  0  0  0  0  0  0
   -1.3950   -0.0737   -0.0552 C   0  0  0  0  0  0  0  0  0  0  0  0
    1.3891    0.0721   -0.0170 C   0  0  0  0  0  0  0  0  0  0  0  0
    0.7582   -1.1664   -0.0268 C   0  0  0  0  0  0  0  0  0  0  0  0
    0.6325    1.2501   -0.0252 C   0  0  0  0  0  0  0  0  0  0  0  0
   -0.6395   -1.2467   -0.0451 C   0  0  0  0  0  0  0  0  0  0  0  0
    1.3157    2.4411   -0.0128 O   0  0  0  0  0  0  0  0  0  0  0  0
   -1.2013   -2.4996   -0.0524 O   0  0  0  0  0  0  0  0  0  0  0  0
   -1.3599    2.0806   -0.0528 H   0  0  0  0  0  0  0  0  0  0  0  0
   -2.4824   -0.1230   -0.0709 H   0  0  0  0  0  0  0  0  0  0  0  0
    2.4719    0.1452   -0.0033 H   0  0  0  0  0  0  0  0  0  0  0  0
    1.3356   -2.0855   -0.0210 H   0  0  0  0  0  0  0  0  0  0  0  0
    0.6754    3.1687   -0.0274 H   0  0  0  0  0  0  0  0  0  0  0  0
   -2.1663   -2.4091   -0.0702 H   0  0  0  0  0  0  0  0  0  0  0  0
  1  5  2  0
  2  1  1  0
  2  6  2  0
  3 11  1  0
  4 12  1  0
  4  3  2  0
  5  3  1  0
  5  7  1  0
  6  4  1  0
  8  6  1  0
  9  1  1  0
 10  2  1  0
 13  7  1  0
 14  8  1  0
M  END
>  <HBA>  (262) 
2

>  <HBD>  (262) 
2

>  <TPSA>  (262) 
40.46

>  <cid>  (262) 
785

>  <dipole>  (262) 
2.68

>  <excitation_energy_1>  (262) 
4.621

>  <excitation_energy_2>  (262) 
4.788

>  <excitation_energy_3>  (262) 
4.847

>  <excitation_energy_4>  (262) 
5.629

>  <homo_energy>  (262) 
-5.418

>  <homo_lumo_gap>  (262) 
5.358

>  <logP>  (262) 
1.098

>  <lumo_energy>  (262) 
-0.06

>  <melting_point>  (262) 
84.26

>  <molecular_refractivity>  (262) 
30.49

>  <oscillator_strength_1>  (262) 
0.063

>  <oscillator_strength_2>  (262) 
0.0

>  <oscillator_strength_3>  (262) 
0.0003

>  <oscillator_strength_4>  (262) 
0.0

>  <open_babel_can_smiles>  (262) 
Oc1ccc(cc1)O

>  <mulliken_charges>  (262) 
14
1   -0.198747
2   -0.198971
3   -0.163407
4   -0.163617
5   0.346509
6   0.346872
7   -0.649662
8   -0.649744
9   0.118919
10   0.118893
11   0.141926
12   0.141974
13   0.404526
14   0.40453

>  <lowdin_charges>  (262) 
14
1   -0.205242
2   -0.20183
3   -0.17001
4   -0.17271
5   0.086172
6   0.085354
7   -0.388614
8   -0.38529
9   0.154103
10   0.151651
11   0.166874
12   0.169185
13   0.356652
14   0.353705

$$$$
PCCDB-ID:  787
     RDKit          3D

  5  4  0  0  0  0  0  0  0  0999 V2000
    1.0134    0.1045   -0.1627 N   0  0  0  0  0  0  0  0  0  0  0  0
    2.4369    0.3653   -0.2153 O   0  0  0  0  0  0  0  0  0  0  0  0
    0.6050    0.9619   -0.5415 H   0  0  0  0  0  0  0  0  0  0  0  0
    0.8074    0.1354    0.8384 H   0  0  0  0  0  0  0  0  0  0  0  0
    2.7589   -0.3975   -0.7200 H   0  0  0  0  0  0  0  0  0  0  0  0
  1  4  1  0
  2  1  1  0
  3  1  1  0
  5  2  1  0
M  END
>  <HBA>  (263) 
2

>  <HBD>  (263) 
2

>  <TPSA>  (263) 
46.25

>  <cid>  (263) 
787

>  <dipole>  (263) 
0.58

>  <excitation_energy_1>  (263) 
6.614

>  <excitation_energy_2>  (263) 
6.899

>  <excitation_energy_3>  (263) 
7.338

>  <excitation_energy_4>  (263) 
7.629

>  <homo_energy>  (263) 
-6.925

>  <homo_lumo_gap>  (263) 
9.138

>  <logP>  (263) 
0.035

>  <lumo_energy>  (263) 
2.212

>  <melting_point>  (263) 
85.58

>  <molecular_refractivity>  (263) 
5.55

>  <oscillator_strength_1>  (263) 
0.023

>  <oscillator_strength_2>  (263) 
0.0433

>  <oscillator_strength_3>  (263) 
0.0088

>  <oscillator_strength_4>  (263) 
0.0113

>  <open_babel_can_smiles>  (263) 
NO

>  <mulliken_charges>  (263) 
5
1   -0.495861
2   -0.547244
3   0.315809
4   0.315828
5   0.411468

>  <lowdin_charges>  (263) 
5
1   -0.417173
2   -0.445013
3   0.256893
4   0.254911
5   0.350382

$$$$
PCCDB-ID:  790
     RDKit          3D

 14 15  0  0  0  0  0  0  0  0999 V2000
   -2.3091   -0.0453    0.0015 C   0  0  0  0  0  0  0  0  0  0  0  0
    1.9873    0.6559    0.0003 C   0  0  0  0  0  0  0  0  0  0  0  0
   -0.2946   -0.7081    0.0026 C   0  0  0  0  0  0  0  0  0  0  0  0
   -0.2212    0.6911    0.0009 C   0  0  0  0  0  0  0  0  0  0  0  0
    0.9372   -1.3811    0.0029 C   0  0  0  0  0  0  0  0  0  0  0  0
   -1.6062   -1.1517    0.0026 N   0  0  0  0  0  0  0  0  0  0  0  0
   -1.5376    1.0997    0.0006 N   0  0  0  0  0  0  0  0  0  0  0  0
    0.8938    1.4262   -0.0001 N   0  0  0  0  0  0  0  0  0  0  0  0
    2.0699   -0.6877    0.0020 N   0  0  0  0  0  0  0  0  0  0  0  0
    1.0253   -2.7220    0.0041 O   0  0  0  0  0  0  0  0  0  0  0  0
   -3.3902    0.0045    0.0014 H   0  0  0  0  0  0  0  0  0  0  0  0
    2.9392    1.1814   -0.0016 H   0  0  0  0  0  0  0  0  0  0  0  0
   -1.8612    2.0568   -0.0016 H   0  0  0  0  0  0  0  0  0  0  0  0
    0.1179   -3.0767    0.0029 H   0  0  0  0  0  0  0  0  0  0  0  0
  1  6  2  0
  2  9  2  0
  3  6  1  0
  3  5  2  0
  4  3  1  0
  5 10  1  0
  7  4  1  0
  7  1  1  0
  8  2  1  0
  8  4  2  0
  9  5  1  0
 11  1  1  0
 12  2  1  0
 13  7  1  0
 14 10  1  0
M  END
>  <HBA>  (264) 
3

>  <HBD>  (264) 
2

>  <TPSA>  (264) 
74.43

>  <cid>  (264) 
790

>  <dipole>  (264) 
4.6

>  <excitation_energy_1>  (264) 
4.878

>  <excitation_energy_2>  (264) 
5.326

>  <excitation_energy_3>  (264) 
5.453

>  <excitation_energy_4>  (264) 
5.575

>  <homo_energy>  (264) 
-6.637

>  <homo_lumo_gap>  (264) 
5.725

>  <logP>  (264) 
-0.354

>  <lumo_energy>  (264) 
-0.912

>  <melting_point>  (264) 
208.65

>  <molecular_refractivity>  (264) 
34.51

>  <oscillator_strength_1>  (264) 
0.0007

>  <oscillator_strength_2>  (264) 
0.1956

>  <oscillator_strength_3>  (264) 
0.0005

>  <oscillator_strength_4>  (264) 
0.0016

>  <open_babel_can_smiles>  (264) 
Oc1ncnc2c1nc[nH]2

>  <mulliken_charges>  (264) 
14
1   0.240176
2   0.15962
3   0.168245
4   0.531098
5   0.497783
6   -0.519061
7   -0.653155
8   -0.485137
9   -0.460816
10   -0.591269
11   0.174887
12   0.156834
13   0.348305
14   0.432489

>  <lowdin_charges>  (264) 
14
1   -0.046988
2   -0.029139
3   -0.072698
4   0.066929
5   0.150821
6   -0.19435
7   -0.188117
8   -0.19027
9   -0.184153
10   -0.327848
11   0.173927
12   0.16383
13   0.305632
14   0.372423

$$$$
PCCDB-ID:  791
     RDKit          3D

 22 21  0  0  1  0  0  0  0  0999 V2000
    1.0123    0.1577    0.4970 C   0  0  0  0  0  0  0  0  0  0  0  0
    2.1880   -0.0862   -2.3887 C   0  0  0  0  0  0  0  0  0  0  0  0
    2.4686    0.4342    0.1055 C   0  0  0  0  0  0  0  0  0  0  0  0
    2.9666   -0.3903   -1.0970 C   0  0  2  0  0  0  0  0  0  0  0  0
    4.4964   -0.2124   -1.2939 C   0  0  1  0  0  0  0  0  0  0  0  0
    5.0247   -1.3344   -2.2235 C   0  0  0  0  0  0  0  0  0  0  0  0
    4.8393    1.1562   -1.6625 N   0  0  0  0  0  0  0  0  0  0  0  0
    4.8476   -2.5070   -1.9976 O   0  0  0  0  0  0  0  0  0  0  0  0
    5.7105   -0.9262   -3.3175 O   0  0  0  0  0  0  0  0  0  0  0  0
    0.7474    0.7029    1.4100 H   0  0  0  0  0  0  0  0  0  0  0  0
    0.8467   -0.9098    0.6884 H   0  0  0  0  0  0  0  0  0  0  0  0
    0.3093    0.4693   -0.2832 H   0  0  0  0  0  0  0  0  0  0  0  0
    1.1344   -0.3612   -2.2843 H   0  0  0  0  0  0  0  0  0  0  0  0
    2.5834   -0.6499   -3.2422 H   0  0  0  0  0  0  0  0  0  0  0  0
    2.2154    0.9832   -2.6371 H   0  0  0  0  0  0  0  0  0  0  0  0
    3.1142    0.2138    0.9671 H   0  0  0  0  0  0  0  0  0  0  0  0
    2.6033    1.5018   -0.1081 H   0  0  0  0  0  0  0  0  0  0  0  0
    2.8325   -1.4543   -0.8668 H   0  0  0  0  0  0  0  0  0  0  0  0
    4.9719   -0.4099   -0.3250 H   0  0  0  0  0  0  0  0  0  0  0  0
    4.4117    1.5004   -2.5147 H   0  0  0  0  0  0  0  0  0  0  0  0
    5.8240    1.3903   -1.6107 H   0  0  0  0  0  0  0  0  0  0  0  0
    5.7372    0.0489   -3.2878 H   0  0  0  0  0  0  0  0  0  0  0  0
  1 11  1  0
  1 10  1  0
  2 13  1  0
  2  4  1  0
  3  1  1  0
  3 16  1  0
  4 18  1  1
  4  3  1  0
  5  4  1  0
  5 19  1  1
  6  8  2  0
  6  5  1  0
  7 21  1  0
  7  5  1  0
  9 22  1  0
  9  6  1  0
 12  1  1  0
 14  2  1  0
 15  2  1  0
 17  3  1  0
 20  7  1  0
M  END
>  <HBA>  (265) 
3

>  <HBD>  (265) 
2

>  <TPSA>  (265) 
63.32

>  <cid>  (265) 
791

>  <dipole>  (265) 
4.0

>  <excitation_energy_1>  (265) 
5.272

>  <excitation_energy_2>  (265) 
5.411

>  <excitation_energy_3>  (265) 
6.482

>  <excitation_energy_4>  (265) 
6.645

>  <homo_energy>  (265) 
-6.536

>  <homo_lumo_gap>  (265) 
6.879

>  <logP>  (265) 
1.145

>  <lumo_energy>  (265) 
0.343

>  <melting_point>  (265) 
104.84

>  <molecular_refractivity>  (265) 
35.44

>  <oscillator_strength_1>  (265) 
0.0046

>  <oscillator_strength_2>  (265) 
0.0084

>  <oscillator_strength_3>  (265) 
0.0052

>  <oscillator_strength_4>  (265) 
0.0019

>  <open_babel_can_smiles>  (265) 
CC[C@H]([C@@H](C(=O)O)N)C

>  <mulliken_charges>  (265) 
22
1   -0.451181
2   -0.483665
3   -0.247484
4   -0.068402
5   -0.070755
6   0.578161
7   -0.755093
8   -0.454465
9   -0.567386
10   0.145392
11   0.145502
12   0.145288
13   0.16273
14   0.157314
15   0.136902
16   0.12892
17   0.146169
18   0.161418
19   0.172074
20   0.317232
21   0.318613
22   0.382714

>  <lowdin_charges>  (265) 
22
1   -0.446537
2   -0.45341
3   -0.272045
4   -0.121902
5   -0.106909
6   0.167499
7   -0.552563
8   -0.249614
9   -0.353983
10   0.152415
11   0.146699
12   0.14826
13   0.159494
14   0.15583
15   0.141037
16   0.142029
17   0.14535
18   0.157802
19   0.168686
20   0.265511
21   0.267444
22   0.338907

$$$$
PCCDB-ID:  793
     RDKit          3D

 19 19  0  0  1  0  0  0  0  0999 V2000
    1.1998   -0.1212    0.7902 C   0  0  0  0  0  0  0  0  0  0  0  0
   -0.0932   -2.0383    2.0520 C   0  0  0  0  0  0  0  0  0  0  0  0
    0.3969   -1.5209    4.0660 C   0  0  0  0  0  0  0  0  0  0  0  0
    0.6819   -0.9006    1.9582 C   0  0  0  0  0  0  0  0  0  0  0  0
    2.6696   -0.4504    0.4733 C   0  0  1  0  0  0  0  0  0  0  0  0
    3.6077   -0.0274    1.6232 C   0  0  0  0  0  0  0  0  0  0  0  0
   -0.2689   -2.4142    3.3651 N   0  0  0  0  0  0  0  0  0  0  0  0
    0.9903   -0.5842    3.2703 N   0  0  0  0  0  0  0  0  0  0  0  0
    2.8729   -1.8316    0.1711 O   0  0  0  0  0  0  0  0  0  0  0  0
    3.4267    0.9576    2.3073 O   0  0  0  0  0  0  0  0  0  0  0  0
    4.6554   -0.8436    1.7899 O   0  0  0  0  0  0  0  0  0  0  0  0
    1.1211    0.9563    0.9683 H   0  0  0  0  0  0  0  0  0  0  0  0
    0.5989   -0.3556   -0.0942 H   0  0  0  0  0  0  0  0  0  0  0  0
   -0.5623   -2.5845    1.2430 H   0  0  0  0  0  0  0  0  0  0  0  0
    0.4844   -1.5019    5.1442 H   0  0  0  0  0  0  0  0  0  0  0  0
    2.9835    0.1034   -0.4200 H   0  0  0  0  0  0  0  0  0  0  0  0
    1.6005    0.1750    3.5496 H   0  0  0  0  0  0  0  0  0  0  0  0
    2.2721   -2.3357    0.7548 H   0  0  0  0  0  0  0  0  0  0  0  0
    4.5140   -1.5917    1.1676 H   0  0  0  0  0  0  0  0  0  0  0  0
  1 12  1  0
  1  4  1  0
  2  7  1  0
  3 15  1  0
  4  2  2  0
  4  8  1  0
  5 16  1  6
  5  1  1  0
  5  6  1  0
  6 11  1  0
  6 10  2  0
  7  3  2  0
  8 17  1  0
  8  3  1  0
  9  5  1  0
  9 18  1  0
 13  1  1  0
 14  2  1  0
 19 11  1  0
M  END
>  <HBA>  (266) 
4

>  <HBD>  (266) 
3

>  <TPSA>  (266) 
86.21

>  <cid>  (266) 
793

>  <dipole>  (266) 
1.84

>  <excitation_energy_1>  (266) 
5.044

>  <excitation_energy_2>  (266) 
5.438

>  <excitation_energy_3>  (266) 
5.668

>  <excitation_energy_4>  (266) 
6.094

>  <homo_energy>  (266) 
-6.457

>  <homo_lumo_gap>  (266) 
6.142

>  <logP>  (266) 
-0.602

>  <lumo_energy>  (266) 
-0.316

>  <melting_point>  (266) 
164.38

>  <molecular_refractivity>  (266) 
36.1

>  <oscillator_strength_1>  (266) 
0.0055

>  <oscillator_strength_2>  (266) 
0.0043

>  <oscillator_strength_3>  (266) 
0.0513

>  <oscillator_strength_4>  (266) 
0.0259

>  <open_babel_can_smiles>  (266) 
O[C@H](C(=O)O)Cc1cnc[nH]1

>  <mulliken_charges>  (266) 
19
1   -0.363815
2   -0.091824
3   0.210787
4   0.271296
5   0.028299
6   0.595286
7   -0.419354
8   -0.596426
9   -0.644607
10   -0.480158
11   -0.564168
12   0.185162
13   0.176342
14   0.139627
15   0.163484
16   0.187478
17   0.36224
18   0.407462
19   0.432889

>  <lowdin_charges>  (266) 
19
1   -0.282928
2   -0.18144
3   -0.082512
4   -0.030565
5   -0.044864
6   0.172531
7   -0.186655
8   -0.18016
9   -0.458599
10   -0.271391
11   -0.334021
12   0.175919
13   0.172961
14   0.163875
15   0.168974
16   0.173355
17   0.306287
18   0.351843
19   0.367388

$$$$
PCCDB-ID:  794
     RDKit          3D

 17 17  0  0  0  0  0  0  0  0999 V2000
    1.4459   -0.1078   -0.3119 C   0  0  0  0  0  0  0  0  0  0  0  0
   -0.4294   -1.2551   -1.7264 C   0  0  0  0  0  0  0  0  0  0  0  0
    0.4991   -1.2533   -3.6504 C   0  0  0  0  0  0  0  0  0  0  0  0
    0.8101   -0.6875   -1.5348 C   0  0  0  0  0  0  0  0  0  0  0  0
    2.9575   -0.1848   -0.2504 C   0  0  0  0  0  0  0  0  0  0  0  0
    3.5545    0.0052    1.1634 C   0  0  0  0  0  0  0  0  0  0  0  0
   -0.6157   -1.6038   -3.0441 N   0  0  0  0  0  0  0  0  0  0  0  0
    1.3899   -0.6802   -2.7901 N   0  0  0  0  0  0  0  0  0  0  0  0
    3.6895   -0.3238   -1.2081 O   0  0  0  0  0  0  0  0  0  0  0  0
    4.8941   -0.0273    1.1517 O   0  0  0  0  0  0  0  0  0  0  0  0
    2.8745    0.1661    2.1525 O   0  0  0  0  0  0  0  0  0  0  0  0
    1.0274   -0.5609    0.5919 H   0  0  0  0  0  0  0  0  0  0  0  0
    1.2169    0.9688   -0.2050 H   0  0  0  0  0  0  0  0  0  0  0  0
   -1.1995   -1.4258   -0.9849 H   0  0  0  0  0  0  0  0  0  0  0  0
    0.7182   -1.3912   -4.7009 H   0  0  0  0  0  0  0  0  0  0  0  0
    2.3549   -0.4321   -2.9626 H   0  0  0  0  0  0  0  0  0  0  0  0
    5.1843    0.0952    2.0759 H   0  0  0  0  0  0  0  0  0  0  0  0
  1  5  1  0
  1 13  1  0
  1 12  1  0
  2  4  2  0
  2 14  1  0
  3  7  2  0
  3  8  1  0
  4  1  1  0
  5  6  1  0
  6 11  2  0
  7  2  1  0
  8  4  1  0
  9  5  2  0
 10  6  1  0
 10 17  1  0
 15  3  1  0
 16  8  1  0
M  END
>  <HBA>  (267) 
4

>  <HBD>  (267) 
2

>  <TPSA>  (267) 
83.05

>  <cid>  (267) 
794

>  <dipole>  (267) 
3.99

>  <excitation_energy_1>  (267) 
2.556

>  <excitation_energy_2>  (267) 
3.37

>  <excitation_energy_3>  (267) 
3.882

>  <excitation_energy_4>  (267) 
4.099

>  <homo_energy>  (267) 
-6.022

>  <homo_lumo_gap>  (267) 
3.363

>  <logP>  (267) 
-0.394

>  <lumo_energy>  (267) 
-2.659

>  <melting_point>  (267) 
167.15

>  <molecular_refractivity>  (267) 
35.14

>  <oscillator_strength_1>  (267) 
0.0107

>  <oscillator_strength_2>  (267) 
0.0007

>  <oscillator_strength_3>  (267) 
0.0037

>  <oscillator_strength_4>  (267) 
0.002

>  <open_babel_can_smiles>  (267) 
OC(=O)C(=O)Cc1cnc[nH]1

>  <mulliken_charges>  (267) 
17
1   -0.44505
2   -0.07908
3   0.206389
4   0.328632
5   0.402841
6   0.539592
7   -0.425463
8   -0.60147
9   -0.426921
10   -0.53681
11   -0.440116
12   0.210993
13   0.204998
14   0.131204
15   0.154672
16   0.35337
17   0.422218

>  <lowdin_charges>  (267) 
17
1   -0.29723
2   -0.169136
3   -0.093344
4   -0.021595
5   0.148354
6   0.163704
7   -0.186401
8   -0.178039
9   -0.192427
10   -0.315191
11   -0.238164
12   0.195495
13   0.188901
14   0.160957
15   0.165315
16   0.298676
17   0.370126

$$$$
PCCDB-ID:  795
     RDKit          3D

  9  9  0  0  0  0  0  0  0  0999 V2000
   -1.1345   -0.0050   -0.0001 C   0  0  0  0  0  0  0  0  0  0  0  0
   -0.3624   -1.1395    0.0003 C   0  0  0  0  0  0  0  0  0  0  0  0
    0.8924    0.6813   -0.0010 C   0  0  0  0  0  0  0  0  0  0  0  0
   -0.3454    1.1254   -0.0010 N   0  0  0  0  0  0  0  0  0  0  0  0
    0.9413   -0.6851   -0.0008 N   0  0  0  0  0  0  0  0  0  0  0  0
   -2.2138    0.0651    0.0001 H   0  0  0  0  0  0  0  0  0  0  0  0
   -0.6035   -2.1918    0.0006 H   0  0  0  0  0  0  0  0  0  0  0  0
    1.7858    1.2915   -0.0019 H   0  0  0  0  0  0  0  0  0  0  0  0
    1.7730   -1.2573    0.0023 H   0  0  0  0  0  0  0  0  0  0  0  0
  1  6  1  0
  1  2  2  0
  2  7  1  0
  3  4  2  0
  3  5  1  0
  4  1  1  0
  5  2  1  0
  5  9  1  0
  8  3  1  0
M  END
>  <HBA>  (268) 
1

>  <HBD>  (268) 
1

>  <TPSA>  (268) 
28.68

>  <cid>  (268) 
795

>  <dipole>  (268) 
3.72

>  <excitation_energy_1>  (268) 
5.364

>  <excitation_energy_2>  (268) 
6.244

>  <excitation_energy_3>  (268) 
6.263

>  <excitation_energy_4>  (268) 
6.505

>  <homo_energy>  (268) 
-6.125

>  <homo_lumo_gap>  (268) 
7.031

>  <logP>  (268) 
0.41

>  <lumo_energy>  (268) 
0.906

>  <melting_point>  (268) 
65.09

>  <molecular_refractivity>  (268) 
18.59

>  <oscillator_strength_1>  (268) 
0.0004

>  <oscillator_strength_2>  (268) 
0.0264

>  <oscillator_strength_3>  (268) 
0.1493

>  <oscillator_strength_4>  (268) 
0.0023

>  <open_babel_can_smiles>  (268) 
c1ncc[nH]1

>  <mulliken_charges>  (268) 
9
1   -0.030448
2   0.01785
3   0.206152
4   -0.422297
5   -0.546709
6   0.135084
7   0.151849
8   0.154119
9   0.334399

>  <lowdin_charges>  (268) 
9
1   -0.152536
2   -0.169753
3   -0.095863
4   -0.187712
5   -0.182737
6   0.159694
7   0.167892
8   0.166914
9   0.2941

$$$$
PCCDB-ID:  796
     RDKit          3D

 14 13  0  0  0  0  0  0  0  0999 V2000
    1.0926    0.1326   -0.1007 C   0  0  0  0  0  0  0  0  0  0  0  0
    1.0307    1.2932   -1.0784 C   0  0  0  0  0  0  0  0  0  0  0  0
    2.5279   -0.3184    0.2602 C   0  0  0  0  0  0  0  0  0  0  0  0
    1.1955    0.9200   -2.5360 C   0  0  0  0  0  0  0  0  0  0  0  0
    0.8820    2.5267   -0.8015 N   0  0  0  0  0  0  0  0  0  0  0  0
    2.9689   -0.1974    1.3759 O   0  0  0  0  0  0  0  0  0  0  0  0
    3.2387   -0.8663   -0.7358 O   0  0  0  0  0  0  0  0  0  0  0  0
    0.7770    1.8453   -3.3957 O   0  0  0  0  0  0  0  0  0  0  0  0
    1.6696   -0.1517   -2.8900 O   0  0  0  0  0  0  0  0  0  0  0  0
    0.5508   -0.7264   -0.5145 H   0  0  0  0  0  0  0  0  0  0  0  0
    0.6169    0.4279    0.8360 H   0  0  0  0  0  0  0  0  0  0  0  0
    0.8120    2.6624    0.2139 H   0  0  0  0  0  0  0  0  0  0  0  0
    2.7265   -0.8375   -1.5762 H   0  0  0  0  0  0  0  0  0  0  0  0
    0.9568    1.4996   -4.2915 H   0  0  0  0  0  0  0  0  0  0  0  0
  1  3  1  0
  1 11  1  0
  2  5  2  0
  2  1  1  0
  3  6  2  0
  4  2  1  0
  5 12  1  0
  7  3  1  0
  8  4  1  0
  9  4  2  0
 10  1  1  0
 13  7  1  0
 14  8  1  0
M  END
>  <HBA>  (269) 
5

>  <HBD>  (269) 
3

>  <TPSA>  (269) 
98.45

>  <cid>  (269) 
796

>  <dipole>  (269) 
4.34

>  <excitation_energy_1>  (269) 
4.046

>  <excitation_energy_2>  (269) 
4.503

>  <excitation_energy_3>  (269) 
5.144

>  <excitation_energy_4>  (269) 
5.357

>  <homo_energy>  (269) 
-7.377

>  <homo_lumo_gap>  (269) 
4.928

>  <logP>  (269) 
-0.335

>  <lumo_energy>  (269) 
-2.449

>  <melting_point>  (269) 
160.38

>  <molecular_refractivity>  (269) 
28.48

>  <oscillator_strength_1>  (269) 
0.0077

>  <oscillator_strength_2>  (269) 
0.0243

>  <oscillator_strength_3>  (269) 
0.002

>  <oscillator_strength_4>  (269) 
0.001

>  <open_babel_can_smiles>  (269) 
OC(=O)CC(=N)C(=O)O

>  <mulliken_charges>  (269) 
14
1   -0.45543
2   0.23437
3   0.592799
4   0.601152
5   -0.520121
6   -0.432771
7   -0.575987
8   -0.521003
9   -0.49308
10   0.195237
11   0.190728
12   0.312112
13   0.446042
14   0.425952

>  <lowdin_charges>  (269) 
14
1   -0.33556
2   0.024626
3   0.191342
4   0.199011
5   -0.283823
6   -0.239486
7   -0.35392
8   -0.291912
9   -0.278861
10   0.183432
11   0.183301
12   0.266025
13   0.361892
14   0.373932

$$$$
PCCDB-ID:  800
     RDKit          3D

 21 22  0  0  0  0  0  0  0  0999 V2000
    2.3122   -0.3973   -0.0805 C   0  0  0  0  0  0  0  0  0  0  0  0
    2.2038    1.0071   -0.0100 C   0  0  0  0  0  0  0  0  0  0  0  0
    1.1832   -1.2063   -0.0769 C   0  0  0  0  0  0  0  0  0  0  0  0
    0.9649    1.6326    0.0680 C   0  0  0  0  0  0  0  0  0  0  0  0
   -1.8418   -2.5578   -0.0398 C   0  0  0  0  0  0  0  0  0  0  0  0
   -1.3969   -3.2894    1.2180 C   0  0  0  0  0  0  0  0  0  0  0  0
   -2.2628   -0.0195    0.1026 C   0  0  0  0  0  0  0  0  0  0  0  0
   -1.4354   -1.1112    0.0111 C   0  0  0  0  0  0  0  0  0  0  0  0
   -0.0844   -0.6019   -0.0037 C   0  0  0  0  0  0  0  0  0  0  0  0
   -0.1700    0.8149    0.0706 C   0  0  0  0  0  0  0  0  0  0  0  0
   -1.5111    1.1389    0.1376 N   0  0  0  0  0  0  0  0  0  0  0  0
   -0.6158   -4.2142    1.2341 O   0  0  0  0  0  0  0  0  0  0  0  0
    3.2977   -0.8514   -0.1349 H   0  0  0  0  0  0  0  0  0  0  0  0
    3.1059    1.6128   -0.0140 H   0  0  0  0  0  0  0  0  0  0  0  0
    1.2749   -2.2881   -0.1197 H   0  0  0  0  0  0  0  0  0  0  0  0
    0.8830    2.7151    0.1240 H   0  0  0  0  0  0  0  0  0  0  0  0
   -2.9366   -2.6306   -0.1056 H   0  0  0  0  0  0  0  0  0  0  0  0
   -1.4115   -3.0775   -0.9036 H   0  0  0  0  0  0  0  0  0  0  0  0
   -1.8312   -2.8878    2.1614 H   0  0  0  0  0  0  0  0  0  0  0  0
   -3.3432    0.0258    0.1374 H   0  0  0  0  0  0  0  0  0  0  0  0
   -1.8857    2.0734    0.1841 H   0  0  0  0  0  0  0  0  0  0  0  0
  1  3  2  0
  1  2  1  0
  2  4  2  0
  3  9  1  0
  4 10  1  0
  4 16  1  0
  5  8  1  0
  5  6  1  0
  6 12  2  0
  6 19  1  0
  7 20  1  0
  7 11  1  0
  8  7  2  0
  9  8  1  0
  9 10  2  0
 10 11  1  0
 11 21  1  0
 13  1  1  0
 14  2  1  0
 15  3  1  0
 17  5  1  0
 18  5  1  0
M  END
>  <HBA>  (270) 
1

>  <HBD>  (270) 
1

>  <TPSA>  (270) 
32.86

>  <cid>  (270) 
800

>  <dipole>  (270) 
4.63

>  <excitation_energy_1>  (270) 
3.952

>  <excitation_energy_2>  (270) 
4.445

>  <excitation_energy_3>  (270) 
4.613

>  <excitation_energy_4>  (270) 
4.713

>  <homo_energy>  (270) 
-5.551

>  <homo_lumo_gap>  (270) 
4.936

>  <logP>  (270) 
1.909

>  <lumo_energy>  (270) 
-0.615

>  <melting_point>  (270) 
130.82

>  <molecular_refractivity>  (270) 
48.27

>  <oscillator_strength_1>  (270) 
0.0205

>  <oscillator_strength_2>  (270) 
0.01

>  <oscillator_strength_3>  (270) 
0.0299

>  <oscillator_strength_4>  (270) 
0.063

>  <open_babel_can_smiles>  (270) 
O=CCc1c[nH]c2c1cccc2

>  <mulliken_charges>  (270) 
21
1   -0.141058
2   -0.149261
3   -0.209794
4   -0.162869
5   -0.408805
6   0.268637
7   0.001773
8   0.048626
9   0.081225
10   0.315622
11   -0.689692
12   -0.386825
13   0.12525
14   0.124967
15   0.146404
16   0.122051
17   0.156312
18   0.172605
19   0.106568
20   0.149459
21   0.328802

>  <lowdin_charges>  (270) 
21
1   -0.172322
2   -0.162087
3   -0.158637
4   -0.184774
5   -0.297194
6   0.055633
7   -0.131881
8   -0.065995
9   -0.036276
10   0.032322
11   -0.197358
12   -0.218014
13   0.156584
14   0.157244
15   0.163846
16   0.153803
17   0.164461
18   0.16822
19   0.117791
20   0.162923
21   0.291711

$$$$
PCCDB-ID:  802
     RDKit          3D

 22 23  0  0  0  0  0  0  0  0999 V2000
    2.4727   -0.0468   -0.1325 C   0  0  0  0  0  0  0  0  0  0  0  0
    2.2536    1.3441   -0.0488 C   0  0  0  0  0  0  0  0  0  0  0  0
    1.4131   -0.9436   -0.1017 C   0  0  0  0  0  0  0  0  0  0  0  0
    0.9716    1.8676    0.0667 C   0  0  0  0  0  0  0  0  0  0  0  0
   -1.5059   -2.5312    0.0039 C   0  0  0  0  0  0  0  0  0  0  0  0
   -2.1117   -0.0355    0.1835 C   0  0  0  0  0  0  0  0  0  0  0  0
   -1.2021   -1.0629    0.0694 C   0  0  0  0  0  0  0  0  0  0  0  0
    0.1038   -0.4441    0.0124 C   0  0  0  0  0  0  0  0  0  0  0  0
   -0.0929    0.9603    0.0944 C   0  0  0  0  0  0  0  0  0  0  0  0
   -1.1737   -3.3391    1.2710 C   0  0  0  0  0  0  0  0  0  0  0  0
   -1.4542    1.1767    0.1978 N   0  0  0  0  0  0  0  0  0  0  0  0
   -0.9721   -4.5278    1.2585 O   0  0  0  0  0  0  0  0  0  0  0  0
   -1.1707   -2.6384    2.4287 O   0  0  0  0  0  0  0  0  0  0  0  0
    3.4892   -0.4196   -0.2201 H   0  0  0  0  0  0  0  0  0  0  0  0
    3.1038    2.0198   -0.0743 H   0  0  0  0  0  0  0  0  0  0  0  0
    1.5935   -2.0137   -0.1612 H   0  0  0  0  0  0  0  0  0  0  0  0
    0.8043    2.9395    0.1310 H   0  0  0  0  0  0  0  0  0  0  0  0
   -0.9787   -3.0204   -0.8214 H   0  0  0  0  0  0  0  0  0  0  0  0
   -2.5771   -2.6856   -0.1829 H   0  0  0  0  0  0  0  0  0  0  0  0
   -3.1918   -0.0761    0.2336 H   0  0  0  0  0  0  0  0  0  0  0  0
   -1.8992    2.0783    0.2721 H   0  0  0  0  0  0  0  0  0  0  0  0
   -1.2976   -1.6942    2.2146 H   0  0  0  0  0  0  0  0  0  0  0  0
  1  3  2  0
  1  2  1  0
  2  4  2  0
  3  8  1  0
  4  9  1  0
  4 17  1  0
  5  7  1  0
  5 10  1  0
  6 11  1  0
  6 20  1  0
  7  6  2  0
  8  7  1  0
  8  9  2  0
  9 11  1  0
 10 13  1  0
 11 21  1  0
 12 10  2  0
 14  1  1  0
 15  2  1  0
 16  3  1  0
 18  5  1  0
 19  5  1  0
 22 13  1  0
M  END
>  <HBA>  (271) 
2

>  <HBD>  (271) 
2

>  <TPSA>  (271) 
53.09

>  <cid>  (271) 
802

>  <dipole>  (271) 
6.49

>  <excitation_energy_1>  (271) 
4.69

>  <excitation_energy_2>  (271) 
4.88

>  <excitation_energy_3>  (271) 
4.946

>  <excitation_energy_4>  (271) 
5.251

>  <homo_energy>  (271) 
-5.889

>  <homo_lumo_gap>  (271) 
5.284

>  <logP>  (271) 
1.795

>  <lumo_energy>  (271) 
-0.604

>  <melting_point>  (271) 
176.26

>  <molecular_refractivity>  (271) 
49.84

>  <oscillator_strength_1>  (271) 
0.0706

>  <oscillator_strength_2>  (271) 
0.0432

>  <oscillator_strength_3>  (271) 
0.003

>  <oscillator_strength_4>  (271) 
0.0033

>  <open_babel_can_smiles>  (271) 
OC(=O)Cc1c[nH]c2c1cccc2

>  <mulliken_charges>  (271) 
22
1   -0.139462
2   -0.14806
3   -0.203744
4   -0.1612
5   -0.451202
6   0.004696
7   -0.015307
8   0.099046
9   0.312627
10   0.594336
11   -0.683601
12   -0.449847
13   -0.566321
14   0.130582
15   0.130436
16   0.142291
17   0.127319
18   0.189658
19   0.183322
20   0.159805
21   0.333235
22   0.411392

>  <lowdin_charges>  (271) 
22
1   -0.167782
2   -0.158371
3   -0.156432
4   -0.182667
5   -0.308288
6   -0.134172
7   -0.087855
8   -0.039259
9   0.032624
10   0.183248
11   -0.196274
12   -0.246705
13   -0.352768
14   0.158792
15   0.160215
16   0.16216
17   0.156587
18   0.181494
19   0.177331
20   0.167328
21   0.294813
22   0.35598

$$$$
PCCDB-ID:  811
     RDKit          3D

 15 14  0  0  0  0  0  0  0  0999 V2000
    0.9188    0.0566   -0.6932 C   0  0  0  0  0  0  0  0  0  0  0  0
    2.9767   -0.7370    0.5056 C   0  0  0  0  0  0  0  0  0  0  0  0
    2.1380    0.3111   -0.1968 C   0  0  0  0  0  0  0  0  0  0  0  0
    3.9470   -1.5000   -0.4264 C   0  0  0  0  0  0  0  0  0  0  0  0
    2.7858    1.6483   -0.3937 C   0  0  0  0  0  0  0  0  0  0  0  0
    3.8723   -2.6953   -0.5772 O   0  0  0  0  0  0  0  0  0  0  0  0
    4.8830   -0.7601   -1.0356 O   0  0  0  0  0  0  0  0  0  0  0  0
    3.9934    1.7820   -0.4898 O   0  0  0  0  0  0  0  0  0  0  0  0
    1.9939    2.7340   -0.4623 O   0  0  0  0  0  0  0  0  0  0  0  0
    0.4634   -0.9242   -0.5926 H   0  0  0  0  0  0  0  0  0  0  0  0
    0.3503    0.7911   -1.2590 H   0  0  0  0  0  0  0  0  0  0  0  0
    2.3282   -1.4916    0.9527 H   0  0  0  0  0  0  0  0  0  0  0  0
    3.5644   -0.2693    1.3050 H   0  0  0  0  0  0  0  0  0  0  0  0
    4.7623    0.1946   -0.8171 H   0  0  0  0  0  0  0  0  0  0  0  0
    1.0817    2.4919   -0.2307 H   0  0  0  0  0  0  0  0  0  0  0  0
  1 10  1  0
  1  3  2  3
  2 12  1  0
  2 13  1  0
  3  2  1  0
  4  2  1  0
  5  3  1  0
  6  4  2  0
  7 14  1  0
  7  4  1  0
  8  5  2  0
  9  5  1  0
  9 15  1  0
 11  1  1  0
M  END
>  <HBA>  (272) 
4

>  <HBD>  (272) 
2

>  <TPSA>  (272) 
74.6

>  <cid>  (272) 
811

>  <dipole>  (272) 
6.17

>  <excitation_energy_1>  (272) 
4.332

>  <excitation_energy_2>  (272) 
4.939

>  <excitation_energy_3>  (272) 
5.408

>  <excitation_energy_4>  (272) 
5.647

>  <homo_energy>  (272) 
-7.132

>  <homo_lumo_gap>  (272) 
4.98

>  <logP>  (272) 
0.102

>  <lumo_energy>  (272) 
-2.152

>  <melting_point>  (272) 
111.24

>  <molecular_refractivity>  (272) 
29.22

>  <oscillator_strength_1>  (272) 
0.0386

>  <oscillator_strength_2>  (272) 
0.0172

>  <oscillator_strength_3>  (272) 
0.0007

>  <oscillator_strength_4>  (272) 
0.0015

>  <open_babel_can_smiles>  (272) 
OC(=O)CC(=C)C(=O)O

>  <mulliken_charges>  (272) 
15
1   -0.385071
2   -0.455429
3   0.101453
4   0.595856
5   0.582915
6   -0.441546
7   -0.580423
8   -0.46689
9   -0.547953
10   0.188016
11   0.163404
12   0.189272
13   0.189283
14   0.446857
15   0.420253

>  <lowdin_charges>  (272) 
15
1   -0.303505
2   -0.313789
3   -0.043193
4   0.188091
5   0.202782
6   -0.245699
7   -0.354001
8   -0.250775
9   -0.321402
10   0.183358
11   0.168826
12   0.183579
13   0.178472
14   0.360593
15   0.366663

$$$$
PCCDB-ID:  817
     RDKit          3D

 30 29  0  0  1  0  0  0  0  0999 V2000
    0.3897    0.3548   -0.2385 C   0  0  0  0  0  0  0  0  0  0  0  0
    0.6711   -3.2516   -4.5022 C   0  0  0  0  0  0  0  0  0  0  0  0
    0.5299    0.4243   -1.7642 C   0  0  1  0  0  0  0  0  0  0  0  0
    1.6857    0.4555    0.5217 C   0  0  0  0  0  0  0  0  0  0  0  0
    1.6798   -2.0991   -4.5957 C   0  0  2  0  0  0  0  0  0  0  0  0
    0.8613   -0.9447   -2.4069 C   0  0  1  0  0  0  0  0  0  0  0  0
    1.2382   -0.8010   -3.8892 C   0  0  2  0  0  0  0  0  0  0  0  0
    1.5373    0.7603    2.0303 C   0  0  0  0  0  0  0  0  0  0  0  0
   -0.4560   -2.9972   -5.3444 O   0  0  0  0  0  0  0  0  0  0  0  0
   -0.7096    0.9192   -2.2451 O   0  0  0  0  0  0  0  0  0  0  0  0
    2.7953    0.3172    0.0423 O   0  0  0  0  0  0  0  0  0  0  0  0
    1.8704   -1.7683   -5.9783 O   0  0  0  0  0  0  0  0  0  0  0  0
    1.8939   -1.6473   -1.7298 O   0  0  0  0  0  0  0  0  0  0  0  0
    0.1008   -0.2533   -4.5923 O   0  0  0  0  0  0  0  0  0  0  0  0
    2.7230    0.7958    2.6555 O   0  0  0  0  0  0  0  0  0  0  0  0
    0.4669    0.9346    2.5679 O   0  0  0  0  0  0  0  0  0  0  0  0
   -0.1161   -0.5705    0.0745 H   0  0  0  0  0  0  0  0  0  0  0  0
   -0.2719    1.1645    0.0893 H   0  0  0  0  0  0  0  0  0  0  0  0
    0.3753   -3.4389   -3.4623 H   0  0  0  0  0  0  0  0  0  0  0  0
    1.1284   -4.1673   -4.8892 H   0  0  0  0  0  0  0  0  0  0  0  0
    1.3476    1.1269   -2.0060 H   0  0  0  0  0  0  0  0  0  0  0  0
    2.6378   -2.4160   -4.1726 H   0  0  0  0  0  0  0  0  0  0  0  0
   -0.0456   -1.5572   -2.3209 H   0  0  0  0  0  0  0  0  0  0  0  0
    2.0759   -0.0895   -3.9660 H   0  0  0  0  0  0  0  0  0  0  0  0
   -0.8380   -2.1532   -5.0410 H   0  0  0  0  0  0  0  0  0  0  0  0
   -0.6847    0.8346   -3.2168 H   0  0  0  0  0  0  0  0  0  0  0  0
    1.1126   -2.1807   -6.4360 H   0  0  0  0  0  0  0  0  0  0  0  0
    2.5427   -0.9959   -1.4038 H   0  0  0  0  0  0  0  0  0  0  0  0
    0.4102   -0.1599   -5.5125 H   0  0  0  0  0  0  0  0  0  0  0  0
    2.5361    0.9867    3.5946 H   0  0  0  0  0  0  0  0  0  0  0  0
  1 17  1  0
  1 18  1  0
  1  4  1  0
  2 19  1  0
  3 21  1  1
  3  1  1  0
  4  8  1  0
  5  2  1  0
  5 22  1  1
  5  7  1  0
  6 23  1  6
  6  3  1  0
  6 13  1  0
  7 24  1  1
  7  6  1  0
  8 16  2  0
  8 15  1  0
  9 25  1  0
  9  2  1  0
 10  3  1  0
 11  4  2  0
 12  5  1  0
 13 28  1  0
 14  7  1  0
 15 30  1  0
 20  2  1  0
 26 10  1  0
 27 12  1  0
 29 14  1  0
M  END
>  <HBA>  (273) 
8

>  <HBD>  (273) 
6

>  <TPSA>  (273) 
155.52

>  <cid>  (273) 
817

>  <dipole>  (273) 
1.53

>  <excitation_energy_1>  (273) 
3.31

>  <excitation_energy_2>  (273) 
3.829

>  <excitation_energy_3>  (273) 
4.323

>  <excitation_energy_4>  (273) 
4.44

>  <homo_energy>  (273) 
-7.061

>  <homo_lumo_gap>  (273) 
4.471

>  <logP>  (273) 
-3.534

>  <lumo_energy>  (273) 
-2.591

>  <melting_point>  (273) 
163.75

>  <molecular_refractivity>  (273) 
48.35

>  <oscillator_strength_1>  (273) 
0.0001

>  <oscillator_strength_2>  (273) 
0.0001

>  <oscillator_strength_3>  (273) 
0.0006

>  <oscillator_strength_4>  (273) 
0.0005

>  <open_babel_can_smiles>  (273) 
OC[C@H]([C@H]([C@H]([C@H](CC(=O)C(=O)O)O)O)O)O

>  <mulliken_charges>  (273) 
30
1   -0.373446
2   -0.090712
3   0.123672
4   0.411033
5   0.114475
6   0.107857
7   0.089459
8   0.536529
9   -0.637323
10   -0.660116
11   -0.443561
12   -0.658628
13   -0.658625
14   -0.669213
15   -0.537264
16   -0.436113
17   0.20032
18   0.212944
19   0.158662
20   0.163764
21   0.1217
22   0.153747
23   0.142054
24   0.136886
25   0.406072
26   0.424614
27   0.408287
28   0.420696
29   0.410682
30   0.42155

>  <lowdin_charges>  (273) 
30
1   -0.309277
2   -0.152861
3   -0.012666
4   0.153708
5   -0.035425
6   -0.03173
7   -0.03699
8   0.161694
9   -0.474514
10   -0.469283
11   -0.200312
12   -0.475069
13   -0.46823
14   -0.468094
15   -0.314532
16   -0.234486
17   0.190032
18   0.196608
19   0.147168
20   0.157369
21   0.129183
22   0.158635
23   0.144474
24   0.140471
25   0.341694
26   0.346416
27   0.346378
28   0.349473
29   0.350528
30   0.369638

$$$$
PCCDB-ID:  824
     RDKit          3D

 19 18  0  0  1  0  0  0  0  0999 V2000
    0.7957   -0.1821    0.3058 C   0  0  0  0  0  0  0  0  0  0  0  0
    2.2600   -0.3908   -0.0950 C   0  0  0  0  0  0  0  0  0  0  0  0
    3.1414    0.8101    0.2786 C   0  0  0  0  0  0  0  0  0  0  0  0
    4.6412    0.6396   -0.0396 C   0  0  1  0  0  0  0  0  0  0  0  0
    5.2402   -0.4501    0.8856 C   0  0  0  0  0  0  0  0  0  0  0  0
    4.8615    0.4831   -1.4730 N   0  0  0  0  0  0  0  0  0  0  0  0
    5.1801   -0.3871    2.0895 O   0  0  0  0  0  0  0  0  0  0  0  0
    5.8441   -1.4913    0.2649 O   0  0  0  0  0  0  0  0  0  0  0  0
    0.1796   -1.0429    0.0235 H   0  0  0  0  0  0  0  0  0  0  0  0
    0.3741    0.7054   -0.1815 H   0  0  0  0  0  0  0  0  0  0  0  0
    0.7008   -0.0433    1.3892 H   0  0  0  0  0  0  0  0  0  0  0  0
    2.3054   -0.5706   -1.1789 H   0  0  0  0  0  0  0  0  0  0  0  0
    2.6427   -1.2979    0.3930 H   0  0  0  0  0  0  0  0  0  0  0  0
    3.0568    0.9998    1.3539 H   0  0  0  0  0  0  0  0  0  0  0  0
    2.7871    1.7050   -0.2469 H   0  0  0  0  0  0  0  0  0  0  0  0
    5.1442    1.5666    0.2615 H   0  0  0  0  0  0  0  0  0  0  0  0
    4.3717   -0.2928   -1.9044 H   0  0  0  0  0  0  0  0  0  0  0  0
    5.8301    0.5261   -1.7702 H   0  0  0  0  0  0  0  0  0  0  0  0
    5.7793   -1.3265   -0.6946 H   0  0  0  0  0  0  0  0  0  0  0  0
  1 11  1  0
  2  3  1  0
  2  1  1  0
  2 13  1  0
  3 14  1  0
  4 16  1  1
  4  3  1  0
  4  5  1  0
  5  7  2  0
  6  4  1  0
  8  5  1  0
  9  1  1  0
 10  1  1  0
 12  2  1  0
 15  3  1  0
 17  6  1  0
 18  6  1  0
 19  8  1  0
M  END
>  <HBA>  (274) 
3

>  <HBD>  (274) 
2

>  <TPSA>  (274) 
63.32

>  <cid>  (274) 
824

>  <dipole>  (274) 
3.92

>  <excitation_energy_1>  (274) 
5.283

>  <excitation_energy_2>  (274) 
5.45

>  <excitation_energy_3>  (274) 
6.514

>  <excitation_energy_4>  (274) 
6.769

>  <homo_energy>  (274) 
-6.555

>  <homo_lumo_gap>  (274) 
6.906

>  <logP>  (274) 
0.899

>  <lumo_energy>  (274) 
0.351

>  <melting_point>  (274) 
105.51

>  <molecular_refractivity>  (274) 
30.63

>  <oscillator_strength_1>  (274) 
0.0036

>  <oscillator_strength_2>  (274) 
0.0116

>  <oscillator_strength_3>  (274) 
0.0032

>  <oscillator_strength_4>  (274) 
0.0044

>  <open_babel_can_smiles>  (274) 
CCC[C@@H](C(=O)O)N

>  <mulliken_charges>  (274) 
19
1   -0.442803
2   -0.276097
3   -0.246581
4   -0.072178
5   0.577677
6   -0.750714
7   -0.454104
8   -0.565581
9   0.146357
10   0.145744
11   0.153061
12   0.126411
13   0.151037
14   0.168112
15   0.147737
16   0.176371
17   0.316162
18   0.316677
19   0.382711

>  <lowdin_charges>  (274) 
19
1   -0.440985
2   -0.278937
3   -0.271699
4   -0.105291
5   0.165586
6   -0.555568
7   -0.249335
8   -0.353462
9   0.152779
10   0.149251
11   0.150585
12   0.132961
13   0.147741
14   0.161592
15   0.152289
16   0.171709
17   0.264945
18   0.266178
19   0.339661

$$$$
PCCDB-ID:  825
     RDKit          3D

 18 18  0  0  1  0  0  0  0  0999 V2000
   -0.3787   -1.4682    0.2445 C   0  0  0  0  0  0  0  0  0  0  0  0
    1.0788    0.4440    0.3003 C   0  0  0  0  0  0  0  0  0  0  0  0
    1.0458   -1.0259   -0.1543 C   0  0  2  0  0  0  0  0  0  0  0  0
   -1.2102   -0.1505    0.2739 C   0  0  1  0  0  0  0  0  0  0  0  0
   -1.9180    0.0601    1.6301 C   0  0  0  0  0  0  0  0  0  0  0  0
   -0.2747    0.9771    0.0239 N   0  0  0  0  0  0  0  0  0  0  0  0
    1.3019   -1.1601   -1.5517 O   0  0  0  0  0  0  0  0  0  0  0  0
   -2.5414   -0.8138    2.1845 O   0  0  0  0  0  0  0  0  0  0  0  0
   -1.7878    1.3033    2.1154 O   0  0  0  0  0  0  0  0  0  0  0  0
   -0.3937   -1.9433    1.2293 H   0  0  0  0  0  0  0  0  0  0  0  0
   -0.7690   -2.1994   -0.4689 H   0  0  0  0  0  0  0  0  0  0  0  0
    1.8441    1.0293   -0.2146 H   0  0  0  0  0  0  0  0  0  0  0  0
    1.2616    0.5035    1.3810 H   0  0  0  0  0  0  0  0  0  0  0  0
    1.8216   -1.6236    0.3315 H   0  0  0  0  0  0  0  0  0  0  0  0
   -2.0030   -0.1488   -0.4825 H   0  0  0  0  0  0  0  0  0  0  0  0
   -0.3363    1.2902   -0.9420 H   0  0  0  0  0  0  0  0  0  0  0  0
    0.5362   -0.8141   -2.0362 H   0  0  0  0  0  0  0  0  0  0  0  0
   -1.1894    1.7612    1.4702 H   0  0  0  0  0  0  0  0  0  0  0  0
  1  4  1  0
  1 10  1  0
  2 13  1  0
  3  1  1  0
  3  2  1  0
  3 14  1  1
  4 15  1  6
  4  5  1  0
  5  9  1  0
  5  8  2  0
  6  4  1  0
  6  2  1  0
  7  3  1  0
 11  1  1  0
 12  2  1  0
 16  6  1  0
 17  7  1  0
 18  9  1  0
M  END
>  <HBA>  (275) 
4

>  <HBD>  (275) 
3

>  <TPSA>  (275) 
69.56

>  <cid>  (275) 
825

>  <dipole>  (275) 
4.31

>  <excitation_energy_1>  (275) 
5.3

>  <excitation_energy_2>  (275) 
5.758

>  <excitation_energy_3>  (275) 
6.176

>  <excitation_energy_4>  (275) 
6.604

>  <homo_energy>  (275) 
-6.876

>  <homo_lumo_gap>  (275) 
7.061

>  <logP>  (275) 
-0.877

>  <lumo_energy>  (275) 
0.185

>  <melting_point>  (275) 
119.64

>  <molecular_refractivity>  (275) 
33.69

>  <oscillator_strength_1>  (275) 
0.0029

>  <oscillator_strength_2>  (275) 
0.0032

>  <oscillator_strength_3>  (275) 
0.0004

>  <oscillator_strength_4>  (275) 
0.0174

>  <open_babel_can_smiles>  (275) 
O[C@H]1CN[C@@H](C1)C(=O)O

>  <mulliken_charges>  (275) 
18
1   -0.320191
2   -0.16962
3   0.125446
4   -0.10021
5   0.597797
6   -0.607091
7   -0.618565
8   -0.460662
9   -0.576635
10   0.185404
11   0.163934
12   0.168099
13   0.158418
14   0.152875
15   0.175049
16   0.313291
17   0.379894
18   0.432768

>  <lowdin_charges>  (275) 
18
1   -0.306726
2   -0.227309
3   -0.013983
4   -0.119687
5   0.174226
6   -0.366371
7   -0.461223
8   -0.257101
9   -0.356306
10   0.173829
11   0.164576
12   0.16367
13   0.150161
14   0.15588
15   0.16881
16   0.26135
17   0.335916
18   0.360289

$$$$
PCCDB-ID:  827
     RDKit          3D

 22 21  0  0  1  0  0  0  0  0999 V2000
    0.9057   -0.0506    0.1992 C   0  0  0  0  0  0  0  0  0  0  0  0
    0.3605    4.3540   -0.9003 C   0  0  0  0  0  0  0  0  0  0  0  0
    0.4174    1.3679   -0.1084 C   0  0  1  0  0  0  0  0  0  0  0  0
    0.3137    3.2131   -1.9240 C   0  0  2  0  0  0  0  0  0  0  0  0
    0.9613    1.9011   -1.4311 C   0  0  1  0  0  0  0  0  0  0  0  0
    0.2054   -0.5689    1.3360 O   0  0  0  0  0  0  0  0  0  0  0  0
    1.6988    4.8397   -0.7646 O   0  0  0  0  0  0  0  0  0  0  0  0
   -0.9992    1.3743   -0.1819 O   0  0  0  0  0  0  0  0  0  0  0  0
    1.0317    3.6182   -3.0971 O   0  0  0  0  0  0  0  0  0  0  0  0
    2.3730    2.0983   -1.2484 O   0  0  0  0  0  0  0  0  0  0  0  0
    1.9928   -0.0724    0.3408 H   0  0  0  0  0  0  0  0  0  0  0  0
    0.6464   -0.7153   -0.6309 H   0  0  0  0  0  0  0  0  0  0  0  0
   -0.0650    4.0382    0.0608 H   0  0  0  0  0  0  0  0  0  0  0  0
   -0.2296    5.2004   -1.2660 H   0  0  0  0  0  0  0  0  0  0  0  0
    0.7662    2.0337    0.7034 H   0  0  0  0  0  0  0  0  0  0  0  0
   -0.7249    3.0084   -2.2020 H   0  0  0  0  0  0  0  0  0  0  0  0
    0.7952    1.1438   -2.2125 H   0  0  0  0  0  0  0  0  0  0  0  0
    0.5776   -0.1527    2.1299 H   0  0  0  0  0  0  0  0  0  0  0  0
    2.2416    4.0594   -0.5415 H   0  0  0  0  0  0  0  0  0  0  0  0
   -1.2883    0.7395    0.4991 H   0  0  0  0  0  0  0  0  0  0  0  0
    1.5837    4.3663   -2.7995 H   0  0  0  0  0  0  0  0  0  0  0  0
    2.6833    2.4019   -2.1205 H   0  0  0  0  0  0  0  0  0  0  0  0
  1 11  1  0
  1  6  1  0
  2  7  1  0
  2 13  1  0
  3  1  1  0
  3 15  1  1
  4 16  1  6
  4  5  1  0
  4  2  1  0
  5 17  1  6
  5 10  1  0
  5  3  1  0
  6 18  1  0
  7 19  1  0
  8  3  1  0
  8 20  1  0
  9 21  1  0
  9  4  1  0
 12  1  1  0
 14  2  1  0
 22 10  1  0
M  END
>  <HBA>  (276) 
5

>  <HBD>  (276) 
5

>  <TPSA>  (276) 
101.15

>  <cid>  (276) 
827

>  <dipole>  (276) 
2.08

>  <excitation_energy_1>  (276) 
6.257

>  <excitation_energy_2>  (276) 
6.38

>  <excitation_energy_3>  (276) 
6.607

>  <excitation_energy_4>  (276) 
6.941

>  <homo_energy>  (276) 
-7.072

>  <homo_lumo_gap>  (276) 
8.294

>  <logP>  (276) 
-2.946

>  <lumo_energy>  (276) 
1.222

>  <melting_point>  (276) 
67.19

>  <molecular_refractivity>  (276) 
31.96

>  <oscillator_strength_1>  (276) 
0.003

>  <oscillator_strength_2>  (276) 
0.0066

>  <oscillator_strength_3>  (276) 
0.003

>  <oscillator_strength_4>  (276) 
0.0107

>  <open_babel_can_smiles>  (276) 
OC[C@H]([C@H]([C@H](CO)O)O)O

>  <mulliken_charges>  (276) 
22
1   -0.071473
2   -0.086196
3   0.126443
4   0.106328
5   0.09975
6   -0.621753
7   -0.643658
8   -0.647884
9   -0.657415
10   -0.653555
11   0.155357
12   0.158609
13   0.153796
14   0.159454
15   0.106698
16   0.157566
17   0.137325
18   0.397853
19   0.405082
20   0.408345
21   0.405093
22   0.404238

>  <lowdin_charges>  (276) 
22
1   -0.153233
2   -0.15486
3   -0.029181
4   -0.036043
5   -0.024627
6   -0.464999
7   -0.481396
8   -0.468993
9   -0.474108
10   -0.469285
11   0.147081
12   0.155016
13   0.146175
14   0.155717
15   0.121011
16   0.158344
17   0.142873
18   0.348605
19   0.339947
20   0.349442
21   0.344976
22   0.347537

$$$$
PCCDB-ID:  829
     RDKit          3D

 15 14  0  0  1  0  0  0  0  0999 V2000
    1.0007    0.4344    0.3458 C   0  0  0  0  0  0  0  0  0  0  0  0
    0.1244   -0.0129   -0.7917 C   0  0  0  0  0  0  0  0  0  0  0  0
    2.5196    0.2118    0.1653 C   0  0  1  0  0  0  0  0  0  0  0  0
    3.1463    1.2598   -0.7885 C   0  0  0  0  0  0  0  0  0  0  0  0
    3.1520    0.2057    1.4799 N   0  0  0  0  0  0  0  0  0  0  0  0
    0.5208   -0.3428   -1.8968 O   0  0  0  0  0  0  0  0  0  0  0  0
    3.9078    2.1105   -0.3875 O   0  0  0  0  0  0  0  0  0  0  0  0
    2.8010    1.1777   -2.0827 O   0  0  0  0  0  0  0  0  0  0  0  0
    0.6861   -0.1125    1.2454 H   0  0  0  0  0  0  0  0  0  0  0  0
    0.7685    1.4904    0.5586 H   0  0  0  0  0  0  0  0  0  0  0  0
   -0.9608   -0.0503   -0.5702 H   0  0  0  0  0  0  0  0  0  0  0  0
    2.6551   -0.7798   -0.2851 H   0  0  0  0  0  0  0  0  0  0  0  0
    3.3029    1.1782    1.7536 H   0  0  0  0  0  0  0  0  0  0  0  0
    4.0935   -0.1734    1.3849 H   0  0  0  0  0  0  0  0  0  0  0  0
    2.1197    0.4769   -2.2067 H   0  0  0  0  0  0  0  0  0  0  0  0
  1 10  1  0
  1  9  1  0
  2 11  1  0
  2  1  1  0
  3 12  1  6
  3  1  1  0
  3  5  1  0
  4  7  2  0
  4  3  1  0
  5 13  1  0
  6  2  2  0
  8  4  1  0
 14  5  1  0
 15  8  1  0
M  END
>  <HBA>  (277) 
4

>  <HBD>  (277) 
2

>  <TPSA>  (277) 
80.39

>  <cid>  (277) 
829

>  <dipole>  (277) 
3.9

>  <excitation_energy_1>  (277) 
4.391

>  <excitation_energy_2>  (277) 
4.651

>  <excitation_energy_3>  (277) 
5.17

>  <excitation_energy_4>  (277) 
5.653

>  <homo_energy>  (277) 
-6.966

>  <homo_lumo_gap>  (277) 
5.306

>  <logP>  (277) 
-0.312

>  <lumo_energy>  (277) 
-1.66

>  <melting_point>  (277) 
137.9

>  <molecular_refractivity>  (277) 
26.02

>  <oscillator_strength_1>  (277) 
0.0004

>  <oscillator_strength_2>  (277) 
0.0031

>  <oscillator_strength_3>  (277) 
0.0067

>  <oscillator_strength_4>  (277) 
0.0018

>  <open_babel_can_smiles>  (277) 
O=CC[C@@H](C(=O)O)N

>  <mulliken_charges>  (277) 
15
1   -0.356871
2   0.262905
3   -0.11122
4   0.573722
5   -0.69846
6   -0.405558
7   -0.454642
8   -0.584194
9   0.203972
10   0.192987
11   0.144037
12   0.166776
13   0.314728
14   0.311578
15   0.440239

>  <lowdin_charges>  (277) 
15
1   -0.316534
2   0.078511
3   -0.110539
4   0.168074
5   -0.529828
6   -0.229601
7   -0.257693
8   -0.357766
9   0.1899
10   0.181079
11   0.138601
12   0.160265
13   0.263539
14   0.263763
15   0.358226

$$$$
PCCDB-ID:  832
     RDKit          3D

 21 20  0  0  1  0  0  0  0  0999 V2000
    1.3554    0.3509   -0.1941 C   0  0  0  0  0  0  0  0  0  0  0  0
    1.0106    1.7481   -0.7614 C   0  0  1  0  0  0  0  0  0  0  0  0
    2.8041    0.1359    0.1501 C   0  0  0  0  0  0  0  0  0  0  0  0
    1.3880    1.8575   -2.2608 C   0  0  0  0  0  0  0  0  0  0  0  0
   -0.4056    2.0032   -0.5260 N   0  0  0  0  0  0  0  0  0  0  0  0
    3.7283    0.8782   -0.1637 O   0  0  0  0  0  0  0  0  0  0  0  0
    0.5462    1.9148   -3.1267 O   0  0  0  0  0  0  0  0  0  0  0  0
    2.6995    1.8745   -2.5542 O   0  0  0  0  0  0  0  0  0  0  0  0
    5.3503   -0.3247    1.6925 O   0  0  0  0  0  0  0  0  0  0  0  0
    4.2678   -2.3654    2.5394 O   0  0  0  0  0  0  0  0  0  0  0  0
    5.0332   -2.3869    0.0343 O   0  0  0  0  0  0  0  0  0  0  0  0
    2.9901   -0.9803    0.8779 O   0  0  0  0  0  0  0  0  0  0  0  0
    4.5385   -1.5910    1.1689 P   0  0  0  0  0  0  0  0  0  0  0  0
    1.0562   -0.4494   -0.8855 H   0  0  0  0  0  0  0  0  0  0  0  0
    0.7619    0.1977    0.7135 H   0  0  0  0  0  0  0  0  0  0  0  0
    1.5922    2.4914   -0.2028 H   0  0  0  0  0  0  0  0  0  0  0  0
   -0.9291    1.5593   -1.2826 H   0  0  0  0  0  0  0  0  0  0  0  0
   -0.5830    2.9992   -0.6503 H   0  0  0  0  0  0  0  0  0  0  0  0
    3.2322    1.7578   -1.7383 H   0  0  0  0  0  0  0  0  0  0  0  0
    5.2625    0.4098    1.0489 H   0  0  0  0  0  0  0  0  0  0  0  0
    4.3395   -3.3254    2.4043 H   0  0  0  0  0  0  0  0  0  0  0  0
  1  3  1  0
  1 15  1  0
  2  5  1  0
  2 16  1  1
  2  1  1  0
  3 12  1  0
  4  2  1  0
  6  3  2  0
  7  4  2  0
  8  4  1  0
  8 19  1  0
 11 13  2  0
 12 13  1  0
 13  9  1  0
 13 10  1  0
 14  1  1  0
 17  5  1  0
 18  5  1  0
 20  9  1  0
 21 10  1  0
M  END
>  <HBA>  (278) 
8

>  <HBD>  (278) 
4

>  <TPSA>  (278) 
156.96

>  <cid>  (278) 
832

>  <dipole>  (278) 
3.88

>  <excitation_energy_1>  (278) 
4.909

>  <excitation_energy_2>  (278) 
5.525

>  <excitation_energy_3>  (278) 
5.652

>  <excitation_energy_4>  (278) 
5.971

>  <homo_energy>  (278) 
-7.162

>  <homo_lumo_gap>  (278) 
5.644

>  <logP>  (278) 
-0.875

>  <lumo_energy>  (278) 
-1.518

>  <melting_point>  (278) 
207.29

>  <molecular_refractivity>  (278) 
38.09

>  <oscillator_strength_1>  (278) 
0.0045

>  <oscillator_strength_2>  (278) 
0.009

>  <oscillator_strength_3>  (278) 
0.003

>  <oscillator_strength_4>  (278) 
0.0005

>  <open_babel_can_smiles>  (278) 
O=C(OP(=O)(O)O)C[C@@H](C(=O)O)N

>  <mulliken_charges>  (278) 
21
1   -0.369401
2   -0.114801
3   0.663634
4   0.575143
5   -0.69898
6   -0.525698
7   -0.448144
8   -0.579959
9   -0.627246
10   -0.606398
11   -0.501718
12   -0.505315
13   1.140288
14   0.212446
15   0.225362
16   0.168398
17   0.318518
18   0.313787
19   0.442829
20   0.461058
21   0.456198

>  <lowdin_charges>  (278) 
21
1   -0.302482
2   -0.113208
3   0.241342
4   0.173351
5   -0.530589
6   -0.285731
7   -0.252459
8   -0.355473
9   -0.542154
10   -0.531888
11   -0.550782
12   -0.311439
13   1.130398
14   0.192675
15   0.200663
16   0.163063
17   0.267964
18   0.264841
19   0.35994
20   0.386902
21   0.395066

$$$$
PCCDB-ID:  833
     RDKit          3D

 25 24  0  0  1  0  0  0  0  0999 V2000
    1.3015   -0.3552   -0.1453 C   0  0  0  0  0  0  0  0  0  0  0  0
    1.8390   -1.4244   -1.1118 C   0  0  0  0  0  0  0  0  0  0  0  0
    2.0592    0.9780   -0.1220 C   0  0  0  0  0  0  0  0  0  0  0  0
    3.2362   -2.0310   -0.8256 C   0  0  1  0  0  0  0  0  0  0  0  0
    3.3022   -2.6114    0.6041 C   0  0  0  0  0  0  0  0  0  0  0  0
    4.2117    1.9368    0.5788 C   0  0  0  0  0  0  0  0  0  0  0  0
    3.5601   -2.9574   -1.9015 N   0  0  0  0  0  0  0  0  0  0  0  0
    4.1097    3.1161    0.0890 N   0  0  0  0  0  0  0  0  0  0  0  0
    3.3892    0.8449    0.4499 N   0  0  0  0  0  0  0  0  0  0  0  0
    3.3071   -1.9232    1.6037 O   0  0  0  0  0  0  0  0  0  0  0  0
    3.3376   -3.9552    0.6973 O   0  0  0  0  0  0  0  0  0  0  0  0
    5.2990    1.6219    1.3353 O   0  0  0  0  0  0  0  0  0  0  0  0
    1.2416   -0.7558    0.8722 H   0  0  0  0  0  0  0  0  0  0  0  0
    0.2714   -0.1329   -0.4502 H   0  0  0  0  0  0  0  0  0  0  0  0
    1.8907   -1.0132   -2.1270 H   0  0  0  0  0  0  0  0  0  0  0  0
    1.1127   -2.2506   -1.1475 H   0  0  0  0  0  0  0  0  0  0  0  0
    1.4593    1.7133    0.4397 H   0  0  0  0  0  0  0  0  0  0  0  0
    2.1503    1.3651   -1.1473 H   0  0  0  0  0  0  0  0  0  0  0  0
    3.9691   -1.2189   -0.8443 H   0  0  0  0  0  0  0  0  0  0  0  0
    2.8397   -3.6289   -2.1450 H   0  0  0  0  0  0  0  0  0  0  0  0
    4.4850   -3.3705   -1.8733 H   0  0  0  0  0  0  0  0  0  0  0  0
    3.2507    3.2382   -0.4445 H   0  0  0  0  0  0  0  0  0  0  0  0
    3.5196    0.0976    1.1282 H   0  0  0  0  0  0  0  0  0  0  0  0
    3.3803   -4.2997   -0.2161 H   0  0  0  0  0  0  0  0  0  0  0  0
    5.8213    2.4425    1.3635 H   0  0  0  0  0  0  0  0  0  0  0  0
  1  3  1  0
  1 13  1  0
  2  4  1  0
  2  1  1  0
  3 17  1  0
  3  9  1  0
  4 19  1  1
  4  5  1  0
  5 11  1  0
  5 10  2  0
  6 12  1  0
  7 21  1  0
  7  4  1  0
  8  6  2  0
  9  6  1  0
  9 23  1  0
 12 25  1  0
 14  1  1  0
 15  2  1  0
 16  2  1  0
 18  3  1  0
 20  7  1  0
 22  8  1  0
 24 11  1  0
M  END
>  <HBA>  (279) 
6

>  <HBD>  (279) 
4

>  <TPSA>  (279) 
118.44

>  <cid>  (279) 
833

>  <dipole>  (279) 
5.56

>  <excitation_energy_1>  (279) 
5.075

>  <excitation_energy_2>  (279) 
5.161

>  <excitation_energy_3>  (279) 
5.319

>  <excitation_energy_4>  (279) 
5.55

>  <homo_energy>  (279) 
-5.973

>  <homo_lumo_gap>  (279) 
5.872

>  <logP>  (279) 
0.638

>  <lumo_energy>  (279) 
-0.101

>  <melting_point>  (279) 
218.0

>  <molecular_refractivity>  (279) 
41.53

>  <oscillator_strength_1>  (279) 
0.0012

>  <oscillator_strength_2>  (279) 
0.0066

>  <oscillator_strength_3>  (279) 
0.0041

>  <oscillator_strength_4>  (279) 
0.0175

>  <open_babel_can_smiles>  (279) 
OC(=N)NCCC[C@@H](C(=O)O)N

>  <mulliken_charges>  (279) 
25
1   -0.303178
2   -0.26638
3   -0.118276
4   -0.068063
5   0.586968
6   0.640402
7   -0.754361
8   -0.673515
9   -0.629183
10   -0.458848
11   -0.554539
12   -0.607512
13   0.173665
14   0.146633
15   0.16599
16   0.132385
17   0.146172
18   0.14505
19   0.204786
20   0.312379
21   0.323621
22   0.279252
23   0.372969
24   0.38754
25   0.416045

>  <lowdin_charges>  (279) 
25
1   -0.282948
2   -0.270199
3   -0.19339
4   -0.111817
5   0.183776
6   0.156468
7   -0.554556
8   -0.502927
9   -0.314945
10   -0.258689
11   -0.344415
12   -0.384387
13   0.160404
14   0.154866
15   0.158789
16   0.143195
17   0.140679
18   0.140264
19   0.182207
20   0.266466
21   0.271953
22   0.254254
23   0.296669
24   0.343321
25   0.364961

$$$$
PCCDB-ID:  835
     RDKit          3D

 18 18  0  0  1  0  0  0  0  0999 V2000
    1.1866    0.0952    0.0066 C   0  0  0  0  0  0  0  0  0  0  0  0
    0.7196   -0.9671    0.9999 C   0  0  1  0  0  0  0  0  0  0  0  0
    0.5330   -1.7133    3.3766 C   0  0  0  0  0  0  0  0  0  0  0  0
   -0.5468   -0.8927    4.0935 C   0  0  0  0  0  0  0  0  0  0  0  0
    1.2193   -0.7304    2.4264 C   0  0  2  0  0  0  0  0  0  0  0  0
   -0.2922    0.5638    3.6805 C   0  0  0  0  0  0  0  0  0  0  0  0
    0.4777   -0.1898   -1.1998 O   0  0  0  0  0  0  0  0  0  0  0  0
   -0.6953   -0.9687    1.0870 O   0  0  0  0  0  0  0  0  0  0  0  0
    0.7844   -2.8836    3.5155 O   0  0  0  0  0  0  0  0  0  0  0  0
   -1.4029   -1.2886    4.8398 O   0  0  0  0  0  0  0  0  0  0  0  0
   -0.8729    1.5501    4.0336 O   0  0  0  0  0  0  0  0  0  0  0  0
    0.8196    0.5882    2.8822 O   0  0  0  0  0  0  0  0  0  0  0  0
    2.2750    0.0324   -0.1402 H   0  0  0  0  0  0  0  0  0  0  0  0
    0.9351    1.0898    0.3941 H   0  0  0  0  0  0  0  0  0  0  0  0
    1.0936   -1.9530    0.6795 H   0  0  0  0  0  0  0  0  0  0  0  0
    2.3094   -0.7930    2.4878 H   0  0  0  0  0  0  0  0  0  0  0  0
    0.4971    0.5968   -1.7643 H   0  0  0  0  0  0  0  0  0  0  0  0
   -1.0197   -0.8413    0.1773 H   0  0  0  0  0  0  0  0  0  0  0  0
  1 14  1  0
  1  2  1  0
  2 15  1  6
  2  8  1  0
  2  5  1  0
  3  9  2  0
  3  4  1  0
  4 10  2  0
  5 16  1  6
  5 12  1  0
  5  3  1  0
  6 11  2  0
  6  4  1  0
  7  1  1  0
 12  6  1  0
 13  1  1  0
 17  7  1  0
 18  8  1  0
M  END
>  <HBA>  (280) 
6

>  <HBD>  (280) 
2

>  <TPSA>  (280) 
100.9

>  <cid>  (280) 
835

>  <dipole>  (280) 
5.97

>  <excitation_energy_1>  (280) 
1.787

>  <excitation_energy_2>  (280) 
3.62

>  <excitation_energy_3>  (280) 
3.695

>  <excitation_energy_4>  (280) 
4.155

>  <homo_energy>  (280) 
-6.882

>  <homo_lumo_gap>  (280) 
3.246

>  <logP>  (280) 
-2.597

>  <lumo_energy>  (280) 
-3.635

>  <melting_point>  (280) 
88.47

>  <molecular_refractivity>  (280) 
32.85

>  <oscillator_strength_1>  (280) 
0.0001

>  <oscillator_strength_2>  (280) 
0.0001

>  <oscillator_strength_3>  (280) 
0.0023

>  <oscillator_strength_4>  (280) 
0.0004

>  <open_babel_can_smiles>  (280) 
OC[C@@H]([C@H]1OC(=O)C(=O)C1=O)O

>  <mulliken_charges>  (280) 
18
1   -0.062227
2   0.154077
3   0.426773
4   0.352084
5   -0.018123
6   0.595028
7   -0.631639
8   -0.656522
9   -0.402244
10   -0.370505
11   -0.414776
12   -0.465482
13   0.137645
14   0.166137
15   0.160708
16   0.191179
17   0.412328
18   0.425558

>  <lowdin_charges>  (280) 
18
1   -0.150588
2   -0.011792
3   0.12876
4   0.105614
5   -0.032587
6   0.166926
7   -0.468921
8   -0.459915
9   -0.14597
10   -0.107115
11   -0.178261
12   -0.182169
13   0.138935
14   0.151162
15   0.152262
16   0.176409
17   0.35849
18   0.358761

$$$$
PCCDB-ID:  836
     RDKit          3D

 25 25  0  0  1  0  0  0  0  0999 V2000
   -0.9907    0.8332    0.3434 C   0  0  0  0  0  0  0  0  0  0  0  0
   -0.2780    2.0381    0.3939 C   0  0  0  0  0  0  0  0  0  0  0  0
   -1.0988   -1.6746   -0.1013 C   0  0  0  0  0  0  0  0  0  0  0  0
    1.0125   -0.2990   -0.3563 C   0  0  0  0  0  0  0  0  0  0  0  0
   -0.3563   -0.3549   -0.0312 C   0  0  0  0  0  0  0  0  0  0  0  0
   -0.7632   -2.6937    1.0245 C   0  0  1  0  0  0  0  0  0  0  0  0
    1.0743    2.0845    0.0716 C   0  0  0  0  0  0  0  0  0  0  0  0
    1.7287    0.8925   -0.3122 C   0  0  0  0  0  0  0  0  0  0  0  0
   -1.4110   -2.3219    2.3775 C   0  0  0  0  0  0  0  0  0  0  0  0
   -1.1223   -4.0375    0.5846 N   0  0  0  0  0  0  0  0  0  0  0  0
    1.8255    3.2218    0.0983 O   0  0  0  0  0  0  0  0  0  0  0  0
    3.0519    0.9898   -0.6248 O   0  0  0  0  0  0  0  0  0  0  0  0
   -2.1203   -3.0819    2.9930 O   0  0  0  0  0  0  0  0  0  0  0  0
   -1.1282   -1.0952    2.8760 O   0  0  0  0  0  0  0  0  0  0  0  0
   -2.0492    0.8300    0.5887 H   0  0  0  0  0  0  0  0  0  0  0  0
   -0.7864    2.9554    0.6849 H   0  0  0  0  0  0  0  0  0  0  0  0
   -0.8565   -2.1869   -1.0389 H   0  0  0  0  0  0  0  0  0  0  0  0
   -2.1808   -1.4919   -0.1129 H   0  0  0  0  0  0  0  0  0  0  0  0
    1.5275   -1.2084   -0.6649 H   0  0  0  0  0  0  0  0  0  0  0  0
    0.3255   -2.6760    1.1786 H   0  0  0  0  0  0  0  0  0  0  0  0
   -2.1376   -4.0793    0.4832 H   0  0  0  0  0  0  0  0  0  0  0  0
   -0.9284   -4.6848    1.3487 H   0  0  0  0  0  0  0  0  0  0  0  0
    1.2610    3.9605    0.3746 H   0  0  0  0  0  0  0  0  0  0  0  0
    3.3789    0.1109   -0.8725 H   0  0  0  0  0  0  0  0  0  0  0  0
   -0.6177   -0.5715    2.2290 H   0  0  0  0  0  0  0  0  0  0  0  0
  1  2  2  0
  1 15  1  0
  2 16  1  0
  3  5  1  0
  3  6  1  0
  4  8  1  0
  4  5  2  0
  5  1  1  0
  6 20  1  1
  6  9  1  0
  7 11  1  0
  7  2  1  0
  8  7  2  0
  9 14  1  0
  9 13  2  0
 10  6  1  0
 10 22  1  0
 11 23  1  0
 12  8  1  0
 17  3  1  0
 18  3  1  0
 19  4  1  0
 21 10  1  0
 24 12  1  0
 25 14  1  0
M  END
>  <HBA>  (281) 
5

>  <HBD>  (281) 
4

>  <TPSA>  (281) 
103.78

>  <cid>  (281) 
836

>  <dipole>  (281) 
3.3

>  <excitation_energy_1>  (281) 
4.77

>  <excitation_energy_2>  (281) 
5.022

>  <excitation_energy_3>  (281) 
5.268

>  <excitation_energy_4>  (281) 
5.402

>  <homo_energy>  (281) 
-6.046

>  <homo_lumo_gap>  (281) 
5.589

>  <logP>  (281) 
0.752

>  <lumo_energy>  (281) 
-0.457

>  <melting_point>  (281) 
219.18

>  <molecular_refractivity>  (281) 
49.55

>  <oscillator_strength_1>  (281) 
0.079

>  <oscillator_strength_2>  (281) 
0.0006

>  <oscillator_strength_3>  (281) 
0.0004

>  <oscillator_strength_4>  (281) 
0.0263

>  <open_babel_can_smiles>  (281) 
OC(=O)[C@H](Cc1ccc(c(c1)O)O)N

>  <mulliken_charges>  (281) 
25
1   -0.219108
2   -0.189129
3   -0.351257
4   -0.251736
5   0.104187
6   -0.102697
7   0.322115
8   0.333498
9   0.568412
10   -0.694419
11   -0.625608
12   -0.627251
13   -0.451182
14   -0.575628
15   0.143566
16   0.130777
17   0.181447
18   0.154686
19   0.128368
20   0.161089
21   0.30367
22   0.311977
23   0.411478
24   0.411615
25   0.421129

>  <lowdin_charges>  (281) 
25
1   -0.187172
2   -0.204646
3   -0.276156
4   -0.218174
5   -0.036455
6   -0.111899
7   0.080229
8   0.085777
9   0.17259
10   -0.530964
11   -0.362447
12   -0.361757
13   -0.253097
14   -0.361178
15   0.16318
16   0.160422
17   0.171908
18   0.153261
19   0.158533
20   0.15399
21   0.257037
22   0.26501
23   0.362669
24   0.360569
25   0.358769

$$$$
PCCDB-ID:  840
     RDKit          3D

 23 23  0  0  1  0  0  0  0  0999 V2000
    0.9092   -0.0375    0.0945 C   0  0  0  0  0  0  0  0  0  0  0  0
    2.4238   -0.1284   -0.1340 C   0  0  2  0  0  0  0  0  0  0  0  0
    2.9690    0.9332   -1.1095 C   0  0  2  0  0  0  0  0  0  0  0  0
    2.5896    0.5927   -2.5619 C   0  0  2  0  0  0  0  0  0  0  0  0
    2.9981   -0.8531   -2.8868 C   0  0  2  0  0  0  0  0  0  0  0  0
    2.4733   -1.8539   -1.8394 C   0  0  1  0  0  0  0  0  0  0  0  0
    4.4079    0.9656   -1.0707 O   0  0  0  0  0  0  0  0  0  0  0  0
    3.1335    1.5087   -3.4893 O   0  0  0  0  0  0  0  0  0  0  0  0
    4.4211   -0.9767   -2.9793 O   0  0  0  0  0  0  0  0  0  0  0  0
    3.0120   -3.1091   -2.0589 O   0  0  0  0  0  0  0  0  0  0  0  0
    2.8583   -1.4328   -0.5210 O   0  0  0  0  0  0  0  0  0  0  0  0
    0.6472    0.9301    0.5375 H   0  0  0  0  0  0  0  0  0  0  0  0
    0.5987   -0.8277    0.7845 H   0  0  0  0  0  0  0  0  0  0  0  0
    0.3294   -0.1473   -0.8272 H   0  0  0  0  0  0  0  0  0  0  0  0
    2.9121    0.0300    0.8382 H   0  0  0  0  0  0  0  0  0  0  0  0
    2.5737    1.9261   -0.8521 H   0  0  0  0  0  0  0  0  0  0  0  0
    1.5010    0.6803   -2.6551 H   0  0  0  0  0  0  0  0  0  0  0  0
    2.6091   -1.1328   -3.8709 H   0  0  0  0  0  0  0  0  0  0  0  0
    1.3815   -1.9543   -1.8975 H   0  0  0  0  0  0  0  0  0  0  0  0
    4.6890    1.0679   -0.1478 H   0  0  0  0  0  0  0  0  0  0  0  0
    4.0765    1.2828   -3.5628 H   0  0  0  0  0  0  0  0  0  0  0  0
    4.7733   -0.5681   -2.1616 H   0  0  0  0  0  0  0  0  0  0  0  0
    3.9385   -2.9436   -2.3206 H   0  0  0  0  0  0  0  0  0  0  0  0
  1 12  1  0
  1 13  1  0
  2  1  1  0
  2 15  1  1
  3  7  1  0
  3 16  1  1
  3  2  1  0
  4 17  1  1
  4  3  1  0
  5 18  1  6
  5  4  1  0
  5  6  1  0
  6 19  1  1
  6 11  1  0
  7 20  1  0
  8  4  1  0
  9  5  1  0
  9 22  1  0
 10  6  1  0
 11  2  1  0
 14  1  1  0
 21  8  1  0
 23 10  1  0
M  END
>  <HBA>  (282) 
5

>  <HBD>  (282) 
4

>  <TPSA>  (282) 
90.15

>  <cid>  (282) 
840

>  <dipole>  (282) 
3.4

>  <excitation_energy_1>  (282) 
6.074

>  <excitation_energy_2>  (282) 
6.42

>  <excitation_energy_3>  (282) 
6.574

>  <excitation_energy_4>  (282) 
6.769

>  <homo_energy>  (282) 
-6.955

>  <homo_lumo_gap>  (282) 
8.185

>  <logP>  (282) 
-2.194

>  <lumo_energy>  (282) 
1.23

>  <melting_point>  (282) 
61.54

>  <molecular_refractivity>  (282) 
34.57

>  <oscillator_strength_1>  (282) 
0.0011

>  <oscillator_strength_2>  (282) 
0.0026

>  <oscillator_strength_3>  (282) 
0.005

>  <oscillator_strength_4>  (282) 
0.0002

>  <open_babel_can_smiles>  (282) 
O[C@@H]1[C@@H](C)O[C@@H]([C@@H]([C@@H]1O)O)O

>  <mulliken_charges>  (282) 
23
1   -0.477572
2   0.109363
3   0.107664
4   0.104162
5   0.057911
6   0.330657
7   -0.649531
8   -0.626736
9   -0.66487
10   -0.609183
11   -0.488866
12   0.151635
13   0.173161
14   0.156825
15   0.127906
16   0.135891
17   0.142229
18   0.157259
19   0.122026
20   0.405502
21   0.406013
22   0.422824
23   0.405732

>  <lowdin_charges>  (282) 
23
1   -0.464339
2   -0.016972
3   -0.036573
4   -0.030406
5   -0.04912
6   0.077226
7   -0.460107
8   -0.444081
9   -0.473129
10   -0.417102
11   -0.283327
12   0.158268
13   0.1689
14   0.153443
15   0.142056
16   0.144341
17   0.15072
18   0.159197
19   0.130017
20   0.35066
21   0.347368
22   0.346261
23   0.346699

$$$$
PCCDB-ID:  841
     RDKit          3D

 23 22  0  0  1  0  0  0  0  0999 V2000
    0.7962    0.2666    0.0612 C   0  0  0  0  0  0  0  0  0  0  0  0
    6.3704   -1.2212   -0.1431 C   0  0  0  0  0  0  0  0  0  0  0  0
    2.3023    0.0262    0.0748 C   0  0  1  0  0  0  0  0  0  0  0  0
    5.0035   -1.2276   -0.7884 C   0  0  0  0  0  0  0  0  0  0  0  0
    2.9201    0.1546   -1.3315 C   0  0  1  0  0  0  0  0  0  0  0  0
    4.4581    0.0912   -1.3460 C   0  0  2  0  0  0  0  0  0  0  0  0
    6.8096   -2.5082    0.1871 O   0  0  0  0  0  0  0  0  0  0  0  0
    2.9808    0.8919    0.9917 O   0  0  0  0  0  0  0  0  0  0  0  0
    4.3970   -2.2887   -0.9101 O   0  0  0  0  0  0  0  0  0  0  0  0
    2.4089   -0.8228   -2.2393 O   0  0  0  0  0  0  0  0  0  0  0  0
    4.9353    0.1801   -2.6860 O   0  0  0  0  0  0  0  0  0  0  0  0
    0.3042   -0.4139   -0.6398 H   0  0  0  0  0  0  0  0  0  0  0  0
    0.5716    1.2936   -0.2600 H   0  0  0  0  0  0  0  0  0  0  0  0
    0.3757    0.1183    1.0606 H   0  0  0  0  0  0  0  0  0  0  0  0
    6.3041   -0.5737    0.7499 H   0  0  0  0  0  0  0  0  0  0  0  0
    7.0686   -0.7256   -0.8370 H   0  0  0  0  0  0  0  0  0  0  0  0
    2.5042   -0.9837    0.4500 H   0  0  0  0  0  0  0  0  0  0  0  0
    2.6370    1.1257   -1.7603 H   0  0  0  0  0  0  0  0  0  0  0  0
    4.8819    0.9317   -0.7911 H   0  0  0  0  0  0  0  0  0  0  0  0
    6.0728   -3.1049   -0.0453 H   0  0  0  0  0  0  0  0  0  0  0  0
    2.6679    1.7964    0.8267 H   0  0  0  0  0  0  0  0  0  0  0  0
    2.7266   -1.6829   -1.8994 H   0  0  0  0  0  0  0  0  0  0  0  0
    4.2823   -0.3232   -3.2102 H   0  0  0  0  0  0  0  0  0  0  0  0
  1  3  1  0
  1 14  1  0
  2  7  1  0
  2 15  1  0
  3 17  1  1
  3  8  1  0
  4  2  1  0
  5 18  1  6
  5  3  1  0
  6  5  1  0
  6 19  1  1
  6  4  1  0
  9  4  2  0
 10 22  1  0
 10  5  1  0
 11  6  1  0
 12  1  1  0
 13  1  1  0
 16  2  1  0
 20  7  1  0
 21  8  1  0
 23 11  1  0
M  END
>  <HBA>  (283) 
5

>  <HBD>  (283) 
4

>  <TPSA>  (283) 
97.99

>  <cid>  (283) 
841

>  <dipole>  (283) 
2.95

>  <excitation_energy_1>  (283) 
4.262

>  <excitation_energy_2>  (283) 
5.146

>  <excitation_energy_3>  (283) 
5.266

>  <excitation_energy_4>  (283) 
6.137

>  <homo_energy>  (283) 
-7.14

>  <homo_lumo_gap>  (283) 
5.823

>  <logP>  (283) 
-2.35

>  <lumo_energy>  (283) 
-1.317

>  <melting_point>  (283) 
69.3

>  <molecular_refractivity>  (283) 
35.8

>  <oscillator_strength_1>  (283) 
0.0018

>  <oscillator_strength_2>  (283) 
0.0001

>  <oscillator_strength_3>  (283) 
0.0354

>  <oscillator_strength_4>  (283) 
0.0126

>  <open_babel_can_smiles>  (283) 
OCC(=O)[C@H]([C@H]([C@@H](O)C)O)O

>  <mulliken_charges>  (283) 
23
1   -0.46754
2   -0.079654
3   0.111539
4   0.423964
5   0.080461
6   0.064258
7   -0.622776
8   -0.625596
9   -0.496796
10   -0.652339
11   -0.623955
12   0.17384
13   0.133649
14   0.162671
15   0.168846
16   0.178422
17   0.150569
18   0.138649
19   0.155263
20   0.409702
21   0.390058
22   0.417918
23   0.408847

>  <lowdin_charges>  (283) 
23
1   -0.458776
2   -0.163062
3   -0.019568
4   0.155908
5   -0.034825
6   -0.04721
7   -0.457452
8   -0.461041
9   -0.260426
10   -0.463613
11   -0.446209
12   0.171022
13   0.143994
14   0.160515
15   0.162743
16   0.169544
17   0.148832
18   0.147728
19   0.162279
20   0.349319
21   0.342154
22   0.347541
23   0.350603

$$$$
PCCDB-ID:  844
     RDKit          3D

 18 17  0  0  1  0  0  0  0  0999 V2000
    0.7959    0.3597    0.2453 C   0  0  0  0  0  0  0  0  0  0  0  0
    0.3416   -0.8218   -0.6113 C   0  0  0  0  0  0  0  0  0  0  0  0
    0.7019    1.6920   -0.4523 C   0  0  0  0  0  0  0  0  0  0  0  0
   -1.1923   -0.8264   -0.8788 C   0  0  1  0  0  0  0  0  0  0  0  0
   -1.4723   -1.0961   -2.3710 C   0  0  0  0  0  0  0  0  0  0  0  0
   -1.8525   -1.7628    0.0239 N   0  0  0  0  0  0  0  0  0  0  0  0
    0.2577    1.8686   -1.5738 O   0  0  0  0  0  0  0  0  0  0  0  0
   -2.0417   -2.0869   -2.7665 O   0  0  0  0  0  0  0  0  0  0  0  0
   -1.0246   -0.1504   -3.2210 O   0  0  0  0  0  0  0  0  0  0  0  0
    1.8395    0.2469    0.5778 H   0  0  0  0  0  0  0  0  0  0  0  0
    0.2074    0.4258    1.1741 H   0  0  0  0  0  0  0  0  0  0  0  0
    0.5897   -1.7539   -0.0950 H   0  0  0  0  0  0  0  0  0  0  0  0
    0.9052   -0.8156   -1.5508 H   0  0  0  0  0  0  0  0  0  0  0  0
    1.0779    2.5634    0.1220 H   0  0  0  0  0  0  0  0  0  0  0  0
   -1.5922    0.1726   -0.6627 H   0  0  0  0  0  0  0  0  0  0  0  0
   -1.6971   -2.7045   -0.3402 H   0  0  0  0  0  0  0  0  0  0  0  0
   -2.8615   -1.6330   -0.0484 H   0  0  0  0  0  0  0  0  0  0  0  0
   -0.5893    0.5773   -2.7229 H   0  0  0  0  0  0  0  0  0  0  0  0
  1 10  1  0
  1 11  1  0
  2 12  1  0
  2  1  1  0
  3 14  1  0
  3  1  1  0
  4 15  1  1
  4  2  1  0
  4  6  1  0
  5  4  1  0
  7  3  2  0
  8  5  2  0
  9 18  1  0
  9  5  1  0
 13  2  1  0
 16  6  1  0
 17  6  1  0
M  END
>  <HBA>  (284) 
4

>  <HBD>  (284) 
2

>  <TPSA>  (284) 
80.39

>  <cid>  (284) 
844

>  <dipole>  (284) 
5.43

>  <excitation_energy_1>  (284) 
4.424

>  <excitation_energy_2>  (284) 
4.526

>  <excitation_energy_3>  (284) 
5.226

>  <excitation_energy_4>  (284) 
5.617

>  <homo_energy>  (284) 
-6.708

>  <homo_lumo_gap>  (284) 
5.159

>  <logP>  (284) 
0.078

>  <lumo_energy>  (284) 
-1.548

>  <melting_point>  (284) 
137.23

>  <molecular_refractivity>  (284) 
30.83

>  <oscillator_strength_1>  (284) 
0.0002

>  <oscillator_strength_2>  (284) 
0.0002

>  <oscillator_strength_3>  (284) 
0.0002

>  <oscillator_strength_4>  (284) 
0.002

>  <open_babel_can_smiles>  (284) 
O=CCC[C@@H](C(=O)O)N

>  <mulliken_charges>  (284) 
18
1   -0.363875
2   -0.269685
3   0.265939
4   -0.098715
5   0.564512
6   -0.703369
7   -0.401351
8   -0.456923
9   -0.594125
10   0.177381
11   0.195168
12   0.168679
13   0.164072
14   0.133681
15   0.154851
16   0.311136
17   0.307326
18   0.445298

>  <lowdin_charges>  (284) 
18
1   -0.309961
2   -0.279784
3   0.073602
4   -0.113469
5   0.167105
6   -0.533611
7   -0.230303
8   -0.257831
9   -0.362175
10   0.173572
11   0.18144
12   0.167459
13   0.1562
14   0.136588
15   0.152862
16   0.262142
17   0.25988
18   0.356283

$$$$
PCCDB-ID:  846
     RDKit          3D

 27 27  0  0  1  0  0  0  0  0999 V2000
   -1.4866   -0.5539    0.6537 C   0  0  0  0  0  0  0  0  0  0  0  0
   -1.2450   -1.1137   -0.6105 C   0  0  0  0  0  0  0  0  0  0  0  0
   -0.5085    0.2389    1.2218 C   0  0  0  0  0  0  0  0  0  0  0  0
   -0.0608   -0.8606   -1.2791 C   0  0  0  0  0  0  0  0  0  0  0  0
    3.1722    1.3043    1.0358 C   0  0  0  0  0  0  0  0  0  0  0  0
    0.7301    0.4876    0.5851 C   0  0  0  0  0  0  0  0  0  0  0  0
    0.9545   -0.0461   -0.7223 C   0  0  0  0  0  0  0  0  0  0  0  0
    3.5061    2.6606    0.3396 C   0  0  1  0  0  0  0  0  0  0  0  0
    1.6908    1.2929    1.3599 C   0  0  0  0  0  0  0  0  0  0  0  0
    4.1451    3.6491    1.3365 C   0  0  0  0  0  0  0  0  0  0  0  0
    2.0886    0.1586   -1.4817 N   0  0  0  0  0  0  0  0  0  0  0  0
    4.2821    2.4257   -0.8744 N   0  0  0  0  0  0  0  0  0  0  0  0
    1.3223    2.0156    2.2975 O   0  0  0  0  0  0  0  0  0  0  0  0
    5.1672    4.2456    1.0848 O   0  0  0  0  0  0  0  0  0  0  0  0
    3.4810    3.8175    2.4895 O   0  0  0  0  0  0  0  0  0  0  0  0
   -2.4191   -0.7433    1.1756 H   0  0  0  0  0  0  0  0  0  0  0  0
   -1.9953   -1.7441   -1.0810 H   0  0  0  0  0  0  0  0  0  0  0  0
   -0.6550    0.6858    2.1994 H   0  0  0  0  0  0  0  0  0  0  0  0
    0.1010   -1.2811   -2.2693 H   0  0  0  0  0  0  0  0  0  0  0  0
    3.7100    1.2144    1.9850 H   0  0  0  0  0  0  0  0  0  0  0  0
    3.4759    0.4718    0.4008 H   0  0  0  0  0  0  0  0  0  0  0  0
    2.5654    3.1331    0.0210 H   0  0  0  0  0  0  0  0  0  0  0  0
    2.6925    0.9711   -1.3781 H   0  0  0  0  0  0  0  0  0  0  0  0
    2.0302   -0.1646   -2.4380 H   0  0  0  0  0  0  0  0  0  0  0  0
    5.1909    2.0398   -0.6139 H   0  0  0  0  0  0  0  0  0  0  0  0
    4.5003    3.3273   -1.2998 H   0  0  0  0  0  0  0  0  0  0  0  0
    2.6714    3.2447    2.5335 H   0  0  0  0  0  0  0  0  0  0  0  0
  1 16  1  0
  1  3  2  0
  2  1  1  0
  3 18  1  0
  4  7  1  0
  4  2  2  0
  5  9  1  0
  5 20  1  0
  6  3  1  0
  6  9  1  0
  7  6  2  0
  8 22  1  6
  8  5  1  0
  8 10  1  0
  9 13  2  0
 10 15  1  0
 11 23  1  0
 11  7  1  0
 12 25  1  0
 12  8  1  0
 14 10  2  0
 15 27  1  0
 17  2  1  0
 19  4  1  0
 21  5  1  0
 24 11  1  0
 26 12  1  0
M  END
>  <HBA>  (285) 
5

>  <HBD>  (285) 
3

>  <TPSA>  (285) 
106.41

>  <cid>  (285) 
846

>  <dipole>  (285) 
5.92

>  <excitation_energy_1>  (285) 
3.524

>  <excitation_energy_2>  (285) 
4.022

>  <excitation_energy_3>  (285) 
4.604

>  <excitation_energy_4>  (285) 
4.865

>  <homo_energy>  (285) 
-5.992

>  <homo_lumo_gap>  (285) 
4.15

>  <logP>  (285) 
1.535

>  <lumo_energy>  (285) 
-1.842

>  <melting_point>  (285) 
218.45

>  <molecular_refractivity>  (285) 
55.13

>  <oscillator_strength_1>  (285) 
0.0834

>  <oscillator_strength_2>  (285) 
0.0017

>  <oscillator_strength_3>  (285) 
0.0879

>  <oscillator_strength_4>  (285) 
0.0914

>  <open_babel_can_smiles>  (285) 
OC(=O)[C@H](CC(=O)c1ccccc1N)N

>  <mulliken_charges>  (285) 
27
1   -0.140609
2   -0.120836
3   -0.165767
4   -0.184026
5   -0.417019
6   0.047365
7   0.302977
8   -0.105285
9   0.389745
10   0.585788
11   -0.850729
12   -0.721296
13   -0.508576
14   -0.462521
15   -0.591664
16   0.135686
17   0.139806
18   0.166442
19   0.125667
20   0.191387
21   0.194829
22   0.182782
23   0.386551
24   0.33216
25   0.317596
26   0.324707
27   0.444839

>  <lowdin_charges>  (285) 
27
1   -0.187837
2   -0.123227
3   -0.113415
4   -0.201199
5   -0.325654
6   -0.098749
7   0.085587
8   -0.111983
9   0.166179
10   0.168643
11   -0.474689
12   -0.529966
13   -0.289314
14   -0.25821
15   -0.356829
16   0.162376
17   0.164393
18   0.177015
19   0.155199
20   0.176306
21   0.176698
22   0.163644
23   0.294322
24   0.281564
25   0.26658
26   0.271399
27   0.36117

$$$$
PCCDB-ID:  847
     RDKit          3D

 21 20  0  0  1  0  0  0  0  0999 V2000
    4.1454    0.7095    1.3824 C   0  0  0  0  0  0  0  0  0  0  0  0
    3.9199    2.5268   -1.4027 C   0  0  0  0  0  0  0  0  0  0  0  0
    3.8033    3.1021    0.0074 C   0  0  0  0  0  0  0  0  0  0  0  0
    4.3276    3.5586   -2.4691 C   0  0  1  0  0  0  0  0  0  0  0  0
    5.7920    4.0313   -2.3101 C   0  0  0  0  0  0  0  0  0  0  0  0
    4.1384    3.1133   -3.8641 N   0  0  0  0  0  0  0  0  0  0  0  0
    6.3461    4.1460   -1.2399 O   0  0  0  0  0  0  0  0  0  0  0  0
    6.3851    4.3338   -3.4726 O   0  0  0  0  0  0  0  0  0  0  0  0
    1.7404    1.3554    0.3077 O   0  0  0  0  0  0  0  0  0  0  0  0
    2.8434    1.9837    1.1393 S   0  0  0  0  0  0  0  0  0  0  0  0
    5.0033    1.1564    1.8938 H   0  0  0  0  0  0  0  0  0  0  0  0
    4.4452    0.2782    0.4239 H   0  0  0  0  0  0  0  0  0  0  0  0
    3.7051   -0.0705    2.0082 H   0  0  0  0  0  0  0  0  0  0  0  0
    2.9415    2.1101   -1.6735 H   0  0  0  0  0  0  0  0  0  0  0  0
    4.6405    1.6991   -1.4182 H   0  0  0  0  0  0  0  0  0  0  0  0
    3.2200    4.0304   -0.0057 H   0  0  0  0  0  0  0  0  0  0  0  0
    4.7720    3.3191    0.4617 H   0  0  0  0  0  0  0  0  0  0  0  0
    3.7128    4.4610   -2.3445 H   0  0  0  0  0  0  0  0  0  0  0  0
    4.3817    2.1270   -3.9565 H   0  0  0  0  0  0  0  0  0  0  0  0
    3.1645    3.2013   -4.1452 H   0  0  0  0  0  0  0  0  0  0  0  0
    5.7204    4.0924   -4.1669 H   0  0  0  0  0  0  0  0  0  0  0  0
  1 11  1  0
  1 13  1  0
  2  3  1  0
  3 17  1  0
  3 10  1  0
  4 18  1  1
  4  5  1  0
  4  2  1  0
  5  7  2  0
  6  4  1  0
  8  5  1  0
 10  9  2  0
 10  1  1  0
 12  1  1  0
 14  2  1  0
 15  2  1  0
 16  3  1  0
 19  6  1  0
 20  6  1  0
 21  8  1  0
M  END
>  <HBA>  (286) 
4

>  <HBD>  (286) 
2

>  <TPSA>  (286) 
99.6

>  <cid>  (286) 
847

>  <dipole>  (286) 
1.97

>  <excitation_energy_1>  (286) 
5.032

>  <excitation_energy_2>  (286) 
5.445

>  <excitation_energy_3>  (286) 
5.596

>  <excitation_energy_4>  (286) 
5.705

>  <homo_energy>  (286) 
-6.104

>  <homo_lumo_gap>  (286) 
6.191

>  <logP>  (286) 
0.733

>  <lumo_energy>  (286) 
0.087

>  <melting_point>  (286) 
124.81

>  <molecular_refractivity>  (286) 
38.91

>  <oscillator_strength_1>  (286) 
0.0063

>  <oscillator_strength_2>  (286) 
0.0007

>  <oscillator_strength_3>  (286) 
0.0417

>  <oscillator_strength_4>  (286) 
0.0064

>  <open_babel_can_smiles>  (286) 
C[S@](=O)CC[C@@H](C(=O)O)N

>  <mulliken_charges>  (286) 
21
1   -0.635716
2   -0.271605
3   -0.483492
4   -0.094939
5   0.611725
6   -0.768068
7   -0.465419
8   -0.575266
9   -0.644757
10   0.767526
11   0.18251
12   0.193498
13   0.198525
14   0.182614
15   0.146654
16   0.176332
17   0.212267
18   0.178716
19   0.324645
20   0.330062
21   0.434188

>  <lowdin_charges>  (286) 
21
1   -0.600587
2   -0.289245
3   -0.427479
4   -0.10848
5   0.1767
6   -0.538832
7   -0.260288
8   -0.351429
9   -0.682908
10   0.803496
11   0.178723
12   0.173628
13   0.184526
14   0.166917
15   0.150007
16   0.167156
17   0.187322
18   0.167412
19   0.267697
20   0.273943
21   0.361718

$$$$
PCCDB-ID:  848
     RDKit          3D

 22 21  0  0  1  0  0  0  0  0999 V2000
    0.8510    0.3238    0.0289 C   0  0  0  0  0  0  0  0  0  0  0  0
    2.5541    0.1958   -1.8096 C   0  0  0  0  0  0  0  0  0  0  0  0
    2.9831    1.6691    0.1623 C   0  0  0  0  0  0  0  0  0  0  0  0
    3.0415   -0.8495    0.4614 C   0  0  2  0  0  0  0  0  0  0  0  0
    4.5908   -0.8796    0.3794 C   0  0  0  0  0  0  0  0  0  0  0  0
    2.3617    0.3366   -0.2861 C   0  0  0  0  0  0  0  0  0  0  0  0
    2.8716    1.7748    1.5960 O   0  0  0  0  0  0  0  0  0  0  0  0
    2.6575   -0.9297    1.8416 O   0  0  0  0  0  0  0  0  0  0  0  0
    5.2403   -0.6156   -0.6078 O   0  0  0  0  0  0  0  0  0  0  0  0
    5.1634   -1.2737    1.5279 O   0  0  0  0  0  0  0  0  0  0  0  0
    0.3472    1.1098   -0.5457 H   0  0  0  0  0  0  0  0  0  0  0  0
    0.6444    0.4904    1.0880 H   0  0  0  0  0  0  0  0  0  0  0  0
    0.4067   -0.6372   -0.2543 H   0  0  0  0  0  0  0  0  0  0  0  0
    2.0749    1.0348   -2.3283 H   0  0  0  0  0  0  0  0  0  0  0  0
    2.0785   -0.7250   -2.1676 H   0  0  0  0  0  0  0  0  0  0  0  0
    3.6100    0.1620   -2.0821 H   0  0  0  0  0  0  0  0  0  0  0  0
    2.4520    2.5039   -0.3169 H   0  0  0  0  0  0  0  0  0  0  0  0
    4.0367    1.7082   -0.1400 H   0  0  0  0  0  0  0  0  0  0  0  0
    2.6933   -1.7836    0.0017 H   0  0  0  0  0  0  0  0  0  0  0  0
    3.4654    2.4747    1.9050 H   0  0  0  0  0  0  0  0  0  0  0  0
    2.6739   -0.0023    2.1604 H   0  0  0  0  0  0  0  0  0  0  0  0
    4.4140   -1.3985    2.1562 H   0  0  0  0  0  0  0  0  0  0  0  0
  1 12  1  0
  2  6  1  0
  3  7  1  0
  4 19  1  6
  4  8  1  0
  5  4  1  0
  5 10  1  0
  6  1  1  0
  6  3  1  0
  6  4  1  0
  7 20  1  0
  8 21  1  0
  9  5  2  0
 10 22  1  0
 11  1  1  0
 13  1  1  0
 14  2  1  0
 15  2  1  0
 16  2  1  0
 17  3  1  0
 18  3  1  0
M  END
>  <HBA>  (287) 
4

>  <HBD>  (287) 
3

>  <TPSA>  (287) 
77.76

>  <cid>  (287) 
848

>  <dipole>  (287) 
3.53

>  <excitation_energy_1>  (287) 
5.394

>  <excitation_energy_2>  (287) 
6.113

>  <excitation_energy_3>  (287) 
6.753

>  <excitation_energy_4>  (287) 
6.783

>  <homo_energy>  (287) 
-6.882

>  <homo_lumo_gap>  (287) 
7.17

>  <logP>  (287) 
-0.55

>  <lumo_energy>  (287) 
0.288

>  <melting_point>  (287) 
106.52

>  <molecular_refractivity>  (287) 
34.79

>  <oscillator_strength_1>  (287) 
0.0006

>  <oscillator_strength_2>  (287) 
0.002

>  <oscillator_strength_3>  (287) 
0.0035

>  <oscillator_strength_4>  (287) 
0.0176

>  <open_babel_can_smiles>  (287) 
OCC([C@@H](C(=O)O)O)(C)C

>  <mulliken_charges>  (287) 
22
1   -0.437754
2   -0.471842
3   -0.051583
4   0.036643
5   0.578837
6   0.031162
7   -0.650328
8   -0.674193
9   -0.463777
10   -0.576594
11   0.141203
12   0.163605
13   0.146502
14   0.139673
15   0.145575
16   0.196672
17   0.136215
18   0.16326
19   0.17469
20   0.412303
21   0.433171
22   0.426559

>  <lowdin_charges>  (287) 
22
1   -0.442061
2   -0.449992
3   -0.139158
4   -0.0437
5   0.171934
6   -0.006128
7   -0.478985
8   -0.468762
9   -0.260925
10   -0.350901
11   0.151155
12   0.158279
13   0.153191
14   0.150162
15   0.153124
16   0.173785
17   0.140313
18   0.149028
19   0.168391
20   0.358682
21   0.349974
22   0.362591

$$$$
PCCDB-ID:  849
     RDKit          3D

 20 20  0  0  1  0  0  0  0  0999 V2000
    0.8075    1.2724   -0.3066 C   0  0  0  0  0  0  0  0  0  0  0  0
    1.5088   -0.0294    0.1204 C   0  0  0  0  0  0  0  0  0  0  0  0
   -0.5914    1.3960    0.3221 C   0  0  0  0  0  0  0  0  0  0  0  0
    0.6103   -1.2548   -0.1176 C   0  0  0  0  0  0  0  0  0  0  0  0
   -1.3943    0.1216    0.0427 C   0  0  2  0  0  0  0  0  0  0  0  0
   -2.8251    0.1478    0.6004 C   0  0  0  0  0  0  0  0  0  0  0  0
   -0.7214   -1.1119    0.5010 N   0  0  0  0  0  0  0  0  0  0  0  0
   -3.4655    1.1578    0.7660 O   0  0  0  0  0  0  0  0  0  0  0  0
   -3.3182   -1.0803    0.8552 O   0  0  0  0  0  0  0  0  0  0  0  0
    0.7099    1.2859   -1.4022 H   0  0  0  0  0  0  0  0  0  0  0  0
    1.4222    2.1397   -0.0388 H   0  0  0  0  0  0  0  0  0  0  0  0
    1.7605    0.0236    1.1901 H   0  0  0  0  0  0  0  0  0  0  0  0
    2.4568   -0.1516   -0.4187 H   0  0  0  0  0  0  0  0  0  0  0  0
   -1.1297    2.2660   -0.0663 H   0  0  0  0  0  0  0  0  0  0  0  0
   -0.5098    1.5362    1.4095 H   0  0  0  0  0  0  0  0  0  0  0  0
    1.0739   -2.1674    0.2730 H   0  0  0  0  0  0  0  0  0  0  0  0
    0.4546   -1.4073   -1.1938 H   0  0  0  0  0  0  0  0  0  0  0  0
   -1.5052    0.0141   -1.0485 H   0  0  0  0  0  0  0  0  0  0  0  0
   -0.5866   -1.0342    1.5125 H   0  0  0  0  0  0  0  0  0  0  0  0
   -2.5787   -1.7064    0.6667 H   0  0  0  0  0  0  0  0  0  0  0  0
  1 11  1  0
  1  2  1  0
  1  3  1  0
  2 12  1  0
  3 15  1  0
  4  2  1  0
  4 16  1  0
  4  7  1  0
  5 18  1  6
  5  3  1  0
  5  7  1  0
  5  6  1  0
  6  8  2  0
  6  9  1  0
  7 19  1  0
 10  1  1  0
 13  2  1  0
 14  3  1  0
 17  4  1  0
 20  9  1  0
M  END
>  <HBA>  (288) 
3

>  <HBD>  (288) 
2

>  <TPSA>  (288) 
49.33

>  <cid>  (288) 
849

>  <dipole>  (288) 
5.09

>  <excitation_energy_1>  (288) 
5.509

>  <excitation_energy_2>  (288) 
5.923

>  <excitation_energy_3>  (288) 
6.277

>  <excitation_energy_4>  (288) 
6.398

>  <homo_energy>  (288) 
-6.833

>  <homo_lumo_gap>  (288) 
7.208

>  <logP>  (288) 
0.542

>  <lumo_energy>  (288) 
0.376

>  <melting_point>  (288) 
100.35

>  <molecular_refractivity>  (288) 
37.33

>  <oscillator_strength_1>  (288) 
0.0007

>  <oscillator_strength_2>  (288) 
0.0102

>  <oscillator_strength_3>  (288) 
0.005

>  <oscillator_strength_4>  (288) 
0.007

>  <open_babel_can_smiles>  (288) 
OC(=O)[C@H]1CCCCN1

>  <mulliken_charges>  (288) 
20
1   -0.27027
2   -0.271645
3   -0.255151
4   -0.142743
5   -0.090515
6   0.601312
7   -0.592446
8   -0.460325
9   -0.581915
10   0.135592
11   0.145313
12   0.133236
13   0.142175
14   0.168088
15   0.137183
16   0.150943
17   0.149781
18   0.171272
19   0.306621
20   0.423493

>  <lowdin_charges>  (288) 
20
1   -0.278628
2   -0.291744
3   -0.283198
4   -0.20658
5   -0.110173
6   0.180469
7   -0.360116
8   -0.249577
9   -0.359145
10   0.139444
11   0.151739
12   0.138467
13   0.151283
14   0.166742
15   0.143049
16   0.151949
17   0.144676
18   0.159958
19   0.254545
20   0.356839

$$$$
PCCDB-ID:  852
     RDKit          3D

 19 18  0  0  1  0  0  0  0  0999 V2000
    1.1140   -0.0487    0.3659 C   0  0  0  0  0  0  0  0  0  0  0  0
    2.6147    0.0504    0.0059 C   0  0  1  0  0  0  0  0  0  0  0  0
    3.0817   -1.1919   -0.8131 C   0  0  1  0  0  0  0  0  0  0  0  0
    2.8482    1.3574   -0.7498 C   0  0  0  0  0  0  0  0  0  0  0  0
    4.6256   -1.2089   -0.9893 C   0  0  0  0  0  0  0  0  0  0  0  0
    2.6295   -2.4171   -0.1590 N   0  0  0  0  0  0  0  0  0  0  0  0
    3.1526    1.4363   -1.9249 O   0  0  0  0  0  0  0  0  0  0  0  0
    2.6402    2.4946   -0.0570 O   0  0  0  0  0  0  0  0  0  0  0  0
    5.3217   -1.9504   -0.3305 O   0  0  0  0  0  0  0  0  0  0  0  0
    5.1529   -0.3835   -1.9024 O   0  0  0  0  0  0  0  0  0  0  0  0
    0.9314   -1.0043    0.8578 H   0  0  0  0  0  0  0  0  0  0  0  0
    0.4973   -0.0044   -0.5386 H   0  0  0  0  0  0  0  0  0  0  0  0
    0.7972    0.7634    1.0306 H   0  0  0  0  0  0  0  0  0  0  0  0
    3.1960    0.0845    0.9399 H   0  0  0  0  0  0  0  0  0  0  0  0
    2.6134   -1.1207   -1.8014 H   0  0  0  0  0  0  0  0  0  0  0  0
    3.3760   -2.7093    0.4747 H   0  0  0  0  0  0  0  0  0  0  0  0
    2.5698   -3.1593   -0.8536 H   0  0  0  0  0  0  0  0  0  0  0  0
    2.3991    2.2914    0.8624 H   0  0  0  0  0  0  0  0  0  0  0  0
    4.4549    0.2218   -2.2419 H   0  0  0  0  0  0  0  0  0  0  0  0
  1 11  1  0
  1 13  1  0
  2  1  1  0
  2 14  1  1
  3 15  1  6
  3  6  1  0
  3  2  1  0
  4  8  1  0
  4  2  1  0
  5  3  1  0
  5  9  2  0
  6 16  1  0
  7  4  2  0
  8 18  1  0
 10  5  1  0
 12  1  1  0
 17  6  1  0
 19 10  1  0
M  END
>  <HBA>  (289) 
5

>  <HBD>  (289) 
3

>  <TPSA>  (289) 
100.62

>  <cid>  (289) 
852

>  <dipole>  (289) 
4.31

>  <excitation_energy_1>  (289) 
5.374

>  <excitation_energy_2>  (289) 
5.654

>  <excitation_energy_3>  (289) 
5.727

>  <excitation_energy_4>  (289) 
5.981

>  <homo_energy>  (289) 
-6.988

>  <homo_lumo_gap>  (289) 
6.299

>  <logP>  (289) 
-0.181

>  <lumo_energy>  (289) 
-0.688

>  <melting_point>  (289) 
182.67

>  <molecular_refractivity>  (289) 
32.4

>  <oscillator_strength_1>  (289) 
0.0002

>  <oscillator_strength_2>  (289) 
0.0018

>  <oscillator_strength_3>  (289) 
0.0024

>  <oscillator_strength_4>  (289) 
0.0075

>  <open_babel_can_smiles>  (289) 
OC(=O)[C@H]([C@@H](C(=O)O)C)N

>  <mulliken_charges>  (289) 
19
1   -0.450892
2   -0.21941
3   -0.101504
4   0.636143
5   0.575707
6   -0.712609
7   -0.480467
8   -0.551679
9   -0.459728
10   -0.579857
11   0.210994
12   0.165865
13   0.132889
14   0.16551
15   0.163251
16   0.323107
17   0.31226
18   0.422656
19   0.447765

>  <lowdin_charges>  (289) 
19
1   -0.443314
2   -0.171106
3   -0.110479
4   0.207591
5   0.172351
6   -0.536846
7   -0.262945
8   -0.323881
9   -0.261365
10   -0.350583
11   0.185206
12   0.161513
13   0.144951
14   0.162001
15   0.160182
16   0.269161
17   0.266929
18   0.365262
19   0.365373

$$$$
PCCDB-ID:  854
     RDKit          3D

 20 19  0  0  1  0  0  0  0  0999 V2000
    0.6397    2.9554   -1.1412 C   0  0  0  0  0  0  0  0  0  0  0  0
   -0.4890    0.4094   -4.7893 C   0  0  0  0  0  0  0  0  0  0  0  0
   -0.3084    1.7582   -1.1197 C   0  0  1  0  0  0  0  0  0  0  0  0
   -0.4851    1.4364   -3.6617 C   0  0  2  0  0  0  0  0  0  0  0  0
   -0.1303    0.8057   -2.3100 C   0  0  1  0  0  0  0  0  0  0  0  0
    1.6488    3.0195   -1.8213 O   0  0  0  0  0  0  0  0  0  0  0  0
   -0.9388    1.1162   -5.9487 O   0  0  0  0  0  0  0  0  0  0  0  0
    0.0016    1.0822    0.1009 O   0  0  0  0  0  0  0  0  0  0  0  0
   -1.7774    2.0171   -3.5321 O   0  0  0  0  0  0  0  0  0  0  0  0
    1.1973    0.2766   -2.3004 O   0  0  0  0  0  0  0  0  0  0  0  0
    0.4079    3.7510   -0.4044 H   0  0  0  0  0  0  0  0  0  0  0  0
   -1.1803   -0.4082   -4.5343 H   0  0  0  0  0  0  0  0  0  0  0  0
    0.5161   -0.0088   -4.9292 H   0  0  0  0  0  0  0  0  0  0  0  0
   -1.3439    2.1010   -1.0518 H   0  0  0  0  0  0  0  0  0  0  0  0
    0.2590    2.2102   -3.9088 H   0  0  0  0  0  0  0  0  0  0  0  0
   -0.7939   -0.0487   -2.1345 H   0  0  0  0  0  0  0  0  0  0  0  0
   -1.1374    0.4722   -6.6439 H   0  0  0  0  0  0  0  0  0  0  0  0
    0.7794    0.5333   -0.1160 H   0  0  0  0  0  0  0  0  0  0  0  0
   -2.0700    2.1911   -4.4439 H   0  0  0  0  0  0  0  0  0  0  0  0
    1.7830    1.0505   -2.4121 H   0  0  0  0  0  0  0  0  0  0  0  0
  1  3  1  0
  1 11  1  0
  2 12  1  0
  2  4  1  0
  3 14  1  1
  3  8  1  0
  4 15  1  6
  4  9  1  0
  4  5  1  0
  5 10  1  0
  5 16  1  1
  5  3  1  0
  6  1  2  0
  7  2  1  0
 13  2  1  0
 17  7  1  0
 18  8  1  0
 19  9  1  0
 20 10  1  0
M  END
>  <HBA>  (290) 
5

>  <HBD>  (290) 
4

>  <TPSA>  (290) 
97.99

>  <cid>  (290) 
854

>  <dipole>  (290) 
2.48

>  <excitation_energy_1>  (290) 
3.949

>  <excitation_energy_2>  (290) 
5.351

>  <excitation_energy_3>  (290) 
5.483

>  <excitation_energy_4>  (290) 
6.052

>  <homo_energy>  (290) 
-6.89

>  <homo_lumo_gap>  (290) 
5.663

>  <logP>  (290) 
-2.74

>  <lumo_energy>  (290) 
-1.227

>  <melting_point>  (290) 
80.3

>  <molecular_refractivity>  (290) 
31.0

>  <oscillator_strength_1>  (290) 
0.0016

>  <oscillator_strength_2>  (290) 
0.0052

>  <oscillator_strength_3>  (290) 
0.0011

>  <oscillator_strength_4>  (290) 
0.0112

>  <open_babel_can_smiles>  (290) 
OC[C@H]([C@H]([C@H](C=O)O)O)O

>  <mulliken_charges>  (290) 
20
1   0.249945
2   -0.053693
3   0.063799
4   0.116614
5   0.08125
6   -0.411313
7   -0.637726
8   -0.623498
9   -0.654235
10   -0.658134
11   0.138131
12   0.129455
13   0.147623
14   0.177889
15   0.139235
16   0.155141
17   0.404397
18   0.40664
19   0.413183
20   0.415297

>  <lowdin_charges>  (290) 
20
1   0.056562
2   -0.152466
3   -0.048313
4   -0.028385
5   -0.024073
6   -0.232928
7   -0.47729
8   -0.441293
9   -0.470294
10   -0.468459
11   0.138514
12   0.134816
13   0.14486
14   0.171149
15   0.140058
16   0.157174
17   0.353867
18   0.349019
19   0.35073
20   0.346754

$$$$
PCCDB-ID:  855
     RDKit          3D

 11 10  0  0  1  0  0  0  0  0999 V2000
    0.9889    0.1768    0.0285 C   0  0  0  0  0  0  0  0  0  0  0  0
    2.9288   -1.4184    0.0410 C   0  0  0  0  0  0  0  0  0  0  0  0
    2.5072    0.0272   -0.1403 C   0  0  1  0  0  0  0  0  0  0  0  0
    3.5584   -2.0130   -0.8101 O   0  0  0  0  0  0  0  0  0  0  0  0
    2.9228    0.5027   -1.3961 O   0  0  0  0  0  0  0  0  0  0  0  0
    0.6629   -0.1473    1.0239 H   0  0  0  0  0  0  0  0  0  0  0  0
    0.4614   -0.4113   -0.7295 H   0  0  0  0  0  0  0  0  0  0  0  0
    0.7145    1.2273   -0.1011 H   0  0  0  0  0  0  0  0  0  0  0  0
    2.6348   -1.9078    0.9920 H   0  0  0  0  0  0  0  0  0  0  0  0
    3.0040    0.5955    0.6692 H   0  0  0  0  0  0  0  0  0  0  0  0
    3.4313   -0.2276   -1.8000 H   0  0  0  0  0  0  0  0  0  0  0  0
  1  6  1  0
  2  9  1  0
  3  1  1  0
  3  2  1  0
  3 10  1  1
  4  2  2  0
  5  3  1  0
  7  1  1  0
  8  1  1  0
 11  5  1  0
M  END
>  <HBA>  (291) 
2

>  <HBD>  (291) 
1

>  <TPSA>  (291) 
37.3

>  <cid>  (291) 
855

>  <dipole>  (291) 
2.35

>  <excitation_energy_1>  (291) 
4.468

>  <excitation_energy_2>  (291) 
5.358

>  <excitation_energy_3>  (291) 
7.053

>  <excitation_energy_4>  (291) 
7.175

>  <homo_energy>  (291) 
-7.429

>  <homo_lumo_gap>  (291) 
6.297

>  <logP>  (291) 
-0.434

>  <lumo_energy>  (291) 
-1.132

>  <melting_point>  (291) 
25.77

>  <molecular_refractivity>  (291) 
17.9

>  <oscillator_strength_1>  (291) 
0.0

>  <oscillator_strength_2>  (291) 
0.0249

>  <oscillator_strength_3>  (291) 
0.0219

>  <oscillator_strength_4>  (291) 
0.0056

>  <open_babel_can_smiles>  (291) 
C[C@@H](C=O)O

>  <mulliken_charges>  (291) 
11
1   -0.457599
2   0.231916
3   0.093792
4   -0.39643
5   -0.633235
6   0.142973
7   0.163894
8   0.177032
9   0.124707
10   0.145301
11   0.407647

>  <lowdin_charges>  (291) 
11
1   -0.44869
2   0.045812
3   -0.032321
4   -0.218391
5   -0.458587
6   0.152394
7   0.161475
8   0.168481
9   0.132121
10   0.149149
11   0.348558

$$$$
PCCDB-ID:  857
     RDKit          3D

 22 21  0  0  1  0  0  0  0  0999 V2000
    1.8446   -1.3874   -0.0834 C   0  0  0  0  0  0  0  0  0  0  0  0
    2.7206    0.1599   -1.8803 C   0  0  0  0  0  0  0  0  0  0  0  0
    3.4985    0.4050    0.5433 C   0  0  0  0  0  0  0  0  0  0  0  0
    3.0477   -0.5638   -0.5667 C   0  0  0  0  0  0  0  0  0  0  0  0
    4.8010    1.1854    0.2440 C   0  0  1  0  0  0  0  0  0  0  0  0
    5.0977    2.1457    1.4118 C   0  0  0  0  0  0  0  0  0  0  0  0
    5.8993    0.2656   -0.0205 N   0  0  0  0  0  0  0  0  0  0  0  0
    5.9937    1.9810    2.2024 O   0  0  0  0  0  0  0  0  0  0  0  0
    4.2625    3.2135    1.5379 O   0  0  0  0  0  0  0  0  0  0  0  0
    1.5446   -2.1235   -0.8382 H   0  0  0  0  0  0  0  0  0  0  0  0
    0.9764   -0.7450    0.1158 H   0  0  0  0  0  0  0  0  0  0  0  0
    2.0753   -1.9314    0.8403 H   0  0  0  0  0  0  0  0  0  0  0  0
    2.3684   -0.5512   -2.6363 H   0  0  0  0  0  0  0  0  0  0  0  0
    3.5967    0.6681   -2.2980 H   0  0  0  0  0  0  0  0  0  0  0  0
    1.9274    0.9071   -1.7375 H   0  0  0  0  0  0  0  0  0  0  0  0
    3.6531   -0.1596    1.4739 H   0  0  0  0  0  0  0  0  0  0  0  0
    2.6863    1.1167    0.7558 H   0  0  0  0  0  0  0  0  0  0  0  0
    3.8838   -1.2470   -0.7578 H   0  0  0  0  0  0  0  0  0  0  0  0
    4.6506    1.7947   -0.6586 H   0  0  0  0  0  0  0  0  0  0  0  0
    6.1652   -0.1700    0.8637 H   0  0  0  0  0  0  0  0  0  0  0  0
    6.7214    0.7983   -0.3025 H   0  0  0  0  0  0  0  0  0  0  0  0
    3.6075    3.2072    0.8198 H   0  0  0  0  0  0  0  0  0  0  0  0
  1 11  1  0
  1 12  1  0
  2 15  1  0
  2  4  1  0
  3 17  1  0
  3 16  1  0
  4  1  1  0
  4  3  1  0
  5 19  1  6
  5  3  1  0
  5  6  1  0
  6  9  1  0
  6  8  2  0
  7  5  1  0
  7 20  1  0
 10  1  1  0
 13  2  1  0
 14  2  1  0
 18  4  1  0
 21  7  1  0
 22  9  1  0
M  END
>  <HBA>  (292) 
3

>  <HBD>  (292) 
2

>  <TPSA>  (292) 
63.32

>  <cid>  (292) 
857

>  <dipole>  (292) 
3.1

>  <excitation_energy_1>  (292) 
5.565

>  <excitation_energy_2>  (292) 
5.87

>  <excitation_energy_3>  (292) 
6.052

>  <excitation_energy_4>  (292) 
6.378

>  <homo_energy>  (292) 
-6.789

>  <homo_lumo_gap>  (292) 
6.993

>  <logP>  (292) 
1.145

>  <lumo_energy>  (292) 
0.204

>  <melting_point>  (292) 
104.84

>  <molecular_refractivity>  (292) 
35.44

>  <oscillator_strength_1>  (292) 
0.0029

>  <oscillator_strength_2>  (292) 
0.0008

>  <oscillator_strength_3>  (292) 
0.0018

>  <oscillator_strength_4>  (292) 
0.019

>  <open_babel_can_smiles>  (292) 
N[C@H](C(=O)O)CC(C)C

>  <mulliken_charges>  (292) 
22
1   -0.445955
2   -0.454422
3   -0.259336
4   -0.057684
5   -0.112795
6   0.581889
7   -0.69119
8   -0.44551
9   -0.565485
10   0.144916
11   0.136712
12   0.143207
13   0.148225
14   0.15001
15   0.129153
16   0.146697
17   0.118903
18   0.158611
19   0.143619
20   0.311271
21   0.307603
22   0.41156

>  <lowdin_charges>  (292) 
22
1   -0.445229
2   -0.449882
3   -0.279664
4   -0.122548
5   -0.115325
6   0.174454
7   -0.52988
8   -0.243928
9   -0.356567
10   0.151701
11   0.144404
12   0.149199
13   0.15451
14   0.151001
15   0.140552
16   0.151183
17   0.13676
18   0.155466
19   0.148483
20   0.263471
21   0.263262
22   0.35858

$$$$
PCCDB-ID:  866
     RDKit          3D

 24 23  0  0  1  0  0  0  0  0999 V2000
    1.2104   -0.0970   -0.5385 C   0  0  0  0  0  0  0  0  0  0  0  0
   -0.0975   -0.1422   -1.3735 C   0  0  0  0  0  0  0  0  0  0  0  0
    2.1908    1.0202   -0.9334 C   0  0  0  0  0  0  0  0  0  0  0  0
   -1.3830    0.0110   -0.5551 C   0  0  0  0  0  0  0  0  0  0  0  0
    1.7530    2.4679   -0.6108 C   0  0  1  0  0  0  0  0  0  0  0  0
    1.7087    2.6781    0.9198 C   0  0  0  0  0  0  0  0  0  0  0  0
   -1.5089    1.3772    0.0011 N   0  0  0  0  0  0  0  0  0  0  0  0
    2.6775    3.3935   -1.2688 N   0  0  0  0  0  0  0  0  0  0  0  0
    2.6668    3.1187    1.5212 O   0  0  0  0  0  0  0  0  0  0  0  0
    0.5848    2.3251    1.5582 O   0  0  0  0  0  0  0  0  0  0  0  0
    1.7341   -1.0539   -0.6479 H   0  0  0  0  0  0  0  0  0  0  0  0
    0.9700   -0.0134    0.5281 H   0  0  0  0  0  0  0  0  0  0  0  0
   -0.1630   -1.0944   -1.9138 H   0  0  0  0  0  0  0  0  0  0  0  0
   -0.0809    0.6343   -2.1521 H   0  0  0  0  0  0  0  0  0  0  0  0
    2.3851    0.9846   -2.0122 H   0  0  0  0  0  0  0  0  0  0  0  0
    3.1549    0.8470   -0.4364 H   0  0  0  0  0  0  0  0  0  0  0  0
   -1.3668   -0.6849    0.2917 H   0  0  0  0  0  0  0  0  0  0  0  0
   -2.2536   -0.2543   -1.1742 H   0  0  0  0  0  0  0  0  0  0  0  0
    0.7537    2.6424   -1.0292 H   0  0  0  0  0  0  0  0  0  0  0  0
   -2.2982    1.4223    0.6451 H   0  0  0  0  0  0  0  0  0  0  0  0
   -1.7237    2.0314   -0.7518 H   0  0  0  0  0  0  0  0  0  0  0  0
    3.5495    3.3664   -0.7368 H   0  0  0  0  0  0  0  0  0  0  0  0
    2.3358    4.3457   -1.1342 H   0  0  0  0  0  0  0  0  0  0  0  0
   -0.1243    1.9930    0.9289 H   0  0  0  0  0  0  0  0  0  0  0  0
  1 12  1  0
  2  4  1  0
  2  1  1  0
  3  5  1  0
  3  1  1  0
  3 16  1  0
  4  7  1  0
  4 17  1  0
  5 19  1  6
  5  6  1  0
  6  9  2  0
  6 10  1  0
  7 20  1  0
  8 23  1  0
  8 22  1  0
  8  5  1  0
 11  1  1  0
 13  2  1  0
 14  2  1  0
 15  3  1  0
 18  4  1  0
 21  7  1  0
 24 10  1  0
M  END
>  <HBA>  (293) 
4

>  <HBD>  (293) 
3

>  <TPSA>  (293) 
89.34

>  <cid>  (293) 
866

>  <dipole>  (293) 
6.25

>  <excitation_energy_1>  (293) 
5.563

>  <excitation_energy_2>  (293) 
5.602

>  <excitation_energy_3>  (293) 
6.032

>  <excitation_energy_4>  (293) 
6.112

>  <homo_energy>  (293) 
-6.28

>  <homo_lumo_gap>  (293) 
7.151

>  <logP>  (293) 
0.928

>  <lumo_energy>  (293) 
0.871

>  <melting_point>  (293) 
159.09

>  <molecular_refractivity>  (293) 
38.14

>  <oscillator_strength_1>  (293) 
0.0015

>  <oscillator_strength_2>  (293) 
0.0003

>  <oscillator_strength_3>  (293) 
0.0088

>  <oscillator_strength_4>  (293) 
0.007

>  <open_babel_can_smiles>  (293) 
NCCCC[C@@H](C(=O)O)N

>  <mulliken_charges>  (293) 
24
1   -0.282377
2   -0.261193
3   -0.262086
4   -0.149265
5   -0.0882
6   0.569247
7   -0.763188
8   -0.699571
9   -0.475307
10   -0.620488
11   0.14308
12   0.154002
13   0.146163
14   0.141125
15   0.156087
16   0.14761
17   0.160052
18   0.135635
19   0.119036
20   0.329324
21   0.32146
22   0.310197
23   0.296124
24   0.472536

>  <lowdin_charges>  (293) 
24
1   -0.286264
2   -0.286107
3   -0.273406
4   -0.205979
5   -0.113901
6   0.167737
7   -0.531095
8   -0.536571
9   -0.278713
10   -0.382782
11   0.150896
12   0.148832
13   0.152604
14   0.144637
15   0.15257
16   0.151593
17   0.151679
18   0.134796
19   0.136145
20   0.272871
21   0.266577
22   0.261836
23   0.254271
24   0.347773

$$$$
PCCDB-ID:  867
     RDKit          3D

 11 10  0  0  0  0  0  0  0  0999 V2000
    1.3573   -0.5815   -0.0518 C   0  0  0  0  0  0  0  0  0  0  0  0
    0.7565   -1.3690   -1.2363 C   0  0  0  0  0  0  0  0  0  0  0  0
    2.7487   -0.0247   -0.2517 C   0  0  0  0  0  0  0  0  0  0  0  0
   -0.4041   -1.2634   -1.5361 O   0  0  0  0  0  0  0  0  0  0  0  0
    1.5799   -2.2207   -1.8778 O   0  0  0  0  0  0  0  0  0  0  0  0
    3.0763    1.1325   -0.2018 O   0  0  0  0  0  0  0  0  0  0  0  0
    3.6500   -1.0305   -0.5015 O   0  0  0  0  0  0  0  0  0  0  0  0
    1.3851   -1.2673    0.8061 H   0  0  0  0  0  0  0  0  0  0  0  0
    0.6809    0.2395    0.1798 H   0  0  0  0  0  0  0  0  0  0  0  0
    2.4878   -2.1466   -1.5243 H   0  0  0  0  0  0  0  0  0  0  0  0
    4.5150   -0.6065   -0.6610 H   0  0  0  0  0  0  0  0  0  0  0  0
  1  9  1  0
  1  8  1  0
  2  1  1  0
  3  6  2  0
  3  1  1  0
  4  2  2  0
  5 10  1  0
  5  2  1  0
  7  3  1  0
 11  7  1  0
M  END
>  <HBA>  (294) 
4

>  <HBD>  (294) 
2

>  <TPSA>  (294) 
74.6

>  <cid>  (294) 
867

>  <dipole>  (294) 
4.25

>  <excitation_energy_1>  (294) 
5.503

>  <excitation_energy_2>  (294) 
5.762

>  <excitation_energy_3>  (294) 
6.295

>  <excitation_energy_4>  (294) 
6.625

>  <homo_energy>  (294) 
-7.592

>  <homo_lumo_gap>  (294) 
6.789

>  <logP>  (294) 
-0.454

>  <lumo_energy>  (294) 
-0.803

>  <melting_point>  (294) 
129.75

>  <molecular_refractivity>  (294) 
20.08

>  <oscillator_strength_1>  (294) 
0.0117

>  <oscillator_strength_2>  (294) 
0.0019

>  <oscillator_strength_3>  (294) 
0.0345

>  <oscillator_strength_4>  (294) 
0.0152

>  <open_babel_can_smiles>  (294) 
OC(=O)CC(=O)O

>  <mulliken_charges>  (294) 
11
1   -0.45861
2   0.593535
3   0.572673
4   -0.425878
5   -0.569238
6   -0.424318
7   -0.589011
8   0.2157
9   0.221266
10   0.436994
11   0.426888

>  <lowdin_charges>  (294) 
11
1   -0.338104
2   0.193019
3   0.195254
4   -0.227172
5   -0.351694
6   -0.225056
7   -0.378051
8   0.198681
9   0.201183
10   0.359846
11   0.372095

$$$$
PCCDB-ID:  868
     RDKit          3D

 10  9  0  0  0  0  0  0  0  0999 V2000
    1.0239    0.0778    0.0488 C   0  0  0  0  0  0  0  0  0  0  0  0
    0.2239    1.0111    0.9216 C   0  0  0  0  0  0  0  0  0  0  0  0
    2.5602    0.1932    0.0189 C   0  0  0  0  0  0  0  0  0  0  0  0
    0.6927    1.8892    1.6246 O   0  0  0  0  0  0  0  0  0  0  0  0
    3.2089   -0.5588   -0.6654 O   0  0  0  0  0  0  0  0  0  0  0  0
    3.1219    1.1481    0.7706 O   0  0  0  0  0  0  0  0  0  0  0  0
    0.6596    0.1781   -0.9836 H   0  0  0  0  0  0  0  0  0  0  0  0
    0.7697   -0.9551    0.3249 H   0  0  0  0  0  0  0  0  0  0  0  0
   -0.8729    0.8581    0.8964 H   0  0  0  0  0  0  0  0  0  0  0  0
    2.4209    1.6467    1.2529 H   0  0  0  0  0  0  0  0  0  0  0  0
  1  8  1  0
  1  2  1  0
  2  4  2  0
  3  1  1  0
  3  6  1  0
  5  3  2  0
  6 10  1  0
  7  1  1  0
  9  2  1  0
M  END
>  <HBA>  (295) 
3

>  <HBD>  (295) 
1

>  <TPSA>  (295) 
54.37

>  <cid>  (295) 
868

>  <dipole>  (295) 
4.52

>  <excitation_energy_1>  (295) 
4.382

>  <excitation_energy_2>  (295) 
4.998

>  <excitation_energy_3>  (295) 
5.733

>  <excitation_energy_4>  (295) 
5.865

>  <homo_energy>  (295) 
-7.442

>  <homo_lumo_gap>  (295) 
5.597

>  <logP>  (295) 
-0.34

>  <lumo_energy>  (295) 
-1.845

>  <melting_point>  (295) 
84.31

>  <molecular_refractivity>  (295) 
18.51

>  <oscillator_strength_1>  (295) 
0.0002

>  <oscillator_strength_2>  (295) 
0.0

>  <oscillator_strength_3>  (295) 
0.0002

>  <oscillator_strength_4>  (295) 
0.0044

>  <open_babel_can_smiles>  (295) 
O=CCC(=O)O

>  <mulliken_charges>  (295) 
10
1   -0.479814
2   0.26841
3   0.605099
4   -0.397931
5   -0.444953
6   -0.574077
7   0.218987
8   0.218504
9   0.149812
10   0.435964

>  <lowdin_charges>  (295) 
10
1   -0.358461
2   0.075688
3   0.193119
4   -0.217399
5   -0.246917
6   -0.35127
7   0.20175
8   0.20129
9   0.141501
10   0.3607

$$$$
PCCDB-ID:  873
     RDKit          3D

 22 22  0  0  0  0  0  0  0  0999 V2000
   -1.6057   -0.5616    0.4380 C   0  0  0  0  0  0  0  0  0  0  0  0
   -0.9278   -1.7691    0.2825 C   0  0  0  0  0  0  0  0  0  0  0  0
   -0.8902    0.6378    0.3882 C   0  0  0  0  0  0  0  0  0  0  0  0
    0.4530   -1.7748    0.0799 C   0  0  0  0  0  0  0  0  0  0  0  0
    1.2772    1.9641    0.1465 C   0  0  0  0  0  0  0  0  0  0  0  0
    1.8201    2.3859   -1.2444 C   0  0  0  0  0  0  0  0  0  0  0  0
    0.4960    0.6658    0.1815 C   0  0  0  0  0  0  0  0  0  0  0  0
    1.1582   -0.5702    0.0317 C   0  0  0  0  0  0  0  0  0  0  0  0
    0.7804    2.8871   -2.2421 C   0  0  0  0  0  0  0  0  0  0  0  0
    2.5147   -0.5257   -0.1563 O   0  0  0  0  0  0  0  0  0  0  0  0
    0.8875    3.9235   -2.8507 O   0  0  0  0  0  0  0  0  0  0  0  0
   -0.2990    2.0875   -2.4501 O   0  0  0  0  0  0  0  0  0  0  0  0
   -2.6793   -0.5479    0.5980 H   0  0  0  0  0  0  0  0  0  0  0  0
   -1.4667   -2.7116    0.3172 H   0  0  0  0  0  0  0  0  0  0  0  0
   -1.4138    1.5824    0.5152 H   0  0  0  0  0  0  0  0  0  0  0  0
    0.9865   -2.7162   -0.0397 H   0  0  0  0  0  0  0  0  0  0  0  0
    0.6556    2.7702    0.5529 H   0  0  0  0  0  0  0  0  0  0  0  0
    2.1445    1.8688    0.8096 H   0  0  0  0  0  0  0  0  0  0  0  0
    2.3574    1.5401   -1.6914 H   0  0  0  0  0  0  0  0  0  0  0  0
    2.5389    3.1998   -1.1245 H   0  0  0  0  0  0  0  0  0  0  0  0
    2.8562   -1.4309   -0.2271 H   0  0  0  0  0  0  0  0  0  0  0  0
   -0.2638    1.3071   -1.8670 H   0  0  0  0  0  0  0  0  0  0  0  0
  1 13  1  0
  2 14  1  0
  2  1  2  0
  3  1  1  0
  3 15  1  0
  4  2  1  0
  5  7  1  0
  5 17  1  0
  5 18  1  0
  6 20  1  0
  6  5  1  0
  7  3  2  0
  8  4  2  0
  8  7  1  0
  9  6  1  0
 10  8  1  0
 11  9  2  0
 12  9  1  0
 12 22  1  0
 16  4  1  0
 19  6  1  0
 21 10  1  0
M  END
>  <HBA>  (296) 
3

>  <HBD>  (296) 
2

>  <TPSA>  (296) 
57.53

>  <cid>  (296) 
873

>  <dipole>  (296) 
6.35

>  <excitation_energy_1>  (296) 
5.015

>  <excitation_energy_2>  (296) 
5.335

>  <excitation_energy_3>  (296) 
5.574

>  <excitation_energy_4>  (296) 
5.728

>  <homo_energy>  (296) 
-6.493

>  <homo_lumo_gap>  (296) 
5.902

>  <logP>  (296) 
1.409

>  <lumo_energy>  (296) 
-0.59

>  <melting_point>  (296) 
123.96

>  <molecular_refractivity>  (296) 
44.82

>  <oscillator_strength_1>  (296) 
0.0479

>  <oscillator_strength_2>  (296) 
0.0003

>  <oscillator_strength_3>  (296) 
0.0052

>  <oscillator_strength_4>  (296) 
0.021

>  <open_babel_can_smiles>  (296) 
OC(=O)CCc1ccccc1O

>  <mulliken_charges>  (296) 
22
1   -0.122917
2   -0.13562
3   -0.207424
4   -0.184154
5   -0.336896
6   -0.381572
7   0.063143
8   0.308167
9   0.579174
10   -0.641855
11   -0.444903
12   -0.577194
13   0.13923
14   0.140623
15   0.146967
16   0.126256
17   0.159414
18   0.174084
19   0.186241
20   0.177388
21   0.413876
22   0.417974

>  <lowdin_charges>  (296) 
22
1   -0.171516
2   -0.142033
3   -0.162111
4   -0.209171
5   -0.273045
6   -0.317899
7   -0.058085
8   0.096226
9   0.188018
10   -0.377633
11   -0.246876
12   -0.367232
13   0.162138
14   0.163846
15   0.165587
16   0.157357
17   0.158614
18   0.16968
19   0.173983
20   0.174154
21   0.360908
22   0.355091

$$$$
PCCDB-ID:  874
     RDKit          3D

 15 14  0  0  0  0  0  0  0  0999 V2000
    1.0245   -0.5533   -0.4752 C   0  0  0  0  0  0  0  0  0  0  0  0
    2.9039   -0.3024    1.2169 C   0  0  0  0  0  0  0  0  0  0  0  0
    2.4180   -0.1939   -0.0334 C   0  0  0  0  0  0  0  0  0  0  0  0
    2.1664   -0.7962    2.4143 C   0  0  0  0  0  0  0  0  0  0  0  0
    3.4030    0.3464   -1.0558 C   0  0  0  0  0  0  0  0  0  0  0  0
    1.0142   -1.1681    2.4419 O   0  0  0  0  0  0  0  0  0  0  0  0
    2.8977   -0.8113    3.5599 O   0  0  0  0  0  0  0  0  0  0  0  0
    4.5446    0.6429   -0.7927 O   0  0  0  0  0  0  0  0  0  0  0  0
    2.9421    0.4916   -2.3208 O   0  0  0  0  0  0  0  0  0  0  0  0
    0.4437   -0.9419    0.3599 H   0  0  0  0  0  0  0  0  0  0  0  0
    1.0485   -1.3182   -1.2645 H   0  0  0  0  0  0  0  0  0  0  0  0
    0.5009    0.3273   -0.8747 H   0  0  0  0  0  0  0  0  0  0  0  0
    3.9385    0.0072    1.3508 H   0  0  0  0  0  0  0  0  0  0  0  0
    3.8000   -0.4908    3.3969 H   0  0  0  0  0  0  0  0  0  0  0  0
    2.0117    0.2218   -2.3861 H   0  0  0  0  0  0  0  0  0  0  0  0
  1  3  1  0
  1 10  1  0
  2 13  1  0
  2  4  1  0
  3  2  2  0
  4  6  2  0
  4  7  1  0
  5  8  2  0
  5  3  1  0
  9  5  1  0
 11  1  1  0
 12  1  1  0
 14  7  1  0
 15  9  1  0
M  END
>  <HBA>  (297) 
4

>  <HBD>  (297) 
2

>  <TPSA>  (297) 
74.6

>  <cid>  (297) 
874

>  <dipole>  (297) 
1.35

>  <excitation_energy_1>  (297) 
3.975

>  <excitation_energy_2>  (297) 
4.125

>  <excitation_energy_3>  (297) 
5.26

>  <excitation_energy_4>  (297) 
5.838

>  <homo_energy>  (297) 
-7.793

>  <homo_lumo_gap>  (297) 
5.241

>  <logP>  (297) 
0.102

>  <lumo_energy>  (297) 
-2.552

>  <melting_point>  (297) 
141.63

>  <molecular_refractivity>  (297) 
29.22

>  <oscillator_strength_1>  (297) 
0.0

>  <oscillator_strength_2>  (297) 
0.0

>  <oscillator_strength_3>  (297) 
0.2575

>  <oscillator_strength_4>  (297) 
0.0043

>  <open_babel_can_smiles>  (297) 
OC(=O)/C=C(/C(=O)O)\C

>  <mulliken_charges>  (297) 
15
1   -0.605906
2   -0.268988
3   0.114508
4   0.620578
5   0.568662
6   -0.450132
7   -0.568287
8   -0.443415
9   -0.572363
10   0.242676
11   0.173561
12   0.174071
13   0.173997
14   0.418478
15   0.42256

>  <lowdin_charges>  (297) 
15
1   -0.473211
2   -0.189312
3   -0.004854
4   0.194147
5   0.188671
6   -0.238134
7   -0.343763
8   -0.23542
9   -0.341247
10   0.205348
11   0.167236
12   0.167933
13   0.179691
14   0.361761
15   0.361155

$$$$
PCCDB-ID:  875
     RDKit          3D

 16 15  0  0  1  0  0  0  0  0999 V2000
    1.0396    0.0081    0.0750 C   0  0  1  0  0  0  0  0  0  0  0  0
    0.4394   -1.0610    1.0182 C   0  0  1  0  0  0  0  0  0  0  0  0
    0.3748    1.3787    0.3023 C   0  0  0  0  0  0  0  0  0  0  0  0
    0.8266   -0.7829    2.4827 C   0  0  0  0  0  0  0  0  0  0  0  0
    2.4483    0.1123    0.1838 O   0  0  0  0  0  0  0  0  0  0  0  0
   -0.9659   -1.1858    0.8882 O   0  0  0  0  0  0  0  0  0  0  0  0
   -0.8235    1.5014    0.4920 O   0  0  0  0  0  0  0  0  0  0  0  0
    1.2109    2.4076    0.2471 O   0  0  0  0  0  0  0  0  0  0  0  0
    1.9407   -0.4061    2.8048 O   0  0  0  0  0  0  0  0  0  0  0  0
   -0.1437   -1.0134    3.3581 O   0  0  0  0  0  0  0  0  0  0  0  0
    0.8058   -0.2878   -0.9550 H   0  0  0  0  0  0  0  0  0  0  0  0
    0.8858   -2.0271    0.7531 H   0  0  0  0  0  0  0  0  0  0  0  0
    2.6552   -0.0181    1.1399 H   0  0  0  0  0  0  0  0  0  0  0  0
   -1.3049   -0.2715    0.7360 H   0  0  0  0  0  0  0  0  0  0  0  0
    2.1073    2.0137    0.1304 H   0  0  0  0  0  0  0  0  0  0  0  0
   -0.9328   -1.2583    2.8199 H   0  0  0  0  0  0  0  0  0  0  0  0
  1 11  1  6
  1  5  1  0
  1  3  1  0
  1  2  1  0
  2 12  1  6
  2  4  1  0
  3  7  2  0
  4  9  2  0
  4 10  1  0
  5 13  1  0
  6  2  1  0
  8  3  1  0
 14  6  1  0
 15  8  1  0
 16 10  1  0
M  END
>  <HBA>  (298) 
6

>  <HBD>  (298) 
4

>  <TPSA>  (298) 
115.06

>  <cid>  (298) 
875

>  <dipole>  (298) 
2.44

>  <excitation_energy_1>  (298) 
5.481

>  <excitation_energy_2>  (298) 
5.511

>  <excitation_energy_3>  (298) 
6.234

>  <excitation_energy_4>  (298) 
6.271

>  <homo_energy>  (298) 
-7.823

>  <homo_lumo_gap>  (298) 
7.026

>  <logP>  (298) 
-2.123

>  <lumo_energy>  (298) 
-0.797

>  <melting_point>  (298) 
166.32

>  <molecular_refractivity>  (298) 
27.21

>  <oscillator_strength_1>  (298) 
0.0011

>  <oscillator_strength_2>  (298) 
0.0

>  <oscillator_strength_3>  (298) 
0.0009

>  <oscillator_strength_4>  (298) 
0.0059

>  <open_babel_can_smiles>  (298) 
O[C@@H]([C@@H](C(=O)O)O)C(=O)O

>  <mulliken_charges>  (298) 
16
1   0.003178
2   0.002979
3   0.608281
4   0.608329
5   -0.65798
6   -0.657912
7   -0.481457
8   -0.551206
9   -0.481462
10   -0.551175
11   0.201694
12   0.201733
13   0.438657
14   0.438633
15   0.438851
16   0.438858

>  <lowdin_charges>  (298) 
16
1   -0.05378
2   -0.054872
3   0.174322
4   0.176207
5   -0.455301
6   -0.45628
7   -0.26574
8   -0.308864
9   -0.26655
10   -0.310412
11   0.179886
12   0.180882
13   0.35762
14   0.358256
15   0.371794
16   0.372831

$$$$
PCCDB-ID:  876
     RDKit          3D

 20 19  0  0  1  0  0  0  0  0999 V2000
    3.0790   -0.9992   -1.1829 C   0  0  0  0  0  0  0  0  0  0  0  0
    5.0332   -1.7342    1.5567 C   0  0  0  0  0  0  0  0  0  0  0  0
    3.5025   -1.6693    1.5228 C   0  0  0  0  0  0  0  0  0  0  0  0
    5.5915   -2.8986    2.4069 C   0  0  1  0  0  0  0  0  0  0  0  0
    5.2624   -4.2471    1.7307 C   0  0  0  0  0  0  0  0  0  0  0  0
    7.0585   -2.7791    2.5159 N   0  0  0  0  0  0  0  0  0  0  0  0
    4.1629   -4.7518    1.7598 O   0  0  0  0  0  0  0  0  0  0  0  0
    6.2986   -4.7827    1.0689 O   0  0  0  0  0  0  0  0  0  0  0  0
    2.8470   -0.2998    0.4907 S   0  0  0  0  0  0  0  0  0  0  0  0
    2.6599   -0.2751   -1.8866 H   0  0  0  0  0  0  0  0  0  0  0  0
    2.5406   -1.9457   -1.2879 H   0  0  0  0  0  0  0  0  0  0  0  0
    4.1354   -1.1469   -1.4249 H   0  0  0  0  0  0  0  0  0  0  0  0
    5.4157   -0.7924    1.9720 H   0  0  0  0  0  0  0  0  0  0  0  0
    5.4374   -1.8190    0.5401 H   0  0  0  0  0  0  0  0  0  0  0  0
    3.1119   -1.4810    2.5290 H   0  0  0  0  0  0  0  0  0  0  0  0
    3.0728   -2.6161    1.1866 H   0  0  0  0  0  0  0  0  0  0  0  0
    5.0892   -2.8991    3.3834 H   0  0  0  0  0  0  0  0  0  0  0  0
    7.3531   -1.8056    2.4968 H   0  0  0  0  0  0  0  0  0  0  0  0
    7.3941   -3.1795    3.3898 H   0  0  0  0  0  0  0  0  0  0  0  0
    7.0592   -4.1758    1.2624 H   0  0  0  0  0  0  0  0  0  0  0  0
  1  9  1  0
  2 13  1  0
  2  4  1  0
  3  2  1  0
  3 15  1  0
  4  6  1  0
  4 17  1  1
  5  7  2  0
  5  4  1  0
  6 19  1  0
  8 20  1  0
  8  5  1  0
  9  3  1  0
 10  1  1  0
 11  1  1  0
 12  1  1  0
 14  2  1  0
 16  3  1  0
 18  6  1  0
M  END
>  <HBA>  (299) 
4

>  <HBD>  (299) 
2

>  <TPSA>  (299) 
88.62

>  <cid>  (299) 
876

>  <dipole>  (299) 
4.48

>  <excitation_energy_1>  (299) 
5.059

>  <excitation_energy_2>  (299) 
5.2

>  <excitation_energy_3>  (299) 
5.313

>  <excitation_energy_4>  (299) 
5.528

>  <homo_energy>  (299) 
-6.027

>  <homo_lumo_gap>  (299) 
6.359

>  <logP>  (299) 
0.852

>  <lumo_energy>  (299) 
0.332

>  <melting_point>  (299) 
114.48

>  <molecular_refractivity>  (299) 
38.22

>  <oscillator_strength_1>  (299) 
0.0104

>  <oscillator_strength_2>  (299) 
0.0

>  <oscillator_strength_3>  (299) 
0.0028

>  <oscillator_strength_4>  (299) 
0.0026

>  <open_babel_can_smiles>  (299) 
CSCC[C@@H](C(=O)O)N

>  <mulliken_charges>  (299) 
20
1   -0.584816
2   -0.270687
3   -0.428836
4   -0.069168
5   0.603252
6   -0.779394
7   -0.466149
8   -0.576876
9   0.085002
10   0.184848
11   0.186202
12   0.175979
13   0.152265
14   0.159006
15   0.17381
16   0.210204
17   0.160135
18   0.324257
19   0.32722
20   0.433748

>  <lowdin_charges>  (299) 
20
1   -0.546423
2   -0.278316
3   -0.381652
4   -0.106465
5   0.173768
6   -0.548542
7   -0.259929
8   -0.355302
9   0.096216
10   0.178052
11   0.166449
12   0.157686
13   0.151651
14   0.152253
15   0.166991
16   0.178061
17   0.153639
18   0.26976
19   0.272328
20   0.359776

$$$$
PCCDB-ID:  878
     RDKit          3D

  6  5  0  0  0  0  0  0  0  0999 V2000
    1.0969   -0.0095   -0.0879 C   0  0  0  0  0  0  0  0  0  0  0  0
    2.9310   -0.0701   -0.0320 S   0  0  0  0  0  0  0  0  0  0  0  0
    0.7194   -0.2509   -1.0841 H   0  0  0  0  0  0  0  0  0  0  0  0
    0.7194    0.9642    0.2324 H   0  0  0  0  0  0  0  0  0  0  0  0
    0.7451   -0.7695    0.6136 H   0  0  0  0  0  0  0  0  0  0  0  0
    3.1544    0.9092   -0.9351 H   0  0  0  0  0  0  0  0  0  0  0  0
  1  2  1  0
  1  4  1  0
  1  5  1  0
  3  1  1  0
  6  2  1  0
M  END
>  <HBA>  (300) 
1

>  <HBD>  (300) 
1

>  <TPSA>  (300) 
38.8

>  <cid>  (300) 
878

>  <dipole>  (300) 
1.74

>  <excitation_energy_1>  (300) 
5.164

>  <excitation_energy_2>  (300) 
5.776

>  <excitation_energy_3>  (300) 
6.731

>  <excitation_energy_4>  (300) 
7.053

>  <homo_energy>  (300) 
-6.433

>  <homo_lumo_gap>  (300) 
7.189

>  <logP>  (300) 
0.546

>  <lumo_energy>  (300) 
0.756

>  <melting_point>  (300) 
-2.98

>  <molecular_refractivity>  (300) 
14.85

>  <oscillator_strength_1>  (300) 
0.0076

>  <oscillator_strength_2>  (300) 
0.0366

>  <oscillator_strength_3>  (300) 
0.0122

>  <oscillator_strength_4>  (300) 
0.0087

>  <open_babel_can_smiles>  (300) 
CS

>  <mulliken_charges>  (300) 
6
1   -0.57735
2   -0.079648
3   0.18581
4   0.185804
5   0.190083
6   0.095302

>  <lowdin_charges>  (300) 
6
1   -0.542452
2   -0.081604
3   0.165989
4   0.166258
5   0.17802
6   0.113788

$$$$
PCCDB-ID:  880
     RDKit          3D

  9  8  0  0  0  0  0  0  0  0999 V2000
    0.9954    0.1633    0.0868 C   0  0  0  0  0  0  0  0  0  0  0  0
    3.2488    0.9325   -0.9471 C   0  0  0  0  0  0  0  0  0  0  0  0
    2.4181   -0.1723   -0.2775 C   0  0  0  0  0  0  0  0  0  0  0  0
    2.8161    2.0367   -1.1853 O   0  0  0  0  0  0  0  0  0  0  0  0
    2.9564   -1.2450   -0.0841 O   0  0  0  0  0  0  0  0  0  0  0  0
    0.4364    0.4516   -0.8112 H   0  0  0  0  0  0  0  0  0  0  0  0
    0.9726    1.0313    0.7559 H   0  0  0  0  0  0  0  0  0  0  0  0
    0.5214   -0.6952    0.5652 H   0  0  0  0  0  0  0  0  0  0  0  0
    4.2844    0.6164   -1.1910 H   0  0  0  0  0  0  0  0  0  0  0  0
  1  8  1  0
  1  7  1  0
  2  3  1  0
  3  5  2  0
  3  1  1  0
  4  2  2  0
  6  1  1  0
  9  2  1  0
M  END
>  <HBA>  (301) 
2

>  <HBD>  (301) 
0

>  <TPSA>  (301) 
34.14

>  <cid>  (301) 
880

>  <dipole>  (301) 
0.95

>  <excitation_energy_1>  (301) 
2.64

>  <excitation_energy_2>  (301) 
4.259

>  <excitation_energy_3>  (301) 
6.076

>  <excitation_energy_4>  (301) 
6.559

>  <homo_energy>  (301) 
-6.98

>  <homo_lumo_gap>  (301) 
4.27

>  <logP>  (301) 
-0.226

>  <lumo_energy>  (301) 
-2.71

>  <melting_point>  (301) 
28.54

>  <molecular_refractivity>  (301) 
16.93

>  <oscillator_strength_1>  (301) 
0.0001

>  <oscillator_strength_2>  (301) 
0.0

>  <oscillator_strength_3>  (301) 
0.0

>  <oscillator_strength_4>  (301) 
0.0251

>  <open_babel_can_smiles>  (301) 
O=CC(=O)C

>  <mulliken_charges>  (301) 
9
1   -0.526005
2   0.186316
3   0.396853
4   -0.352188
5   -0.407512
6   0.189475
7   0.189494
8   0.184387
9   0.139179

>  <lowdin_charges>  (301) 
9
1   -0.470744
2   0.027937
3   0.130727
4   -0.179037
5   -0.19306
6   0.184455
7   0.184273
8   0.177665
9   0.137785

$$$$
PCCDB-ID:  887
     RDKit          3D

  6  5  0  0  0  0  0  0  0  0999 V2000
    0.9323   -0.0210   -0.0383 C   0  0  0  0  0  0  0  0  0  0  0  0
    2.3501   -0.0347   -0.0816 O   0  0  0  0  0  0  0  0  0  0  0  0
    0.5229    0.9805    0.1670 H   0  0  0  0  0  0  0  0  0  0  0  0
    0.5229   -0.7226    0.7053 H   0  0  0  0  0  0  0  0  0  0  0  0
    0.5848   -0.3335   -1.0268 H   0  0  0  0  0  0  0  0  0  0  0  0
    2.6735    0.2405    0.7891 H   0  0  0  0  0  0  0  0  0  0  0  0
  1  3  1  0
  1  4  1  0
  2  1  1  0
  2  6  1  0
  5  1  1  0
M  END
>  <HBA>  (302) 
1

>  <HBD>  (302) 
1

>  <TPSA>  (302) 
20.23

>  <cid>  (302) 
887

>  <dipole>  (302) 
1.69

>  <excitation_energy_1>  (302) 
6.432

>  <excitation_energy_2>  (302) 
7.341

>  <excitation_energy_3>  (302) 
8.093

>  <excitation_energy_4>  (302) 
8.182

>  <homo_energy>  (302) 
-7.197

>  <homo_lumo_gap>  (302) 
9.247

>  <logP>  (302) 
-0.392

>  <lumo_energy>  (302) 
2.049

>  <melting_point>  (302) 
-4.62

>  <molecular_refractivity>  (302) 
8.08

>  <oscillator_strength_1>  (302) 
0.0006

>  <oscillator_strength_2>  (302) 
0.0295

>  <oscillator_strength_3>  (302) 
0.0062

>  <oscillator_strength_4>  (302) 
0.0247

>  <open_babel_can_smiles>  (302) 
CO

>  <mulliken_charges>  (302) 
6
1   -0.204995
2   -0.605231
3   0.129204
4   0.129216
5   0.161362
6   0.390443

>  <lowdin_charges>  (302) 
6
1   -0.283203
2   -0.47306
3   0.129434
4   0.131031
5   0.153954
6   0.341844

$$$$
PCCDB-ID:  902
     RDKit          3D

 23 22  0  0  1  0  0  0  0  0999 V2000
    2.8063    0.9973    0.3165 C   0  0  0  0  0  0  0  0  0  0  0  0
    3.0045    0.8916   -4.0748 C   0  0  0  0  0  0  0  0  0  0  0  0
    2.6302    0.4326   -2.6572 C   0  0  0  0  0  0  0  0  0  0  0  0
    1.9461    1.6773   -0.7267 C   0  0  0  0  0  0  0  0  0  0  0  0
    1.8128    1.1378   -5.0206 C   0  0  1  0  0  0  0  0  0  0  0  0
    1.0018   -0.1626   -5.2480 C   0  0  0  0  0  0  0  0  0  0  0  0
    0.8747    2.2115   -4.6388 N   0  0  0  0  0  0  0  0  0  0  0  0
    1.8499    1.4499   -1.9680 N   0  0  0  0  0  0  0  0  0  0  0  0
    1.1459    2.6732   -0.2357 O   0  0  0  0  0  0  0  0  0  0  0  0
    1.5147   -1.2572   -5.3352 O   0  0  0  0  0  0  0  0  0  0  0  0
   -0.3126    0.0510   -5.3704 O   0  0  0  0  0  0  0  0  0  0  0  0
    3.4820    0.2603   -0.1180 H   0  0  0  0  0  0  0  0  0  0  0  0
    2.1690    0.4815    1.0457 H   0  0  0  0  0  0  0  0  0  0  0  0
    3.4071    1.7371    0.8602 H   0  0  0  0  0  0  0  0  0  0  0  0
    3.6304    0.1145   -4.5257 H   0  0  0  0  0  0  0  0  0  0  0  0
    3.6043    1.8088   -4.0151 H   0  0  0  0  0  0  0  0  0  0  0  0
    3.5551    0.1588   -2.1271 H   0  0  0  0  0  0  0  0  0  0  0  0
    2.0289   -0.4830   -2.7364 H   0  0  0  0  0  0  0  0  0  0  0  0
    2.2196    1.3877   -6.0100 H   0  0  0  0  0  0  0  0  0  0  0  0
    0.8585    2.2795   -3.6170 H   0  0  0  0  0  0  0  0  0  0  0  0
    1.1776    3.1100   -5.0057 H   0  0  0  0  0  0  0  0  0  0  0  0
    1.2833    2.7544    0.7205 H   0  0  0  0  0  0  0  0  0  0  0  0
   -0.4072    1.0302   -5.2025 H   0  0  0  0  0  0  0  0  0  0  0  0
  1 14  1  0
  1 13  1  0
  2 16  1  0
  2  3  1  0
  3 17  1  0
  3  8  1  0
  4  9  1  0
  4  1  1  0
  5 19  1  6
  5  7  1  0
  5  2  1  0
  6  5  1  0
  7 20  1  0
  8  4  2  0
  9 22  1  0
 10  6  2  0
 11  6  1  0
 11 23  1  0
 12  1  1  0
 15  2  1  0
 18  3  1  0
 21  7  1  0
M  END
>  <HBA>  (303) 
5

>  <HBD>  (303) 
3

>  <TPSA>  (303) 
92.42

>  <cid>  (303) 
902

>  <dipole>  (303) 
7.13

>  <excitation_energy_1>  (303) 
5.354

>  <excitation_energy_2>  (303) 
5.626

>  <excitation_energy_3>  (303) 
5.719

>  <excitation_energy_4>  (303) 
6.007

>  <homo_energy>  (303) 
-6.376

>  <homo_lumo_gap>  (303) 
6.593

>  <logP>  (303) 
0.016

>  <lumo_energy>  (303) 
0.218

>  <melting_point>  (303) 
153.41

>  <molecular_refractivity>  (303) 
38.44

>  <oscillator_strength_1>  (303) 
0.0041

>  <oscillator_strength_2>  (303) 
0.0009

>  <oscillator_strength_3>  (303) 
0.0009

>  <oscillator_strength_4>  (303) 
0.0053

>  <open_babel_can_smiles>  (303) 
C/C(=N\CC[C@@H](C(=O)O)N)/O

>  <mulliken_charges>  (303) 
23
1   -0.56211
2   -0.259089
3   -0.165282
4   0.503499
5   -0.086899
6   0.608657
7   -0.792572
8   -0.427632
9   -0.57685
10   -0.484212
11   -0.583652
12   0.189011
13   0.18462
14   0.173707
15   0.165199
16   0.13178
17   0.124635
18   0.179721
19   0.167013
20   0.357814
21   0.311729
22   0.408165
23   0.432748

>  <lowdin_charges>  (303) 
23
1   -0.48558
2   -0.287135
3   -0.204557
4   0.13519
5   -0.108654
6   0.171445
7   -0.559878
8   -0.211522
9   -0.366524
10   -0.275702
11   -0.355887
12   0.178125
13   0.176353
14   0.170247
15   0.167561
16   0.144307
17   0.132272
18   0.161617
19   0.163948
20   0.275808
21   0.266172
22   0.354245
23   0.358148

$$$$
PCCDB-ID:  903
     RDKit          3D

 30 31  0  0  0  0  0  0  0  0999 V2000
    2.3917    0.1622   -4.4936 C   0  0  0  0  0  0  0  0  0  0  0  0
   -0.8081   -6.3810   -5.3519 C   0  0  0  0  0  0  0  0  0  0  0  0
    0.1881   -7.1519   -4.7619 C   0  0  0  0  0  0  0  0  0  0  0  0
    2.5573   -3.4008   -2.3606 C   0  0  0  0  0  0  0  0  0  0  0  0
    3.2773   -2.5458   -3.4278 C   0  0  0  0  0  0  0  0  0  0  0  0
    0.0619   -4.3407   -4.3354 C   0  0  0  0  0  0  0  0  0  0  0  0
    2.8261   -5.9481   -2.5919 C   0  0  0  0  0  0  0  0  0  0  0  0
    3.2910   -0.1634   -3.3165 C   0  0  0  0  0  0  0  0  0  0  0  0
    2.1768   -4.7664   -2.8554 C   0  0  0  0  0  0  0  0  0  0  0  0
   -0.8697   -4.9870   -5.1392 C   0  0  0  0  0  0  0  0  0  0  0  0
    1.0788   -5.0992   -3.7317 C   0  0  0  0  0  0  0  0  0  0  0  0
    1.1250   -6.5033   -3.9558 C   0  0  0  0  0  0  0  0  0  0  0  0
    3.6791   -1.2769   -2.8612 N   0  0  0  0  0  0  0  0  0  0  0  0
    2.2074   -6.9942   -3.2489 N   0  0  0  0  0  0  0  0  0  0  0  0
    3.7526    0.9501   -2.6567 O   0  0  0  0  0  0  0  0  0  0  0  0
   -1.8513   -4.2155   -5.7194 O   0  0  0  0  0  0  0  0  0  0  0  0
    2.0161   -0.7298   -4.9955 H   0  0  0  0  0  0  0  0  0  0  0  0
    2.9383    0.7621   -5.2324 H   0  0  0  0  0  0  0  0  0  0  0  0
    1.5291    0.7517   -4.1578 H   0  0  0  0  0  0  0  0  0  0  0  0
   -1.5520   -6.8581   -5.9875 H   0  0  0  0  0  0  0  0  0  0  0  0
    0.2261   -8.2252   -4.9289 H   0  0  0  0  0  0  0  0  0  0  0  0
    1.6641   -2.8555   -2.0265 H   0  0  0  0  0  0  0  0  0  0  0  0
    3.2151   -3.4782   -1.4875 H   0  0  0  0  0  0  0  0  0  0  0  0
    2.6368   -2.4716   -4.3208 H   0  0  0  0  0  0  0  0  0  0  0  0
    4.1844   -3.0811   -3.7382 H   0  0  0  0  0  0  0  0  0  0  0  0
   -0.0185   -3.2682   -4.1868 H   0  0  0  0  0  0  0  0  0  0  0  0
    3.6943   -6.1279   -1.9717 H   0  0  0  0  0  0  0  0  0  0  0  0
    2.4795   -7.9623   -3.1896 H   0  0  0  0  0  0  0  0  0  0  0  0
    3.3969    1.7426   -3.0867 H   0  0  0  0  0  0  0  0  0  0  0  0
   -2.4395   -4.7941   -6.2276 H   0  0  0  0  0  0  0  0  0  0  0  0
  1 19  1  0
  1  8  1  0
  2 10  2  0
  2  3  1  0
  3 12  2  0
  4 22  1  0
  4 23  1  0
  5 13  1  0
  5  4  1  0
  6 26  1  0
  6 11  2  0
  7 27  1  0
  8 13  2  0
  8 15  1  0
  9  7  2  0
  9  4  1  0
 10  6  1  0
 11  9  1  0
 12 11  1  0
 12 14  1  0
 14 28  1  0
 14  7  1  0
 16 10  1  0
 17  1  1  0
 18  1  1  0
 20  2  1  0
 21  3  1  0
 24  5  1  0
 25  5  1  0
 29 15  1  0
 30 16  1  0
M  END
>  <HBA>  (304) 
3

>  <HBD>  (304) 
3

>  <TPSA>  (304) 
65.12

>  <cid>  (304) 
903

>  <dipole>  (304) 
3.09

>  <excitation_energy_1>  (304) 
4.294

>  <excitation_energy_2>  (304) 
4.617

>  <excitation_energy_3>  (304) 
4.646

>  <excitation_energy_4>  (304) 
4.683

>  <homo_energy>  (304) 
-5.121

>  <homo_lumo_gap>  (304) 
4.982

>  <logP>  (304) 
1.943

>  <lumo_energy>  (304) 
-0.139

>  <melting_point>  (304) 
187.32

>  <molecular_refractivity>  (304) 
62.71

>  <oscillator_strength_1>  (304) 
0.0625

>  <oscillator_strength_2>  (304) 
0.0003

>  <oscillator_strength_3>  (304) 
0.0861

>  <oscillator_strength_4>  (304) 
0.0016

>  <open_babel_can_smiles>  (304) 
Oc1ccc2c(c1)c(CC/N=C(/O)\C)c[nH]2

>  <mulliken_charges>  (304) 
30
1   -0.559551
2   -0.21921
3   -0.166641
4   -0.337852
5   -0.14836
6   -0.258951
7   -0.003005
8   0.485356
9   0.066725
10   0.35373
11   0.083339
12   0.313496
13   -0.402473
14   -0.695408
15   -0.580558
16   -0.657624
17   0.187311
18   0.172287
19   0.171075
20   0.110693
21   0.123136
22   0.142224
23   0.151968
24   0.122357
25   0.144436
26   0.12663
27   0.147817
28   0.324228
29   0.400629
30   0.402195

>  <lowdin_charges>  (304) 
30
1   -0.488083
2   -0.219422
3   -0.174331
4   -0.270978
5   -0.1983
6   -0.200287
7   -0.133745
8   0.128489
9   -0.065171
10   0.089598
11   -0.023259
12   0.01593
13   -0.203053
14   -0.201182
15   -0.378143
16   -0.395381
17   0.175298
18   0.168871
19   0.167572
20   0.151661
21   0.154585
22   0.149615
23   0.157263
24   0.124422
25   0.147573
26   0.160449
27   0.164168
28   0.288779
29   0.351725
30   0.355336

$$$$
PCCDB-ID:  904
     RDKit          3D

 19 19  0  0  0  0  0  0  0  0999 V2000
    3.1011    0.1235   -2.7968 C   0  0  0  0  0  0  0  0  0  0  0  0
    1.0178    4.7293   -1.7154 C   0  0  0  0  0  0  0  0  0  0  0  0
    2.1477    4.6029   -0.9024 C   0  0  0  0  0  0  0  0  0  0  0  0
    0.3543    3.5796   -2.1455 C   0  0  0  0  0  0  0  0  0  0  0  0
    2.6102    3.3451   -0.5227 C   0  0  0  0  0  0  0  0  0  0  0  0
    0.8180    2.3154   -1.7791 C   0  0  0  0  0  0  0  0  0  0  0  0
    2.8614    0.0419   -1.3045 C   0  0  0  0  0  0  0  0  0  0  0  0
    1.9604    2.1825   -0.9711 C   0  0  0  0  0  0  0  0  0  0  0  0
    2.4124    0.9322   -0.5214 N   0  0  0  0  0  0  0  0  0  0  0  0
    3.2044   -1.1487   -0.7321 O   0  0  0  0  0  0  0  0  0  0  0  0
    2.4816   -0.6086   -3.3298 H   0  0  0  0  0  0  0  0  0  0  0  0
    4.1516   -0.1035   -3.0199 H   0  0  0  0  0  0  0  0  0  0  0  0
    2.8690    1.1175   -3.1801 H   0  0  0  0  0  0  0  0  0  0  0  0
    0.6541    5.7123   -2.0009 H   0  0  0  0  0  0  0  0  0  0  0  0
    2.6683    5.4911   -0.5532 H   0  0  0  0  0  0  0  0  0  0  0  0
   -0.5334    3.6629   -2.7677 H   0  0  0  0  0  0  0  0  0  0  0  0
    3.4777    3.2412    0.1223 H   0  0  0  0  0  0  0  0  0  0  0  0
    0.2855    1.4218   -2.0938 H   0  0  0  0  0  0  0  0  0  0  0  0
    3.5682   -1.7361   -1.4122 H   0  0  0  0  0  0  0  0  0  0  0  0
  1  7  1  0
  2  3  2  0
  3 15  1  0
  3  5  1  0
  4  6  2  0
  4  2  1  0
  5 17  1  0
  6  8  1  0
  7 10  1  0
  7  9  2  0
  8  5  2  0
  8  9  1  0
 11  1  1  0
 12  1  1  0
 13  1  1  0
 14  2  1  0
 16  4  1  0
 18  6  1  0
 19 10  1  0
M  END
>  <HBA>  (305) 
2

>  <HBD>  (305) 
1

>  <TPSA>  (305) 
29.1

>  <cid>  (305) 
904

>  <dipole>  (305) 
3.79

>  <excitation_energy_1>  (305) 
4.751

>  <excitation_energy_2>  (305) 
4.986

>  <excitation_energy_3>  (305) 
5.008

>  <excitation_energy_4>  (305) 
5.559

>  <homo_energy>  (305) 
-5.75

>  <homo_lumo_gap>  (305) 
5.69

>  <logP>  (305) 
1.718

>  <lumo_energy>  (305) 
-0.06

>  <melting_point>  (305) 
58.6

>  <molecular_refractivity>  (305) 
40.75

>  <oscillator_strength_1>  (305) 
0.0812

>  <oscillator_strength_2>  (305) 
0.0462

>  <oscillator_strength_3>  (305) 
0.0083

>  <oscillator_strength_4>  (305) 
0.0184

>  <open_babel_can_smiles>  (305) 
C/C(=N\c1ccccc1)/O

>  <mulliken_charges>  (305) 
19
1   -0.55548
2   -0.131507
3   -0.138132
4   -0.138134
5   -0.149479
6   -0.157116
7   0.482654
8   0.23364
9   -0.462615
10   -0.569828
11   0.175598
12   0.170755
13   0.199586
14   0.123771
15   0.127666
16   0.126468
17   0.131596
18   0.122815
19   0.407743

>  <lowdin_charges>  (305) 
19
1   -0.483589
2   -0.174626
3   -0.152796
4   -0.152695
5   -0.174323
6   -0.19153
7   0.147838
8   0.047965
9   -0.171038
10   -0.362459
11   0.171231
12   0.166626
13   0.184436
14   0.155391
15   0.157459
16   0.15601
17   0.162167
18   0.156494
19   0.35744

$$$$
PCCDB-ID:  905
     RDKit          3D

 23 22  0  0  1  0  0  0  0  0999 V2000
    2.6190    0.3406   -5.0170 C   0  0  0  0  0  0  0  0  0  0  0  0
    0.9387   -3.2669   -3.3848 C   0  0  0  0  0  0  0  0  0  0  0  0
    0.9471   -1.8253   -2.8586 C   0  0  0  0  0  0  0  0  0  0  0  0
    1.0618   -3.4017   -4.8863 C   0  0  0  0  0  0  0  0  0  0  0  0
    3.4670   -0.8313   -4.5872 C   0  0  0  0  0  0  0  0  0  0  0  0
    2.3581   -1.2911   -2.5136 C   0  0  1  0  0  0  0  0  0  0  0  0
    2.8410   -1.9715   -1.2087 C   0  0  0  0  0  0  0  0  0  0  0  0
    3.3558   -1.5432   -3.5405 N   0  0  0  0  0  0  0  0  0  0  0  0
    1.0167   -2.4872   -5.6831 O   0  0  0  0  0  0  0  0  0  0  0  0
    4.4510   -1.1947   -5.4496 O   0  0  0  0  0  0  0  0  0  0  0  0
    2.2304   -1.8776   -0.1687 O   0  0  0  0  0  0  0  0  0  0  0  0
    3.9656   -2.6880   -1.3400 O   0  0  0  0  0  0  0  0  0  0  0  0
    2.1197    0.8108   -4.1674 H   0  0  0  0  0  0  0  0  0  0  0  0
    1.8480   -0.0184   -5.7080 H   0  0  0  0  0  0  0  0  0  0  0  0
    3.2246    1.1021   -5.5214 H   0  0  0  0  0  0  0  0  0  0  0  0
   -0.0042   -3.7713   -3.1198 H   0  0  0  0  0  0  0  0  0  0  0  0
    1.7227   -3.8842   -2.9241 H   0  0  0  0  0  0  0  0  0  0  0  0
    0.3557   -1.7551   -1.9414 H   0  0  0  0  0  0  0  0  0  0  0  0
    0.4811   -1.1752   -3.6058 H   0  0  0  0  0  0  0  0  0  0  0  0
    1.1670   -4.4485   -5.2473 H   0  0  0  0  0  0  0  0  0  0  0  0
    2.2622   -0.2227   -2.2710 H   0  0  0  0  0  0  0  0  0  0  0  0
    4.4179   -0.6291   -6.2363 H   0  0  0  0  0  0  0  0  0  0  0  0
    4.2358   -2.5686   -2.2864 H   0  0  0  0  0  0  0  0  0  0  0  0
  1  5  1  0
  1 13  1  0
  2 16  1  0
  2 17  1  0
  2  3  1  0
  3  6  1  0
  3 18  1  0
  4  2  1  0
  5  8  2  0
  6 21  1  1
  6  7  1  0
  7 11  2  0
  8  6  1  0
  9  4  2  0
 10  5  1  0
 12  7  1  0
 14  1  1  0
 15  1  1  0
 19  3  1  0
 20  4  1  0
 22 10  1  0
 23 12  1  0
M  END
>  <HBA>  (306) 
5

>  <HBD>  (306) 
2

>  <TPSA>  (306) 
83.47

>  <cid>  (306) 
905

>  <dipole>  (306) 
5.48

>  <excitation_energy_1>  (306) 
4.387

>  <excitation_energy_2>  (306) 
5.263

>  <excitation_energy_3>  (306) 
5.505

>  <excitation_energy_4>  (306) 
5.682

>  <homo_energy>  (306) 
-6.792

>  <homo_lumo_gap>  (306) 
5.905

>  <logP>  (306) 
-0.054

>  <lumo_energy>  (306) 
-0.887

>  <melting_point>  (306) 
130.23

>  <molecular_refractivity>  (306) 
40.74

>  <oscillator_strength_1>  (306) 
0.0001

>  <oscillator_strength_2>  (306) 
0.0024

>  <oscillator_strength_3>  (306) 
0.0018

>  <oscillator_strength_4>  (306) 
0.012

>  <open_babel_can_smiles>  (306) 
C/C(=N\[C@H](C(=O)O)CCC=O)/O

>  <mulliken_charges>  (306) 
23
1   -0.561809
2   -0.354875
3   -0.278022
4   0.267634
5   0.523499
6   -0.076228
7   0.599219
8   -0.488295
9   -0.402819
10   -0.567364
11   -0.473364
12   -0.581974
13   0.185621
14   0.225438
15   0.161325
16   0.176847
17   0.181221
18   0.179681
19   0.159698
20   0.11639
21   0.16114
22   0.415989
23   0.431049

>  <lowdin_charges>  (306) 
23
1   -0.485142
2   -0.316796
3   -0.280998
4   0.071389
5   0.162178
6   -0.100518
7   0.176159
8   -0.239749
9   -0.238682
10   -0.349477
11   -0.264688
12   -0.351839
13   0.177648
14   0.196689
15   0.165429
16   0.176295
17   0.174969
18   0.171868
19   0.15751
20   0.121879
21   0.15559
22   0.362948
23   0.357339

$$$$
PCCDB-ID:  907
     RDKit          3D

 26 25  0  0  1  0  0  0  0  0999 V2000
    1.5289    0.7358    0.0377 C   0  0  0  0  0  0  0  0  0  0  0  0
    2.0904   -3.6698   -1.4004 C   0  0  0  0  0  0  0  0  0  0  0  0
    1.3488   -2.8875   -0.3091 C   0  0  0  0  0  0  0  0  0  0  0  0
    1.1472   -4.4359   -2.3346 C   0  0  0  0  0  0  0  0  0  0  0  0
    2.8276    0.0181   -0.2543 C   0  0  0  0  0  0  0  0  0  0  0  0
    2.2707   -2.1236    0.6698 C   0  0  1  0  0  0  0  0  0  0  0  0
    3.1457   -3.1363    1.4415 C   0  0  0  0  0  0  0  0  0  0  0  0
    0.3123   -5.3808   -1.5839 N   0  0  0  0  0  0  0  0  0  0  0  0
    3.1518   -1.1821   -0.0054 N   0  0  0  0  0  0  0  0  0  0  0  0
    3.7694    0.7757   -0.8854 O   0  0  0  0  0  0  0  0  0  0  0  0
    2.6741   -3.9454    2.2059 O   0  0  0  0  0  0  0  0  0  0  0  0
    4.4584   -3.0626    1.1711 O   0  0  0  0  0  0  0  0  0  0  0  0
    0.8386    0.1235    0.6185 H   0  0  0  0  0  0  0  0  0  0  0  0
    1.0323    1.0101   -0.9013 H   0  0  0  0  0  0  0  0  0  0  0  0
    1.7229    1.6592    0.5975 H   0  0  0  0  0  0  0  0  0  0  0  0
    2.7851   -4.3829   -0.9330 H   0  0  0  0  0  0  0  0  0  0  0  0
    2.7079   -2.9903   -2.0004 H   0  0  0  0  0  0  0  0  0  0  0  0
    0.7320   -3.5735    0.2776 H   0  0  0  0  0  0  0  0  0  0  0  0
    0.6676   -2.1626   -0.7766 H   0  0  0  0  0  0  0  0  0  0  0  0
    1.7518   -4.9060   -3.1316 H   0  0  0  0  0  0  0  0  0  0  0  0
    0.4731   -3.7256   -2.8329 H   0  0  0  0  0  0  0  0  0  0  0  0
    1.6379   -1.6442    1.4295 H   0  0  0  0  0  0  0  0  0  0  0  0
    0.9031   -6.0948   -1.1584 H   0  0  0  0  0  0  0  0  0  0  0  0
   -0.3146   -5.8720   -2.2188 H   0  0  0  0  0  0  0  0  0  0  0  0
    3.4276    1.6731   -1.0201 H   0  0  0  0  0  0  0  0  0  0  0  0
    4.5539   -2.3096    0.5382 H   0  0  0  0  0  0  0  0  0  0  0  0
  1 15  1  0
  1 13  1  0
  2 16  1  0
  2  3  1  0
  3 18  1  0
  3  6  1  0
  4  8  1  0
  4  2  1  0
  5  9  2  0
  5  1  1  0
  6 22  1  1
  6  7  1  0
  7 11  2  0
  8 23  1  0
  9  6  1  0
 10  5  1  0
 12  7  1  0
 14  1  1  0
 17  2  1  0
 19  3  1  0
 20  4  1  0
 21  4  1  0
 24  8  1  0
 25 10  1  0
 26 12  1  0
M  END
>  <HBA>  (307) 
5

>  <HBD>  (307) 
3

>  <TPSA>  (307) 
92.42

>  <cid>  (307) 
907

>  <dipole>  (307) 
6.93

>  <excitation_energy_1>  (307) 
5.403

>  <excitation_energy_2>  (307) 
5.519

>  <excitation_energy_3>  (307) 
5.57

>  <excitation_energy_4>  (307) 
5.698

>  <homo_energy>  (307) 
-6.264

>  <homo_lumo_gap>  (307) 
6.117

>  <logP>  (307) 
0.406

>  <lumo_energy>  (307) 
-0.147

>  <melting_point>  (307) 
152.75

>  <molecular_refractivity>  (307) 
43.24

>  <oscillator_strength_1>  (307) 
0.0083

>  <oscillator_strength_2>  (307) 
0.0054

>  <oscillator_strength_3>  (307) 
0.0007

>  <oscillator_strength_4>  (307) 
0.0034

>  <open_babel_can_smiles>  (307) 
C/C(=N\[C@H](C(=O)O)CCCN)/O

>  <mulliken_charges>  (307) 
26
1   -0.560519
2   -0.278024
3   -0.247619
4   -0.135791
5   0.50803
6   -0.089126
7   0.601146
8   -0.713648
9   -0.465462
10   -0.571111
11   -0.473024
12   -0.583255
13   0.195948
14   0.187296
15   0.178501
16   0.148796
17   0.145191
18   0.192269
19   0.121096
20   0.116132
21   0.132415
22   0.152644
23   0.299113
24   0.296712
25   0.412267
26   0.430025

>  <lowdin_charges>  (307) 
26
1   -0.482288
2   -0.289759
3   -0.275506
4   -0.205719
5   0.145418
6   -0.105217
7   0.179065
8   -0.561705
9   -0.221924
10   -0.356433
11   -0.263095
12   -0.355477
13   0.181946
14   0.177048
15   0.172285
16   0.148948
17   0.151164
18   0.176064
19   0.138885
20   0.121559
21   0.138684
22   0.154794
23   0.25657
24   0.256862
25   0.35891
26   0.358922

$$$$
PCCDB-ID:  908
     RDKit          3D

 13 12  0  0  0  0  0  0  0  0999 V2000
    0.9881    0.6019   -0.6861 C   0  0  0  0  0  0  0  0  0  0  0  0
    2.6983    1.4581   -2.2732 C   0  0  0  0  0  0  0  0  0  0  0  0
   -0.2125    1.5623   -0.6023 C   0  0  0  0  0  0  0  0  0  0  0  0
    2.0440    1.4030   -3.3621 N   0  0  0  0  0  0  0  0  0  0  0  0
    2.2553    1.2723   -0.9563 N   0  0  0  0  0  0  0  0  0  0  0  0
   -1.3499    1.1644   -0.5879 O   0  0  0  0  0  0  0  0  0  0  0  0
    0.1101    2.8647   -0.5100 O   0  0  0  0  0  0  0  0  0  0  0  0
    0.7566   -0.1634   -1.4362 H   0  0  0  0  0  0  0  0  0  0  0  0
    1.0569    0.0930    0.2802 H   0  0  0  0  0  0  0  0  0  0  0  0
    3.7581    1.7221   -2.3160 H   0  0  0  0  0  0  0  0  0  0  0  0
    1.0575    1.1619   -3.2252 H   0  0  0  0  0  0  0  0  0  0  0  0
    2.9995    1.0735   -0.2986 H   0  0  0  0  0  0  0  0  0  0  0  0
    1.0870    2.9239   -0.5651 H   0  0  0  0  0  0  0  0  0  0  0  0
  1  3  1  0
  1  9  1  0
  2  5  1  0
  3  6  2  0
  3  7  1  0
  4 11  1  0
  4  2  2  0
  5  1  1  0
  5 12  1  0
  8  1  1  0
 10  2  1  0
 13  7  1  0
M  END
>  <HBA>  (308) 
4

>  <HBD>  (308) 
2

>  <TPSA>  (308) 
75.68

>  <cid>  (308) 
908

>  <dipole>  (308) 
5.25

>  <excitation_energy_1>  (308) 
5.513

>  <excitation_energy_2>  (308) 
5.907

>  <excitation_energy_3>  (308) 
6.172

>  <excitation_energy_4>  (308) 
6.421

>  <homo_energy>  (308) 
-7.121

>  <homo_lumo_gap>  (308) 
7.091

>  <logP>  (308) 
-0.242

>  <lumo_energy>  (308) 
-0.03

>  <melting_point>  (308) 
124.7

>  <molecular_refractivity>  (308) 
24.7

>  <oscillator_strength_1>  (308) 
0.0014

>  <oscillator_strength_2>  (308) 
0.0052

>  <oscillator_strength_3>  (308) 
0.0164

>  <oscillator_strength_4>  (308) 
0.0035

>  <open_babel_can_smiles>  (308) 
OC(=O)CNC=N

>  <mulliken_charges>  (308) 
13
1   -0.266337
2   0.197355
3   0.593499
4   -0.542138
5   -0.591817
6   -0.441439
7   -0.559428
8   0.197662
9   0.198219
10   0.155009
11   0.292249
12   0.33812
13   0.429047

>  <lowdin_charges>  (308) 
13
1   -0.248659
2   -0.036668
3   0.172823
4   -0.391609
5   -0.32676
6   -0.241184
7   -0.342748
8   0.175639
9   0.184321
10   0.154203
11   0.253348
12   0.28789
13   0.359405

$$$$
PCCDB-ID:  909
     RDKit          3D

 22 21  0  0  1  0  0  0  0  0999 V2000
    1.0142   -0.2015   -0.3062 C   0  0  0  0  0  0  0  0  0  0  0  0
    0.1207   -1.3184    0.2920 C   0  0  0  0  0  0  0  0  0  0  0  0
    4.4489   -0.9251   -1.5713 C   0  0  0  0  0  0  0  0  0  0  0  0
    2.5496   -0.2971   -0.0976 C   0  0  1  0  0  0  0  0  0  0  0  0
    0.3842   -2.7093   -0.2622 C   0  0  0  0  0  0  0  0  0  0  0  0
    2.8855   -0.5392    1.3949 C   0  0  0  0  0  0  0  0  0  0  0  0
    5.2190   -1.6890   -2.2437 N   0  0  0  0  0  0  0  0  0  0  0  0
    3.2007   -1.1962   -1.0373 N   0  0  0  0  0  0  0  0  0  0  0  0
    1.4385   -3.3015   -0.1003 O   0  0  0  0  0  0  0  0  0  0  0  0
   -0.5905   -3.3106   -0.9621 O   0  0  0  0  0  0  0  0  0  0  0  0
    3.1191    0.3791    2.1444 O   0  0  0  0  0  0  0  0  0  0  0  0
    2.8621   -1.8129    1.8320 O   0  0  0  0  0  0  0  0  0  0  0  0
    0.6810    0.7324    0.1589 H   0  0  0  0  0  0  0  0  0  0  0  0
    0.8329   -0.1126   -1.3832 H   0  0  0  0  0  0  0  0  0  0  0  0
   -0.9278   -1.0332    0.1465 H   0  0  0  0  0  0  0  0  0  0  0  0
    0.2839   -1.3796    1.3742 H   0  0  0  0  0  0  0  0  0  0  0  0
    4.7678    0.1073   -1.3994 H   0  0  0  0  0  0  0  0  0  0  0  0
    2.9447    0.7018   -0.2998 H   0  0  0  0  0  0  0  0  0  0  0  0
    4.8242   -2.6325   -2.3363 H   0  0  0  0  0  0  0  0  0  0  0  0
    2.8889   -2.1599   -1.0621 H   0  0  0  0  0  0  0  0  0  0  0  0
   -1.3758   -2.7417   -1.0183 H   0  0  0  0  0  0  0  0  0  0  0  0
    2.5753   -2.4316    1.1242 H   0  0  0  0  0  0  0  0  0  0  0  0
  1  4  1  0
  1 13  1  0
  1  2  1  0
  2 16  1  0
  3 17  1  0
  3  8  1  0
  4 18  1  6
  4  6  1  0
  5  9  2  0
  5  2  1  0
  6 12  1  0
  6 11  2  0
  7  3  2  0
  8  4  1  0
 10  5  1  0
 14  1  1  0
 15  2  1  0
 19  7  1  0
 20  8  1  0
 21 10  1  0
 22 12  1  0
M  END
>  <HBA>  (309) 
6

>  <HBD>  (309) 
3

>  <TPSA>  (309) 
112.98

>  <cid>  (309) 
909

>  <dipole>  (309) 
8.2

>  <excitation_energy_1>  (309) 
4.278

>  <excitation_energy_2>  (309) 
4.926

>  <excitation_energy_3>  (309) 
5.093

>  <excitation_energy_4>  (309) 
5.217

>  <homo_energy>  (309) 
-6.272

>  <homo_lumo_gap>  (309) 
5.012

>  <logP>  (309) 
-0.008

>  <lumo_energy>  (309) 
-1.26

>  <melting_point>  (309) 
199.87

>  <molecular_refractivity>  (309) 
40.89

>  <oscillator_strength_1>  (309) 
0.0058

>  <oscillator_strength_2>  (309) 
0.001

>  <oscillator_strength_3>  (309) 
0.0057

>  <oscillator_strength_4>  (309) 
0.0011

>  <open_babel_can_smiles>  (309) 
OC(=O)[C@@H](NC=N)CCC(=O)O

>  <mulliken_charges>  (309) 
22
1   -0.279177
2   -0.409937
3   0.233285
4   -0.088211
5   0.623177
6   0.597525
7   -0.577344
8   -0.581872
9   -0.476024
10   -0.532683
11   -0.448902
12   -0.593562
13   0.183235
14   0.168929
15   0.151035
16   0.218651
17   0.14806
18   0.186581
19   0.267367
20   0.343995
21   0.425007
22   0.440863

>  <lowdin_charges>  (309) 
22
1   -0.271136
2   -0.322196
3   -0.030691
4   -0.097641
5   0.216791
6   0.177377
7   -0.417613
8   -0.311206
9   -0.271441
10   -0.315948
11   -0.248195
12   -0.361785
13   0.172824
14   0.159706
15   0.156777
16   0.189468
17   0.149139
18   0.177827
19   0.241801
20   0.277764
21   0.370429
22   0.357947

$$$$
PCCDB-ID:  910
     RDKit          3D

 29 29  0  0  1  0  0  0  0  0999 V2000
   -1.7460   -0.7343   -0.3287 C   0  0  0  0  0  0  0  0  0  0  0  0
   -1.0572   -1.9023    0.0207 C   0  0  0  0  0  0  0  0  0  0  0  0
   -1.1396    0.5016   -0.1371 C   0  0  0  0  0  0  0  0  0  0  0  0
    0.2328   -1.8387    0.5393 C   0  0  0  0  0  0  0  0  0  0  0  0
    1.7014    2.2372    1.7736 C   0  0  0  0  0  0  0  0  0  0  0  0
    3.1611   -1.1693    0.9609 C   0  0  0  0  0  0  0  0  0  0  0  0
    0.1441    0.5914    0.4249 C   0  0  0  0  0  0  0  0  0  0  0  0
    3.1371    2.4660    1.2219 C   0  0  1  0  0  0  0  0  0  0  0  0
    0.8635   -0.5964    0.7278 C   0  0  0  0  0  0  0  0  0  0  0  0
    0.7254    1.9438    0.6354 C   0  0  0  0  0  0  0  0  0  0  0  0
    3.4338    3.9592    0.9526 C   0  0  0  0  0  0  0  0  0  0  0  0
    4.1591    1.8645    2.0982 N   0  0  0  0  0  0  0  0  0  0  0  0
    2.1539   -0.4237    1.2034 N   0  0  0  0  0  0  0  0  0  0  0  0
    4.3681   -0.8526    1.4021 O   0  0  0  0  0  0  0  0  0  0  0  0
    0.4087    2.8811   -0.1048 O   0  0  0  0  0  0  0  0  0  0  0  0
    4.4919    4.4581    1.2709 O   0  0  0  0  0  0  0  0  0  0  0  0
    2.4856    4.6575    0.3210 O   0  0  0  0  0  0  0  0  0  0  0  0
   -2.7496   -0.7925   -0.7389 H   0  0  0  0  0  0  0  0  0  0  0  0
   -1.5297   -2.8714   -0.1171 H   0  0  0  0  0  0  0  0  0  0  0  0
   -1.6534    1.4209   -0.4003 H   0  0  0  0  0  0  0  0  0  0  0  0
    0.7606   -2.7492    0.8082 H   0  0  0  0  0  0  0  0  0  0  0  0
    1.3382    3.1459    2.2703 H   0  0  0  0  0  0  0  0  0  0  0  0
    1.7247    1.4231    2.4930 H   0  0  0  0  0  0  0  0  0  0  0  0
    3.1543   -2.0904    0.3666 H   0  0  0  0  0  0  0  0  0  0  0  0
    3.2221    1.9627    0.2498 H   0  0  0  0  0  0  0  0  0  0  0  0
    3.9431    2.0977    3.0685 H   0  0  0  0  0  0  0  0  0  0  0  0
    5.0351    2.3574    1.9053 H   0  0  0  0  0  0  0  0  0  0  0  0
    4.3139    0.0864    1.7891 H   0  0  0  0  0  0  0  0  0  0  0  0
    1.6781    4.1122    0.1280 H   0  0  0  0  0  0  0  0  0  0  0  0
  1  3  2  0
  1  2  1  0
  2  4  2  0
  3  7  1  0
  4  9  1  0
  4 21  1  0
  5 22  1  0
  5 23  1  0
  6 13  2  0
  6 14  1  0
  7 10  1  0
  7  9  2  0
  8 25  1  6
  8  5  1  0
  8 12  1  0
  9 13  1  0
 10  5  1  0
 11  8  1  0
 11 16  2  0
 12 26  1  0
 14 28  1  0
 15 10  2  0
 17 11  1  0
 18  1  1  0
 19  2  1  0
 20  3  1  0
 24  6  1  0
 27 12  1  0
 29 17  1  0
M  END
>  <HBA>  (310) 
6

>  <HBD>  (310) 
3

>  <TPSA>  (310) 
109.49

>  <cid>  (310) 
910

>  <dipole>  (310) 
5.48

>  <excitation_energy_1>  (310) 
3.772

>  <excitation_energy_2>  (310) 
4.032

>  <excitation_energy_3>  (310) 
4.44

>  <excitation_energy_4>  (310) 
4.608

>  <homo_energy>  (310) 
-6.444

>  <homo_lumo_gap>  (310) 
4.444

>  <logP>  (310) 
1.649

>  <lumo_energy>  (310) 
-2.0

>  <melting_point>  (310) 
225.24

>  <molecular_refractivity>  (310) 
60.62

>  <oscillator_strength_1>  (310) 
0.0738

>  <oscillator_strength_2>  (310) 
0.0031

>  <oscillator_strength_3>  (310) 
0.0031

>  <oscillator_strength_4>  (310) 
0.0542

>  <open_babel_can_smiles>  (310) 
O/C=N/c1ccccc1C(=O)C[C@@H](C(=O)O)N

>  <mulliken_charges>  (310) 
29
1   -0.131267
2   -0.130337
3   -0.16831
4   -0.160955
5   -0.373041
6   0.289549
7   0.055482
8   -0.058463
9   0.265221
10   0.383157
11   0.585948
12   -0.76503
13   -0.536086
14   -0.579787
15   -0.488125
16   -0.466874
17   -0.589713
18   0.141043
19   0.143461
20   0.162434
21   0.139256
22   0.175874
23   0.19604
24   0.146823
25   0.185079
26   0.32332
27   0.343987
28   0.462561
29   0.448753

>  <lowdin_charges>  (310) 
29
1   -0.165403
2   -0.128756
3   -0.123565
4   -0.185784
5   -0.319878
6   0.047105
7   -0.06674
8   -0.100005
9   0.062305
10   0.184186
11   0.172771
12   -0.511585
13   -0.220267
14   -0.350871
15   -0.269024
16   -0.264452
17   -0.352031
18   0.16344
19   0.164222
20   0.175772
21   0.16374
22   0.166637
23   0.182521
24   0.142013
25   0.166846
26   0.26836
27   0.280206
28   0.355343
29   0.362895

$$$$
PCCDB-ID:  912
     RDKit          3D

 20 20  0  0  0  0  0  0  0  0999 V2000
    0.9701   -2.6333    0.3956 C   0  0  0  0  0  0  0  0  0  0  0  0
    4.5972   -1.5063    0.6362 C   0  0  0  0  0  0  0  0  0  0  0  0
    3.0649   -1.4163    0.7262 C   0  0  0  0  0  0  0  0  0  0  0  0
    6.3340   -2.4862    2.3676 C   0  0  0  0  0  0  0  0  0  0  0  0
    5.4355   -4.3985    2.6933 C   0  0  0  0  0  0  0  0  0  0  0  0
    5.2057   -2.5001    1.5785 C   0  0  0  0  0  0  0  0  0  0  0  0
    2.4291   -2.6673    0.2867 N   0  0  0  0  0  0  0  0  0  0  0  0
    6.4725   -3.6714    3.0567 N   0  0  0  0  0  0  0  0  0  0  0  0
    4.6441   -3.7438    1.7957 N   0  0  0  0  0  0  0  0  0  0  0  0
    0.5509   -3.5566   -0.0164 H   0  0  0  0  0  0  0  0  0  0  0  0
    0.5053   -1.7768   -0.1235 H   0  0  0  0  0  0  0  0  0  0  0  0
    0.6876   -2.5768    1.4526 H   0  0  0  0  0  0  0  0  0  0  0  0
    5.0228   -0.5180    0.8437 H   0  0  0  0  0  0  0  0  0  0  0  0
    4.8694   -1.7362   -0.4075 H   0  0  0  0  0  0  0  0  0  0  0  0
    2.7117   -0.5464    0.1426 H   0  0  0  0  0  0  0  0  0  0  0  0
    2.7692   -1.2421    1.7682 H   0  0  0  0  0  0  0  0  0  0  0  0
    7.0566   -1.6871    2.4750 H   0  0  0  0  0  0  0  0  0  0  0  0
    5.2101   -5.3962    3.0464 H   0  0  0  0  0  0  0  0  0  0  0  0
    2.6813   -2.8267   -0.6892 H   0  0  0  0  0  0  0  0  0  0  0  0
    3.7453   -4.0011    1.3944 H   0  0  0  0  0  0  0  0  0  0  0  0
  1 12  1  0
  2  3  1  0
  2 13  1  0
  2  6  1  0
  3 16  1  0
  4 17  1  0
  4  8  1  0
  5 18  1  0
  5  8  2  0
  6  9  1  0
  6  4  2  0
  7  1  1  0
  7  3  1  0
  9  5  1  0
 10  1  1  0
 11  1  1  0
 14  2  1  0
 15  3  1  0
 19  7  1  0
 20  9  1  0
M  END
>  <HBA>  (311) 
2

>  <HBD>  (311) 
2

>  <TPSA>  (311) 
40.71

>  <cid>  (311) 
912

>  <dipole>  (311) 
5.44

>  <excitation_energy_1>  (311) 
5.016

>  <excitation_energy_2>  (311) 
5.5

>  <excitation_energy_3>  (311) 
5.604

>  <excitation_energy_4>  (311) 
5.696

>  <homo_energy>  (311) 
-5.559

>  <homo_lumo_gap>  (311) 
6.757

>  <logP>  (311) 
0.563

>  <lumo_energy>  (311) 
1.197

>  <melting_point>  (311) 
95.78

>  <molecular_refractivity>  (311) 
35.97

>  <oscillator_strength_1>  (311) 
0.0293

>  <oscillator_strength_2>  (311) 
0.0096

>  <oscillator_strength_3>  (311) 
0.0112

>  <oscillator_strength_4>  (311) 
0.0196

>  <open_babel_can_smiles>  (311) 
CNCCc1cnc[nH]1

>  <mulliken_charges>  (311) 
20
1   -0.3038
2   -0.36109
3   -0.128678
4   -0.088169
5   0.200257
6   0.319715
7   -0.561413
8   -0.431487
9   -0.595144
10   0.154924
11   0.132016
12   0.161747
13   0.159652
14   0.146765
15   0.123599
16   0.156207
17   0.120216
18   0.143625
19   0.302874
20   0.348184

>  <lowdin_charges>  (311) 
20
1   -0.361111
2   -0.275192
3   -0.202618
4   -0.18043
5   -0.102333
6   -0.020529
7   -0.361211
8   -0.194864
9   -0.188169
10   0.1546
11   0.130245
12   0.152428
13   0.164429
14   0.146683
15   0.126946
16   0.148765
17   0.155415
18   0.160437
19   0.253271
20   0.293237

$$$$
PCCDB-ID:  913
     RDKit          3D

 24 24  0  0  1  0  0  0  0  0999 V2000
    1.1479    0.0762   -2.4533 C   0  0  0  0  0  0  0  0  0  0  0  0
    5.6830   -3.0694    2.5122 C   0  0  0  0  0  0  0  0  0  0  0  0
    5.4769   -3.6878    1.2773 C   0  0  0  0  0  0  0  0  0  0  0  0
    5.5299   -1.6862    2.6250 C   0  0  0  0  0  0  0  0  0  0  0  0
    5.1137   -2.9314    0.1623 C   0  0  0  0  0  0  0  0  0  0  0  0
    5.1732   -0.9304    1.5077 C   0  0  0  0  0  0  0  0  0  0  0  0
    2.9756   -0.5334   -0.9280 C   0  0  0  0  0  0  0  0  0  0  0  0
    4.9570   -1.5447    0.2685 C   0  0  0  0  0  0  0  0  0  0  0  0
    4.5078   -0.7220   -0.9222 C   0  0  1  0  0  0  0  0  0  0  0  0
    2.5843    0.1105   -2.1844 N   0  0  0  0  0  0  0  0  0  0  0  0
    4.8927   -1.3467   -2.1330 O   0  0  0  0  0  0  0  0  0  0  0  0
    0.9409    0.6030   -3.3904 H   0  0  0  0  0  0  0  0  0  0  0  0
    0.5312    0.5278   -1.6570 H   0  0  0  0  0  0  0  0  0  0  0  0
    0.8287   -0.9646   -2.5744 H   0  0  0  0  0  0  0  0  0  0  0  0
    5.9690   -3.6595    3.3789 H   0  0  0  0  0  0  0  0  0  0  0  0
    5.6039   -4.7631    1.1804 H   0  0  0  0  0  0  0  0  0  0  0  0
    5.6977   -1.1943    3.5797 H   0  0  0  0  0  0  0  0  0  0  0  0
    4.9666   -3.4005   -0.8048 H   0  0  0  0  0  0  0  0  0  0  0  0
    5.0702    0.1496    1.5975 H   0  0  0  0  0  0  0  0  0  0  0  0
    2.6486    0.0116   -0.0259 H   0  0  0  0  0  0  0  0  0  0  0  0
    2.5076   -1.5248   -0.9002 H   0  0  0  0  0  0  0  0  0  0  0  0
    4.9714    0.2801   -0.8476 H   0  0  0  0  0  0  0  0  0  0  0  0
    2.9002    1.0800   -2.1730 H   0  0  0  0  0  0  0  0  0  0  0  0
    4.2459   -1.0088   -2.7857 H   0  0  0  0  0  0  0  0  0  0  0  0
  1 10  1  0
  1 13  1  0
  2  4  2  0
  2 15  1  0
  3  2  1  0
  4 17  1  0
  5  8  1  0
  5  3  2  0
  6 19  1  0
  6  4  1  0
  7  9  1  0
  7 21  1  0
  7 20  1  0
  8  6  2  0
  9 22  1  1
  9  8  1  0
 10 23  1  0
 10  7  1  0
 11  9  1  0
 12  1  1  0
 14  1  1  0
 16  3  1  0
 18  5  1  0
 24 11  1  0
M  END
>  <HBA>  (312) 
2

>  <HBD>  (312) 
2

>  <TPSA>  (312) 
32.26

>  <cid>  (312) 
913

>  <dipole>  (312) 
2.95

>  <excitation_energy_1>  (312) 
5.283

>  <excitation_energy_2>  (312) 
5.628

>  <excitation_energy_3>  (312) 
5.753

>  <excitation_energy_4>  (312) 
5.912

>  <homo_energy>  (312) 
-6.264

>  <homo_lumo_gap>  (312) 
6.414

>  <logP>  (312) 
1.33

>  <lumo_energy>  (312) 
0.15

>  <melting_point>  (312) 
51.62

>  <molecular_refractivity>  (312) 
44.99

>  <oscillator_strength_1>  (312) 
0.0011

>  <oscillator_strength_2>  (312) 
0.0112

>  <oscillator_strength_3>  (312) 
0.0559

>  <oscillator_strength_4>  (312) 
0.0014

>  <open_babel_can_smiles>  (312) 
CNC[C@@H](c1ccccc1)O

>  <mulliken_charges>  (312) 
24
1   -0.29989
2   -0.127899
3   -0.132778
4   -0.132475
5   -0.169347
6   -0.180128
7   -0.148696
8   0.138492
9   0.082897
10   -0.571492
11   -0.648753
12   0.154627
13   0.131356
14   0.161148
15   0.12559
16   0.127221
17   0.125697
18   0.148731
19   0.116803
20   0.126257
21   0.153978
22   0.1091
23   0.303796
24   0.405767

>  <lowdin_charges>  (312) 
24
1   -0.35837
2   -0.16201
3   -0.152966
4   -0.157766
5   -0.157325
6   -0.16686
7   -0.224038
8   -0.011427
9   -0.001381
10   -0.361436
11   -0.46916
12   0.153852
13   0.129952
14   0.152767
15   0.156592
16   0.154254
17   0.155652
18   0.168568
19   0.149298
20   0.131099
21   0.151081
22   0.122512
23   0.255072
24   0.34204

$$$$
PCCDB-ID:  914
     RDKit          3D

 30 31  0  0  1  0  0  0  0  0999 V2000
    4.5704   -0.9042    1.4126 C   0  0  0  0  0  0  0  0  0  0  0  0
   -1.7211    1.6518   -0.4755 C   0  0  0  0  0  0  0  0  0  0  0  0
   -3.0315    1.1970   -0.2221 C   0  0  0  0  0  0  0  0  0  0  0  0
   -0.6523    0.7659   -0.5286 C   0  0  0  0  0  0  0  0  0  0  0  0
   -3.2987   -0.1520   -0.0184 C   0  0  0  0  0  0  0  0  0  0  0  0
    1.4397   -1.8270   -0.5265 C   0  0  0  0  0  0  0  0  0  0  0  0
   -0.8735   -2.8456   -0.0750 C   0  0  0  0  0  0  0  0  0  0  0  0
   -0.0463   -1.7782   -0.3227 C   0  0  0  0  0  0  0  0  0  0  0  0
   -0.8886   -0.6052   -0.3262 C   0  0  0  0  0  0  0  0  0  0  0  0
   -2.2193   -1.0397   -0.0735 C   0  0  0  0  0  0  0  0  0  0  0  0
    2.2713   -1.4117    0.7118 C   0  0  1  0  0  0  0  0  0  0  0  0
    1.9576   -2.3715    1.8643 C   0  0  0  0  0  0  0  0  0  0  0  0
    3.6897   -1.4250    0.3676 N   0  0  0  0  0  0  0  0  0  0  0  0
   -2.1766   -2.4107    0.0803 N   0  0  0  0  0  0  0  0  0  0  0  0
    2.2653   -3.5464    1.8705 O   0  0  0  0  0  0  0  0  0  0  0  0
    1.3166   -1.7795    2.8962 O   0  0  0  0  0  0  0  0  0  0  0  0
    5.6066   -0.9613    1.0643 H   0  0  0  0  0  0  0  0  0  0  0  0
    4.5059   -1.4340    2.3795 H   0  0  0  0  0  0  0  0  0  0  0  0
    4.3345    0.1510    1.5908 H   0  0  0  0  0  0  0  0  0  0  0  0
   -1.5480    2.7131   -0.6309 H   0  0  0  0  0  0  0  0  0  0  0  0
   -3.8478    1.9133   -0.1858 H   0  0  0  0  0  0  0  0  0  0  0  0
    0.3528    1.1292   -0.7282 H   0  0  0  0  0  0  0  0  0  0  0  0
   -4.3096   -0.5024    0.1742 H   0  0  0  0  0  0  0  0  0  0  0  0
    1.7471   -1.1670   -1.3458 H   0  0  0  0  0  0  0  0  0  0  0  0
    1.7434   -2.8441   -0.8042 H   0  0  0  0  0  0  0  0  0  0  0  0
   -0.6304   -3.8968    0.0045 H   0  0  0  0  0  0  0  0  0  0  0  0
    1.9972   -0.3975    1.0189 H   0  0  0  0  0  0  0  0  0  0  0  0
    3.9515   -2.3882    0.1585 H   0  0  0  0  0  0  0  0  0  0  0  0
   -2.9733   -3.0064    0.2411 H   0  0  0  0  0  0  0  0  0  0  0  0
    1.1608   -2.4792    3.5602 H   0  0  0  0  0  0  0  0  0  0  0  0
  1 19  1  0
  1 18  1  0
  2  3  2  0
  3 21  1  0
  3  5  1  0
  4  2  1  0
  4  9  2  0
  5 23  1  0
  6  8  1  0
  6 11  1  0
  7 26  1  0
  7 14  1  0
  8  7  2  0
  9  8  1  0
  9 10  1  0
 10  5  2  0
 10 14  1  0
 11 27  1  1
 11 12  1  0
 12 15  2  0
 12 16  1  0
 13 11  1  0
 13  1  1  0
 14 29  1  0
 16 30  1  0
 17  1  1  0
 20  2  1  0
 22  4  1  0
 24  6  1  0
 25  6  1  0
 28 13  1  0
M  END
>  <HBA>  (313) 
3

>  <HBD>  (313) 
3

>  <TPSA>  (313) 
65.12

>  <cid>  (313) 
914

>  <dipole>  (313) 
2.2

>  <excitation_energy_1>  (313) 
4.59

>  <excitation_energy_2>  (313) 
4.655

>  <excitation_energy_3>  (313) 
4.761

>  <excitation_energy_4>  (313) 
4.835

>  <homo_energy>  (313) 
-5.393

>  <homo_lumo_gap>  (313) 
5.241

>  <logP>  (313) 
1.774

>  <lumo_energy>  (313) 
-0.152

>  <melting_point>  (313) 
202.11

>  <molecular_refractivity>  (313) 
62.26

>  <oscillator_strength_1>  (313) 
0.062

>  <oscillator_strength_2>  (313) 
0.0027

>  <oscillator_strength_3>  (313) 
0.0019

>  <oscillator_strength_4>  (313) 
0.0287

>  <open_babel_can_smiles>  (313) 
CN[C@H](C(=O)O)Cc1c[nH]c2c1cccc2

>  <mulliken_charges>  (313) 
30
1   -0.309685
2   -0.139958
3   -0.150926
4   -0.210827
5   -0.162731
6   -0.359854
7   -0.002239
8   0.064251
9   0.081937
10   0.314057
11   -0.032361
12   0.575133
13   -0.531736
14   -0.691435
15   -0.484814
16   -0.558181
17   0.154494
18   0.132713
19   0.155127
20   0.120415
21   0.122362
22   0.126404
23   0.120073
24   0.16409
25   0.151709
26   0.157096
27   0.159619
28   0.305961
29   0.326479
30   0.402824

>  <lowdin_charges>  (313) 
30
1   -0.359709
2   -0.173512
3   -0.165118
4   -0.163282
5   -0.187107
6   -0.266455
7   -0.131514
8   -0.067328
9   -0.03414
10   0.033797
11   -0.088146
12   0.179561
13   -0.344135
14   -0.20365
15   -0.283108
16   -0.347258
17   0.153257
18   0.126672
19   0.149328
20   0.153001
21   0.156364
22   0.155529
23   0.154123
24   0.163883
25   0.156308
26   0.166658
27   0.158035
28   0.257923
29   0.291929
30   0.358095

$$$$
PCCDB-ID:  917
     RDKit          3D

 22 23  0  0  1  0  0  0  0  0999 V2000
    0.9590   -0.0908   -0.0280 C   0  0  0  0  0  0  0  0  0  0  0  0
    6.4467    1.5830    1.0811 C   0  0  0  0  0  0  0  0  0  0  0  0
    2.9483   -1.1344    0.9080 C   0  0  0  0  0  0  0  0  0  0  0  0
    4.3690    1.1781    0.7794 C   0  0  0  0  0  0  0  0  0  0  0  0
    2.8855    1.3152    0.5883 C   0  0  2  0  0  0  0  0  0  0  0  0
    4.9908   -0.0436    0.7830 C   0  0  0  0  0  0  0  0  0  0  0  0
    2.2744    1.8986    1.7800 N   0  0  0  0  0  0  0  0  0  0  0  0
    5.2876    2.1903    0.9729 N   0  0  0  0  0  0  0  0  0  0  0  0
    6.3303    0.2148    0.9764 N   0  0  0  0  0  0  0  0  0  0  0  0
    4.3909   -1.3121    0.6929 N   0  0  0  0  0  0  0  0  0  0  0  0
    2.4019   -0.0229    0.1285 N   0  0  0  0  0  0  0  0  0  0  0  0
    0.6860   -1.0330   -0.5166 H   0  0  0  0  0  0  0  0  0  0  0  0
    0.6243    0.7295   -0.6739 H   0  0  0  0  0  0  0  0  0  0  0  0
    0.3906   -0.0272    0.9193 H   0  0  0  0  0  0  0  0  0  0  0  0
    7.4045    2.0664    1.2197 H   0  0  0  0  0  0  0  0  0  0  0  0
    2.7999   -1.0048    1.9954 H   0  0  0  0  0  0  0  0  0  0  0  0
    2.4398   -2.0555    0.6095 H   0  0  0  0  0  0  0  0  0  0  0  0
    2.6693    2.0062   -0.2363 H   0  0  0  0  0  0  0  0  0  0  0  0
    2.4590    1.3318    2.6050 H   0  0  0  0  0  0  0  0  0  0  0  0
    1.2665    1.9935    1.6751 H   0  0  0  0  0  0  0  0  0  0  0  0
    7.0582   -0.4748    1.0946 H   0  0  0  0  0  0  0  0  0  0  0  0
    4.5382   -1.7121   -0.2357 H   0  0  0  0  0  0  0  0  0  0  0  0
  1 11  1  0
  1 14  1  0
  2 15  1  0
  3 16  1  0
  4  6  2  0
  4  8  1  0
  5 18  1  6
  5  4  1  0
  5  7  1  0
  6  9  1  0
  7 19  1  0
  8  2  2  0
  9  2  1  0
  9 21  1  0
 10  6  1  0
 10  3  1  0
 11  5  1  0
 11  3  1  0
 12  1  1  0
 13  1  1  0
 17  3  1  0
 20  7  1  0
 22 10  1  0
M  END
>  <HBA>  (314) 
4

>  <HBD>  (314) 
3

>  <TPSA>  (314) 
69.97

>  <cid>  (314) 
917

>  <dipole>  (314) 
3.79

>  <excitation_energy_1>  (314) 
4.764

>  <excitation_energy_2>  (314) 
5.091

>  <excitation_energy_3>  (314) 
5.153

>  <excitation_energy_4>  (314) 
5.283

>  <homo_energy>  (314) 
-5.412

>  <homo_lumo_gap>  (314) 
6.452

>  <logP>  (314) 
0.458

>  <lumo_energy>  (314) 
1.039

>  <melting_point>  (314) 
184.29

>  <molecular_refractivity>  (314) 
48.01

>  <oscillator_strength_1>  (314) 
0.0114

>  <oscillator_strength_2>  (314) 
0.0198

>  <oscillator_strength_3>  (314) 
0.0206

>  <oscillator_strength_4>  (314) 
0.022

>  <open_babel_can_smiles>  (314) 
CN1CNc2c([C@@H]1N)nc[nH]2

>  <mulliken_charges>  (314) 
22
1   -0.304182
2   0.203099
3   -0.027798
4   0.208095
5   0.070289
6   0.437705
7   -0.694444
8   -0.469875
9   -0.632705
10   -0.620332
11   -0.399495
12   0.149547
13   0.152493
14   0.115148
15   0.150343
16   0.130521
17   0.14148
18   0.155875
19   0.295201
20   0.295865
21   0.329722
22   0.313448

>  <lowdin_charges>  (314) 
22
1   -0.362592
2   -0.091921
3   -0.134064
4   -0.050669
5   -0.010238
6   0.017906
7   -0.541427
8   -0.175154
9   -0.198599
10   -0.317074
11   -0.215955
12   0.150569
13   0.152991
14   0.11778
15   0.164692
16   0.120793
17   0.149709
18   0.154824
19   0.254881
20   0.251981
21   0.295372
22   0.266193

$$$$
PCCDB-ID:  919
     RDKit          3D

 31 30  0  0  1  0  0  0  0  0999 V2000
    0.1002    2.3607    2.4349 C   0  0  0  0  0  0  0  0  0  0  0  0
   -0.1250    1.4280    1.2352 C   0  0  0  0  0  0  0  0  0  0  0  0
    1.3012   -1.8596    0.8972 C   0  0  0  0  0  0  0  0  0  0  0  0
    1.2053   -3.2092    1.6484 C   0  0  0  0  0  0  0  0  0  0  0  0
    0.8133    1.6948    3.6152 C   0  0  0  0  0  0  0  0  0  0  0  0
   -0.8677    0.1026    1.5467 C   0  0  1  0  0  0  0  0  0  0  0  0
    0.0332   -1.5783    0.1110 C   0  0  0  0  0  0  0  0  0  0  0  0
    2.5028   -3.6282    2.3110 C   0  0  0  0  0  0  0  0  0  0  0  0
   -2.3211    0.3956    1.9632 C   0  0  0  0  0  0  0  0  0  0  0  0
   -0.8963   -0.7518    0.3671 N   0  0  0  0  0  0  0  0  0  0  0  0
    1.9655    0.9326    3.2328 O   0  0  0  0  0  0  0  0  0  0  0  0
   -0.1416   -2.3513   -0.9985 O   0  0  0  0  0  0  0  0  0  0  0  0
    2.6165   -4.0178    3.4486 O   0  0  0  0  0  0  0  0  0  0  0  0
    3.5547   -3.5459    1.4536 O   0  0  0  0  0  0  0  0  0  0  0  0
   -2.6006    0.9164    3.0208 O   0  0  0  0  0  0  0  0  0  0  0  0
   -3.2427    0.0612    1.0497 O   0  0  0  0  0  0  0  0  0  0  0  0
   -0.8544    2.7556    2.7977 H   0  0  0  0  0  0  0  0  0  0  0  0
    0.6902    3.2209    2.0848 H   0  0  0  0  0  0  0  0  0  0  0  0
    0.8455    1.1511    0.8088 H   0  0  0  0  0  0  0  0  0  0  0  0
   -0.6726    1.9582    0.4467 H   0  0  0  0  0  0  0  0  0  0  0  0
    2.1475   -1.8936    0.1999 H   0  0  0  0  0  0  0  0  0  0  0  0
    1.5086   -1.0535    1.6053 H   0  0  0  0  0  0  0  0  0  0  0  0
    0.9203   -4.0088    0.9512 H   0  0  0  0  0  0  0  0  0  0  0  0
    0.4415   -3.1709    2.4281 H   0  0  0  0  0  0  0  0  0  0  0  0
    0.1430    0.9832    4.1037 H   0  0  0  0  0  0  0  0  0  0  0  0
    1.0844    2.4518    4.3659 H   0  0  0  0  0  0  0  0  0  0  0  0
   -0.3936   -0.3803    2.4083 H   0  0  0  0  0  0  0  0  0  0  0  0
    2.6128    1.5498    2.8566 H   0  0  0  0  0  0  0  0  0  0  0  0
    0.6597   -2.8734   -1.1602 H   0  0  0  0  0  0  0  0  0  0  0  0
    4.3365   -3.8433    1.9564 H   0  0  0  0  0  0  0  0  0  0  0  0
   -2.7418   -0.3805    0.3203 H   0  0  0  0  0  0  0  0  0  0  0  0
  1 17  1  0
  1  5  1  0
  2  6  1  0
  2  1  1  0
  3 22  1  0
  3  4  1  0
  4  8  1  0
  4 24  1  0
  5 25  1  0
  5 26  1  0
  6  9  1  0
  6 27  1  1
  7 10  2  0
  7  3  1  0
  8 13  2  0
  9 15  2  0
 10  6  1  0
 11  5  1  0
 12  7  1  0
 14 30  1  0
 14  8  1  0
 16  9  1  0
 18  1  1  0
 19  2  1  0
 20  2  1  0
 21  3  1  0
 23  4  1  0
 28 11  1  0
 29 12  1  0
 31 16  1  0
M  END
>  <HBA>  (315) 
7

>  <HBD>  (315) 
4

>  <TPSA>  (315) 
123.93

>  <cid>  (315) 
919

>  <dipole>  (315) 
7.27

>  <excitation_energy_1>  (315) 
5.495

>  <excitation_energy_2>  (315) 
5.612

>  <excitation_energy_3>  (315) 
5.729

>  <excitation_energy_4>  (315) 
5.818

>  <homo_energy>  (315) 
-6.817

>  <homo_lumo_gap>  (315) 
6.305

>  <logP>  (315) 
-0.416

>  <lumo_energy>  (315) 
-0.512

>  <melting_point>  (315) 
192.95

>  <molecular_refractivity>  (315) 
53.08

>  <oscillator_strength_1>  (315) 
0.028

>  <oscillator_strength_2>  (315) 
0.0021

>  <oscillator_strength_3>  (315) 
0.0087

>  <oscillator_strength_4>  (315) 
0.0015

>  <open_babel_can_smiles>  (315) 
OCCC[C@@H](C(=O)O)/N=C(\CCC(=O)O)/O

>  <mulliken_charges>  (315) 
31
1   -0.296685
2   -0.246525
3   -0.409216
4   -0.351462
5   -0.051495
6   -0.090699
7   0.5109
8   0.579308
9   0.606517
10   -0.479537
11   -0.618226
12   -0.577978
13   -0.443869
14   -0.568029
15   -0.47607
16   -0.578093
17   0.178656
18   0.125467
19   0.135277
20   0.15343
21   0.177715
22   0.220912
23   0.174501
24   0.199601
25   0.173152
26   0.131688
27   0.16999
28   0.389244
29   0.414715
30   0.415747
31   0.431062

>  <lowdin_charges>  (315) 
31
1   -0.301254
2   -0.273162
3   -0.317634
4   -0.294806
5   -0.143767
6   -0.105592
7   0.144304
8   0.192808
9   0.179574
10   -0.220525
11   -0.47809
12   -0.356758
13   -0.245677
14   -0.366773
15   -0.267002
16   -0.34871
17   0.170097
18   0.140624
19   0.144212
20   0.156366
21   0.168585
22   0.185975
23   0.169607
24   0.181437
25   0.158087
26   0.136514
27   0.160622
28   0.343449
29   0.360536
30   0.366089
31   0.360864

$$$$
PCCDB-ID:  921
     RDKit          3D

 20 20  0  0  1  0  0  0  0  0999 V2000
    0.9651   -0.0267   -0.1039 C   0  0  0  0  0  0  0  0  0  0  0  0
    4.5294   -1.2799   -0.3894 C   0  0  0  0  0  0  0  0  0  0  0  0
    5.2082   -0.0754    0.2704 C   0  0  0  0  0  0  0  0  0  0  0  0
    3.0579   -1.3688    0.0514 C   0  0  1  0  0  0  0  0  0  0  0  0
    3.1945    1.0555   -0.0957 C   0  0  0  0  0  0  0  0  0  0  0  0
    2.8242   -1.7956    1.4374 N   0  0  0  0  0  0  0  0  0  0  0  0
    4.4618    1.1572    0.0759 N   0  0  0  0  0  0  0  0  0  0  0  0
    2.4213   -0.0791   -0.1885 N   0  0  0  0  0  0  0  0  0  0  0  0
    2.4681    2.1972   -0.2446 O   0  0  0  0  0  0  0  0  0  0  0  0
    0.5551   -0.8898   -0.6393 H   0  0  0  0  0  0  0  0  0  0  0  0
    0.6026    0.8858   -0.5752 H   0  0  0  0  0  0  0  0  0  0  0  0
    0.6113   -0.0691    0.9330 H   0  0  0  0  0  0  0  0  0  0  0  0
    5.0423   -2.2167   -0.1397 H   0  0  0  0  0  0  0  0  0  0  0  0
    4.5662   -1.1633   -1.4801 H   0  0  0  0  0  0  0  0  0  0  0  0
    6.2194    0.0565   -0.1327 H   0  0  0  0  0  0  0  0  0  0  0  0
    5.3420   -0.2639    1.3503 H   0  0  0  0  0  0  0  0  0  0  0  0
    2.5407   -2.1045   -0.5785 H   0  0  0  0  0  0  0  0  0  0  0  0
    3.3963   -1.2411    2.0747 H   0  0  0  0  0  0  0  0  0  0  0  0
    3.1132   -2.7668    1.5500 H   0  0  0  0  0  0  0  0  0  0  0  0
    3.1360    2.9032   -0.1793 H   0  0  0  0  0  0  0  0  0  0  0  0
  1 12  1  0
  2 13  1  0
  2  4  1  0
  2  3  1  0
  3 16  1  0
  4 17  1  6
  4  6  1  0
  5  7  2  0
  6 19  1  0
  6 18  1  0
  7  3  1  0
  8  1  1  0
  8  5  1  0
  8  4  1  0
  9 20  1  0
  9  5  1  0
 10  1  1  0
 11  1  1  0
 14  2  1  0
 15  3  1  0
M  END
>  <HBA>  (316) 
4

>  <HBD>  (316) 
2

>  <TPSA>  (316) 
58.36

>  <cid>  (316) 
921

>  <dipole>  (316) 
1.96

>  <excitation_energy_1>  (316) 
5.126

>  <excitation_energy_2>  (316) 
5.592

>  <excitation_energy_3>  (316) 
5.646

>  <excitation_energy_4>  (316) 
5.9

>  <homo_energy>  (316) 
-5.665

>  <homo_lumo_gap>  (316) 
7.336

>  <logP>  (316) 
0.283

>  <lumo_energy>  (316) 
1.671

>  <melting_point>  (316) 
112.47

>  <molecular_refractivity>  (316) 
40.86

>  <oscillator_strength_1>  (316) 
0.0141

>  <oscillator_strength_2>  (316) 
0.0152

>  <oscillator_strength_3>  (316) 
0.0199

>  <oscillator_strength_4>  (316) 
0.0088

>  <open_babel_can_smiles>  (316) 
N[C@@H]1CCN=C(N1C)O

>  <mulliken_charges>  (316) 
20
1   -0.297008
2   -0.296697
3   -0.142836
4   0.124552
5   0.69053
6   -0.701947
7   -0.51376
8   -0.436358
9   -0.622118
10   0.144997
11   0.184807
12   0.168096
13   0.128937
14   0.150814
15   0.144772
16   0.120979
17   0.137722
18   0.303861
19   0.296381
20   0.414273

>  <lowdin_charges>  (316) 
20
1   -0.34596
2   -0.306296
3   -0.198526
4   -0.005657
5   0.152849
6   -0.556249
7   -0.310733
8   -0.121991
9   -0.377997
10   0.151363
11   0.171706
12   0.152795
13   0.146771
14   0.150921
15   0.147402
16   0.125229
17   0.145
18   0.258032
19   0.256564
20   0.364775

$$$$
PCCDB-ID:  922
     RDKit          3D

 23 22  0  0  1  0  0  0  0  0999 V2000
    3.7283   -2.8684    0.2379 C   0  0  0  0  0  0  0  0  0  0  0  0
    0.7694   -1.3529   -1.8409 C   0  0  0  0  0  0  0  0  0  0  0  0
    2.3102   -1.2318   -1.8623 C   0  0  0  0  0  0  0  0  0  0  0  0
    0.1631   -2.1389   -3.0304 C   0  0  1  0  0  0  0  0  0  0  0  0
    3.0406   -2.5624   -2.0231 C   0  0  0  0  0  0  0  0  0  0  0  0
   -1.3656   -1.9823   -3.0259 C   0  0  0  0  0  0  0  0  0  0  0  0
    0.7615   -1.7050   -4.2944 N   0  0  0  0  0  0  0  0  0  0  0  0
    3.6360   -3.2622   -1.1479 N   0  0  0  0  0  0  0  0  0  0  0  0
    3.0251   -3.0441   -3.2962 O   0  0  0  0  0  0  0  0  0  0  0  0
   -1.9666   -1.3283   -3.8416 O   0  0  0  0  0  0  0  0  0  0  0  0
   -2.0266   -2.6040   -2.0170 O   0  0  0  0  0  0  0  0  0  0  0  0
    4.7857   -2.8082    0.5264 H   0  0  0  0  0  0  0  0  0  0  0  0
    3.2801   -3.6502    0.8655 H   0  0  0  0  0  0  0  0  0  0  0  0
    3.2534   -1.9120    0.5122 H   0  0  0  0  0  0  0  0  0  0  0  0
    0.3424   -0.3410   -1.8298 H   0  0  0  0  0  0  0  0  0  0  0  0
    0.4555   -1.8304   -0.9046 H   0  0  0  0  0  0  0  0  0  0  0  0
    2.6203   -0.7316   -0.9418 H   0  0  0  0  0  0  0  0  0  0  0  0
    2.6097   -0.5778   -2.6887 H   0  0  0  0  0  0  0  0  0  0  0  0
    0.4098   -3.2022   -2.9099 H   0  0  0  0  0  0  0  0  0  0  0  0
    0.5110   -0.7301   -4.4641 H   0  0  0  0  0  0  0  0  0  0  0  0
    0.3363   -2.2233   -5.0629 H   0  0  0  0  0  0  0  0  0  0  0  0
    2.4574   -2.4597   -3.8539 H   0  0  0  0  0  0  0  0  0  0  0  0
   -1.4080   -3.1189   -1.4717 H   0  0  0  0  0  0  0  0  0  0  0  0
  1 14  1  0
  1 12  1  0
  1 13  1  0
  2 15  1  0
  2 16  1  0
  3  2  1  0
  3 17  1  0
  4  6  1  0
  4 19  1  1
  4  2  1  0
  5  3  1  0
  5  8  2  0
  6 11  1  0
  7  4  1  0
  8  1  1  0
  9  5  1  0
 10  6  2  0
 11 23  1  0
 18  3  1  0
 20  7  1  0
 21  7  1  0
 22  9  1  0
M  END
>  <HBA>  (317) 
5

>  <HBD>  (317) 
3

>  <TPSA>  (317) 
92.42

>  <cid>  (317) 
922

>  <dipole>  (317) 
2.23

>  <excitation_energy_1>  (317) 
5.247

>  <excitation_energy_2>  (317) 
5.474

>  <excitation_energy_3>  (317) 
5.527

>  <excitation_energy_4>  (317) 
5.571

>  <homo_energy>  (317) 
-6.414

>  <homo_lumo_gap>  (317) 
6.139

>  <logP>  (317) 
0.016

>  <lumo_energy>  (317) 
-0.275

>  <melting_point>  (317) 
153.41

>  <molecular_refractivity>  (317) 
38.44

>  <oscillator_strength_1>  (317) 
0.0002

>  <oscillator_strength_2>  (317) 
0.0122

>  <oscillator_strength_3>  (317) 
0.0004

>  <oscillator_strength_4>  (317) 
0.0015

>  <open_babel_can_smiles>  (317) 
C/N=C(\CC[C@@H](C(=O)O)N)/O

>  <mulliken_charges>  (317) 
23
1   -0.322113
2   -0.273354
3   -0.361204
4   -0.116849
5   0.486135
6   0.594057
7   -0.739127
8   -0.411812
9   -0.61869
10   -0.441656
11   -0.560164
12   0.159908
13   0.151907
14   0.113318
15   0.162479
16   0.147089
17   0.166025
18   0.166396
19   0.179599
20   0.32758
21   0.332479
22   0.440466
23   0.417531

>  <lowdin_charges>  (317) 
23
1   -0.356436
2   -0.27556
3   -0.313619
4   -0.120441
5   0.119488
6   0.178655
7   -0.519364
8   -0.213558
9   -0.395704
10   -0.24065
11   -0.347792
12   0.152589
13   0.151222
14   0.119897
15   0.156601
16   0.150379
17   0.165495
18   0.16351
19   0.16197
20   0.271983
21   0.277418
22   0.349717
23   0.3642

$$$$
PCCDB-ID:  931
     RDKit          3D

 18 19  0  0  0  0  0  0  0  0999 V2000
    2.4473   -0.6762    0.0151 C   0  0  0  0  0  0  0  0  0  0  0  0
    2.4253    0.7405    0.0074 C   0  0  0  0  0  0  0  0  0  0  0  0
   -2.4192   -0.7522   -0.0162 C   0  0  0  0  0  0  0  0  0  0  0  0
   -2.4412    0.6645   -0.0243 C   0  0  0  0  0  0  0  0  0  0  0  0
    1.2695   -1.3888    0.0113 C   0  0  0  0  0  0  0  0  0  0  0  0
    1.2259    1.4159   -0.0039 C   0  0  0  0  0  0  0  0  0  0  0  0
   -1.2197   -1.4276   -0.0044 C   0  0  0  0  0  0  0  0  0  0  0  0
   -1.2633    1.3771   -0.0204 C   0  0  0  0  0  0  0  0  0  0  0  0
    0.0142   -0.7226   -0.0003 C   0  0  0  0  0  0  0  0  0  0  0  0
   -0.0080    0.7110   -0.0083 C   0  0  0  0  0  0  0  0  0  0  0  0
    3.4002   -1.1985    0.0242 H   0  0  0  0  0  0  0  0  0  0  0  0
    3.3615    1.2922    0.0112 H   0  0  0  0  0  0  0  0  0  0  0  0
   -3.3554   -1.3039   -0.0185 H   0  0  0  0  0  0  0  0  0  0  0  0
   -3.3941    1.1868   -0.0332 H   0  0  0  0  0  0  0  0  0  0  0  0
    1.2837   -2.4763    0.0184 H   0  0  0  0  0  0  0  0  0  0  0  0
    1.2061    2.5034   -0.0086 H   0  0  0  0  0  0  0  0  0  0  0  0
   -1.2000   -2.5151    0.0031 H   0  0  0  0  0  0  0  0  0  0  0  0
   -1.2775    2.4646   -0.0254 H   0  0  0  0  0  0  0  0  0  0  0  0
  1 11  1  0
  2 12  1  0
  2  1  2  0
  3  7  2  0
  4  8  2  0
  4  3  1  0
  5  1  1  0
  5 15  1  0
  6  2  1  0
  7  9  1  0
  7 17  1  0
  8 10  1  0
  9  5  2  0
 10  6  2  0
 10  9  1  0
 13  3  1  0
 14  4  1  0
 16  6  1  0
 18  8  1  0
M  END
>  <HBA>  (318) 
0

>  <HBD>  (318) 
0

>  <TPSA>  (318) 
0.0

>  <cid>  (318) 
931

>  <dipole>  (318) 
0.0

>  <excitation_energy_1>  (318) 
4.374

>  <excitation_energy_2>  (318) 
4.453

>  <excitation_energy_3>  (318) 
5.474

>  <excitation_energy_4>  (318) 
5.52

>  <homo_energy>  (318) 
-5.788

>  <homo_lumo_gap>  (318) 
4.83

>  <logP>  (318) 
2.84

>  <lumo_energy>  (318) 
-0.958

>  <melting_point>  (318) 
47.65

>  <molecular_refractivity>  (318) 
43.95

>  <oscillator_strength_1>  (318) 
0.0606

>  <oscillator_strength_2>  (318) 
0.0

>  <oscillator_strength_3>  (318) 
0.0

>  <oscillator_strength_4>  (318) 
0.0

>  <open_babel_can_smiles>  (318) 
c1ccc2c(c1)cccc2

>  <mulliken_charges>  (318) 
18
1   -0.134837
2   -0.135124
3   -0.134981
4   -0.135027
5   -0.190813
6   -0.19084
7   -0.190822
8   -0.190748
9   0.134293
10   0.134382
11   0.129492
12   0.129523
13   0.129516
14   0.129491
15   0.12911
16   0.129139
17   0.129125
18   0.129119

>  <lowdin_charges>  (318) 
18
1   -0.159059
2   -0.159293
3   -0.159288
4   -0.159066
5   -0.154084
6   -0.154084
7   -0.154084
8   -0.154082
9   -0.000629
10   -0.000627
11   0.158393
12   0.158577
13   0.158576
14   0.158394
15   0.155084
16   0.155093
17   0.155093
18   0.155084

$$$$
PCCDB-ID:  936
     RDKit          3D

 15 15  0  0  0  0  0  0  0  0999 V2000
   -0.7858    1.1709    0.0708 C   0  0  0  0  0  0  0  0  0  0  0  0
   -1.4164   -0.0681   -0.0045 C   0  0  0  0  0  0  0  0  0  0  0  0
    0.6092    1.2111    0.0387 C   0  0  0  0  0  0  0  0  0  0  0  0
    0.7616   -1.0626   -0.1264 C   0  0  0  0  0  0  0  0  0  0  0  0
   -0.6321   -1.2257   -0.0979 C   0  0  0  0  0  0  0  0  0  0  0  0
   -1.2412   -2.5888   -0.1515 C   0  0  0  0  0  0  0  0  0  0  0  0
   -0.8144   -3.6427    0.4161 N   0  0  0  0  0  0  0  0  0  0  0  0
    1.3787    0.1191   -0.0623 N   0  0  0  0  0  0  0  0  0  0  0  0
   -2.4000   -2.6848   -0.8679 O   0  0  0  0  0  0  0  0  0  0  0  0
   -1.3604    2.0879    0.1586 H   0  0  0  0  0  0  0  0  0  0  0  0
   -2.5003   -0.1420    0.0378 H   0  0  0  0  0  0  0  0  0  0  0  0
    1.1351    2.1622    0.0975 H   0  0  0  0  0  0  0  0  0  0  0  0
    1.4045   -1.9364   -0.2238 H   0  0  0  0  0  0  0  0  0  0  0  0
    0.0066   -3.4286    0.9837 H   0  0  0  0  0  0  0  0  0  0  0  0
   -2.4741   -1.9176   -1.4564 H   0  0  0  0  0  0  0  0  0  0  0  0
  1 10  1  0
  2 11  1  0
  2  1  2  0
  3  1  1  0
  3 12  1  0
  4  5  2  0
  4  8  1  0
  5  2  1  0
  6  5  1  0
  6  7  2  0
  7 14  1  0
  8  3  2  0
  9  6  1  0
 13  4  1  0
 15  9  1  0
M  END
>  <HBA>  (319) 
3

>  <HBD>  (319) 
1

>  <TPSA>  (319) 
55.98

>  <cid>  (319) 
936

>  <dipole>  (319) 
4.16

>  <excitation_energy_1>  (319) 
4.595

>  <excitation_energy_2>  (319) 
4.826

>  <excitation_energy_3>  (319) 
4.978

>  <excitation_energy_4>  (319) 
5.107

>  <homo_energy>  (319) 
-7.14

>  <homo_lumo_gap>  (319) 
5.663

>  <logP>  (319) 
0.881

>  <lumo_energy>  (319) 
-1.478

>  <melting_point>  (319) 
108.63

>  <molecular_refractivity>  (319) 
32.33

>  <oscillator_strength_1>  (319) 
0.0068

>  <oscillator_strength_2>  (319) 
0.0017

>  <oscillator_strength_3>  (319) 
0.028

>  <oscillator_strength_4>  (319) 
0.0372

>  <open_babel_can_smiles>  (319) 
OC(=N)c1cccnc1

>  <mulliken_charges>  (319) 
15
1   -0.139268
2   -0.15496
3   0.04649
4   0.006503
5   0.042973
6   0.423131
7   -0.571528
8   -0.404202
9   -0.574147
10   0.150894
11   0.160094
12   0.154665
13   0.159628
14   0.292342
15   0.407386

>  <lowdin_charges>  (319) 
15
1   -0.168641
2   -0.135081
3   -0.078103
4   -0.085444
5   -0.06727
6   0.125324
7   -0.378125
8   -0.137698
9   -0.362175
10   0.17106
11   0.167521
12   0.163371
13   0.16593
14   0.262198
15   0.357133

$$$$
PCCDB-ID:  938
     RDKit          3D

 14 14  0  0  0  0  0  0  0  0999 V2000
   -0.7449    1.2200   -0.0380 C   0  0  0  0  0  0  0  0  0  0  0  0
   -1.4235    0.0055   -0.0943 C   0  0  0  0  0  0  0  0  0  0  0  0
    0.6476    1.1979    0.0563 C   0  0  0  0  0  0  0  0  0  0  0  0
    0.7089   -1.0857    0.0622 C   0  0  0  0  0  0  0  0  0  0  0  0
   -0.6867   -1.1837   -0.0521 C   0  0  0  0  0  0  0  0  0  0  0  0
   -1.2983   -2.5511   -0.0831 C   0  0  0  0  0  0  0  0  0  0  0  0
    1.3721    0.0716    0.1070 N   0  0  0  0  0  0  0  0  0  0  0  0
   -0.7465   -3.5320    0.3531 O   0  0  0  0  0  0  0  0  0  0  0  0
   -2.5386   -2.6545   -0.6353 O   0  0  0  0  0  0  0  0  0  0  0  0
   -1.2808    2.1637   -0.0573 H   0  0  0  0  0  0  0  0  0  0  0  0
   -2.5108   -0.0045   -0.1343 H   0  0  0  0  0  0  0  0  0  0  0  0
    1.2096    2.1291    0.1015 H   0  0  0  0  0  0  0  0  0  0  0  0
    1.2992   -1.9970    0.1142 H   0  0  0  0  0  0  0  0  0  0  0  0
   -2.7787   -1.8291   -1.0863 H   0  0  0  0  0  0  0  0  0  0  0  0
  1  3  2  0
  2  5  2  0
  2  1  1  0
  3 12  1  0
  3  7  1  0
  4  7  2  0
  4 13  1  0
  5  4  1  0
  6  5  1  0
  6  8  2  0
  9  6  1  0
 10  1  1  0
 11  2  1  0
 14  9  1  0
M  END
>  <HBA>  (320) 
3

>  <HBD>  (320) 
1

>  <TPSA>  (320) 
50.19

>  <cid>  (320) 
938

>  <dipole>  (320) 
5.1

>  <excitation_energy_1>  (320) 
4.285

>  <excitation_energy_2>  (320) 
4.746

>  <excitation_energy_3>  (320) 
4.801

>  <excitation_energy_4>  (320) 
5.212

>  <homo_energy>  (320) 
-7.325

>  <homo_lumo_gap>  (320) 
5.54

>  <logP>  (320) 
0.78

>  <lumo_energy>  (320) 
-1.785

>  <melting_point>  (320) 
110.15

>  <molecular_refractivity>  (320) 
31.2

>  <oscillator_strength_1>  (320) 
0.0025

>  <oscillator_strength_2>  (320) 
0.0116

>  <oscillator_strength_3>  (320) 
0.0024

>  <oscillator_strength_4>  (320) 
0.0637

>  <open_babel_can_smiles>  (320) 
OC(=O)c1cccnc1

>  <mulliken_charges>  (320) 
14
1   -0.141756
2   -0.160991
3   0.050713
4   0.029843
5   0.028395
6   0.553689
7   -0.405126
8   -0.435627
9   -0.571683
10   0.151691
11   0.148214
12   0.156868
13   0.184147
14   0.411623

>  <lowdin_charges>  (320) 
14
1   -0.170401
2   -0.133737
3   -0.071059
4   -0.059733
5   -0.075662
6   0.197815
7   -0.136653
8   -0.230436
9   -0.354964
10   0.171401
11   0.160568
12   0.164742
13   0.179911
14   0.358207

$$$$
PCCDB-ID:  942
     RDKit          3D

 26 27  0  0  1  0  0  0  0  0999 V2000
    1.4742   -0.1536    0.6047 C   0  0  0  0  0  0  0  0  0  0  0  0
   -0.3063    2.9584   -2.6861 C   0  0  0  0  0  0  0  0  0  0  0  0
    3.1458   -1.6587   -1.5663 C   0  0  0  0  0  0  0  0  0  0  0  0
    0.5390    1.8511   -2.5974 C   0  0  0  0  0  0  0  0  0  0  0  0
    2.3181   -0.5850   -2.3211 C   0  0  0  0  0  0  0  0  0  0  0  0
   -0.1312    4.0049   -1.7840 C   0  0  0  0  0  0  0  0  0  0  0  0
    3.6079   -0.9336   -0.2647 C   0  0  0  0  0  0  0  0  0  0  0  0
    1.6161    2.9403   -0.7664 C   0  0  0  0  0  0  0  0  0  0  0  0
    1.5321    1.8235   -1.6158 C   0  0  0  0  0  0  0  0  0  0  0  0
    2.5321    0.6956   -1.4686 C   0  0  1  0  0  0  0  0  0  0  0  0
    0.8137    4.0062   -0.8328 N   0  0  0  0  0  0  0  0  0  0  0  0
    2.7186    0.2231   -0.0746 N   0  0  0  0  0  0  0  0  0  0  0  0
    1.7212   -0.4890    1.6171 H   0  0  0  0  0  0  0  0  0  0  0  0
    0.9018   -0.9595    0.1110 H   0  0  0  0  0  0  0  0  0  0  0  0
    0.8209    0.7179    0.6920 H   0  0  0  0  0  0  0  0  0  0  0  0
   -1.0855    3.0073   -3.4415 H   0  0  0  0  0  0  0  0  0  0  0  0
    4.0027   -2.0082   -2.1511 H   0  0  0  0  0  0  0  0  0  0  0  0
    2.5342   -2.5376   -1.3397 H   0  0  0  0  0  0  0  0  0  0  0  0
    0.4267    1.0250   -3.2933 H   0  0  0  0  0  0  0  0  0  0  0  0
    1.2585   -0.8620   -2.3481 H   0  0  0  0  0  0  0  0  0  0  0  0
    2.6442   -0.4468   -3.3570 H   0  0  0  0  0  0  0  0  0  0  0  0
   -0.7729    4.8838   -1.8231 H   0  0  0  0  0  0  0  0  0  0  0  0
    4.6331   -0.5620   -0.3886 H   0  0  0  0  0  0  0  0  0  0  0  0
    3.5953   -1.5752    0.6209 H   0  0  0  0  0  0  0  0  0  0  0  0
    2.3759    2.9558    0.0133 H   0  0  0  0  0  0  0  0  0  0  0  0
    3.5141    1.1035   -1.7572 H   0  0  0  0  0  0  0  0  0  0  0  0
  1 15  1  0
  1 13  1  0
  2  4  2  0
  2  6  1  0
  3 18  1  0
  3  7  1  0
  4  9  1  0
  5  3  1  0
  5 10  1  0
  6 11  2  0
  7 12  1  0
  7 24  1  0
  8 25  1  0
  9 10  1  0
  9  8  2  0
 10 26  1  6
 10 12  1  0
 11  8  1  0
 12  1  1  0
 14  1  1  0
 16  2  1  0
 17  3  1  0
 19  4  1  0
 20  5  1  0
 21  5  1  0
 22  6  1  0
 23  7  1  0
M  END
>  <HBA>  (321) 
2

>  <HBD>  (321) 
0

>  <TPSA>  (321) 
16.13

>  <cid>  (321) 
942

>  <dipole>  (321) 
3.13

>  <excitation_energy_1>  (321) 
4.471

>  <excitation_energy_2>  (321) 
4.622

>  <excitation_energy_3>  (321) 
4.863

>  <excitation_energy_4>  (321) 
5.048

>  <homo_energy>  (321) 
-5.867

>  <homo_lumo_gap>  (321) 
5.366

>  <logP>  (321) 
1.786

>  <lumo_energy>  (321) 
-0.501

>  <melting_point>  (321) 
45.21

>  <molecular_refractivity>  (321) 
53.13

>  <oscillator_strength_1>  (321) 
0.0019

>  <oscillator_strength_2>  (321) 
0.0016

>  <oscillator_strength_3>  (321) 
0.0035

>  <oscillator_strength_4>  (321) 
0.0004

>  <open_babel_can_smiles>  (321) 
CN1CCC[C@H]1c1cccnc1

>  <mulliken_charges>  (321) 
26
1   -0.314693
2   -0.144221
3   -0.294487
4   -0.151634
5   -0.29139
6   0.037922
7   -0.136856
8   0.00521
9   0.107607
10   -0.043559
11   -0.412003
12   -0.380947
13   0.152434
14   0.121646
15   0.164566
16   0.135192
17   0.141314
18   0.144339
19   0.140787
20   0.142799
21   0.142066
22   0.139663
23   0.144462
24   0.140992
25   0.158169
26   0.150624

>  <lowdin_charges>  (321) 
26
1   -0.366626
2   -0.176043
3   -0.302653
4   -0.143313
5   -0.299212
6   -0.094732
7   -0.20911
8   -0.093127
9   -0.027542
10   -0.065737
11   -0.14648
12   -0.190918
13   0.151539
14   0.123979
15   0.158868
16   0.163286
17   0.150093
18   0.14841
19   0.163369
20   0.143663
21   0.148952
22   0.156061
23   0.142354
24   0.148892
25   0.164716
26   0.15131

$$$$
PCCDB-ID:  945
     RDKit          3D

  3  2  0  0  0  0  0  0  0  0999 V2000
    1.0130   -0.0423    0.0387 N   0  0  0  0  0  0  0  0  0  0  0  0
    2.2191   -0.0807    0.0798 O   0  0  0  0  0  0  0  0  0  0  0  0
    0.6287   -0.7239    0.7696 H   0  0  0  0  0  0  0  0  0  0  0  0
  1  2  2  0
  1  3  1  0
M  END
>  <HBA>  (322) 
2

>  <HBD>  (322) 
1

>  <TPSA>  (322) 
40.92

>  <cid>  (322) 
945

>  <dipole>  (322) 
1.65

>  <excitation_energy_1>  (322) 
1.588

>  <excitation_energy_2>  (322) 
6.279

>  <excitation_energy_3>  (322) 
7.224

>  <excitation_energy_4>  (322) 
7.681

>  <homo_energy>  (322) 
-6.629

>  <homo_lumo_gap>  (322) 
3.752

>  <logP>  (322) 
0.431

>  <lumo_energy>  (322) 
-2.876

>  <melting_point>  (322) 
9.91

>  <molecular_refractivity>  (322) 
6.76

>  <oscillator_strength_1>  (322) 
0.0004

>  <oscillator_strength_2>  (322) 
0.0445

>  <oscillator_strength_3>  (322) 
0.0031

>  <oscillator_strength_4>  (322) 
0.0271

>  <open_babel_can_smiles>  (322) 
N=O

>  <mulliken_charges>  (322) 
3
1   -0.060553
2   -0.216295
3   0.276848

>  <lowdin_charges>  (322) 
3
1   -0.086021
2   -0.127665
3   0.213687

$$$$
PCCDB-ID:  947
     RDKit          3D

  2  1  0  0  0  0  0  0  0  0999 V2000
    0.9579   -0.0696    0.0557 N   0  0  0  0  0  0  0  0  0  0  0  0
    2.0633   -0.0696    0.0557 N   0  0  0  0  0  0  0  0  0  0  0  0
  1  2  3  0
M  END
>  <HBA>  (323) 
2

>  <HBD>  (323) 
0

>  <TPSA>  (323) 
47.58

>  <cid>  (323) 
947

>  <dipole>  (323) 
0.0

>  <excitation_energy_1>  (323) 
9.149

>  <excitation_energy_2>  (323) 
9.149

>  <excitation_energy_3>  (323) 
9.184

>  <excitation_energy_4>  (323) 
9.599

>  <homo_energy>  (323) 
-11.617

>  <homo_lumo_gap>  (323) 
10.961

>  <logP>  (323) 
0.03

>  <lumo_energy>  (323) 
-0.656

>  <melting_point>  (323) 
27.88

>  <molecular_refractivity>  (323) 
3.45

>  <oscillator_strength_1>  (323) 
0.0

>  <oscillator_strength_2>  (323) 
0.0

>  <oscillator_strength_3>  (323) 
0.0

>  <oscillator_strength_4>  (323) 
0.0

>  <open_babel_can_smiles>  (323) 
N#N

>  <mulliken_charges>  (323) 
2
1   3.7e-05
2   -3.7e-05

>  <lowdin_charges>  (323) 
2
1   3e-06
2   -3e-06

$$$$
PCCDB-ID:  949
     RDKit          3D

 20 20  0  0  0  0  0  0  0  0999 V2000
    2.1956    1.8296   -0.5396 C   0  0  0  0  0  0  0  0  0  0  0  0
    1.3956   -0.4963   -0.1638 C   0  0  0  0  0  0  0  0  0  0  0  0
    4.8096    0.2575    3.5537 C   0  0  0  0  0  0  0  0  0  0  0  0
    4.0080   -0.8125    3.1551 C   0  0  0  0  0  0  0  0  0  0  0  0
    4.7808    1.4273    2.7940 C   0  0  0  0  0  0  0  0  0  0  0  0
    3.1975   -0.7250    2.0258 C   0  0  0  0  0  0  0  0  0  0  0  0
    3.9765    1.5323    1.6618 C   0  0  0  0  0  0  0  0  0  0  0  0
    3.1701    0.4504    1.2408 C   0  0  0  0  0  0  0  0  0  0  0  0
    2.3852    0.5355    0.0922 N   0  0  0  0  0  0  0  0  0  0  0  0
    1.5627    1.7066   -1.4211 H   0  0  0  0  0  0  0  0  0  0  0  0
    3.1520    2.2456   -0.8779 H   0  0  0  0  0  0  0  0  0  0  0  0
    1.7205    2.5693    0.1259 H   0  0  0  0  0  0  0  0  0  0  0  0
    0.8815   -0.2731   -1.1011 H   0  0  0  0  0  0  0  0  0  0  0  0
    0.6391   -0.5760    0.6344 H   0  0  0  0  0  0  0  0  0  0  0  0
    1.8717   -1.4776   -0.2763 H   0  0  0  0  0  0  0  0  0  0  0  0
    5.4358    0.1840    4.4380 H   0  0  0  0  0  0  0  0  0  0  0  0
    4.0038   -1.7342    3.7322 H   0  0  0  0  0  0  0  0  0  0  0  0
    5.3891    2.2805    3.0848 H   0  0  0  0  0  0  0  0  0  0  0  0
    2.5861   -1.5781    1.7571 H   0  0  0  0  0  0  0  0  0  0  0  0
    3.9800    2.4619    1.1052 H   0  0  0  0  0  0  0  0  0  0  0  0
  1  9  1  0
  1 12  1  0
  2  9  1  0
  2 14  1  0
  3 16  1  0
  4  3  2  0
  4 17  1  0
  5 18  1  0
  5  3  1  0
  6  4  1  0
  7  5  2  0
  8  7  1  0
  8  6  2  0
  9  8  1  0
 10  1  1  0
 11  1  1  0
 13  2  1  0
 15  2  1  0
 19  6  1  0
 20  7  1  0
M  END
>  <HBA>  (324) 
1

>  <HBD>  (324) 
0

>  <TPSA>  (324) 
3.24

>  <cid>  (324) 
949

>  <dipole>  (324) 
1.86

>  <excitation_energy_1>  (324) 
4.5

>  <excitation_energy_2>  (324) 
4.537

>  <excitation_energy_3>  (324) 
5.068

>  <excitation_energy_4>  (324) 
5.069

>  <homo_energy>  (324) 
-5.015

>  <homo_lumo_gap>  (324) 
5.38

>  <logP>  (324) 
1.753

>  <lumo_energy>  (324) 
0.365

>  <melting_point>  (324) 
12.66

>  <molecular_refractivity>  (324) 
40.65

>  <oscillator_strength_1>  (324) 
0.0464

>  <oscillator_strength_2>  (324) 
0.0242

>  <oscillator_strength_3>  (324) 
0.0007

>  <oscillator_strength_4>  (324) 
0.029

>  <open_babel_can_smiles>  (324) 
CN(c1ccccc1)C

>  <mulliken_charges>  (324) 
20
1   -0.309379
2   -0.309413
3   -0.136968
4   -0.136742
5   -0.136701
6   -0.194397
7   -0.19428
8   0.36193
9   -0.46982
10   0.152011
11   0.16248
12   0.148815
13   0.151972
14   0.148798
15   0.162482
16   0.117333
17   0.121153
18   0.121121
19   0.119825
20   0.11978

>  <lowdin_charges>  (324) 
20
1   -0.351727
2   -0.350283
3   -0.190383
4   -0.148005
5   -0.14853
6   -0.211975
7   -0.211604
8   0.060024
9   -0.122682
10   0.156061
11   0.152775
12   0.141184
13   0.155842
14   0.140339
15   0.152152
16   0.153263
17   0.153894
18   0.154451
19   0.157919
20   0.157286

$$$$
PCCDB-ID:  951
     RDKit          3D

 23 23  0  0  1  0  0  0  0  0999 V2000
   -1.0616    0.6699   -0.0076 C   0  0  0  0  0  0  0  0  0  0  0  0
   -0.4220    1.9119   -0.0038 C   0  0  0  0  0  0  0  0  0  0  0  0
    1.0819   -0.4157   -0.0352 C   0  0  0  0  0  0  0  0  0  0  0  0
   -1.8406   -2.0904   -1.3191 C   0  0  0  0  0  0  0  0  0  0  0  0
   -0.3140   -0.5110   -0.0285 C   0  0  0  0  0  0  0  0  0  0  0  0
    0.9693    2.0031   -0.0183 C   0  0  0  0  0  0  0  0  0  0  0  0
    1.7291    0.8187   -0.0304 C   0  0  0  0  0  0  0  0  0  0  0  0
   -0.9987   -1.8799   -0.0407 C   0  0  2  0  0  0  0  0  0  0  0  0
   -0.9136   -2.3127   -2.4376 N   0  0  0  0  0  0  0  0  0  0  0  0
    1.6510    3.1896   -0.0157 O   0  0  0  0  0  0  0  0  0  0  0  0
    3.0903    0.9487   -0.0357 O   0  0  0  0  0  0  0  0  0  0  0  0
   -0.0777   -2.9517    0.0641 O   0  0  0  0  0  0  0  0  0  0  0  0
   -2.1481    0.6336    0.0165 H   0  0  0  0  0  0  0  0  0  0  0  0
   -1.0109    2.8279    0.0167 H   0  0  0  0  0  0  0  0  0  0  0  0
    1.6653   -1.3328   -0.0170 H   0  0  0  0  0  0  0  0  0  0  0  0
   -2.5369   -1.2513   -1.4669 H   0  0  0  0  0  0  0  0  0  0  0  0
   -2.4332   -3.0031   -1.1930 H   0  0  0  0  0  0  0  0  0  0  0  0
   -1.6673   -1.9460    0.8279 H   0  0  0  0  0  0  0  0  0  0  0  0
   -0.4964   -1.4291   -2.7260 H   0  0  0  0  0  0  0  0  0  0  0  0
   -1.4001   -2.6951   -3.2442 H   0  0  0  0  0  0  0  0  0  0  0  0
    1.0049    3.9121    0.0130 H   0  0  0  0  0  0  0  0  0  0  0  0
    3.4779    0.0600   -0.0102 H   0  0  0  0  0  0  0  0  0  0  0  0
    0.1356   -3.1632   -0.8695 H   0  0  0  0  0  0  0  0  0  0  0  0
  1  2  2  0
  1 13  1  0
  2 14  1  0
  3  7  1  0
  3  5  2  0
  3 15  1  0
  4 17  1  0
  4  8  1  0
  5  1  1  0
  6 10  1  0
  6  2  1  0
  7  6  2  0
  8  5  1  0
  8 12  1  0
  8 18  1  1
  9  4  1  0
 10 21  1  0
 11  7  1  0
 11 22  1  0
 16  4  1  0
 19  9  1  0
 20  9  1  0
 23 12  1  0
M  END
>  <HBA>  (325) 
4

>  <HBD>  (325) 
4

>  <TPSA>  (325) 
86.71

>  <cid>  (325) 
951

>  <dipole>  (325) 
3.5

>  <excitation_energy_1>  (325) 
4.748

>  <excitation_energy_2>  (325) 
4.838

>  <excitation_energy_3>  (325) 
5.056

>  <excitation_energy_4>  (325) 
5.17

>  <homo_energy>  (325) 
-5.434

>  <homo_lumo_gap>  (325) 
5.72

>  <logP>  (325) 
0.79

>  <lumo_energy>  (325) 
0.286

>  <melting_point>  (325) 
161.3

>  <molecular_refractivity>  (325) 
44.13

>  <oscillator_strength_1>  (325) 
0.002

>  <oscillator_strength_2>  (325) 
0.0516

>  <oscillator_strength_3>  (325) 
0.0021

>  <oscillator_strength_4>  (325) 
0.0124

>  <open_babel_can_smiles>  (325) 
NC[C@H](c1ccc(c(c1)O)O)O

>  <mulliken_charges>  (325) 
23
1   -0.199619
2   -0.200447
3   -0.26637
4   -0.168108
5   0.117256
6   0.317492
7   0.332052
8   0.086101
9   -0.750468
10   -0.634009
11   -0.636149
12   -0.645802
13   0.117603
14   0.115677
15   0.133566
16   0.131675
17   0.152045
18   0.142957
19   0.317069
20   0.313101
21   0.405377
22   0.408135
23   0.410866

>  <lowdin_charges>  (325) 
23
1   -0.184168
2   -0.206454
3   -0.215072
4   -0.22379
5   -0.037582
6   0.072729
7   0.079411
8   -0.0054
9   -0.556889
10   -0.373082
11   -0.371919
12   -0.4642
13   0.150472
14   0.152589
15   0.164565
16   0.132493
17   0.150186
18   0.149042
19   0.264936
20   0.2659
21   0.357867
22   0.35764
23   0.340726

$$$$
PCCDB-ID:  952
     RDKit          3D

 19 19  0  0  1  0  0  0  0  0999 V2000
    1.4414    0.0353   -0.1313 C   0  0  0  0  0  0  0  0  0  0  0  0
   -0.1738    2.6649    1.3909 C   0  0  0  0  0  0  0  0  0  0  0  0
    1.1333    3.2326    0.8461 C   0  0  2  0  0  0  0  0  0  0  0  0
    0.5007    1.2184   -0.3467 C   0  0  2  0  0  0  0  0  0  0  0  0
    1.1985    2.5912   -0.5563 C   0  0  2  0  0  0  0  0  0  0  0  0
    0.6990   -1.1349    0.1735 O   0  0  0  0  0  0  0  0  0  0  0  0
    2.2882    2.7554    1.5415 O   0  0  0  0  0  0  0  0  0  0  0  0
    2.5036    2.5331   -1.0846 O   0  0  0  0  0  0  0  0  0  0  0  0
   -0.3108    1.3556    0.8423 O   0  0  0  0  0  0  0  0  0  0  0  0
    2.1556    0.2751    0.6710 H   0  0  0  0  0  0  0  0  0  0  0  0
    2.0054   -0.1673   -1.0461 H   0  0  0  0  0  0  0  0  0  0  0  0
   -1.0193    3.3021    1.0835 H   0  0  0  0  0  0  0  0  0  0  0  0
   -0.1810    2.5911    2.4844 H   0  0  0  0  0  0  0  0  0  0  0  0
    1.1344    4.3295    0.8030 H   0  0  0  0  0  0  0  0  0  0  0  0
   -0.1727    0.9814   -1.1804 H   0  0  0  0  0  0  0  0  0  0  0  0
    0.6033    3.1965   -1.2483 H   0  0  0  0  0  0  0  0  0  0  0  0
    0.1085   -0.8807    0.9026 H   0  0  0  0  0  0  0  0  0  0  0  0
    2.3848    3.2479    2.3697 H   0  0  0  0  0  0  0  0  0  0  0  0
    3.0927    2.4142   -0.3179 H   0  0  0  0  0  0  0  0  0  0  0  0
  1  6  1  0
  1 10  1  0
  2 13  1  0
  3 14  1  6
  3  2  1  0
  3  7  1  0
  4 15  1  6
  4  1  1  0
  4  9  1  0
  5 16  1  6
  5  4  1  0
  5  3  1  0
  6 17  1  0
  7 18  1  0
  8  5  1  0
  8 19  1  0
  9  2  1  0
 11  1  1  0
 12  2  1  0
M  END
>  <HBA>  (326) 
4

>  <HBD>  (326) 
3

>  <TPSA>  (326) 
69.92

>  <cid>  (326) 
952

>  <dipole>  (326) 
4.82

>  <excitation_energy_1>  (326) 
5.775

>  <excitation_energy_2>  (326) 
6.168

>  <excitation_energy_3>  (326) 
6.401

>  <excitation_energy_4>  (326) 
6.539

>  <homo_energy>  (326) 
-6.623

>  <homo_lumo_gap>  (326) 
7.728

>  <logP>  (326) 
-1.901

>  <lumo_energy>  (326) 
1.105

>  <melting_point>  (326) 
43.58

>  <molecular_refractivity>  (326) 
28.61

>  <oscillator_strength_1>  (326) 
0.0035

>  <oscillator_strength_2>  (326) 
0.0104

>  <oscillator_strength_3>  (326) 
0.012

>  <oscillator_strength_4>  (326) 
0.0028

>  <open_babel_can_smiles>  (326) 
OC[C@H]1OC[C@H]([C@H]1O)O

>  <mulliken_charges>  (326) 
19
1   -0.033096
2   -0.012697
3   0.054388
4   0.110106
5   0.101921
6   -0.627892
7   -0.63781
8   -0.636729
9   -0.516481
10   0.126519
11   0.15236
12   0.131488
13   0.141414
14   0.137143
15   0.139707
16   0.146097
17   0.399557
18   0.407255
19   0.416749

>  <lowdin_charges>  (326) 
19
1   -0.151576
2   -0.141891
3   -0.036284
4   -0.034033
5   -0.026583
6   -0.4689
7   -0.461595
8   -0.448325
9   -0.29026
10   0.132638
11   0.153963
12   0.137529
13   0.146369
14   0.139111
15   0.145841
16   0.153587
17   0.344553
18   0.355286
19   0.350568

$$$$
PCCDB-ID:  953
     RDKit          3D

 22 21  0  0  1  0  0  0  0  0999 V2000
    1.6757   -0.3494   -0.0486 C   0  0  0  0  0  0  0  0  0  0  0  0
    1.1892    0.2489   -1.3624 C   0  0  0  0  0  0  0  0  0  0  0  0
    3.1812   -0.1651    0.2246 C   0  0  1  0  0  0  0  0  0  0  0  0
    3.5509    1.2944    0.5727 C   0  0  0  0  0  0  0  0  0  0  0  0
    3.7303   -1.0438    1.2759 N   0  0  0  0  0  0  0  0  0  0  0  0
    3.0013    2.2586    0.0878 O   0  0  0  0  0  0  0  0  0  0  0  0
    4.5652    1.3967    1.4415 O   0  0  0  0  0  0  0  0  0  0  0  0
    0.1687   -0.3584   -4.1645 O   0  0  0  0  0  0  0  0  0  0  0  0
    1.7061    1.6057   -4.0502 O   0  0  0  0  0  0  0  0  0  0  0  0
    2.7104   -0.6594   -4.8654 O   0  0  0  0  0  0  0  0  0  0  0  0
    1.9348   -0.3979   -2.4281 O   0  0  0  0  0  0  0  0  0  0  0  0
    1.7347   -0.0161   -3.9666 P   0  0  0  0  0  0  0  0  0  0  0  0
    1.4623   -1.4255   -0.0554 H   0  0  0  0  0  0  0  0  0  0  0  0
    1.0897    0.0979    0.7650 H   0  0  0  0  0  0  0  0  0  0  0  0
    1.3719    1.3233   -1.3968 H   0  0  0  0  0  0  0  0  0  0  0  0
    0.1233    0.0449   -1.5049 H   0  0  0  0  0  0  0  0  0  0  0  0
    3.7255   -0.3981   -0.6984 H   0  0  0  0  0  0  0  0  0  0  0  0
    3.0574   -1.1642    2.0323 H   0  0  0  0  0  0  0  0  0  0  0  0
    3.9353   -1.9701    0.9091 H   0  0  0  0  0  0  0  0  0  0  0  0
    4.7741    0.4617    1.6964 H   0  0  0  0  0  0  0  0  0  0  0  0
   -0.1116   -0.2280   -5.0852 H   0  0  0  0  0  0  0  0  0  0  0  0
    2.5821    1.9426   -4.3029 H   0  0  0  0  0  0  0  0  0  0  0  0
  1  3  1  0
  1 14  1  0
  2  1  1  0
  3 17  1  6
  3  4  1  0
  3  5  1  0
  4  7  1  0
  5 18  1  0
  6  4  2  0
  7 20  1  0
  8 12  1  0
  9 12  1  0
 10 12  2  0
 11  2  1  0
 12 11  1  0
 13  1  1  0
 15  2  1  0
 16  2  1  0
 19  5  1  0
 21  8  1  0
 22  9  1  0
M  END
>  <HBA>  (327) 
7

>  <HBD>  (327) 
4

>  <TPSA>  (327) 
139.89

>  <cid>  (327) 
953

>  <dipole>  (327) 
3.58

>  <excitation_energy_1>  (327) 
5.451

>  <excitation_energy_2>  (327) 
6.23

>  <excitation_energy_3>  (327) 
6.349

>  <excitation_energy_4>  (327) 
6.702

>  <homo_energy>  (327) 
-7.059

>  <homo_lumo_gap>  (327) 
7.279

>  <logP>  (327) 
-0.402

>  <lumo_energy>  (327) 
0.22

>  <melting_point>  (327) 
185.9

>  <molecular_refractivity>  (327) 
37.89

>  <oscillator_strength_1>  (327) 
0.0019

>  <oscillator_strength_2>  (327) 
0.0088

>  <oscillator_strength_3>  (327) 
0.0132

>  <oscillator_strength_4>  (327) 
0.0266

>  <open_babel_can_smiles>  (327) 
OC(=O)[C@H](CCOP(=O)(O)O)N

>  <mulliken_charges>  (327) 
22
1   -0.292587
2   -0.057795
3   -0.093427
4   0.608995
5   -0.772877
6   -0.467091
7   -0.576352
8   -0.649649
9   -0.656772
10   -0.531657
11   -0.519658
12   1.151335
13   0.151905
14   0.154291
15   0.207792
16   0.165184
17   0.206798
18   0.321929
19   0.330572
20   0.434228
21   0.442166
22   0.442669

>  <lowdin_charges>  (327) 
22
1   -0.287639
2   -0.120074
3   -0.113846
4   0.178736
5   -0.541796
6   -0.263555
7   -0.350855
8   -0.565601
9   -0.577554
10   -0.578946
11   -0.39592
12   1.120538
13   0.151911
14   0.160229
15   0.173367
16   0.15576
17   0.180553
18   0.268238
19   0.27499
20   0.359445
21   0.385491
22   0.386529

$$$$
PCCDB-ID:  957
     RDKit          3D

 27 26  0  0  0  0  0  0  0  0999 V2000
    7.7765   -2.9378    1.9205 C   0  0  0  0  0  0  0  0  0  0  0  0
    7.3146   -1.5054    1.6301 C   0  0  0  0  0  0  0  0  0  0  0  0
    5.8870   -1.2332    2.1282 C   0  0  0  0  0  0  0  0  0  0  0  0
    5.2625    0.1217    1.7396 C   0  0  0  0  0  0  0  0  0  0  0  0
    5.7130    1.3647    2.5330 C   0  0  0  0  0  0  0  0  0  0  0  0
    7.0925    1.9419    2.1710 C   0  0  0  0  0  0  0  0  0  0  0  0
    7.3757    3.3198    2.7929 C   0  0  0  0  0  0  0  0  0  0  0  0
    7.5173    3.3079    4.3171 C   0  0  0  0  0  0  0  0  0  0  0  0
    7.7812    4.5996    4.8547 O   0  0  0  0  0  0  0  0  0  0  0  0
    8.7937   -3.1135    1.5518 H   0  0  0  0  0  0  0  0  0  0  0  0
    7.1168   -3.6718    1.4413 H   0  0  0  0  0  0  0  0  0  0  0  0
    7.7730   -3.1453    2.9978 H   0  0  0  0  0  0  0  0  0  0  0  0
    7.3596   -1.3191    0.5474 H   0  0  0  0  0  0  0  0  0  0  0  0
    8.0205   -0.8029    2.0888 H   0  0  0  0  0  0  0  0  0  0  0  0
    5.8554   -1.3444    3.2227 H   0  0  0  0  0  0  0  0  0  0  0  0
    5.2386   -2.0278    1.7310 H   0  0  0  0  0  0  0  0  0  0  0  0
    4.1760    0.0298    1.8723 H   0  0  0  0  0  0  0  0  0  0  0  0
    5.4165    0.2999    0.6645 H   0  0  0  0  0  0  0  0  0  0  0  0
    5.6708    1.1320    3.6066 H   0  0  0  0  0  0  0  0  0  0  0  0
    4.9669    2.1560    2.3694 H   0  0  0  0  0  0  0  0  0  0  0  0
    7.1622    2.0314    1.0781 H   0  0  0  0  0  0  0  0  0  0  0  0
    7.8883    1.2472    2.4685 H   0  0  0  0  0  0  0  0  0  0  0  0
    6.5823    4.0296    2.5227 H   0  0  0  0  0  0  0  0  0  0  0  0
    8.3083    3.7184    2.3642 H   0  0  0  0  0  0  0  0  0  0  0  0
    8.2986    2.5865    4.6140 H   0  0  0  0  0  0  0  0  0  0  0  0
    6.5852    2.9869    4.7920 H   0  0  0  0  0  0  0  0  0  0  0  0
    8.6100    4.9131    4.4599 H   0  0  0  0  0  0  0  0  0  0  0  0
  1 12  1  0
  2  1  1  0
  2 14  1  0
  2  3  1  0
  3 15  1  0
  4 17  1  0
  4  3  1  0
  4  5  1  0
  5 19  1  0
  6 22  1  0
  6  5  1  0
  6  7  1  0
  7  8  1  0
  8 25  1  0
  8 26  1  0
  8  9  1  0
 10  1  1  0
 11  1  1  0
 13  2  1  0
 16  3  1  0
 18  4  1  0
 20  5  1  0
 21  6  1  0
 23  7  1  0
 24  7  1  0
 27  9  1  0
M  END
>  <HBA>  (328) 
1

>  <HBD>  (328) 
1

>  <TPSA>  (328) 
20.23

>  <cid>  (328) 
957

>  <dipole>  (328) 
1.71

>  <excitation_energy_1>  (328) 
6.394

>  <excitation_energy_2>  (328) 
7.099

>  <excitation_energy_3>  (328) 
7.212

>  <excitation_energy_4>  (328) 
7.299

>  <homo_energy>  (328) 
-7.064

>  <homo_lumo_gap>  (328) 
9.189

>  <logP>  (328) 
2.339

>  <lumo_energy>  (328) 
2.125

>  <melting_point>  (328) 
-9.27

>  <molecular_refractivity>  (328) 
41.73

>  <oscillator_strength_1>  (328) 
0.0062

>  <oscillator_strength_2>  (328) 
0.0065

>  <oscillator_strength_3>  (328) 
0.0013

>  <oscillator_strength_4>  (328) 
0.0232

>  <open_babel_can_smiles>  (328) 
CCCCCCCCO

>  <mulliken_charges>  (328) 
27
1   -0.442284
2   -0.249653
3   -0.245992
4   -0.261795
5   -0.255805
6   -0.263704
7   -0.280819
8   -0.024594
9   -0.616893
10   0.14105
11   0.141395
12   0.141551
13   0.129077
14   0.137279
15   0.125936
16   0.127702
17   0.129971
18   0.126451
19   0.132171
20   0.130977
21   0.131834
22   0.136778
23   0.14383
24   0.117203
25   0.114757
26   0.1494
27   0.384175

>  <lowdin_charges>  (328) 
27
1   -0.443569
2   -0.275517
3   -0.275011
4   -0.273063
5   -0.276933
6   -0.278724
7   -0.296027
8   -0.137546
9   -0.469117
10   0.14808
11   0.147163
12   0.144604
13   0.136304
14   0.141305
15   0.135222
16   0.141402
17   0.142338
18   0.136004
19   0.13731
20   0.142568
21   0.141065
22   0.14091
23   0.147004
24   0.135566
25   0.122869
26   0.147143
27   0.338649

$$$$
PCCDB-ID:  962
     RDKit          3D

  3  2  0  0  0  0  0  0  0  0999 V2000
    0.9279   -0.0511   -0.0477 O   0  0  0  0  0  0  0  0  0  0  0  0
    1.8954   -0.0987   -0.0357 H   0  0  0  0  0  0  0  0  0  0  0  0
    0.6517   -0.9513    0.1797 H   0  0  0  0  0  0  0  0  0  0  0  0
  1  2  1  0
  1  3  1  0
M  END
>  <HBA>  (329) 
1

>  <HBD>  (329) 
1

>  <TPSA>  (329) 
9.23

>  <cid>  (329) 
962

>  <dipole>  (329) 
2.1

>  <excitation_energy_1>  (329) 
7.824

>  <excitation_energy_2>  (329) 
10.014

>  <excitation_energy_3>  (329) 
10.117

>  <excitation_energy_4>  (329) 
11.458

>  <homo_energy>  (329) 
-7.924

>  <homo_lumo_gap>  (329) 
9.627

>  <logP>  (329) 
-0.064

>  <lumo_energy>  (329) 
1.703

>  <melting_point>  (329) 
0.0

>  <molecular_refractivity>  (329) 
3.05

>  <oscillator_strength_1>  (329) 
0.0706

>  <oscillator_strength_2>  (329) 
0.0

>  <oscillator_strength_3>  (329) 
0.1224

>  <oscillator_strength_4>  (329) 
0.0185

>  <open_babel_can_smiles>  (329) 
O

>  <mulliken_charges>  (329) 
3
1   -0.774322
2   0.387163
3   0.387158

>  <lowdin_charges>  (329) 
3
1   -0.68427
2   0.341693
3   0.342577

$$$$
PCCDB-ID:  964
     RDKit          3D

 11 10  0  0  0  0  0  0  0  0999 V2000
    1.2808    0.0033   -0.5274 C   0  0  0  0  0  0  0  0  0  0  0  0
    0.6108    1.3598   -0.5844 C   0  0  0  0  0  0  0  0  0  0  0  0
    1.2491    2.3880   -1.5297 C   0  0  0  0  0  0  0  0  0  0  0  0
    0.6198   -0.8526    0.3609 O   0  0  0  0  0  0  0  0  0  0  0  0
   -0.3724    1.6136    0.0798 O   0  0  0  0  0  0  0  0  0  0  0  0
    0.6019    3.5607   -1.5233 O   0  0  0  0  0  0  0  0  0  0  0  0
    2.2292    2.1360   -2.1952 O   0  0  0  0  0  0  0  0  0  0  0  0
    2.3343    0.1502   -0.2386 H   0  0  0  0  0  0  0  0  0  0  0  0
    1.3055   -0.4129   -1.5477 H   0  0  0  0  0  0  0  0  0  0  0  0
   -0.1276   -0.3433    0.7269 H   0  0  0  0  0  0  0  0  0  0  0  0
    1.0742    4.1454   -2.1470 H   0  0  0  0  0  0  0  0  0  0  0  0
  1  8  1  0
  1  4  1  0
  2  1  1  0
  2  5  2  0
  3  6  1  0
  3  2  1  0
  4 10  1  0
  7  3  2  0
  9  1  1  0
 11  6  1  0
M  END
>  <HBA>  (330) 
4

>  <HBD>  (330) 
2

>  <TPSA>  (330) 
74.6

>  <cid>  (330) 
964

>  <dipole>  (330) 
2.35

>  <excitation_energy_1>  (330) 
3.445

>  <excitation_energy_2>  (330) 
4.213

>  <excitation_energy_3>  (330) 
5.023

>  <excitation_energy_4>  (330) 
6.12

>  <homo_energy>  (330) 
-7.63

>  <homo_lumo_gap>  (330) 
4.991

>  <logP>  (330) 
-1.368

>  <lumo_energy>  (330) 
-2.64

>  <melting_point>  (330) 
92.6

>  <molecular_refractivity>  (330) 
19.67

>  <oscillator_strength_1>  (330) 
0.0

>  <oscillator_strength_2>  (330) 
0.0241

>  <oscillator_strength_3>  (330) 
0.0

>  <oscillator_strength_4>  (330) 
0.0003

>  <open_babel_can_smiles>  (330) 
OCC(=O)C(=O)O

>  <mulliken_charges>  (330) 
11
1   -0.06247
2   0.348403
3   0.539442
4   -0.619805
5   -0.41858
6   -0.534844
7   -0.439396
8   0.176905
9   0.176916
10   0.410623
11   0.422806

>  <lowdin_charges>  (330) 
11
1   -0.154445
2   0.121972
3   0.161928
4   -0.454173
5   -0.184612
6   -0.314942
7   -0.234672
8   0.167236
9   0.167485
10   0.350888
11   0.373335

$$$$
PCCDB-ID:  970
     RDKit          3D

 13 12  0  0  0  0  0  0  0  0999 V2000
    1.4571    0.7206   -0.0696 C   0  0  0  0  0  0  0  0  0  0  0  0
    0.9357    1.3290    1.2082 C   0  0  0  0  0  0  0  0  0  0  0  0
    2.7952   -0.0407   -0.0036 C   0  0  0  0  0  0  0  0  0  0  0  0
   -0.5904    1.5539    1.2619 C   0  0  0  0  0  0  0  0  0  0  0  0
    1.6351    1.6589    2.1493 O   0  0  0  0  0  0  0  0  0  0  0  0
    3.0647   -0.8707   -0.8344 O   0  0  0  0  0  0  0  0  0  0  0  0
    3.6471    0.3015    0.9737 O   0  0  0  0  0  0  0  0  0  0  0  0
   -0.9648    2.1639    2.3923 O   0  0  0  0  0  0  0  0  0  0  0  0
   -1.3337    1.2158    0.3690 O   0  0  0  0  0  0  0  0  0  0  0  0
    1.5963    1.5499   -0.7819 H   0  0  0  0  0  0  0  0  0  0  0  0
    0.7050    0.0750   -0.5264 H   0  0  0  0  0  0  0  0  0  0  0  0
    3.2112    0.9333    1.5887 H   0  0  0  0  0  0  0  0  0  0  0  0
   -1.9347    2.2704    2.3494 H   0  0  0  0  0  0  0  0  0  0  0  0
  1  3  1  0
  1  2  1  0
  2  4  1  0
  2  5  2  0
  3  7  1  0
  4  8  1  0
  6  3  2  0
  7 12  1  0
  9  4  2  0
 10  1  1  0
 11  1  1  0
 13  8  1  0
M  END
>  <HBA>  (331) 
5

>  <HBD>  (331) 
2

>  <TPSA>  (331) 
91.67

>  <cid>  (331) 
970

>  <dipole>  (331) 
4.99

>  <excitation_energy_1>  (331) 
3.321

>  <excitation_energy_2>  (331) 
3.822

>  <excitation_energy_3>  (331) 
4.723

>  <excitation_energy_4>  (331) 
4.945

>  <homo_energy>  (331) 
-7.551

>  <homo_lumo_gap>  (331) 
4.408

>  <logP>  (331) 
-0.885

>  <lumo_energy>  (331) 
-3.143

>  <melting_point>  (331) 
150.47

>  <molecular_refractivity>  (331) 
25.09

>  <oscillator_strength_1>  (331) 
0.0017

>  <oscillator_strength_2>  (331) 
0.0168

>  <oscillator_strength_3>  (331) 
0.001

>  <oscillator_strength_4>  (331) 
0.0

>  <open_babel_can_smiles>  (331) 
OC(=O)CC(=O)C(=O)O

>  <mulliken_charges>  (331) 
13
1   -0.487814
2   0.412528
3   0.610098
4   0.54295
5   -0.435558
6   -0.437923
7   -0.573432
8   -0.532299
9   -0.428709
10   0.230059
11   0.234449
12   0.438096
13   0.427555

>  <lowdin_charges>  (331) 
13
1   -0.349727
2   0.151361
3   0.192115
4   0.16454
5   -0.191434
6   -0.235862
7   -0.350419
8   -0.308205
9   -0.227535
10   0.211165
11   0.208662
12   0.36238
13   0.372959

$$$$
PCCDB-ID:  971
     RDKit          3D

  8  7  0  0  0  0  0  0  0  0999 V2000
    1.0952    0.1091   -0.0123 C   0  0  0  0  0  0  0  0  0  0  0  0
    0.2877   -0.7277    0.9811 C   0  0  0  0  0  0  0  0  0  0  0  0
    0.2879    0.7674   -0.8611 O   0  0  0  0  0  0  0  0  0  0  0  0
    2.3001    0.1219   -0.0411 O   0  0  0  0  0  0  0  0  0  0  0  0
    0.0352   -0.0364    2.1054 O   0  0  0  0  0  0  0  0  0  0  0  0
   -0.0279   -1.8731    0.7785 O   0  0  0  0  0  0  0  0  0  0  0  0
    0.8657    1.2390   -1.4933 H   0  0  0  0  0  0  0  0  0  0  0  0
   -0.4379   -0.6419    2.7100 H   0  0  0  0  0  0  0  0  0  0  0  0
  1  2  1  0
  2  5  1  0
  3  1  1  0
  4  1  2  0
  5  8  1  0
  6  2  2  0
  7  3  1  0
M  END
>  <HBA>  (332) 
4

>  <HBD>  (332) 
2

>  <TPSA>  (332) 
74.6

>  <cid>  (332) 
971

>  <dipole>  (332) 
2.0

>  <excitation_energy_1>  (332) 
5.563

>  <excitation_energy_2>  (332) 
5.632

>  <excitation_energy_3>  (332) 
6.893

>  <excitation_energy_4>  (332) 
7.049

>  <homo_energy>  (332) 
-7.807

>  <homo_lumo_gap>  (332) 
7.268

>  <logP>  (332) 
-0.844

>  <lumo_energy>  (332) 
-0.539

>  <melting_point>  (332) 
130.41

>  <molecular_refractivity>  (332) 
15.27

>  <oscillator_strength_1>  (332) 
0.0006

>  <oscillator_strength_2>  (332) 
0.0027

>  <oscillator_strength_3>  (332) 
0.0

>  <oscillator_strength_4>  (332) 
0.0009

>  <open_babel_can_smiles>  (332) 
OC(=O)C(=O)O

>  <mulliken_charges>  (332) 
8
1   0.53697
2   0.53682
3   -0.537673
4   -0.419582
5   -0.537653
6   -0.419541
7   0.420326
8   0.420333

>  <lowdin_charges>  (332) 
8
1   0.177806
2   0.179091
3   -0.328213
4   -0.219962
5   -0.32933
6   -0.220591
7   0.37058
8   0.370618

$$$$
PCCDB-ID:  974
     RDKit          3D

  9  8  0  0  0  0  0  0  0  0999 V2000
    1.0999    0.0452   -0.1524 C   0  0  0  0  0  0  0  0  0  0  0  0
    0.3263    1.2963    0.3182 C   0  0  0  0  0  0  0  0  0  0  0  0
    0.5378   -1.0811    0.3507 N   0  0  0  0  0  0  0  0  0  0  0  0
    2.0764    0.1030   -0.8757 O   0  0  0  0  0  0  0  0  0  0  0  0
    0.8584    2.4250   -0.1610 O   0  0  0  0  0  0  0  0  0  0  0  0
   -0.6493    1.2465    1.0389 O   0  0  0  0  0  0  0  0  0  0  0  0
   -0.2779   -1.0182    0.9429 H   0  0  0  0  0  0  0  0  0  0  0  0
    0.9406   -1.9782    0.1236 H   0  0  0  0  0  0  0  0  0  0  0  0
    0.3111    3.1567    0.1829 H   0  0  0  0  0  0  0  0  0  0  0  0
  1  2  1  0
  1  3  1  0
  2  6  2  0
  3  7  1  0
  4  1  2  0
  5  9  1  0
  5  2  1  0
  8  3  1  0
M  END
>  <HBA>  (333) 
4

>  <HBD>  (333) 
2

>  <TPSA>  (333) 
80.39

>  <cid>  (333) 
974

>  <dipole>  (333) 
2.28

>  <excitation_energy_1>  (333) 
4.009

>  <excitation_energy_2>  (333) 
5.611

>  <excitation_energy_3>  (333) 
5.705

>  <excitation_energy_4>  (333) 
6.467

>  <homo_energy>  (333) 
-7.051

>  <homo_lumo_gap>  (333) 
5.562

>  <logP>  (333) 
-0.743

>  <lumo_energy>  (333) 
-1.488

>  <melting_point>  (333) 
128.89

>  <molecular_refractivity>  (333) 
16.41

>  <oscillator_strength_1>  (333) 
0.0001

>  <oscillator_strength_2>  (333) 
0.0497

>  <oscillator_strength_3>  (333) 
0.0

>  <oscillator_strength_4>  (333) 
0.0156

>  <open_babel_can_smiles>  (333) 
OC(=O)C(=O)N

>  <mulliken_charges>  (333) 
9
1   0.550408
2   0.529554
3   -0.740361
4   -0.476389
5   -0.530267
6   -0.470701
7   0.366478
8   0.352649
9   0.41863

>  <lowdin_charges>  (333) 
9
1   0.127986
2   0.166749
3   -0.438252
4   -0.260865
5   -0.308541
6   -0.261938
7   0.305464
8   0.299051
9   0.370347

$$$$
PCCDB-ID:  976
     RDKit          3D

 14 13  0  0  0  0  0  0  0  0999 V2000
    1.1113   -0.9785   -0.1836 C   0  0  0  0  0  0  0  0  0  0  0  0
    2.0484   -0.0328   -0.1343 C   0  0  0  0  0  0  0  0  0  0  0  0
    3.2936   -0.0363   -0.9739 C   0  0  0  0  0  0  0  0  0  0  0  0
    4.5563    0.2430   -0.1797 C   0  0  0  0  0  0  0  0  0  0  0  0
    5.8635    0.1365   -1.0005 C   0  0  0  0  0  0  0  0  0  0  0  0
    4.5874    0.5475    0.9906 O   0  0  0  0  0  0  0  0  0  0  0  0
    6.9516    0.3942   -0.2591 O   0  0  0  0  0  0  0  0  0  0  0  0
    5.8862   -0.1476   -2.1783 O   0  0  0  0  0  0  0  0  0  0  0  0
    0.2175   -0.9264    0.4316 H   0  0  0  0  0  0  0  0  0  0  0  0
    1.1996   -1.8416   -0.8405 H   0  0  0  0  0  0  0  0  0  0  0  0
    1.9331    0.8114    0.5426 H   0  0  0  0  0  0  0  0  0  0  0  0
    3.2472    0.7346   -1.7615 H   0  0  0  0  0  0  0  0  0  0  0  0
    3.4199   -0.9795   -1.5197 H   0  0  0  0  0  0  0  0  0  0  0  0
    7.7193    0.3020   -0.8551 H   0  0  0  0  0  0  0  0  0  0  0  0
  1  2  2  3
  1  9  1  0
  2 11  1  0
  3  4  1  0
  3  2  1  0
  4  6  2  0
  5  7  1  0
  5  4  1  0
  8  5  2  0
 10  1  1  0
 12  3  1  0
 13  3  1  0
 14  7  1  0
M  END
>  <HBA>  (334) 
3

>  <HBD>  (334) 
1

>  <TPSA>  (334) 
54.37

>  <cid>  (334) 
976

>  <dipole>  (334) 
1.18

>  <excitation_energy_1>  (334) 
3.249

>  <excitation_energy_2>  (334) 
4.142

>  <excitation_energy_3>  (334) 
5.071

>  <excitation_energy_4>  (334) 
6.235

>  <homo_energy>  (334) 
-6.988

>  <homo_lumo_gap>  (334) 
4.781

>  <logP>  (334) 
0.216

>  <lumo_energy>  (334) 
-2.207

>  <melting_point>  (334) 
52.05

>  <molecular_refractivity>  (334) 
27.65

>  <oscillator_strength_1>  (334) 
0.0004

>  <oscillator_strength_2>  (334) 
0.0091

>  <oscillator_strength_3>  (334) 
0.0

>  <oscillator_strength_4>  (334) 
0.0659

>  <open_babel_can_smiles>  (334) 
OC(=O)C(=O)CC=C

>  <mulliken_charges>  (334) 
14
1   -0.340492
2   -0.026701
3   -0.408386
4   0.395157
5   0.530222
6   -0.403182
7   -0.537565
8   -0.446681
9   0.147848
10   0.139492
11   0.149795
12   0.193085
13   0.189863
14   0.417545

>  <lowdin_charges>  (334) 
14
1   -0.329359
2   -0.14192
3   -0.299939
4   0.135
5   0.156787
6   -0.176175
7   -0.317456
8   -0.244177
9   0.163162
10   0.155902
11   0.163504
12   0.184645
13   0.181105
14   0.36892

$$$$
PCCDB-ID:  977
     RDKit          3D

  2  1  0  0  0  0  0  0  0  0999 V2000
    0.9587   -0.0997   -0.0063 O   0  0  0  0  0  0  0  0  0  0  0  0
    2.1747   -0.0997   -0.0063 O   0  0  0  0  0  0  0  0  0  0  0  0
  1  2  2  0
M  END
>  <HBA>  (335) 
2

>  <HBD>  (335) 
0

>  <TPSA>  (335) 
34.14

>  <cid>  (335) 
977

>  <dipole>  (335) 
0.0

>  <excitation_energy_1>  (335) 
6.361

>  <excitation_energy_2>  (335) 
7.418

>  <excitation_energy_3>  (335) 
8.037

>  <excitation_energy_4>  (335) 
8.212

>  <homo_energy>  (335) 
-6.808

>  <homo_lumo_gap>  (335) 
1.929

>  <logP>  (335) 
0.067

>  <lumo_energy>  (335) 
-4.879

>  <melting_point>  (335) 
0.0

>  <molecular_refractivity>  (335) 
6.73

>  <oscillator_strength_1>  (335) 
0.0

>  <oscillator_strength_2>  (335) 
0.0

>  <oscillator_strength_3>  (335) 
0.0

>  <oscillator_strength_4>  (335) 
0.0146

>  <open_babel_can_smiles>  (335) 
O=O

>  <mulliken_charges>  (335) 
2
1   1.1e-05
2   -1.1e-05

>  <lowdin_charges>  (335) 
2
1   2e-06
2   -2e-06

$$$$
PCCDB-ID:  978
     RDKit          3D

 17 17  0  0  0  0  0  0  0  0999 V2000
   -0.7758    1.1494    0.0418 C   0  0  0  0  0  0  0  0  0  0  0  0
    1.3814    0.0659   -0.0597 C   0  0  0  0  0  0  0  0  0  0  0  0
   -1.3994   -0.0896    0.0483 C   0  0  0  0  0  0  0  0  0  0  0  0
    0.7659   -1.1754   -0.0535 C   0  0  0  0  0  0  0  0  0  0  0  0
    0.6238    1.2467   -0.0128 C   0  0  0  0  0  0  0  0  0  0  0  0
   -0.6391   -1.2748    0.0007 C   0  0  0  0  0  0  0  0  0  0  0  0
    1.3351    2.5391   -0.0252 C   0  0  0  0  0  0  0  0  0  0  0  0
   -1.2578   -2.5143    0.0589 N   0  0  0  0  0  0  0  0  0  0  0  0
    0.4975    3.6141    0.0179 O   0  0  0  0  0  0  0  0  0  0  0  0
    2.5439    2.6790   -0.0693 O   0  0  0  0  0  0  0  0  0  0  0  0
   -1.3735    2.0537    0.0765 H   0  0  0  0  0  0  0  0  0  0  0  0
    2.4628    0.1456   -0.1034 H   0  0  0  0  0  0  0  0  0  0  0  0
   -2.4843   -0.1523    0.0937 H   0  0  0  0  0  0  0  0  0  0  0  0
    1.3655   -2.0821   -0.0875 H   0  0  0  0  0  0  0  0  0  0  0  0
   -2.2294   -2.5451   -0.2204 H   0  0  0  0  0  0  0  0  0  0  0  0
   -0.7242   -3.2994   -0.2902 H   0  0  0  0  0  0  0  0  0  0  0  0
    1.0829    4.3932    0.0062 H   0  0  0  0  0  0  0  0  0  0  0  0
  1  3  2  0
  1 11  1  0
  2  4  1  0
  2  5  2  0
  3 13  1  0
  4  6  2  0
  5  1  1  0
  6  3  1  0
  6  8  1  0
  7  5  1  0
  7  9  1  0
 10  7  2  0
 12  2  1  0
 14  4  1  0
 15  8  1  0
 16  8  1  0
 17  9  1  0
M  END
>  <HBA>  (336) 
3

>  <HBD>  (336) 
2

>  <TPSA>  (336) 
63.32

>  <cid>  (336) 
978

>  <dipole>  (336) 
3.92

>  <excitation_energy_1>  (336) 
4.669

>  <excitation_energy_2>  (336) 
4.721

>  <excitation_energy_3>  (336) 
5.004

>  <excitation_energy_4>  (336) 
5.028

>  <homo_energy>  (336) 
-5.815

>  <homo_lumo_gap>  (336) 
5.01

>  <logP>  (336) 
1.548

>  <lumo_energy>  (336) 
-0.805

>  <melting_point>  (336) 
144.8

>  <molecular_refractivity>  (336) 
37.81

>  <oscillator_strength_1>  (336) 
0.4078

>  <oscillator_strength_2>  (336) 
0.0087

>  <oscillator_strength_3>  (336) 
0.008

>  <oscillator_strength_4>  (336) 
0.0001

>  <open_babel_can_smiles>  (336) 
OC(=O)c1ccc(cc1)N

>  <mulliken_charges>  (336) 
17
1   -0.169016
2   -0.164469
3   -0.180095
4   -0.181194
5   0.068132
6   0.335725
7   0.527069
8   -0.790151
9   -0.590568
10   -0.487964
11   0.157944
12   0.162
13   0.123378
14   0.124939
15   0.328293
16   0.328665
17   0.407312

>  <lowdin_charges>  (336) 
17
1   -0.126255
2   -0.114266
3   -0.200305
4   -0.201969
5   -0.076485
6   0.077323
7   0.189521
8   -0.472682
9   -0.370372
10   -0.286177
11   0.173642
12   0.174826
13   0.15361
14   0.156736
15   0.279831
16   0.282265
17   0.360758

$$$$
PCCDB-ID:  989
     RDKit          3D

 19 19  0  0  1  0  0  0  0  0999 V2000
    1.0871    0.1319   -0.4045 C   0  0  0  0  0  0  0  0  0  0  0  0
    2.6104    0.2326    1.6103 C   0  0  0  0  0  0  0  0  0  0  0  0
    3.3996    1.1471   -0.6414 C   0  0  0  0  0  0  0  0  0  0  0  0
    3.2547   -1.1828   -0.4376 C   0  0  1  0  0  0  0  0  0  0  0  0
    3.6337   -0.7745   -1.8575 C   0  0  0  0  0  0  0  0  0  0  0  0
    2.5435    0.0835    0.0877 C   0  0  0  0  0  0  0  0  0  0  0  0
    2.4960   -2.3635   -0.4205 O   0  0  0  0  0  0  0  0  0  0  0  0
    3.7777   -1.5228   -2.7936 O   0  0  0  0  0  0  0  0  0  0  0  0
    3.7595    0.5690   -1.9261 O   0  0  0  0  0  0  0  0  0  0  0  0
    0.5972    1.0462   -0.0505 H   0  0  0  0  0  0  0  0  0  0  0  0
    0.5301   -0.7312   -0.0317 H   0  0  0  0  0  0  0  0  0  0  0  0
    1.0269    0.1194   -1.4989 H   0  0  0  0  0  0  0  0  0  0  0  0
    2.1831    1.1899    1.9324 H   0  0  0  0  0  0  0  0  0  0  0  0
    3.6439    0.1826    1.9738 H   0  0  0  0  0  0  0  0  0  0  0  0
    2.0425   -0.5672    2.0973 H   0  0  0  0  0  0  0  0  0  0  0  0
    4.3249    1.3765   -0.0993 H   0  0  0  0  0  0  0  0  0  0  0  0
    2.8639    2.0769   -0.8456 H   0  0  0  0  0  0  0  0  0  0  0  0
    4.1977   -1.3170    0.1255 H   0  0  0  0  0  0  0  0  0  0  0  0
    2.7010   -2.8242   -1.2555 H   0  0  0  0  0  0  0  0  0  0  0  0
  1 10  1  0
  1 11  1  0
  1  6  1  0
  2 13  1  0
  2 14  1  0
  2 15  1  0
  3 16  1  0
  3  6  1  0
  4  7  1  0
  4  6  1  0
  4 18  1  1
  5  4  1  0
  6  2  1  0
  8  5  2  0
  9  5  1  0
  9  3  1  0
 12  1  1  0
 17  3  1  0
 19  7  1  0
M  END
>  <HBA>  (337) 
3

>  <HBD>  (337) 
1

>  <TPSA>  (337) 
46.53

>  <cid>  (337) 
989

>  <dipole>  (337) 
3.4

>  <excitation_energy_1>  (337) 
5.7

>  <excitation_energy_2>  (337) 
6.48

>  <excitation_energy_3>  (337) 
7.039

>  <excitation_energy_4>  (337) 
7.305

>  <homo_energy>  (337) 
-7.491

>  <homo_lumo_gap>  (337) 
7.461

>  <logP>  (337) 
-0.07

>  <lumo_energy>  (337) 
-0.03

>  <melting_point>  (337) 
45.76

>  <molecular_refractivity>  (337) 
31.03

>  <oscillator_strength_1>  (337) 
0.0005

>  <oscillator_strength_2>  (337) 
0.0066

>  <oscillator_strength_3>  (337) 
0.0069

>  <oscillator_strength_4>  (337) 
0.0098

>  <open_babel_can_smiles>  (337) 
O[C@H]1C(=O)OCC1(C)C

>  <mulliken_charges>  (337) 
19
1   -0.460045
2   -0.465746
3   -0.04797
4   0.071228
5   0.595119
6   0.030597
7   -0.631583
8   -0.473511
9   -0.446653
10   0.143732
11   0.178145
12   0.157614
13   0.148551
14   0.144676
15   0.171118
16   0.156422
17   0.168218
18   0.149162
19   0.410927

>  <lowdin_charges>  (337) 
19
1   -0.444903
2   -0.442556
3   -0.128091
4   -0.040774
5   0.173786
6   -0.011994
7   -0.443729
8   -0.242793
9   -0.178639
10   0.151551
11   0.168915
12   0.154784
13   0.152902
14   0.149022
15   0.166013
16   0.150185
17   0.161994
18   0.148381
19   0.355947

$$$$
PCCDB-ID:  993
     RDKit          3D

 20 20  0  0  1  0  0  0  0  0999 V2000
    1.4417   -0.0291    0.1742 C   0  0  0  0  0  0  0  0  0  0  0  0
    0.4204   -0.0571    1.3098 C   0  0  2  0  0  0  0  0  0  0  0  0
    0.7064    0.9189    2.4483 C   0  0  2  0  0  0  0  0  0  0  0  0
    1.4719    0.0452    3.4691 C   0  0  2  0  0  0  0  0  0  0  0  0
    0.7692   -1.3177    3.2762 C   0  0  1  0  0  0  0  0  0  0  0  0
    1.2184   -1.0882   -0.7335 O   0  0  0  0  0  0  0  0  0  0  0  0
   -0.5319    1.3232    3.0346 O   0  0  0  0  0  0  0  0  0  0  0  0
    1.3518    0.5423    4.7879 O   0  0  0  0  0  0  0  0  0  0  0  0
   -0.3793   -1.3891    4.0995 O   0  0  0  0  0  0  0  0  0  0  0  0
    0.4711   -1.3885    1.9013 O   0  0  0  0  0  0  0  0  0  0  0  0
    2.4627   -0.0650    0.5936 H   0  0  0  0  0  0  0  0  0  0  0  0
    1.3460    0.9047   -0.3905 H   0  0  0  0  0  0  0  0  0  0  0  0
   -0.5859    0.0944    0.9055 H   0  0  0  0  0  0  0  0  0  0  0  0
    1.2814    1.7945    2.1175 H   0  0  0  0  0  0  0  0  0  0  0  0
    2.5324   -0.0250    3.2022 H   0  0  0  0  0  0  0  0  0  0  0  0
    1.3775   -2.1839    3.5441 H   0  0  0  0  0  0  0  0  0  0  0  0
    1.1431   -1.8908   -0.1897 H   0  0  0  0  0  0  0  0  0  0  0  0
   -0.2814    1.6762    3.9097 H   0  0  0  0  0  0  0  0  0  0  0  0
    0.7124   -0.0549    5.2236 H   0  0  0  0  0  0  0  0  0  0  0  0
   -0.9655   -0.6654    3.7995 H   0  0  0  0  0  0  0  0  0  0  0  0
  1 11  1  0
  1  2  1  0
  2 13  1  6
  2 10  1  0
  2  3  1  0
  3 14  1  6
  3  7  1  0
  3  4  1  0
  4 15  1  6
  4  8  1  0
  5  4  1  0
  5 16  1  1
  5  9  1  0
  6 17  1  0
  6  1  1  0
  7 18  1  0
  8 19  1  0
 10  5  1  0
 12  1  1  0
 20  9  1  0
M  END
>  <HBA>  (338) 
5

>  <HBD>  (338) 
4

>  <TPSA>  (338) 
90.15

>  <cid>  (338) 
993

>  <dipole>  (338) 
1.91

>  <excitation_energy_1>  (338) 
6.701

>  <excitation_energy_2>  (338) 
6.72

>  <excitation_energy_3>  (338) 
6.822

>  <excitation_energy_4>  (338) 
7.133

>  <homo_energy>  (338) 
-7.271

>  <homo_lumo_gap>  (338) 
8.683

>  <logP>  (338) 
-2.582

>  <lumo_energy>  (338) 
1.412

>  <melting_point>  (338) 
62.2

>  <molecular_refractivity>  (338) 
29.77

>  <oscillator_strength_1>  (338) 
0.0016

>  <oscillator_strength_2>  (338) 
0.0032

>  <oscillator_strength_3>  (338) 
0.0041

>  <oscillator_strength_4>  (338) 
0.0201

>  <open_babel_can_smiles>  (338) 
OC[C@H]1O[C@@H]([C@@H]([C@@H]1O)O)O

>  <mulliken_charges>  (338) 
20
1   -0.029884
2   0.111725
3   0.057352
4   0.084647
5   0.30896
6   -0.618853
7   -0.643808
8   -0.646663
9   -0.624378
10   -0.514345
11   0.117856
12   0.150575
13   0.169845
14   0.145196
15   0.147712
16   0.159099
17   0.405706
18   0.405219
19   0.409069
20   0.404969

>  <lowdin_charges>  (338) 
20
1   -0.143868
2   -0.022997
3   -0.036747
4   -0.053764
5   0.072758
6   -0.459477
7   -0.458403
8   -0.456364
9   -0.449588
10   -0.272005
11   0.124477
12   0.152755
13   0.160542
14   0.14691
15   0.150818
16   0.156137
17   0.348059
18   0.346957
19   0.349021
20   0.34478

$$$$
PCCDB-ID:  994
     RDKit          3D

 23 23  0  0  1  0  0  0  0  0999 V2000
   -2.7524   -1.2961    0.2173 C   0  0  0  0  0  0  0  0  0  0  0  0
   -2.2879   -1.0980   -1.0829 C   0  0  0  0  0  0  0  0  0  0  0  0
   -1.8368   -1.4727    1.2580 C   0  0  0  0  0  0  0  0  0  0  0  0
   -0.9150   -1.0785   -1.3420 C   0  0  0  0  0  0  0  0  0  0  0  0
   -0.4673   -1.4512    0.9970 C   0  0  0  0  0  0  0  0  0  0  0  0
    1.5095   -1.2304   -0.5742 C   0  0  0  0  0  0  0  0  0  0  0  0
    0.0169   -1.2548   -0.3077 C   0  0  0  0  0  0  0  0  0  0  0  0
    2.2350   -2.5990   -0.4413 C   0  0  1  0  0  0  0  0  0  0  0  0
    1.9029   -3.5552   -1.6091 C   0  0  0  0  0  0  0  0  0  0  0  0
    3.6675   -2.3710   -0.2963 N   0  0  0  0  0  0  0  0  0  0  0  0
    2.7455   -4.0015   -2.3503 O   0  0  0  0  0  0  0  0  0  0  0  0
    0.6022   -3.9007   -1.7663 O   0  0  0  0  0  0  0  0  0  0  0  0
   -3.8195   -1.3113    0.4204 H   0  0  0  0  0  0  0  0  0  0  0  0
   -2.9913   -0.9570   -1.8989 H   0  0  0  0  0  0  0  0  0  0  0  0
   -2.1897   -1.6226    2.2747 H   0  0  0  0  0  0  0  0  0  0  0  0
   -0.5605   -0.9222   -2.3580 H   0  0  0  0  0  0  0  0  0  0  0  0
    0.2387   -1.5761    1.8153 H   0  0  0  0  0  0  0  0  0  0  0  0
    2.0034   -0.5678    0.1449 H   0  0  0  0  0  0  0  0  0  0  0  0
    1.7049   -0.8167   -1.5718 H   0  0  0  0  0  0  0  0  0  0  0  0
    1.8789   -3.0785    0.4818 H   0  0  0  0  0  0  0  0  0  0  0  0
    4.0192   -1.9888   -1.1755 H   0  0  0  0  0  0  0  0  0  0  0  0
    4.1315   -3.2760   -0.2204 H   0  0  0  0  0  0  0  0  0  0  0  0
    0.0400   -3.4031   -1.1446 H   0  0  0  0  0  0  0  0  0  0  0  0
  1 13  1  0
  1  3  2  0
  2  1  1  0
  3 15  1  0
  4  2  2  0
  4  7  1  0
  5  3  1  0
  5 17  1  0
  6  8  1  0
  6  7  1  0
  6 18  1  0
  7  5  2  0
  8 10  1  0
  8 20  1  1
  9  8  1  0
 10 22  1  0
 11  9  2  0
 12  9  1  0
 12 23  1  0
 14  2  1  0
 16  4  1  0
 19  6  1  0
 21 10  1  0
M  END
>  <HBA>  (339) 
3

>  <HBD>  (339) 
2

>  <TPSA>  (339) 
63.32

>  <cid>  (339) 
994

>  <dipole>  (339) 
3.75

>  <excitation_energy_1>  (339) 
5.276

>  <excitation_energy_2>  (339) 
5.419

>  <excitation_energy_3>  (339) 
5.643

>  <excitation_energy_4>  (339) 
5.746

>  <homo_energy>  (339) 
-6.743

>  <homo_lumo_gap>  (339) 
6.128

>  <logP>  (339) 
1.341

>  <lumo_energy>  (339) 
-0.615

>  <melting_point>  (339) 
137.23

>  <molecular_refractivity>  (339) 
45.5

>  <oscillator_strength_1>  (339) 
0.0009

>  <oscillator_strength_2>  (339) 
0.013

>  <oscillator_strength_3>  (339) 
0.0017

>  <oscillator_strength_4>  (339) 
0.0145

>  <open_babel_can_smiles>  (339) 
N[C@H](C(=O)O)Cc1ccccc1

>  <mulliken_charges>  (339) 
23
1   -0.129275
2   -0.122531
3   -0.126785
4   -0.187998
5   -0.176767
6   -0.342368
7   0.095775
8   -0.10823
9   0.570663
10   -0.691976
11   -0.449486
12   -0.571109
13   0.139175
14   0.14165
15   0.139518
16   0.143129
17   0.139298
18   0.184616
19   0.154263
20   0.160842
21   0.3055
22   0.311147
23   0.420946

>  <lowdin_charges>  (339) 
23
1   -0.151596
2   -0.152876
3   -0.150003
4   -0.169829
5   -0.169822
6   -0.278069
7   -0.028311
8   -0.114183
9   0.174166
10   -0.53074
11   -0.251137
12   -0.359347
13   0.160784
14   0.164574
15   0.161567
16   0.162486
17   0.161913
18   0.175051
19   0.154419
20   0.156444
21   0.260199
22   0.263776
23   0.360536

$$$$
PCCDB-ID:  997
     RDKit          3D

 20 20  0  0  0  0  0  0  0  0999 V2000
   -1.8024    0.0726   -0.1677 C   0  0  0  0  0  0  0  0  0  0  0  0
   -1.0232    1.1655   -0.5542 C   0  0  0  0  0  0  0  0  0  0  0  0
   -1.1850   -1.0716    0.3395 C   0  0  0  0  0  0  0  0  0  0  0  0
    0.3651    1.1116   -0.4364 C   0  0  0  0  0  0  0  0  0  0  0  0
    0.2047   -1.1243    0.4589 C   0  0  0  0  0  0  0  0  0  0  0  0
    2.5109   -0.0756    0.1901 C   0  0  0  0  0  0  0  0  0  0  0  0
    0.9935   -0.0373    0.0646 C   0  0  0  0  0  0  0  0  0  0  0  0
    2.9710    0.8789    1.2819 C   0  0  0  0  0  0  0  0  0  0  0  0
    2.7355    0.4747    2.7603 C   0  0  0  0  0  0  0  0  0  0  0  0
    3.4691    1.9592    1.0640 O   0  0  0  0  0  0  0  0  0  0  0  0
    2.5451   -0.8601    2.8962 O   0  0  0  0  0  0  0  0  0  0  0  0
    2.7443    1.2516    3.6804 O   0  0  0  0  0  0  0  0  0  0  0  0
   -2.8842    0.1135   -0.2612 H   0  0  0  0  0  0  0  0  0  0  0  0
   -1.4962    2.0608   -0.9485 H   0  0  0  0  0  0  0  0  0  0  0  0
   -1.7845   -1.9261    0.6421 H   0  0  0  0  0  0  0  0  0  0  0  0
    0.9696    1.9653   -0.7333 H   0  0  0  0  0  0  0  0  0  0  0  0
    0.6822   -2.0143    0.8596 H   0  0  0  0  0  0  0  0  0  0  0  0
    2.9875    0.2520   -0.7388 H   0  0  0  0  0  0  0  0  0  0  0  0
    2.8435   -1.0918    0.4203 H   0  0  0  0  0  0  0  0  0  0  0  0
    2.4147   -1.0251    3.8501 H   0  0  0  0  0  0  0  0  0  0  0  0
  1  3  2  0
  2  4  2  0
  2  1  1  0
  3  5  1  0
  3 15  1  0
  4  7  1  0
  5 17  1  0
  6 19  1  0
  6  8  1  0
  7  6  1  0
  7  5  2  0
  8  9  1  0
  9 11  1  0
  9 12  2  0
 10  8  2  0
 11 20  1  0
 13  1  1  0
 14  2  1  0
 16  4  1  0
 18  6  1  0
M  END
>  <HBA>  (340) 
3

>  <HBD>  (340) 
1

>  <TPSA>  (340) 
54.37

>  <cid>  (340) 
997

>  <dipole>  (340) 
3.78

>  <excitation_energy_1>  (340) 
3.311

>  <excitation_energy_2>  (340) 
4.038

>  <excitation_energy_3>  (340) 
4.101

>  <excitation_energy_4>  (340) 
4.631

>  <homo_energy>  (340) 
-6.727

>  <homo_lumo_gap>  (340) 
4.623

>  <logP>  (340) 
0.883

>  <lumo_energy>  (340) 
-2.103

>  <melting_point>  (340) 
104.37

>  <molecular_refractivity>  (340) 
42.99

>  <oscillator_strength_1>  (340) 
0.0105

>  <oscillator_strength_2>  (340) 
0.0045

>  <oscillator_strength_3>  (340) 
0.0268

>  <oscillator_strength_4>  (340) 
0.0002

>  <open_babel_can_smiles>  (340) 
O=C(C(=O)O)Cc1ccccc1

>  <mulliken_charges>  (340) 
20
1   -0.127341
2   -0.126637
3   -0.128416
4   -0.171467
5   -0.174519
6   -0.42271
7   0.13781
8   0.410517
9   0.524873
10   -0.399618
11   -0.566524
12   -0.419546
13   0.134457
14   0.137158
15   0.133548
16   0.147077
17   0.134008
18   0.181767
19   0.178713
20   0.416848

>  <lowdin_charges>  (340) 
20
1   -0.151171
2   -0.150805
3   -0.154687
4   -0.160598
5   -0.163219
6   -0.299902
7   -0.007963
8   0.138717
9   0.168403
10   -0.174264
11   -0.351772
12   -0.214464
13   0.158169
14   0.161944
15   0.160483
16   0.166216
17   0.16044
18   0.175565
19   0.174117
20   0.364793

$$$$
PCCDB-ID:  998
     RDKit          3D

 17 17  0  0  0  0  0  0  0  0999 V2000
   -1.6919   -0.0224    0.0240 C   0  0  0  0  0  0  0  0  0  0  0  0
   -1.0442    1.2129   -0.0107 C   0  0  0  0  0  0  0  0  0  0  0  0
   -0.9381   -1.1983    0.0197 C   0  0  0  0  0  0  0  0  0  0  0  0
    0.3501    1.2714   -0.0513 C   0  0  0  0  0  0  0  0  0  0  0  0
    0.4545   -1.1373   -0.0187 C   0  0  0  0  0  0  0  0  0  0  0  0
    2.6318    0.1482   -0.0662 C   0  0  0  0  0  0  0  0  0  0  0  0
    3.1866   -0.1275    1.3242 C   0  0  0  0  0  0  0  0  0  0  0  0
    1.1152    0.0990   -0.0603 C   0  0  0  0  0  0  0  0  0  0  0  0
    3.9467   -1.0302    1.5914 O   0  0  0  0  0  0  0  0  0  0  0  0
   -2.7771   -0.0696    0.0524 H   0  0  0  0  0  0  0  0  0  0  0  0
   -1.6228    2.1328   -0.0095 H   0  0  0  0  0  0  0  0  0  0  0  0
   -1.4349   -2.1645    0.0456 H   0  0  0  0  0  0  0  0  0  0  0  0
    0.8486    2.2377   -0.0866 H   0  0  0  0  0  0  0  0  0  0  0  0
    1.0378   -2.0552   -0.0189 H   0  0  0  0  0  0  0  0  0  0  0  0
    3.0629   -0.5872   -0.7527 H   0  0  0  0  0  0  0  0  0  0  0  0
    2.9709    1.1476   -0.3721 H   0  0  0  0  0  0  0  0  0  0  0  0
    2.8222    0.5689    2.1125 H   0  0  0  0  0  0  0  0  0  0  0  0
  1 10  1  0
  2 11  1  0
  2  1  2  0
  3  1  1  0
  3 12  1  0
  4  2  1  0
  5  3  2  0
  6  8  1  0
  6  7  1  0
  7  9  2  0
  7 17  1  0
  8  4  2  0
  8  5  1  0
 13  4  1  0
 14  5  1  0
 15  6  1  0
 16  6  1  0
M  END
>  <HBA>  (341) 
1

>  <HBD>  (341) 
0

>  <TPSA>  (341) 
17.07

>  <cid>  (341) 
998

>  <dipole>  (341) 
2.71

>  <excitation_energy_1>  (341) 
4.165

>  <excitation_energy_2>  (341) 
5.1

>  <excitation_energy_3>  (341) 
5.298

>  <excitation_energy_4>  (341) 
5.58

>  <homo_energy>  (341) 
-6.588

>  <homo_lumo_gap>  (341) 
5.747

>  <logP>  (341) 
1.428

>  <lumo_energy>  (341) 
-0.841

>  <melting_point>  (341) 
38.21

>  <molecular_refractivity>  (341) 
36.41

>  <oscillator_strength_1>  (341) 
0.0085

>  <oscillator_strength_2>  (341) 
0.0085

>  <oscillator_strength_3>  (341) 
0.0361

>  <oscillator_strength_4>  (341) 
0.042

>  <open_babel_can_smiles>  (341) 
O=CCc1ccccc1

>  <mulliken_charges>  (341) 
17
1   -0.128633
2   -0.125833
3   -0.12676
4   -0.181482
5   -0.170711
6   -0.418164
7   0.265447
8   0.14547
9   -0.380261
10   0.13364
11   0.133763
12   0.135497
13   0.126522
14   0.14053
15   0.175291
16   0.16554
17   0.110144

>  <lowdin_charges>  (341) 
17
1   -0.152601
2   -0.152859
3   -0.150697
4   -0.168033
5   -0.161187
6   -0.306633
7   0.055232
8   -0.005593
9   -0.213449
10   0.15771
11   0.160109
12   0.160451
13   0.155492
14   0.162758
15   0.171257
16   0.167731
17   0.120312

$$$$
PCCDB-ID:  999
     RDKit          3D

 18 18  0  0  0  0  0  0  0  0999 V2000
   -1.9034    0.1208    0.0525 C   0  0  0  0  0  0  0  0  0  0  0  0
   -1.1218    1.1970   -0.3721 C   0  0  0  0  0  0  0  0  0  0  0  0
   -1.2887   -1.0768    0.4225 C   0  0  0  0  0  0  0  0  0  0  0  0
    0.2671    1.0742   -0.4284 C   0  0  0  0  0  0  0  0  0  0  0  0
    0.1004   -1.1974    0.3656 C   0  0  0  0  0  0  0  0  0  0  0  0
    2.4059   -0.2465   -0.0948 C   0  0  0  0  0  0  0  0  0  0  0  0
    0.8989   -0.1252   -0.0628 C   0  0  0  0  0  0  0  0  0  0  0  0
    3.1549    0.1631    1.1889 C   0  0  0  0  0  0  0  0  0  0  0  0
    4.3558    0.1081    1.2723 O   0  0  0  0  0  0  0  0  0  0  0  0
    2.4028    0.5909    2.2288 O   0  0  0  0  0  0  0  0  0  0  0  0
   -2.9850    0.2144    0.0933 H   0  0  0  0  0  0  0  0  0  0  0  0
   -1.5927    2.1314   -0.6649 H   0  0  0  0  0  0  0  0  0  0  0  0
   -1.8899   -1.9201    0.7510 H   0  0  0  0  0  0  0  0  0  0  0  0
    0.8701    1.9144   -0.7657 H   0  0  0  0  0  0  0  0  0  0  0  0
    0.5732   -2.1349    0.6498 H   0  0  0  0  0  0  0  0  0  0  0  0
    2.8322    0.3647   -0.8981 H   0  0  0  0  0  0  0  0  0  0  0  0
    2.7121   -1.2775   -0.3042 H   0  0  0  0  0  0  0  0  0  0  0  0
    1.4614    0.5666    1.9778 H   0  0  0  0  0  0  0  0  0  0  0  0
  1 11  1  0
  1  3  2  0
  2  1  1  0
  3 13  1  0
  4  2  2  0
  4  7  1  0
  5  3  1  0
  5 15  1  0
  6  7  1  0
  6  8  1  0
  7  5  2  0
  8  9  2  0
  8 10  1  0
 12  2  1  0
 14  4  1  0
 16  6  1  0
 17  6  1  0
 18 10  1  0
M  END
>  <HBA>  (342) 
2

>  <HBD>  (342) 
1

>  <TPSA>  (342) 
37.3

>  <cid>  (342) 
999

>  <dipole>  (342) 
4.96

>  <excitation_energy_1>  (342) 
5.217

>  <excitation_energy_2>  (342) 
5.612

>  <excitation_energy_3>  (342) 
5.646

>  <excitation_energy_4>  (342) 
6.142

>  <homo_energy>  (342) 
-6.874

>  <homo_lumo_gap>  (342) 
6.191

>  <logP>  (342) 
1.314

>  <lumo_energy>  (342) 
-0.683

>  <melting_point>  (342) 
83.64

>  <molecular_refractivity>  (342) 
37.99

>  <oscillator_strength_1>  (342) 
0.0003

>  <oscillator_strength_2>  (342) 
0.0021

>  <oscillator_strength_3>  (342) 
0.1071

>  <oscillator_strength_4>  (342) 
0.0353

>  <open_babel_can_smiles>  (342) 
OC(=O)Cc1ccccc1

>  <mulliken_charges>  (342) 
18
1   -0.127929
2   -0.125129
3   -0.12512
4   -0.170485
5   -0.17013
6   -0.452712
7   0.079133
8   0.585502
9   -0.441328
10   -0.562582
11   0.140596
12   0.141728
13   0.141677
14   0.140883
15   0.140667
16   0.193845
17   0.193665
18   0.41772

>  <lowdin_charges>  (342) 
18
1   -0.149173
2   -0.15033
3   -0.15127
4   -0.167953
5   -0.166643
6   -0.315646
7   -0.032736
8   0.186678
9   -0.244046
10   -0.349053
11   0.16114
12   0.163749
13   0.164495
14   0.162959
15   0.162104
16   0.183877
17   0.181833
18   0.360016

$$$$
PCCDB-ID:  1000
     RDKit          3D

 21 21  0  0  1  0  0  0  0  0999 V2000
   -2.1886    0.5709    0.0472 C   0  0  0  0  0  0  0  0  0  0  0  0
   -1.2495    1.5273    0.4333 C   0  0  0  0  0  0  0  0  0  0  0  0
   -1.7549   -0.6913   -0.3668 C   0  0  0  0  0  0  0  0  0  0  0  0
    0.1150    1.2288    0.4010 C   0  0  0  0  0  0  0  0  0  0  0  0
   -0.3923   -0.9856   -0.3999 C   0  0  0  0  0  0  0  0  0  0  0  0
    2.5330   -0.5693   -1.5355 C   0  0  0  0  0  0  0  0  0  0  0  0
    0.5598   -0.0274   -0.0218 C   0  0  0  0  0  0  0  0  0  0  0  0
    2.0527   -0.3585   -0.0807 C   0  0  2  0  0  0  0  0  0  0  0  0
    2.5974    0.7462   -2.1867 N   0  0  0  0  0  0  0  0  0  0  0  0
    2.8611    0.6384    0.5151 O   0  0  0  0  0  0  0  0  0  0  0  0
   -3.2502    0.8022    0.0742 H   0  0  0  0  0  0  0  0  0  0  0  0
   -1.5777    2.5089    0.7664 H   0  0  0  0  0  0  0  0  0  0  0  0
   -2.4787   -1.4481   -0.6586 H   0  0  0  0  0  0  0  0  0  0  0  0
    0.8496    1.9586    0.7246 H   0  0  0  0  0  0  0  0  0  0  0  0
   -0.0665   -1.9760   -0.7137 H   0  0  0  0  0  0  0  0  0  0  0  0
    1.8930   -1.3006   -2.0518 H   0  0  0  0  0  0  0  0  0  0  0  0
    3.5505   -0.9739   -1.5046 H   0  0  0  0  0  0  0  0  0  0  0  0
    2.2237   -1.2890    0.4768 H   0  0  0  0  0  0  0  0  0  0  0  0
    1.6634    1.0573   -2.4480 H   0  0  0  0  0  0  0  0  0  0  0  0
    3.1530    0.7062   -3.0369 H   0  0  0  0  0  0  0  0  0  0  0  0
    3.0638    1.2462   -0.2269 H   0  0  0  0  0  0  0  0  0  0  0  0
  1 11  1  0
  1  2  2  0
  2 12  1  0
  3  1  1  0
  4  2  1  0
  4 14  1  0
  5  3  2  0
  5  7  1  0
  6 17  1  0
  6  8  1  0
  7  4  2  0
  8  7  1  0
  8 18  1  1
  8 10  1  0
  9  6  1  0
 13  3  1  0
 15  5  1  0
 16  6  1  0
 19  9  1  0
 20  9  1  0
 21 10  1  0
M  END
>  <HBA>  (343) 
2

>  <HBD>  (343) 
2

>  <TPSA>  (343) 
46.25

>  <cid>  (343) 
1000

>  <dipole>  (343) 
3.11

>  <excitation_energy_1>  (343) 
5.305

>  <excitation_energy_2>  (343) 
5.829

>  <excitation_energy_3>  (343) 
5.918

>  <excitation_energy_4>  (343) 
5.929

>  <homo_energy>  (343) 
-6.455

>  <homo_lumo_gap>  (343) 
6.49

>  <logP>  (343) 
1.379

>  <lumo_energy>  (343) 
0.035

>  <melting_point>  (343) 
79.35

>  <molecular_refractivity>  (343) 
40.08

>  <oscillator_strength_1>  (343) 
0.0019

>  <oscillator_strength_2>  (343) 
0.0427

>  <oscillator_strength_3>  (343) 
0.0003

>  <oscillator_strength_4>  (343) 
0.007

>  <open_babel_can_smiles>  (343) 
NC[C@H](c1ccccc1)O

>  <mulliken_charges>  (343) 
21
1   -0.129902
2   -0.130205
3   -0.13238
4   -0.181579
5   -0.183354
6   -0.168195
7   0.12372
8   0.085532
9   -0.750044
10   -0.643821
11   0.126318
12   0.12784
13   0.126422
14   0.140876
15   0.119289
16   0.131929
17   0.153128
18   0.142318
19   0.31704
20   0.313569
21   0.411498

>  <lowdin_charges>  (343) 
21
1   -0.160665
2   -0.154952
3   -0.158752
4   -0.167255
5   -0.171875
6   -0.223548
7   -0.026832
8   -0.007663
9   -0.555379
10   -0.463568
11   0.154507
12   0.155949
13   0.156945
14   0.166933
15   0.150792
16   0.133558
17   0.149769
18   0.148717
19   0.264542
20   0.265459
21   0.343316

$$$$
PCCDB-ID:  1001
     RDKit          3D

 20 20  0  0  0  0  0  0  0  0999 V2000
   -1.9999    0.0713    0.0976 C   0  0  0  0  0  0  0  0  0  0  0  0
   -1.2503    1.2482    0.1442 C   0  0  0  0  0  0  0  0  0  0  0  0
   -1.3457   -1.1568   -0.0128 C   0  0  0  0  0  0  0  0  0  0  0  0
    0.1427    1.1941    0.0831 C   0  0  0  0  0  0  0  0  0  0  0  0
    0.0477   -1.2045   -0.0744 C   0  0  0  0  0  0  0  0  0  0  0  0
    2.3256   -0.0856   -0.0499 C   0  0  0  0  0  0  0  0  0  0  0  0
    2.9372   -0.1962    1.3571 C   0  0  0  0  0  0  0  0  0  0  0  0
    0.8137   -0.0317   -0.0268 C   0  0  0  0  0  0  0  0  0  0  0  0
    4.4018   -0.1795    1.2783 N   0  0  0  0  0  0  0  0  0  0  0  0
   -3.0850    0.1115    0.1423 H   0  0  0  0  0  0  0  0  0  0  0  0
   -1.7503    2.2101    0.2244 H   0  0  0  0  0  0  0  0  0  0  0  0
   -1.9202   -2.0787   -0.0554 H   0  0  0  0  0  0  0  0  0  0  0  0
    0.7203    2.1158    0.1145 H   0  0  0  0  0  0  0  0  0  0  0  0
    0.5499   -2.1655   -0.1676 H   0  0  0  0  0  0  0  0  0  0  0  0
    2.6578   -0.9456   -0.6485 H   0  0  0  0  0  0  0  0  0  0  0  0
    2.7379    0.8096   -0.5292 H   0  0  0  0  0  0  0  0  0  0  0  0
    2.5179   -1.0872    1.8591 H   0  0  0  0  0  0  0  0  0  0  0  0
    2.6227    0.6712    1.9505 H   0  0  0  0  0  0  0  0  0  0  0  0
    4.7282   -1.0332    0.8256 H   0  0  0  0  0  0  0  0  0  0  0  0
    4.7969   -0.1938    2.2173 H   0  0  0  0  0  0  0  0  0  0  0  0
  1 10  1  0
  1  2  2  0
  2 11  1  0
  3  1  1  0
  4 13  1  0
  4  2  1  0
  5  8  1  0
  5  3  2  0
  6  8  1  0
  6  7  1  0
  7 17  1  0
  7 18  1  0
  8  4  2  0
  9  7  1  0
  9 20  1  0
 12  3  1  0
 14  5  1  0
 15  6  1  0
 16  6  1  0
 19  9  1  0
M  END
>  <HBA>  (344) 
1

>  <HBD>  (344) 
1

>  <TPSA>  (344) 
26.02

>  <cid>  (344) 
1001

>  <dipole>  (344) 
1.36

>  <excitation_energy_1>  (344) 
5.301

>  <excitation_energy_2>  (344) 
5.618

>  <excitation_energy_3>  (344) 
5.731

>  <excitation_energy_4>  (344) 
5.816

>  <homo_energy>  (344) 
-6.291

>  <homo_lumo_gap>  (344) 
6.422

>  <logP>  (344) 
1.888

>  <lumo_energy>  (344) 
0.131

>  <melting_point>  (344) 
60.74

>  <molecular_refractivity>  (344) 
38.92

>  <oscillator_strength_1>  (344) 
0.0009

>  <oscillator_strength_2>  (344) 
0.0104

>  <oscillator_strength_3>  (344) 
0.0137

>  <oscillator_strength_4>  (344) 
0.0086

>  <open_babel_can_smiles>  (344) 
NCCc1ccccc1

>  <mulliken_charges>  (344) 
20
1   -0.131688
2   -0.127951
3   -0.127866
4   -0.181539
5   -0.180462
6   -0.340764
7   -0.129785
8   0.168382
9   -0.714598
10   0.126623
11   0.127393
12   0.12667
13   0.125136
14   0.119089
15   0.133517
16   0.157268
17   0.117968
18   0.144372
19   0.291585
20   0.296648

>  <lowdin_charges>  (344) 
20
1   -0.15916
2   -0.155945
3   -0.156915
4   -0.167469
5   -0.168846
6   -0.278294
7   -0.203481
8   0.000276
9   -0.558742
10   0.154241
11   0.15645
12   0.156486
13   0.155575
14   0.15247
15   0.144868
16   0.157781
17   0.120281
18   0.145043
19   0.250801
20   0.254581

$$$$
PCCDB-ID:  1004
     RDKit          3D

  8  7  0  0  0  0  0  0  0  0999 V2000
    1.2054    0.2451   -0.0071 O   0  0  0  0  0  0  0  0  0  0  0  0
    2.7876   -1.7860    0.2836 O   0  0  0  0  0  0  0  0  0  0  0  0
    2.6638   -0.5012   -1.8504 O   0  0  0  0  0  0  0  0  0  0  0  0
    3.7398    0.6341    0.3136 O   0  0  0  0  0  0  0  0  0  0  0  0
    2.7115   -0.2535   -0.2547 P   0  0  0  0  0  0  0  0  0  0  0  0
    0.5491   -0.2913   -0.4825 H   0  0  0  0  0  0  0  0  0  0  0  0
    3.2269   -1.8037    1.1506 H   0  0  0  0  0  0  0  0  0  0  0  0
    3.4948   -0.8801   -2.1810 H   0  0  0  0  0  0  0  0  0  0  0  0
  2  7  1  0
  3  5  1  0
  5  1  1  0
  5  2  1  0
  5  4  2  0
  6  1  1  0
  8  3  1  0
M  END
>  <HBA>  (345) 
4

>  <HBD>  (345) 
3

>  <TPSA>  (345) 
87.57

>  <cid>  (345) 
1004

>  <dipole>  (345) 
3.39

>  <excitation_energy_1>  (345) 
6.695

>  <excitation_energy_2>  (345) 
6.859

>  <excitation_energy_3>  (345) 
7.783

>  <excitation_energy_4>  (345) 
7.968

>  <homo_energy>  (345) 
-8.147

>  <homo_lumo_gap>  (345) 
8.651

>  <logP>  (345) 
-0.929

>  <lumo_energy>  (345) 
0.503

>  <melting_point>  (345) 
101.55

>  <molecular_refractivity>  (345) 
14.26

>  <oscillator_strength_1>  (345) 
0.0181

>  <oscillator_strength_2>  (345) 
0.0145

>  <oscillator_strength_3>  (345) 
0.0229

>  <oscillator_strength_4>  (345) 
0.0023

>  <open_babel_can_smiles>  (345) 
OP(=O)(O)O

>  <mulliken_charges>  (345) 
8
1   -0.619006
2   -0.651069
3   -0.644302
4   -0.52896
5   1.116781
6   0.441148
7   0.441905
8   0.443503

>  <lowdin_charges>  (345) 
8
1   -0.555465
2   -0.582455
3   -0.571092
4   -0.573284
5   1.120085
6   0.388905
7   0.386315
8   0.386991

$$$$
PCCDB-ID:  1005
     RDKit          3D

 15 14  0  0  0  0  0  0  0  0999 V2000
    1.1535    0.7362   -0.4544 C   0  0  0  0  0  0  0  0  0  0  0  0
    2.1216   -0.1666   -0.2692 C   0  0  0  0  0  0  0  0  0  0  0  0
    2.0518   -1.5771   -0.7888 C   0  0  0  0  0  0  0  0  0  0  0  0
    3.0402   -2.2304   -1.0624 O   0  0  0  0  0  0  0  0  0  0  0  0
    0.8312   -2.1072   -0.9731 O   0  0  0  0  0  0  0  0  0  0  0  0
    5.3557   -0.8997   -0.5862 O   0  0  0  0  0  0  0  0  0  0  0  0
    4.3415    1.2033   -1.6085 O   0  0  0  0  0  0  0  0  0  0  0  0
    5.5232    1.3558    0.7106 O   0  0  0  0  0  0  0  0  0  0  0  0
    3.2577    0.1294    0.4354 O   0  0  0  0  0  0  0  0  0  0  0  0
    4.7399    0.5078   -0.1991 P   0  0  0  0  0  0  0  0  0  0  0  0
    0.2469    0.5027   -1.0028 H   0  0  0  0  0  0  0  0  0  0  0  0
    1.2679    1.7498   -0.0878 H   0  0  0  0  0  0  0  0  0  0  0  0
    0.1554   -1.5445   -0.5595 H   0  0  0  0  0  0  0  0  0  0  0  0
    4.6495   -1.5552   -0.8167 H   0  0  0  0  0  0  0  0  0  0  0  0
    4.6473    2.1254   -1.6084 H   0  0  0  0  0  0  0  0  0  0  0  0
  1  2  2  3
  1 12  1  0
  2  9  1  0
  3  2  1  0
  4  3  2  0
  5  3  1  0
  5 13  1  0
  6 10  1  0
  7 15  1  0
  7 10  1  0
 10  9  1  0
 10  8  2  0
 11  1  1  0
 14  6  1  0
M  END
>  <HBA>  (346) 
6

>  <HBD>  (346) 
3

>  <TPSA>  (346) 
113.87

>  <cid>  (346) 
1005

>  <dipole>  (346) 
6.46

>  <excitation_energy_1>  (346) 
4.88

>  <excitation_energy_2>  (346) 
5.28

>  <excitation_energy_3>  (346) 
5.433

>  <excitation_energy_4>  (346) 
5.694

>  <homo_energy>  (346) 
-8.15

>  <homo_lumo_gap>  (346) 
5.908

>  <logP>  (346) 
-0.306

>  <lumo_energy>  (346) 
-2.242

>  <melting_point>  (346) 
115.14

>  <molecular_refractivity>  (346) 
29.9

>  <oscillator_strength_1>  (346) 
0.002

>  <oscillator_strength_2>  (346) 
0.0017

>  <oscillator_strength_3>  (346) 
0.0862

>  <oscillator_strength_4>  (346) 
0.0703

>  <open_babel_can_smiles>  (346) 
OC(=O)C(=C)OP(=O)(O)O

>  <mulliken_charges>  (346) 
15
1   -0.39411
2   0.341877
3   0.600929
4   -0.469097
5   -0.547784
6   -0.648933
7   -0.659462
8   -0.520869
9   -0.576932
10   1.16986
11   0.165863
12   0.195854
13   0.422947
14   0.475009
15   0.444848

>  <lowdin_charges>  (346) 
15
1   -0.32153
2   0.064487
3   0.206994
4   -0.239334
5   -0.321715
6   -0.55833
7   -0.573057
8   -0.562792
9   -0.344323
10   1.138891
11   0.174601
12   0.19202
13   0.370863
14   0.384141
15   0.389084

$$$$
PCCDB-ID:  1007
     RDKit          3D

 23 22  0  0  1  0  0  0  0  0999 V2000
   -0.0857   -0.6329   -0.7119 C   0  0  0  0  0  0  0  0  0  0  0  0
    0.7437   -1.2344   -1.8577 C   0  0  1  0  0  0  0  0  0  0  0  0
    1.2697   -2.6482   -1.5800 C   0  0  1  0  0  0  0  0  0  0  0  0
    2.1682   -2.6980   -0.3299 C   0  0  0  0  0  0  0  0  0  0  0  0
    0.2796   -3.7307   -1.4816 N   0  0  0  0  0  0  0  0  0  0  0  0
   -0.0159   -1.3245   -3.0583 O   0  0  0  0  0  0  0  0  0  0  0  0
    2.7956   -1.7477    0.1043 O   0  0  0  0  0  0  0  0  0  0  0  0
    2.2270   -3.9008    0.2322 O   0  0  0  0  0  0  0  0  0  0  0  0
    0.8073    1.2254    1.5427 O   0  0  0  0  0  0  0  0  0  0  0  0
    2.4526    0.9973   -0.3462 O   0  0  0  0  0  0  0  0  0  0  0  0
    0.9230    3.0989   -0.2940 O   0  0  0  0  0  0  0  0  0  0  0  0
   -0.0829    0.8007   -0.8141 O   0  0  0  0  0  0  0  0  0  0  0  0
    1.0434    1.6620   -0.0063 P   0  0  0  0  0  0  0  0  0  0  0  0
    0.2742   -0.9424    0.2755 H   0  0  0  0  0  0  0  0  0  0  0  0
   -1.1300   -0.9442   -0.8117 H   0  0  0  0  0  0  0  0  0  0  0  0
    1.6163   -0.5887   -2.0062 H   0  0  0  0  0  0  0  0  0  0  0  0
    1.9234   -2.9076   -2.4234 H   0  0  0  0  0  0  0  0  0  0  0  0
   -0.0863   -3.9476   -2.4058 H   0  0  0  0  0  0  0  0  0  0  0  0
   -0.5196   -3.4437   -0.9170 H   0  0  0  0  0  0  0  0  0  0  0  0
   -0.2613   -0.4195   -3.3112 H   0  0  0  0  0  0  0  0  0  0  0  0
    1.5690   -4.4502   -0.2693 H   0  0  0  0  0  0  0  0  0  0  0  0
    0.3102    1.9184    2.0080 H   0  0  0  0  0  0  0  0  0  0  0  0
    2.6011    0.0638   -0.0594 H   0  0  0  0  0  0  0  0  0  0  0  0
  1 14  1  0
  2 16  1  6
  2  3  1  0
  2  1  1  0
  3 17  1  6
  3  5  1  0
  3  4  1  0
  4  7  2  0
  4  8  1  0
  5 19  1  0
  6  2  1  0
  9 22  1  0
 10 23  1  0
 10 13  1  0
 11 13  2  0
 12  1  1  0
 12 13  1  0
 13  9  1  0
 15  1  1  0
 18  5  1  0
 20  6  1  0
 21  8  1  0
M  END
>  <HBA>  (347) 
8

>  <HBD>  (347) 
5

>  <TPSA>  (347) 
160.12

>  <cid>  (347) 
1007

>  <dipole>  (347) 
6.78

>  <excitation_energy_1>  (347) 
5.572

>  <excitation_energy_2>  (347) 
6.14

>  <excitation_energy_3>  (347) 
6.44

>  <excitation_energy_4>  (347) 
6.562

>  <homo_energy>  (347) 
-7.774

>  <homo_lumo_gap>  (347) 
7.056

>  <logP>  (347) 
-1.431

>  <lumo_energy>  (347) 
-0.718

>  <melting_point>  (347) 
204.52

>  <molecular_refractivity>  (347) 
39.06

>  <oscillator_strength_1>  (347) 
0.0024

>  <oscillator_strength_2>  (347) 
0.004

>  <oscillator_strength_3>  (347) 
0.0146

>  <oscillator_strength_4>  (347) 
0.0019

>  <open_babel_can_smiles>  (347) 
O[C@H]([C@@H](C(=O)O)N)COP(=O)(O)O

>  <mulliken_charges>  (347) 
23
1   -0.106535
2   0.125663
3   -0.127231
4   0.63772
5   -0.765983
6   -0.644499
7   -0.493901
8   -0.558364
9   -0.673555
10   -0.682136
11   -0.525594
12   -0.53129
13   1.186528
14   0.170508
15   0.163354
16   0.169294
17   0.205024
18   0.347242
19   0.328828
20   0.415187
21   0.441484
22   0.442651
23   0.475604

>  <lowdin_charges>  (347) 
23
1   -0.156098
2   -0.032634
3   -0.119901
4   0.194935
5   -0.537456
6   -0.465018
7   -0.271322
8   -0.324849
9   -0.587201
10   -0.571128
11   -0.567493
12   -0.398812
13   1.123011
14   0.15757
15   0.157009
16   0.161962
17   0.185357
18   0.285005
19   0.271085
20   0.358888
21   0.368558
22   0.388973
23   0.379558

$$$$
PCCDB-ID:  1015
     RDKit          3D

 16 15  0  0  0  0  0  0  0  0999 V2000
    2.0914   -1.2807   -1.2363 C   0  0  0  0  0  0  0  0  0  0  0  0
    1.0665   -0.5972   -0.3414 C   0  0  0  0  0  0  0  0  0  0  0  0
    2.6729   -2.4588   -0.5941 N   0  0  0  0  0  0  0  0  0  0  0  0
    2.3472    0.9116    2.9690 O   0  0  0  0  0  0  0  0  0  0  0  0
    0.9931   -1.2651    2.6437 O   0  0  0  0  0  0  0  0  0  0  0  0
    3.5232   -1.1798    2.0465 O   0  0  0  0  0  0  0  0  0  0  0  0
    1.6721    0.2013    0.7135 O   0  0  0  0  0  0  0  0  0  0  0  0
    2.2554   -0.4192    2.0723 P   0  0  0  0  0  0  0  0  0  0  0  0
    2.8198   -0.5200   -1.5699 H   0  0  0  0  0  0  0  0  0  0  0  0
    1.5469   -1.6137   -2.1300 H   0  0  0  0  0  0  0  0  0  0  0  0
    0.3975   -1.3366    0.1080 H   0  0  0  0  0  0  0  0  0  0  0  0
    0.4819    0.1259   -0.9157 H   0  0  0  0  0  0  0  0  0  0  0  0
    3.3251   -2.1750    0.1378 H   0  0  0  0  0  0  0  0  0  0  0  0
    3.2070   -2.9932   -1.2760 H   0  0  0  0  0  0  0  0  0  0  0  0
    1.5920    1.5043    2.8227 H   0  0  0  0  0  0  0  0  0  0  0  0
    1.3050   -2.1166    2.9924 H   0  0  0  0  0  0  0  0  0  0  0  0
  1  3  1  0
  1  2  1  0
  2 11  1  0
  2  7  1  0
  3 13  1  0
  5 16  1  0
  6  8  2  0
  7  8  1  0
  8  5  1  0
  8  4  1  0
  9  1  1  0
 10  1  1  0
 12  2  1  0
 14  3  1  0
 15  4  1  0
M  END
>  <HBA>  (348) 
5

>  <HBD>  (348) 
3

>  <TPSA>  (348) 
102.59

>  <cid>  (348) 
1015

>  <dipole>  (348) 
3.06

>  <excitation_energy_1>  (348) 
5.517

>  <excitation_energy_2>  (348) 
6.011

>  <excitation_energy_3>  (348) 
6.375

>  <excitation_energy_4>  (348) 
6.535

>  <homo_energy>  (348) 
-6.373

>  <homo_lumo_gap>  (348) 
7.23

>  <logP>  (348) 
-0.245

>  <lumo_energy>  (348) 
0.857

>  <melting_point>  (348) 
110.07

>  <molecular_refractivity>  (348) 
26.51

>  <oscillator_strength_1>  (348) 
0.0094

>  <oscillator_strength_2>  (348) 
0.0032

>  <oscillator_strength_3>  (348) 
0.0275

>  <oscillator_strength_4>  (348) 
0.002

>  <open_babel_can_smiles>  (348) 
NCCOP(=O)(O)O

>  <mulliken_charges>  (348) 
16
1   -0.14748
2   -0.043105
3   -0.75236
4   -0.61475
5   -0.652995
6   -0.562732
7   -0.537342
8   1.172698
9   0.137144
10   0.143356
11   0.174354
12   0.155642
13   0.345939
14   0.298745
15   0.43769
16   0.445196

>  <lowdin_charges>  (348) 
16
1   -0.216307
2   -0.128006
3   -0.578229
4   -0.548774
5   -0.572763
6   -0.585664
7   -0.404193
8   1.118037
9   0.133554
10   0.151303
11   0.162756
12   0.158344
13   0.274518
14   0.259784
15   0.385316
16   0.390325

$$$$
PCCDB-ID:  1016
     RDKit          3D

 22 21  0  0  1  0  0  0  0  0999 V2000
    2.2964    0.2422   -0.1543 C   0  0  0  0  0  0  0  0  0  0  0  0
    2.1605   -0.4253   -1.5170 C   0  0  1  0  0  0  0  0  0  0  0  0
    1.0168   -1.4480   -1.6302 C   0  0  1  0  0  0  0  0  0  0  0  0
    1.2805   -2.6821   -0.7416 C   0  0  0  0  0  0  0  0  0  0  0  0
   -0.3411   -0.9493   -1.3805 N   0  0  0  0  0  0  0  0  0  0  0  0
    2.3900   -3.0971   -0.4994 O   0  0  0  0  0  0  0  0  0  0  0  0
    0.1594   -3.2693   -0.3020 O   0  0  0  0  0  0  0  0  0  0  0  0
    3.9841    0.4551   -3.9665 O   0  0  0  0  0  0  0  0  0  0  0  0
    2.1593    2.2376   -4.2950 O   0  0  0  0  0  0  0  0  0  0  0  0
    3.7990    2.3533   -2.2491 O   0  0  0  0  0  0  0  0  0  0  0  0
    1.8581    0.5688   -2.5472 O   0  0  0  0  0  0  0  0  0  0  0  0
    3.0317    1.4847   -3.1602 P   0  0  0  0  0  0  0  0  0  0  0  0
    2.5253   -0.5133    0.6033 H   0  0  0  0  0  0  0  0  0  0  0  0
    1.3787    0.7714    0.1272 H   0  0  0  0  0  0  0  0  0  0  0  0
    3.1060    0.9752   -0.1769 H   0  0  0  0  0  0  0  0  0  0  0  0
    3.0913   -0.9372   -1.7776 H   0  0  0  0  0  0  0  0  0  0  0  0
    1.0236   -1.8233   -2.6620 H   0  0  0  0  0  0  0  0  0  0  0  0
   -0.3579   -0.3454   -0.5594 H   0  0  0  0  0  0  0  0  0  0  0  0
   -0.6589   -0.3840   -2.1645 H   0  0  0  0  0  0  0  0  0  0  0  0
   -0.5791   -2.6981   -0.6298 H   0  0  0  0  0  0  0  0  0  0  0  0
    3.5056   -0.0401   -4.6523 H   0  0  0  0  0  0  0  0  0  0  0  0
    2.4189    3.1734   -4.3281 H   0  0  0  0  0  0  0  0  0  0  0  0
  1 14  1  0
  1 13  1  0
  2 16  1  6
  2  1  1  0
  3 17  1  6
  3  2  1  0
  3  5  1  0
  3  4  1  0
  4  6  2  0
  4  7  1  0
  5 18  1  0
  8 12  1  0
  9 12  1  0
 11  2  1  0
 12 11  1  0
 12 10  2  0
 15  1  1  0
 19  5  1  0
 20  7  1  0
 21  8  1  0
 22  9  1  0
M  END
>  <HBA>  (349) 
7

>  <HBD>  (349) 
4

>  <TPSA>  (349) 
139.89

>  <cid>  (349) 
1016

>  <dipole>  (349) 
5.39

>  <excitation_energy_1>  (349) 
5.462

>  <excitation_energy_2>  (349) 
6.175

>  <excitation_energy_3>  (349) 
6.57

>  <excitation_energy_4>  (349) 
6.677

>  <homo_energy>  (349) 
-7.26

>  <homo_lumo_gap>  (349) 
7.268

>  <logP>  (349) 
-0.404

>  <lumo_energy>  (349) 
0.008

>  <melting_point>  (349) 
185.9

>  <molecular_refractivity>  (349) 
37.89

>  <oscillator_strength_1>  (349) 
0.0012

>  <oscillator_strength_2>  (349) 
0.0006

>  <oscillator_strength_3>  (349) 
0.0236

>  <oscillator_strength_4>  (349) 
0.0043

>  <open_babel_can_smiles>  (349) 
OC(=O)[C@H]([C@@H](OP(=O)(O)O)C)N

>  <mulliken_charges>  (349) 
22
1   -0.486111
2   0.120517
3   -0.111908
4   0.619775
5   -0.767331
6   -0.465458
7   -0.57732
8   -0.631053
9   -0.64254
10   -0.543861
11   -0.546444
12   1.149765
13   0.180439
14   0.139716
15   0.209217
16   0.18519
17   0.183689
18   0.328007
19   0.338529
20   0.434371
21   0.434904
22   0.447906

>  <lowdin_charges>  (349) 
22
1   -0.464591
2   0.005071
3   -0.118076
4   0.17658
5   -0.541655
6   -0.253429
7   -0.347098
8   -0.558612
9   -0.565375
10   -0.575407
11   -0.402194
12   1.104629
13   0.173654
14   0.148367
15   0.188023
16   0.170636
17   0.172003
18   0.269547
19   0.281084
20   0.36332
21   0.38398
22   0.389543

$$$$
PCCDB-ID:  1017
     RDKit          3D

 18 18  0  0  0  0  0  0  0  0999 V2000
   -1.2896   -0.0242   -0.0425 C   0  0  0  0  0  0  0  0  0  0  0  0
   -0.5547   -1.2051    0.0516 C   0  0  0  0  0  0  0  0  0  0  0  0
   -0.6273    1.1966   -0.1173 C   0  0  0  0  0  0  0  0  0  0  0  0
    0.8338   -1.1444    0.0516 C   0  0  0  0  0  0  0  0  0  0  0  0
    0.7734    1.2856   -0.1528 C   0  0  0  0  0  0  0  0  0  0  0  0
    1.5153    0.0779   -0.0818 C   0  0  0  0  0  0  0  0  0  0  0  0
    1.2728    2.7276   -0.1318 C   0  0  0  0  0  0  0  0  0  0  0  0
    3.0008   -0.0952   -0.0899 C   0  0  0  0  0  0  0  0  0  0  0  0
    0.5649    3.6046    0.3120 O   0  0  0  0  0  0  0  0  0  0  0  0
    2.4836    3.0285   -0.6209 O   0  0  0  0  0  0  0  0  0  0  0  0
    3.6098   -0.8932    0.5822 O   0  0  0  0  0  0  0  0  0  0  0  0
    3.6493    0.6727   -1.0242 O   0  0  0  0  0  0  0  0  0  0  0  0
   -2.3755   -0.0490   -0.0364 H   0  0  0  0  0  0  0  0  0  0  0  0
   -1.0550   -2.1653    0.1355 H   0  0  0  0  0  0  0  0  0  0  0  0
   -1.1851    2.1255   -0.1292 H   0  0  0  0  0  0  0  0  0  0  0  0
    1.4218   -2.0503    0.1515 H   0  0  0  0  0  0  0  0  0  0  0  0
    2.9338    2.2423   -0.9890 H   0  0  0  0  0  0  0  0  0  0  0  0
    4.6030    0.4843   -0.9276 H   0  0  0  0  0  0  0  0  0  0  0  0
  1 13  1  0
  1  2  2  0
  2  4  1  0
  2 14  1  0
  3  1  1  0
  4 16  1  0
  5  7  1  0
  5  3  2  0
  5  6  1  0
  6  4  2  0
  7  9  2  0
  8  6  1  0
  8 11  2  0
 10  7  1  0
 12 18  1  0
 12  8  1  0
 15  3  1  0
 17 10  1  0
M  END
>  <HBA>  (350) 
4

>  <HBD>  (350) 
2

>  <TPSA>  (350) 
74.6

>  <cid>  (350) 
1017

>  <dipole>  (350) 
4.23

>  <excitation_energy_1>  (350) 
4.325

>  <excitation_energy_2>  (350) 
4.721

>  <excitation_energy_3>  (350) 
4.968

>  <excitation_energy_4>  (350) 
5.3

>  <homo_energy>  (350) 
-7.227

>  <homo_lumo_gap>  (350) 
5.238

>  <logP>  (350) 
1.083

>  <lumo_energy>  (350) 
-1.989

>  <melting_point>  (350) 
186.97

>  <molecular_refractivity>  (350) 
40.36

>  <oscillator_strength_1>  (350) 
0.0212

>  <oscillator_strength_2>  (350) 
0.0372

>  <oscillator_strength_3>  (350) 
0.0633

>  <oscillator_strength_4>  (350) 
0.0088

>  <open_babel_can_smiles>  (350) 
OC(=O)c1ccccc1C(=O)O

>  <mulliken_charges>  (350) 
18
1   -0.11793
2   -0.124595
3   -0.159964
4   -0.154081
5   0.003884
6   0.041433
7   0.554873
8   0.503537
9   -0.446913
10   -0.597841
11   -0.435503
12   -0.599608
13   0.151664
14   0.150738
15   0.182532
16   0.169641
17   0.448553
18   0.429581

>  <lowdin_charges>  (350) 
18
1   -0.133596
2   -0.140504
3   -0.125798
4   -0.131791
5   -0.04753
6   -0.042653
7   0.194169
8   0.203246
9   -0.249352
10   -0.359016
11   -0.236006
12   -0.36373
13   0.166702
14   0.168607
15   0.187074
16   0.179157
17   0.358819
18   0.372203

$$$$
PCCDB-ID:  1029
     RDKit          3D

 25 24  0  0  1  0  0  0  0  0999 V2000
    1.4887   -0.0780    0.1121 C   0  0  0  0  0  0  0  0  0  0  0  0
    2.1567   -1.2653   -0.5944 C   0  0  0  0  0  0  0  0  0  0  0  0
    1.8377    2.0005    1.5393 C   0  0  0  0  0  0  0  0  0  0  0  0
    2.4976    0.7998    0.8464 C   0  0  1  0  0  0  0  0  0  0  0  0
    1.1818   -2.2572   -1.2520 C   0  0  1  0  0  0  0  0  0  0  0  0
    0.4976   -1.6945   -2.5213 C   0  0  0  0  0  0  0  0  0  0  0  0
    2.8534    2.6731    2.3673 N   0  0  0  0  0  0  0  0  0  0  0  0
    1.7796   -3.5653   -1.6025 N   0  0  0  0  0  0  0  0  0  0  0  0
    3.1728    0.0168    1.8202 O   0  0  0  0  0  0  0  0  0  0  0  0
    0.1810   -0.5347   -2.6612 O   0  0  0  0  0  0  0  0  0  0  0  0
    0.2541   -2.6278   -3.4542 O   0  0  0  0  0  0  0  0  0  0  0  0
    0.7641   -0.4549    0.8486 H   0  0  0  0  0  0  0  0  0  0  0  0
    0.9364    0.5196   -0.6190 H   0  0  0  0  0  0  0  0  0  0  0  0
    2.7503   -1.8156    0.1449 H   0  0  0  0  0  0  0  0  0  0  0  0
    2.8580   -0.8955   -1.3563 H   0  0  0  0  0  0  0  0  0  0  0  0
    1.0563    1.6280    2.2121 H   0  0  0  0  0  0  0  0  0  0  0  0
    1.3565    2.6539    0.7944 H   0  0  0  0  0  0  0  0  0  0  0  0
    3.2269    1.1920    0.1093 H   0  0  0  0  0  0  0  0  0  0  0  0
    0.3634   -2.4685   -0.5494 H   0  0  0  0  0  0  0  0  0  0  0  0
    2.4144    3.2773    3.0577 H   0  0  0  0  0  0  0  0  0  0  0  0
    3.4401    3.2718    1.7878 H   0  0  0  0  0  0  0  0  0  0  0  0
    1.8454   -4.1633   -0.7820 H   0  0  0  0  0  0  0  0  0  0  0  0
    2.7329   -3.4311   -1.9402 H   0  0  0  0  0  0  0  0  0  0  0  0
    3.5322    0.6790    2.4447 H   0  0  0  0  0  0  0  0  0  0  0  0
    0.6606   -3.4564   -3.0915 H   0  0  0  0  0  0  0  0  0  0  0  0
  1  4  1  0
  1 12  1  0
  2  1  1  0
  2 14  1  0
  3 16  1  0
  3  7  1  0
  4 18  1  6
  4  3  1  0
  4  9  1  0
  5  2  1  0
  5 19  1  1
  6  5  1  0
  7 20  1  0
  8  5  1  0
  8 22  1  0
  9 24  1  0
 10  6  2  0
 11 25  1  0
 11  6  1  0
 13  1  1  0
 15  2  1  0
 17  3  1  0
 21  7  1  0
 23  8  1  0
M  END
>  <HBA>  (351) 
5

>  <HBD>  (351) 
4

>  <TPSA>  (351) 
109.57

>  <cid>  (351) 
1029

>  <dipole>  (351) 
3.63

>  <excitation_energy_1>  (351) 
5.398

>  <excitation_energy_2>  (351) 
5.934

>  <excitation_energy_3>  (351) 
6.117

>  <excitation_energy_4>  (351) 
6.179

>  <homo_energy>  (351) 
-6.702

>  <homo_lumo_gap>  (351) 
7.176

>  <logP>  (351) 
-0.101

>  <lumo_energy>  (351) 
0.473

>  <melting_point>  (351) 
177.71

>  <molecular_refractivity>  (351) 
39.3

>  <oscillator_strength_1>  (351) 
0.0017

>  <oscillator_strength_2>  (351) 
0.0059

>  <oscillator_strength_3>  (351) 
0.0065

>  <oscillator_strength_4>  (351) 
0.0113

>  <open_babel_can_smiles>  (351) 
NC[C@H](CC[C@@H](C(=O)O)N)O

>  <mulliken_charges>  (351) 
25
1   -0.27612
2   -0.266885
3   -0.16825
4   0.161169
5   -0.094108
6   0.606584
7   -0.747721
8   -0.772557
9   -0.654878
10   -0.463458
11   -0.580322
12   0.127114
13   0.176105
14   0.159669
15   0.136362
16   0.147679
17   0.130709
18   0.098092
19   0.173776
20   0.312282
21   0.306816
22   0.325101
23   0.322001
24   0.408907
25   0.431933

>  <lowdin_charges>  (351) 
25
1   -0.28938
2   -0.283174
3   -0.229455
4   -0.008273
5   -0.110191
6   0.17365
7   -0.55863
8   -0.543829
9   -0.483881
10   -0.259007
11   -0.356811
12   0.142316
13   0.167702
14   0.157356
15   0.146235
16   0.149161
17   0.134386
18   0.116258
19   0.165856
20   0.265934
21   0.261143
22   0.272671
23   0.266317
24   0.344207
25   0.359437

$$$$
PCCDB-ID:  1030
     RDKit          3D

 13 12  0  0  1  0  0  0  0  0999 V2000
    0.9221   -0.0109    0.1123 C   0  0  0  0  0  0  0  0  0  0  0  0
    2.9545    1.5289    0.3051 C   0  0  0  0  0  0  0  0  0  0  0  0
    2.4423    0.1008    0.0994 C   0  0  1  0  0  0  0  0  0  0  0  0
    4.3671    1.5560    0.3444 O   0  0  0  0  0  0  0  0  0  0  0  0
    3.0502   -0.7491    1.0887 O   0  0  0  0  0  0  0  0  0  0  0  0
    0.4765    0.5832   -0.6938 H   0  0  0  0  0  0  0  0  0  0  0  0
    0.5083    0.3545    1.0622 H   0  0  0  0  0  0  0  0  0  0  0  0
    0.6145   -1.0533   -0.0162 H   0  0  0  0  0  0  0  0  0  0  0  0
    2.5166    1.9353    1.2377 H   0  0  0  0  0  0  0  0  0  0  0  0
    2.6339    2.1792   -0.5168 H   0  0  0  0  0  0  0  0  0  0  0  0
    2.8401   -0.2733   -0.8506 H   0  0  0  0  0  0  0  0  0  0  0  0
    4.6150    0.7653    0.8564 H   0  0  0  0  0  0  0  0  0  0  0  0
    2.6198   -0.5550    1.9387 H   0  0  0  0  0  0  0  0  0  0  0  0
  1  7  1  0
  2  4  1  0
  2  9  1  0
  3 11  1  6
  3  1  1  0
  3  2  1  0
  3  5  1  0
  4 12  1  0
  5 13  1  0
  6  1  1  0
  8  1  1  0
 10  2  1  0
M  END
>  <HBA>  (352) 
2

>  <HBD>  (352) 
2

>  <TPSA>  (352) 
40.46

>  <cid>  (352) 
1030

>  <dipole>  (352) 
2.57

>  <excitation_energy_1>  (352) 
6.434

>  <excitation_energy_2>  (352) 
7.013

>  <excitation_energy_3>  (352) 
7.132

>  <excitation_energy_4>  (352) 
7.234

>  <homo_energy>  (352) 
-6.974

>  <homo_lumo_gap>  (352) 
8.626

>  <logP>  (352) 
-0.64

>  <lumo_energy>  (352) 
1.652

>  <melting_point>  (352) 
12.67

>  <molecular_refractivity>  (352) 
18.86

>  <oscillator_strength_1>  (352) 
0.0011

>  <oscillator_strength_2>  (352) 
0.0111

>  <oscillator_strength_3>  (352) 
0.0239

>  <oscillator_strength_4>  (352) 
0.0355

>  <open_babel_can_smiles>  (352) 
OC[C@@H](O)C

>  <mulliken_charges>  (352) 
13
1   -0.46916
2   -0.015629
3   0.098624
4   -0.623764
5   -0.626336
6   0.154644
7   0.137048
8   0.166072
9   0.100361
10   0.140262
11   0.153092
12   0.397401
13   0.387385

>  <lowdin_charges>  (352) 
13
1   -0.460923
2   -0.152907
3   -0.018866
4   -0.469922
5   -0.464936
6   0.160992
7   0.146006
8   0.161754
9   0.116811
10   0.148613
11   0.150726
12   0.341812
13   0.340842

$$$$
PCCDB-ID:  1031
     RDKit          3D

 12 11  0  0  0  0  0  0  0  0999 V2000
    0.9137    0.0890    0.0053 C   0  0  0  0  0  0  0  0  0  0  0  0
    2.4442    0.0750   -0.0648 C   0  0  0  0  0  0  0  0  0  0  0  0
    2.9762   -0.6302   -1.3132 C   0  0  0  0  0  0  0  0  0  0  0  0
    4.3976   -0.6929   -1.3556 O   0  0  0  0  0  0  0  0  0  0  0  0
    0.5627    0.6064    0.9045 H   0  0  0  0  0  0  0  0  0  0  0  0
    0.5082   -0.9298    0.0286 H   0  0  0  0  0  0  0  0  0  0  0  0
    0.4782    0.5990   -0.8629 H   0  0  0  0  0  0  0  0  0  0  0  0
    2.8639   -0.4211    0.8192 H   0  0  0  0  0  0  0  0  0  0  0  0
    2.8224    1.1087   -0.0510 H   0  0  0  0  0  0  0  0  0  0  0  0
    2.5725   -0.1465   -2.2194 H   0  0  0  0  0  0  0  0  0  0  0  0
    2.6390   -1.6727   -1.3293 H   0  0  0  0  0  0  0  0  0  0  0  0
    4.7269    0.2191   -1.3769 H   0  0  0  0  0  0  0  0  0  0  0  0
  1  6  1  0
  1  5  1  0
  2  9  1  0
  2  1  1  0
  2  8  1  0
  3  2  1  0
  4  3  1  0
  7  1  1  0
 10  3  1  0
 11  3  1  0
 12  4  1  0
M  END
>  <HBA>  (353) 
1

>  <HBD>  (353) 
1

>  <TPSA>  (353) 
20.23

>  <cid>  (353) 
1031

>  <dipole>  (353) 
1.71

>  <excitation_energy_1>  (353) 
6.472

>  <excitation_energy_2>  (353) 
7.169

>  <excitation_energy_3>  (353) 
7.491

>  <excitation_energy_4>  (353) 
7.719

>  <homo_energy>  (353) 
-7.102

>  <homo_lumo_gap>  (353) 
9.198

>  <logP>  (353) 
0.389

>  <lumo_energy>  (353) 
2.095

>  <melting_point>  (353) 
-5.95

>  <molecular_refractivity>  (353) 
17.7

>  <oscillator_strength_1>  (353) 
0.0086

>  <oscillator_strength_2>  (353) 
0.005

>  <oscillator_strength_3>  (353) 
0.0226

>  <oscillator_strength_4>  (353) 
0.0245

>  <open_babel_can_smiles>  (353) 
CCCO

>  <mulliken_charges>  (353) 
12
1   -0.449578
2   -0.27047
3   -0.020737
4   -0.614928
5   0.149078
6   0.147298
7   0.143957
8   0.148449
9   0.122007
10   0.115661
11   0.144453
12   0.38481

>  <lowdin_charges>  (353) 
12
1   -0.445983
2   -0.290925
3   -0.134337
4   -0.468164
5   0.154403
6   0.148634
7   0.148262
8   0.149199
9   0.133638
10   0.123247
11   0.144122
12   0.337903

$$$$
PCCDB-ID:  1032
     RDKit          3D

 11 10  0  0  0  0  0  0  0  0999 V2000
    0.9939   -0.1937    0.0737 C   0  0  0  0  0  0  0  0  0  0  0  0
    2.4636    0.2592    0.0545 C   0  0  0  0  0  0  0  0  0  0  0  0
    2.9265    0.8115   -1.2893 C   0  0  0  0  0  0  0  0  0  0  0  0
    3.4071    1.9043   -1.4481 O   0  0  0  0  0  0  0  0  0  0  0  0
    2.7731   -0.0233   -2.3578 O   0  0  0  0  0  0  0  0  0  0  0  0
    0.7149   -0.5310    1.0767 H   0  0  0  0  0  0  0  0  0  0  0  0
    0.8006   -1.0290   -0.6114 H   0  0  0  0  0  0  0  0  0  0  0  0
    0.3248    0.6265   -0.2058 H   0  0  0  0  0  0  0  0  0  0  0  0
    3.1174   -0.5815    0.3271 H   0  0  0  0  0  0  0  0  0  0  0  0
    2.6299    1.0509    0.7883 H   0  0  0  0  0  0  0  0  0  0  0  0
    2.3817   -0.8648   -2.0719 H   0  0  0  0  0  0  0  0  0  0  0  0
  1  6  1  0
  2  1  1  0
  2  9  1  0
  2 10  1  0
  3  2  1  0
  4  3  2  0
  5 11  1  0
  5  3  1  0
  7  1  1  0
  8  1  1  0
M  END
>  <HBA>  (354) 
2

>  <HBD>  (354) 
1

>  <TPSA>  (354) 
37.3

>  <cid>  (354) 
1032

>  <dipole>  (354) 
4.41

>  <excitation_energy_1>  (354) 
5.6

>  <excitation_energy_2>  (354) 
6.534

>  <excitation_energy_3>  (354) 
7.495

>  <excitation_energy_4>  (354) 
7.55

>  <homo_energy>  (354) 
-7.276

>  <homo_lumo_gap>  (354) 
7.532

>  <logP>  (354) 
0.481

>  <lumo_energy>  (354) 
0.256

>  <melting_point>  (354) 
52.59

>  <molecular_refractivity>  (354) 
18.31

>  <oscillator_strength_1>  (354) 
0.0017

>  <oscillator_strength_2>  (354) 
0.0133

>  <oscillator_strength_3>  (354) 
0.0086

>  <oscillator_strength_4>  (354) 
0.0143

>  <open_babel_can_smiles>  (354) 
CCC(=O)O

>  <mulliken_charges>  (354) 
11
1   -0.45894
2   -0.374602
3   0.590407
4   -0.433657
5   -0.562921
6   0.167506
7   0.137097
8   0.175902
9   0.166097
10   0.18518
11   0.407932

>  <lowdin_charges>  (354) 
11
1   -0.444553
2   -0.316184
3   0.189875
4   -0.234652
5   -0.361161
6   0.162656
7   0.14343
8   0.164354
9   0.163661
10   0.176313
11   0.35626

$$$$
PCCDB-ID:  1034
     RDKit          3D

 16 15  0  0  0  0  0  0  0  0999 V2000
    1.2184   -1.2065    0.5938 C   0  0  0  0  0  0  0  0  0  0  0  0
    2.6863   -1.0744    0.1930 C   0  0  0  0  0  0  0  0  0  0  0  0
    3.2460    0.3055    0.4293 C   0  0  0  0  0  0  0  0  0  0  0  0
    2.6338    1.2403    0.9111 O   0  0  0  0  0  0  0  0  0  0  0  0
    6.4001    1.7815   -0.9651 O   0  0  0  0  0  0  0  0  0  0  0  0
    4.5319    2.9613    0.1537 O   0  0  0  0  0  0  0  0  0  0  0  0
    6.2522    1.5637    1.6282 O   0  0  0  0  0  0  0  0  0  0  0  0
    4.5454    0.3928    0.0280 O   0  0  0  0  0  0  0  0  0  0  0  0
    5.5088    1.7250    0.3661 P   0  0  0  0  0  0  0  0  0  0  0  0
    0.8690   -2.2263    0.4064 H   0  0  0  0  0  0  0  0  0  0  0  0
    0.5897   -0.5165    0.0235 H   0  0  0  0  0  0  0  0  0  0  0  0
    1.0786   -0.9831    1.6552 H   0  0  0  0  0  0  0  0  0  0  0  0
    2.8417   -1.3108   -0.8677 H   0  0  0  0  0  0  0  0  0  0  0  0
    3.3231   -1.7786    0.7440 H   0  0  0  0  0  0  0  0  0  0  0  0
    7.3245    1.5720   -0.7508 H   0  0  0  0  0  0  0  0  0  0  0  0
    3.6576    2.7426    0.5572 H   0  0  0  0  0  0  0  0  0  0  0  0
  1 12  1  0
  2  3  1  0
  2  1  1  0
  2 14  1  0
  3  4  2  0
  5 15  1  0
  5  9  1  0
  6  9  1  0
  6 16  1  0
  8  9  1  0
  8  3  1  0
  9  7  2  0
 10  1  1  0
 11  1  1  0
 13  2  1  0
M  END
>  <HBA>  (355) 
5

>  <HBD>  (355) 
2

>  <TPSA>  (355) 
93.64

>  <cid>  (355) 
1034

>  <dipole>  (355) 
3.56

>  <excitation_energy_1>  (355) 
5.901

>  <excitation_energy_2>  (355) 
6.688

>  <excitation_energy_3>  (355) 
6.791

>  <excitation_energy_4>  (355) 
7.167

>  <homo_energy>  (355) 
-8.283

>  <homo_lumo_gap>  (355) 
7.472

>  <logP>  (355) 
0.032

>  <lumo_energy>  (355) 
-0.811

>  <melting_point>  (355) 
76.55

>  <molecular_refractivity>  (355) 
28.81

>  <oscillator_strength_1>  (355) 
0.0006

>  <oscillator_strength_2>  (355) 
0.0182

>  <oscillator_strength_3>  (355) 
0.0308

>  <oscillator_strength_4>  (355) 
0.0102

>  <open_babel_can_smiles>  (355) 
CCC(=O)OP(=O)(O)O

>  <mulliken_charges>  (355) 
16
1   -0.442058
2   -0.354994
3   0.64106
4   -0.485895
5   -0.613166
6   -0.636958
7   -0.511655
8   -0.51555
9   1.130739
10   0.154737
11   0.167305
12   0.171012
13   0.190018
14   0.193874
15   0.450007
16   0.461525

>  <lowdin_charges>  (355) 
16
1   -0.438657
2   -0.294255
3   0.235824
4   -0.258703
5   -0.541006
6   -0.551849
7   -0.560756
8   -0.333651
9   1.122994
10   0.158185
11   0.163485
12   0.162543
13   0.177776
14   0.182468
15   0.391482
16   0.38412

$$$$
PCCDB-ID:  1043
     RDKit          3D

 14 15  0  0  0  0  0  0  0  0999 V2000
    2.3101   -0.6959   -0.0020 C   0  0  0  0  0  0  0  0  0  0  0  0
    2.2851    0.7305   -0.0012 C   0  0  0  0  0  3  0  0  0  0  0  0
   -1.2060   -1.3729    0.0016 C   0  0  0  0  0  0  0  0  0  0  0  0
   -2.2485    0.6487   -0.0004 C   0  0  0  0  0  0  0  0  0  0  0  0
    0.0498   -0.7114   -0.0003 C   0  0  0  0  0  0  0  0  0  0  0  0
    0.0193    0.7103   -0.0010 C   0  0  0  0  0  0  0  0  0  0  0  0
   -2.3447   -0.7130    0.0015 N   0  0  0  0  0  0  0  0  0  0  0  0
    1.2122   -1.4202   -0.0012 N   0  0  0  0  0  0  0  0  0  0  0  0
    1.1744    1.4350   -0.0010 N   0  0  0  0  0  0  0  0  0  0  0  0
   -1.1585    1.3866   -0.0013 N   0  0  0  0  0  2  0  0  0  0  0  0
    3.2622   -1.2236   -0.0033 H   0  0  0  0  0  0  0  0  0  0  0  0
    3.2239    1.2833   -0.0006 H   0  0  0  0  0  0  0  0  0  0  0  0
   -1.2329   -2.4621    0.0036 H   0  0  0  0  0  0  0  0  0  0  0  0
   -3.1983    1.1792   -0.0010 H   0  0  0  0  0  0  0  0  0  0  0  0
  1  2  1  0
  1  8  2  0
  2  9  1  0
  2 12  1  0
  3 13  1  0
  4  7  2  0
  5  3  2  0
  6  5  1  0
  7  3  1  0
  8  5  1  0
  9  6  2  0
 10  6  1  0
 10  4  1  0
 11  1  1  0
 14  4  1  0
M  RAD  2   2   2  10   2
M  END
>  <HBA>  (356) 
4

>  <HBD>  (356) 
0

>  <TPSA>  (356) 
51.56

>  <cid>  (356) 
1043

>  <dipole>  (356) 
2.54

>  <excitation_energy_1>  (356) 
2.978

>  <excitation_energy_2>  (356) 
3.893

>  <excitation_energy_3>  (356) 
4.207

>  <excitation_energy_4>  (356) 
4.565

>  <homo_energy>  (356) 
-6.89

>  <homo_lumo_gap>  (356) 
4.144

>  <logP>  (356) 
0.42

>  <lumo_energy>  (356) 
-2.746

>  <melting_point>  (356) 
109.67

>  <molecular_refractivity>  (356) 
35.13

>  <oscillator_strength_1>  (356) 
0.0

>  <oscillator_strength_2>  (356) 
0.005

>  <oscillator_strength_3>  (356) 
0.0004

>  <oscillator_strength_4>  (356) 
0.1267

>  <open_babel_can_smiles>  (356) 
C1=Nc2c(=N[CH]1)[n]cnc2

>  <mulliken_charges>  (356) 
14
1   0.036731
2   0.042231
3   0.055763
4   0.166653
5   0.272293
6   0.417038
7   -0.384333
8   -0.454025
9   -0.406814
10   -0.419303
11   0.164007
12   0.165923
13   0.175257
14   0.168579

>  <lowdin_charges>  (356) 
14
1   -0.09872
2   -0.08272
3   -0.045582
4   -0.029175
5   -0.009435
6   0.072668
7   -0.149062
8   -0.104838
9   -0.099743
10   -0.135069
11   0.170016
12   0.170562
13   0.172727
14   0.16837

$$$$
PCCDB-ID:  1044
     RDKit          3D

 13 14  0  0  0  0  0  0  0  0999 V2000
    0.9387   -1.3683    0.0018 C   0  0  0  0  0  3  0  0  0  0  0  0
    1.9935    0.6767    0.0009 C   0  0  0  0  0  0  0  0  0  0  0  0
   -2.3024   -0.0262   -0.0014 C   0  0  0  0  0  0  0  0  0  0  0  0
   -0.2893   -0.7078    0.0004 C   0  0  0  0  0  0  0  0  0  0  0  0
   -0.2193    0.7035   -0.0003 C   0  0  0  0  0  0  0  0  0  0  0  0
    2.0780   -0.6662    0.0018 N   0  0  0  0  0  0  0  0  0  0  0  0
   -1.6093   -1.1359   -0.0001 N   0  0  0  0  0  0  0  0  0  0  0  0
    0.8898    1.4361    0.0002 N   0  0  0  0  0  2  0  0  0  0  0  0
   -1.5311    1.1203   -0.0006 N   0  0  0  0  0  0  0  0  0  0  0  0
    1.0131   -2.4541    0.0022 H   0  0  0  0  0  0  0  0  0  0  0  0
    2.9398    1.2122    0.0007 H   0  0  0  0  0  0  0  0  0  0  0  0
   -3.3838    0.0283   -0.0023 H   0  0  0  0  0  0  0  0  0  0  0  0
   -1.8514    2.0784   -0.0049 H   0  0  0  0  0  0  0  0  0  0  0  0
  1  6  1  0
  1 10  1  0
  2  6  2  0
  3  9  1  0
  3  7  2  0
  4  1  1  0
  5  8  1  0
  5  4  2  0
  7  4  1  0
  8  2  1  0
  9  5  1  0
 11  2  1  0
 12  3  1  0
 13  9  1  0
M  RAD  2   1   2   8   2
M  END
>  <HBA>  (357) 
3

>  <HBD>  (357) 
1

>  <TPSA>  (357) 
54.46

>  <cid>  (357) 
1044

>  <dipole>  (357) 
3.68

>  <excitation_energy_1>  (357) 
4.283

>  <excitation_energy_2>  (357) 
5.201

>  <excitation_energy_3>  (357) 
5.278

>  <excitation_energy_4>  (357) 
5.374

>  <homo_energy>  (357) 
-6.874

>  <homo_lumo_gap>  (357) 
5.587

>  <logP>  (357) 
0.353

>  <lumo_energy>  (357) 
-1.287

>  <melting_point>  (357) 
141.44

>  <molecular_refractivity>  (357) 
31.68

>  <oscillator_strength_1>  (357) 
0.0019

>  <oscillator_strength_2>  (357) 
0.1397

>  <oscillator_strength_3>  (357) 
0.0019

>  <oscillator_strength_4>  (357) 
0.0001

>  <open_babel_can_smiles>  (357) 
C1=N[CH]c2c([N]1)[nH]cn2

>  <mulliken_charges>  (357) 
13
1   0.029492
2   0.160234
3   0.234371
4   0.226459
5   0.518148
6   -0.406815
7   -0.488561
8   -0.472443
9   -0.642562
10   0.16396
11   0.155303
12   0.17496
13   0.347455

>  <lowdin_charges>  (357) 
13
1   -0.055505
2   -0.042146
3   -0.041809
4   -0.026561
5   0.066246
6   -0.170599
7   -0.177137
8   -0.16922
9   -0.192975
10   0.167782
11   0.163073
12   0.173681
13   0.305169

$$$$
PCCDB-ID:  1045
     RDKit          3D

 18 17  0  0  0  0  0  0  0  0999 V2000
    1.2495   -0.0712    0.0295 C   0  0  0  0  0  0  0  0  0  0  0  0
    0.9800   -0.0424    1.5423 C   0  0  0  0  0  0  0  0  0  0  0  0
    2.7021    0.2091   -0.3696 C   0  0  0  0  0  0  0  0  0  0  0  0
    1.7614   -1.0803    2.3554 C   0  0  0  0  0  0  0  0  0  0  0  0
    3.1647    1.4992    0.1625 N   0  0  0  0  0  0  0  0  0  0  0  0
    1.5239   -2.4428    1.8563 N   0  0  0  0  0  0  0  0  0  0  0  0
    0.5974    0.6702   -0.4572 H   0  0  0  0  0  0  0  0  0  0  0  0
    0.9702   -1.0505   -0.3748 H   0  0  0  0  0  0  0  0  0  0  0  0
   -0.0968   -0.1969    1.7103 H   0  0  0  0  0  0  0  0  0  0  0  0
    1.2216    0.9502    1.9387 H   0  0  0  0  0  0  0  0  0  0  0  0
    2.7828    0.1280   -1.4691 H   0  0  0  0  0  0  0  0  0  0  0  0
    3.3501   -0.5721    0.0446 H   0  0  0  0  0  0  0  0  0  0  0  0
    1.5067   -0.9488    3.4231 H   0  0  0  0  0  0  0  0  0  0  0  0
    2.8353   -0.8781    2.2688 H   0  0  0  0  0  0  0  0  0  0  0  0
    2.6402    2.2543   -0.2796 H   0  0  0  0  0  0  0  0  0  0  0  0
    4.1391    1.6491   -0.0950 H   0  0  0  0  0  0  0  0  0  0  0  0
    0.5486   -2.6962    2.0157 H   0  0  0  0  0  0  0  0  0  0  0  0
    2.0763   -3.1086    2.3946 H   0  0  0  0  0  0  0  0  0  0  0  0
  1  2  1  0
  2  9  1  0
  2 10  1  0
  2  4  1  0
  3  1  1  0
  3 12  1  0
  3  5  1  0
  4 13  1  0
  6 17  1  0
  6  4  1  0
  6 18  1  0
  7  1  1  0
  8  1  1  0
 11  3  1  0
 14  4  1  0
 15  5  1  0
 16  5  1  0
M  END
>  <HBA>  (358) 
2

>  <HBD>  (358) 
2

>  <TPSA>  (358) 
52.04

>  <cid>  (358) 
1045

>  <dipole>  (358) 
0.01

>  <excitation_energy_1>  (358) 
5.506

>  <excitation_energy_2>  (358) 
5.566

>  <excitation_energy_3>  (358) 
6.151

>  <excitation_energy_4>  (358) 
6.199

>  <homo_energy>  (358) 
-6.079

>  <homo_lumo_gap>  (358) 
8.161

>  <logP>  (358) 
1.085

>  <lumo_energy>  (358) 
2.082

>  <melting_point>  (358) 
83.26

>  <molecular_refractivity>  (358) 
26.76

>  <oscillator_strength_1>  (358) 
0.0

>  <oscillator_strength_2>  (358) 
0.0179

>  <oscillator_strength_3>  (358) 
0.0037

>  <oscillator_strength_4>  (358) 
0.0

>  <open_babel_can_smiles>  (358) 
NCCCCN

>  <mulliken_charges>  (358) 
18
1   -0.247268
2   -0.247959
3   -0.141424
4   -0.141466
5   -0.715569
6   -0.715613
7   0.11395
8   0.150044
9   0.114094
10   0.150338
11   0.108988
12   0.148925
13   0.109087
14   0.148711
15   0.288834
16   0.293668
17   0.288911
18   0.293749

>  <lowdin_charges>  (358) 
18
1   -0.283125
2   -0.280067
3   -0.205229
4   -0.202243
5   -0.563372
6   -0.564044
7   0.134492
8   0.153507
9   0.131421
10   0.153367
11   0.115182
12   0.145815
13   0.115821
14   0.142675
15   0.250575
16   0.252147
17   0.248224
18   0.254856

$$$$
PCCDB-ID:  1046
     RDKit          3D

 14 14  0  0  1  0  0  0  0  0999 V2000
   -1.3443   -0.0158    0.0590 C   0  0  0  0  0  0  0  0  0  0  0  0
   -0.6341    1.1907    0.0576 C   0  0  0  0  0  0  0  0  0  0  0  0
    0.6119   -1.1602   -0.0498 C   0  0  0  0  0  0  0  0  0  0  0  0
    1.3306    0.0434   -0.0848 C   0  0  0  0  0  0  0  0  0  0  0  0
    2.8300    0.0956   -0.1536 C   0  0  0  0  0  3  0  0  0  0  0  0
    3.5426    1.0848    0.1905 N   0  0  0  0  0  2  0  0  0  0  0  0
   -0.7237   -1.1969    0.0171 N   0  0  0  0  0  0  0  0  0  0  0  0
    0.6950    1.2246   -0.0135 N   0  0  0  0  0  0  0  0  0  0  0  0
    3.4532   -1.0463   -0.5680 O   0  0  0  0  0  0  0  0  0  0  0  0
   -2.4310   -0.0272    0.1056 H   0  0  0  0  0  0  0  0  0  0  0  0
   -1.1511    2.1461    0.1164 H   0  0  0  0  0  0  0  0  0  0  0  0
    1.1181   -2.1234   -0.0434 H   0  0  0  0  0  0  0  0  0  0  0  0
    2.9264    1.8369    0.5089 H   0  0  0  0  0  0  0  0  0  0  0  0
    2.8508   -1.5666   -1.1212 H   0  0  0  0  0  0  0  0  0  0  0  0
  1 10  1  0
  2  1  2  0
  2 11  1  0
  3 12  1  0
  3  7  2  0
  4  3  1  0
  4  8  2  0
  5  9  1  0
  5  4  1  0
  5  6  1  0
  6 13  1  0
  7  1  1  0
  8  2  1  0
 14  9  1  0
M  RAD  2   5   2   6   2
M  END
>  <HBA>  (359) 
4

>  <HBD>  (359) 
1

>  <TPSA>  (359) 
68.87

>  <cid>  (359) 
1046

>  <dipole>  (359) 
4.21

>  <excitation_energy_1>  (359) 
3.834

>  <excitation_energy_2>  (359) 
4.376

>  <excitation_energy_3>  (359) 
4.454

>  <excitation_energy_4>  (359) 
4.53

>  <homo_energy>  (359) 
-7.276

>  <homo_lumo_gap>  (359) 
5.086

>  <logP>  (359) 
0.276

>  <lumo_energy>  (359) 
-2.191

>  <melting_point>  (359) 
124.13

>  <molecular_refractivity>  (359) 
30.13

>  <oscillator_strength_1>  (359) 
0.0025

>  <oscillator_strength_2>  (359) 
0.0049

>  <oscillator_strength_3>  (359) 
0.0159

>  <oscillator_strength_4>  (359) 
0.0391

>  <open_babel_can_smiles>  (359) 
[NH][C](c1cnccn1)O

>  <mulliken_charges>  (359) 
14
1   0.035097
2   0.045053
3   -0.01134
4   0.242375
5   0.45419
6   -0.569505
7   -0.371183
8   -0.452483
9   -0.584394
10   0.164976
11   0.164914
12   0.160458
13   0.313817
14   0.408027

>  <lowdin_charges>  (359) 
14
1   -0.093291
2   -0.094403
3   -0.115028
4   -0.003822
5   0.113161
6   -0.355317
7   -0.108768
8   -0.114007
9   -0.365783
10   0.16846
11   0.171093
12   0.167415
13   0.272034
14   0.358257

$$$$
PCCDB-ID:  1048
     RDKit          3D

  9  9  0  0  0  0  0  0  0  0999 V2000
   -1.1927   -0.0197    0.0015 C   0  0  0  0  0  0  0  0  0  0  0  0
   -0.3666   -1.1267    0.0018 C   0  0  0  0  0  0  0  0  0  0  0  0
   -0.3072    1.0825   -0.0009 C   0  0  0  0  0  0  0  0  0  0  0  0
    0.9052   -0.6482   -0.0005 N   0  0  0  0  0  0  0  0  0  0  0  0
    0.9699    0.7007   -0.0019 N   0  0  0  0  0  0  0  0  0  0  0  0
   -2.2729   -0.0097    0.0011 H   0  0  0  0  0  0  0  0  0  0  0  0
   -0.5769   -2.1868    0.0018 H   0  0  0  0  0  0  0  0  0  0  0  0
   -0.5464    2.1379   -0.0015 H   0  0  0  0  0  0  0  0  0  0  0  0
    1.7654   -1.1750    0.0005 H   0  0  0  0  0  0  0  0  0  0  0  0
  1  2  2  0
  2  7  1  0
  3  1  1  0
  4  9  1  0
  4  2  1  0
  5  3  2  0
  5  4  1  0
  6  1  1  0
  8  3  1  0
M  END
>  <HBA>  (360) 
1

>  <HBD>  (360) 
1

>  <TPSA>  (360) 
28.68

>  <cid>  (360) 
1048

>  <dipole>  (360) 
2.29

>  <excitation_energy_1>  (360) 
6.031

>  <excitation_energy_2>  (360) 
6.311

>  <excitation_energy_3>  (360) 
6.572

>  <excitation_energy_4>  (360) 
6.799

>  <homo_energy>  (360) 
-6.621

>  <homo_lumo_gap>  (360) 
7.276

>  <logP>  (360) 
0.41

>  <lumo_energy>  (360) 
0.656

>  <melting_point>  (360) 
65.09

>  <molecular_refractivity>  (360) 
18.59

>  <oscillator_strength_1>  (360) 
0.0072

>  <oscillator_strength_2>  (360) 
0.0

>  <oscillator_strength_3>  (360) 
0.0672

>  <oscillator_strength_4>  (360) 
0.0125

>  <open_babel_can_smiles>  (360) 
c1ccn[nH]1

>  <mulliken_charges>  (360) 
9
1   -0.226577
2   0.075423
3   0.04325
4   -0.393916
5   -0.277576
6   0.135702
7   0.157168
8   0.141021
9   0.345505

>  <lowdin_charges>  (360) 
9
1   -0.229563
2   -0.138131
3   -0.145229
4   -0.123442
5   -0.156518
6   0.16612
7   0.169105
8   0.161926
9   0.295731

$$$$
PCCDB-ID:  1049
     RDKit          3D

 11 11  0  0  0  0  0  0  0  0999 V2000
   -1.4112   -0.0767   -0.0183 C   0  0  0  0  0  0  0  0  0  0  0  0
   -0.7623    1.1574    0.0052 C   0  0  0  0  0  0  0  0  0  0  0  0
   -0.6374   -1.2367   -0.0019 C   0  0  0  0  0  0  0  0  0  0  0  0
    0.6333    1.1734    0.0433 C   0  0  0  0  0  0  0  0  0  0  0  0
    0.7522   -1.1078    0.0380 C   0  0  0  0  0  0  0  0  0  0  0  0
    1.3906    0.0692    0.0601 N   0  0  0  0  0  0  0  0  0  0  0  0
   -2.4961   -0.1332   -0.0488 H   0  0  0  0  0  0  0  0  0  0  0  0
   -1.3209    2.0888   -0.0054 H   0  0  0  0  0  0  0  0  0  0  0  0
   -1.0960   -2.2211   -0.0196 H   0  0  0  0  0  0  0  0  0  0  0  0
    1.1711    2.1204    0.0610 H   0  0  0  0  0  0  0  0  0  0  0  0
    1.3855   -1.9937    0.0531 H   0  0  0  0  0  0  0  0  0  0  0  0
  1  3  2  0
  1  2  1  0
  2  4  2  0
  3  5  1  0
  4  6  1  0
  4 10  1  0
  5 11  1  0
  5  6  2  0
  7  1  1  0
  8  2  1  0
  9  3  1  0
M  END
>  <HBA>  (361) 
1

>  <HBD>  (361) 
0

>  <TPSA>  (361) 
12.89

>  <cid>  (361) 
1049

>  <dipole>  (361) 
2.19

>  <excitation_energy_1>  (361) 
4.849

>  <excitation_energy_2>  (361) 
5.137

>  <excitation_energy_3>  (361) 
5.518

>  <excitation_energy_4>  (361) 
6.301

>  <homo_energy>  (361) 
-6.874

>  <homo_lumo_gap>  (361) 
6.261

>  <logP>  (361) 
1.082

>  <lumo_energy>  (361) 
-0.612

>  <melting_point>  (361) 
17.82

>  <molecular_refractivity>  (361) 
24.24

>  <oscillator_strength_1>  (361) 
0.0044

>  <oscillator_strength_2>  (361) 
0.0

>  <oscillator_strength_3>  (361) 
0.0392

>  <oscillator_strength_4>  (361) 
0.0159

>  <open_babel_can_smiles>  (361) 
c1cccnc1

>  <mulliken_charges>  (361) 
11
1   -0.104033
2   -0.136686
3   -0.136519
4   0.038858
5   0.038815
6   -0.405716
7   0.144356
8   0.138278
9   0.138256
10   0.142189
11   0.142203

>  <lowdin_charges>  (361) 
11
1   -0.125739
2   -0.176059
3   -0.17522
4   -0.087936
5   -0.088713
6   -0.149929
7   0.161256
8   0.164408
9   0.163814
10   0.156747
11   0.157372

$$$$
PCCDB-ID:  1050
     RDKit          3D

 21 21  0  0  0  0  0  0  0  0999 V2000
    0.8438   -0.1156   -0.0520 C   0  0  0  0  0  0  0  0  0  0  0  0
    4.3950   -1.0743   -0.1900 C   0  0  0  0  0  0  0  0  0  0  0  0
    6.6311    0.0897   -0.2454 C   0  0  0  0  0  0  0  0  0  0  0  0
    5.0351    2.6599   -0.1447 C   0  0  0  0  0  0  0  0  0  0  0  0
    2.3494   -0.0062   -0.1020 C   0  0  0  0  0  0  0  0  0  0  0  0
    5.1209    0.1180   -0.1937 C   0  0  0  0  0  0  0  0  0  0  0  0
    4.3900    1.3286   -0.1479 C   0  0  0  0  0  0  0  0  0  0  0  0
    2.9859    1.2497   -0.1034 C   0  0  0  0  0  0  0  0  0  0  0  0
    3.0564   -1.1359   -0.1442 N   0  0  0  0  0  0  0  0  0  0  0  0
    7.0685   -1.2635   -0.2847 O   0  0  0  0  0  0  0  0  0  0  0  0
    6.2422    2.8416   -0.1821 O   0  0  0  0  0  0  0  0  0  0  0  0
    2.2725    2.4126   -0.0626 O   0  0  0  0  0  0  0  0  0  0  0  0
    0.3622    0.3669   -0.9148 H   0  0  0  0  0  0  0  0  0  0  0  0
    0.4237    0.3307    0.8611 H   0  0  0  0  0  0  0  0  0  0  0  0
    0.5696   -1.1720   -0.0639 H   0  0  0  0  0  0  0  0  0  0  0  0
    4.9206   -2.0211   -0.2245 H   0  0  0  0  0  0  0  0  0  0  0  0
    7.0379    0.6198    0.6277 H   0  0  0  0  0  0  0  0  0  0  0  0
    6.9776    0.6509   -1.1251 H   0  0  0  0  0  0  0  0  0  0  0  0
    4.3429    3.5195   -0.1055 H   0  0  0  0  0  0  0  0  0  0  0  0
    8.0355   -1.2507   -0.3244 H   0  0  0  0  0  0  0  0  0  0  0  0
    1.3263    2.2042   -0.0275 H   0  0  0  0  0  0  0  0  0  0  0  0
  1 14  1  0
  2  9  2  0
  3  6  1  0
  3 17  1  0
  4 19  1  0
  5  1  1  0
  6  2  1  0
  6  7  2  0
  7  4  1  0
  7  8  1  0
  8  5  2  0
  8 12  1  0
  9  5  1  0
 10  3  1  0
 11  4  2  0
 12 21  1  0
 13  1  1  0
 15  1  1  0
 16  2  1  0
 18  3  1  0
 20 10  1  0
M  END
>  <HBA>  (362) 
4

>  <HBD>  (362) 
2

>  <TPSA>  (362) 
70.42

>  <cid>  (362) 
1050

>  <dipole>  (362) 
2.05

>  <excitation_energy_1>  (362) 
3.382

>  <excitation_energy_2>  (362) 
3.839

>  <excitation_energy_3>  (362) 
4.052

>  <excitation_energy_4>  (362) 
4.665

>  <homo_energy>  (362) 
-6.457

>  <homo_lumo_gap>  (362) 
4.484

>  <logP>  (362) 
0.4

>  <lumo_energy>  (362) 
-1.973

>  <melting_point>  (362) 
121.86

>  <molecular_refractivity>  (362) 
42.74

>  <oscillator_strength_1>  (362) 
0.0

>  <oscillator_strength_2>  (362) 
0.0935

>  <oscillator_strength_3>  (362) 
0.002

>  <oscillator_strength_4>  (362) 
0.0359

>  <open_babel_can_smiles>  (362) 
O=Cc1c(CO)cnc(c1O)C

>  <mulliken_charges>  (362) 
21
1   -0.569953
2   -0.007851
3   -0.083197
4   0.196029
5   0.290496
6   0.042684
7   0.055291
8   0.2363
9   -0.462429
10   -0.626463
11   -0.418105
12   -0.645291
13   0.162319
14   0.162412
15   0.199589
16   0.176854
17   0.1587
18   0.158548
19   0.146367
20   0.401794
21   0.425904

>  <lowdin_charges>  (362) 
21
1   -0.462514
2   -0.115318
3   -0.137185
4   0.045168
5   0.000981
6   0.004899
7   -0.072748
8   0.088807
9   -0.130364
10   -0.465893
11   -0.230098
12   -0.368004
13   0.158989
14   0.158691
15   0.184628
16   0.176746
17   0.153027
18   0.152932
19   0.143649
20   0.348955
21   0.364651

$$$$
PCCDB-ID:  1052
     RDKit          3D

 24 24  0  0  0  0  0  0  0  0999 V2000
    0.9462   -0.1125    0.0767 C   0  0  0  0  0  0  0  0  0  0  0  0
    5.2508    2.5542   -0.1089 C   0  0  0  0  0  0  0  0  0  0  0  0
    4.4450   -1.1719   -0.2439 C   0  0  0  0  0  0  0  0  0  0  0  0
    6.7229   -0.0827   -0.3195 C   0  0  0  0  0  0  0  0  0  0  0  0
    2.4516   -0.0518   -0.0348 C   0  0  0  0  0  0  0  0  0  0  0  0
    5.2078   -0.0020   -0.2378 C   0  0  0  0  0  0  0  0  0  0  0  0
    4.5251    1.2250   -0.1256 C   0  0  0  0  0  0  0  0  0  0  0  0
    3.1300    1.1821   -0.0152 C   0  0  0  0  0  0  0  0  0  0  0  0
    6.0580    2.6971    1.1272 N   0  0  0  0  0  0  0  0  0  0  0  0
    3.1114   -1.2074   -0.1507 N   0  0  0  0  0  0  0  0  0  0  0  0
    7.3705    0.1901    0.9085 O   0  0  0  0  0  0  0  0  0  0  0  0
    2.4536    2.3705    0.1117 O   0  0  0  0  0  0  0  0  0  0  0  0
    0.5806    0.3172    1.0207 H   0  0  0  0  0  0  0  0  0  0  0  0
    0.6343   -1.1580    0.0420 H   0  0  0  0  0  0  0  0  0  0  0  0
    0.4452    0.4158   -0.7479 H   0  0  0  0  0  0  0  0  0  0  0  0
    4.5275    3.3663   -0.2419 H   0  0  0  0  0  0  0  0  0  0  0  0
    5.9514    2.5977   -0.9511 H   0  0  0  0  0  0  0  0  0  0  0  0
    4.9410   -2.1374   -0.3298 H   0  0  0  0  0  0  0  0  0  0  0  0
    7.0848    0.5829   -1.1240 H   0  0  0  0  0  0  0  0  0  0  0  0
    7.0073   -1.1009   -0.6053 H   0  0  0  0  0  0  0  0  0  0  0  0
    5.4357    2.7151    1.9348 H   0  0  0  0  0  0  0  0  0  0  0  0
    6.5437    3.5936    1.1154 H   0  0  0  0  0  0  0  0  0  0  0  0
    7.0987    1.1057    1.1552 H   0  0  0  0  0  0  0  0  0  0  0  0
    1.5029    2.1879    0.1543 H   0  0  0  0  0  0  0  0  0  0  0  0
  1 13  1  0
  2  9  1  0
  3  6  2  0
  3 10  1  0
  4  6  1  0
  4 11  1  0
  5  8  1  0
  5  1  1  0
  6  7  1  0
  7  2  1  0
  7  8  2  0
  8 12  1  0
  9 21  1  0
 10  5  2  0
 11 23  1  0
 12 24  1  0
 14  1  1  0
 15  1  1  0
 16  2  1  0
 17  2  1  0
 18  3  1  0
 19  4  1  0
 20  4  1  0
 22  9  1  0
M  END
>  <HBA>  (363) 
4

>  <HBD>  (363) 
3

>  <TPSA>  (363) 
79.37

>  <cid>  (363) 
1052

>  <dipole>  (363) 
4.79

>  <excitation_energy_1>  (363) 
4.685

>  <excitation_energy_2>  (363) 
4.852

>  <excitation_energy_3>  (363) 
5.294

>  <excitation_energy_4>  (363) 
5.335

>  <homo_energy>  (363) 
-6.199

>  <homo_lumo_gap>  (363) 
5.551

>  <logP>  (363) 
0.747

>  <lumo_energy>  (363) 
-0.648

>  <melting_point>  (363) 
146.18

>  <molecular_refractivity>  (363) 
45.03

>  <oscillator_strength_1>  (363) 
0.0063

>  <oscillator_strength_2>  (363) 
0.0991

>  <oscillator_strength_3>  (363) 
0.0043

>  <oscillator_strength_4>  (363) 
0.0015

>  <open_babel_can_smiles>  (363) 
NCc1c(CO)cnc(c1O)C

>  <mulliken_charges>  (363) 
24
1   -0.568581
2   -0.228803
3   -0.023888
4   -0.107528
5   0.290723
6   0.087076
7   0.107555
8   0.232474
9   -0.741124
10   -0.470087
11   -0.646308
12   -0.658006
13   0.15874
14   0.195954
15   0.15822
16   0.169307
17   0.16364
18   0.137269
19   0.11209
20   0.14367
21   0.320315
22   0.315715
23   0.431337
24   0.42024

>  <lowdin_charges>  (363) 
24
1   -0.462388
2   -0.20753
3   -0.116299
4   -0.129536
5   0.004055
6   -0.028986
7   -0.031442
8   0.067252
9   -0.532474
10   -0.146713
11   -0.491914
12   -0.385683
13   0.156315
14   0.18255
15   0.156812
16   0.154014
17   0.15686
18   0.156213
19   0.12423
20   0.147997
21   0.26752
22   0.264188
23   0.334569
24   0.360391

$$$$
PCCDB-ID:  1054
     RDKit          3D

 23 23  0  0  0  0  0  0  0  0999 V2000
    0.9216   -0.0317    0.0701 C   0  0  0  0  0  0  0  0  0  0  0  0
    4.4337   -1.0946    0.1292 C   0  0  0  0  0  0  0  0  0  0  0  0
    6.7091   -0.0051    0.0559 C   0  0  0  0  0  0  0  0  0  0  0  0
    5.2296    2.6238   -0.0505 C   0  0  0  0  0  0  0  0  0  0  0  0
    2.4309    0.0282    0.0710 C   0  0  0  0  0  0  0  0  0  0  0  0
    5.1935    0.0758    0.0765 C   0  0  0  0  0  0  0  0  0  0  0  0
    4.5047    1.3020    0.0152 C   0  0  0  0  0  0  0  0  0  0  0  0
    3.1056    1.2632    0.0100 C   0  0  0  0  0  0  0  0  0  0  0  0
    3.0972   -1.1279    0.1295 N   0  0  0  0  0  0  0  0  0  0  0  0
    7.2687    0.1970   -1.2310 O   0  0  0  0  0  0  0  0  0  0  0  0
    5.9594    2.6920   -1.2922 O   0  0  0  0  0  0  0  0  0  0  0  0
    2.4243    2.4512   -0.0411 O   0  0  0  0  0  0  0  0  0  0  0  0
    0.4837    0.4976    0.9289 H   0  0  0  0  0  0  0  0  0  0  0  0
    0.6119   -1.0769    0.1259 H   0  0  0  0  0  0  0  0  0  0  0  0
    0.4889    0.3988   -0.8449 H   0  0  0  0  0  0  0  0  0  0  0  0
    4.9343   -2.0604    0.1741 H   0  0  0  0  0  0  0  0  0  0  0  0
    7.0169   -1.0070    0.3711 H   0  0  0  0  0  0  0  0  0  0  0  0
    7.1299    0.7031    0.7912 H   0  0  0  0  0  0  0  0  0  0  0  0
    5.9240    2.7090    0.7985 H   0  0  0  0  0  0  0  0  0  0  0  0
    4.5121    3.4468    0.0094 H   0  0  0  0  0  0  0  0  0  0  0  0
    6.9676    1.0828   -1.5129 H   0  0  0  0  0  0  0  0  0  0  0  0
    6.4646    3.5205   -1.2920 H   0  0  0  0  0  0  0  0  0  0  0  0
    1.4728    2.2694   -0.0667 H   0  0  0  0  0  0  0  0  0  0  0  0
  1  5  1  0
  1 14  1  0
  1 13  1  0
  2  9  2  0
  2 16  1  0
  3  6  1  0
  3 17  1  0
  3 18  1  0
  4 20  1  0
  4  7  1  0
  4 19  1  0
  5  9  1  0
  6  2  1  0
  7  6  2  0
  8  7  1  0
  8  5  2  0
 10  3  1  0
 11 22  1  0
 11  4  1  0
 12  8  1  0
 15  1  1  0
 21 10  1  0
 23 12  1  0
M  END
>  <HBA>  (364) 
4

>  <HBD>  (364) 
3

>  <TPSA>  (364) 
73.58

>  <cid>  (364) 
1054

>  <dipole>  (364) 
4.45

>  <excitation_energy_1>  (364) 
4.667

>  <excitation_energy_2>  (364) 
4.775

>  <excitation_energy_3>  (364) 
5.369

>  <excitation_energy_4>  (364) 
5.388

>  <homo_energy>  (364) 
-6.259

>  <homo_lumo_gap>  (364) 
5.486

>  <logP>  (364) 
0.08

>  <lumo_energy>  (364) 
-0.773

>  <melting_point>  (364) 
110.55

>  <molecular_refractivity>  (364) 
43.48

>  <oscillator_strength_1>  (364) 
0.0046

>  <oscillator_strength_2>  (364) 
0.1038

>  <oscillator_strength_3>  (364) 
0.0035

>  <oscillator_strength_4>  (364) 
0.0015

>  <open_babel_can_smiles>  (364) 
OCc1c(CO)cnc(c1O)C

>  <mulliken_charges>  (364) 
23
1   -0.568955
2   -0.020783
3   -0.10846
4   -0.129943
5   0.2913
6   0.085301
7   0.111113
8   0.240164
9   -0.469052
10   -0.636193
11   -0.618587
12   -0.654951
13   0.159261
14   0.196324
15   0.161018
16   0.138848
17   0.148168
18   0.113801
19   0.144454
20   0.173421
21   0.417462
22   0.404913
23   0.421377

>  <lowdin_charges>  (364) 
23
1   -0.462298
2   -0.114571
3   -0.130527
4   -0.134458
5   0.006205
6   -0.028205
7   -0.031111
8   0.074533
9   -0.144014
10   -0.480327
11   -0.460574
12   -0.379837
13   0.157321
14   0.182797
15   0.157825
16   0.157043
17   0.151054
18   0.126017
19   0.142014
20   0.159834
21   0.338648
22   0.351289
23   0.361344

$$$$
PCCDB-ID:  1056
     RDKit          3D

 12 12  0  0  0  0  0  0  0  0999 V2000
   -0.3148    1.3350   -0.2492 C   0  0  0  0  0  3  0  0  0  0  0  0
   -1.3371    0.4524   -0.0659 C   0  0  0  0  0  3  0  0  0  0  0  0
    1.0068    0.8428    0.0990 C   0  0  0  0  0  3  0  0  0  0  0  0
    0.2980   -1.3153   -0.2524 C   0  0  0  0  0  0  0  0  0  0  0  0
   -1.0727   -0.8809    0.0518 N   0  0  0  0  0  0  0  0  0  0  0  0
    1.3273   -0.3991    0.2292 N   0  0  0  0  0  2  0  0  0  0  0  0
   -0.5011    2.3927   -0.3889 H   0  0  0  0  0  0  0  0  0  0  0  0
   -2.3797    0.7501    0.0244 H   0  0  0  0  0  0  0  0  0  0  0  0
    1.7641    1.5793    0.3808 H   0  0  0  0  0  0  0  0  0  0  0  0
    0.3922   -1.4060   -1.3485 H   0  0  0  0  0  0  0  0  0  0  0  0
    0.4465   -2.3072    0.1826 H   0  0  0  0  0  0  0  0  0  0  0  0
   -1.6505   -1.4410    0.6650 H   0  0  0  0  0  0  0  0  0  0  0  0
  1  2  1  0
  1  3  1  0
  2  8  1  0
  2  5  1  0
  3  6  1  0
  3  9  1  0
  4  5  1  0
  4 11  1  0
  4  6  1  0
  5 12  1  0
  7  1  1  0
 10  4  1  0
M  RAD  4   1   2   2   2   3   2   6   2
M  END
>  <HBA>  (365) 
2

>  <HBD>  (365) 
1

>  <TPSA>  (365) 
24.39

>  <cid>  (365) 
1056

>  <dipole>  (365) 
2.91

>  <excitation_energy_1>  (365) 
3.962

>  <excitation_energy_2>  (365) 
4.675

>  <excitation_energy_3>  (365) 
4.95

>  <excitation_energy_4>  (365) 
5.504

>  <homo_energy>  (365) 
-5.391

>  <homo_lumo_gap>  (365) 
4.863

>  <logP>  (365) 
-0.104

>  <lumo_energy>  (365) 
-0.528

>  <melting_point>  (365) 
52.18

>  <molecular_refractivity>  (365) 
32.48

>  <oscillator_strength_1>  (365) 
0.0395

>  <oscillator_strength_2>  (365) 
0.0005

>  <oscillator_strength_3>  (365) 
0.0602

>  <oscillator_strength_4>  (365) 
0.0176

>  <open_babel_can_smiles>  (365) 
[CH]1[CH][CH]NC[N]1

>  <mulliken_charges>  (365) 
12
1   -0.212434
2   0.091909
3   0.054164
4   -0.007503
5   -0.56685
6   -0.394494
7   0.125645
8   0.149694
9   0.135823
10   0.149256
11   0.147272
12   0.327519

>  <lowdin_charges>  (365) 
12
1   -0.281485
2   -0.061306
3   -0.07681
4   -0.129661
5   -0.27382
6   -0.218458
7   0.161851
8   0.159585
9   0.153657
10   0.133655
11   0.149464
12   0.283328

$$$$
PCCDB-ID:  1057
     RDKit          3D

 15 15  0  0  0  0  0  0  0  0999 V2000
   -1.2016   -0.6895    0.0457 C   0  0  0  0  0  0  0  0  0  0  0  0
   -0.0015   -1.4005    0.0703 C   0  0  0  0  0  0  0  0  0  0  0  0
   -1.1935    0.7033   -0.0264 C   0  0  0  0  0  0  0  0  0  0  0  0
    1.2017   -0.6972    0.0227 C   0  0  0  0  0  0  0  0  0  0  0  0
    0.0170    1.4034   -0.0747 C   0  0  0  0  0  0  0  0  0  0  0  0
    1.2297    0.7010   -0.0488 C   0  0  0  0  0  0  0  0  0  0  0  0
    2.4475   -1.2895    0.0392 O   0  0  0  0  0  0  0  0  0  0  0  0
    0.0945    2.7662   -0.1466 O   0  0  0  0  0  0  0  0  0  0  0  0
    2.4100    1.3837   -0.0950 O   0  0  0  0  0  0  0  0  0  0  0  0
   -2.1467   -1.2226    0.0832 H   0  0  0  0  0  0  0  0  0  0  0  0
    0.0042   -2.4868    0.1256 H   0  0  0  0  0  0  0  0  0  0  0  0
   -2.1290    1.2588   -0.0462 H   0  0  0  0  0  0  0  0  0  0  0  0
    2.3466   -2.2491    0.1222 H   0  0  0  0  0  0  0  0  0  0  0  0
   -0.8071    3.1224   -0.1566 H   0  0  0  0  0  0  0  0  0  0  0  0
    3.1200    0.7199   -0.0667 H   0  0  0  0  0  0  0  0  0  0  0  0
  1  2  2  0
  1 10  1  0
  2 11  1  0
  3  1  1  0
  4  7  1  0
  4  2  1  0
  5  6  1  0
  5  3  2  0
  6  4  2  0
  7 13  1  0
  8  5  1  0
  9 15  1  0
  9  6  1  0
 12  3  1  0
 14  8  1  0
M  END
>  <HBA>  (366) 
3

>  <HBD>  (366) 
3

>  <TPSA>  (366) 
60.69

>  <cid>  (366) 
1057

>  <dipole>  (366) 
2.73

>  <excitation_energy_1>  (366) 
4.647

>  <excitation_energy_2>  (366) 
4.993

>  <excitation_energy_3>  (366) 
5.011

>  <excitation_energy_4>  (366) 
5.143

>  <homo_energy>  (366) 
-5.448

>  <homo_lumo_gap>  (366) 
5.965

>  <logP>  (366) 
0.803

>  <lumo_energy>  (366) 
0.517

>  <melting_point>  (366) 
125.24

>  <molecular_refractivity>  (366) 
32.51

>  <oscillator_strength_1>  (366) 
0.0014

>  <oscillator_strength_2>  (366) 
0.0102

>  <oscillator_strength_3>  (366) 
0.0009

>  <oscillator_strength_4>  (366) 
0.0

>  <open_babel_can_smiles>  (366) 
Oc1c(O)cccc1O

>  <mulliken_charges>  (366) 
15
1   -0.144783
2   -0.198202
3   -0.200845
4   0.303001
5   0.308955
6   0.280517
7   -0.680111
8   -0.632022
9   -0.645041
10   0.127816
11   0.11594
12   0.114597
13   0.41698
14   0.407125
15   0.426073

>  <lowdin_charges>  (366) 
15
1   -0.159468
2   -0.222714
3   -0.225077
4   0.062539
5   0.084236
6   0.051801
7   -0.399838
8   -0.36917
9   -0.372679
10   0.159266
11   0.151837
12   0.153704
13   0.363073
14   0.357005
15   0.365485

$$$$
PCCDB-ID:  1059
     RDKit          3D

 16 16  0  0  1  0  0  0  0  0999 V2000
   -1.2929    0.2913   -0.4050 C   0  0  0  0  0  0  0  0  0  0  0  0
    0.9026    0.1412    0.4930 C   0  0  0  0  0  3  0  0  0  0  0  0
   -0.1349    1.1844    0.1027 C   0  0  2  0  0  0  0  0  0  0  0  0
   -0.8999   -1.1292    0.0599 C   0  0  1  0  0  0  0  0  0  0  0  0
   -1.0514   -2.2191   -1.0122 C   0  0  0  0  0  0  0  0  0  0  0  0
    0.5061   -1.0708    0.5173 N   0  0  0  0  0  2  0  0  0  0  0  0
   -0.4456    2.0337    1.2043 O   0  0  0  0  0  0  0  0  0  0  0  0
   -1.9451   -2.2267   -1.8220 O   0  0  0  0  0  0  0  0  0  0  0  0
   -0.1241   -3.1926   -0.9430 O   0  0  0  0  0  0  0  0  0  0  0  0
   -1.3716    0.3193   -1.4949 H   0  0  0  0  0  0  0  0  0  0  0  0
   -2.2517    0.6277   -0.0025 H   0  0  0  0  0  0  0  0  0  0  0  0
    1.9156    0.4067    0.7954 H   0  0  0  0  0  0  0  0  0  0  0  0
    0.2403    1.8650   -0.6670 H   0  0  0  0  0  0  0  0  0  0  0  0
   -1.5056   -1.4726    0.9114 H   0  0  0  0  0  0  0  0  0  0  0  0
   -0.7868    1.4789    1.9248 H   0  0  0  0  0  0  0  0  0  0  0  0
    0.5384   -2.9174   -0.2732 H   0  0  0  0  0  0  0  0  0  0  0  0
  1 11  1  0
  1  4  1  0
  1  3  1  0
  2  6  1  0
  2 12  1  0
  3 13  1  6
  3  2  1  0
  3  7  1  0
  4  6  1  0
  4 14  1  1
  5  9  1  0
  5  4  1  0
  7 15  1  0
  8  5  2  0
  9 16  1  0
 10  1  1  0
M  RAD  2   2   2   6   2
M  END
>  <HBA>  (367) 
4

>  <HBD>  (367) 
2

>  <TPSA>  (367) 
69.89

>  <cid>  (367) 
1059

>  <dipole>  (367) 
3.75

>  <excitation_energy_1>  (367) 
5.042

>  <excitation_energy_2>  (367) 
5.415

>  <excitation_energy_3>  (367) 
5.654

>  <excitation_energy_4>  (367) 
6.015

>  <homo_energy>  (367) 
-7.336

>  <homo_lumo_gap>  (367) 
6.144

>  <logP>  (367) 
-1.289

>  <lumo_energy>  (367) 
-1.192

>  <melting_point>  (367) 
110.32

>  <molecular_refractivity>  (367) 
33.98

>  <oscillator_strength_1>  (367) 
0.0035

>  <oscillator_strength_2>  (367) 
0.0344

>  <oscillator_strength_3>  (367) 
0.009

>  <oscillator_strength_4>  (367) 
0.0091

>  <open_babel_can_smiles>  (367) 
O[C@H]1[CH][N][C@@H](C1)C(=O)O

>  <mulliken_charges>  (367) 
16
1   -0.322671
2   0.061409
3   0.081163
4   -0.105347
5   0.602272
6   -0.389416
7   -0.608432
8   -0.447997
9   -0.572656
10   0.188068
11   0.169455
12   0.168781
13   0.1647
14   0.188841
15   0.391267
16   0.430564

>  <lowdin_charges>  (367) 
16
1   -0.302192
2   -0.085039
3   -0.020446
4   -0.116803
5   0.182464
6   -0.177247
7   -0.445117
8   -0.242368
9   -0.347693
10   0.174573
11   0.168136
12   0.168163
13   0.16261
14   0.17391
15   0.345107
16   0.361943

$$$$
PCCDB-ID:  1060
     RDKit          3D

 10  9  0  0  0  0  0  0  0  0999 V2000
    1.2051    0.6083    0.6994 C   0  0  0  0  0  0  0  0  0  0  0  0
    2.4795    0.0108    0.1586 C   0  0  0  0  0  0  0  0  0  0  0  0
    3.1694    0.8511   -0.9417 C   0  0  0  0  0  0  0  0  0  0  0  0
    2.9616   -1.0372    0.5241 O   0  0  0  0  0  0  0  0  0  0  0  0
    4.2958    0.2771   -1.3919 O   0  0  0  0  0  0  0  0  0  0  0  0
    2.7292    1.9069   -1.3415 O   0  0  0  0  0  0  0  0  0  0  0  0
    1.3999    1.6039    1.1140 H   0  0  0  0  0  0  0  0  0  0  0  0
    0.7931   -0.0478    1.4676 H   0  0  0  0  0  0  0  0  0  0  0  0
    0.4796    0.7492   -0.1098 H   0  0  0  0  0  0  0  0  0  0  0  0
    4.6545    0.8742   -2.0758 H   0  0  0  0  0  0  0  0  0  0  0  0
  1  7  1  0
  1  8  1  0
  2  4  2  0
  2  1  1  0
  3  2  1  0
  5  3  1  0
  6  3  2  0
  9  1  1  0
 10  5  1  0
M  END
>  <HBA>  (368) 
3

>  <HBD>  (368) 
1

>  <TPSA>  (368) 
54.37

>  <cid>  (368) 
1060

>  <dipole>  (368) 
1.26

>  <excitation_energy_1>  (368) 
3.267

>  <excitation_energy_2>  (368) 
5.057

>  <excitation_energy_3>  (368) 
6.322

>  <excitation_energy_4>  (368) 
6.546

>  <homo_energy>  (368) 
-7.108

>  <homo_lumo_gap>  (368) 
4.925

>  <logP>  (368) 
-0.34

>  <lumo_energy>  (368) 
-2.182

>  <melting_point>  (368) 
73.98

>  <molecular_refractivity>  (368) 
18.51

>  <oscillator_strength_1>  (368) 
0.0

>  <oscillator_strength_2>  (368) 
0.0001

>  <oscillator_strength_3>  (368) 
0.0342

>  <oscillator_strength_4>  (368) 
0.0237

>  <open_babel_can_smiles>  (368) 
OC(=O)C(=O)C

>  <mulliken_charges>  (368) 
10
1   -0.522556
2   0.401298
3   0.517509
4   -0.39551
5   -0.536134
6   -0.445011
7   0.190413
8   0.182551
9   0.190363
10   0.417077

>  <lowdin_charges>  (368) 
10
1   -0.467244
2   0.138645
3   0.156816
4   -0.177972
5   -0.320193
6   -0.244784
7   0.184
8   0.176782
9   0.185003
10   0.368947

$$$$
PCCDB-ID:  1066
     RDKit          3D

 17 17  0  0  0  0  0  0  0  0999 V2000
   -1.0860   -0.5850    0.0484 C   0  0  0  0  0  0  0  0  0  0  0  0
    0.0876   -1.2808   -0.1997 C   0  0  0  0  0  0  0  0  0  0  0  0
   -0.9897    0.7554    0.4208 C   0  0  0  0  0  0  0  0  0  0  0  0
    1.3453   -0.6621   -0.0822 C   0  0  0  0  0  0  0  0  0  0  0  0
    1.3308    0.6977    0.2989 C   0  0  0  0  0  0  0  0  0  0  0  0
    2.5135   -1.6148   -0.3975 C   0  0  0  0  0  0  0  0  0  0  0  0
    2.5267    1.6167    0.5029 C   0  0  0  0  0  0  0  0  0  0  0  0
    0.1851    1.3666    0.5381 N   0  0  0  0  0  0  0  0  0  0  0  0
    2.2530   -2.7608   -0.7046 O   0  0  0  0  0  0  0  0  0  0  0  0
    3.7603   -1.1843   -0.3308 O   0  0  0  0  0  0  0  0  0  0  0  0
    3.6966    1.2953    0.3560 O   0  0  0  0  0  0  0  0  0  0  0  0
    2.1978    2.8456    0.8668 O   0  0  0  0  0  0  0  0  0  0  0  0
   -2.0546   -1.0658   -0.0423 H   0  0  0  0  0  0  0  0  0  0  0  0
    0.0795   -2.3247   -0.4919 H   0  0  0  0  0  0  0  0  0  0  0  0
   -1.8718    1.3558    0.6290 H   0  0  0  0  0  0  0  0  0  0  0  0
    3.8242   -0.2221   -0.0698 H   0  0  0  0  0  0  0  0  0  0  0  0
    1.2067    2.8504    0.9145 H   0  0  0  0  0  0  0  0  0  0  0  0
  1  3  2  0
  2  4  2  0
  2  1  1  0
  3  8  1  0
  3 15  1  0
  4  5  1  0
  5  7  1  0
  5  8  2  0
  6 10  1  0
  6  4  1  0
  7 12  1  0
  9  6  2  0
 10 16  1  0
 11  7  2  0
 12 17  1  0
 13  1  1  0
 14  2  1  0
M  END
>  <HBA>  (369) 
5

>  <HBD>  (369) 
2

>  <TPSA>  (369) 
87.49

>  <cid>  (369) 
1066

>  <dipole>  (369) 
6.57

>  <excitation_energy_1>  (369) 
3.853

>  <excitation_energy_2>  (369) 
4.4

>  <excitation_energy_3>  (369) 
4.581

>  <excitation_energy_4>  (369) 
4.909

>  <homo_energy>  (369) 
-7.529

>  <homo_lumo_gap>  (369) 
4.849

>  <logP>  (369) 
0.478

>  <lumo_energy>  (369) 
-2.68

>  <melting_point>  (369) 
202.48

>  <molecular_refractivity>  (369) 
38.16

>  <oscillator_strength_1>  (369) 
0.0

>  <oscillator_strength_2>  (369) 
0.0007

>  <oscillator_strength_3>  (369) 
0.0

>  <oscillator_strength_4>  (369) 
0.0346

>  <open_babel_can_smiles>  (369) 
OC(=O)c1ncccc1C(=O)O

>  <mulliken_charges>  (369) 
17
1   -0.143119
2   -0.115453
3   0.063924
4   0.001752
5   0.190626
6   0.593703
7   0.638482
8   -0.558754
9   -0.461388
10   -0.595212
11   -0.503139
12   -0.561622
13   0.168323
14   0.207578
15   0.171846
16   0.462212
17   0.44024

>  <lowdin_charges>  (369) 
17
1   -0.150471
2   -0.090111
3   -0.06812
4   -0.043648
5   0.003776
6   0.186084
7   0.200186
8   -0.15733
9   -0.257808
10   -0.339454
11   -0.25835
12   -0.309924
13   0.179414
14   0.198089
15   0.172815
16   0.369857
17   0.364994

$$$$
PCCDB-ID:  1068
     RDKit          3D

  9  8  0  0  0  0  0  0  0  0999 V2000
    1.0270   -0.0874   -0.1241 C   0  0  0  0  0  0  0  0  0  0  0  0
    3.3038   -0.4017   -1.7030 C   0  0  0  0  0  0  0  0  0  0  0  0
    2.8463   -0.0566    0.0308 S   0  0  0  0  0  0  0  0  0  0  0  0
    0.6163    0.1103    0.8695 H   0  0  0  0  0  0  0  0  0  0  0  0
    0.6735   -1.0666   -0.4624 H   0  0  0  0  0  0  0  0  0  0  0  0
    0.6735    0.6878   -0.8114 H   0  0  0  0  0  0  0  0  0  0  0  0
    4.3958   -0.4114   -1.7517 H   0  0  0  0  0  0  0  0  0  0  0  0
    2.9285    0.3764   -2.3754 H   0  0  0  0  0  0  0  0  0  0  0  0
    2.9284   -1.3779   -2.0260 H   0  0  0  0  0  0  0  0  0  0  0  0
  1  3  1  0
  1  4  1  0
  2  3  1  0
  5  1  1  0
  6  1  1  0
  7  2  1  0
  8  2  1  0
  9  2  1  0
M  END
>  <HBA>  (370) 
1

>  <HBD>  (370) 
0

>  <TPSA>  (370) 
25.3

>  <cid>  (370) 
1068

>  <dipole>  (370) 
1.72

>  <excitation_energy_1>  (370) 
5.099

>  <excitation_energy_2>  (370) 
5.383

>  <excitation_energy_3>  (370) 
5.915

>  <excitation_energy_4>  (370) 
6.465

>  <homo_energy>  (370) 
-5.905

>  <homo_lumo_gap>  (370) 
7.097

>  <logP>  (370) 
0.979

>  <lumo_energy>  (370) 
1.192

>  <melting_point>  (370) 
-14.94

>  <molecular_refractivity>  (370) 
19.32

>  <oscillator_strength_1>  (370) 
0.0

>  <oscillator_strength_2>  (370) 
0.0015

>  <oscillator_strength_3>  (370) 
0.0342

>  <oscillator_strength_4>  (370) 
0.0339

>  <open_babel_can_smiles>  (370) 
CSC

>  <mulliken_charges>  (370) 
9
1   -0.57768
2   -0.577812
3   0.089409
4   0.183453
5   0.174753
6   0.174767
7   0.183492
8   0.174801
9   0.174818

>  <lowdin_charges>  (370) 
9
1   -0.547767
2   -0.546188
3   0.102551
4   0.175233
5   0.159964
6   0.161151
7   0.173864
8   0.161225
9   0.159965

$$$$
PCCDB-ID:  1081
     RDKit          3D

 18 17  0  0  1  0  0  0  0  0999 V2000
    1.0343   -0.2056   -0.3325 C   0  0  0  0  0  0  0  0  0  0  0  0
    3.2900   -1.2477    0.3272 C   0  0  0  0  0  0  0  0  0  0  0  0
    2.8535   -2.5972   -0.2680 C   0  0  0  0  0  0  0  0  0  0  0  0
    3.1276    0.5500   -1.4811 C   0  0  0  0  0  0  0  0  0  0  0  0
    2.5436    0.0232   -0.1543 C   0  0  1  0  0  0  0  0  0  0  0  0
    2.5279   -3.5190    0.4438 O   0  0  0  0  0  0  0  0  0  0  0  0
    2.8657   -2.7098   -1.6039 O   0  0  0  0  0  0  0  0  0  0  0  0
    3.3748   -0.1773   -2.4261 O   0  0  0  0  0  0  0  0  0  0  0  0
    3.3138    1.8644   -1.5436 O   0  0  0  0  0  0  0  0  0  0  0  0
    2.7819    1.0881    0.7860 O   0  0  0  0  0  0  0  0  0  0  0  0
    0.8404   -0.9393   -1.1189 H   0  0  0  0  0  0  0  0  0  0  0  0
    0.5349    0.7323   -0.5955 H   0  0  0  0  0  0  0  0  0  0  0  0
    0.6036   -0.5906    0.6000 H   0  0  0  0  0  0  0  0  0  0  0  0
    4.3675   -1.1143    0.1701 H   0  0  0  0  0  0  0  0  0  0  0  0
    3.1284   -1.3364    1.4040 H   0  0  0  0  0  0  0  0  0  0  0  0
    3.1381   -1.8569   -2.0252 H   0  0  0  0  0  0  0  0  0  0  0  0
    3.1150    2.2173   -0.6481 H   0  0  0  0  0  0  0  0  0  0  0  0
    2.1584    0.9989    1.5239 H   0  0  0  0  0  0  0  0  0  0  0  0
  1  5  1  0
  1 13  1  0
  2 15  1  0
  3  2  1  0
  3  6  2  0
  5  4  1  0
  5  2  1  0
  5 10  1  1
  7  3  1  0
  8  4  2  0
  9  4  1  0
  9 17  1  0
 10 18  1  0
 11  1  1  0
 12  1  1  0
 14  2  1  0
 16  7  1  0
M  END
>  <HBA>  (371) 
5

>  <HBD>  (371) 
3

>  <TPSA>  (371) 
94.83

>  <cid>  (371) 
1081

>  <dipole>  (371) 
5.89

>  <excitation_energy_1>  (371) 
5.476

>  <excitation_energy_2>  (371) 
5.629

>  <excitation_energy_3>  (371) 
6.018

>  <excitation_energy_4>  (371) 
6.13

>  <homo_energy>  (371) 
-7.132

>  <homo_lumo_gap>  (371) 
6.411

>  <logP>  (371) 
-0.703

>  <lumo_energy>  (371) 
-0.721

>  <melting_point>  (371) 
158.06

>  <molecular_refractivity>  (371) 
30.89

>  <oscillator_strength_1>  (371) 
0.0052

>  <oscillator_strength_2>  (371) 
0.0021

>  <oscillator_strength_3>  (371) 
0.0072

>  <oscillator_strength_4>  (371) 
0.0009

>  <open_babel_can_smiles>  (371) 
OC(=O)C[C@](C(=O)O)(O)C

>  <mulliken_charges>  (371) 
18
1   -0.486564
2   -0.386783
3   0.582632
4   0.632099
5   0.193474
6   -0.450341
7   -0.58981
8   -0.484215
9   -0.556705
10   -0.669442
11   0.199076
12   0.168928
13   0.171138
14   0.187272
15   0.17729
16   0.448819
17   0.446611
18   0.41652

>  <lowdin_charges>  (371) 
18
1   -0.458817
2   -0.321399
3   0.186491
4   0.199964
5   0.083948
6   -0.254246
7   -0.365456
8   -0.25975
9   -0.31446
10   -0.45671
11   0.183841
12   0.164743
13   0.165704
14   0.176088
15   0.174728
16   0.36097
17   0.372808
18   0.361553

$$$$
PCCDB-ID:  1088
     RDKit          3D

 13 12  0  0  0  0  0  0  0  0999 V2000
    1.0279   -0.2613   -0.0736 C   0  0  0  0  0  0  0  0  0  0  0  0
    3.0435    0.3431    1.2196 C   0  0  0  0  0  0  0  0  0  0  0  0
    4.5517    0.0449    1.2273 C   0  0  0  0  0  0  0  0  0  0  0  0
    2.4613    0.0420   -0.0918 N   0  0  0  0  0  0  0  0  0  0  0  0
    5.3049    0.4693    2.0692 O   0  0  0  0  0  0  0  0  0  0  0  0
    4.9373   -0.7624    0.2242 O   0  0  0  0  0  0  0  0  0  0  0  0
    0.6886   -0.4545   -1.0957 H   0  0  0  0  0  0  0  0  0  0  0  0
    0.4089    0.5440    0.3534 H   0  0  0  0  0  0  0  0  0  0  0  0
    0.8605   -1.1689    0.5156 H   0  0  0  0  0  0  0  0  0  0  0  0
    2.8886    1.3718    1.5715 H   0  0  0  0  0  0  0  0  0  0  0  0
    2.5839   -0.3209    1.9624 H   0  0  0  0  0  0  0  0  0  0  0  0
    2.6302    0.8260   -0.7201 H   0  0  0  0  0  0  0  0  0  0  0  0
    4.1151   -0.9230   -0.3029 H   0  0  0  0  0  0  0  0  0  0  0  0
  1  8  1  0
  1  9  1  0
  2  3  1  0
  2 10  1  0
  2 11  1  0
  3  5  2  0
  4  1  1  0
  4  2  1  0
  6  3  1  0
  7  1  1  0
 12  4  1  0
 13  6  1  0
M  END
>  <HBA>  (372) 
3

>  <HBD>  (372) 
2

>  <TPSA>  (372) 
49.33

>  <cid>  (372) 
1088

>  <dipole>  (372) 
5.4

>  <excitation_energy_1>  (372) 
5.589

>  <excitation_energy_2>  (372) 
5.972

>  <excitation_energy_3>  (372) 
6.532

>  <excitation_energy_4>  (372) 
6.708

>  <homo_energy>  (372) 
-6.879

>  <homo_lumo_gap>  (372) 
7.369

>  <logP>  (372) 
-0.319

>  <lumo_energy>  (372) 
0.49

>  <melting_point>  (372) 
79.77

>  <molecular_refractivity>  (372) 
21.11

>  <oscillator_strength_1>  (372) 
0.0006

>  <oscillator_strength_2>  (372) 
0.002

>  <oscillator_strength_3>  (372) 
0.0103

>  <oscillator_strength_4>  (372) 
0.0022

>  <open_babel_can_smiles>  (372) 
CNCC(=O)O

>  <mulliken_charges>  (372) 
13
1   -0.305549
2   -0.237964
3   0.586558
4   -0.593042
5   -0.456519
6   -0.57276
7   0.163498
8   0.144239
9   0.16721
10   0.173003
11   0.186876
12   0.321295
13   0.423155

>  <lowdin_charges>  (372) 
13
1   -0.35875
2   -0.24979
3   0.177021
4   -0.363828
5   -0.253387
6   -0.359322
7   0.157983
8   0.137711
9   0.157213
10   0.158844
11   0.17565
12   0.266683
13   0.353973

$$$$
PCCDB-ID:  1094
     RDKit          3D

 22 22  0  0  1  0  0  0  0  0999 V2000
   -0.3498   -1.3534   -0.0862 C   0  0  0  0  0  0  0  0  0  0  0  0
   -1.0174    1.0451    0.1013 C   0  0  0  0  0  0  0  0  0  0  0  0
   -1.3205   -0.4311   -0.0004 C   0  0  0  0  0  0  0  0  0  0  0  0
    1.1272   -1.0342   -0.1011 C   0  0  1  0  0  0  0  0  0  0  0  0
    0.4268    1.3923   -0.2780 C   0  0  1  0  0  0  0  0  0  0  0  0
    1.4108    0.4034    0.3605 C   0  0  1  0  0  0  0  0  0  0  0  0
   -2.7751   -0.7870   -0.0698 C   0  0  0  0  0  0  0  0  0  0  0  0
    1.8600   -1.9630    0.6855 O   0  0  0  0  0  0  0  0  0  0  0  0
    0.6681    1.3050   -1.6802 O   0  0  0  0  0  0  0  0  0  0  0  0
    1.2652    0.4017    1.7872 O   0  0  0  0  0  0  0  0  0  0  0  0
   -3.6210   -0.0114   -0.4541 O   0  0  0  0  0  0  0  0  0  0  0  0
   -3.1286   -2.0427    0.3130 O   0  0  0  0  0  0  0  0  0  0  0  0
   -0.5751   -2.4129   -0.2039 H   0  0  0  0  0  0  0  0  0  0  0  0
   -1.2034    1.3793    1.1309 H   0  0  0  0  0  0  0  0  0  0  0  0
   -1.7257    1.6010   -0.5250 H   0  0  0  0  0  0  0  0  0  0  0  0
    1.4919   -1.1412   -1.1290 H   0  0  0  0  0  0  0  0  0  0  0  0
    0.6548    2.4086    0.0861 H   0  0  0  0  0  0  0  0  0  0  0  0
    2.4387    0.6641    0.0794 H   0  0  0  0  0  0  0  0  0  0  0  0
    1.7701   -1.6390    1.6000 H   0  0  0  0  0  0  0  0  0  0  0  0
   -0.0158    1.8185   -2.1371 H   0  0  0  0  0  0  0  0  0  0  0  0
    1.7891    1.1306    2.1506 H   0  0  0  0  0  0  0  0  0  0  0  0
   -2.3669   -2.4814    0.7264 H   0  0  0  0  0  0  0  0  0  0  0  0
  1  3  2  0
  2 14  1  0
  3  2  1  0
  4 16  1  6
  4  1  1  0
  4  6  1  0
  4  8  1  0
  5 17  1  1
  5  2  1  0
  5  6  1  0
  6 18  1  1
  6 10  1  0
  7  3  1  0
  7 12  1  0
  8 19  1  0
  9  5  1  0
 10 21  1  0
 11  7  2  0
 12 22  1  0
 13  1  1  0
 15  2  1  0
 20  9  1  0
M  END
>  <HBA>  (373) 
5

>  <HBD>  (373) 
4

>  <TPSA>  (373) 
97.99

>  <cid>  (373) 
1094

>  <dipole>  (373) 
4.32

>  <excitation_energy_1>  (373) 
4.68

>  <excitation_energy_2>  (373) 
5.382

>  <excitation_energy_3>  (373) 
5.771

>  <excitation_energy_4>  (373) 
5.893

>  <homo_energy>  (373) 
-7.17

>  <homo_lumo_gap>  (373) 
5.984

>  <logP>  (373) 
-1.516

>  <lumo_energy>  (373) 
-1.186

>  <melting_point>  (373) 
141.57

>  <molecular_refractivity>  (373) 
38.43

>  <oscillator_strength_1>  (373) 
0.0001

>  <oscillator_strength_2>  (373) 
0.0771

>  <oscillator_strength_3>  (373) 
0.0034

>  <oscillator_strength_4>  (373) 
0.1451

>  <open_babel_can_smiles>  (373) 
O[C@H]1CC(=C[C@@H]([C@@H]1O)O)C(=O)O

>  <mulliken_charges>  (373) 
22
1   -0.205296
2   -0.347497
3   0.090742
4   0.118345
5   0.11047
6   0.068727
7   0.551931
8   -0.63985
9   -0.627877
10   -0.643598
11   -0.451977
12   -0.57075
13   0.140666
14   0.169525
15   0.172799
16   0.1782
17   0.112615
18   0.14691
19   0.40535
20   0.400918
21   0.408198
22   0.411452

>  <lowdin_charges>  (373) 
22
1   -0.165504
2   -0.291392
3   -0.054954
4   -0.009672
5   -0.01366
6   -0.024043
7   0.195484
8   -0.45475
9   -0.464402
10   -0.465372
11   -0.246253
12   -0.356534
13   0.159504
14   0.167774
15   0.17033
16   0.168286
17   0.126375
18   0.146877
19   0.344222
20   0.351632
21   0.356583
22   0.359467

$$$$
PCCDB-ID:  1100
     RDKit          3D

  6  5  0  0  0  0  0  0  0  0999 V2000
    1.0240    0.1516   -0.1960 O   0  0  0  0  0  0  0  0  0  0  0  0
    3.0891    0.6504   -1.5722 O   0  0  0  0  0  0  0  0  0  0  0  0
    3.1303    0.8806    0.9044 O   0  0  0  0  0  0  0  0  0  0  0  0
    2.6829   -0.0667   -0.1132 S   0  0  0  0  0  0  0  0  0  0  0  0
    0.6307   -0.6966   -0.4738 H   0  0  0  0  0  0  0  0  0  0  0  0
    3.2597   -0.0658   -2.2118 H   0  0  0  0  0  0  0  0  0  0  0  0
  1  4  1  0
  2  4  1  0
  4  3  2  0
  5  1  1  0
  6  2  1  0
M  END
>  <HBA>  (374) 
3

>  <HBD>  (374) 
2

>  <TPSA>  (374) 
76.74

>  <cid>  (374) 
1100

>  <dipole>  (374) 
5.14

>  <excitation_energy_1>  (374) 
6.077

>  <excitation_energy_2>  (374) 
6.235

>  <excitation_energy_3>  (374) 
6.811

>  <excitation_energy_4>  (374) 
6.856

>  <homo_energy>  (374) 
-7.543

>  <homo_lumo_gap>  (374) 
7.489

>  <logP>  (374) 
0.547

>  <lumo_energy>  (374) 
-0.054

>  <melting_point>  (374) 
99.42

>  <molecular_refractivity>  (374) 
13.54

>  <oscillator_strength_1>  (374) 
0.0495

>  <oscillator_strength_2>  (374) 
0.0379

>  <oscillator_strength_3>  (374) 
0.0125

>  <oscillator_strength_4>  (374) 
0.0066

>  <open_babel_can_smiles>  (374) 
OS(=O)O

>  <mulliken_charges>  (374) 
6
1   -0.64086
2   -0.641262
3   -0.500049
4   0.948273
5   0.416914
6   0.416984

>  <lowdin_charges>  (374) 
6
1   -0.604351
2   -0.604179
3   -0.558606
4   1.045067
5   0.360542
6   0.361527

$$$$
PCCDB-ID:  1102
     RDKit          3D

 29 28  0  0  0  0  0  0  0  0999 V2000
    1.5261    2.5530   -3.7927 C   0  0  0  0  0  0  0  0  0  0  0  0
    0.3550    2.7917   -2.8247 C   0  0  0  0  0  0  0  0  0  0  0  0
   -2.2367    1.4718    1.1727 C   0  0  0  0  0  0  0  0  0  0  0  0
    1.3526    1.3505   -4.7380 C   0  0  0  0  0  0  0  0  0  0  0  0
   -1.9576    2.7500    1.9668 C   0  0  0  0  0  0  0  0  0  0  0  0
    0.1899    1.7156   -1.7474 C   0  0  0  0  0  0  0  0  0  0  0  0
   -1.1027    1.0680    0.2260 C   0  0  0  0  0  0  0  0  0  0  0  0
    2.4236    1.1494   -5.7200 N   0  0  0  0  0  0  0  0  0  0  0  0
   -3.0749    3.0350    2.8804 N   0  0  0  0  0  0  0  0  0  0  0  0
   -0.8704    2.0766   -0.8080 N   0  0  0  0  0  0  0  0  0  0  0  0
    2.4578    2.4290   -3.2196 H   0  0  0  0  0  0  0  0  0  0  0  0
    1.6644    3.4550   -4.4065 H   0  0  0  0  0  0  0  0  0  0  0  0
   -0.5790    2.8723   -3.4027 H   0  0  0  0  0  0  0  0  0  0  0  0
    0.4861    3.7554   -2.3176 H   0  0  0  0  0  0  0  0  0  0  0  0
   -3.1642    1.5993    0.5908 H   0  0  0  0  0  0  0  0  0  0  0  0
   -2.4307    0.6540    1.8771 H   0  0  0  0  0  0  0  0  0  0  0  0
    0.4100    1.4593   -5.2921 H   0  0  0  0  0  0  0  0  0  0  0  0
    1.2615    0.4226   -4.1606 H   0  0  0  0  0  0  0  0  0  0  0  0
   -1.7229    3.5668    1.2660 H   0  0  0  0  0  0  0  0  0  0  0  0
   -1.0604    2.5970    2.5813 H   0  0  0  0  0  0  0  0  0  0  0  0
    1.1255    1.6289   -1.1767 H   0  0  0  0  0  0  0  0  0  0  0  0
    0.0198    0.7253   -2.2132 H   0  0  0  0  0  0  0  0  0  0  0  0
   -1.3209    0.0683   -0.1993 H   0  0  0  0  0  0  0  0  0  0  0  0
   -0.1707    0.9590    0.7987 H   0  0  0  0  0  0  0  0  0  0  0  0
    2.5376    1.9970   -6.2761 H   0  0  0  0  0  0  0  0  0  0  0  0
    3.3106    1.0185   -5.2338 H   0  0  0  0  0  0  0  0  0  0  0  0
   -3.8984    3.2885    2.3342 H   0  0  0  0  0  0  0  0  0  0  0  0
   -2.8545    3.8582    3.4396 H   0  0  0  0  0  0  0  0  0  0  0  0
   -1.7374    2.2096   -1.3303 H   0  0  0  0  0  0  0  0  0  0  0  0
  1 11  1  0
  1  2  1  0
  2 14  1  0
  2  6  1  0
  3 16  1  0
  3  5  1  0
  4 18  1  0
  4  1  1  0
  5 20  1  0
  5  9  1  0
  6 21  1  0
  6 10  1  0
  7 24  1  0
  7  3  1  0
  8 26  1  0
  8  4  1  0
  9 28  1  0
 10  7  1  0
 12  1  1  0
 13  2  1  0
 15  3  1  0
 17  4  1  0
 19  5  1  0
 22  6  1  0
 23  7  1  0
 25  8  1  0
 27  9  1  0
 29 10  1  0
M  END
>  <HBA>  (375) 
3

>  <HBD>  (375) 
3

>  <TPSA>  (375) 
64.07

>  <cid>  (375) 
1102

>  <dipole>  (375) 
1.76

>  <excitation_energy_1>  (375) 
5.315

>  <excitation_energy_2>  (375) 
5.503

>  <excitation_energy_3>  (375) 
5.562

>  <excitation_energy_4>  (375) 
5.603

>  <homo_energy>  (375) 
-5.796

>  <homo_lumo_gap>  (375) 
7.973

>  <logP>  (375) 
1.455

>  <lumo_energy>  (375) 
2.177

>  <melting_point>  (375) 
108.45

>  <molecular_refractivity>  (375) 
43.98

>  <oscillator_strength_1>  (375) 
0.0032

>  <oscillator_strength_2>  (375) 
0.0185

>  <oscillator_strength_3>  (375) 
0.0266

>  <oscillator_strength_4>  (375) 
0.007

>  <open_babel_can_smiles>  (375) 
NCCCNCCCCN

>  <mulliken_charges>  (375) 
29
1   -0.266694
2   -0.2699
3   -0.263487
4   -0.142698
5   -0.13017
6   -0.108361
7   -0.117358
8   -0.704645
9   -0.718909
10   -0.556083
11   0.123525
12   0.124052
13   0.123129
14   0.147198
15   0.116505
16   0.14933
17   0.138075
18   0.145556
19   0.135198
20   0.132985
21   0.135258
22   0.113504
23   0.110321
24   0.136115
25   0.290003
26   0.290802
27   0.287806
28   0.293197
29   0.285744

>  <lowdin_charges>  (375) 
29
1   -0.295133
2   -0.280422
3   -0.283214
4   -0.212313
5   -0.209416
6   -0.202448
7   -0.199772
8   -0.551595
9   -0.561936
10   -0.365237
11   0.135738
12   0.1391
13   0.13561
14   0.151003
15   0.132336
16   0.154137
17   0.140251
18   0.142866
19   0.129358
20   0.139622
21   0.139106
22   0.115709
23   0.11678
24   0.139594
25   0.249955
26   0.250784
27   0.249271
28   0.252983
29   0.247284

$$$$
PCCDB-ID:  1108
     RDKit          3D

 45 48  0  0  1  0  0  0  0  0999 V2000
   -3.0127    3.3207   -0.0068 C   0  0  0  0  0  0  0  0  0  0  0  0
   -3.6072    1.9473   -0.3418 C   0  0  0  0  0  0  0  0  0  0  0  0
    3.1464   -2.4241   -1.1511 C   0  0  0  0  0  0  0  0  0  0  0  0
   -1.5360    3.3883   -0.4140 C   0  0  0  0  0  0  0  0  0  0  0  0
    1.7532   -3.0810   -0.9610 C   0  0  0  0  0  0  0  0  0  0  0  0
   -2.7824    0.8035    0.2687 C   0  0  0  0  0  0  0  0  0  0  0  0
    3.3144   -1.4251    0.0315 C   0  0  0  0  0  0  0  0  0  0  0  0
    0.7712    2.3477   -0.1842 C   0  0  0  0  0  0  0  0  0  0  0  0
   -0.1739   -2.8052    0.7774 C   0  0  0  0  0  0  0  0  0  0  0  0
    1.5988    1.2198    0.4372 C   0  0  0  0  0  0  0  0  0  0  0  0
   -0.9896   -1.6831    0.1217 C   0  0  0  0  0  0  0  0  0  0  0  0
   -0.7074    2.2523    0.2104 C   0  0  2  0  0  0  0  0  0  0  0  0
    1.3253   -2.7112    0.4758 C   0  0  2  0  0  0  0  0  0  0  0  0
   -1.2942    0.8616   -0.1376 C   0  0  1  0  0  0  0  0  0  0  0  0
    1.9177   -1.2960    0.6879 C   0  0  2  0  0  0  0  0  0  0  0  0
   -0.4466   -0.2859    0.4780 C   0  0  2  0  0  0  0  0  0  0  0  0
    1.0476   -0.1698    0.0718 C   0  0  1  0  0  0  0  0  0  0  0  0
   -3.0995    3.5001    1.0752 H   0  0  0  0  0  0  0  0  0  0  0  0
   -3.5835    4.1171   -0.5017 H   0  0  0  0  0  0  0  0  0  0  0  0
   -3.6373    1.8249   -1.4349 H   0  0  0  0  0  0  0  0  0  0  0  0
   -4.6467    1.8842    0.0056 H   0  0  0  0  0  0  0  0  0  0  0  0
    3.2140   -1.9158   -2.1191 H   0  0  0  0  0  0  0  0  0  0  0  0
    3.9451   -3.1738   -1.1406 H   0  0  0  0  0  0  0  0  0  0  0  0
   -1.1046    4.3573   -0.1275 H   0  0  0  0  0  0  0  0  0  0  0  0
   -1.4576    3.3271   -1.5105 H   0  0  0  0  0  0  0  0  0  0  0  0
    1.7730   -4.1663   -1.1121 H   0  0  0  0  0  0  0  0  0  0  0  0
    1.0392   -2.6778   -1.6890 H   0  0  0  0  0  0  0  0  0  0  0  0
   -3.2262   -0.1524   -0.0302 H   0  0  0  0  0  0  0  0  0  0  0  0
   -2.8534    0.8496    1.3668 H   0  0  0  0  0  0  0  0  0  0  0  0
    3.7247   -0.4648   -0.2964 H   0  0  0  0  0  0  0  0  0  0  0  0
    4.0222   -1.8290    0.7656 H   0  0  0  0  0  0  0  0  0  0  0  0
    0.8559    2.3032   -1.2810 H   0  0  0  0  0  0  0  0  0  0  0  0
    1.1735    3.3250    0.1168 H   0  0  0  0  0  0  0  0  0  0  0  0
   -0.5619   -3.7855    0.4685 H   0  0  0  0  0  0  0  0  0  0  0  0
   -0.3189   -2.7487    1.8662 H   0  0  0  0  0  0  0  0  0  0  0  0
    1.5936    1.3257    1.5331 H   0  0  0  0  0  0  0  0  0  0  0  0
    2.6459    1.3120    0.1252 H   0  0  0  0  0  0  0  0  0  0  0  0
   -2.0330   -1.7823    0.4390 H   0  0  0  0  0  0  0  0  0  0  0  0
   -0.9896   -1.7994   -0.9722 H   0  0  0  0  0  0  0  0  0  0  0  0
   -0.7670    2.3627    1.3073 H   0  0  0  0  0  0  0  0  0  0  0  0
    1.8572   -3.3912    1.1585 H   0  0  0  0  0  0  0  0  0  0  0  0
   -1.2450    0.7517   -1.2356 H   0  0  0  0  0  0  0  0  0  0  0  0
    2.0127   -1.0855    1.7633 H   0  0  0  0  0  0  0  0  0  0  0  0
   -0.4979   -0.1801    1.5764 H   0  0  0  0  0  0  0  0  0  0  0  0
    1.0890   -0.2638   -1.0267 H   0  0  0  0  0  0  0  0  0  0  0  0
  1 18  1  0
  2  1  1  0
  2 21  1  0
  2  6  1  0
  3 23  1  0
  3  5  1  0
  3  7  1  0
  4 24  1  0
  4  1  1  0
  4 12  1  0
  5 13  1  0
  6 29  1  0
  7 15  1  0
  7 31  1  0
  8 33  1  0
  8 12  1  0
  8 10  1  0
  9 35  1  0
 10 36  1  0
 11 38  1  0
 11 16  1  0
 11  9  1  0
 12 40  1  1
 13 15  1  0
 13  9  1  0
 13 41  1  1
 14 42  1  6
 14 12  1  0
 14  6  1  0
 14 16  1  0
 15 43  1  1
 16 44  1  1
 17 45  1  6
 17 10  1  0
 17 16  1  0
 17 15  1  0
 19  1  1  0
 20  2  1  0
 22  3  1  0
 25  4  1  0
 26  5  1  0
 27  5  1  0
 28  6  1  0
 30  7  1  0
 32  8  1  0
 34  9  1  0
 37 10  1  0
 39 11  1  0
M  END
>  <HBA>  (376) 
0

>  <HBD>  (376) 
0

>  <TPSA>  (376) 
0.0

>  <cid>  (376) 
1108

>  <dipole>  (376) 
0.09

>  <excitation_energy_1>  (376) 
6.682

>  <excitation_energy_2>  (376) 
6.728

>  <excitation_energy_3>  (376) 
6.791

>  <excitation_energy_4>  (376) 
6.819

>  <homo_energy>  (376) 
-7.143

>  <homo_lumo_gap>  (376) 
9.304

>  <logP>  (376) 
5.029

>  <lumo_energy>  (376) 
2.161

>  <melting_point>  (376) 
56.44

>  <molecular_refractivity>  (376) 
75.38

>  <oscillator_strength_1>  (376) 
0.0004

>  <oscillator_strength_2>  (376) 
0.0046

>  <oscillator_strength_3>  (376) 
0.0022

>  <oscillator_strength_4>  (376) 
0.0011

>  <open_babel_can_smiles>  (376) 
C1CC[C@H]2[C@H](C1)CC[C@@H]1[C@@H]2CC[C@@H]2[C@H]1CCC2

>  <mulliken_charges>  (376) 
45
1   -0.257464
2   -0.259832
3   -0.273678
4   -0.259461
5   -0.279482
6   -0.270162
7   -0.279606
8   -0.263722
9   -0.267406
10   -0.270614
11   -0.275553
12   -0.080125
13   -0.084603
14   -0.079319
15   -0.097216
16   -0.084332
17   -0.088061
18   0.12583
19   0.127509
20   0.126249
21   0.127693
22   0.134218
23   0.134434
24   0.125027
25   0.122609
26   0.130603
27   0.135455
28   0.133643
29   0.122501
30   0.134542
31   0.131832
32   0.122388
33   0.124338
34   0.126244
35   0.124765
36   0.122661
37   0.13019
38   0.133664
39   0.125977
40   0.108194
41   0.114135
42   0.103804
43   0.10945
44   0.103495
45   0.109186

>  <lowdin_charges>  (376) 
45
1   -0.277347
2   -0.273805
3   -0.28758
4   -0.274565
5   -0.288336
6   -0.277948
7   -0.286842
8   -0.273757
9   -0.274808
10   -0.273621
11   -0.277436
12   -0.128426
13   -0.133368
14   -0.128681
15   -0.133087
16   -0.127498
17   -0.130412
18   0.134706
19   0.143204
20   0.134643
21   0.14096
22   0.142681
23   0.144651
24   0.140603
25   0.13357
26   0.141434
27   0.140807
28   0.144011
29   0.133581
30   0.14349
31   0.143864
32   0.133523
33   0.140338
34   0.141561
35   0.137028
36   0.133345
37   0.140928
38   0.143707
39   0.1342
40   0.12769
41   0.137639
42   0.126827
43   0.132534
44   0.126838
45   0.129153

$$$$
PCCDB-ID:  1110
     RDKit          3D

 14 13  0  0  0  0  0  0  0  0999 V2000
    1.2595   -0.2713    0.0378 C   0  0  0  0  0  0  0  0  0  0  0  0
    1.2045   -1.4397   -0.9650 C   0  0  0  0  0  0  0  0  0  0  0  0
    2.6598    0.3082    0.2789 C   0  0  0  0  0  0  0  0  0  0  0  0
    1.2788   -1.0161   -2.4252 C   0  0  0  0  0  0  0  0  0  0  0  0
    3.2141    0.2266    1.3496 O   0  0  0  0  0  0  0  0  0  0  0  0
    3.2400    0.9202   -0.7683 O   0  0  0  0  0  0  0  0  0  0  0  0
    1.5905    0.0942   -2.8045 O   0  0  0  0  0  0  0  0  0  0  0  0
    0.9721   -1.9597   -3.3372 O   0  0  0  0  0  0  0  0  0  0  0  0
    0.9060   -0.6225    1.0086 H   0  0  0  0  0  0  0  0  0  0  0  0
    0.5868    0.5253   -0.3022 H   0  0  0  0  0  0  0  0  0  0  0  0
    0.2682   -1.9949   -0.8180 H   0  0  0  0  0  0  0  0  0  0  0  0
    2.0156   -2.1563   -0.7721 H   0  0  0  0  0  0  0  0  0  0  0  0
    2.6589    0.8630   -1.5606 H   0  0  0  0  0  0  0  0  0  0  0  0
    0.7300   -2.7934   -2.8999 H   0  0  0  0  0  0  0  0  0  0  0  0
  1  3  1  0
  1  9  1  0
  2 11  1  0
  2 12  1  0
  2  1  1  0
  3  5  2  0
  4  2  1  0
  6  3  1  0
  7  4  2  0
  8 14  1  0
  8  4  1  0
 10  1  1  0
 13  6  1  0
M  END
>  <HBA>  (377) 
4

>  <HBD>  (377) 
2

>  <TPSA>  (377) 
74.6

>  <cid>  (377) 
1110

>  <dipole>  (377) 
6.15

>  <excitation_energy_1>  (377) 
5.47

>  <excitation_energy_2>  (377) 
5.641

>  <excitation_energy_3>  (377) 
5.858

>  <excitation_energy_4>  (377) 
6.114

>  <homo_energy>  (377) 
-7.124

>  <homo_lumo_gap>  (377) 
6.321

>  <logP>  (377) 
-0.064

>  <lumo_energy>  (377) 
-0.803

>  <melting_point>  (377) 
129.08

>  <molecular_refractivity>  (377) 
24.89

>  <oscillator_strength_1>  (377) 
0.0019

>  <oscillator_strength_2>  (377) 
0.0014

>  <oscillator_strength_3>  (377) 
0.0009

>  <oscillator_strength_4>  (377) 
0.0031

>  <open_babel_can_smiles>  (377) 
OC(=O)CCC(=O)O

>  <mulliken_charges>  (377) 
14
1   -0.373915
2   -0.417598
3   0.577902
4   0.626915
5   -0.444924
6   -0.582568
7   -0.458486
8   -0.544295
9   0.184194
10   0.182341
11   0.1774
12   0.206651
13   0.444017
14   0.422367

>  <lowdin_charges>  (377) 
14
1   -0.314575
2   -0.321084
3   0.185527
4   0.207868
5   -0.251885
6   -0.36307
7   -0.250262
8   -0.327246
9   0.178675
10   0.172902
11   0.170452
12   0.183416
13   0.361242
14   0.368041

$$$$
PCCDB-ID:  1112
     RDKit          3D

 13 12  0  0  0  0  0  0  0  0999 V2000
    0.7089    0.0227    0.1003 C   0  0  0  0  0  0  0  0  0  0  0  0
    0.3943   -0.2487   -1.3823 C   0  0  0  0  0  0  0  0  0  0  0  0
    0.5750    1.4560    0.5476 C   0  0  0  0  0  0  0  0  0  0  0  0
   -1.0978   -0.2587   -1.7341 C   0  0  0  0  0  0  0  0  0  0  0  0
    0.0752    2.3507   -0.1104 O   0  0  0  0  0  0  0  0  0  0  0  0
   -1.6780   -1.2600   -2.0801 O   0  0  0  0  0  0  0  0  0  0  0  0
   -1.7359    0.9244   -1.6410 O   0  0  0  0  0  0  0  0  0  0  0  0
    1.7398   -0.2838    0.3299 H   0  0  0  0  0  0  0  0  0  0  0  0
    0.0806   -0.5910    0.7651 H   0  0  0  0  0  0  0  0  0  0  0  0
    0.7788   -1.2333   -1.6540 H   0  0  0  0  0  0  0  0  0  0  0  0
    0.9080    0.4979   -2.0013 H   0  0  0  0  0  0  0  0  0  0  0  0
    0.9790    1.6794    1.5557 H   0  0  0  0  0  0  0  0  0  0  0  0
   -1.1200    1.6128   -1.3058 H   0  0  0  0  0  0  0  0  0  0  0  0
  1  8  1  0
  1  3  1  0
  1  9  1  0
  2  1  1  0
  3 12  1  0
  4  7  1  0
  4  2  1  0
  5  3  2  0
  6  4  2  0
  7 13  1  0
 10  2  1  0
 11  2  1  0
M  END
>  <HBA>  (378) 
3

>  <HBD>  (378) 
1

>  <TPSA>  (378) 
54.37

>  <cid>  (378) 
1112

>  <dipole>  (378) 
5.51

>  <excitation_energy_1>  (378) 
4.41

>  <excitation_energy_2>  (378) 
4.826

>  <excitation_energy_3>  (378) 
5.554

>  <excitation_energy_4>  (378) 
5.863

>  <homo_energy>  (378) 
-7.102

>  <homo_lumo_gap>  (378) 
5.41

>  <logP>  (378) 
0.05

>  <lumo_energy>  (378) 
-1.693

>  <melting_point>  (378) 
83.65

>  <molecular_refractivity>  (378) 
23.31

>  <oscillator_strength_1>  (378) 
0.0004

>  <oscillator_strength_2>  (378) 
0.0019

>  <oscillator_strength_3>  (378) 
0.0012

>  <oscillator_strength_4>  (378) 
0.0002

>  <open_babel_can_smiles>  (378) 
O=CCCC(=O)O

>  <mulliken_charges>  (378) 
13
1   -0.364698
2   -0.379494
3   0.264751
4   0.579469
5   -0.397881
6   -0.443983
7   -0.583076
8   0.183923
9   0.201879
10   0.185671
11   0.175329
12   0.141321
13   0.436789

>  <lowdin_charges>  (378) 
13
1   -0.311425
2   -0.317435
3   0.076915
4   0.188498
5   -0.224609
6   -0.251178
7   -0.366687
8   0.176868
9   0.186481
10   0.178818
11   0.169238
12   0.137522
13   0.356994

$$$$
PCCDB-ID:  1114
     RDKit          3D

 29 29  0  0  1  0  0  0  0  0999 V2000
    0.7996   -0.7456    0.8647 C   0  0  0  0  0  0  0  0  0  0  0  0
    0.1123    0.3893    0.6417 C   0  0  0  0  0  0  0  0  0  0  0  0
    0.4209   -2.0244    0.1730 C   0  0  0  0  0  0  0  0  0  0  0  0
   -2.3742    2.5475    0.2574 C   0  0  0  0  0  0  0  0  0  0  0  0
   -2.2276    4.0586    0.1117 C   0  0  0  0  0  0  0  0  0  0  0  0
   -1.0275    0.4059   -0.2853 C   0  0  0  0  0  0  0  0  0  0  0  0
   -1.4560    1.7979   -0.7021 C   0  0  0  0  0  0  0  0  0  0  0  0
   -1.0669   -2.0818   -0.1950 C   0  0  2  0  0  0  0  0  0  0  0  0
   -0.8795    4.5415    0.6372 C   0  0  0  0  0  0  0  0  0  0  0  0
   -1.5728   -0.7530   -0.7354 C   0  0  0  0  0  0  0  0  0  0  0  0
   -2.7184   -0.8424   -1.6670 C   0  0  0  0  0  0  0  0  0  0  0  0
   -1.0249    2.3061   -1.7175 O   0  0  0  0  0  0  0  0  0  0  0  0
   -1.8764   -2.4819    0.9181 O   0  0  0  0  0  0  0  0  0  0  0  0
   -0.0814    3.8430    1.2146 O   0  0  0  0  0  0  0  0  0  0  0  0
   -0.6110    5.8569    0.4437 O   0  0  0  0  0  0  0  0  0  0  0  0
   -3.4274    0.3153   -1.7878 O   0  0  0  0  0  0  0  0  0  0  0  0
   -3.0288   -1.8434   -2.2813 O   0  0  0  0  0  0  0  0  0  0  0  0
    1.6715   -0.7360    1.5147 H   0  0  0  0  0  0  0  0  0  0  0  0
    0.4077    1.3320    1.0941 H   0  0  0  0  0  0  0  0  0  0  0  0
    0.6562   -2.8993    0.7900 H   0  0  0  0  0  0  0  0  0  0  0  0
    1.0285   -2.1171   -0.7425 H   0  0  0  0  0  0  0  0  0  0  0  0
   -3.3974    2.2312    0.0193 H   0  0  0  0  0  0  0  0  0  0  0  0
   -2.1732    2.2352    1.2871 H   0  0  0  0  0  0  0  0  0  0  0  0
   -3.0213    4.5809    0.6626 H   0  0  0  0  0  0  0  0  0  0  0  0
   -2.3196    4.3403   -0.9441 H   0  0  0  0  0  0  0  0  0  0  0  0
   -1.2352   -2.8572   -0.9434 H   0  0  0  0  0  0  0  0  0  0  0  0
   -1.7936   -1.7887    1.5940 H   0  0  0  0  0  0  0  0  0  0  0  0
   -1.3294    6.2736   -0.0609 H   0  0  0  0  0  0  0  0  0  0  0  0
   -4.1063    0.1377   -2.4653 H   0  0  0  0  0  0  0  0  0  0  0  0
  1 18  1  0
  2  1  2  0
  2 19  1  0
  3 20  1  0
  3  1  1  0
  4 23  1  0
  5  4  1  0
  5  9  1  0
  5 24  1  0
  6  2  1  0
  7  6  1  0
  7  4  1  0
  8 26  1  6
  8  3  1  0
  8 13  1  0
  9 14  2  0
 10  6  2  0
 10  8  1  0
 11 10  1  0
 12  7  2  0
 13 27  1  0
 15  9  1  0
 16 11  1  0
 17 11  2  0
 21  3  1  0
 22  4  1  0
 25  5  1  0
 28 15  1  0
 29 16  1  0
M  END
>  <HBA>  (379) 
6

>  <HBD>  (379) 
3

>  <TPSA>  (379) 
111.9

>  <cid>  (379) 
1114

>  <dipole>  (379) 
3.77

>  <excitation_energy_1>  (379) 
3.981

>  <excitation_energy_2>  (379) 
4.244

>  <excitation_energy_3>  (379) 
4.449

>  <excitation_energy_4>  (379) 
4.549

>  <homo_energy>  (379) 
-6.563

>  <homo_lumo_gap>  (379) 
4.558

>  <logP>  (379) 
0.122

>  <lumo_energy>  (379) 
-2.005

>  <melting_point>  (379) 
213.44

>  <molecular_refractivity>  (379) 
56.83

>  <oscillator_strength_1>  (379) 
0.0174

>  <oscillator_strength_2>  (379) 
0.1872

>  <oscillator_strength_3>  (379) 
0.0018

>  <oscillator_strength_4>  (379) 
0.0116

>  <open_babel_can_smiles>  (379) 
OC(=O)CCC(=O)C1=C(C(=O)O)[C@@H](CC=C1)O

>  <mulliken_charges>  (379) 
29
1   -0.13213
2   -0.146526
3   -0.322682
4   -0.357355
5   -0.409176
6   0.011381
7   0.4186
8   0.047759
9   0.625145
10   0.021668
11   0.554522
12   -0.435591
13   -0.612043
14   -0.444799
15   -0.561825
16   -0.597871
17   -0.467677
18   0.150708
19   0.188653
20   0.167365
21   0.172491
22   0.191963
23   0.177994
24   0.174991
25   0.191976
26   0.176324
27   0.38781
28   0.413998
29   0.414325

>  <lowdin_charges>  (379) 
29
1   -0.133346
2   -0.184453
3   -0.294462
4   -0.304438
5   -0.324433
6   -0.003136
7   0.17943
8   0.002251
9   0.208847
10   -0.072103
11   0.197232
12   -0.220035
13   -0.454526
14   -0.249433
15   -0.35006
16   -0.364813
17   -0.261058
18   0.166226
19   0.183153
20   0.168281
21   0.171521
22   0.181177
23   0.170031
24   0.171071
25   0.175544
26   0.171744
27   0.341697
28   0.362813
29   0.365277

$$$$
PCCDB-ID:  1119
     RDKit          3D

  3  2  0  0  0  0  0  0  0  0999 V2000
    0.9553   -0.0631   -0.1190 O   0  0  0  0  0  0  0  0  0  0  0  0
    3.0157    0.6332    1.1608 O   0  0  0  0  0  0  0  0  0  0  0  0
    2.4138   -0.0044   -0.0112 S   0  0  0  0  0  0  0  0  0  0  0  0
  1  3  2  0
  3  2  2  0
M  END
>  <HBA>  (380) 
3

>  <HBD>  (380) 
0

>  <TPSA>  (380) 
66.23

>  <cid>  (380) 
1119

>  <dipole>  (380) 
1.78

>  <excitation_energy_1>  (380) 
3.815

>  <excitation_energy_2>  (380) 
4.157

>  <excitation_energy_3>  (380) 
6.069

>  <excitation_energy_4>  (380) 
7.925

>  <homo_energy>  (380) 
-8.985

>  <homo_lumo_gap>  (380) 
5.369

>  <logP>  (380) 
0.411

>  <lumo_energy>  (380) 
-3.616

>  <melting_point>  (380) 
29.64

>  <molecular_refractivity>  (380) 
8.96

>  <oscillator_strength_1>  (380) 
0.0045

>  <oscillator_strength_2>  (380) 
0.0

>  <oscillator_strength_3>  (380) 
0.0665

>  <oscillator_strength_4>  (380) 
0.0016

>  <open_babel_can_smiles>  (380) 
O=S=O

>  <mulliken_charges>  (380) 
3
1   -0.40931
2   -0.409318
3   0.818629

>  <lowdin_charges>  (380) 
3
1   -0.472387
2   -0.471374
3   0.943761

$$$$
PCCDB-ID:  1122
     RDKit          3D

 11 10  0  0  1  0  0  0  0  0999 V2000
    0.6053   -0.1743    0.3712 C   0  0  0  0  0  0  0  0  0  0  0  0
    0.4039   -0.5815   -1.0828 C   0  0  1  0  0  0  0  0  0  0  0  0
    1.1576   -1.9065   -1.3415 C   0  0  0  0  0  0  0  0  0  0  0  0
   -0.3563    0.0424    1.0779 O   0  0  0  0  0  0  0  0  0  0  0  0
   -0.9693   -0.7081   -1.3679 O   0  0  0  0  0  0  0  0  0  0  0  0
    2.3503   -1.9980   -1.1881 O   0  0  0  0  0  0  0  0  0  0  0  0
    0.3601   -2.9084   -1.7219 O   0  0  0  0  0  0  0  0  0  0  0  0
    1.6458   -0.1010    0.7285 H   0  0  0  0  0  0  0  0  0  0  0  0
    0.8773    0.1799   -1.7211 H   0  0  0  0  0  0  0  0  0  0  0  0
   -1.4322   -0.4592   -0.5386 H   0  0  0  0  0  0  0  0  0  0  0  0
   -0.5487   -2.5349   -1.7667 H   0  0  0  0  0  0  0  0  0  0  0  0
  1  8  1  0
  1  4  2  0
  2  9  1  6
  2  1  1  0
  3  6  2  0
  3  2  1  0
  5  2  1  0
  5 10  1  0
  7  3  1  0
 11  7  1  0
M  END
>  <HBA>  (381) 
4

>  <HBD>  (381) 
2

>  <TPSA>  (381) 
74.6

>  <cid>  (381) 
1122

>  <dipole>  (381) 
2.4

>  <excitation_energy_1>  (381) 
4.508

>  <excitation_energy_2>  (381) 
4.994

>  <excitation_energy_3>  (381) 
5.86

>  <excitation_energy_4>  (381) 
6.249

>  <homo_energy>  (381) 
-7.666

>  <homo_lumo_gap>  (381) 
5.821

>  <logP>  (381) 
-1.369

>  <lumo_energy>  (381) 
-1.845

>  <melting_point>  (381) 
102.93

>  <molecular_refractivity>  (381) 
19.67

>  <oscillator_strength_1>  (381) 
0.0034

>  <oscillator_strength_2>  (381) 
0.0192

>  <oscillator_strength_3>  (381) 
0.0031

>  <oscillator_strength_4>  (381) 
0.0053

>  <open_babel_can_smiles>  (381) 
O=C[C@@H](C(=O)O)O

>  <mulliken_charges>  (381) 
11
1   0.239571
2   -0.031516
3   0.586226
4   -0.385476
5   -0.651488
6   -0.443853
7   -0.55948
8   0.174729
9   0.206508
10   0.425066
11   0.439712

>  <lowdin_charges>  (381) 
11
1   0.059129
2   -0.080041
3   0.171412
4   -0.206824
5   -0.449525
6   -0.240601
7   -0.32717
8   0.159386
9   0.186729
10   0.358012
11   0.369492

$$$$
PCCDB-ID:  1123
     RDKit          3D

 14 13  0  0  0  0  0  0  0  0999 V2000
    0.8143   -0.1753   -0.0527 C   0  0  0  0  0  0  0  0  0  0  0  0
    0.3967    1.2364    0.3762 C   0  0  0  0  0  0  0  0  0  0  0  0
    2.2770   -0.2475   -0.0372 N   0  0  0  0  0  0  0  0  0  0  0  0
   -1.5041    2.9111    1.0599 O   0  0  0  0  0  0  0  0  0  0  0  0
   -1.9079    1.5322   -0.9886 O   0  0  0  0  0  1  0  0  0  0  0  0
   -1.9683    0.4357    1.3026 O   0  0  0  0  0  1  0  0  0  0  0  0
   -1.3991    1.4102    0.3804 S   0  0  0  0  0  0  0  0  0  0  0  0
    0.3516   -0.4127   -1.0246 H   0  0  0  0  0  0  0  0  0  0  0  0
    0.4234   -0.8904    0.6768 H   0  0  0  0  0  0  0  0  0  0  0  0
    0.7755    2.0027   -0.3065 H   0  0  0  0  0  0  0  0  0  0  0  0
    0.7463    1.4534    1.3884 H   0  0  0  0  0  0  0  0  0  0  0  0
    2.6594    0.2137   -0.8613 H   0  0  0  0  0  0  0  0  0  0  0  0
    2.5718   -1.2200   -0.0926 H   0  0  0  0  0  0  0  0  0  0  0  0
   -2.1107    3.4234    0.4918 H   0  0  0  0  0  0  0  0  0  0  0  0
  1  3  1  0
  1  2  1  0
  1  9  1  0
  2  7  1  0
  2 11  1  0
  5  7  1  0
  7  4  1  0
  7  6  1  0
  8  1  1  0
 10  2  1  0
 12  3  1  0
 13  3  1  0
 14  4  1  0
M  RAD  2   5   2   6   2
M  END
>  <HBA>  (382) 
4

>  <HBD>  (382) 
2

>  <TPSA>  (382) 
88.77

>  <cid>  (382) 
1123

>  <dipole>  (382) 
3.31

>  <excitation_energy_1>  (382) 
5.843

>  <excitation_energy_2>  (382) 
6.487

>  <excitation_energy_3>  (382) 
6.925

>  <excitation_energy_4>  (382) 
7.122

>  <homo_energy>  (382) 
-6.969

>  <homo_lumo_gap>  (382) 
7.799

>  <logP>  (382) 
0.614

>  <lumo_energy>  (382) 
0.83

>  <melting_point>  (382) 
111.33

>  <molecular_refractivity>  (382) 
24.97

>  <oscillator_strength_1>  (382) 
0.0223

>  <oscillator_strength_2>  (382) 
0.0117

>  <oscillator_strength_3>  (382) 
0.0007

>  <oscillator_strength_4>  (382) 
0.0156

>  <open_babel_can_smiles>  (382) 
NCCS([O])(O)[O]

>  <mulliken_charges>  (382) 
14
1   -0.16643
2   -0.449947
3   -0.718075
4   -0.647268
5   -0.527919
6   -0.489704
7   1.186717
8   0.156402
9   0.18407
10   0.1956
11   0.222169
12   0.302412
13   0.312086
14   0.439886

>  <lowdin_charges>  (382) 
14
1   -0.20912
2   -0.423289
3   -0.550891
4   -0.590195
5   -0.591826
6   -0.563966
7   1.337213
8   0.140236
9   0.166935
10   0.184234
11   0.19672
12   0.257906
13   0.263414
14   0.38263

$$$$
PCCDB-ID:  1127
     RDKit          3D

 13 13  0  0  0  0  0  0  0  0999 V2000
   -0.7332   -0.9607   -0.2495 C   0  0  0  0  0  0  0  0  0  0  0  0
    0.7191   -1.0335    0.2387 C   0  0  0  0  0  0  0  0  0  0  0  0
   -1.3266    0.3331    0.3218 C   0  0  0  0  0  0  0  0  0  0  0  0
    1.3524    0.3339   -0.0494 C   0  0  0  0  0  0  0  0  0  0  0  0
    0.0290    1.5966    0.2588 S   0  0  0  0  0  0  0  0  0  0  0  0
   -1.3184   -1.8338    0.0635 H   0  0  0  0  0  0  0  0  0  0  0  0
   -0.7526   -0.9238   -1.3459 H   0  0  0  0  0  0  0  0  0  0  0  0
    1.2794   -1.8372   -0.2542 H   0  0  0  0  0  0  0  0  0  0  0  0
    0.7372   -1.2306    1.3178 H   0  0  0  0  0  0  0  0  0  0  0  0
   -1.6430    0.1989    1.3610 H   0  0  0  0  0  0  0  0  0  0  0  0
   -2.1811    0.6952   -0.2558 H   0  0  0  0  0  0  0  0  0  0  0  0
    1.6806    0.4077   -1.0909 H   0  0  0  0  0  0  0  0  0  0  0  0
    2.2070    0.5458    0.5982 H   0  0  0  0  0  0  0  0  0  0  0  0
  1  6  1  0
  1  2  1  0
  1  3  1  0
  2  9  1  0
  3 10  1  0
  4  2  1  0
  4  5  1  0
  4 13  1  0
  5  3  1  0
  7  1  1  0
  8  2  1  0
 11  3  1  0
 12  4  1  0
M  END
>  <HBA>  (383) 
1

>  <HBD>  (383) 
0

>  <TPSA>  (383) 
25.3

>  <cid>  (383) 
1127

>  <dipole>  (383) 
2.21

>  <excitation_energy_1>  (383) 
4.952

>  <excitation_energy_2>  (383) 
5.182

>  <excitation_energy_3>  (383) 
5.809

>  <excitation_energy_4>  (383) 
5.894

>  <homo_energy>  (383) 
-5.753

>  <homo_lumo_gap>  (383) 
6.784

>  <logP>  (383) 
1.513

>  <lumo_energy>  (383) 
1.031

>  <melting_point>  (383) 
6.31

>  <molecular_refractivity>  (383) 
26.82

>  <oscillator_strength_1>  (383) 
0.0

>  <oscillator_strength_2>  (383) 
0.0053

>  <oscillator_strength_3>  (383) 
0.0125

>  <oscillator_strength_4>  (383) 
0.0209

>  <open_babel_can_smiles>  (383) 
C1CCCS1

>  <mulliken_charges>  (383) 
13
1   -0.265512
2   -0.265005
3   -0.405317
4   -0.405896
5   0.056698
6   0.146907
7   0.150883
8   0.147069
9   0.150648
10   0.170831
11   0.173782
12   0.171094
13   0.173817

>  <lowdin_charges>  (383) 
13
1   -0.278078
2   -0.27877
3   -0.370055
4   -0.370025
5   0.057289
6   0.152808
7   0.147363
8   0.153421
9   0.147592
10   0.154116
11   0.165157
12   0.154338
13   0.164844

$$$$
PCCDB-ID:  1128
     RDKit          3D

 14 14  0  0  0  0  0  0  0  0999 V2000
   -0.7494   -0.9370   -0.3206 C   0  0  0  0  0  0  0  0  0  0  0  0
    0.7097   -1.0938    0.1376 C   0  0  0  0  0  0  0  0  0  0  0  0
   -1.2605    0.3158    0.3864 C   0  0  0  0  0  0  0  0  0  0  0  0
    1.3628    0.3012    0.0891 C   0  0  0  0  0  0  0  0  0  0  0  0
   -0.1349    2.0718   -1.3611 O   0  0  0  0  0  0  0  0  0  0  0  0
    0.0235    1.6207    0.0781 S   0  0  0  0  0  0  0  0  0  0  0  0
   -1.3538   -1.8198   -0.0837 H   0  0  0  0  0  0  0  0  0  0  0  0
   -0.7944   -0.7750   -1.4036 H   0  0  0  0  0  0  0  0  0  0  0  0
    1.2606   -1.8070   -0.4851 H   0  0  0  0  0  0  0  0  0  0  0  0
    0.7298   -1.4785    1.1649 H   0  0  0  0  0  0  0  0  0  0  0  0
   -1.3353    0.1765    1.4725 H   0  0  0  0  0  0  0  0  0  0  0  0
   -2.2069    0.7085    0.0062 H   0  0  0  0  0  0  0  0  0  0  0  0
    1.8925    0.4946   -0.8482 H   0  0  0  0  0  0  0  0  0  0  0  0
    2.0420    0.4949    0.9245 H   0  0  0  0  0  0  0  0  0  0  0  0
  1  7  1  0
  1  2  1  0
  1  3  1  0
  2 10  1  0
  3 11  1  0
  4  2  1  0
  4 14  1  0
  5  6  2  0
  6  4  1  0
  6  3  1  0
  8  1  1  0
  9  2  1  0
 12  3  1  0
 13  4  1  0
M  END
>  <HBA>  (384) 
1

>  <HBD>  (384) 
0

>  <TPSA>  (384) 
36.28

>  <cid>  (384) 
1128

>  <dipole>  (384) 
4.12

>  <excitation_energy_1>  (384) 
5.309

>  <excitation_energy_2>  (384) 
5.519

>  <excitation_energy_3>  (384) 
5.602

>  <excitation_energy_4>  (384) 
6.064

>  <homo_energy>  (384) 
-5.91

>  <homo_lumo_gap>  (384) 
6.759

>  <logP>  (384) 
1.395

>  <lumo_energy>  (384) 
0.849

>  <melting_point>  (384) 
16.65

>  <molecular_refractivity>  (384) 
27.51

>  <oscillator_strength_1>  (384) 
0.0275

>  <oscillator_strength_2>  (384) 
0.0091

>  <oscillator_strength_3>  (384) 
0.015

>  <oscillator_strength_4>  (384) 
0.0137

>  <open_babel_can_smiles>  (384) 
O=S1CCCC1

>  <mulliken_charges>  (384) 
14
1   -0.28023
2   -0.254164
3   -0.465564
4   -0.489057
5   -0.643554
6   0.76033
7   0.154022
8   0.177501
9   0.15944
10   0.145846
11   0.163814
12   0.194692
13   0.203447
14   0.173478

>  <lowdin_charges>  (384) 
14
1   -0.282549
2   -0.281016
3   -0.423537
4   -0.431663
5   -0.679839
6   0.784169
7   0.156642
8   0.16031
9   0.160309
10   0.145925
11   0.160445
12   0.179085
13   0.182849
14   0.168869

$$$$
PCCDB-ID:  1133
     RDKit          3D

  9  8  0  0  0  0  0  0  0  0999 V2000
    1.0961    0.1929   -0.2188 C   0  0  0  0  0  0  0  0  0  0  0  0
    0.4704    1.4974    0.2978 C   0  0  0  0  0  0  0  0  0  0  0  0
   -0.3507    2.0896   -0.3566 O   0  0  0  0  0  0  0  0  0  0  0  0
    0.8463    1.9129    1.5207 O   0  0  0  0  0  0  0  0  0  0  0  0
    2.6898   -0.3223    0.5449 S   0  0  0  0  0  0  0  0  0  0  0  0
    1.1844    0.2621   -1.3037 H   0  0  0  0  0  0  0  0  0  0  0  0
    0.3981   -0.6230   -0.0020 H   0  0  0  0  0  0  0  0  0  0  0  0
    1.5429    1.3134    1.8592 H   0  0  0  0  0  0  0  0  0  0  0  0
    3.4634    0.6125   -0.0479 H   0  0  0  0  0  0  0  0  0  0  0  0
  1  7  1  0
  1  2  1  0
  1  5  1  0
  2  4  1  0
  3  2  2  0
  4  8  1  0
  6  1  1  0
  9  5  1  0
M  END
>  <HBA>  (385) 
3

>  <HBD>  (385) 
2

>  <TPSA>  (385) 
76.1

>  <cid>  (385) 
1133

>  <dipole>  (385) 
3.14

>  <excitation_energy_1>  (385) 
5.455

>  <excitation_energy_2>  (385) 
5.576

>  <excitation_energy_3>  (385) 
6.246

>  <excitation_energy_4>  (385) 
6.565

>  <homo_energy>  (385) 
-7.233

>  <homo_lumo_gap>  (385) 
7.037

>  <logP>  (385) 
0.001

>  <lumo_energy>  (385) 
-0.196

>  <melting_point>  (385) 
73.51

>  <molecular_refractivity>  (385) 
21.43

>  <oscillator_strength_1>  (385) 
0.0051

>  <oscillator_strength_2>  (385) 
0.0015

>  <oscillator_strength_3>  (385) 
0.0253

>  <oscillator_strength_4>  (385) 
0.0196

>  <open_babel_can_smiles>  (385) 
OC(=O)CS

>  <mulliken_charges>  (385) 
9
1   -0.525227
2   0.590689
3   -0.430015
4   -0.554086
5   -0.085957
6   0.224109
7   0.225237
8   0.427123
9   0.128128

>  <lowdin_charges>  (385) 
9
1   -0.419958
2   0.183728
3   -0.237128
4   -0.348418
5   -0.058092
6   0.192188
7   0.199957
8   0.357904
9   0.12982

$$$$
PCCDB-ID:  1136
     RDKit          3D

 18 18  0  0  0  0  0  0  0  0999 V2000
    1.1377    0.9150   -0.0730 C   0  0  0  0  0  0  0  0  0  0  0  0
    2.5733   -1.9646   -0.1685 C   0  0  0  0  0  0  0  0  0  0  0  0
    2.3247   -2.6066    1.2107 C   0  0  0  0  0  0  0  0  0  0  0  0
    4.7194    1.3148    0.1127 C   0  0  0  0  0  0  0  0  0  0  0  0
    2.6151    0.6334   -0.0088 C   0  0  0  0  0  0  0  0  0  0  0  0
    3.2118   -0.6052   -0.0788 C   0  0  0  0  0  0  0  0  0  0  0  0
    3.4831    1.7081    0.0951 N   0  0  0  0  0  0  0  0  0  0  0  0
    1.4597   -1.8317    2.0246 O   0  0  0  0  0  0  0  0  0  0  0  0
    4.9505   -0.4115    0.0016 S   0  0  0  0  0  0  0  0  0  0  0  0
    0.5464    0.0529    0.2438 H   0  0  0  0  0  0  0  0  0  0  0  0
    0.8333    1.1922   -1.0906 H   0  0  0  0  0  0  0  0  0  0  0  0
    0.8956    1.7605    0.5780 H   0  0  0  0  0  0  0  0  0  0  0  0
    1.6118   -1.8730   -0.6856 H   0  0  0  0  0  0  0  0  0  0  0  0
    3.1940   -2.6412   -0.7693 H   0  0  0  0  0  0  0  0  0  0  0  0
    3.2874   -2.7918    1.7138 H   0  0  0  0  0  0  0  0  0  0  0  0
    1.8275   -3.5727    1.0780 H   0  0  0  0  0  0  0  0  0  0  0  0
    5.5689    1.9839    0.1907 H   0  0  0  0  0  0  0  0  0  0  0  0
    1.9044   -0.9829    2.1834 H   0  0  0  0  0  0  0  0  0  0  0  0
  1  5  1  0
  1 10  1  0
  1 12  1  0
  2  6  1  0
  2  3  1  0
  3 15  1  0
  3  8  1  0
  4 17  1  0
  5  7  1  0
  6  5  2  0
  6  9  1  0
  7  4  2  0
  8 18  1  0
  9  4  1  0
 11  1  1  0
 13  2  1  0
 14  2  1  0
 16  3  1  0
M  END
>  <HBA>  (386) 
3

>  <HBD>  (386) 
1

>  <TPSA>  (386) 
61.36

>  <cid>  (386) 
1136

>  <dipole>  (386) 
1.57

>  <excitation_energy_1>  (386) 
5.171

>  <excitation_energy_2>  (386) 
5.284

>  <excitation_energy_3>  (386) 
5.373

>  <excitation_energy_4>  (386) 
5.819

>  <homo_energy>  (386) 
-6.465

>  <homo_lumo_gap>  (386) 
5.725

>  <logP>  (386) 
0.986

>  <lumo_energy>  (386) 
-0.74

>  <melting_point>  (386) 
44.68

>  <molecular_refractivity>  (386) 
38.01

>  <oscillator_strength_1>  (386) 
0.1148

>  <oscillator_strength_2>  (386) 
0.0021

>  <oscillator_strength_3>  (386) 
0.0103

>  <oscillator_strength_4>  (386) 
0.0052

>  <open_babel_can_smiles>  (386) 
Cc1ncsc1CCO

>  <mulliken_charges>  (386) 
18
1   -0.519435
2   -0.332291
3   -0.028598
4   -0.126018
5   0.265011
6   -0.184125
7   -0.382081
8   -0.609792
9   0.217347
10   0.170615
11   0.168376
12   0.173716
13   0.170502
14   0.154262
15   0.130975
16   0.152141
17   0.181639
18   0.397757

>  <lowdin_charges>  (386) 
18
1   -0.449925
2   -0.291443
3   -0.132038
4   -0.237017
5   -0.000787
6   -0.191036
7   -0.157292
8   -0.462873
9   0.281837
10   0.166127
11   0.16486
12   0.171343
13   0.165917
14   0.16322
15   0.130576
16   0.150516
17   0.183311
18   0.344706

$$$$
PCCDB-ID:  1140
     RDKit          3D

 15 15  0  0  0  0  0  0  0  0999 V2000
    0.9315    0.0696   -0.0174 C   0  0  0  0  0  0  0  0  0  0  0  0
    5.2523    0.1075   -0.3094 C   0  0  0  0  0  0  0  0  0  0  0  0
    4.5631   -1.1041   -0.2658 C   0  0  0  0  0  0  0  0  0  0  0  0
    4.5368    1.3065   -0.2604 C   0  0  0  0  0  0  0  0  0  0  0  0
    3.1693   -1.1152   -0.1735 C   0  0  0  0  0  0  0  0  0  0  0  0
    3.1457    1.2894   -0.1690 C   0  0  0  0  0  0  0  0  0  0  0  0
    2.4395    0.0783   -0.1235 C   0  0  0  0  0  0  0  0  0  0  0  0
    0.5347   -0.9501   -0.0469 H   0  0  0  0  0  0  0  0  0  0  0  0
    0.4679    0.6322   -0.8373 H   0  0  0  0  0  0  0  0  0  0  0  0
    0.5930    0.5310    0.9191 H   0  0  0  0  0  0  0  0  0  0  0  0
    6.3366    0.1195   -0.3812 H   0  0  0  0  0  0  0  0  0  0  0  0
    5.1082   -2.0439   -0.3042 H   0  0  0  0  0  0  0  0  0  0  0  0
    5.0636    2.2568   -0.2953 H   0  0  0  0  0  0  0  0  0  0  0  0
    2.6396   -2.0648   -0.1409 H   0  0  0  0  0  0  0  0  0  0  0  0
    2.5973    2.2287   -0.1329 H   0  0  0  0  0  0  0  0  0  0  0  0
  1 10  1  0
  2  3  2  0
  2  4  1  0
  3  5  1  0
  4  6  2  0
  5 14  1  0
  5  7  2  0
  6 15  1  0
  6  7  1  0
  7  1  1  0
  8  1  1  0
  9  1  1  0
 11  2  1  0
 12  3  1  0
 13  4  1  0
M  END
>  <HBA>  (387) 
0

>  <HBD>  (387) 
0

>  <TPSA>  (387) 
0.0

>  <cid>  (387) 
1140

>  <dipole>  (387) 
0.32

>  <excitation_energy_1>  (387) 
5.292

>  <excitation_energy_2>  (387) 
5.909

>  <excitation_energy_3>  (387) 
6.034

>  <excitation_energy_4>  (387) 
6.257

>  <homo_energy>  (387) 
-6.403

>  <homo_lumo_gap>  (387) 
6.504

>  <logP>  (387) 
1.995

>  <lumo_energy>  (387) 
0.101

>  <melting_point>  (387) 
7.15

>  <molecular_refractivity>  (387) 
31.41

>  <oscillator_strength_1>  (387) 
0.0022

>  <oscillator_strength_2>  (387) 
0.0191

>  <oscillator_strength_3>  (387) 
0.0021

>  <oscillator_strength_4>  (387) 
0.0

>  <open_babel_can_smiles>  (387) 
Cc1ccccc1

>  <mulliken_charges>  (387) 
15
1   -0.529898
2   -0.133008
3   -0.125656
4   -0.127433
5   -0.18243
6   -0.176134
7   0.177272
8   0.154037
9   0.16106
10   0.162384
11   0.126139
12   0.126538
13   0.126669
14   0.120241
15   0.120218

>  <lowdin_charges>  (387) 
15
1   -0.443326
2   -0.160607
3   -0.15609
4   -0.155292
5   -0.169903
6   -0.167276
7   0.002216
8   0.155394
9   0.160926
10   0.160656
11   0.154027
12   0.156361
13   0.156135
14   0.153271
15   0.153506

$$$$
PCCDB-ID:  1141
     RDKit          3D

 19 19  0  0  1  0  0  0  0  0999 V2000
    0.8754    0.0652   -0.1374 C   0  0  0  0  0  0  0  0  0  0  0  0
    4.5670    1.1747    0.2149 C   0  0  0  0  0  0  0  0  0  0  0  0
    3.1116    1.2061    0.0336 C   0  0  0  0  0  0  0  0  0  0  0  0
    5.2581    0.0208    0.1952 C   0  0  0  0  0  0  0  0  0  0  0  0
    2.3687    0.0812    0.0143 C   0  0  0  0  0  0  0  0  0  0  0  0
    4.5502   -1.2762   -0.1036 C   0  0  1  0  0  0  0  0  0  0  0  0
    3.0542   -1.2464    0.2837 C   0  0  1  0  0  0  0  0  0  0  0  0
    4.7228   -1.6220   -1.4869 O   0  0  0  0  0  0  0  0  0  0  0  0
    2.8694   -1.5979    1.6649 O   0  0  0  0  0  0  0  0  0  0  0  0
    0.4581    1.0761   -0.1872 H   0  0  0  0  0  0  0  0  0  0  0  0
    0.4143   -0.4625    0.7075 H   0  0  0  0  0  0  0  0  0  0  0  0
    0.5747   -0.4743   -1.0464 H   0  0  0  0  0  0  0  0  0  0  0  0
    5.0810    2.1234    0.3552 H   0  0  0  0  0  0  0  0  0  0  0  0
    2.6337    2.1779   -0.0764 H   0  0  0  0  0  0  0  0  0  0  0  0
    6.3402    0.0058    0.2961 H   0  0  0  0  0  0  0  0  0  0  0  0
    4.9951   -2.1071    0.4535 H   0  0  0  0  0  0  0  0  0  0  0  0
    2.5704   -2.0526   -0.2777 H   0  0  0  0  0  0  0  0  0  0  0  0
    4.5469   -0.8160   -1.9991 H   0  0  0  0  0  0  0  0  0  0  0  0
    3.1937   -0.8462    2.1882 H   0  0  0  0  0  0  0  0  0  0  0  0
  1  5  1  0
  1 11  1  0
  2 13  1  0
  3  2  1  0
  4  2  2  0
  4 15  1  0
  5  3  2  0
  5  7  1  0
  6  4  1  0
  6  7  1  0
  6 16  1  1
  7 17  1  6
  7  9  1  0
  8  6  1  0
  9 19  1  0
 10  1  1  0
 12  1  1  0
 14  3  1  0
 18  8  1  0
M  END
>  <HBA>  (388) 
2

>  <HBD>  (388) 
2

>  <TPSA>  (388) 
40.46

>  <cid>  (388) 
1141

>  <dipole>  (388) 
2.75

>  <excitation_energy_1>  (388) 
4.417

>  <excitation_energy_2>  (388) 
4.75

>  <excitation_energy_3>  (388) 
5.488

>  <excitation_energy_4>  (388) 
5.834

>  <homo_energy>  (388) 
-6.09

>  <homo_lumo_gap>  (388) 
4.98

>  <logP>  (388) 
0.224

>  <lumo_energy>  (388) 
-1.11

>  <melting_point>  (388) 
55.59

>  <molecular_refractivity>  (388) 
35.02

>  <oscillator_strength_1>  (388) 
0.1058

>  <oscillator_strength_2>  (388) 
0.0492

>  <oscillator_strength_3>  (388) 
0.0027

>  <oscillator_strength_4>  (388) 
0.0182

>  <open_babel_can_smiles>  (388) 
O[C@H]1C(=CC=C[C@@H]1O)C

>  <mulliken_charges>  (388) 
19
1   -0.518104
2   -0.119457
3   -0.192571
4   -0.172677
5   0.137294
6   0.079747
7   0.046511
8   -0.618539
9   -0.618941
10   0.153426
11   0.175553
12   0.159793
13   0.133957
14   0.126654
15   0.139988
16   0.152891
17   0.151718
18   0.39059
19   0.392167

>  <lowdin_charges>  (388) 
19
1   -0.440711
2   -0.16683
3   -0.196507
4   -0.191848
5   -0.017602
6   -0.017559
7   -0.018404
8   -0.458018
9   -0.457571
10   0.15567
11   0.168734
12   0.160378
13   0.159209
14   0.155338
15   0.159599
16   0.158831
17   0.158284
18   0.343723
19   0.345284

$$$$
PCCDB-ID:  1146
     RDKit          3D

 13 12  0  0  0  0  0  0  0  0999 V2000
    1.0493   -0.0786   -0.0155 C   0  0  0  0  0  0  0  0  0  0  0  0
    3.0137    1.0707    0.7643 C   0  0  0  0  0  0  0  0  0  0  0  0
    3.0136   -1.3284    0.5900 C   0  0  0  0  0  0  0  0  0  0  0  0
    2.5030   -0.0825    0.0392 N   0  0  0  0  0  0  0  0  0  0  0  0
    0.6995    0.8451   -0.4899 H   0  0  0  0  0  0  0  0  0  0  0  0
    0.5720   -0.1512    0.9832 H   0  0  0  0  0  0  0  0  0  0  0  0
    0.6996   -0.9241   -0.6185 H   0  0  0  0  0  0  0  0  0  0  0  0
    2.6601    1.9927    0.2895 H   0  0  0  0  0  0  0  0  0  0  0  0
    4.1090    1.0711    0.7343 H   0  0  0  0  0  0  0  0  0  0  0  0
    2.7015    1.0932    1.8286 H   0  0  0  0  0  0  0  0  0  0  0  0
    2.6609   -2.1720   -0.0138 H   0  0  0  0  0  0  0  0  0  0  0  0
    2.7001   -1.5049    1.6394 H   0  0  0  0  0  0  0  0  0  0  0  0
    4.1089   -1.3241    0.5615 H   0  0  0  0  0  0  0  0  0  0  0  0
  1  4  1  0
  1  6  1  0
  2 10  1  0
  3 12  1  0
  4  3  1  0
  4  2  1  0
  5  1  1  0
  7  1  1  0
  8  2  1  0
  9  2  1  0
 11  3  1  0
 13  3  1  0
M  END
>  <HBA>  (389) 
1

>  <HBD>  (389) 
0

>  <TPSA>  (389) 
3.24

>  <cid>  (389) 
1146

>  <dipole>  (389) 
0.57

>  <excitation_energy_1>  (389) 
5.254

>  <excitation_energy_2>  (389) 
5.948

>  <excitation_energy_3>  (389) 
5.948

>  <excitation_energy_4>  (389) 
6.13

>  <homo_energy>  (389) 
-5.641

>  <homo_lumo_gap>  (389) 
7.932

>  <logP>  (389) 
0.178

>  <lumo_energy>  (389) 
2.291

>  <melting_point>  (389) 
-21.93

>  <molecular_refractivity>  (389) 
19.43

>  <oscillator_strength_1>  (389) 
0.0253

>  <oscillator_strength_2>  (389) 
0.0033

>  <oscillator_strength_3>  (389) 
0.0033

>  <oscillator_strength_4>  (389) 
0.0881

>  <open_babel_can_smiles>  (389) 
CN(C)C

>  <mulliken_charges>  (389) 
13
1   -0.292134
2   -0.292089
3   -0.292193
4   -0.350655
5   0.147232
6   0.114543
7   0.147233
8   0.147219
9   0.147232
10   0.114531
11   0.147253
12   0.114573
13   0.147256

>  <lowdin_charges>  (389) 
13
1   -0.356798
2   -0.352409
3   -0.353373
4   -0.180432
5   0.149374
6   0.11777
7   0.149865
8   0.14928
9   0.146832
10   0.116408
11   0.149864
12   0.116766
13   0.146853

$$$$
PCCDB-ID:  1148
     RDKit          3D

 27 28  0  0  1  0  0  0  0  0999 V2000
    2.4531    2.9245   -0.2739 C   0  0  0  0  0  0  0  0  0  0  0  0
    1.7226    3.9185    0.4095 C   0  0  0  0  0  0  0  0  0  0  0  0
    1.8616    1.7202   -0.6327 C   0  0  0  0  0  0  0  0  0  0  0  0
    0.3859    3.7288    0.7390 C   0  0  0  0  0  0  0  0  0  0  0  0
   -0.1145   -0.9341   -1.1638 C   0  0  0  0  0  0  0  0  0  0  0  0
   -1.6072    0.7912    0.0102 C   0  0  0  0  0  0  0  0  0  0  0  0
   -0.4052    0.3947   -0.5243 C   0  0  0  0  0  0  0  0  0  0  0  0
    0.5122    1.4898   -0.3059 C   0  0  0  0  0  0  0  0  0  0  0  0
    0.4088   -1.9960   -0.1720 C   0  0  1  0  0  0  0  0  0  0  0  0
   -0.2051    2.5146    0.3737 C   0  0  0  0  0  0  0  0  0  0  0  0
    0.4765   -3.3931   -0.8305 C   0  0  0  0  0  0  0  0  0  0  0  0
    1.7056   -1.7134    0.4688 N   0  0  0  0  0  0  0  0  0  0  0  0
   -1.4923    2.0549    0.5578 N   0  0  0  0  0  0  0  0  0  0  0  0
   -0.3136   -3.7746   -1.6627 O   0  0  0  0  0  0  0  0  0  0  0  0
    1.4746   -4.1586   -0.3615 O   0  0  0  0  0  0  0  0  0  0  0  0
    3.4933    3.1090   -0.5274 H   0  0  0  0  0  0  0  0  0  0  0  0
    2.2111    4.8509    0.6782 H   0  0  0  0  0  0  0  0  0  0  0  0
    2.4355    0.9722   -1.1748 H   0  0  0  0  0  0  0  0  0  0  0  0
   -0.1788    4.4975    1.2602 H   0  0  0  0  0  0  0  0  0  0  0  0
    0.6205   -0.8160   -1.9725 H   0  0  0  0  0  0  0  0  0  0  0  0
   -1.0136   -1.3446   -1.6333 H   0  0  0  0  0  0  0  0  0  0  0  0
   -2.5524    0.2656    0.0406 H   0  0  0  0  0  0  0  0  0  0  0  0
   -0.3242   -2.0920    0.6403 H   0  0  0  0  0  0  0  0  0  0  0  0
    1.5962   -1.0371    1.2208 H   0  0  0  0  0  0  0  0  0  0  0  0
    2.3458   -1.2899   -0.2026 H   0  0  0  0  0  0  0  0  0  0  0  0
   -2.2471    2.5802    0.9707 H   0  0  0  0  0  0  0  0  0  0  0  0
    1.9617   -3.5754    0.2741 H   0  0  0  0  0  0  0  0  0  0  0  0
  1  2  2  0
  2 17  1  0
  2  4  1  0
  3  8  2  0
  3  1  1  0
  4 19  1  0
  5  7  1  0
  5  9  1  0
  6 22  1  0
  6 13  1  0
  7  8  1  0
  7  6  2  0
  8 10  1  0
  9 12  1  0
  9 23  1  1
 10 13  1  0
 10  4  2  0
 11 15  1  0
 11  9  1  0
 12 24  1  0
 13 26  1  0
 14 11  2  0
 15 27  1  0
 16  1  1  0
 18  3  1  0
 20  5  1  0
 21  5  1  0
 25 12  1  0
M  END
>  <HBA>  (390) 
3

>  <HBD>  (390) 
3

>  <TPSA>  (390) 
79.11

>  <cid>  (390) 
1148

>  <dipole>  (390) 
6.07

>  <excitation_energy_1>  (390) 
4.53

>  <excitation_energy_2>  (390) 
4.75

>  <excitation_energy_3>  (390) 
4.821

>  <excitation_energy_4>  (390) 
4.941

>  <homo_energy>  (390) 
-5.649

>  <homo_lumo_gap>  (390) 
5.178

>  <logP>  (390) 
1.823

>  <lumo_energy>  (390) 
-0.471

>  <melting_point>  (390) 
229.84

>  <molecular_refractivity>  (390) 
57.36

>  <oscillator_strength_1>  (390) 
0.0662

>  <oscillator_strength_2>  (390) 
0.0064

>  <oscillator_strength_3>  (390) 
0.0226

>  <oscillator_strength_4>  (390) 
0.0015

>  <open_babel_can_smiles>  (390) 
OC(=O)[C@H](Cc1c[nH]c2c1cccc2)N

>  <mulliken_charges>  (390) 
27
1   -0.138399
2   -0.151997
3   -0.221043
4   -0.160779
5   -0.362106
6   -0.001686
7   0.063512
8   0.075377
9   -0.08596
10   0.312918
11   0.61612
12   -0.771272
13   -0.687903
14   -0.469236
15   -0.584599
16   0.124481
17   0.127342
18   0.114857
19   0.125072
20   0.147856
21   0.181935
22   0.155163
23   0.175143
24   0.332774
25   0.320981
26   0.329942
27   0.431506

>  <lowdin_charges>  (390) 
27
1   -0.173163
2   -0.162946
3   -0.173864
4   -0.186301
5   -0.279149
6   -0.133229
7   -0.069563
8   -0.040401
9   -0.109598
10   0.031976
11   0.17357
12   -0.546036
13   -0.199991
14   -0.259094
15   -0.35726
16   0.155243
17   0.158068
18   0.150658
19   0.158503
20   0.153508
21   0.176198
22   0.167314
23   0.166799
24   0.277796
25   0.265857
26   0.294309
27   0.360796

$$$$
PCCDB-ID:  1150
     RDKit          3D

 24 25  0  0  0  0  0  0  0  0999 V2000
    2.1729   -0.5524    0.0552 C   0  0  0  0  0  0  0  0  0  0  0  0
    2.1371    0.8574    0.0575 C   0  0  0  0  0  0  0  0  0  0  0  0
    1.0016   -1.2993    0.0407 C   0  0  0  0  0  0  0  0  0  0  0  0
    0.9301    1.5468    0.0415 C   0  0  0  0  0  0  0  0  0  0  0  0
   -2.1026   -2.4941    0.0215 C   0  0  0  0  0  0  0  0  0  0  0  0
   -1.9949   -3.1631    1.4029 C   0  0  0  0  0  0  0  0  0  0  0  0
   -2.3776    0.0637   -0.0119 C   0  0  0  0  0  0  0  0  0  0  0  0
   -1.6118   -1.0749    0.0039 C   0  0  0  0  0  0  0  0  0  0  0  0
   -0.2365   -0.6326    0.0289 C   0  0  0  0  0  0  0  0  0  0  0  0
   -0.2465    0.7900    0.0283 C   0  0  0  0  0  0  0  0  0  0  0  0
   -2.4116   -4.5679    1.3214 N   0  0  0  0  0  0  0  0  0  0  0  0
   -1.5677    1.1861    0.0064 N   0  0  0  0  0  0  0  0  0  0  0  0
    3.1340   -1.0593    0.0642 H   0  0  0  0  0  0  0  0  0  0  0  0
    3.0695    1.4154    0.0677 H   0  0  0  0  0  0  0  0  0  0  0  0
    1.0417   -2.3856    0.0337 H   0  0  0  0  0  0  0  0  0  0  0  0
    0.9031    2.6337    0.0385 H   0  0  0  0  0  0  0  0  0  0  0  0
   -3.1518   -2.5245   -0.3051 H   0  0  0  0  0  0  0  0  0  0  0  0
   -1.5401   -3.1075   -0.6940 H   0  0  0  0  0  0  0  0  0  0  0  0
   -2.5651   -2.5596    2.1322 H   0  0  0  0  0  0  0  0  0  0  0  0
   -0.9495   -3.1425    1.7330 H   0  0  0  0  0  0  0  0  0  0  0  0
   -3.4544    0.1672   -0.0368 H   0  0  0  0  0  0  0  0  0  0  0  0
   -3.4107   -4.6151    1.1215 H   0  0  0  0  0  0  0  0  0  0  0  0
   -2.2884   -5.0168    2.2278 H   0  0  0  0  0  0  0  0  0  0  0  0
   -1.8923    2.1396   -0.0214 H   0  0  0  0  0  0  0  0  0  0  0  0
  1  2  2  0
  1 13  1  0
  2 14  1  0
  3  1  1  0
  4  2  1  0
  5  6  1  0
  6 20  1  0
  6 19  1  0
  7  8  2  0
  7 12  1  0
  8  5  1  0
  8  9  1  0
  9  3  2  0
 10  9  1  0
 10  4  2  0
 11  6  1  0
 11 23  1  0
 12 10  1  0
 15  3  1  0
 16  4  1  0
 17  5  1  0
 18  5  1  0
 21  7  1  0
 22 11  1  0
 24 12  1  0
M  END
>  <HBA>  (391) 
1

>  <HBD>  (391) 
2

>  <TPSA>  (391) 
41.81

>  <cid>  (391) 
1150

>  <dipole>  (391) 
3.09

>  <excitation_energy_1>  (391) 
4.556

>  <excitation_energy_2>  (391) 
4.697

>  <excitation_energy_3>  (391) 
4.824

>  <excitation_energy_4>  (391) 
5.043

>  <homo_energy>  (391) 
-5.271

>  <homo_lumo_gap>  (391) 
5.23

>  <logP>  (391) 
2.369

>  <lumo_energy>  (391) 
-0.041

>  <melting_point>  (391) 
153.35

>  <molecular_refractivity>  (391) 
50.78

>  <oscillator_strength_1>  (391) 
0.0692

>  <oscillator_strength_2>  (391) 
0.0013

>  <oscillator_strength_3>  (391) 
0.026

>  <oscillator_strength_4>  (391) 
0.0099

>  <open_babel_can_smiles>  (391) 
NCCc1c[nH]c2c1cccc2

>  <mulliken_charges>  (391) 
24
1   -0.140837
2   -0.151541
3   -0.211368
4   -0.163516
5   -0.335096
6   -0.131915
7   -0.007344
8   0.075562
9   0.076719
10   0.312828
11   -0.715491
12   -0.691041
13   0.118955
14   0.120725
15   0.129096
16   0.11829
17   0.126815
18   0.156918
19   0.113242
20   0.147149
21   0.142555
22   0.289663
23   0.295079
24   0.324554

>  <lowdin_charges>  (391) 
24
1   -0.177403
2   -0.165915
3   -0.161361
4   -0.185871
5   -0.271712
6   -0.205026
7   -0.137127
8   -0.059615
9   -0.035793
10   0.030455
11   -0.557518
12   -0.201527
13   0.153843
14   0.154915
15   0.155447
16   0.151826
17   0.141488
18   0.158072
19   0.119301
20   0.143811
21   0.159724
22   0.247344
23   0.253748
24   0.288893

$$$$
PCCDB-ID:  1178
     RDKit          3D

 16 16  0  0  0  0  0  0  0  0999 V2000
    1.1854    0.2566    0.0191 C   0  0  0  0  0  0  0  0  0  0  0  0
    0.2323    1.2112    0.0446 C   0  0  0  0  0  0  0  0  0  0  0  0
    3.4335    1.5730    0.0223 C   0  0  0  0  0  0  0  0  0  0  0  0
    4.7584   -0.0998   -0.0293 C   0  0  0  0  0  0  0  0  0  0  0  0
    2.6086    0.4545    0.0068 C   0  0  0  0  0  0  0  0  0  0  0  0
   -1.1937    0.8125    0.0541 C   0  0  0  0  0  0  0  0  0  0  0  0
    4.7524    1.2224   -0.0004 N   0  0  0  0  0  0  0  0  0  0  0  0
    3.5008   -0.6118   -0.0268 N   0  0  0  0  0  0  0  0  0  0  0  0
   -1.5872   -0.3333    0.0363 O   0  0  0  0  0  0  0  0  0  0  0  0
   -2.0970    1.8344    0.0839 O   0  0  0  0  0  0  0  0  0  0  0  0
    0.8247   -0.7719    0.0067 H   0  0  0  0  0  0  0  0  0  0  0  0
    0.4938    2.2677    0.0573 H   0  0  0  0  0  0  0  0  0  0  0  0
    3.1318    2.6117    0.0486 H   0  0  0  0  0  0  0  0  0  0  0  0
    5.6409   -0.7248   -0.0541 H   0  0  0  0  0  0  0  0  0  0  0  0
    3.2487   -1.5905   -0.0440 H   0  0  0  0  0  0  0  0  0  0  0  0
   -1.6370    2.6893    0.0986 H   0  0  0  0  0  0  0  0  0  0  0  0
  1  2  2  0
  2  6  1  0
  2 12  1  0
  3 13  1  0
  4  8  1  0
  4  7  2  0
  5  1  1  0
  5  3  2  0
  6 10  1  0
  7  3  1  0
  8  5  1  0
  9  6  2  0
 10 16  1  0
 11  1  1  0
 14  4  1  0
 15  8  1  0
M  END
>  <HBA>  (392) 
3

>  <HBD>  (392) 
2

>  <TPSA>  (392) 
65.98

>  <cid>  (392) 
1178

>  <dipole>  (392) 
2.73

>  <excitation_energy_1>  (392) 
4.167

>  <excitation_energy_2>  (392) 
4.312

>  <excitation_energy_3>  (392) 
4.891

>  <excitation_energy_4>  (392) 
5.361

>  <homo_energy>  (392) 
-6.253

>  <homo_lumo_gap>  (392) 
4.367

>  <logP>  (392) 
0.507

>  <lumo_energy>  (392) 
-1.886

>  <melting_point>  (392) 
166.11

>  <molecular_refractivity>  (392) 
35.26

>  <oscillator_strength_1>  (392) 
0.5755

>  <oscillator_strength_2>  (392) 
0.0

>  <oscillator_strength_3>  (392) 
0.0001

>  <oscillator_strength_4>  (392) 
0.0023

>  <open_babel_can_smiles>  (392) 
OC(=O)/C=C/c1cnc[nH]1

>  <mulliken_charges>  (392) 
16
1   -0.13925
2   -0.246037
3   -0.056794
4   0.22283
5   0.326998
6   0.608027
7   -0.417268
8   -0.615299
9   -0.466722
10   -0.58523
11   0.172493
12   0.128961
13   0.145771
14   0.170526
15   0.344598
16   0.406396

>  <lowdin_charges>  (392) 
16
1   -0.102389
2   -0.234162
3   -0.133486
4   -0.076907
5   -0.014414
6   0.191336
7   -0.173088
8   -0.167026
9   -0.26047
10   -0.358216
11   0.179096
12   0.153717
13   0.165528
14   0.175388
15   0.299351
16   0.355741

$$$$
PCCDB-ID:  1182
     RDKit          3D

 19 18  0  0  1  0  0  0  0  0999 V2000
    0.9259    0.4049   -0.1205 C   0  0  0  0  0  0  0  0  0  0  0  0
    2.9788    0.8513    1.3012 C   0  0  0  0  0  0  0  0  0  0  0  0
    2.4208    0.1212    0.0686 C   0  0  0  0  0  0  0  0  0  0  0  0
    2.7002   -1.4052    0.1139 C   0  0  1  0  0  0  0  0  0  0  0  0
    4.2182   -1.6534   -0.0758 C   0  0  0  0  0  0  0  0  0  0  0  0
    2.0753   -2.0354    1.2709 N   0  0  0  0  0  0  0  0  0  0  0  0
    4.8413   -1.2084   -1.0092 O   0  0  0  0  0  0  0  0  0  0  0  0
    4.8180   -2.4137    0.8705 O   0  0  0  0  0  0  0  0  0  0  0  0
    0.7438    1.4839   -0.1842 H   0  0  0  0  0  0  0  0  0  0  0  0
    0.3413    0.0062    0.7149 H   0  0  0  0  0  0  0  0  0  0  0  0
    0.5483   -0.0532   -1.0425 H   0  0  0  0  0  0  0  0  0  0  0  0
    2.8633    1.9343    1.1841 H   0  0  0  0  0  0  0  0  0  0  0  0
    4.0466    0.6505    1.4492 H   0  0  0  0  0  0  0  0  0  0  0  0
    2.4418    0.5730    2.2175 H   0  0  0  0  0  0  0  0  0  0  0  0
    2.9647    0.4837   -0.8108 H   0  0  0  0  0  0  0  0  0  0  0  0
    2.2330   -1.8443   -0.7765 H   0  0  0  0  0  0  0  0  0  0  0  0
    2.3784   -1.6924    2.1755 H   0  0  0  0  0  0  0  0  0  0  0  0
    2.0243   -3.0471    1.2460 H   0  0  0  0  0  0  0  0  0  0  0  0
    4.1259   -2.6654    1.5109 H   0  0  0  0  0  0  0  0  0  0  0  0
  1  3  1  0
  1 10  1  0
  2 13  1  0
  2 14  1  0
  3  4  1  0
  3  2  1  0
  4 16  1  6
  4  6  1  0
  5  4  1  0
  5  8  1  0
  6 17  1  0
  7  5  2  0
  8 19  1  0
  9  1  1  0
 11  1  1  0
 12  2  1  0
 15  3  1  0
 18  6  1  0
M  END
>  <HBA>  (393) 
3

>  <HBD>  (393) 
2

>  <TPSA>  (393) 
63.32

>  <cid>  (393) 
1182

>  <dipole>  (393) 
3.98

>  <excitation_energy_1>  (393) 
5.27

>  <excitation_energy_2>  (393) 
5.426

>  <excitation_energy_3>  (393) 
6.545

>  <excitation_energy_4>  (393) 
6.685

>  <homo_energy>  (393) 
-6.555

>  <homo_lumo_gap>  (393) 
6.89

>  <logP>  (393) 
0.755

>  <lumo_energy>  (393) 
0.335

>  <melting_point>  (393) 
105.51

>  <molecular_refractivity>  (393) 
30.63

>  <oscillator_strength_1>  (393) 
0.0047

>  <oscillator_strength_2>  (393) 
0.0072

>  <oscillator_strength_3>  (393) 
0.0098

>  <oscillator_strength_4>  (393) 
0.0058

>  <open_babel_can_smiles>  (393) 
N[C@H](C(=O)O)C(C)C

>  <mulliken_charges>  (393) 
19
1   -0.445591
2   -0.474412
3   -0.069386
4   -0.064669
5   0.578244
6   -0.755318
7   -0.454411
8   -0.566827
9   0.142935
10   0.158595
11   0.140869
12   0.15744
13   0.157871
14   0.137165
15   0.165675
16   0.172644
17   0.317258
18   0.319121
19   0.382798

>  <lowdin_charges>  (393) 
19
1   -0.444273
2   -0.450251
3   -0.121098
4   -0.108629
5   0.169779
6   -0.551857
7   -0.250948
8   -0.357213
9   0.148714
10   0.155888
11   0.149222
12   0.157276
13   0.153174
14   0.142901
15   0.161851
16   0.170249
17   0.265537
18   0.267416
19   0.342261

$$$$
PCCDB-ID:  1183
     RDKit          3D

 19 19  0  0  0  0  0  0  0  0999 V2000
    2.1189   -1.3818   -1.1881 C   0  0  0  0  0  0  0  0  0  0  0  0
    4.6014    1.5269   -4.4406 C   0  0  0  0  0  0  0  0  0  0  0  0
    4.7687    0.1541   -4.3210 C   0  0  0  0  0  0  0  0  0  0  0  0
    3.4577    1.5578   -2.3064 C   0  0  0  0  0  0  0  0  0  0  0  0
    3.7694    3.7025   -3.5388 C   0  0  0  0  0  0  0  0  0  0  0  0
    3.9479    2.2428   -3.4280 C   0  0  0  0  0  0  0  0  0  0  0  0
    4.2910   -0.5260   -3.1922 C   0  0  0  0  0  0  0  0  0  0  0  0
    3.6151    0.1828   -2.1748 C   0  0  0  0  0  0  0  0  0  0  0  0
    4.1491    4.3811   -4.4761 O   0  0  0  0  0  0  0  0  0  0  0  0
    4.4572   -1.8676   -3.0212 O   0  0  0  0  0  0  0  0  0  0  0  0
    3.1800   -0.4340   -1.0304 O   0  0  0  0  0  0  0  0  0  0  0  0
    1.8658   -1.7161   -0.1797 H   0  0  0  0  0  0  0  0  0  0  0  0
    2.4313   -2.2395   -1.7912 H   0  0  0  0  0  0  0  0  0  0  0  0
    1.2399   -0.9090   -1.6456 H   0  0  0  0  0  0  0  0  0  0  0  0
    4.9728    2.0653   -5.3065 H   0  0  0  0  0  0  0  0  0  0  0  0
    5.2849   -0.4074   -5.0983 H   0  0  0  0  0  0  0  0  0  0  0  0
    2.9473    2.0919   -1.5088 H   0  0  0  0  0  0  0  0  0  0  0  0
    3.2426    4.1703   -2.6769 H   0  0  0  0  0  0  0  0  0  0  0  0
    4.9507   -2.2228   -3.7775 H   0  0  0  0  0  0  0  0  0  0  0  0
  1 11  1  0
  1 12  1  0
  2  3  2  0
  2  6  1  0
  3  7  1  0
  4  8  1  0
  4 17  1  0
  5  6  1  0
  5 18  1  0
  6  4  2  0
  7 10  1  0
  7  8  2  0
  8 11  1  0
  9  5  2  0
 13  1  1  0
 14  1  1  0
 15  2  1  0
 16  3  1  0
 19 10  1  0
M  END
>  <HBA>  (394) 
3

>  <HBD>  (394) 
1

>  <TPSA>  (394) 
46.53

>  <cid>  (394) 
1183

>  <dipole>  (394) 
4.08

>  <excitation_energy_1>  (394) 
3.771

>  <excitation_energy_2>  (394) 
4.404

>  <excitation_energy_3>  (394) 
4.77

>  <excitation_energy_4>  (394) 
5.308

>  <homo_energy>  (394) 
-6.299

>  <homo_lumo_gap>  (394) 
4.838

>  <logP>  (394) 
1.213

>  <lumo_energy>  (394) 
-1.461

>  <melting_point>  (394) 
84.17

>  <molecular_refractivity>  (394) 
40.34

>  <oscillator_strength_1>  (394) 
0.0002

>  <oscillator_strength_2>  (394) 
0.0958

>  <oscillator_strength_3>  (394) 
0.1235

>  <oscillator_strength_4>  (394) 
0.0014

>  <open_babel_can_smiles>  (394) 
COc1cc(C=O)ccc1O

>  <mulliken_charges>  (394) 
19
1   -0.21684
2   -0.162541
3   -0.19863
4   -0.235399
5   0.190625
6   0.093449
7   0.325515
8   0.3347
9   -0.417035
10   -0.629255
11   -0.519649
12   0.164451
13   0.168877
14   0.142505
15   0.164249
16   0.131265
17   0.147584
18   0.100339
19   0.415789

>  <lowdin_charges>  (394) 
19
1   -0.275829
2   -0.124597
3   -0.206433
4   -0.155274
5   0.044143
6   -0.069003
7   0.095603
8   0.065511
9   -0.238106
10   -0.36187
11   -0.220007
12   0.158962
13   0.153209
14   0.141279
15   0.178571
16   0.159833
17   0.172664
18   0.116979
19   0.364365

$$$$
PCCDB-ID:  1194
     RDKit          3D

 18 18  0  0  0  0  0  0  0  0999 V2000
    0.4240    1.4233   -0.0850 C   0  0  0  0  0  0  0  0  0  0  0  0
    1.3993    0.2749   -0.3620 C   0  0  0  0  0  0  0  0  0  0  0  0
   -0.9964    0.9943   -0.4690 C   0  0  0  0  0  0  0  0  0  0  0  0
    0.9720   -0.9718    0.4213 C   0  0  0  0  0  0  0  0  0  0  0  0
   -1.2913   -0.4215   -0.0085 C   0  0  0  0  0  0  0  0  0  0  0  0
   -2.7523   -0.8064   -0.0428 C   0  0  0  0  0  0  0  0  0  0  0  0
   -0.4538   -1.2950    0.3932 N   0  0  0  0  0  0  0  0  0  0  0  0
   -3.0027   -2.0689    0.3544 O   0  0  0  0  0  0  0  0  0  0  0  0
   -3.6265   -0.0426   -0.4045 O   0  0  0  0  0  0  0  0  0  0  0  0
    0.7088    2.3279   -0.6334 H   0  0  0  0  0  0  0  0  0  0  0  0
    0.4549    1.6776    0.9834 H   0  0  0  0  0  0  0  0  0  0  0  0
    2.4262    0.5481   -0.0917 H   0  0  0  0  0  0  0  0  0  0  0  0
    1.4024    0.0485   -1.4372 H   0  0  0  0  0  0  0  0  0  0  0  0
   -1.1358    1.0380   -1.5590 H   0  0  0  0  0  0  0  0  0  0  0  0
   -1.7550    1.6664   -0.0551 H   0  0  0  0  0  0  0  0  0  0  0  0
    1.2404   -0.8728    1.4837 H   0  0  0  0  0  0  0  0  0  0  0  0
    1.5042   -1.8629    0.0660 H   0  0  0  0  0  0  0  0  0  0  0  0
   -3.9697   -2.1747    0.2798 H   0  0  0  0  0  0  0  0  0  0  0  0
  1 11  1  0
  2 12  1  0
  2  1  1  0
  2  4  1  0
  3  1  1  0
  3 15  1  0
  3  5  1  0
  4 16  1  0
  5  7  2  0
  6  5  1  0
  6  8  1  0
  7  4  1  0
  9  6  2  0
 10  1  1  0
 13  2  1  0
 14  3  1  0
 17  4  1  0
 18  8  1  0
M  END
>  <HBA>  (395) 
3

>  <HBD>  (395) 
1

>  <TPSA>  (395) 
49.66

>  <cid>  (395) 
1194

>  <dipole>  (395) 
1.76

>  <excitation_energy_1>  (395) 
3.811

>  <excitation_energy_2>  (395) 
4.931

>  <excitation_energy_3>  (395) 
6.05

>  <excitation_energy_4>  (395) 
6.156

>  <homo_energy>  (395) 
-6.631

>  <homo_lumo_gap>  (395) 
5.255

>  <logP>  (395) 
0.132

>  <lumo_energy>  (395) 
-1.377

>  <melting_point>  (395) 
91.04

>  <molecular_refractivity>  (395) 
37.62

>  <oscillator_strength_1>  (395) 
0.0011

>  <oscillator_strength_2>  (395) 
0.0005

>  <oscillator_strength_3>  (395) 
0.0013

>  <oscillator_strength_4>  (395) 
0.2411

>  <open_babel_can_smiles>  (395) 
OC(=O)C1=NCCCC1

>  <mulliken_charges>  (395) 
18
1   -0.271263
2   -0.282265
3   -0.322368
4   -0.153853
5   0.243496
6   0.563361
7   -0.403364
8   -0.549889
9   -0.470245
10   0.143222
11   0.142841
12   0.140957
13   0.14329
14   0.16796
15   0.1773
16   0.160931
17   0.160873
18   0.409017

>  <lowdin_charges>  (395) 
18
1   -0.275278
2   -0.288737
3   -0.294794
4   -0.209809
5   0.014702
6   0.186012
7   -0.133017
8   -0.329154
9   -0.269553
10   0.151069
11   0.143167
12   0.150563
13   0.143519
14   0.163076
15   0.173968
16   0.155843
17   0.158469
18   0.359952

$$$$
PCCDB-ID:  1196
     RDKit          3D

 15 15  0  0  1  0  0  0  0  0999 V2000
   -0.1849    1.2228    0.1176 C   0  0  0  0  0  0  0  0  0  0  0  0
   -1.2855    0.3198   -0.4888 C   0  0  0  0  0  0  0  0  0  0  0  0
    0.8321    0.2046    0.5796 C   0  0  0  0  0  3  0  0  0  0  0  0
   -0.9253   -1.0846    0.0585 C   0  0  1  0  0  0  0  0  0  0  0  0
   -1.0565   -2.2211   -0.9631 C   0  0  0  0  0  0  0  0  0  0  0  0
    0.4606   -1.0152    0.5666 N   0  0  0  0  0  2  0  0  0  0  0  0
   -1.9484   -2.2775   -1.7743 O   0  0  0  0  0  0  0  0  0  0  0  0
   -0.1089   -3.1718   -0.8563 O   0  0  0  0  0  0  0  0  0  0  0  0
   -0.5423    1.8085    0.9764 H   0  0  0  0  0  0  0  0  0  0  0  0
    0.2437    1.9391   -0.5927 H   0  0  0  0  0  0  0  0  0  0  0  0
   -1.2404    0.3154   -1.5813 H   0  0  0  0  0  0  0  0  0  0  0  0
   -2.2940    0.6276   -0.2065 H   0  0  0  0  0  0  0  0  0  0  0  0
    1.8324    0.4718    0.9220 H   0  0  0  0  0  0  0  0  0  0  0  0
   -1.5710   -1.3646    0.9040 H   0  0  0  0  0  0  0  0  0  0  0  0
    0.5370   -2.8581   -0.1862 H   0  0  0  0  0  0  0  0  0  0  0  0
  1  3  1  0
  1  9  1  0
  2 12  1  0
  2  4  1  0
  2  1  1  0
  3 13  1  0
  4  6  1  0
  4 14  1  1
  5  8  1  0
  5  4  1  0
  6  3  1  0
  7  5  2  0
  8 15  1  0
 10  1  1  0
 11  2  1  0
M  RAD  2   3   2   6   2
M  END
>  <HBA>  (396) 
3

>  <HBD>  (396) 
1

>  <TPSA>  (396) 
49.66

>  <cid>  (396) 
1196

>  <dipole>  (396) 
5.16

>  <excitation_energy_1>  (396) 
5.571

>  <excitation_energy_2>  (396) 
5.621

>  <excitation_energy_3>  (396) 
5.764

>  <excitation_energy_4>  (396) 
6.644

>  <homo_energy>  (396) 
-7.127

>  <homo_lumo_gap>  (396) 
6.4

>  <logP>  (396) 
-0.26

>  <lumo_energy>  (396) 
-0.727

>  <melting_point>  (396) 
91.7

>  <molecular_refractivity>  (396) 
32.82

>  <oscillator_strength_1>  (396) 
0.0089

>  <oscillator_strength_2>  (396) 
0.0006

>  <oscillator_strength_3>  (396) 
0.0374

>  <oscillator_strength_4>  (396) 
0.0113

>  <open_babel_can_smiles>  (396) 
OC(=O)[C@@H]1CC[CH][N]1

>  <mulliken_charges>  (396) 
15
1   -0.339844
2   -0.291593
3   0.088539
4   -0.092698
5   0.598552
6   -0.395048
7   -0.453585
8   -0.575085
9   0.171249
10   0.169922
11   0.179391
12   0.163795
13   0.158809
14   0.18805
15   0.429545

>  <lowdin_charges>  (396) 
15
1   -0.301205
2   -0.279375
3   -0.061702
4   -0.112901
5   0.181486
6   -0.186912
7   -0.247925
8   -0.350444
9   0.166492
10   0.166776
11   0.165177
12   0.162892
13   0.162681
14   0.17374
15   0.361221

$$$$
PCCDB-ID:  1206
     RDKit          3D

 26 26  0  0  1  0  0  0  0  0999 V2000
   -0.1748   -0.8479    0.8820 C   0  0  0  0  0  0  0  0  0  0  0  0
    1.4558    1.2493    2.3996 C   0  0  0  0  0  0  0  0  0  0  0  0
    1.0543   -5.9009   -0.0732 C   0  0  0  0  0  0  0  0  0  0  0  0
    0.6084   -5.0176   -1.0568 C   0  0  0  0  0  0  0  0  0  0  0  0
    1.8461   -5.4221    0.9730 C   0  0  0  0  0  0  0  0  0  0  0  0
    0.9510   -3.6654   -0.9923 C   0  0  0  0  0  0  0  0  0  0  0  0
    2.1860   -4.0708    1.0315 C   0  0  0  0  0  0  0  0  0  0  0  0
    2.1068   -1.7029    0.1347 C   0  0  0  0  0  0  0  0  0  0  0  0
    1.3222   -0.9032    1.2013 C   0  0  1  0  0  0  0  0  0  0  0  0
    1.7415   -3.1694    0.0527 C   0  0  0  0  0  0  0  0  0  0  0  0
    1.8870    0.4516    1.2553 N   0  0  0  0  0  0  0  0  0  0  0  0
   -0.5898   -1.8570    0.7995 H   0  0  0  0  0  0  0  0  0  0  0  0
   -0.3383   -0.3196   -0.0646 H   0  0  0  0  0  0  0  0  0  0  0  0
   -0.7339   -0.3231    1.6635 H   0  0  0  0  0  0  0  0  0  0  0  0
    2.0545    2.1651    2.4421 H   0  0  0  0  0  0  0  0  0  0  0  0
    1.5487    0.7311    3.3734 H   0  0  0  0  0  0  0  0  0  0  0  0
    0.4095    1.5500    2.2833 H   0  0  0  0  0  0  0  0  0  0  0  0
    0.7919   -6.9543   -0.1230 H   0  0  0  0  0  0  0  0  0  0  0  0
   -0.0041   -5.3800   -1.8785 H   0  0  0  0  0  0  0  0  0  0  0  0
    2.2039   -6.1030    1.7412 H   0  0  0  0  0  0  0  0  0  0  0  0
    0.6024   -2.9838   -1.7650 H   0  0  0  0  0  0  0  0  0  0  0  0
    2.8098   -3.7085    1.8463 H   0  0  0  0  0  0  0  0  0  0  0  0
    3.1789   -1.6157    0.3659 H   0  0  0  0  0  0  0  0  0  0  0  0
    1.9564   -1.2165   -0.8366 H   0  0  0  0  0  0  0  0  0  0  0  0
    1.4444   -1.4253    2.1725 H   0  0  0  0  0  0  0  0  0  0  0  0
    2.9021    0.3716    1.2859 H   0  0  0  0  0  0  0  0  0  0  0  0
  1  9  1  0
  1 14  1  0
  2 15  1  0
  2 16  1  0
  3  5  2  0
  4  6  2  0
  4  3  1  0
  5  7  1  0
  5 20  1  0
  6 10  1  0
  7 22  1  0
  8 23  1  0
  8  9  1  0
  9 11  1  0
  9 25  1  1
 10  8  1  0
 10  7  2  0
 11 26  1  0
 11  2  1  0
 12  1  1  0
 13  1  1  0
 17  2  1  0
 18  3  1  0
 19  4  1  0
 21  6  1  0
 24  8  1  0
M  END
>  <HBA>  (397) 
1

>  <HBD>  (397) 
1

>  <TPSA>  (397) 
12.03

>  <cid>  (397) 
1206

>  <dipole>  (397) 
0.91

>  <excitation_energy_1>  (397) 
5.117

>  <excitation_energy_2>  (397) 
5.279

>  <excitation_energy_3>  (397) 
5.35

>  <excitation_energy_4>  (397) 
5.472

>  <homo_energy>  (397) 
-5.91

>  <homo_lumo_gap>  (397) 
5.948

>  <logP>  (397) 
2.228

>  <lumo_energy>  (397) 
0.038

>  <melting_point>  (397) 
32.34

>  <molecular_refractivity>  (397) 
48.63

>  <oscillator_strength_1>  (397) 
0.002

>  <oscillator_strength_2>  (397) 
0.0007

>  <oscillator_strength_3>  (397) 
0.0065

>  <oscillator_strength_4>  (397) 
0.0033

>  <open_babel_can_smiles>  (397) 
CN[C@H](Cc1ccccc1)C

>  <mulliken_charges>  (397) 
26
1   -0.44847
2   -0.304685
3   -0.131377
4   -0.12801
5   -0.12855
6   -0.184852
7   -0.179069
8   -0.366284
9   0.066704
10   0.174285
11   -0.545799
12   0.15451
13   0.148096
14   0.143172
15   0.146176
16   0.118444
17   0.15617
18   0.127385
19   0.128177
20   0.127626
21   0.126064
22   0.120982
23   0.133311
24   0.152371
25   0.103465
26   0.290157

>  <lowdin_charges>  (397) 
26
1   -0.453483
2   -0.359795
3   -0.159775
4   -0.156361
5   -0.15697
6   -0.169118
7   -0.167789
8   -0.275273
9   -0.056177
10   -0.00091
11   -0.362623
12   0.157456
13   0.151738
14   0.15127
15   0.150721
16   0.119734
17   0.147622
18   0.155204
19   0.157674
20   0.157693
21   0.156683
22   0.153821
23   0.143929
24   0.154173
25   0.113454
26   0.2471

$$$$
PCCDB-ID:  1212
     RDKit          3D

 28 29  0  0  1  0  0  0  0  0999 V2000
    1.8868   -1.1452   -0.0037 C   0  0  0  0  0  0  0  0  0  0  0  0
    3.9312    0.9438    3.9706 C   0  0  0  0  0  0  0  0  0  0  0  0
    4.5102   -1.3365    3.4334 C   0  0  0  0  0  0  0  0  0  0  0  0
    3.3099    1.0737    2.7316 C   0  0  0  0  0  0  0  0  0  0  0  0
    3.8851   -1.2019    2.1982 C   0  0  0  0  0  0  0  0  0  0  0  0
    4.5346   -0.2655    4.3375 C   0  0  0  0  0  0  0  0  0  0  0  0
    3.2591   -0.0012    1.8302 C   0  0  0  0  0  0  0  0  0  0  0  0
    5.1897   -0.4154    5.6396 C   0  0  0  0  0  0  0  0  0  0  0  0
    3.7393    0.4768   -0.5555 C   0  0  0  0  0  0  0  0  0  0  0  0
    2.5925    0.1423    0.4543 C   0  0  1  0  0  0  0  0  0  0  0  0
    1.6803    1.3099    0.4683 N   0  0  0  0  0  0  0  0  0  0  0  0
    5.2761    0.5521    6.5579 N   0  0  0  0  0  0  0  0  0  0  0  0
    5.7878   -1.5689    6.0621 N   0  0  0  0  0  0  0  0  0  0  0  0
    5.9411   -0.0725    7.5220 N   0  0  0  0  0  0  0  0  0  0  0  0
    6.2604   -1.3354    7.2580 N   0  0  0  0  0  0  0  0  0  0  0  0
    4.4365   -0.3701   -1.0598 O   0  0  0  0  0  0  0  0  0  0  0  0
    3.8935    1.7895   -0.7839 O   0  0  0  0  0  0  0  0  0  0  0  0
    2.6011   -1.9467   -0.1969 H   0  0  0  0  0  0  0  0  0  0  0  0
    1.3522   -0.9596   -0.9430 H   0  0  0  0  0  0  0  0  0  0  0  0
    1.1654   -1.4775    0.7501 H   0  0  0  0  0  0  0  0  0  0  0  0
    3.9562    1.7845    4.6566 H   0  0  0  0  0  0  0  0  0  0  0  0
    4.9863   -2.2726    3.7055 H   0  0  0  0  0  0  0  0  0  0  0  0
    2.8693    2.0283    2.4649 H   0  0  0  0  0  0  0  0  0  0  0  0
    3.8990   -2.0412    1.5127 H   0  0  0  0  0  0  0  0  0  0  0  0
    1.0985    1.2971    1.3043 H   0  0  0  0  0  0  0  0  0  0  0  0
    1.0479    1.2546   -0.3297 H   0  0  0  0  0  0  0  0  0  0  0  0
    6.1898    0.3764    8.3940 H   0  0  0  0  0  0  0  0  0  0  0  0
    3.1666    2.2283   -0.2776 H   0  0  0  0  0  0  0  0  0  0  0  0
  1 10  1  0
  1 20  1  0
  2  6  2  0
  2 21  1  0
  3 22  1  0
  3  6  1  0
  4  2  1  0
  5  3  2  0
  6  8  1  0
  7  5  1  0
  7  4  2  0
  8 13  1  0
  8 12  2  0
 10  9  1  6
 10 11  1  0
 10  7  1  0
 11 25  1  0
 12 14  1  0
 13 15  2  0
 14 27  1  0
 15 14  1  0
 16  9  2  0
 17  9  1  0
 17 28  1  0
 18  1  1  0
 19  1  1  0
 23  4  1  0
 24  5  1  0
 26 11  1  0
M  END
>  <HBA>  (398) 
6

>  <HBD>  (398) 
3

>  <TPSA>  (398) 
117.78

>  <cid>  (398) 
1212

>  <dipole>  (398) 
5.92

>  <excitation_energy_1>  (398) 
4.697

>  <excitation_energy_2>  (398) 
4.821

>  <excitation_energy_3>  (398) 
5.077

>  <excitation_energy_4>  (398) 
5.227

>  <homo_energy>  (398) 
-6.563

>  <homo_lumo_gap>  (398) 
5.208

>  <logP>  (398) 
0.825

>  <lumo_energy>  (398) 
-1.355

>  <melting_point>  (398) 
276.24

>  <molecular_refractivity>  (398) 
58.56

>  <oscillator_strength_1>  (398) 
0.2856

>  <oscillator_strength_2>  (398) 
0.0653

>  <oscillator_strength_3>  (398) 
0.0031

>  <oscillator_strength_4>  (398) 
0.1625

>  <open_babel_can_smiles>  (398) 
OC(=O)[C@@](c1ccc(cc1)c1nn[nH]n1)(N)C

>  <mulliken_charges>  (398) 
28
1   -0.461626
2   -0.177546
3   -0.181043
4   -0.195809
5   -0.171463
6   0.13762
7   0.144928
8   0.446032
9   0.631138
10   0.010464
11   -0.781029
12   -0.338447
13   -0.361651
14   -0.193565
15   -0.030751
16   -0.462087
17   -0.58056
18   0.190333
19   0.14568
20   0.15125
21   0.158244
22   0.17118
23   0.144508
24   0.150631
25   0.322536
26   0.322587
27   0.37424
28   0.434206

>  <lowdin_charges>  (398) 
28
1   -0.450159
2   -0.144485
3   -0.138466
4   -0.170981
5   -0.151841
6   -0.013001
7   -0.005991
8   0.025774
9   0.183053
10   0.02413
11   -0.543364
12   -0.13749
13   -0.137242
14   -0.063947
15   -0.058639
16   -0.2518
17   -0.352393
18   0.175216
19   0.153081
20   0.155708
21   0.173154
22   0.179093
23   0.164895
24   0.171634
25   0.271847
26   0.26899
27   0.311993
28   0.361229

$$$$
PCCDB-ID:  1214
     RDKit          3D

 20 20  0  0  1  0  0  0  0  0999 V2000
    0.3415    1.0683    0.3216 C   0  0  0  0  0  0  0  0  0  0  0  0
   -0.4276   -0.9798    0.2131 C   0  0  0  0  0  0  0  0  0  0  0  0
   -1.0635    0.4392    0.0674 C   0  0  2  0  0  0  0  0  0  0  0  0
   -1.7472    0.7573   -1.2625 C   0  0  0  0  0  0  0  0  0  0  0  0
    1.8702   -0.6456   -0.8569 C   0  0  0  0  0  0  0  0  0  0  0  0
    0.9973   -0.3495    0.3735 C   0  0  1  0  0  0  0  0  0  0  0  0
    1.7459   -0.7464    1.5726 N   0  0  0  0  0  0  0  0  0  0  0  0
   -2.9040    1.1107   -1.3061 O   0  0  0  0  0  0  0  0  0  0  0  0
   -1.0202    0.6275   -2.3847 O   0  0  0  0  0  0  0  0  0  0  0  0
    1.5553   -0.2983   -1.9840 O   0  0  0  0  0  0  0  0  0  0  0  0
    2.9746   -1.3345   -0.6047 O   0  0  0  0  0  0  0  0  0  0  0  0
    0.4095    1.5957    1.2777 H   0  0  0  0  0  0  0  0  0  0  0  0
    0.7189    1.7201   -0.4701 H   0  0  0  0  0  0  0  0  0  0  0  0
   -0.5449   -1.6440   -0.6467 H   0  0  0  0  0  0  0  0  0  0  0  0
   -0.7577   -1.5142    1.1094 H   0  0  0  0  0  0  0  0  0  0  0  0
   -1.7963    0.6686    0.8410 H   0  0  0  0  0  0  0  0  0  0  0  0
    1.1467   -1.1796    2.2703 H   0  0  0  0  0  0  0  0  0  0  0  0
    2.1933    0.0573    2.0105 H   0  0  0  0  0  0  0  0  0  0  0  0
   -0.0923    0.3262   -2.2247 H   0  0  0  0  0  0  0  0  0  0  0  0
    2.9505   -1.4799    0.3809 H   0  0  0  0  0  0  0  0  0  0  0  0
  1  6  1  0
  1 12  1  0
  2  6  1  0
  2 15  1  0
  3  2  1  0
  3  1  1  0
  3 16  1  1
  4  3  1  0
  5 11  1  0
  6  5  1  6
  6  7  1  0
  7 18  1  0
  7 17  1  0
  8  4  2  0
  9 19  1  0
  9  4  1  0
 10  5  2  0
 11 20  1  0
 13  1  1  0
 14  2  1  0
M  END
>  <HBA>  (399) 
5

>  <HBD>  (399) 
3

>  <TPSA>  (399) 
100.62

>  <cid>  (399) 
1214

>  <dipole>  (399) 
8.04

>  <excitation_energy_1>  (399) 
5.217

>  <excitation_energy_2>  (399) 
5.552

>  <excitation_energy_3>  (399) 
5.788

>  <excitation_energy_4>  (399) 
5.987

>  <homo_energy>  (399) 
-6.865

>  <homo_lumo_gap>  (399) 
6.316

>  <logP>  (399) 
-0.037

>  <lumo_energy>  (399) 
-0.55

>  <melting_point>  (399) 
215.6

>  <molecular_refractivity>  (399) 
35.13

>  <oscillator_strength_1>  (399) 
0.0003

>  <oscillator_strength_2>  (399) 
0.0012

>  <oscillator_strength_3>  (399) 
0.0078

>  <oscillator_strength_4>  (399) 
0.0007

>  <open_babel_can_smiles>  (399) 
OC(=O)[C@@H]1C[C@](C1)(N)C(=O)O

>  <mulliken_charges>  (399) 
20
1   -0.30265
2   -0.305082
3   -0.199071
4   0.592988
5   0.62972
6   0.10269
7   -0.80756
8   -0.459326
9   -0.606242
10   -0.494459
11   -0.564105
12   0.153594
13   0.185139
14   0.189213
15   0.158329
16   0.169153
17   0.331612
18   0.331875
19   0.452669
20   0.441512

>  <lowdin_charges>  (399) 
20
1   -0.289133
2   -0.275913
3   -0.162485
4   0.178934
5   0.186701
6   0.011833
7   -0.538965
8   -0.254244
9   -0.363557
10   -0.273231
11   -0.322177
12   0.158085
13   0.169963
14   0.170591
15   0.159666
16   0.170457
17   0.277161
18   0.275707
19   0.357204
20   0.363404

$$$$
PCCDB-ID:  1216
     RDKit          3D

 24 23  0  0  1  0  0  0  0  0999 V2000
    1.5824   -0.3090    0.3026 C   0  0  0  0  0  0  0  0  0  0  0  0
    1.3580    0.6503    1.4794 C   0  0  0  0  0  0  0  0  0  0  0  0
    3.0667   -0.3870   -0.0887 C   0  0  0  0  0  0  0  0  0  0  0  0
   -0.1128    0.8162    1.9006 C   0  0  1  0  0  0  0  0  0  0  0  0
   -0.9427    1.5275    0.8044 C   0  0  0  0  0  0  0  0  0  0  0  0
   -0.8330   -0.4009    2.3219 N   0  0  0  0  0  0  0  0  0  0  0  0
   -0.4824    2.3724    0.0723 O   0  0  0  0  0  0  0  0  0  0  0  0
   -2.2292    1.1496    0.7746 O   0  0  0  0  0  0  0  0  0  0  0  0
    5.0244   -1.4957   -1.5383 O   0  0  0  0  0  0  0  0  0  0  0  0
    3.0809   -2.9804   -0.6846 O   0  0  0  0  0  0  0  0  0  0  0  0
    2.7114   -1.3986   -2.7342 O   0  0  0  0  0  0  0  0  0  0  0  0
    3.3989   -1.5625   -1.4264 P   0  0  0  0  0  0  0  0  0  0  0  0
    1.0002    0.0247   -0.5637 H   0  0  0  0  0  0  0  0  0  0  0  0
    1.2387   -1.3201    0.5578 H   0  0  0  0  0  0  0  0  0  0  0  0
    1.7330    1.6438    1.2111 H   0  0  0  0  0  0  0  0  0  0  0  0
    1.9353    0.3097    2.3501 H   0  0  0  0  0  0  0  0  0  0  0  0
    3.6881   -0.6799    0.7669 H   0  0  0  0  0  0  0  0  0  0  0  0
    3.4303    0.5893   -0.4295 H   0  0  0  0  0  0  0  0  0  0  0  0
   -0.1404    1.5016    2.7586 H   0  0  0  0  0  0  0  0  0  0  0  0
   -0.5817   -1.1941    1.7342 H   0  0  0  0  0  0  0  0  0  0  0  0
   -0.6030   -0.6540    3.2796 H   0  0  0  0  0  0  0  0  0  0  0  0
   -2.2983    0.4309    1.4520 H   0  0  0  0  0  0  0  0  0  0  0  0
    5.2820   -1.5103   -2.4756 H   0  0  0  0  0  0  0  0  0  0  0  0
    2.8146   -3.6432   -1.3442 H   0  0  0  0  0  0  0  0  0  0  0  0
  1 14  1  0
  1  2  1  0
  2  4  1  0
  2 16  1  0
  3  1  1  0
  3 17  1  0
  4  6  1  0
  4 19  1  1
  5  4  1  0
  6 21  1  0
  7  5  2  0
  8  5  1  0
  8 22  1  0
  9 12  1  0
 11 12  2  0
 12 10  1  0
 12  3  1  0
 13  1  1  0
 15  2  1  0
 18  3  1  0
 20  6  1  0
 23  9  1  0
 24 10  1  0
M  END
>  <HBA>  (400) 
6

>  <HBD>  (400) 
4

>  <TPSA>  (400) 
130.66

>  <cid>  (400) 
1216

>  <dipole>  (400) 
6.05

>  <excitation_energy_1>  (400) 
5.406

>  <excitation_energy_2>  (400) 
6.125

>  <excitation_energy_3>  (400) 
6.417

>  <excitation_energy_4>  (400) 
6.661

>  <homo_energy>  (400) 
-6.944

>  <homo_lumo_gap>  (400) 
7.246

>  <logP>  (400) 
0.056

>  <lumo_energy>  (400) 
0.302

>  <melting_point>  (400) 
191.84

>  <molecular_refractivity>  (400) 
41.62

>  <oscillator_strength_1>  (400) 
0.0029

>  <oscillator_strength_2>  (400) 
0.0136

>  <oscillator_strength_3>  (400) 
0.0016

>  <oscillator_strength_4>  (400) 
0.0273

>  <open_babel_can_smiles>  (400) 
OC(=O)[C@H](CCCP(=O)(O)O)N

>  <mulliken_charges>  (400) 
24
1   -0.295379
2   -0.259754
3   -0.475741
4   -0.098515
5   0.614721
6   -0.772917
7   -0.467169
8   -0.579391
9   -0.651519
10   -0.658804
11   -0.559092
12   1.042028
13   0.192836
14   0.141584
15   0.174025
16   0.129307
17   0.188522
18   0.195085
19   0.17813
20   0.328111
21   0.324559
22   0.432781
23   0.439512
24   0.43708

>  <lowdin_charges>  (400) 
24
1   -0.27955
2   -0.284311
3   -0.447197
4   -0.111467
5   0.174006
6   -0.548084
7   -0.257347
8   -0.353758
9   -0.583946
10   -0.583876
11   -0.604792
12   1.052637
13   0.171384
14   0.143015
15   0.167516
16   0.142475
17   0.183143
18   0.185159
19   0.170756
20   0.268661
21   0.272013
22   0.360572
23   0.381318
24   0.381674

$$$$
PCCDB-ID:  1217
     RDKit          3D

 21 21  0  0  1  0  0  0  0  0999 V2000
   -0.6452    1.4064    0.0654 C   0  0  0  0  0  0  0  0  0  0  0  0
   -1.2430    0.1487    0.0351 C   0  0  0  0  0  0  0  0  0  0  0  0
    0.7428    1.5371   -0.0009 C   0  0  0  0  0  0  0  0  0  0  0  0
    0.9429   -0.8751   -0.1324 C   0  0  0  0  0  0  0  0  0  0  0  0
   -0.4458   -1.0037   -0.0709 C   0  0  0  0  0  0  0  0  0  0  0  0
    1.5386    0.3920   -0.0991 C   0  0  0  0  0  0  0  0  0  0  0  0
   -1.0933   -2.3800   -0.1271 C   0  0  1  0  0  0  0  0  0  0  0  0
   -2.0103   -2.6376    1.0966 C   0  0  0  0  0  0  0  0  0  0  0  0
   -1.7712   -2.6027   -1.4005 N   0  0  0  0  0  0  0  0  0  0  0  0
    2.9012    0.4390   -0.1661 O   0  0  0  0  0  0  0  0  0  0  0  0
   -3.0838   -3.1823    1.0122 O   0  0  0  0  0  0  0  0  0  0  0  0
   -1.5053   -2.2825    2.3026 O   0  0  0  0  0  0  0  0  0  0  0  0
   -1.2614    2.2973    0.1481 H   0  0  0  0  0  0  0  0  0  0  0  0
   -2.3247    0.0607    0.1010 H   0  0  0  0  0  0  0  0  0  0  0  0
    1.2047    2.5222    0.0264 H   0  0  0  0  0  0  0  0  0  0  0  0
    1.5818   -1.7483   -0.2251 H   0  0  0  0  0  0  0  0  0  0  0  0
   -0.2947   -3.1324   -0.0388 H   0  0  0  0  0  0  0  0  0  0  0  0
   -2.3845   -1.8111   -1.5921 H   0  0  0  0  0  0  0  0  0  0  0  0
   -2.3938   -3.4032   -1.2839 H   0  0  0  0  0  0  0  0  0  0  0  0
    3.1901    1.3645   -0.1410 H   0  0  0  0  0  0  0  0  0  0  0  0
   -0.6805   -1.7816    2.1691 H   0  0  0  0  0  0  0  0  0  0  0  0
  1 13  1  0
  2  1  2  0
  2 14  1  0
  3 15  1  0
  3  1  1  0
  4  6  1  0
  4  5  2  0
  5  2  1  0
  6  3  2  0
  7  5  1  0
  7 17  1  1
  7  8  1  0
  8 12  1  0
  9 19  1  0
  9  7  1  0
 10 20  1  0
 10  6  1  0
 11  8  2  0
 16  4  1  0
 18  9  1  0
 21 12  1  0
M  END
>  <HBA>  (401) 
4

>  <HBD>  (401) 
3

>  <TPSA>  (401) 
83.55

>  <cid>  (401) 
1217

>  <dipole>  (401) 
4.94

>  <excitation_energy_1>  (401) 
4.953

>  <excitation_energy_2>  (401) 
5.212

>  <excitation_energy_3>  (401) 
5.393

>  <excitation_energy_4>  (401) 
5.426

>  <homo_energy>  (401) 
-6.455

>  <homo_lumo_gap>  (401) 
5.804

>  <logP>  (401) 
1.177

>  <lumo_energy>  (401) 
-0.65

>  <melting_point>  (401) 
178.87

>  <molecular_refractivity>  (401) 
42.72

>  <oscillator_strength_1>  (401) 
0.0394

>  <oscillator_strength_2>  (401) 
0.002

>  <oscillator_strength_3>  (401) 
0.0018

>  <oscillator_strength_4>  (401) 
0.0009

>  <open_babel_can_smiles>  (401) 
OC(=O)[C@H](c1cccc(c1)O)N

>  <mulliken_charges>  (401) 
21
1   -0.133112
2   -0.183302
3   -0.19198
4   -0.224654
5   0.115987
6   0.359129
7   -0.1617
8   0.580857
9   -0.691439
10   -0.637067
11   -0.453111
12   -0.561906
13   0.143166
14   0.14308
15   0.12747
16   0.150406
17   0.170981
18   0.303004
19   0.317869
20   0.411432
21   0.414889

>  <lowdin_charges>  (401) 
21
1   -0.137816
2   -0.187606
3   -0.209733
4   -0.19464
5   -0.014926
6   0.108768
7   -0.105076
8   0.166888
9   -0.53223
10   -0.371444
11   -0.242803
12   -0.349656
13   0.165345
14   0.161229
15   0.157698
16   0.172597
17   0.165146
18   0.259374
19   0.267602
20   0.359048
21   0.362236

$$$$
PCCDB-ID:  1222
     RDKit          3D

 26 26  0  0  1  0  0  0  0  0999 V2000
    1.3925   -0.6840   -0.7154 C   0  0  0  0  0  0  0  0  0  0  0  0
    4.1286   -1.0510    3.4202 C   0  0  0  0  0  0  0  0  0  0  0  0
    3.4261   -3.0506    2.2611 C   0  0  0  0  0  0  0  0  0  0  0  0
    3.6378   -0.2785    2.3711 C   0  0  0  0  0  0  0  0  0  0  0  0
    2.9358   -2.2752    1.2157 C   0  0  0  0  0  0  0  0  0  0  0  0
    4.0220   -2.4461    3.3740 C   0  0  0  0  0  0  0  0  0  0  0  0
    3.0210   -0.8755    1.2591 C   0  0  0  0  0  0  0  0  0  0  0  0
    4.5228   -3.3226    4.4650 C   0  0  0  0  0  0  0  0  0  0  0  0
    3.7347    0.2358   -0.8406 C   0  0  0  0  0  0  0  0  0  0  0  0
    2.5062   -0.0101    0.1002 C   0  0  1  0  0  0  0  0  0  0  0  0
    2.0987    1.3142    0.6320 N   0  0  0  0  0  0  0  0  0  0  0  0
    5.0877   -2.6284    5.4867 O   0  0  0  0  0  0  0  0  0  0  0  0
    4.4484   -4.5350    4.4727 O   0  0  0  0  0  0  0  0  0  0  0  0
    4.0985   -0.5678   -1.6644 O   0  0  0  0  0  0  0  0  0  0  0  0
    4.3555    1.4039   -0.6224 O   0  0  0  0  0  0  0  0  0  0  0  0
    1.7716   -1.5476   -1.2642 H   0  0  0  0  0  0  0  0  0  0  0  0
    1.0021    0.0208   -1.4589 H   0  0  0  0  0  0  0  0  0  0  0  0
    0.5685   -0.9968   -0.0655 H   0  0  0  0  0  0  0  0  0  0  0  0
    4.5982   -0.5739    4.2731 H   0  0  0  0  0  0  0  0  0  0  0  0
    3.3552   -4.1328    2.2306 H   0  0  0  0  0  0  0  0  0  0  0  0
    3.7403    0.8005    2.4178 H   0  0  0  0  0  0  0  0  0  0  0  0
    2.4870   -2.7698    0.3626 H   0  0  0  0  0  0  0  0  0  0  0  0
    1.5876    1.2079    1.5062 H   0  0  0  0  0  0  0  0  0  0  0  0
    1.4694    1.7693   -0.0283 H   0  0  0  0  0  0  0  0  0  0  0  0
    5.3778   -3.2998    6.1315 H   0  0  0  0  0  0  0  0  0  0  0  0
    3.8051    1.8628    0.0604 H   0  0  0  0  0  0  0  0  0  0  0  0
  1 18  1  0
  1 10  1  0
  2 19  1  0
  3  6  2  0
  4 21  1  0
  4  2  2  0
  5  7  2  0
  5  3  1  0
  6  2  1  0
  6  8  1  0
  7  4  1  0
  8 13  2  0
  8 12  1  0
  9 15  1  0
 10  9  1  6
 10 11  1  0
 10  7  1  0
 11 23  1  0
 12 25  1  0
 14  9  2  0
 15 26  1  0
 16  1  1  0
 17  1  1  0
 20  3  1  0
 22  5  1  0
 24 11  1  0
M  END
>  <HBA>  (402) 
5

>  <HBD>  (402) 
3

>  <TPSA>  (402) 
100.62

>  <cid>  (402) 
1222

>  <dipole>  (402) 
5.41

>  <excitation_energy_1>  (402) 
4.637

>  <excitation_energy_2>  (402) 
4.795

>  <excitation_energy_3>  (402) 
4.818

>  <excitation_energy_4>  (402) 
5.308

>  <homo_energy>  (402) 
-6.874

>  <homo_lumo_gap>  (402) 
5.276

>  <logP>  (402) 
1.344

>  <lumo_energy>  (402) 
-1.597

>  <melting_point>  (402) 
236.51

>  <molecular_refractivity>  (402) 
52.34

>  <oscillator_strength_1>  (402) 
0.112

>  <oscillator_strength_2>  (402) 
0.0015

>  <oscillator_strength_3>  (402) 
0.0193

>  <oscillator_strength_4>  (402) 
0.2598

>  <open_babel_can_smiles>  (402) 
OC(=O)c1ccc(cc1)[C@](C(=O)O)(N)C

>  <mulliken_charges>  (402) 
26
1   -0.470986
2   -0.160547
3   -0.16193
4   -0.189637
5   -0.171667
6   0.075796
7   0.146351
8   0.539411
9   0.630176
10   0.017007
11   -0.783029
12   -0.582956
13   -0.470834
14   -0.460582
15   -0.580282
16   0.193291
17   0.148286
18   0.152315
19   0.164862
20   0.170462
21   0.147413
22   0.147502
23   0.325162
24   0.323987
25   0.413614
26   0.436815

>  <lowdin_charges>  (402) 
26
1   -0.452345
2   -0.134141
3   -0.120755
4   -0.168295
5   -0.155586
6   -0.045607
7   0.002587
8   0.19224
9   0.180035
10   0.024881
11   -0.544181
12   -0.360093
13   -0.267532
14   -0.249288
15   -0.352017
16   0.176817
17   0.155856
18   0.155836
19   0.176849
20   0.178532
21   0.164317
22   0.171235
23   0.273296
24   0.270554
25   0.365608
26   0.361197

$$$$
PCCDB-ID:  1226
     RDKit          3D

 23 23  0  0  1  0  0  0  0  0999 V2000
    0.6439    1.2351   -0.8970 C   0  0  0  0  0  0  0  0  0  0  0  0
    1.5759    0.2042   -0.2396 C   0  0  0  0  0  0  0  0  0  0  0  0
   -0.5682    1.5353   -0.0064 C   0  0  0  0  0  0  0  0  0  0  0  0
    0.7661   -1.0595    0.1263 C   0  0  2  0  0  0  0  0  0  0  0  0
   -0.4133   -0.6890    1.0646 C   0  0  1  0  0  0  0  0  0  0  0  0
    1.6772   -2.2546    0.4820 C   0  0  0  0  0  0  0  0  0  0  0  0
   -0.0665   -0.1819    2.4838 C   0  0  0  0  0  0  0  0  0  0  0  0
   -1.2969    0.3372    0.4714 N   0  0  0  0  0  0  0  0  0  0  0  0
    1.9251   -3.0836   -0.3665 O   0  0  0  0  0  0  0  0  0  0  0  0
    2.2263   -2.3164    1.6978 O   0  0  0  0  0  0  0  0  0  0  0  0
    0.9425   -0.4675    3.1046 O   0  0  0  0  0  0  0  0  0  0  0  0
   -1.0134    0.5879    3.0113 O   0  0  0  0  0  0  0  0  0  0  0  0
    0.3036    0.8455   -1.8667 H   0  0  0  0  0  0  0  0  0  0  0  0
    1.1813    2.1693   -1.1017 H   0  0  0  0  0  0  0  0  0  0  0  0
    2.0447    0.6268    0.6587 H   0  0  0  0  0  0  0  0  0  0  0  0
    2.3836   -0.0706   -0.9263 H   0  0  0  0  0  0  0  0  0  0  0  0
   -1.2932    2.1741   -0.5209 H   0  0  0  0  0  0  0  0  0  0  0  0
   -0.2373    2.0878    0.8832 H   0  0  0  0  0  0  0  0  0  0  0  0
    0.2864   -1.4065   -0.7961 H   0  0  0  0  0  0  0  0  0  0  0  0
   -1.0326   -1.5829    1.2272 H   0  0  0  0  0  0  0  0  0  0  0  0
   -1.8385   -0.0733   -0.2862 H   0  0  0  0  0  0  0  0  0  0  0  0
    1.8797   -1.5987    2.2860 H   0  0  0  0  0  0  0  0  0  0  0  0
   -1.6658    0.7212    2.2721 H   0  0  0  0  0  0  0  0  0  0  0  0
  1  2  1  0
  1  3  1  0
  2  4  1  0
  2 15  1  0
  3  8  1  0
  3 18  1  0
  4 19  1  6
  4  6  1  0
  4  5  1  0
  5 20  1  1
  5  7  1  0
  6 10  1  0
  7 12  1  0
  7 11  2  0
  8  5  1  0
  9  6  2  0
 10 22  1  0
 13  1  1  0
 14  1  1  0
 16  2  1  0
 17  3  1  0
 21  8  1  0
 23 12  1  0
M  END
>  <HBA>  (403) 
5

>  <HBD>  (403) 
3

>  <TPSA>  (403) 
86.63

>  <cid>  (403) 
1226

>  <dipole>  (403) 
6.79

>  <excitation_energy_1>  (403) 
5.152

>  <excitation_energy_2>  (403) 
5.496

>  <excitation_energy_3>  (403) 
5.769

>  <excitation_energy_4>  (403) 
5.867

>  <homo_energy>  (403) 
-6.822

>  <homo_lumo_gap>  (403) 
6.139

>  <logP>  (403) 
-0.147

>  <lumo_energy>  (403) 
-0.683

>  <melting_point>  (403) 
176.85

>  <molecular_refractivity>  (403) 
43.91

>  <oscillator_strength_1>  (403) 
0.0051

>  <oscillator_strength_2>  (403) 
0.0008

>  <oscillator_strength_3>  (403) 
0.0019

>  <oscillator_strength_4>  (403) 
0.0048

>  <open_babel_can_smiles>  (403) 
OC(=O)[C@H]1NCCC[C@H]1C(=O)O

>  <mulliken_charges>  (403) 
23
1   -0.266842
2   -0.284105
3   -0.159065
4   -0.195097
5   -0.119987
6   0.577281
7   0.639122
8   -0.610855
9   -0.461033
10   -0.593089
11   -0.489483
12   -0.556938
13   0.142625
14   0.153109
15   0.157455
16   0.171906
17   0.1609
18   0.161317
19   0.160895
20   0.195735
21   0.323687
22   0.45258
23   0.439882

>  <lowdin_charges>  (403) 
23
1   -0.289251
2   -0.280444
3   -0.21634
4   -0.177482
5   -0.116806
6   0.183074
7   0.194069
8   -0.362947
9   -0.26475
10   -0.362522
11   -0.260889
12   -0.325685
13   0.145073
14   0.157751
15   0.152534
16   0.16599
17   0.159703
18   0.150238
19   0.166869
20   0.178666
21   0.271689
22   0.364276
23   0.367185

$$$$
PCCDB-ID:  1232
     RDKit          3D

 16 16  0  0  1  0  0  0  0  0999 V2000
   -0.7543   -1.1115   -0.0319 C   0  0  0  0  0  0  0  0  0  0  0  0
    0.7880   -1.2052    0.0371 C   0  0  0  0  0  0  0  0  0  0  0  0
   -1.1046    0.3624    0.3491 C   0  0  2  0  0  0  0  0  0  0  0  0
    0.2194    1.1044    0.1108 C   0  0  0  0  0  0  0  0  0  0  0  0
   -1.5559    0.6244    1.7146 N   0  0  0  0  0  0  0  0  0  0  0  0
    1.1410    0.1690   -0.2495 N   0  0  0  0  0  0  0  0  0  0  0  0
    0.4995    2.2914    0.2354 O   0  0  0  0  0  0  0  0  0  0  0  0
    2.4859    0.5410   -0.2176 O   0  0  0  0  0  0  0  0  0  0  0  0
   -1.2362   -1.8278    0.6397 H   0  0  0  0  0  0  0  0  0  0  0  0
   -1.0872   -1.3284   -1.0519 H   0  0  0  0  0  0  0  0  0  0  0  0
    1.2129   -1.8805   -0.7111 H   0  0  0  0  0  0  0  0  0  0  0  0
    1.1638   -1.5073    1.0258 H   0  0  0  0  0  0  0  0  0  0  0  0
   -1.8700    0.7650   -0.3224 H   0  0  0  0  0  0  0  0  0  0  0  0
   -0.8769    0.2856    2.3948 H   0  0  0  0  0  0  0  0  0  0  0  0
   -2.4259    0.1253    1.8905 H   0  0  0  0  0  0  0  0  0  0  0  0
    2.4026    1.5061   -0.0321 H   0  0  0  0  0  0  0  0  0  0  0  0
  1  2  1  0
  1  3  1  0
  1  9  1  0
  2 12  1  0
  3 13  1  6
  3  5  1  0
  4  7  2  0
  4  3  1  0
  5 15  1  0
  5 14  1  0
  6  8  1  0
  6  2  1  0
  6  4  1  0
  8 16  1  0
 10  1  1  0
 11  2  1  0
M  END
>  <HBA>  (404) 
4

>  <HBD>  (404) 
2

>  <TPSA>  (404) 
66.56

>  <cid>  (404) 
1232

>  <dipole>  (404) 
4.45

>  <excitation_energy_1>  (404) 
5.24

>  <excitation_energy_2>  (404) 
5.454

>  <excitation_energy_3>  (404) 
5.679

>  <excitation_energy_4>  (404) 
5.933

>  <homo_energy>  (404) 
-6.191

>  <homo_lumo_gap>  (404) 
6.354

>  <logP>  (404) 
-0.427

>  <lumo_energy>  (404) 
0.163

>  <melting_point>  (404) 
129.53

>  <molecular_refractivity>  (404) 
29.68

>  <oscillator_strength_1>  (404) 
0.0344

>  <oscillator_strength_2>  (404) 
0.0184

>  <oscillator_strength_3>  (404) 
0.0099

>  <oscillator_strength_4>  (404) 
0.004

>  <open_babel_can_smiles>  (404) 
O=C1[C@H](N)CCN1O

>  <mulliken_charges>  (404) 
16
1   -0.310156
2   -0.124287
3   -0.081365
4   0.586143
5   -0.694126
6   -0.162762
7   -0.525757
8   -0.522835
9   0.149316
10   0.163054
11   0.171336
12   0.154247
13   0.171504
14   0.299568
15   0.3039
16   0.422222

>  <lowdin_charges>  (404) 
16
1   -0.302724
2   -0.192885
3   -0.089701
4   0.122054
5   -0.532622
6   0.011576
7   -0.29824
8   -0.376424
9   0.155615
10   0.158754
11   0.161158
12   0.143053
13   0.165639
14   0.2579
15   0.259901
16   0.356945

$$$$
PCCDB-ID:  1233
     RDKit          3D

 17 17  0  0  1  0  0  0  0  0999 V2000
   -1.3058    0.2192    0.0165 C   0  0  0  0  0  0  0  0  0  0  0  0
   -0.5528   -0.9075    0.0831 C   0  0  0  0  0  0  0  0  0  0  0  0
   -0.3289    1.2639   -0.0460 C   0  0  0  0  0  0  0  0  0  0  0  0
   -0.8855   -2.3707    0.1579 C   0  0  1  0  0  0  0  0  0  0  0  0
   -0.1633   -3.1137    1.3300 C   0  0  0  0  0  0  0  0  0  0  0  0
   -2.3296   -2.5438    0.1840 N   0  0  0  0  0  0  0  0  0  0  0  0
    0.9096    0.8236   -0.0216 N   0  0  0  0  0  0  0  0  0  0  0  0
   -0.5336    2.5930   -0.1270 O   0  0  0  0  0  0  0  0  0  0  0  0
   -0.7561   -3.9196    2.0038 O   0  0  0  0  0  0  0  0  0  0  0  0
    1.1453   -2.8697    1.5089 O   0  0  0  0  0  0  0  0  0  0  0  0
    0.7616   -0.5815    0.0532 O   0  0  0  0  0  0  0  0  0  0  0  0
   -2.3822    0.2895   -0.0094 H   0  0  0  0  0  0  0  0  0  0  0  0
   -0.5007   -2.8372   -0.7619 H   0  0  0  0  0  0  0  0  0  0  0  0
   -2.6509   -2.4047    1.1423 H   0  0  0  0  0  0  0  0  0  0  0  0
   -2.5389   -3.5206   -0.0124 H   0  0  0  0  0  0  0  0  0  0  0  0
   -1.4869    2.7648   -0.1375 H   0  0  0  0  0  0  0  0  0  0  0  0
    1.4376   -2.1081    0.9695 H   0  0  0  0  0  0  0  0  0  0  0  0
  1  2  2  0
  2  4  1  0
  3  7  2  0
  3  1  1  0
  4 13  1  6
  4  6  1  0
  4  5  1  0
  5 10  1  0
  5  9  2  0
  6 14  1  0
  7 11  1  0
  8  3  1  0
 11  2  1  0
 12  1  1  0
 15  6  1  0
 16  8  1  0
 17 10  1  0
M  END
>  <HBA>  (405) 
5

>  <HBD>  (405) 
3

>  <TPSA>  (405) 
109.32

>  <cid>  (405) 
1233

>  <dipole>  (405) 
4.32

>  <excitation_energy_1>  (405) 
5.41

>  <excitation_energy_2>  (405) 
5.658

>  <excitation_energy_3>  (405) 
5.953

>  <excitation_energy_4>  (405) 
5.962

>  <homo_energy>  (405) 
-7.165

>  <homo_lumo_gap>  (405) 
6.327

>  <logP>  (405) 
-0.247

>  <lumo_energy>  (405) 
-0.838

>  <melting_point>  (405) 
219.84

>  <molecular_refractivity>  (405) 
33.58

>  <oscillator_strength_1>  (405) 
0.0329

>  <oscillator_strength_2>  (405) 
0.0044

>  <oscillator_strength_3>  (405) 
0.0205

>  <oscillator_strength_4>  (405) 
0.0255

>  <open_babel_can_smiles>  (405) 
OC(=O)[C@H](c1onc(c1)O)N

>  <mulliken_charges>  (405) 
17
1   -0.298293
2   0.457034
3   0.507372
4   -0.198202
5   0.581216
6   -0.6925
7   -0.205239
8   -0.60183
9   -0.438704
10   -0.569032
11   -0.433592
12   0.172348
13   0.204558
14   0.317505
15   0.32541
16   0.425918
17   0.446032

>  <lowdin_charges>  (405) 
17
1   -0.262076
2   0.094492
3   0.108014
4   -0.114708
5   0.175646
6   -0.51818
7   -0.099743
8   -0.338572
9   -0.24111
10   -0.345204
11   -0.105474
12   0.18714
13   0.18454
14   0.265914
15   0.27176
16   0.371316
17   0.366245

$$$$
PCCDB-ID:  1245
     RDKit          3D

 24 24  0  0  1  0  0  0  0  0999 V2000
    3.5124   -1.0191    1.0231 C   0  0  0  0  0  0  0  0  0  0  0  0
    4.5322    3.8447    0.3536 C   0  0  0  0  0  0  0  0  0  0  0  0
    5.4822    2.8262    0.3463 C   0  0  0  0  0  0  0  0  0  0  0  0
    2.7857    2.2007    0.1200 C   0  0  0  0  0  0  0  0  0  0  0  0
    3.1704    3.5410    0.2351 C   0  0  0  0  0  0  0  0  0  0  0  0
    5.0941    1.4894    0.2197 C   0  0  0  0  0  0  0  0  0  0  0  0
    3.7246    1.1709    0.1162 C   0  0  0  0  0  0  0  0  0  0  0  0
    2.1368    4.6466    0.2043 C   0  0  1  0  0  0  0  0  0  0  0  0
    2.1996    5.5058    1.4848 C   0  0  0  0  0  0  0  0  0  0  0  0
    5.9908    0.4594    0.1817 O   0  0  0  0  0  0  0  0  0  0  0  0
    2.3306    5.5371   -0.9121 O   0  0  0  0  0  0  0  0  0  0  0  0
    1.8376    5.0974    2.5592 O   0  0  0  0  0  0  0  0  0  0  0  0
    2.7280    6.7299    1.2986 O   0  0  0  0  0  0  0  0  0  0  0  0
    3.2899   -0.1153   -0.0662 O   0  0  0  0  0  0  0  0  0  0  0  0
    3.0563   -1.9645    0.7223 H   0  0  0  0  0  0  0  0  0  0  0  0
    3.0247   -0.6532    1.9358 H   0  0  0  0  0  0  0  0  0  0  0  0
    4.5798   -1.1681    1.2095 H   0  0  0  0  0  0  0  0  0  0  0  0
    4.8545    4.8763    0.4656 H   0  0  0  0  0  0  0  0  0  0  0  0
    6.5399    3.0677    0.4360 H   0  0  0  0  0  0  0  0  0  0  0  0
    1.7383    1.9276    0.0303 H   0  0  0  0  0  0  0  0  0  0  0  0
    1.1315    4.2120    0.1631 H   0  0  0  0  0  0  0  0  0  0  0  0
    6.8875    0.8210    0.2612 H   0  0  0  0  0  0  0  0  0  0  0  0
    2.8033    5.0497   -1.6048 H   0  0  0  0  0  0  0  0  0  0  0  0
    2.8566    6.8246    0.3298 H   0  0  0  0  0  0  0  0  0  0  0  0
  1 17  1  0
  1 16  1  0
  2 18  1  0
  3  2  2  0
  3 19  1  0
  4  5  2  0
  5  2  1  0
  6  3  1  0
  7  4  1  0
  7  6  2  0
  8 21  1  6
  8  5  1  0
  8  9  1  0
  9 12  2  0
 10  6  1  0
 10 22  1  0
 11  8  1  0
 13  9  1  0
 14  7  1  0
 14  1  1  0
 15  1  1  0
 20  4  1  0
 23 11  1  0
 24 13  1  0
M  END
>  <HBA>  (406) 
5

>  <HBD>  (406) 
3

>  <TPSA>  (406) 
86.99

>  <cid>  (406) 
1245

>  <dipole>  (406) 
4.99

>  <excitation_energy_1>  (406) 
4.868

>  <excitation_energy_2>  (406) 
5.232

>  <excitation_energy_3>  (406) 
5.307

>  <excitation_energy_4>  (406) 
5.499

>  <homo_energy>  (406) 
-6.259

>  <homo_lumo_gap>  (406) 
5.772

>  <logP>  (406) 
0.519

>  <lumo_energy>  (406) 
-0.487

>  <melting_point>  (406) 
149.35

>  <molecular_refractivity>  (406) 
47.66

>  <oscillator_strength_1>  (406) 
0.0458

>  <oscillator_strength_2>  (406) 
0.0244

>  <oscillator_strength_3>  (406) 
0.0539

>  <oscillator_strength_4>  (406) 
0.0087

>  <open_babel_can_smiles>  (406) 
COc1cc(ccc1O)[C@@H](C(=O)O)O

>  <mulliken_charges>  (406) 
24
1   -0.21879
2   -0.183231
3   -0.195799
4   -0.238585
5   0.125296
6   0.319465
7   0.338522
8   -0.030092
9   0.595484
10   -0.635081
11   -0.653258
12   -0.452355
13   -0.579269
14   -0.520788
15   0.163621
16   0.147708
17   0.170381
18   0.142538
19   0.130263
20   0.147293
21   0.168551
22   0.413615
23   0.409031
24   0.43548

>  <lowdin_charges>  (406) 
24
1   -0.274492
2   -0.159977
3   -0.200333
4   -0.166123
5   -0.043557
6   0.082559
7   0.073225
8   -0.031601
9   0.177843
10   -0.365851
11   -0.46851
12   -0.242302
13   -0.350622
14   -0.220959
15   0.159041
16   0.143697
17   0.152108
18   0.1636
19   0.157131
20   0.170763
21   0.163251
22   0.361815
23   0.357302
24   0.361993

$$$$
PCCDB-ID:  1254
     RDKit          3D

 31 31  0  0  1  0  0  0  0  0999 V2000
    2.5554   -0.4125   -1.6029 C   0  0  0  0  0  0  0  0  0  0  0  0
    3.1070   -1.1735    0.7283 C   0  0  0  0  0  0  0  0  0  0  0  0
    3.3727    5.5983    1.4556 C   0  0  0  0  0  0  0  0  0  0  0  0
    3.3969    3.1179    2.0328 C   0  0  0  0  0  0  0  0  0  0  0  0
    2.8416    1.7225    1.7060 C   0  0  0  0  0  0  0  0  0  0  0  0
    2.9877    3.8380   -0.3369 C   0  0  0  0  0  0  0  0  0  0  0  0
    2.4415   -0.0667   -0.1085 C   0  0  0  0  0  0  0  0  0  0  0  0
    2.7937    4.2148    1.1409 C   0  0  2  0  0  0  0  0  0  0  0  0
    3.0138    1.3392    0.2187 C   0  0  1  0  0  0  0  0  0  0  0  0
    2.4234    2.4504   -0.6863 C   0  0  1  0  0  0  0  0  0  0  0  0
    0.9894    2.4503   -0.6779 O   0  0  0  0  0  0  0  0  0  0  0  0
    2.2122   -1.4378   -1.7843 H   0  0  0  0  0  0  0  0  0  0  0  0
    3.5961   -0.3487   -1.9487 H   0  0  0  0  0  0  0  0  0  0  0  0
    1.9460    0.2506   -2.2232 H   0  0  0  0  0  0  0  0  0  0  0  0
    2.7129   -2.1565    0.4450 H   0  0  0  0  0  0  0  0  0  0  0  0
    2.9353   -1.0527    1.8025 H   0  0  0  0  0  0  0  0  0  0  0  0
    4.1928   -1.1946    0.5629 H   0  0  0  0  0  0  0  0  0  0  0  0
    3.2060    5.8713    2.5047 H   0  0  0  0  0  0  0  0  0  0  0  0
    2.9153    6.3732    0.8292 H   0  0  0  0  0  0  0  0  0  0  0  0
    4.4551    5.6196    1.2738 H   0  0  0  0  0  0  0  0  0  0  0  0
    4.4892    3.1125    1.8950 H   0  0  0  0  0  0  0  0  0  0  0  0
    3.2205    3.3519    3.0914 H   0  0  0  0  0  0  0  0  0  0  0  0
    1.7730    1.6816    1.9736 H   0  0  0  0  0  0  0  0  0  0  0  0
    3.3332    0.9821    2.3451 H   0  0  0  0  0  0  0  0  0  0  0  0
    4.0637    3.8495   -0.5678 H   0  0  0  0  0  0  0  0  0  0  0  0
    2.5121    4.5813   -0.9891 H   0  0  0  0  0  0  0  0  0  0  0  0
    1.3715   -0.0467    0.1411 H   0  0  0  0  0  0  0  0  0  0  0  0
    1.7100    4.2563    1.3426 H   0  0  0  0  0  0  0  0  0  0  0  0
    4.0964    1.3161    0.0083 H   0  0  0  0  0  0  0  0  0  0  0  0
    2.6749    2.2353   -1.7288 H   0  0  0  0  0  0  0  0  0  0  0  0
    0.6962    2.6126    0.2321 H   0  0  0  0  0  0  0  0  0  0  0  0
  1  7  1  0
  2 16  1  0
  3 18  1  0
  4 22  1  0
  5 23  1  0
  5  4  1  0
  5 24  1  0
  6  8  1  0
  7 27  1  0
  7  9  1  0
  7  2  1  0
  8 28  1  1
  8  3  1  0
  8  4  1  0
  9 29  1  6
  9  5  1  0
 10 30  1  6
 10 11  1  0
 10  6  1  0
 10  9  1  0
 11 31  1  0
 12  1  1  0
 13  1  1  0
 14  1  1  0
 15  2  1  0
 17  2  1  0
 19  3  1  0
 20  3  1  0
 21  4  1  0
 25  6  1  0
 26  6  1  0
M  END
>  <HBA>  (407) 
1

>  <HBD>  (407) 
1

>  <TPSA>  (407) 
20.23

>  <cid>  (407) 
1254

>  <dipole>  (407) 
1.6

>  <excitation_energy_1>  (407) 
6.319

>  <excitation_energy_2>  (407) 
6.686

>  <excitation_energy_3>  (407) 
6.981

>  <excitation_energy_4>  (407) 
7.075

>  <homo_energy>  (407) 
-6.925

>  <homo_lumo_gap>  (407) 
8.591

>  <logP>  (407) 
2.439

>  <lumo_energy>  (407) 
1.665

>  <melting_point>  (407) 
11.98

>  <molecular_refractivity>  (407) 
49.23

>  <oscillator_strength_1>  (407) 
0.0146

>  <oscillator_strength_2>  (407) 
0.0025

>  <oscillator_strength_3>  (407) 
0.0097

>  <oscillator_strength_4>  (407) 
0.009

>  <open_babel_can_smiles>  (407) 
C[C@@H]1CC[C@H]([C@H](C1)O)C(C)C

>  <mulliken_charges>  (407) 
31
1   -0.460898
2   -0.453023
3   -0.444521
4   -0.255454
5   -0.292259
6   -0.267726
7   -0.052044
8   -0.084116
9   -0.090847
10   0.120485
11   -0.637973
12   0.137374
13   0.13208
14   0.163684
15   0.140238
16   0.142721
17   0.135861
18   0.140348
19   0.143373
20   0.140135
21   0.126849
22   0.128911
23   0.114141
24   0.142752
25   0.12297
26   0.139699
27   0.125444
28   0.106154
29   0.110104
30   0.134555
31   0.390983

>  <lowdin_charges>  (407) 
31
1   -0.447837
2   -0.443145
3   -0.4402
4   -0.274782
5   -0.284633
6   -0.293007
7   -0.119336
8   -0.127058
9   -0.144988
10   -0.004002
11   -0.468325
12   0.147097
13   0.140739
14   0.158899
15   0.148205
16   0.145241
17   0.141824
18   0.147033
19   0.151115
20   0.144561
21   0.136101
22   0.141181
23   0.128418
24   0.151658
25   0.13955
26   0.150677
27   0.137478
28   0.124657
29   0.133991
30   0.144355
31   0.33453

$$$$
PCCDB-ID:  1256
     RDKit          3D

 26 26  0  0  1  0  0  0  0  0999 V2000
    0.2244    1.2296    0.5087 C   0  0  0  0  0  0  0  0  0  0  0  0
    0.7674   -1.1653    0.1657 C   0  0  0  0  0  0  0  0  0  0  0  0
    3.0940    1.9240    0.8384 C   0  0  0  0  0  0  0  0  0  0  0  0
    2.9144   -0.0936    2.3276 C   0  0  0  0  0  0  0  0  0  0  0  0
    2.8482    2.7286    2.0876 C   0  0  0  0  0  0  0  0  0  0  0  0
    2.2251    0.7181    3.4299 C   0  0  0  0  0  0  0  0  0  0  0  0
    1.1385    0.2534    0.5343 C   0  0  0  0  0  0  0  0  0  0  0  0
    2.6007    0.4638    0.9142 C   0  0  1  0  0  0  0  0  0  0  0  0
    2.4430    2.2027    3.2565 C   0  0  0  0  0  0  0  0  0  0  0  0
    2.2751    3.0422    4.4870 C   0  0  0  0  0  0  0  0  0  0  0  0
    2.4023    2.6060    5.6078 O   0  0  0  0  0  0  0  0  0  0  0  0
    1.9745    4.3589    4.3027 O   0  0  0  0  0  0  0  0  0  0  0  0
   -0.8079    1.0284    0.2336 H   0  0  0  0  0  0  0  0  0  0  0  0
    0.4583    2.2583    0.7650 H   0  0  0  0  0  0  0  0  0  0  0  0
   -0.2923   -1.2481   -0.0933 H   0  0  0  0  0  0  0  0  0  0  0  0
    0.9673   -1.8672    0.9856 H   0  0  0  0  0  0  0  0  0  0  0  0
    1.3565   -1.5138   -0.6939 H   0  0  0  0  0  0  0  0  0  0  0  0
    4.1776    1.9272    0.6443 H   0  0  0  0  0  0  0  0  0  0  0  0
    2.6450    2.4342   -0.0238 H   0  0  0  0  0  0  0  0  0  0  0  0
    2.6254   -1.1475    2.4020 H   0  0  0  0  0  0  0  0  0  0  0  0
    4.0018   -0.0564    2.4767 H   0  0  0  0  0  0  0  0  0  0  0  0
    3.0787    3.7926    2.0152 H   0  0  0  0  0  0  0  0  0  0  0  0
    2.5925    0.4281    4.4196 H   0  0  0  0  0  0  0  0  0  0  0  0
    1.1451    0.5117    3.4326 H   0  0  0  0  0  0  0  0  0  0  0  0
    3.1948   -0.1200    0.1963 H   0  0  0  0  0  0  0  0  0  0  0  0
    1.7440    4.5047    3.3707 H   0  0  0  0  0  0  0  0  0  0  0  0
  1  7  2  3
  1 14  1  0
  2  7  1  0
  2 16  1  0
  3  8  1  0
  3  5  1  0
  4 20  1  0
  4 21  1  0
  4  6  1  0
  5  9  2  0
  6 24  1  0
  6 23  1  0
  7  8  1  0
  8 25  1  6
  8  4  1  0
  9  6  1  0
  9 10  1  0
 10 11  2  0
 12 10  1  0
 13  1  1  0
 15  2  1  0
 17  2  1  0
 18  3  1  0
 19  3  1  0
 22  5  1  0
 26 12  1  0
M  END
>  <HBA>  (408) 
2

>  <HBD>  (408) 
1

>  <TPSA>  (408) 
37.3

>  <cid>  (408) 
1256

>  <dipole>  (408) 
4.89

>  <excitation_energy_1>  (408) 
4.8

>  <excitation_energy_2>  (408) 
4.953

>  <excitation_energy_3>  (408) 
5.753

>  <excitation_energy_4>  (408) 
5.907

>  <homo_energy>  (408) 
-6.803

>  <homo_lumo_gap>  (408) 
5.788

>  <logP>  (408) 
2.374

>  <lumo_energy>  (408) 
-1.015

>  <melting_point>  (408) 
66.55

>  <molecular_refractivity>  (408) 
48.89

>  <oscillator_strength_1>  (408) 
0.0039

>  <oscillator_strength_2>  (408) 
0.0163

>  <oscillator_strength_3>  (408) 
0.1962

>  <oscillator_strength_4>  (408) 
0.0109

>  <open_babel_can_smiles>  (408) 
CC(=C)[C@@H]1CCC(=CC1)C(=O)O

>  <mulliken_charges>  (408) 
26
1   -0.39979
2   -0.515551
3   -0.317138
4   -0.282405
5   -0.189478
6   -0.32942
7   0.22542
8   -0.153937
9   0.087594
10   0.547653
11   -0.448357
12   -0.57272
13   0.135178
14   0.128639
15   0.156429
16   0.158955
17   0.154407
18   0.159694
19   0.158228
20   0.141256
21   0.14435
22   0.129952
23   0.182553
24   0.162969
25   0.130778
26   0.404739

>  <lowdin_charges>  (408) 
26
1   -0.364137
2   -0.441966
3   -0.276716
4   -0.268741
5   -0.163415
6   -0.273852
7   0.006744
8   -0.12973
9   -0.058129
10   0.192095
11   -0.241397
12   -0.359401
13   0.155478
14   0.152985
15   0.1573
16   0.157439
17   0.156558
18   0.159526
19   0.161085
20   0.14699
21   0.145723
22   0.150783
23   0.173562
24   0.158583
25   0.149464
26   0.35317

$$$$
PCCDB-ID:  1271
     RDKit          3D

 20 20  0  0  1  0  0  0  0  0999 V2000
    0.0004    1.0660   -0.1408 C   0  0  0  0  0  0  0  0  0  0  0  0
    0.8150   -0.1805    0.1018 C   0  0  2  0  0  0  0  0  0  0  0  0
   -0.6317   -0.2958   -0.3141 C   0  0  2  0  0  0  0  0  0  0  0  0
    1.2313   -0.6534    1.4766 C   0  0  1  0  0  0  0  0  0  0  0  0
   -0.9149   -0.9829   -1.6199 C   0  0  0  0  0  0  0  0  0  0  0  0
    1.5954   -2.1682    1.4942 C   0  0  0  0  0  0  0  0  0  0  0  0
    2.2930    0.1802    2.0366 N   0  0  0  0  0  0  0  0  0  0  0  0
   -0.5700   -2.1305   -1.8104 O   0  0  0  0  0  0  0  0  0  0  0  0
   -1.5810   -0.2952   -2.5674 O   0  0  0  0  0  0  0  0  0  0  0  0
    2.3548   -2.6000    2.3315 O   0  0  0  0  0  0  0  0  0  0  0  0
    1.0216   -2.9969    0.6027 O   0  0  0  0  0  0  0  0  0  0  0  0
    0.2511    1.6517   -1.0223 H   0  0  0  0  0  0  0  0  0  0  0  0
   -0.3094    1.6563    0.7163 H   0  0  0  0  0  0  0  0  0  0  0  0
    1.5348   -0.4062   -0.6859 H   0  0  0  0  0  0  0  0  0  0  0  0
   -1.3262   -0.6075    0.4658 H   0  0  0  0  0  0  0  0  0  0  0  0
    0.3635   -0.5601    2.1481 H   0  0  0  0  0  0  0  0  0  0  0  0
    3.0927    0.1625    1.4017 H   0  0  0  0  0  0  0  0  0  0  0  0
    2.6261   -0.2875    2.8809 H   0  0  0  0  0  0  0  0  0  0  0  0
   -1.7823    0.5947   -2.2305 H   0  0  0  0  0  0  0  0  0  0  0  0
    0.4931   -2.5564   -0.0967 H   0  0  0  0  0  0  0  0  0  0  0  0
  1  2  1  0
  1 13  1  0
  2 14  1  6
  2  4  1  0
  3  1  1  0
  3  2  1  0
  3 15  1  1
  4  6  1  0
  4  7  1  0
  4 16  1  1
  5  3  1  0
  6 10  2  0
  7 18  1  0
  8  5  2  0
  9 19  1  0
  9  5  1  0
 11  6  1  0
 12  1  1  0
 17  7  1  0
 20 11  1  0
M  END
>  <HBA>  (409) 
5

>  <HBD>  (409) 
3

>  <TPSA>  (409) 
100.62

>  <cid>  (409) 
1271

>  <dipole>  (409) 
6.16

>  <excitation_energy_1>  (409) 
5.262

>  <excitation_energy_2>  (409) 
5.519

>  <excitation_energy_3>  (409) 
5.583

>  <excitation_energy_4>  (409) 
5.866

>  <homo_energy>  (409) 
-6.789

>  <homo_lumo_gap>  (409) 
6.049

>  <logP>  (409) 
-0.181

>  <lumo_energy>  (409) 
-0.74

>  <melting_point>  (409) 
204.58

>  <molecular_refractivity>  (409) 
35.09

>  <oscillator_strength_1>  (409) 
0.0007

>  <oscillator_strength_2>  (409) 
0.0

>  <oscillator_strength_3>  (409) 
0.0005

>  <oscillator_strength_4>  (409) 
0.0037

>  <open_babel_can_smiles>  (409) 
N[C@@H]([C@@H]1C[C@H]1C(=O)O)C(=O)O

>  <mulliken_charges>  (409) 
20
1   -0.327265
2   -0.120902
3   -0.276903
4   -0.090632
5   0.605446
6   0.57458
7   -0.697358
8   -0.441723
9   -0.54742
10   -0.457832
11   -0.590621
12   0.166105
13   0.183591
14   0.170947
15   0.199005
16   0.162367
17   0.296894
18   0.321811
19   0.423194
20   0.446718

>  <lowdin_charges>  (409) 
20
1   -0.305396
2   -0.151185
3   -0.213772
4   -0.101763
5   0.195577
6   0.169565
7   -0.536996
8   -0.24068
9   -0.32529
10   -0.25605
11   -0.351459
12   0.167909
13   0.179071
14   0.166861
15   0.185086
16   0.160654
17   0.256786
18   0.270078
19   0.368266
20   0.362739

$$$$
PCCDB-ID:  1274
     RDKit          3D

 42 41  0  0  1  0  0  0  0  0999 V2000
    9.7005   -1.6646   -5.0739 C   0  0  0  0  0  0  0  0  0  0  0  0
    6.2611  -10.0012    4.6241 C   0  0  0  0  0  0  0  0  0  0  0  0
    8.8635   -1.4979   -3.8011 C   0  0  0  0  0  0  0  0  0  0  0  0
    8.4725   -2.8392   -3.1639 C   0  0  0  0  0  0  0  0  0  0  0  0
    7.5624   -2.7312   -1.9281 C   0  0  0  0  0  0  0  0  0  0  0  0
    8.2183   -2.0648   -0.7094 C   0  0  0  0  0  0  0  0  0  0  0  0
    7.3012   -1.9440    0.5217 C   0  0  0  0  0  0  0  0  0  0  0  0
    6.8477   -3.2661    1.1655 C   0  0  0  0  0  0  0  0  0  0  0  0
    7.9987   -4.1137    1.7463 C   0  0  0  0  0  0  0  0  0  0  0  0
    7.5120   -5.3127    2.5087 C   0  0  0  0  0  0  0  0  0  0  0  0
    7.7805   -6.5938    2.2034 C   0  0  0  0  0  0  0  0  0  0  0  0
    7.2948   -7.7396    2.9585 C   0  0  0  0  0  0  0  0  0  0  0  0
    7.5760   -9.0196    2.6570 C   0  0  0  0  0  0  0  0  0  0  0  0
    7.0796  -10.2649    3.3594 C   0  0  2  0  0  0  0  0  0  0  0  0
    6.2902  -11.1392    2.4583 N   0  0  0  0  0  0  0  0  0  0  0  0
    9.9665   -0.6944   -5.5091 H   0  0  0  0  0  0  0  0  0  0  0  0
    9.1541   -2.2336   -5.8363 H   0  0  0  0  0  0  0  0  0  0  0  0
   10.6335   -2.2032   -4.8666 H   0  0  0  0  0  0  0  0  0  0  0  0
    6.8366   -9.4298    5.3600 H   0  0  0  0  0  0  0  0  0  0  0  0
    5.9636  -10.9540    5.0701 H   0  0  0  0  0  0  0  0  0  0  0  0
    5.3481   -9.4371    4.3957 H   0  0  0  0  0  0  0  0  0  0  0  0
    7.9503   -0.9313   -4.0344 H   0  0  0  0  0  0  0  0  0  0  0  0
    9.4238   -0.8887   -3.0801 H   0  0  0  0  0  0  0  0  0  0  0  0
    9.3860   -3.3911   -2.8953 H   0  0  0  0  0  0  0  0  0  0  0  0
    7.9637   -3.4510   -3.9228 H   0  0  0  0  0  0  0  0  0  0  0  0
    7.2292   -3.7416   -1.6557 H   0  0  0  0  0  0  0  0  0  0  0  0
    6.6516   -2.1745   -2.1967 H   0  0  0  0  0  0  0  0  0  0  0  0
    8.5498   -1.0541   -0.9807 H   0  0  0  0  0  0  0  0  0  0  0  0
    9.1318   -2.6168   -0.4448 H   0  0  0  0  0  0  0  0  0  0  0  0
    6.4080   -1.3687    0.2392 H   0  0  0  0  0  0  0  0  0  0  0  0
    7.8181   -1.3449    1.2853 H   0  0  0  0  0  0  0  0  0  0  0  0
    6.2855   -3.8737    0.4448 H   0  0  0  0  0  0  0  0  0  0  0  0
    6.1417   -3.0311    1.9743 H   0  0  0  0  0  0  0  0  0  0  0  0
    8.5945   -3.4725    2.4160 H   0  0  0  0  0  0  0  0  0  0  0  0
    8.6745   -4.4375    0.9451 H   0  0  0  0  0  0  0  0  0  0  0  0
    6.8785   -5.1045    3.3740 H   0  0  0  0  0  0  0  0  0  0  0  0
    8.4092   -6.8114    1.3379 H   0  0  0  0  0  0  0  0  0  0  0  0
    6.6725   -7.5129    3.8238 H   0  0  0  0  0  0  0  0  0  0  0  0
    8.2081   -9.2153    1.7867 H   0  0  0  0  0  0  0  0  0  0  0  0
    7.9586  -10.8609    3.6476 H   0  0  0  0  0  0  0  0  0  0  0  0
    5.5122  -10.5926    2.0848 H   0  0  0  0  0  0  0  0  0  0  0  0
    6.8569  -11.3890    1.6471 H   0  0  0  0  0  0  0  0  0  0  0  0
  1 18  1  0
  1  3  1  0
  2 20  1  0
  2 19  1  0
  3  4  1  0
  3 23  1  0
  4 24  1  0
  4  5  1  0
  5 26  1  0
  5  6  1  0
  6 29  1  0
  6  7  1  0
  7  8  1  0
  7 31  1  0
  8  9  1  0
  8 33  1  0
  9 34  1  0
  9 10  1  0
 10 36  1  0
 11 10  2  0
 11 12  1  0
 12 38  1  0
 13 12  2  0
 13 14  1  0
 14 40  1  1
 14  2  1  0
 15 14  1  0
 16  1  1  0
 17  1  1  0
 21  2  1  0
 22  3  1  0
 25  4  1  0
 27  5  1  0
 28  6  1  0
 30  7  1  0
 32  8  1  0
 35  9  1  0
 37 11  1  0
 39 13  1  0
 41 15  1  0
 42 15  1  0
M  END
>  <HBA>  (410) 
1

>  <HBD>  (410) 
1

>  <TPSA>  (410) 
26.02

>  <cid>  (410) 
1274

>  <dipole>  (410) 
1.56

>  <excitation_energy_1>  (410) 
4.992

>  <excitation_energy_2>  (410) 
5.32

>  <excitation_energy_3>  (410) 
5.443

>  <excitation_energy_4>  (410) 
5.544

>  <homo_energy>  (410) 
-5.655

>  <homo_lumo_gap>  (410) 
5.252

>  <logP>  (410) 
4.897

>  <lumo_energy>  (410) 
-0.403

>  <melting_point>  (410) 
41.95

>  <molecular_refractivity>  (410) 
71.17

>  <oscillator_strength_1>  (410) 
0.6334

>  <oscillator_strength_2>  (410) 
0.0035

>  <oscillator_strength_3>  (410) 
0.0236

>  <oscillator_strength_4>  (410) 
0.1611

>  <open_babel_can_smiles>  (410) 
CCCCCCCC/C=C/C=C/[C@H](N)C

>  <mulliken_charges>  (410) 
42
1   -0.441516
2   -0.442605
3   -0.248171
4   -0.247859
5   -0.256466
6   -0.259192
7   -0.259069
8   -0.256414
9   -0.306668
10   -0.111779
11   -0.106868
12   -0.105258
13   -0.144742
14   -0.014057
15   -0.698185
16   0.141189
17   0.140908
18   0.141078
19   0.146286
20   0.160953
21   0.139096
22   0.12896
23   0.135432
24   0.124806
25   0.126252
26   0.131954
27   0.125523
28   0.133646
29   0.130442
30   0.12876
31   0.126703
32   0.141034
33   0.129773
34   0.13936
35   0.141152
36   0.11866
37   0.113782
38   0.122058
39   0.109506
40   0.140425
41   0.289841
42   0.291269

>  <lowdin_charges>  (410) 
42
1   -0.445248
2   -0.449213
3   -0.276657
4   -0.276902
5   -0.277421
6   -0.280077
7   -0.278379
8   -0.279173
9   -0.274925
10   -0.158873
11   -0.165906
12   -0.166051
13   -0.188195
14   -0.061901
15   -0.547569
16   0.148806
17   0.146983
18   0.14615
19   0.153671
20   0.161946
21   0.146613
22   0.138444
23   0.141454
24   0.136922
25   0.141023
26   0.140704
27   0.137233
28   0.142026
29   0.137937
30   0.14183
31   0.141165
32   0.14458
33   0.142641
34   0.148546
35   0.146802
36   0.146718
37   0.147978
38   0.153371
39   0.143118
40   0.146078
41   0.251996
42   0.251751

$$$$
PCCDB-ID:  1292
     RDKit          3D

 19 19  0  0  1  0  0  0  0  0999 V2000
   -1.8356   -0.2807    0.0873 C   0  0  0  0  0  0  0  0  0  0  0  0
   -1.1808    0.6747    0.8681 C   0  0  0  0  0  0  0  0  0  0  0  0
   -1.1118   -1.0297   -0.8409 C   0  0  0  0  0  0  0  0  0  0  0  0
    0.1886    0.8863    0.7150 C   0  0  0  0  0  0  0  0  0  0  0  0
    0.2610   -0.8250   -0.9891 C   0  0  0  0  0  0  0  0  0  0  0  0
    0.9188    0.1410   -0.2178 C   0  0  0  0  0  0  0  0  0  0  0  0
    2.4152    0.3621   -0.3592 C   0  0  1  0  0  0  0  0  0  0  0  0
    3.1894   -0.5463    0.6221 C   0  0  0  0  0  0  0  0  0  0  0  0
    2.9055    0.0759   -1.6718 O   0  0  0  0  0  0  0  0  0  0  0  0
    3.1492   -0.3776    1.8146 O   0  0  0  0  0  0  0  0  0  0  0  0
    3.8845   -1.5376    0.0400 O   0  0  0  0  0  0  0  0  0  0  0  0
   -2.9043   -0.4391    0.2022 H   0  0  0  0  0  0  0  0  0  0  0  0
   -1.7375    1.2595    1.5951 H   0  0  0  0  0  0  0  0  0  0  0  0
   -1.6120   -1.7809   -1.4461 H   0  0  0  0  0  0  0  0  0  0  0  0
    0.6974    1.6263    1.3267 H   0  0  0  0  0  0  0  0  0  0  0  0
    0.8232   -1.4216   -1.7024 H   0  0  0  0  0  0  0  0  0  0  0  0
    2.6619    1.3936   -0.0764 H   0  0  0  0  0  0  0  0  0  0  0  0
    2.2562    0.3929   -2.3192 H   0  0  0  0  0  0  0  0  0  0  0  0
    3.7906   -1.4232   -0.9285 H   0  0  0  0  0  0  0  0  0  0  0  0
  1 12  1  0
  1  2  2  0
  2 13  1  0
  3  1  1  0
  4  2  1  0
  4 15  1  0
  5  3  2  0
  5  6  1  0
  6  4  2  0
  7  6  1  0
  7 17  1  1
  7  8  1  0
  8 10  2  0
  9  7  1  0
 11  8  1  0
 14  3  1  0
 16  5  1  0
 18  9  1  0
 19 11  1  0
M  END
>  <HBA>  (411) 
3

>  <HBD>  (411) 
2

>  <TPSA>  (411) 
57.53

>  <cid>  (411) 
1292

>  <dipole>  (411) 
4.94

>  <excitation_energy_1>  (411) 
5.222

>  <excitation_energy_2>  (411) 
5.43

>  <excitation_energy_3>  (411) 
5.819

>  <excitation_energy_4>  (411) 
5.98

>  <homo_energy>  (411) 
-6.895

>  <homo_lumo_gap>  (411) 
6.259

>  <logP>  (411) 
0.805

>  <lumo_energy>  (411) 
-0.637

>  <melting_point>  (411) 
102.26

>  <molecular_refractivity>  (411) 
39.15

>  <oscillator_strength_1>  (411) 
0.0057

>  <oscillator_strength_2>  (411) 
0.0492

>  <oscillator_strength_3>  (411) 
0.0252

>  <oscillator_strength_4>  (411) 
0.0148

>  <open_babel_can_smiles>  (411) 
O[C@@H](c1ccccc1)C(=O)O

>  <mulliken_charges>  (411) 
19
1   -0.124604
2   -0.130572
3   -0.126477
4   -0.160909
5   -0.187344
6   0.116353
7   -0.026792
8   0.60543
9   -0.658766
10   -0.450126
11   -0.569768
12   0.137446
13   0.140015
14   0.137277
15   0.146065
16   0.132193
17   0.170702
18   0.411623
19   0.438253

>  <lowdin_charges>  (411) 
19
1   -0.149103
2   -0.148563
3   -0.150998
4   -0.151928
5   -0.174141
6   -0.027819
7   -0.03451
8   0.180213
9   -0.462994
10   -0.240751
11   -0.339613
12   0.159943
13   0.164201
14   0.162523
15   0.167733
16   0.159463
17   0.161869
18   0.359529
19   0.364945

$$$$
PCCDB-ID:  1295
     RDKit          3D

 37 39  0  0  1  0  0  0  0  0999 V2000
   -1.2488   -1.6815    0.6887 C   0  0  0  0  0  0  0  0  0  0  0  0
    4.3189    0.6703    4.7139 C   0  0  0  0  0  0  0  0  0  0  0  0
   -0.4056   -2.1682    1.6894 C   0  0  0  0  0  0  0  0  0  0  0  0
   -0.7382   -0.8073   -0.2716 C   0  0  0  0  0  0  0  0  0  0  0  0
    3.7482    1.6011    3.8437 C   0  0  0  0  0  0  0  0  0  0  0  0
    4.4584   -0.6546    4.3014 C   0  0  0  0  0  0  0  0  0  0  0  0
    5.6970   -1.7420   -1.5212 C   0  0  0  0  0  0  0  0  0  0  0  0
    0.9351   -1.7836    1.7298 C   0  0  0  0  0  0  0  0  0  0  0  0
    0.6042   -0.4264   -0.2297 C   0  0  0  0  0  0  0  0  0  0  0  0
    3.3224    1.2045    2.5767 C   0  0  0  0  0  0  0  0  0  0  0  0
    4.0289   -1.0470    3.0313 C   0  0  0  0  0  0  0  0  0  0  0  0
    5.2954   -1.1935   -0.1232 C   0  0  0  0  0  0  0  0  0  0  0  0
    4.4439   -2.4968   -2.0025 C   0  0  0  0  0  0  0  0  0  0  0  0
    1.4624   -0.9080    0.7698 C   0  0  0  0  0  0  0  0  0  0  0  0
    3.4517   -0.1244    2.1463 C   0  0  0  0  0  0  0  0  0  0  0  0
    3.8018   -1.5754    0.0464 C   0  0  1  0  0  0  0  0  0  0  0  0
    2.9397   -0.5049    0.7598 C   0  0  0  0  0  0  0  0  0  0  0  0
    3.3617   -1.7668   -1.3409 N   0  0  0  0  0  0  0  0  0  0  0  0
   -2.2941   -1.9776    0.6606 H   0  0  0  0  0  0  0  0  0  0  0  0
    4.6545    0.9756    5.7014 H   0  0  0  0  0  0  0  0  0  0  0  0
   -0.7933   -2.8453    2.4464 H   0  0  0  0  0  0  0  0  0  0  0  0
   -1.3846   -0.4178   -1.0541 H   0  0  0  0  0  0  0  0  0  0  0  0
    3.6372    2.6382    4.1496 H   0  0  0  0  0  0  0  0  0  0  0  0
    4.9052   -1.3886    4.9671 H   0  0  0  0  0  0  0  0  0  0  0  0
    6.5771   -2.3914   -1.4851 H   0  0  0  0  0  0  0  0  0  0  0  0
    5.9235   -0.9171   -2.2035 H   0  0  0  0  0  0  0  0  0  0  0  0
    1.5725   -2.1536    2.5277 H   0  0  0  0  0  0  0  0  0  0  0  0
    0.9980    0.2491   -0.9847 H   0  0  0  0  0  0  0  0  0  0  0  0
    2.8767    1.9360    1.9063 H   0  0  0  0  0  0  0  0  0  0  0  0
    4.1552   -2.0831    2.7303 H   0  0  0  0  0  0  0  0  0  0  0  0
    5.4152   -0.1059   -0.0809 H   0  0  0  0  0  0  0  0  0  0  0  0
    5.9039   -1.6132    0.6822 H   0  0  0  0  0  0  0  0  0  0  0  0
    4.5011   -3.5578   -1.6928 H   0  0  0  0  0  0  0  0  0  0  0  0
    4.3176   -2.4745   -3.0907 H   0  0  0  0  0  0  0  0  0  0  0  0
    3.7382   -2.5214    0.6174 H   0  0  0  0  0  0  0  0  0  0  0  0
    3.0182    0.3890    0.1284 H   0  0  0  0  0  0  0  0  0  0  0  0
    2.4728   -2.2595   -1.3886 H   0  0  0  0  0  0  0  0  0  0  0  0
  1  3  2  0
  2 20  1  0
  3  8  1  0
  3 21  1  0
  4  9  2  0
  4  1  1  0
  5 23  1  0
  5  2  2  0
  6  2  1  0
  6 24  1  0
  7 25  1  0
  7 12  1  0
  8 27  1  0
  9 14  1  0
 10  5  1  0
 11  6  2  0
 12 31  1  0
 12 16  1  0
 12 32  1  0
 13 33  1  0
 13  7  1  0
 13 18  1  0
 14  8  2  0
 15 10  2  0
 15 11  1  0
 16 35  1  1
 16 17  1  0
 17 14  1  0
 17 15  1  0
 18 16  1  0
 19  1  1  0
 22  4  1  0
 26  7  1  0
 28  9  1  0
 29 10  1  0
 30 11  1  0
 34 13  1  0
 36 17  1  0
 37 18  1  0
M  END
>  <HBA>  (412) 
1

>  <HBD>  (412) 
1

>  <TPSA>  (412) 
12.03

>  <cid>  (412) 
1295

>  <dipole>  (412) 
0.78

>  <excitation_energy_1>  (412) 
5.003

>  <excitation_energy_2>  (412) 
5.125

>  <excitation_energy_3>  (412) 
5.208

>  <excitation_energy_4>  (412) 
5.253

>  <homo_energy>  (412) 
-5.889

>  <homo_lumo_gap>  (412) 
5.753

>  <logP>  (412) 
3.899

>  <lumo_energy>  (412) 
-0.136

>  <melting_point>  (412) 
84.64

>  <molecular_refractivity>  (412) 
79.73

>  <oscillator_strength_1>  (412) 
0.0162

>  <oscillator_strength_2>  (412) 
0.0041

>  <oscillator_strength_3>  (412) 
0.0069

>  <oscillator_strength_4>  (412) 
0.0142

>  <open_babel_can_smiles>  (412) 
C1CN[C@@H](C1)C(c1ccccc1)c1ccccc1

>  <mulliken_charges>  (412) 
37
1   -0.130755
2   -0.129515
3   -0.13139
4   -0.130458
5   -0.127131
6   -0.133952
7   -0.275328
8   -0.178841
9   -0.18482
10   -0.178249
11   -0.189334
12   -0.276681
13   -0.121087
14   0.152144
15   0.173953
16   0.050434
17   -0.266967
18   -0.575213
19   0.126642
20   0.127575
21   0.127365
22   0.127671
23   0.128696
24   0.127548
25   0.134696
26   0.14644
27   0.131081
28   0.134901
29   0.127111
30   0.126981
31   0.146716
32   0.140138
33   0.110629
34   0.137471
35   0.107422
36   0.140604
37   0.303505

>  <lowdin_charges>  (412) 
37
1   -0.160544
2   -0.159787
3   -0.156747
4   -0.159642
5   -0.152798
6   -0.157783
7   -0.285773
8   -0.168455
9   -0.169236
10   -0.163481
11   -0.174173
12   -0.286443
13   -0.200194
14   -0.003609
15   0.003937
16   -0.062969
17   -0.127347
18   -0.367745
19   0.154902
20   0.15632
21   0.157236
22   0.157747
23   0.156132
24   0.157835
25   0.145779
26   0.15036
27   0.161184
28   0.160601
29   0.157517
30   0.153645
31   0.149035
32   0.150061
33   0.113676
34   0.141804
35   0.114939
36   0.15568
37   0.258336

$$$$
PCCDB-ID:  1297
     RDKit          3D

 24 24  0  0  1  0  0  0  0  0999 V2000
   -1.2264    0.1203   -0.1847 C   0  0  0  0  0  0  0  0  0  0  0  0
   -0.5421    1.3298   -0.1284 C   0  0  0  0  0  0  0  0  0  0  0  0
    0.8801   -1.0514   -0.1365 C   0  0  0  0  0  0  0  0  0  0  0  0
   -0.5179   -1.0865   -0.1890 C   0  0  0  0  0  0  0  0  0  0  0  0
    0.8564    1.3864   -0.0739 C   0  0  0  0  0  0  0  0  0  0  0  0
    1.5584    0.1659   -0.0764 C   0  0  0  0  0  0  0  0  0  0  0  0
   -1.2428   -2.4266   -0.2173 C   0  0  1  0  0  0  0  0  0  0  0  0
    1.4751    2.7634   -0.0244 C   0  0  0  0  0  0  0  0  0  0  0  0
   -0.6190   -3.3682   -1.2766 C   0  0  0  0  0  0  0  0  0  0  0  0
   -1.3038   -3.0095    1.1168 N   0  0  0  0  0  0  0  0  0  0  0  0
    2.9314    0.2032   -0.0265 O   0  0  0  0  0  0  0  0  0  0  0  0
    0.7904    3.7619   -0.0404 O   0  0  0  0  0  0  0  0  0  0  0  0
    2.8172    2.8574    0.0366 O   0  0  0  0  0  0  0  0  0  0  0  0
   -0.2227   -4.4794   -1.0270 O   0  0  0  0  0  0  0  0  0  0  0  0
   -0.5625   -2.8798   -2.5405 O   0  0  0  0  0  0  0  0  0  0  0  0
   -2.3122    0.1100   -0.2120 H   0  0  0  0  0  0  0  0  0  0  0  0
   -1.0737    2.2752   -0.1237 H   0  0  0  0  0  0  0  0  0  0  0  0
    1.4503   -1.9798   -0.1502 H   0  0  0  0  0  0  0  0  0  0  0  0
   -2.2763   -2.2432   -0.5453 H   0  0  0  0  0  0  0  0  0  0  0  0
   -0.3549   -3.1362    1.4677 H   0  0  0  0  0  0  0  0  0  0  0  0
   -1.6848   -3.9526    1.0390 H   0  0  0  0  0  0  0  0  0  0  0  0
    3.2999   -0.6938   -0.0470 H   0  0  0  0  0  0  0  0  0  0  0  0
    3.2268    1.9712    0.0460 H   0  0  0  0  0  0  0  0  0  0  0  0
   -0.8552   -1.9513   -2.5490 H   0  0  0  0  0  0  0  0  0  0  0  0
  1  2  2  0
  2 17  1  0
  2  5  1  0
  3  6  1  0
  4  1  1  0
  4  3  2  0
  5  8  1  0
  6  5  2  0
  6 11  1  0
  7 19  1  6
  7  4  1  0
  7 10  1  0
  8 13  1  0
  9 14  2  0
  9  7  1  0
 10 20  1  0
 12  8  2  0
 13 23  1  0
 15  9  1  0
 16  1  1  0
 18  3  1  0
 21 10  1  0
 22 11  1  0
 24 15  1  0
M  END
>  <HBA>  (413) 
6

>  <HBD>  (413) 
4

>  <TPSA>  (413) 
120.85

>  <cid>  (413) 
1297

>  <dipole>  (413) 
3.13

>  <excitation_energy_1>  (413) 
4.531

>  <excitation_energy_2>  (413) 
4.589

>  <excitation_energy_3>  (413) 
4.72

>  <excitation_energy_4>  (413) 
5.309

>  <homo_energy>  (413) 
-7.116

>  <homo_lumo_gap>  (413) 
5.35

>  <logP>  (413) 
0.875

>  <lumo_energy>  (413) 
-1.766

>  <melting_point>  (413) 
271.2

>  <molecular_refractivity>  (413) 
49.68

>  <oscillator_strength_1>  (413) 
0.0001

>  <oscillator_strength_2>  (413) 
0.0226

>  <oscillator_strength_3>  (413) 
0.0583

>  <oscillator_strength_4>  (413) 
0.1675

>  <open_babel_can_smiles>  (413) 
N[C@@H](c1ccc(c(c1)O)C(=O)O)C(=O)O

>  <mulliken_charges>  (413) 
24
1   -0.188002
2   -0.173537
3   -0.241538
4   0.136645
5   0.018059
6   0.319409
7   -0.172055
8   0.580828
9   0.579289
10   -0.6792
11   -0.684675
12   -0.456431
13   -0.595641
14   -0.44831
15   -0.5577
16   0.148366
17   0.185097
18   0.147032
19   0.167385
20   0.306301
21   0.318165
22   0.432276
23   0.442704
24   0.415533

>  <lowdin_charges>  (413) 
24
1   -0.173562
2   -0.110209
3   -0.217691
4   0.002014
5   -0.082724
6   0.113484
7   -0.107669
8   0.199604
9   0.165758
10   -0.51989
11   -0.380809
12   -0.252411
13   -0.356188
14   -0.238376
15   -0.347372
16   0.166052
17   0.189411
18   0.165146
19   0.163673
20   0.259708
21   0.266788
22   0.372986
23   0.360459
24   0.36182

$$$$
PCCDB-ID:  1303
     RDKit          3D

 22 22  0  0  1  0  0  0  0  0999 V2000
    3.3063    0.7674   -0.8346 C   0  0  0  0  0  0  0  0  0  0  0  0
    4.1793   -4.1958    0.1176 C   0  0  0  0  0  0  0  0  0  0  0  0
    2.8440   -4.0250   -0.2431 C   0  0  0  0  0  0  0  0  0  0  0  0
    4.9478   -3.0795    0.4560 C   0  0  0  0  0  0  0  0  0  0  0  0
    2.2828   -2.7462   -0.2762 C   0  0  0  0  0  0  0  0  0  0  0  0
    4.3912   -1.8026    0.4182 C   0  0  0  0  0  0  0  0  0  0  0  0
    3.0530   -1.6202    0.0373 C   0  0  0  0  0  0  0  0  0  0  0  0
    2.3065    0.3237    1.4307 C   0  0  0  0  0  0  0  0  0  0  0  0
    2.4483   -0.2106   -0.0189 C   0  0  1  0  0  0  0  0  0  0  0  0
    3.2601    0.6771    2.0809 O   0  0  0  0  0  0  0  0  0  0  0  0
    1.0532    0.3466    1.9115 O   0  0  0  0  0  0  0  0  0  0  0  0
    1.1119   -0.2305   -0.5472 O   0  0  0  0  0  0  0  0  0  0  0  0
    4.2788    0.9236   -0.3649 H   0  0  0  0  0  0  0  0  0  0  0  0
    2.7961    1.7331   -0.9023 H   0  0  0  0  0  0  0  0  0  0  0  0
    3.4639    0.3757   -1.8459 H   0  0  0  0  0  0  0  0  0  0  0  0
    4.6168   -5.1900    0.1455 H   0  0  0  0  0  0  0  0  0  0  0  0
    2.2300   -4.8861   -0.4930 H   0  0  0  0  0  0  0  0  0  0  0  0
    5.9857   -3.2024    0.7531 H   0  0  0  0  0  0  0  0  0  0  0  0
    1.2340   -2.6310   -0.5300 H   0  0  0  0  0  0  0  0  0  0  0  0
    4.9887   -0.9470    0.7135 H   0  0  0  0  0  0  0  0  0  0  0  0
    0.4584    0.0588    1.1896 H   0  0  0  0  0  0  0  0  0  0  0  0
    1.1351   -0.6230   -1.4341 H   0  0  0  0  0  0  0  0  0  0  0  0
  1 13  1  0
  1  9  1  0
  2 16  1  0
  2  4  2  0
  3  2  1  0
  4 18  1  0
  5  3  2  0
  5  7  1  0
  6  4  1  0
  6 20  1  0
  7  6  2  0
  8 11  1  0
  8 10  2  0
  9 12  1  6
  9  7  1  0
  9  8  1  0
 14  1  1  0
 15  1  1  0
 17  3  1  0
 19  5  1  0
 21 11  1  0
 22 12  1  0
M  END
>  <HBA>  (414) 
3

>  <HBD>  (414) 
2

>  <TPSA>  (414) 
57.53

>  <cid>  (414) 
1303

>  <dipole>  (414) 
4.67

>  <excitation_energy_1>  (414) 
5.253

>  <excitation_energy_2>  (414) 
5.427

>  <excitation_energy_3>  (414) 
5.845

>  <excitation_energy_4>  (414) 
5.95

>  <homo_energy>  (414) 
-6.803

>  <homo_lumo_gap>  (414) 
6.291

>  <logP>  (414) 
0.979

>  <lumo_energy>  (414) 
-0.512

>  <melting_point>  (414) 
108.54

>  <molecular_refractivity>  (414) 
43.84

>  <oscillator_strength_1>  (414) 
0.0014

>  <oscillator_strength_2>  (414) 
0.0636

>  <oscillator_strength_3>  (414) 
0.0219

>  <oscillator_strength_4>  (414) 
0.015

>  <open_babel_can_smiles>  (414) 
OC(=O)[C@@](c1ccccc1)(O)C

>  <mulliken_charges>  (414) 
22
1   -0.454554
2   -0.124077
3   -0.127711
4   -0.134351
5   -0.195257
6   -0.166408
7   0.126304
8   0.622611
9   0.134126
10   -0.459181
11   -0.57687
12   -0.677263
13   0.183375
14   0.165784
15   0.146021
16   0.134558
17   0.133654
18   0.137705
19   0.125027
20   0.157461
21   0.440095
22   0.408951

>  <lowdin_charges>  (414) 
22
1   -0.444586
2   -0.152781
3   -0.154232
4   -0.147635
5   -0.174577
6   -0.154885
7   -0.024278
8   0.191719
9   0.087136
10   -0.249385
11   -0.340947
12   -0.457882
13   0.173932
14   0.163168
15   0.152286
16   0.159875
17   0.160478
18   0.160283
19   0.154713
20   0.172195
21   0.369635
22   0.355767

$$$$
PCCDB-ID:  1310
     RDKit          3D

 23 23  0  0  1  0  0  0  0  0999 V2000
   -0.5980   -0.9263   -0.3442 C   0  0  0  0  0  0  0  0  0  0  0  0
    0.8383   -0.9520    0.1989 C   0  0  0  0  0  0  0  0  0  0  0  0
    0.0448    1.3850    0.0143 C   0  0  0  0  0  0  0  0  0  0  0  0
   -1.1576    0.4241    0.1690 C   0  0  2  0  0  0  0  0  0  0  0  0
   -1.7545    0.2585    1.5800 C   0  0  0  0  0  0  0  0  0  0  0  0
    2.2027    0.8736    1.2871 C   0  0  0  0  0  0  0  0  0  0  0  0
    1.3487    0.5167    0.0543 C   0  0  1  0  0  0  0  0  0  0  0  0
    2.2211    0.6428   -1.1334 N   0  0  0  0  0  0  0  0  0  0  0  0
   -2.8984   -0.1174    1.7067 O   0  0  0  0  0  0  0  0  0  0  0  0
   -0.9895    0.4927    2.6585 O   0  0  0  0  0  0  0  0  0  0  0  0
    1.7080    1.0688    2.3852 O   0  0  0  0  0  0  0  0  0  0  0  0
    3.5101    0.9206    1.0706 O   0  0  0  0  0  0  0  0  0  0  0  0
   -1.1973   -1.7807   -0.0177 H   0  0  0  0  0  0  0  0  0  0  0  0
   -0.5972   -0.9242   -1.4423 H   0  0  0  0  0  0  0  0  0  0  0  0
    1.5027   -1.6575   -0.3119 H   0  0  0  0  0  0  0  0  0  0  0  0
    0.8235   -1.2323    1.2568 H   0  0  0  0  0  0  0  0  0  0  0  0
    0.0558    2.1767    0.7684 H   0  0  0  0  0  0  0  0  0  0  0  0
   -0.0176    1.8775   -0.9625 H   0  0  0  0  0  0  0  0  0  0  0  0
   -2.0031    0.7470   -0.4431 H   0  0  0  0  0  0  0  0  0  0  0  0
    2.1407    1.5685   -1.5517 H   0  0  0  0  0  0  0  0  0  0  0  0
    1.9751   -0.0338   -1.8520 H   0  0  0  0  0  0  0  0  0  0  0  0
   -0.0578    0.7615    2.4691 H   0  0  0  0  0  0  0  0  0  0  0  0
    3.6014    0.7322    0.0966 H   0  0  0  0  0  0  0  0  0  0  0  0
  1 13  1  0
  1  4  1  0
  1  2  1  0
  2 16  1  0
  3  7  1  0
  3  4  1  0
  3 17  1  0
  4 19  1  6
  4  5  1  0
  5  9  2  0
  5 10  1  0
  6 11  2  0
  7  2  1  0
  7  6  1  1
  8  7  1  0
 12  6  1  0
 14  1  1  0
 15  2  1  0
 18  3  1  0
 20  8  1  0
 21  8  1  0
 22 10  1  0
 23 12  1  0
M  END
>  <HBA>  (415) 
5

>  <HBD>  (415) 
3

>  <TPSA>  (415) 
100.62

>  <cid>  (415) 
1310

>  <dipole>  (415) 
8.01

>  <excitation_energy_1>  (415) 
5.466

>  <excitation_energy_2>  (415) 
5.682

>  <excitation_energy_3>  (415) 
5.769

>  <excitation_energy_4>  (415) 
6.047

>  <homo_energy>  (415) 
-6.857

>  <homo_lumo_gap>  (415) 
6.501

>  <logP>  (415) 
0.353

>  <lumo_energy>  (415) 
-0.356

>  <melting_point>  (415) 
214.94

>  <molecular_refractivity>  (415) 
39.94

>  <oscillator_strength_1>  (415) 
0.0006

>  <oscillator_strength_2>  (415) 
0.0021

>  <oscillator_strength_3>  (415) 
0.0095

>  <oscillator_strength_4>  (415) 
0.0005

>  <open_babel_can_smiles>  (415) 
OC(=O)[C@@H]1CC[C@](C1)(N)C(=O)O

>  <mulliken_charges>  (415) 
23
1   -0.280058
2   -0.317139
3   -0.337143
4   -0.18797
5   0.576738
6   0.620066
7   0.122882
8   -0.799053
9   -0.463828
10   -0.602515
11   -0.489068
12   -0.563492
13   0.182027
14   0.139898
15   0.157264
16   0.187665
17   0.183308
18   0.147933
19   0.170429
20   0.326925
21   0.330039
22   0.454075
23   0.441019

>  <lowdin_charges>  (415) 
23
1   -0.270294
2   -0.28588
3   -0.300394
4   -0.166061
5   0.178341
6   0.186245
7   0.016874
8   -0.540146
9   -0.261889
10   -0.360769
11   -0.271684
12   -0.324139
13   0.170135
14   0.141895
15   0.15779
16   0.167792
17   0.168376
18   0.155077
19   0.173437
20   0.269723
21   0.275733
22   0.356711
23   0.363128

$$$$
PCCDB-ID:  1313
     RDKit          3D

 24 24  0  0  1  0  0  0  0  0999 V2000
   -1.0570   -0.8904    0.4921 C   0  0  0  0  0  0  0  0  0  0  0  0
   -0.3588    1.5355   -2.6710 C   0  0  0  0  0  0  0  0  0  0  0  0
    0.4186   -1.2535    0.7552 C   0  0  2  0  0  0  0  0  0  0  0  0
    0.5830    0.7742   -1.7412 C   0  0  2  0  0  0  0  0  0  0  0  0
    0.2667    0.9631   -0.2510 C   0  0  2  0  0  0  0  0  0  0  0  0
    1.1656    0.1063    0.6852 C   0  0  2  0  0  0  0  0  0  0  0  0
   -1.1079    0.5285    0.0466 N   0  0  0  0  0  0  0  0  0  0  0  0
    0.1564    1.4856   -4.0098 O   0  0  0  0  0  0  0  0  0  0  0  0
    0.8942   -2.1128   -0.2699 O   0  0  0  0  0  0  0  0  0  0  0  0
    1.9143    1.2712   -1.9505 O   0  0  0  0  0  0  0  0  0  0  0  0
    2.5136   -0.0981    0.2890 O   0  0  0  0  0  0  0  0  0  0  0  0
   -1.6826   -1.0218    1.3809 H   0  0  0  0  0  0  0  0  0  0  0  0
   -1.4447   -1.5565   -0.2865 H   0  0  0  0  0  0  0  0  0  0  0  0
   -0.3728    2.5963   -2.4009 H   0  0  0  0  0  0  0  0  0  0  0  0
   -1.3785    1.1429   -2.6050 H   0  0  0  0  0  0  0  0  0  0  0  0
    0.5555   -1.7288    1.7381 H   0  0  0  0  0  0  0  0  0  0  0  0
    0.5452   -0.2983   -1.9865 H   0  0  0  0  0  0  0  0  0  0  0  0
    0.3718    2.0323   -0.0328 H   0  0  0  0  0  0  0  0  0  0  0  0
    1.1552    0.5707    1.6821 H   0  0  0  0  0  0  0  0  0  0  0  0
   -1.4795    1.1043    0.7959 H   0  0  0  0  0  0  0  0  0  0  0  0
   -0.0544    0.6104   -4.3723 H   0  0  0  0  0  0  0  0  0  0  0  0
    1.8483   -1.9025   -0.3214 H   0  0  0  0  0  0  0  0  0  0  0  0
    2.0055    1.3704   -2.9164 H   0  0  0  0  0  0  0  0  0  0  0  0
    2.6578    0.3922   -0.5460 H   0  0  0  0  0  0  0  0  0  0  0  0
  1  3  1  0
  1 12  1  0
  2 15  1  0
  2 14  1  0
  2  4  1  0
  3 16  1  1
  4 17  1  6
  4  5  1  0
  5 18  1  1
  5  7  1  0
  5  6  1  0
  6  3  1  0
  6 19  1  1
  7  1  1  0
  7 20  1  0
  8  2  1  0
  9  3  1  0
 10  4  1  0
 11  6  1  0
 13  1  1  0
 21  8  1  0
 22  9  1  0
 23 10  1  0
 24 11  1  0
M  END
>  <HBA>  (416) 
5

>  <HBD>  (416) 
5

>  <TPSA>  (416) 
92.95

>  <cid>  (416) 
1313

>  <dipole>  (416) 
1.8

>  <excitation_energy_1>  (416) 
5.362

>  <excitation_energy_2>  (416) 
5.633

>  <excitation_energy_3>  (416) 
6.189

>  <excitation_energy_4>  (416) 
6.21

>  <homo_energy>  (416) 
-6.267

>  <homo_lumo_gap>  (416) 
7.581

>  <logP>  (416) 
-2.638

>  <lumo_energy>  (416) 
1.314

>  <melting_point>  (416) 
97.67

>  <molecular_refractivity>  (416) 
40.21

>  <oscillator_strength_1>  (416) 
0.0099

>  <oscillator_strength_2>  (416) 
0.0013

>  <oscillator_strength_3>  (416) 
0.0056

>  <oscillator_strength_4>  (416) 
0.0029

>  <open_babel_can_smiles>  (416) 
OC[C@H]([C@H]1NC[C@H]([C@H]1O)O)O

>  <mulliken_charges>  (416) 
24
1   -0.155551
2   -0.059085
3   0.111745
4   0.114376
5   -0.055903
6   0.133161
7   -0.563868
8   -0.626353
9   -0.647138
10   -0.669999
11   -0.6778
12   0.137686
13   0.166399
14   0.151444
15   0.160367
16   0.122651
17   0.138751
18   0.139902
19   0.118804
20   0.30538
21   0.398221
22   0.402817
23   0.413954
24   0.440037

>  <lowdin_charges>  (416) 
24
1   -0.219463
2   -0.148446
3   -0.029375
4   -0.033552
5   -0.093824
6   -0.03307
7   -0.36606
8   -0.467798
9   -0.470586
10   -0.471375
11   -0.474832
12   0.146372
13   0.157045
14   0.149887
15   0.151877
16   0.130637
17   0.13656
18   0.146671
19   0.134206
20   0.261246
21   0.34714
22   0.340645
23   0.349716
24   0.356379

$$$$
PCCDB-ID:  1317
     RDKit          3D

 36 35  0  0  0  0  0  0  0  0999 V2000
    0.9259   -0.6577   -1.4963 C   0  0  0  0  0  0  0  0  0  0  0  0
    0.2886   -0.0351   -0.2465 C   0  0  0  0  0  0  0  0  0  0  0  0
    2.1366    0.1101   -2.0537 C   0  0  0  0  0  0  0  0  0  0  0  0
   -0.9671   -0.7800    0.2280 C   0  0  0  0  0  0  0  0  0  0  0  0
    3.3641    0.1361   -1.1311 C   0  0  0  0  0  0  0  0  0  0  0  0
   -1.5912   -0.1714    1.4916 C   0  0  0  0  0  0  0  0  0  0  0  0
    4.5757    0.8433   -1.7532 C   0  0  0  0  0  0  0  0  0  0  0  0
   -2.8867   -0.8550    1.9607 C   0  0  0  0  0  0  0  0  0  0  0  0
    5.8077    0.8717   -0.8340 C   0  0  0  0  0  0  0  0  0  0  0  0
   -2.7260   -2.3086    2.4500 C   0  0  0  0  0  0  0  0  0  0  0  0
    7.0032    1.5314   -1.3707 N   0  0  0  0  0  0  0  0  0  0  0  0
   -1.8526   -2.5243    3.6089 N   0  0  0  0  0  0  0  0  0  0  0  0
    0.1617   -0.7270   -2.2837 H   0  0  0  0  0  0  0  0  0  0  0  0
    1.2247   -1.6930   -1.2736 H   0  0  0  0  0  0  0  0  0  0  0  0
    0.0309    1.0142   -0.4560 H   0  0  0  0  0  0  0  0  0  0  0  0
    1.0195   -0.0101    0.5736 H   0  0  0  0  0  0  0  0  0  0  0  0
    1.8355    1.1428   -2.2855 H   0  0  0  0  0  0  0  0  0  0  0  0
    2.4274   -0.3417   -3.0128 H   0  0  0  0  0  0  0  0  0  0  0  0
   -0.7103   -1.8341    0.4055 H   0  0  0  0  0  0  0  0  0  0  0  0
   -1.7152   -0.7839   -0.5788 H   0  0  0  0  0  0  0  0  0  0  0  0
    3.6411   -0.8969   -0.8714 H   0  0  0  0  0  0  0  0  0  0  0  0
    3.1109    0.6307   -0.1832 H   0  0  0  0  0  0  0  0  0  0  0  0
   -1.8008    0.8913    1.3072 H   0  0  0  0  0  0  0  0  0  0  0  0
   -0.8527   -0.1894    2.3072 H   0  0  0  0  0  0  0  0  0  0  0  0
    4.3025    1.8766   -2.0174 H   0  0  0  0  0  0  0  0  0  0  0  0
    4.8450    0.3472   -2.6983 H   0  0  0  0  0  0  0  0  0  0  0  0
   -3.6216   -0.8383    1.1419 H   0  0  0  0  0  0  0  0  0  0  0  0
   -3.3266   -0.2613    2.7760 H   0  0  0  0  0  0  0  0  0  0  0  0
    6.0882   -0.1561   -0.5671 H   0  0  0  0  0  0  0  0  0  0  0  0
    5.5494    1.3712    0.1094 H   0  0  0  0  0  0  0  0  0  0  0  0
   -2.3508   -2.9412    1.6361 H   0  0  0  0  0  0  0  0  0  0  0  0
   -3.7169   -2.7039    2.7075 H   0  0  0  0  0  0  0  0  0  0  0  0
    6.7773    2.4956   -1.6152 H   0  0  0  0  0  0  0  0  0  0  0  0
    7.2724    1.0830   -2.2464 H   0  0  0  0  0  0  0  0  0  0  0  0
   -0.9025   -2.2271    3.3918 H   0  0  0  0  0  0  0  0  0  0  0  0
   -2.1595   -1.9370    4.3844 H   0  0  0  0  0  0  0  0  0  0  0  0
  1 14  1  0
  1  2  1  0
  2  4  1  0
  2 16  1  0
  3  1  1  0
  3  5  1  0
  4 19  1  0
  4  6  1  0
  5 21  1  0
  5 22  1  0
  6  8  1  0
  6 24  1  0
  7  5  1  0
  7  9  1  0
  8 10  1  0
  8 28  1  0
  9 29  1  0
  9 30  1  0
 10 32  1  0
 10 12  1  0
 11  9  1  0
 12 36  1  0
 13  1  1  0
 15  2  1  0
 17  3  1  0
 18  3  1  0
 20  4  1  0
 23  6  1  0
 25  7  1  0
 26  7  1  0
 27  8  1  0
 31 10  1  0
 33 11  1  0
 34 11  1  0
 35 12  1  0
M  END
>  <HBA>  (417) 
2

>  <HBD>  (417) 
2

>  <TPSA>  (417) 
52.04

>  <cid>  (417) 
1317

>  <dipole>  (417) 
2.25

>  <excitation_energy_1>  (417) 
5.558

>  <excitation_energy_2>  (417) 
5.573

>  <excitation_energy_3>  (417) 
6.145

>  <excitation_energy_4>  (417) 
6.208

>  <homo_energy>  (417) 
-6.193

>  <homo_lumo_gap>  (417) 
8.057

>  <logP>  (417) 
3.425

>  <lumo_energy>  (417) 
1.864

>  <melting_point>  (417) 
79.28

>  <molecular_refractivity>  (417) 
55.6

>  <oscillator_strength_1>  (417) 
0.0329

>  <oscillator_strength_2>  (417) 
0.0284

>  <oscillator_strength_3>  (417) 
0.0013

>  <oscillator_strength_4>  (417) 
0.0151

>  <open_babel_can_smiles>  (417) 
NCCCCCCCCCCN

>  <mulliken_charges>  (417) 
36
1   -0.255453
2   -0.253645
3   -0.254231
4   -0.2557
5   -0.256246
6   -0.255451
7   -0.260709
8   -0.261966
9   -0.141683
10   -0.146036
11   -0.70423
12   -0.70683
13   0.127744
14   0.127125
15   0.126276
16   0.131235
17   0.126338
18   0.127443
19   0.131246
20   0.128563
21   0.128155
22   0.133918
23   0.130908
24   0.115011
25   0.121264
26   0.121201
27   0.125803
28   0.121422
29   0.139273
30   0.138543
31   0.144084
32   0.140363
33   0.289858
34   0.290037
35   0.296171
36   0.290196

>  <lowdin_charges>  (417) 
36
1   -0.274848
2   -0.275488
3   -0.273436
4   -0.276244
5   -0.276218
6   -0.279079
7   -0.292625
8   -0.297191
9   -0.208667
10   -0.211992
11   -0.550662
12   -0.554518
13   0.141236
14   0.136497
15   0.135626
16   0.138986
17   0.136262
18   0.140192
19   0.136732
20   0.138851
21   0.137174
22   0.139731
23   0.140908
24   0.131613
25   0.133366
26   0.134103
27   0.141642
28   0.138209
29   0.140123
30   0.140714
31   0.143505
32   0.143598
33   0.24937
34   0.249985
35   0.251061
36   0.251485

$$$$
PCCDB-ID:  1322
     RDKit          3D

 12 11  0  0  0  0  0  0  0  0999 V2000
    1.0407    0.1934   -0.0492 C   0  0  0  0  0  0  0  0  0  0  0  0
    4.1968   -1.0615    1.2652 C   0  0  0  0  0  0  0  0  0  0  0  0
    2.4559    0.2117    0.2931 N   0  0  0  0  0  0  0  0  0  0  0  0
    2.7587   -0.8392    1.2074 N   0  0  0  0  0  0  0  0  0  0  0  0
    0.8343    1.0271   -0.7295 H   0  0  0  0  0  0  0  0  0  0  0  0
    0.3618    0.2806    0.8200 H   0  0  0  0  0  0  0  0  0  0  0  0
    0.8136   -0.7462   -0.5600 H   0  0  0  0  0  0  0  0  0  0  0  0
    4.3994   -1.8535    1.9946 H   0  0  0  0  0  0  0  0  0  0  0  0
    4.7832   -0.1686    1.5527 H   0  0  0  0  0  0  0  0  0  0  0  0
    4.5429   -1.3882    0.2809 H   0  0  0  0  0  0  0  0  0  0  0  0
    2.6973    1.1233    0.6977 H   0  0  0  0  0  0  0  0  0  0  0  0
    2.4118   -0.6115    2.1460 H   0  0  0  0  0  0  0  0  0  0  0  0
  1  3  1  0
  1  6  1  0
  2  9  1  0
  2  8  1  0
  3 11  1  0
  3  4  1  0
  4  2  1  0
  4 12  1  0
  5  1  1  0
  7  1  1  0
 10  2  1  0
M  END
>  <HBA>  (418) 
2

>  <HBD>  (418) 
2

>  <TPSA>  (418) 
24.06

>  <cid>  (418) 
1322

>  <dipole>  (418) 
1.83

>  <excitation_energy_1>  (418) 
5.129

>  <excitation_energy_2>  (418) 
5.869

>  <excitation_energy_3>  (418) 
6.026

>  <excitation_energy_4>  (418) 
6.219

>  <homo_energy>  (418) 
-5.818

>  <homo_lumo_gap>  (418) 
7.878

>  <logP>  (418) 
0.122

>  <lumo_energy>  (418) 
2.06

>  <melting_point>  (418) 
30.45

>  <molecular_refractivity>  (418) 
17.33

>  <oscillator_strength_1>  (418) 
0.0164

>  <oscillator_strength_2>  (418) 
0.0001

>  <oscillator_strength_3>  (418) 
0.0051

>  <oscillator_strength_4>  (418) 
0.037

>  <open_babel_can_smiles>  (418) 
CNNC

>  <mulliken_charges>  (418) 
12
1   -0.282028
2   -0.282123
3   -0.422499
4   -0.422254
5   0.143079
6   0.113722
7   0.168157
8   0.143092
9   0.11373
10   0.168165
11   0.279495
12   0.279463

>  <lowdin_charges>  (418) 
12
1   -0.362565
2   -0.362328
3   -0.297055
4   -0.296591
5   0.149505
6   0.119473
7   0.158347
8   0.14961
9   0.119568
10   0.158034
11   0.232295
12   0.231707

$$$$
PCCDB-ID:  1326
     RDKit          3D

 24 25  0  0  0  0  0  0  0  0999 V2000
    0.8759   -0.0451    0.0185 C   0  0  0  0  0  0  0  0  0  0  0  0
    1.5883   -3.0980    0.1980 C   0  0  0  0  0  0  0  0  0  0  0  0
    6.3836   -3.8656   -0.0521 C   0  0  0  0  0  0  0  0  0  0  0  0
    3.1483    1.0070   -0.2095 C   0  0  0  0  0  0  0  0  0  0  0  0
    4.4658   -0.6534   -0.1687 C   0  0  0  0  0  0  0  0  0  0  0  0
    3.1930   -1.1836   -0.0482 C   0  0  0  0  0  0  0  0  0  0  0  0
    5.6359   -1.5036   -0.1808 C   0  0  0  0  0  0  0  0  0  0  0  0
    4.0151   -3.4305    0.0651 C   0  0  0  0  0  0  0  0  0  0  0  0
    4.4164    0.7214   -0.2685 N   0  0  0  0  0  0  0  0  0  0  0  0
    2.3293   -0.1127   -0.0745 N   0  0  0  0  0  0  0  0  0  0  0  0
    2.9290   -2.5309    0.0683 N   0  0  0  0  0  0  0  0  0  0  0  0
    5.2897   -2.8876   -0.0555 N   0  0  0  0  0  0  0  0  0  0  0  0
    6.7970   -1.1490   -0.2819 O   0  0  0  0  0  0  0  0  0  0  0  0
    3.8359   -4.6370    0.1651 O   0  0  0  0  0  0  0  0  0  0  0  0
    0.5891    1.0049   -0.0670 H   0  0  0  0  0  0  0  0  0  0  0  0
    0.5171   -0.4223    0.9796 H   0  0  0  0  0  0  0  0  0  0  0  0
    0.3968   -0.5988   -0.7926 H   0  0  0  0  0  0  0  0  0  0  0  0
    1.0856   -2.7154    1.0911 H   0  0  0  0  0  0  0  0  0  0  0  0
    1.7150   -4.1752    0.2912 H   0  0  0  0  0  0  0  0  0  0  0  0
    0.9829   -2.8839   -0.6882 H   0  0  0  0  0  0  0  0  0  0  0  0
    7.3113   -3.3068   -0.1565 H   0  0  0  0  0  0  0  0  0  0  0  0
    6.2614   -4.5672   -0.8806 H   0  0  0  0  0  0  0  0  0  0  0  0
    6.3783   -4.4306    0.8832 H   0  0  0  0  0  0  0  0  0  0  0  0
    2.7139    1.9974   -0.2559 H   0  0  0  0  0  0  0  0  0  0  0  0
  1 16  1  0
  2 19  1  0
  2 18  1  0
  3 23  1  0
  4 10  1  0
  5  6  2  0
  6 11  1  0
  7  5  1  0
  7 12  1  0
  8 11  1  0
  8 14  2  0
  9  4  2  0
  9  5  1  0
 10  6  1  0
 10  1  1  0
 11  2  1  0
 12  3  1  0
 12  8  1  0
 13  7  2  0
 15  1  1  0
 17  1  1  0
 20  2  1  0
 21  3  1  0
 22  3  1  0
 24  4  1  0
M  END
>  <HBA>  (419) 
6

>  <HBD>  (419) 
0

>  <TPSA>  (419) 
61.82

>  <cid>  (419) 
1326

>  <dipole>  (419) 
7.44

>  <excitation_energy_1>  (419) 
4.937

>  <excitation_energy_2>  (419) 
4.962

>  <excitation_energy_3>  (419) 
5.022

>  <excitation_energy_4>  (419) 
5.307

>  <homo_energy>  (419) 
-5.959

>  <homo_lumo_gap>  (419) 
5.559

>  <logP>  (419) 
-1.029

>  <lumo_energy>  (419) 
-0.4

>  <melting_point>  (419) 
143.54

>  <molecular_refractivity>  (419) 
52.04

>  <oscillator_strength_1>  (419) 
0.0017

>  <oscillator_strength_2>  (419) 
0.1117

>  <oscillator_strength_3>  (419) 
0.0001

>  <oscillator_strength_4>  (419) 
0.1864

>  <open_babel_can_smiles>  (419) 
O=c1n(C)c2n(C)cnc2c(=O)n1C

>  <mulliken_charges>  (419) 
24
1   -0.332127
2   -0.34611
3   -0.315198
4   0.201565
5   0.104524
6   0.597752
7   0.608677
8   0.789825
9   -0.468484
10   -0.484865
11   -0.599152
12   -0.566419
13   -0.495671
14   -0.528654
15   0.185912
16   0.185362
17   0.185219
18   0.16604
19   0.228892
20   0.166746
21   0.203582
22   0.174835
23   0.174587
24   0.163162

>  <lowdin_charges>  (419) 
24
1   -0.345407
2   -0.354896
3   -0.351206
4   -0.090797
5   -0.073553
6   0.066484
7   0.166899
8   0.187595
9   -0.138511
10   -0.029398
11   -0.072137
12   -0.091576
13   -0.269054
14   -0.31077
15   0.174326
16   0.166477
17   0.168106
18   0.157267
19   0.197882
20   0.157074
21   0.184667
22   0.165381
23   0.164663
24   0.170484

$$$$
PCCDB-ID:  1335
     RDKit          3D

 20 20  0  0  1  0  0  0  0  0999 V2000
   -0.7670   -1.0476   -0.4152 C   0  0  0  0  0  0  0  0  0  0  0  0
   -0.0659    1.9526   -1.6076 C   0  0  0  0  0  0  0  0  0  0  0  0
    0.0440    1.1769   -0.2845 C   0  0  2  0  0  0  0  0  0  0  0  0
    0.6598   -1.1645    0.1562 C   0  0  2  0  0  0  0  0  0  0  0  0
    1.2693    0.2301   -0.1747 C   0  0  1  0  0  0  0  0  0  0  0  0
   -1.1810    0.3364   -0.1395 N   0  0  0  0  0  0  0  0  0  0  0  0
   -1.2738    2.6906   -1.6170 O   0  0  0  0  0  0  0  0  0  0  0  0
    1.4312   -2.2335   -0.3459 O   0  0  0  0  0  0  0  0  0  0  0  0
    1.9631    0.1529   -1.4308 O   0  0  0  0  0  0  0  0  0  0  0  0
   -1.4728   -1.7630    0.0156 H   0  0  0  0  0  0  0  0  0  0  0  0
   -0.7403   -1.2169   -1.5000 H   0  0  0  0  0  0  0  0  0  0  0  0
   -0.0110    1.2571   -2.4575 H   0  0  0  0  0  0  0  0  0  0  0  0
    0.7593    2.6633   -1.7094 H   0  0  0  0  0  0  0  0  0  0  0  0
    0.0525    1.9163    0.5234 H   0  0  0  0  0  0  0  0  0  0  0  0
    0.6094   -1.3006    1.2429 H   0  0  0  0  0  0  0  0  0  0  0  0
    1.9657    0.5647    0.6027 H   0  0  0  0  0  0  0  0  0  0  0  0
   -1.5195    0.3957    0.8181 H   0  0  0  0  0  0  0  0  0  0  0  0
   -1.9469    2.0369   -1.3484 H   0  0  0  0  0  0  0  0  0  0  0  0
    1.6427   -1.9760   -1.2613 H   0  0  0  0  0  0  0  0  0  0  0  0
    2.8836   -0.0789   -1.2363 H   0  0  0  0  0  0  0  0  0  0  0  0
  1  6  1  0
  1 10  1  0
  1  4  1  0
  2  3  1  0
  3  5  1  0
  3  6  1  0
  3 14  1  1
  4 15  1  1
  5  4  1  0
  5 16  1  1
  6 17  1  0
  7  2  1  0
  7 18  1  0
  8  4  1  0
  9 20  1  0
  9  5  1  0
 11  1  1  0
 12  2  1  0
 13  2  1  0
 19  8  1  0
M  END
>  <HBA>  (420) 
4

>  <HBD>  (420) 
4

>  <TPSA>  (420) 
72.72

>  <cid>  (420) 
1335

>  <dipole>  (420) 
2.7

>  <excitation_energy_1>  (420) 
5.383

>  <excitation_energy_2>  (420) 
5.641

>  <excitation_energy_3>  (420) 
6.099

>  <excitation_energy_4>  (420) 
6.32

>  <homo_energy>  (420) 
-6.338

>  <homo_lumo_gap>  (420) 
7.423

>  <logP>  (420) 
-1.999

>  <lumo_energy>  (420) 
1.086

>  <melting_point>  (420) 
79.71

>  <molecular_refractivity>  (420) 
34.24

>  <oscillator_strength_1>  (420) 
0.0042

>  <oscillator_strength_2>  (420) 
0.0103

>  <oscillator_strength_3>  (420) 
0.005

>  <oscillator_strength_4>  (420) 
0.002

>  <open_babel_can_smiles>  (420) 
OC[C@H]1NC[C@H]([C@H]1O)O

>  <mulliken_charges>  (420) 
20
1   -0.177399
2   0.009358
3   -0.043376
4   0.125182
5   0.081004
6   -0.572493
7   -0.633161
8   -0.631483
9   -0.635877
10   0.153844
11   0.152233
12   0.130605
13   0.140281
14   0.139916
15   0.131742
16   0.132869
17   0.305668
18   0.397521
19   0.389594
20   0.403972

>  <lowdin_charges>  (420) 
20
1   -0.228577
2   -0.140444
3   -0.101195
4   -0.038577
5   -0.038444
6   -0.362499
7   -0.475942
8   -0.452243
9   -0.457528
10   0.156269
11   0.144829
12   0.133752
13   0.148276
14   0.149478
15   0.140264
16   0.140484
17   0.256864
18   0.338632
19   0.335872
20   0.350727

$$$$
PCCDB-ID:  1340
     RDKit          3D

 19 20  0  0  0  0  0  0  0  0999 V2000
    2.4581   -0.6635    0.0384 C   0  0  0  0  0  0  0  0  0  0  0  0
    1.2849   -1.3841    0.0546 C   0  0  0  0  0  0  0  0  0  0  0  0
    2.4377    0.7478    0.0044 C   0  0  0  0  0  0  0  0  0  0  0  0
   -1.2601    1.3697   -0.0189 C   0  0  0  0  0  0  0  0  0  0  0  0
   -2.3964    0.5981   -0.0041 C   0  0  0  0  0  0  0  0  0  0  0  0
   -0.0030    0.7144    0.0024 C   0  0  0  0  0  0  0  0  0  0  0  0
    0.0345   -0.7117    0.0388 C   0  0  0  0  0  0  0  0  0  0  0  0
    1.2350    1.4247   -0.0131 C   0  0  0  0  0  0  0  0  0  0  0  0
   -1.2430   -1.3763    0.0555 C   0  0  0  0  0  0  0  0  0  0  0  0
   -2.3971   -0.7583    0.0334 N   0  0  0  0  0  0  0  0  0  0  0  0
    1.1452    2.7865   -0.0478 O   0  0  0  0  0  0  0  0  0  0  0  0
   -1.3318   -2.7322    0.0959 O   0  0  0  0  0  0  0  0  0  0  0  0
    3.4141   -1.1785    0.0503 H   0  0  0  0  0  0  0  0  0  0  0  0
    1.3437   -2.4697    0.0774 H   0  0  0  0  0  0  0  0  0  0  0  0
    3.3737    1.3030   -0.0086 H   0  0  0  0  0  0  0  0  0  0  0  0
   -1.3122    2.4511   -0.0471 H   0  0  0  0  0  0  0  0  0  0  0  0
   -3.3810    1.0604   -0.0214 H   0  0  0  0  0  0  0  0  0  0  0  0
    2.0391    3.1626   -0.0529 H   0  0  0  0  0  0  0  0  0  0  0  0
   -0.4447   -3.1192    0.1244 H   0  0  0  0  0  0  0  0  0  0  0  0
  1 13  1  0
  1  2  2  0
  2 14  1  0
  3  1  1  0
  4  5  2  0
  4  6  1  0
  5 10  1  0
  6  7  2  0
  7  2  1  0
  7  9  1  0
  8  6  1  0
  8  3  2  0
  9 12  1  0
 10  9  2  0
 11  8  1  0
 12 19  1  0
 15  3  1  0
 16  4  1  0
 17  5  1  0
 18 11  1  0
M  END
>  <HBA>  (421) 
2

>  <HBD>  (421) 
2

>  <TPSA>  (421) 
53.09

>  <cid>  (421) 
1340

>  <dipole>  (421) 
5.13

>  <excitation_energy_1>  (421) 
4.079

>  <excitation_energy_2>  (421) 
4.368

>  <excitation_energy_3>  (421) 
4.737

>  <excitation_energy_4>  (421) 
4.804

>  <homo_energy>  (421) 
-5.649

>  <homo_lumo_gap>  (421) 
4.591

>  <logP>  (421) 
1.234

>  <lumo_energy>  (421) 
-1.059

>  <melting_point>  (421) 
171.34

>  <molecular_refractivity>  (421) 
46.59

>  <oscillator_strength_1>  (421) 
0.1007

>  <oscillator_strength_2>  (421) 
0.1186

>  <oscillator_strength_3>  (421) 
0.0008

>  <oscillator_strength_4>  (421) 
0.0016

>  <open_babel_can_smiles>  (421) 
Oc1cccc2c1ccnc2O

>  <mulliken_charges>  (421) 
19
1   -0.13804
2   -0.217006
3   -0.195485
4   -0.188441
5   0.023507
6   0.101999
7   0.08741
8   0.294458
9   0.422421
10   -0.461231
11   -0.63506
12   -0.596159
13   0.137529
14   0.116384
15   0.123934
16   0.151844
17   0.141699
18   0.412903
19   0.417332

>  <lowdin_charges>  (421) 
19
1   -0.146417
2   -0.182831
3   -0.213959
4   -0.19108
5   -0.086644
6   -0.004677
7   -0.047081
8   0.10725
9   0.137658
10   -0.163941
11   -0.369021
12   -0.353454
13   0.163096
14   0.148076
15   0.157461
16   0.172396
17   0.158078
18   0.361049
19   0.354039

$$$$
PCCDB-ID:  1342
     RDKit          3D

 32 34  0  0  0  0  0  0  0  0999 V2000
    2.4214    0.8931   -0.3517 C   0  0  0  0  0  0  0  0  0  0  0  0
    2.4986   -0.4865   -0.6516 C   0  0  0  0  0  0  0  0  0  0  0  0
   -2.3370    0.4433    0.5044 C   0  0  0  0  0  0  0  0  0  0  0  0
    1.2182    1.4459    0.0235 C   0  0  0  0  0  0  0  0  0  0  0  0
   -1.2137    1.2321    0.4461 C   0  0  0  0  0  0  0  0  0  0  0  0
    1.3848   -1.2892   -0.5294 C   0  0  0  0  0  0  0  0  0  0  0  0
   -2.2494   -0.9566    0.3290 C   0  0  0  0  0  0  0  0  0  0  0  0
   -0.9386   -4.3488    1.9608 C   0  0  0  0  0  0  0  0  0  0  0  0
   -2.8828   -4.4107    0.5342 C   0  0  0  0  0  0  0  0  0  0  0  0
   -0.0964   -3.7434    0.8317 C   0  0  0  0  0  0  0  0  0  0  0  0
   -2.0651   -3.7585   -0.5920 C   0  0  0  0  0  0  0  0  0  0  0  0
    0.0461    0.6505    0.1409 C   0  0  0  0  0  0  0  0  0  0  0  0
    0.1384   -0.7610   -0.0970 C   0  0  0  0  0  0  0  0  0  0  0  0
   -1.0393   -1.5808    0.0611 C   0  0  0  0  0  0  0  0  0  0  0  0
   -1.9782   -5.1976    1.3747 N   0  0  0  0  0  0  0  0  0  0  0  0
   -0.9195   -2.9780   -0.1198 N   0  0  0  0  0  0  0  0  0  0  0  0
    3.3066    1.5174   -0.4408 H   0  0  0  0  0  0  0  0  0  0  0  0
    3.4377   -0.9123   -0.9951 H   0  0  0  0  0  0  0  0  0  0  0  0
   -3.3059    0.8857    0.7217 H   0  0  0  0  0  0  0  0  0  0  0  0
    1.1411    2.5121    0.2240 H   0  0  0  0  0  0  0  0  0  0  0  0
   -1.2741    2.3047    0.6120 H   0  0  0  0  0  0  0  0  0  0  0  0
    1.4412   -2.3377   -0.7997 H   0  0  0  0  0  0  0  0  0  0  0  0
   -3.1492   -1.5510    0.4426 H   0  0  0  0  0  0  0  0  0  0  0  0
   -1.3497   -3.5270    2.5790 H   0  0  0  0  0  0  0  0  0  0  0  0
   -0.2989   -4.9646    2.6044 H   0  0  0  0  0  0  0  0  0  0  0  0
   -3.6320   -5.0807    0.0949 H   0  0  0  0  0  0  0  0  0  0  0  0
   -3.4246   -3.6334    1.1057 H   0  0  0  0  0  0  0  0  0  0  0  0
    0.3994   -4.5602    0.2887 H   0  0  0  0  0  0  0  0  0  0  0  0
    0.6733   -3.0913    1.2480 H   0  0  0  0  0  0  0  0  0  0  0  0
   -2.6963   -3.1203   -1.2160 H   0  0  0  0  0  0  0  0  0  0  0  0
   -1.6725   -4.5660   -1.2264 H   0  0  0  0  0  0  0  0  0  0  0  0
   -2.5054   -5.6610    2.1114 H   0  0  0  0  0  0  0  0  0  0  0  0
  1  4  2  0
  2  6  2  0
  2  1  1  0
  3 19  1  0
  4 12  1  0
  4 20  1  0
  5  3  1  0
  5 21  1  0
  6 13  1  0
  7 23  1  0
  7  3  2  0
  8 24  1  0
  8 25  1  0
  9 27  1  0
  9 15  1  0
 10 29  1  0
 10  8  1  0
 11 16  1  0
 11  9  1  0
 12  5  2  0
 13 14  2  0
 13 12  1  0
 14  7  1  0
 15  8  1  0
 15 32  1  0
 16 14  1  0
 16 10  1  0
 17  1  1  0
 18  2  1  0
 22  6  1  0
 26  9  1  0
 28 10  1  0
 30 11  1  0
 31 11  1  0
M  END
>  <HBA>  (422) 
2

>  <HBD>  (422) 
1

>  <TPSA>  (422) 
15.27

>  <cid>  (422) 
1342

>  <dipole>  (422) 
1.58

>  <excitation_energy_1>  (422) 
3.599

>  <excitation_energy_2>  (422) 
4.08

>  <excitation_energy_3>  (422) 
4.567

>  <excitation_energy_4>  (422) 
4.654

>  <homo_energy>  (422) 
-4.977

>  <homo_lumo_gap>  (422) 
4.223

>  <logP>  (422) 
2.643

>  <lumo_energy>  (422) 
-0.754

>  <melting_point>  (422) 
106.43

>  <molecular_refractivity>  (422) 
75.31

>  <oscillator_strength_1>  (422) 
0.1115

>  <oscillator_strength_2>  (422) 
0.0289

>  <oscillator_strength_3>  (422) 
0.0075

>  <oscillator_strength_4>  (422) 
0.0071

>  <open_babel_can_smiles>  (422) 
N1CCN(CC1)c1cccc2c1cccc2

>  <mulliken_charges>  (422) 
32
1   -0.132428
2   -0.137597
3   -0.143623
4   -0.197274
5   -0.192316
6   -0.193736
7   -0.191169
8   -0.138156
9   -0.142296
10   -0.144176
11   -0.135216
12   0.125744
13   0.088751
14   0.252611
15   -0.549837
16   -0.490861
17   0.126339
18   0.125571
19   0.12472
20   0.126316
21   0.122009
22   0.148348
23   0.123324
24   0.12145
25   0.138194
26   0.13822
27   0.121559
28   0.146389
29   0.158413
30   0.150999
31   0.150771
32   0.298957

>  <lowdin_charges>  (422) 
32
1   -0.160781
2   -0.163645
3   -0.154932
4   -0.156547
5   -0.174219
6   -0.158292
7   -0.206015
8   -0.219523
9   -0.221707
10   -0.204988
11   -0.206348
12   0.003384
13   -0.020211
14   0.048881
15   -0.370245
16   -0.147779
17   0.157351
18   0.156548
19   0.155928
20   0.1542
21   0.153271
22   0.16516
23   0.156361
24   0.122983
25   0.149886
26   0.148878
27   0.120027
28   0.1456
29   0.161524
30   0.157698
31   0.150457
32   0.257094

$$$$
PCCDB-ID:  1344
     RDKit          3D

 22 22  0  0  0  0  0  0  0  0999 V2000
   -0.4539   -1.0672    1.5553 C   0  0  0  0  0  0  0  0  0  0  0  0
    1.0335   -0.9966    1.1151 C   0  0  0  0  0  0  0  0  0  0  0  0
   -1.7427    0.2597   -2.3140 C   0  0  0  0  0  0  0  0  0  0  0  0
   -1.1247    0.1295    0.8187 C   0  0  0  0  0  0  0  0  0  0  0  0
    1.0872    0.2583    0.2016 C   0  0  0  0  0  0  0  0  0  0  0  0
   -0.5673   -0.3296   -1.5281 C   0  0  0  0  0  0  0  0  0  0  0  0
   -1.9941   -0.5439   -3.5168 N   0  0  0  0  0  0  0  0  0  0  0  0
   -0.2669    0.4653   -0.3303 N   0  0  0  0  0  0  0  0  0  0  0  0
   -0.5755   -0.9874    2.6405 H   0  0  0  0  0  0  0  0  0  0  0  0
   -0.9060   -2.0171    1.2520 H   0  0  0  0  0  0  0  0  0  0  0  0
    1.3182   -1.8958    0.5582 H   0  0  0  0  0  0  0  0  0  0  0  0
    1.7215   -0.9114    1.9628 H   0  0  0  0  0  0  0  0  0  0  0  0
   -1.5294    1.3254   -2.5034 H   0  0  0  0  0  0  0  0  0  0  0  0
   -2.6512    0.2255   -1.7002 H   0  0  0  0  0  0  0  0  0  0  0  0
   -1.1677    1.0025    1.4833 H   0  0  0  0  0  0  0  0  0  0  0  0
   -2.1471   -0.0823    0.4938 H   0  0  0  0  0  0  0  0  0  0  0  0
    1.8152    0.1802   -0.6115 H   0  0  0  0  0  0  0  0  0  0  0  0
    1.3559    1.1395    0.8002 H   0  0  0  0  0  0  0  0  0  0  0  0
    0.3218   -0.3094   -2.1722 H   0  0  0  0  0  0  0  0  0  0  0  0
   -0.7800   -1.3930   -1.3197 H   0  0  0  0  0  0  0  0  0  0  0  0
   -1.2312   -0.4108   -4.1804 H   0  0  0  0  0  0  0  0  0  0  0  0
   -2.8315   -0.2050   -3.9871 H   0  0  0  0  0  0  0  0  0  0  0  0
  1  9  1  0
  2  1  1  0
  2 12  1  0
  3 14  1  0
  3  6  1  0
  4 15  1  0
  4  1  1  0
  5 18  1  0
  5  2  1  0
  6 20  1  0
  6  8  1  0
  7  3  1  0
  8  5  1  0
  8  4  1  0
 10  1  1  0
 11  2  1  0
 13  3  1  0
 16  4  1  0
 17  5  1  0
 19  6  1  0
 21  7  1  0
 22  7  1  0
M  END
>  <HBA>  (423) 
2

>  <HBD>  (423) 
1

>  <TPSA>  (423) 
29.26

>  <cid>  (423) 
1344

>  <dipole>  (423) 
0.51

>  <excitation_energy_1>  (423) 
5.132

>  <excitation_energy_2>  (423) 
5.406

>  <excitation_energy_3>  (423) 
5.608

>  <excitation_energy_4>  (423) 
5.618

>  <homo_energy>  (423) 
-5.578

>  <homo_lumo_gap>  (423) 
7.674

>  <logP>  (423) 
0.679

>  <lumo_energy>  (423) 
2.095

>  <melting_point>  (423) 
52.9

>  <molecular_refractivity>  (423) 
38.36

>  <oscillator_strength_1>  (423) 
0.0205

>  <oscillator_strength_2>  (423) 
0.006

>  <oscillator_strength_3>  (423) 
0.0046

>  <oscillator_strength_4>  (423) 
0.0118

>  <open_babel_can_smiles>  (423) 
NCCN1CCCC1

>  <mulliken_charges>  (423) 
22
1   -0.284316
2   -0.283319
3   -0.137281
4   -0.15139
5   -0.143831
6   -0.115928
7   -0.720954
8   -0.380972
9   0.136798
10   0.143221
11   0.141054
12   0.136178
13   0.125013
14   0.137166
15   0.140873
16   0.140803
17   0.135715
18   0.139029
19   0.123831
20   0.130274
21   0.291266
22   0.296769

>  <lowdin_charges>  (423) 
22
1   -0.30066
2   -0.303224
3   -0.209035
4   -0.211184
5   -0.21016
6   -0.204778
7   -0.56234
8   -0.19104
9   0.145105
10   0.146493
11   0.145748
12   0.147006
13   0.122184
14   0.139967
15   0.14194
16   0.1458
17   0.14527
18   0.14052
19   0.138537
20   0.12617
21   0.251369
22   0.256312

$$$$
PCCDB-ID:  1366
     RDKit          3D

 23 23  0  0  0  0  0  0  0  0999 V2000
    0.6828    1.4049   -0.2507 C   0  0  0  0  0  0  0  0  0  0  0  0
    1.4891    0.1501    0.1144 C   0  0  0  0  0  0  0  0  0  0  0  0
   -0.7321    1.3494    0.3437 C   0  0  0  0  0  0  0  0  0  0  0  0
    0.7575   -1.1303   -0.3145 C   0  0  0  0  0  0  0  0  0  0  0  0
   -1.4699    0.0725   -0.0842 C   0  0  0  0  0  0  0  0  0  0  0  0
   -1.4099   -2.4573   -0.2889 C   0  0  0  0  0  0  0  0  0  0  0  0
   -0.6763   -1.2129    0.2773 C   0  0  0  0  0  0  0  0  0  0  0  0
   -0.5727   -1.2999    1.7339 N   0  0  0  0  0  0  0  0  0  0  0  0
   -1.8272   -3.3525    0.4051 O   0  0  0  0  0  0  0  0  0  0  0  0
   -1.5814   -2.5201   -1.6378 O   0  0  0  0  0  0  0  0  0  0  0  0
    0.6157    1.4907   -1.3466 H   0  0  0  0  0  0  0  0  0  0  0  0
    1.2045    2.3042    0.0991 H   0  0  0  0  0  0  0  0  0  0  0  0
    1.6489    0.1213    1.1977 H   0  0  0  0  0  0  0  0  0  0  0  0
    2.4778    0.1783   -0.3606 H   0  0  0  0  0  0  0  0  0  0  0  0
   -1.3136    2.2257    0.0309 H   0  0  0  0  0  0  0  0  0  0  0  0
   -0.6700    1.3734    1.4371 H   0  0  0  0  0  0  0  0  0  0  0  0
    1.3233   -2.0202   -0.0080 H   0  0  0  0  0  0  0  0  0  0  0  0
    0.7087   -1.1642   -1.4126 H   0  0  0  0  0  0  0  0  0  0  0  0
   -1.6470    0.1068   -1.1691 H   0  0  0  0  0  0  0  0  0  0  0  0
   -2.4622    0.0244    0.3837 H   0  0  0  0  0  0  0  0  0  0  0  0
   -0.1006   -2.1725    1.9725 H   0  0  0  0  0  0  0  0  0  0  0  0
   -1.5115   -1.4116    2.1178 H   0  0  0  0  0  0  0  0  0  0  0  0
   -1.1961   -1.7347   -2.0594 H   0  0  0  0  0  0  0  0  0  0  0  0
  1 12  1  0
  1  2  1  0
  1  3  1  0
  2 13  1  0
  3 16  1  0
  4 17  1  0
  4  2  1  0
  4  7  1  0
  5  7  1  0
  5  3  1  0
  5 20  1  0
  6  7  1  0
  6  9  2  0
  7  8  1  0
  8 21  1  0
  8 22  1  0
 10  6  1  0
 11  1  1  0
 14  2  1  0
 15  3  1  0
 18  4  1  0
 19  5  1  0
 23 10  1  0
M  END
>  <HBA>  (424) 
3

>  <HBD>  (424) 
2

>  <TPSA>  (424) 
63.32

>  <cid>  (424) 
1366

>  <dipole>  (424) 
3.33

>  <excitation_energy_1>  (424) 
5.552

>  <excitation_energy_2>  (424) 
5.842

>  <excitation_energy_3>  (424) 
5.923

>  <excitation_energy_4>  (424) 
6.388

>  <homo_energy>  (424) 
-6.754

>  <homo_lumo_gap>  (424) 
7.004

>  <logP>  (424) 
1.433

>  <lumo_energy>  (424) 
0.25

>  <melting_point>  (424) 
137.78

>  <molecular_refractivity>  (424) 
38.17

>  <oscillator_strength_1>  (424) 
0.0014

>  <oscillator_strength_2>  (424) 
0.0019

>  <oscillator_strength_3>  (424) 
0.0

>  <oscillator_strength_4>  (424) 
0.0193

>  <open_babel_can_smiles>  (424) 
OC(=O)C1(N)CCCCC1

>  <mulliken_charges>  (424) 
23
1   -0.264571
2   -0.250653
3   -0.250838
4   -0.272854
5   -0.272638
6   0.586233
7   0.055668
8   -0.702027
9   -0.45245
10   -0.573254
11   0.120381
12   0.138098
13   0.162005
14   0.132637
15   0.132663
16   0.162017
17   0.146864
18   0.114458
19   0.114595
20   0.146896
21   0.306838
22   0.306998
23   0.412935

>  <lowdin_charges>  (424) 
23
1   -0.275018
2   -0.274683
3   -0.276064
4   -0.277474
5   -0.276352
6   0.179297
7   0.011597
8   -0.526033
9   -0.247108
10   -0.358151
11   0.13065
12   0.148551
13   0.154341
14   0.144905
15   0.14611
16   0.154096
17   0.152218
18   0.13093
19   0.131229
20   0.151107
21   0.260996
22   0.26058
23   0.354277

$$$$
PCCDB-ID:  1367
     RDKit          3D

 16 17  0  0  0  0  0  0  0  0999 V2000
   -2.0957   -0.7704   -0.0026 C   0  0  0  0  0  0  0  0  0  0  0  0
   -2.1696    0.6443    0.0659 C   0  0  0  0  0  0  0  0  0  0  0  0
   -0.8789   -1.4289   -0.0715 C   0  0  0  0  0  0  0  0  0  0  0  0
   -1.0350    1.4415    0.0667 C   0  0  0  0  0  0  0  0  0  0  0  0
    0.2824   -0.6379   -0.0716 C   0  0  0  0  0  0  0  0  0  0  0  0
    0.1900    0.7652   -0.0038 C   0  0  0  0  0  0  0  0  0  0  0  0
    1.9629    2.4745    0.0177 N   0  0  0  0  0  0  0  0  0  0  0  0
    1.6171   -0.9946   -0.1293 N   0  0  0  0  0  0  0  0  0  0  0  0
    2.3322    0.0826   -0.1027 N   0  0  0  0  0  0  0  0  0  0  0  0
    1.4961    1.1632   -0.0272 N   0  0  0  0  0  0  0  0  0  0  0  0
   -3.0181   -1.3439   -0.0004 H   0  0  0  0  0  0  0  0  0  0  0  0
   -3.1471    1.1156    0.1196 H   0  0  0  0  0  0  0  0  0  0  0  0
   -0.8104   -2.5107   -0.1251 H   0  0  0  0  0  0  0  0  0  0  0  0
   -1.0822    2.5237    0.1180 H   0  0  0  0  0  0  0  0  0  0  0  0
    2.5284    2.6366   -0.8151 H   0  0  0  0  0  0  0  0  0  0  0  0
    2.5761    2.5637    0.8275 H   0  0  0  0  0  0  0  0  0  0  0  0
  1 11  1  0
  1  2  2  0
  2  4  1  0
  2 12  1  0
  3  1  1  0
  4 14  1  0
  5  3  2  0
  5  6  1  0
  6  4  2  0
  7 16  1  0
  8  9  2  0
  8  5  1  0
  9 10  1  0
 10  6  1  0
 10  7  1  0
 13  3  1  0
 15  7  1  0
M  END
>  <HBA>  (425) 
4

>  <HBD>  (425) 
1

>  <TPSA>  (425) 
56.73

>  <cid>  (425) 
1367

>  <dipole>  (425) 
2.92

>  <excitation_energy_1>  (425) 
4.685

>  <excitation_energy_2>  (425) 
4.774

>  <excitation_energy_3>  (425) 
5.118

>  <excitation_energy_4>  (425) 
5.854

>  <homo_energy>  (425) 
-6.433

>  <homo_lumo_gap>  (425) 
5.26

>  <logP>  (425) 
0.726

>  <lumo_energy>  (425) 
-1.173

>  <melting_point>  (425) 
123.61

>  <molecular_refractivity>  (425) 
37.67

>  <oscillator_strength_1>  (425) 
0.0727

>  <oscillator_strength_2>  (425) 
0.0042

>  <oscillator_strength_3>  (425) 
0.1095

>  <oscillator_strength_4>  (425) 
0.0042

>  <open_babel_can_smiles>  (425) 
Nn1nnc2c1cccc2

>  <mulliken_charges>  (425) 
16
1   -0.146688
2   -0.144198
3   -0.149692
4   -0.153428
5   0.22927
6   0.409767
7   -0.558439
8   -0.363698
9   -0.054296
10   -0.330302
11   0.135256
12   0.137245
13   0.150948
14   0.153746
15   0.342284
16   0.342224

>  <lowdin_charges>  (425) 
16
1   -0.167092
2   -0.145828
3   -0.141248
4   -0.168639
5   -0.015974
6   0.018148
7   -0.43398
8   -0.124855
9   -0.08277
10   0.038457
11   0.162046
12   0.161954
13   0.170133
14   0.170572
15   0.279576
16   0.2795

$$$$
PCCDB-ID:  1370
     RDKit          3D

 32 34  0  0  0  0  0  0  0  0999 V2000
    1.2882    0.9554   -0.6564 C   0  0  0  0  0  0  0  0  0  0  0  0
    1.0820   -0.5537   -0.8525 C   0  0  0  0  0  0  0  0  0  0  0  0
    0.2208    1.5314    0.2851 C   0  0  0  0  0  0  0  0  0  0  0  0
   -4.0798    0.2387    0.8478 C   0  0  0  0  0  0  0  0  0  0  0  0
   -5.1893    0.6263    1.6195 C   0  0  0  0  0  0  0  0  0  0  0  0
   -0.3550   -0.8497   -1.3009 C   0  0  0  0  0  0  0  0  0  0  0  0
   -1.2002    1.1686   -0.1801 C   0  0  0  0  0  0  0  0  0  0  0  0
   -3.1902   -1.1185    2.6716 C   0  0  0  0  0  0  0  0  0  0  0  0
   -5.8741   -0.4839    4.9661 C   0  0  0  0  0  0  0  0  0  0  0  0
   -3.0878   -0.6076    1.3580 C   0  0  0  0  0  0  0  0  0  0  0  0
   -5.2525    0.1358    2.9087 C   0  0  0  0  0  0  0  0  0  0  0  0
   -4.2729   -0.7157    3.4201 C   0  0  0  0  0  0  0  0  0  0  0  0
   -1.9613   -1.1364    0.5112 C   0  0  0  0  0  0  0  0  0  0  0  0
   -1.3425   -0.2785   -0.3769 N   0  0  0  0  0  0  0  0  0  0  0  0
   -1.6528   -2.3252    0.5906 O   0  0  0  0  0  0  0  0  0  0  0  0
   -6.2034    0.3774    3.8672 O   0  0  0  0  0  0  0  0  0  0  0  0
   -4.5773   -1.0359    4.7229 O   0  0  0  0  0  0  0  0  0  0  0  0
    1.2211    1.4607   -1.6318 H   0  0  0  0  0  0  0  0  0  0  0  0
    2.2922    1.1622   -0.2660 H   0  0  0  0  0  0  0  0  0  0  0  0
    1.2709   -1.0862    0.0886 H   0  0  0  0  0  0  0  0  0  0  0  0
    1.7862   -0.9484   -1.5958 H   0  0  0  0  0  0  0  0  0  0  0  0
    0.3082    2.6236    0.3510 H   0  0  0  0  0  0  0  0  0  0  0  0
    0.3688    1.1335    1.2984 H   0  0  0  0  0  0  0  0  0  0  0  0
   -4.0096    0.5831   -0.1790 H   0  0  0  0  0  0  0  0  0  0  0  0
   -5.9648    1.2716    1.2217 H   0  0  0  0  0  0  0  0  0  0  0  0
   -0.5395   -1.9220   -1.3591 H   0  0  0  0  0  0  0  0  0  0  0  0
   -0.5332   -0.4070   -2.2923 H   0  0  0  0  0  0  0  0  0  0  0  0
   -1.4185    1.6727   -1.1335 H   0  0  0  0  0  0  0  0  0  0  0  0
   -1.9347    1.5092    0.5486 H   0  0  0  0  0  0  0  0  0  0  0  0
   -2.4473   -1.8090    3.0528 H   0  0  0  0  0  0  0  0  0  0  0  0
   -6.6142   -1.2936    5.0284 H   0  0  0  0  0  0  0  0  0  0  0  0
   -5.8552    0.1003    5.8907 H   0  0  0  0  0  0  0  0  0  0  0  0
  1 19  1  0
  1  3  1  0
  2  1  1  0
  2 20  1  0
  3 22  1  0
  3 23  1  0
  4 10  2  0
  4  5  1  0
  5 11  2  0
  6  2  1  0
  6 14  1  0
  7  3  1  0
  7 29  1  0
  8 30  1  0
  8 12  2  0
  9 31  1  0
  9 32  1  0
 10  8  1  0
 11 12  1  0
 11 16  1  0
 12 17  1  0
 13 15  2  0
 13 10  1  0
 14  7  1  0
 14 13  1  0
 16  9  1  0
 17  9  1  0
 18  1  1  0
 21  2  1  0
 24  4  1  0
 25  5  1  0
 26  6  1  0
 27  6  1  0
 28  7  1  0
M  END
>  <HBA>  (426) 
4

>  <HBD>  (426) 
0

>  <TPSA>  (426) 
38.77

>  <cid>  (426) 
1370

>  <dipole>  (426) 
3.17

>  <excitation_energy_1>  (426) 
4.554

>  <excitation_energy_2>  (426) 
4.657

>  <excitation_energy_3>  (426) 
4.886

>  <excitation_energy_4>  (426) 
5.141

>  <homo_energy>  (426) 
-5.739

>  <homo_lumo_gap>  (426) 
5.195

>  <logP>  (426) 
1.979

>  <lumo_energy>  (426) 
-0.544

>  <melting_point>  (426) 
96.23

>  <molecular_refractivity>  (426) 
66.62

>  <oscillator_strength_1>  (426) 
0.1485

>  <oscillator_strength_2>  (426) 
0.007

>  <oscillator_strength_3>  (426) 
0.0305

>  <oscillator_strength_4>  (426) 
0.0681

>  <open_babel_can_smiles>  (426) 
O=C(c1ccc2c(c1)OCO2)N1CCCCC1

>  <mulliken_charges>  (426) 
32
1   -0.264237
2   -0.262985
3   -0.259104
4   -0.184955
5   -0.187151
6   -0.147369
7   -0.158602
8   -0.207633
9   0.191058
10   0.050456
11   0.339714
12   0.328916
13   0.518399
14   -0.426722
15   -0.519175
16   -0.528659
17   -0.530662
18   0.128666
19   0.139152
20   0.153381
21   0.136421
22   0.13672
23   0.142643
24   0.145429
25   0.147504
26   0.187478
27   0.134098
28   0.138768
29   0.167423
30   0.16648
31   0.158309
32   0.166241

>  <lowdin_charges>  (426) 
32
1   -0.279347
2   -0.28575
3   -0.282944
4   -0.162257
5   -0.18624
6   -0.199437
7   -0.203795
8   -0.164024
9   0.017987
10   -0.040749
11   0.076952
12   0.070786
13   0.153089
14   -0.112857
15   -0.311362
16   -0.202212
17   -0.205282
18   0.137403
19   0.146852
20   0.151238
21   0.14971
22   0.146429
23   0.144991
24   0.164734
25   0.172525
26   0.174217
27   0.138468
28   0.139861
29   0.166206
30   0.184962
31   0.144984
32   0.15486

$$$$
PCCDB-ID:  1374
     RDKit          3D

 24 24  0  0  1  0  0  0  0  0999 V2000
    0.6793    1.1851   -0.4349 C   0  0  0  0  0  0  0  0  0  0  0  0
   -2.8103    0.0320    0.3682 C   0  0  0  0  0  0  0  0  0  0  0  0
   -1.4048   -0.0498   -0.2117 C   0  0  2  0  0  0  0  0  0  0  0  0
    1.4558    0.0385    0.2279 C   0  0  2  0  0  0  0  0  0  0  0  0
   -0.6676   -1.3338    0.2335 C   0  0  1  0  0  0  0  0  0  0  0  0
    0.8170   -1.3003   -0.1944 C   0  0  2  0  0  0  0  0  0  0  0  0
   -0.6536    1.1541    0.1724 N   0  0  0  0  0  0  0  0  0  0  0  0
   -3.4177    1.2065   -0.1739 O   0  0  0  0  0  0  0  0  0  0  0  0
    1.3831    0.2162    1.6573 O   0  0  0  0  0  0  0  0  0  0  0  0
   -0.7470   -1.5873    1.6391 O   0  0  0  0  0  0  0  0  0  0  0  0
    1.5090   -2.4213    0.3167 O   0  0  0  0  0  0  0  0  0  0  0  0
    0.6696    1.0593   -1.5321 H   0  0  0  0  0  0  0  0  0  0  0  0
    1.1525    2.1469   -0.2082 H   0  0  0  0  0  0  0  0  0  0  0  0
   -2.7452    0.0782    1.4621 H   0  0  0  0  0  0  0  0  0  0  0  0
   -3.3740   -0.8726    0.0939 H   0  0  0  0  0  0  0  0  0  0  0  0
   -1.5014   -0.1099   -1.3135 H   0  0  0  0  0  0  0  0  0  0  0  0
    2.5138    0.0410   -0.0542 H   0  0  0  0  0  0  0  0  0  0  0  0
   -1.1598   -2.1903   -0.2407 H   0  0  0  0  0  0  0  0  0  0  0  0
    0.8788   -1.3659   -1.2892 H   0  0  0  0  0  0  0  0  0  0  0  0
   -1.2082    1.9721   -0.0668 H   0  0  0  0  0  0  0  0  0  0  0  0
   -4.2343    1.3774    0.3179 H   0  0  0  0  0  0  0  0  0  0  0  0
    0.6430    0.8499    1.7702 H   0  0  0  0  0  0  0  0  0  0  0  0
   -0.1069   -0.9759    2.0548 H   0  0  0  0  0  0  0  0  0  0  0  0
    1.1268   -2.5838    1.1972 H   0  0  0  0  0  0  0  0  0  0  0  0
  1 13  1  0
  1  7  1  0
  1  4  1  0
  2 14  1  0
  3 16  1  6
  3  7  1  0
  3  5  1  0
  3  2  1  0
  4 17  1  6
  4  9  1  0
  5 18  1  6
  5 10  1  0
  6 19  1  6
  6  4  1  0
  6  5  1  0
  6 11  1  0
  8 21  1  0
  8  2  1  0
  9 22  1  0
 10 23  1  0
 11 24  1  0
 12  1  1  0
 15  2  1  0
 20  7  1  0
M  END
>  <HBA>  (427) 
5

>  <HBD>  (427) 
5

>  <TPSA>  (427) 
92.95

>  <cid>  (427) 
1374

>  <dipole>  (427) 
3.67

>  <excitation_energy_1>  (427) 
5.904

>  <excitation_energy_2>  (427) 
6.187

>  <excitation_energy_3>  (427) 
6.256

>  <excitation_energy_4>  (427) 
6.45

>  <homo_energy>  (427) 
-6.588

>  <homo_lumo_gap>  (427) 
8.245

>  <logP>  (427) 
-2.638

>  <lumo_energy>  (427) 
1.657

>  <melting_point>  (427) 
97.67

>  <molecular_refractivity>  (427) 
40.21

>  <oscillator_strength_1>  (427) 
0.0007

>  <oscillator_strength_2>  (427) 
0.0112

>  <oscillator_strength_3>  (427) 
0.0081

>  <oscillator_strength_4>  (427) 
0.0154

>  <open_babel_can_smiles>  (427) 
OC[C@H]1NC[C@H]([C@H]([C@H]1O)O)O

>  <mulliken_charges>  (427) 
24
1   -0.180349
2   -0.034851
3   0.020885
4   0.13311
5   0.09632
6   0.111529
7   -0.611474
8   -0.633632
9   -0.657348
10   -0.65714
11   -0.632826
12   0.134379
13   0.155834
14   0.145942
15   0.129195
16   0.122429
17   0.146067
18   0.144206
19   0.126574
20   0.329853
21   0.400181
22   0.405887
23   0.405303
24   0.399927

>  <lowdin_charges>  (427) 
24
1   -0.221769
2   -0.137054
3   -0.084791
4   -0.022136
5   -0.025336
6   -0.037229
7   -0.37053
8   -0.477955
9   -0.476774
10   -0.476063
11   -0.453929
12   0.131059
13   0.153624
14   0.14028
15   0.13663
16   0.128017
17   0.151128
18   0.152432
19   0.141972
20   0.273001
21   0.350217
22   0.339703
23   0.341504
24   0.343999

$$$$
PCCDB-ID:  1383
     RDKit          3D

 25 24  0  0  0  0  0  0  0  0999 V2000
    2.6978    1.3386   -0.9604 C   0  0  0  0  0  0  0  0  0  0  0  0
    8.1856    2.8292    0.6133 C   0  0  0  0  0  0  0  0  0  0  0  0
    5.6713    0.2590   -0.6901 C   0  0  0  0  0  0  0  0  0  0  0  0
    4.3461   -0.2778   -0.1297 C   0  0  0  0  0  0  0  0  0  0  0  0
    6.3902    1.1564    0.3148 C   0  0  0  0  0  0  0  0  0  0  0  0
    3.4004    0.7927    0.1981 N   0  0  0  0  0  0  0  0  0  0  0  0
    8.9094    1.0736   -2.0257 N   0  0  0  0  0  2  0  0  0  0  0  0
    7.5589    1.8386   -0.2745 N   0  0  0  0  0  0  0  0  0  0  0  0
    8.4707    0.9615   -0.7892 N   0  0  0  0  0  0  0  0  0  0  0  0
    9.8679    0.3091   -2.2591 O   0  0  0  0  0  1  0  0  0  0  0  0
    9.1729    0.1193    0.0884 O   0  0  0  0  0  0  0  0  0  0  0  0
    1.9469    2.0597   -0.6215 H   0  0  0  0  0  0  0  0  0  0  0  0
    2.1927    0.5743   -1.5804 H   0  0  0  0  0  0  0  0  0  0  0  0
    3.3990    1.8771   -1.6068 H   0  0  0  0  0  0  0  0  0  0  0  0
    7.4376    3.5934    0.8398 H   0  0  0  0  0  0  0  0  0  0  0  0
    9.0181    3.2983    0.0835 H   0  0  0  0  0  0  0  0  0  0  0  0
    8.5504    2.3904    1.5524 H   0  0  0  0  0  0  0  0  0  0  0  0
    5.4994    0.8243   -1.6137 H   0  0  0  0  0  0  0  0  0  0  0  0
    6.3051   -0.5947   -0.9587 H   0  0  0  0  0  0  0  0  0  0  0  0
    4.5500   -0.8336    0.7945 H   0  0  0  0  0  0  0  0  0  0  0  0
    3.9263   -1.0029   -0.8525 H   0  0  0  0  0  0  0  0  0  0  0  0
    6.6810    0.5806    1.2085 H   0  0  0  0  0  0  0  0  0  0  0  0
    5.7085    1.9469    0.6398 H   0  0  0  0  0  0  0  0  0  0  0  0
    2.7141    0.4322    0.8563 H   0  0  0  0  0  0  0  0  0  0  0  0
    9.8449   -0.2256   -0.5668 H   0  0  0  0  0  0  0  0  0  0  0  0
  1 12  1  0
  1  6  1  0
  2 15  1  0
  2 17  1  0
  3  4  1  0
  3  5  1  0
  4  6  1  0
  4 20  1  0
  5 23  1  0
  5 22  1  0
  6 24  1  0
  7  9  1  0
  8  5  1  0
  8  2  1  0
  9  8  1  0
  9 11  1  0
 10  7  1  0
 13  1  1  0
 14  1  1  0
 16  2  1  0
 18  3  1  0
 19  3  1  0
 21  4  1  0
 25 11  1  0
M  RAD  2   7   2  10   2
M  END
>  <HBA>  (428) 
6

>  <HBD>  (428) 
2

>  <TPSA>  (428) 
68.17

>  <cid>  (428) 
1383

>  <dipole>  (428) 
4.07

>  <excitation_energy_1>  (428) 
3.914

>  <excitation_energy_2>  (428) 
4.485

>  <excitation_energy_3>  (428) 
4.821

>  <excitation_energy_4>  (428) 
5.402

>  <homo_energy>  (428) 
-6.212

>  <homo_lumo_gap>  (428) 
5.159

>  <logP>  (428) 
0.206

>  <lumo_energy>  (428) 
-1.053

>  <melting_point>  (428) 
79.51

>  <molecular_refractivity>  (428) 
40.21

>  <oscillator_strength_1>  (428) 
0.0016

>  <oscillator_strength_2>  (428) 
0.0012

>  <oscillator_strength_3>  (428) 
0.0001

>  <oscillator_strength_4>  (428) 
0.0014

>  <open_babel_can_smiles>  (428) 
CNCCCN(N([N][O])O)C

>  <mulliken_charges>  (428) 
25
1   -0.310416
2   -0.2993
3   -0.274491
4   -0.140741
5   -0.117728
6   -0.537684
7   0.163397
8   -0.276586
9   0.168357
10   -0.422972
11   -0.515816
12   0.150797
13   0.124398
14   0.159811
15   0.169432
16   0.17486
17   0.162281
18   0.157864
19   0.153164
20   0.135851
21   0.121741
22   0.142394
23   0.177679
24   0.29986
25   0.433848

>  <lowdin_charges>  (428) 
25
1   -0.367422
2   -0.359373
3   -0.289869
4   -0.204078
5   -0.205795
6   -0.367611
7   0.056901
8   -0.089964
9   0.121203
10   -0.312279
11   -0.393589
12   0.153488
13   0.124991
14   0.152208
15   0.164866
16   0.166921
17   0.14811
18   0.153968
19   0.154749
20   0.143705
21   0.125849
22   0.137493
23   0.166952
24   0.257961
25   0.360615

$$$$
PCCDB-ID:  1384
     RDKit          3D

 26 27  0  0  0  0  0  0  0  0999 V2000
    0.7894   -0.8637    1.0285 C   0  0  0  0  0  0  0  0  0  0  0  0
    5.0294   -4.8983   -1.9789 C   0  0  0  0  0  0  0  0  0  0  0  0
    6.1026   -4.5444   -2.7334 C   0  0  0  0  0  0  0  0  0  0  0  0
    3.1407   -4.2156   -0.5281 C   0  0  0  0  0  0  0  0  0  0  0  0
    3.8483   -1.5046   -0.8303 C   0  0  0  0  0  0  0  0  0  0  0  0
    6.2654   -0.8292   -2.5562 C   0  0  0  0  0  0  0  0  0  0  0  0
    4.2353   -3.9072   -1.3049 C   0  0  0  0  0  0  0  0  0  0  0  0
    4.6367   -2.5111   -1.4719 C   0  0  0  0  0  0  0  0  0  0  0  0
    5.7455   -2.2209   -2.2480 C   0  0  0  0  0  0  0  0  0  0  0  0
    2.3456   -3.2319    0.1646 C   0  0  0  0  0  0  0  0  0  0  0  0
    2.7601   -1.8160   -0.0603 C   0  0  0  0  0  0  0  0  0  0  0  0
    6.4423   -3.2208   -2.8605 N   0  0  0  0  0  0  0  0  0  0  0  0
    7.6291   -0.8543   -2.9800 O   0  0  0  0  0  0  0  0  0  0  0  0
    1.3917   -3.5277    0.9052 O   0  0  0  0  0  0  0  0  0  0  0  0
    2.1299   -0.7695    0.5218 O   0  0  0  0  0  0  0  0  0  0  0  0
    0.5007    0.1737    1.2193 H   0  0  0  0  0  0  0  0  0  0  0  0
    0.7473   -1.4524    1.9441 H   0  0  0  0  0  0  0  0  0  0  0  0
    0.1142   -1.3078    0.2928 H   0  0  0  0  0  0  0  0  0  0  0  0
    4.7655   -5.9463   -1.8839 H   0  0  0  0  0  0  0  0  0  0  0  0
    6.7339   -5.2510   -3.2585 H   0  0  0  0  0  0  0  0  0  0  0  0
    2.8419   -5.2503   -0.3836 H   0  0  0  0  0  0  0  0  0  0  0  0
    4.0923   -0.4529   -0.9447 H   0  0  0  0  0  0  0  0  0  0  0  0
    6.1260   -0.1700   -1.6927 H   0  0  0  0  0  0  0  0  0  0  0  0
    5.7069   -0.3950   -3.3936 H   0  0  0  0  0  0  0  0  0  0  0  0
    7.2564   -2.9291   -3.3897 H   0  0  0  0  0  0  0  0  0  0  0  0
    8.1842   -0.9368   -2.1881 H   0  0  0  0  0  0  0  0  0  0  0  0
  1 16  1  0
  1 17  1  0
  2 19  1  0
  2  7  1  0
  3  2  2  0
  4 21  1  0
  4 10  1  0
  5 11  2  0
  6  9  1  0
  6 23  1  0
  7  4  2  0
  8  7  1  0
  8  5  1  0
  9  8  2  0
 10 14  2  0
 11 10  1  0
 11 15  1  0
 12  3  1  0
 12  9  1  0
 13  6  1  0
 13 26  1  0
 15  1  1  0
 18  1  1  0
 20  3  1  0
 22  5  1  0
 24  6  1  0
 25 12  1  0
M  END
>  <HBA>  (429) 
3

>  <HBD>  (429) 
2

>  <TPSA>  (429) 
62.32

>  <cid>  (429) 
1384

>  <dipole>  (429) 
7.09

>  <excitation_energy_1>  (429) 
3.262

>  <excitation_energy_2>  (429) 
3.302

>  <excitation_energy_3>  (429) 
3.687

>  <excitation_energy_4>  (429) 
3.844

>  <homo_energy>  (429) 
-4.898

>  <homo_lumo_gap>  (429) 
3.57

>  <logP>  (429) 
1.029

>  <lumo_energy>  (429) 
-1.328

>  <melting_point>  (429) 
159.93

>  <molecular_refractivity>  (429) 
57.19

>  <oscillator_strength_1>  (429) 
0.0023

>  <oscillator_strength_2>  (429) 
0.1571

>  <oscillator_strength_3>  (429) 
0.0042

>  <oscillator_strength_4>  (429) 
0.0367

>  <open_babel_can_smiles>  (429) 
COc1cc2c(CO)[nH]ccc2cc1=O

>  <mulliken_charges>  (429) 
26
1   -0.19546
2   -0.233695
3   0.07433
4   -0.341163
5   -0.302743
6   -0.101012
7   0.221692
8   0.085511
9   0.232489
10   0.413486
11   0.332578
12   -0.645187
13   -0.617229
14   -0.569479
15   -0.517792
16   0.14112
17   0.182586
18   0.158732
19   0.148642
20   0.165509
21   0.123634
22   0.124427
23   0.170701
24   0.19181
25   0.350446
26   0.406065

>  <lowdin_charges>  (429) 
26
1   -0.270678
2   -0.176324
3   -0.112533
4   -0.242644
5   -0.219577
6   -0.138559
7   0.017762
8   -0.029974
9   0.020178
10   0.099982
11   0.086502
12   -0.164024
13   -0.457635
14   -0.329267
15   -0.195589
16   0.144514
17   0.164726
18   0.1547
19   0.170902
20   0.172936
21   0.160233
22   0.158454
23   0.159649
24   0.172603
25   0.299995
26   0.353669

$$$$
PCCDB-ID:  1388
     RDKit          3D

 28 29  0  0  0  0  0  0  0  0999 V2000
    0.9388    0.0709    0.7362 C   0  0  0  0  0  0  0  0  0  0  0  0
    6.3571   -0.0358    5.8510 C   0  0  0  0  0  0  0  0  0  0  0  0
    6.5059   -1.0570    4.9118 C   0  0  0  0  0  0  0  0  0  0  0  0
    5.4582    1.0016    5.5956 C   0  0  0  0  0  0  0  0  0  0  0  0
    5.7665   -1.0405    3.7294 C   0  0  0  0  0  0  0  0  0  0  0  0
    4.7203    1.0160    4.4137 C   0  0  0  0  0  0  0  0  0  0  0  0
    3.8241    1.2065    1.5583 C   0  0  0  0  0  0  0  0  0  0  0  0
    3.5537   -1.2575    1.6090 C   0  0  0  0  0  0  0  0  0  0  0  0
    2.9904    1.3119    0.2996 C   0  0  0  0  0  0  0  0  0  0  0  0
    3.0169   -1.0759    0.1751 C   0  0  0  0  0  0  0  0  0  0  0  0
    4.8663    0.0023    3.4487 C   0  0  0  0  0  0  0  0  0  0  0  0
    4.0874    0.0441    2.1821 C   0  0  0  0  0  0  0  0  0  0  0  0
    2.1951    0.1215   -0.0049 N   0  0  0  0  0  0  0  0  0  0  0  0
    0.3225    0.9341    0.4608 H   0  0  0  0  0  0  0  0  0  0  0  0
    1.0501    0.0728    1.8353 H   0  0  0  0  0  0  0  0  0  0  0  0
    0.3912   -0.8348    0.4515 H   0  0  0  0  0  0  0  0  0  0  0  0
    6.9289   -0.0521    6.7750 H   0  0  0  0  0  0  0  0  0  0  0  0
    7.2030   -1.8703    5.0971 H   0  0  0  0  0  0  0  0  0  0  0  0
    5.3200    1.7954    6.3253 H   0  0  0  0  0  0  0  0  0  0  0  0
    5.9117   -1.8391    3.0079 H   0  0  0  0  0  0  0  0  0  0  0  0
    4.0000    1.8102    4.2395 H   0  0  0  0  0  0  0  0  0  0  0  0
    4.2483    2.1340    1.9407 H   0  0  0  0  0  0  0  0  0  0  0  0
    4.3346   -2.0284    1.6005 H   0  0  0  0  0  0  0  0  0  0  0  0
    2.7679   -1.6476    2.2731 H   0  0  0  0  0  0  0  0  0  0  0  0
    3.6521    1.5202   -0.5577 H   0  0  0  0  0  0  0  0  0  0  0  0
    2.3145    2.1743    0.3684 H   0  0  0  0  0  0  0  0  0  0  0  0
    2.4341   -1.9546   -0.1262 H   0  0  0  0  0  0  0  0  0  0  0  0
    3.8646   -0.9974   -0.5185 H   0  0  0  0  0  0  0  0  0  0  0  0
  1 15  1  0
  2 17  1  0
  3 18  1  0
  3  2  2  0
  4  2  1  0
  4 19  1  0
  5  3  1  0
  6  4  2  0
  7 22  1  0
  7 12  2  0
  8 12  1  0
  8 24  1  0
  9 26  1  0
  9  7  1  0
 10  8  1  0
 11  5  2  0
 11  6  1  0
 12 11  1  0
 13 10  1  0
 13  9  1  0
 13  1  1  0
 14  1  1  0
 16  1  1  0
 20  5  1  0
 21  6  1  0
 23  8  1  0
 25  9  1  0
 27 10  1  0
 28 10  1  0
M  END
>  <HBA>  (430) 
1

>  <HBD>  (430) 
0

>  <TPSA>  (430) 
3.24

>  <cid>  (430) 
1388

>  <dipole>  (430) 
0.57

>  <excitation_energy_1>  (430) 
4.207

>  <excitation_energy_2>  (430) 
4.842

>  <excitation_energy_3>  (430) 
4.87

>  <excitation_energy_4>  (430) 
4.959

>  <homo_energy>  (430) 
-5.529

>  <homo_lumo_gap>  (430) 
5.08

>  <logP>  (430) 
2.343

>  <lumo_energy>  (430) 
-0.449

>  <melting_point>  (430) 
41.91

>  <molecular_refractivity>  (430) 
60.46

>  <oscillator_strength_1>  (430) 
0.0029

>  <oscillator_strength_2>  (430) 
0.0037

>  <oscillator_strength_3>  (430) 
0.0564

>  <oscillator_strength_4>  (430) 
0.203

>  <open_babel_can_smiles>  (430) 
CN1CCC(=CC1)c1ccccc1

>  <mulliken_charges>  (430) 
28
1   -0.303897
2   -0.128285
3   -0.132268
4   -0.133112
5   -0.18364
6   -0.175487
7   -0.185665
8   -0.346719
9   -0.175385
10   -0.147688
11   0.110598
12   0.104363
13   -0.36307
14   0.147966
15   0.130155
16   0.146313
17   0.127816
18   0.128113
19   0.12815
20   0.126166
21   0.128143
22   0.125105
23   0.144631
24   0.153635
25   0.152073
26   0.142451
27   0.136787
28   0.142751

>  <lowdin_charges>  (430) 
28
1   -0.357116
2   -0.159452
3   -0.156313
4   -0.157221
5   -0.165571
6   -0.16144
7   -0.196092
8   -0.295096
9   -0.20466
10   -0.205316
11   -0.001009
12   -0.019193
13   -0.185087
14   0.149687
15   0.124035
16   0.149408
17   0.156941
18   0.157257
19   0.157654
20   0.156224
21   0.158621
22   0.154943
23   0.153143
24   0.152889
25   0.150347
26   0.151376
27   0.145776
28   0.145262

$$$$
PCCDB-ID:  1390
     RDKit          3D

 12 12  0  0  0  0  0  0  0  0999 V2000
    0.9865   -0.0601    0.0790 C   0  0  0  0  0  0  0  0  0  0  0  0
    4.5410    0.5979    0.0696 C   0  0  0  0  0  0  0  0  0  0  0  0
    3.2549    1.0770    0.0779 C   0  0  0  0  0  0  0  0  0  0  0  0
    3.2750   -1.1225    0.0636 C   0  0  0  0  0  0  0  0  0  0  0  0
    4.5458   -0.7787    0.0606 N   0  0  0  0  0  0  0  0  0  0  0  0
    2.4401   -0.0390    0.0743 N   0  0  0  0  0  0  0  0  0  0  0  0
    0.6156    0.9662    0.0532 H   0  0  0  0  0  0  0  0  0  0  0  0
    0.6053   -0.5461    0.9832 H   0  0  0  0  0  0  0  0  0  0  0  0
    0.6030   -0.5912   -0.7982 H   0  0  0  0  0  0  0  0  0  0  0  0
    5.4625    1.1645    0.0689 H   0  0  0  0  0  0  0  0  0  0  0  0
    2.8447    2.0763    0.0861 H   0  0  0  0  0  0  0  0  0  0  0  0
    2.8943   -2.1362    0.0586 H   0  0  0  0  0  0  0  0  0  0  0  0
  1  8  1  0
  2  3  2  0
  3 11  1  0
  4  6  1  0
  5  4  2  0
  5  2  1  0
  6  3  1  0
  6  1  1  0
  7  1  1  0
  9  1  1  0
 10  2  1  0
 12  4  1  0
M  END
>  <HBA>  (431) 
2

>  <HBD>  (431) 
0

>  <TPSA>  (431) 
17.82

>  <cid>  (431) 
1390

>  <dipole>  (431) 
4.07

>  <excitation_energy_1>  (431) 
5.407

>  <excitation_energy_2>  (431) 
5.824

>  <excitation_energy_3>  (431) 
6.07

>  <excitation_energy_4>  (431) 
6.259

>  <homo_energy>  (431) 
-5.981

>  <homo_lumo_gap>  (431) 
6.841

>  <logP>  (431) 
0.42

>  <lumo_energy>  (431) 
0.86

>  <melting_point>  (431) 
20.98

>  <molecular_refractivity>  (431) 
23.49

>  <oscillator_strength_1>  (431) 
0.0043

>  <oscillator_strength_2>  (431) 
0.1063

>  <oscillator_strength_3>  (431) 
0.0143

>  <oscillator_strength_4>  (431) 
0.0022

>  <open_babel_can_smiles>  (431) 
Cn1cncc1

>  <mulliken_charges>  (431) 
12
1   -0.323876
2   -0.03906
3   0.007833
4   0.192633
5   -0.432982
6   -0.363636
7   0.175472
8   0.178596
9   0.178539
10   0.132515
11   0.146471
12   0.147494

>  <lowdin_charges>  (431) 
12
1   -0.345312
2   -0.159762
3   -0.177669
4   -0.108669
5   -0.186218
6   -0.009211
7   0.168617
8   0.164297
9   0.164967
10   0.160804
11   0.165641
12   0.162516

$$$$
PCCDB-ID:  1420
     RDKit          3D

 42 41  0  0  0  0  0  0  0  0999 V2000
    0.0110    8.3811    2.1566 C   0  0  0  0  0  0  0  0  0  0  0  0
    7.2607    5.2993    3.0636 C   0  0  0  0  0  0  0  0  0  0  0  0
    7.2267    4.8711    4.5375 C   0  0  0  0  0  0  0  0  0  0  0  0
    6.3793    4.4514    2.1289 C   0  0  0  0  0  0  0  0  0  0  0  0
    8.1798    5.6831    5.4246 C   0  0  0  0  0  0  0  0  0  0  0  0
    4.8635    4.5103    2.3898 C   0  0  0  0  0  0  0  0  0  0  0  0
    8.1547    5.2545    6.8971 C   0  0  0  0  0  0  0  0  0  0  0  0
    4.2317    5.8931    2.1744 C   0  0  0  0  0  0  0  0  0  0  0  0
    9.0992    6.0822    7.7783 C   0  0  0  0  0  0  0  0  0  0  0  0
    2.7082    5.8873    2.3553 C   0  0  0  0  0  0  0  0  0  0  0  0
    9.0854    5.6686    9.2538 C   0  0  0  0  0  0  0  0  0  0  0  0
    2.0801    7.2585    2.1408 C   0  0  0  0  0  0  0  0  0  0  0  0
    9.7613    4.3253    9.5154 C   0  0  0  0  0  0  0  0  0  0  0  0
   10.4197    3.7137    8.7124 O   0  0  0  0  0  0  0  0  0  0  0  0
    9.6045    3.8326   10.7770 O   0  0  0  0  0  0  0  0  0  0  0  0
    0.6815    7.1546    2.3378 O   0  0  0  0  0  0  0  0  0  0  0  0
   -1.0543    8.1961    2.3196 H   0  0  0  0  0  0  0  0  0  0  0  0
    0.1519    8.7795    1.1380 H   0  0  0  0  0  0  0  0  0  0  0  0
    0.3538    9.1461    2.8732 H   0  0  0  0  0  0  0  0  0  0  0  0
    8.2979    5.2411    2.7043 H   0  0  0  0  0  0  0  0  0  0  0  0
    6.9787    6.3589    2.9862 H   0  0  0  0  0  0  0  0  0  0  0  0
    7.4854    3.8043    4.6102 H   0  0  0  0  0  0  0  0  0  0  0  0
    6.2052    4.9642    4.9320 H   0  0  0  0  0  0  0  0  0  0  0  0
    6.7049    3.4035    2.1952 H   0  0  0  0  0  0  0  0  0  0  0  0
    6.5686    4.7614    1.0912 H   0  0  0  0  0  0  0  0  0  0  0  0
    7.9253    6.7512    5.3494 H   0  0  0  0  0  0  0  0  0  0  0  0
    9.2050    5.5864    5.0387 H   0  0  0  0  0  0  0  0  0  0  0  0
    4.6440    4.1674    3.4103 H   0  0  0  0  0  0  0  0  0  0  0  0
    4.3704    3.7907    1.7212 H   0  0  0  0  0  0  0  0  0  0  0  0
    8.4320    4.1958    6.9718 H   0  0  0  0  0  0  0  0  0  0  0  0
    7.1274    5.3407    7.2834 H   0  0  0  0  0  0  0  0  0  0  0  0
    4.4804    6.2495    1.1635 H   0  0  0  0  0  0  0  0  0  0  0  0
    4.6746    6.6188    2.8708 H   0  0  0  0  0  0  0  0  0  0  0  0
    8.8263    7.1438    7.7126 H   0  0  0  0  0  0  0  0  0  0  0  0
   10.1249    5.9915    7.4024 H   0  0  0  0  0  0  0  0  0  0  0  0
    2.4502    5.5398    3.3644 H   0  0  0  0  0  0  0  0  0  0  0  0
    2.2481    5.1791    1.6538 H   0  0  0  0  0  0  0  0  0  0  0  0
    8.0543    5.6303    9.6357 H   0  0  0  0  0  0  0  0  0  0  0  0
    9.6091    6.4171    9.8669 H   0  0  0  0  0  0  0  0  0  0  0  0
    2.2958    7.6253    1.1211 H   0  0  0  0  0  0  0  0  0  0  0  0
    2.5109    7.9942    2.8440 H   0  0  0  0  0  0  0  0  0  0  0  0
    9.0489    4.4338   11.3004 H   0  0  0  0  0  0  0  0  0  0  0  0
  1 17  1  0
  1 16  1  0
  1 19  1  0
  2  3  1  0
  3 22  1  0
  3 23  1  0
  3  5  1  0
  4 24  1  0
  4  6  1  0
  4  2  1  0
  5  7  1  0
  6 28  1  0
  7 30  1  0
  7 31  1  0
  7  9  1  0
  8 10  1  0
  8  6  1  0
  8 33  1  0
  9 11  1  0
 10 36  1  0
 11 13  1  0
 11 38  1  0
 11 39  1  0
 12 16  1  0
 12 10  1  0
 12 41  1  0
 13 15  1  0
 14 13  2  0
 15 42  1  0
 18  1  1  0
 20  2  1  0
 21  2  1  0
 25  4  1  0
 26  5  1  0
 27  5  1  0
 29  6  1  0
 32  8  1  0
 34  9  1  0
 35  9  1  0
 37 10  1  0
 40 12  1  0
M  END
>  <HBA>  (432) 
3

>  <HBD>  (432) 
1

>  <TPSA>  (432) 
46.53

>  <cid>  (432) 
1420

>  <dipole>  (432) 
4.24

>  <excitation_energy_1>  (432) 
5.721

>  <excitation_energy_2>  (432) 
6.335

>  <excitation_energy_3>  (432) 
6.4

>  <excitation_energy_4>  (432) 
6.497

>  <homo_energy>  (432) 
-6.806

>  <homo_lumo_gap>  (432) 
7.086

>  <logP>  (432) 
3.618

>  <lumo_energy>  (432) 
0.28

>  <melting_point>  (432) 
37.0

>  <molecular_refractivity>  (432) 
67.46

>  <oscillator_strength_1>  (432) 
0.0005

>  <oscillator_strength_2>  (432) 
0.0

>  <oscillator_strength_3>  (432) 
0.0145

>  <oscillator_strength_4>  (432) 
0.0252

>  <open_babel_can_smiles>  (432) 
COCCCCCCCCCCCC(=O)O

>  <mulliken_charges>  (432) 
42
1   -0.189241
2   -0.257373
3   -0.255615
4   -0.258688
5   -0.25492
6   -0.255117
7   -0.261418
8   -0.263605
9   -0.248097
10   -0.270403
11   -0.405354
12   -0.004286
13   0.609046
14   -0.438394
15   -0.566843
16   -0.462891
17   0.156324
18   0.127126
19   0.126269
20   0.129466
21   0.129393
22   0.132163
23   0.129636
24   0.12902
25   0.126256
26   0.123256
27   0.135061
28   0.133736
29   0.13001
30   0.158492
31   0.119778
32   0.128346
33   0.132323
34   0.130115
35   0.161017
36   0.142644
37   0.143838
38   0.15376
39   0.172025
40   0.113446
41   0.111665
42   0.408034

>  <lowdin_charges>  (432) 
42
1   -0.278052
2   -0.275404
3   -0.273939
4   -0.273727
5   -0.269921
6   -0.277228
7   -0.27628
8   -0.277381
9   -0.267683
10   -0.280006
11   -0.325684
12   -0.12849
13   0.199454
14   -0.239176
15   -0.363084
16   -0.272711
17   0.15212
18   0.128996
19   0.130245
20   0.140564
21   0.135753
22   0.138523
23   0.136636
24   0.140022
25   0.138652
26   0.133523
27   0.140498
28   0.138893
29   0.143422
30   0.15139
31   0.132347
32   0.137179
33   0.139789
34   0.142028
35   0.156767
36   0.146558
37   0.148864
38   0.154535
39   0.169181
40   0.121496
41   0.122638
42   0.358694

$$$$
PCCDB-ID:  1465
     RDKit          3D

 27 28  0  0  1  0  0  0  0  0999 V2000
    0.7751   -0.2111   -0.5770 C   0  0  0  0  0  0  0  0  0  0  0  0
    6.4875   -0.0169    2.1055 C   0  0  0  0  0  0  0  0  0  0  0  0
    5.3342   -0.1976    1.3975 C   0  0  0  0  0  0  0  0  0  0  0  0
    3.7368    0.7043   -1.5890 C   0  0  0  0  0  0  0  0  0  0  0  0
    2.0596    0.2769    0.0816 C   0  0  2  0  0  0  0  0  0  0  0  0
    2.7600    1.4442   -0.6637 C   0  0  2  0  0  0  0  0  0  0  0  0
    7.6900    0.0472    1.3366 C   0  0  0  0  0  0  0  0  0  0  0  0
    4.1255   -0.5227   -0.7593 C   0  0  1  0  0  0  0  0  0  0  0  0
    6.5953   -0.2601   -0.6836 C   0  0  0  0  0  0  0  0  0  0  0  0
    7.7451   -0.0682    0.0383 N   0  0  0  0  0  0  0  0  0  0  0  0
    5.3586   -0.2881    0.0495 N   0  0  0  0  0  0  0  0  0  0  0  0
    1.8899    2.3611   -1.2960 O   0  0  0  0  0  0  0  0  0  0  0  0
    8.8799    0.2336    1.9509 O   0  0  0  0  0  0  0  0  0  0  0  0
    6.5445   -0.4013   -1.8977 O   0  0  0  0  0  0  0  0  0  0  0  0
    3.0382   -0.7927    0.1014 O   0  0  0  0  0  0  0  0  0  0  0  0
    0.0061    0.5671   -0.5325 H   0  0  0  0  0  0  0  0  0  0  0  0
    0.4021   -1.0975   -0.0555 H   0  0  0  0  0  0  0  0  0  0  0  0
    0.9375   -0.4890   -1.6258 H   0  0  0  0  0  0  0  0  0  0  0  0
    6.4746    0.0529    3.1872 H   0  0  0  0  0  0  0  0  0  0  0  0
    4.3590   -0.2935    1.8587 H   0  0  0  0  0  0  0  0  0  0  0  0
    4.5978    1.2940   -1.9013 H   0  0  0  0  0  0  0  0  0  0  0  0
    3.2158    0.3693   -2.4956 H   0  0  0  0  0  0  0  0  0  0  0  0
    1.8521    0.5408    1.1252 H   0  0  0  0  0  0  0  0  0  0  0  0
    3.3189    2.0471    0.0593 H   0  0  0  0  0  0  0  0  0  0  0  0
    4.3371   -1.3997   -1.3733 H   0  0  0  0  0  0  0  0  0  0  0  0
    1.4812    1.9143   -2.0542 H   0  0  0  0  0  0  0  0  0  0  0  0
    8.7386    0.3115    2.9076 H   0  0  0  0  0  0  0  0  0  0  0  0
  1 16  1  0
  1 17  1  0
  1  5  1  0
  2 19  1  0
  3 20  1  0
  3  2  2  0
  4  8  1  0
  4  6  1  0
  5 15  1  0
  5 23  1  1
  6 24  1  1
  6  5  1  0
  7 13  1  0
  7  2  1  0
  8 25  1  6
  8 11  1  0
  8 15  1  0
  9 10  1  0
  9 11  1  0
 10  7  2  0
 11  3  1  0
 12  6  1  0
 13 27  1  0
 14  9  2  0
 18  1  1  0
 21  4  1  0
 22  4  1  0
 26 12  1  0
M  END
>  <HBA>  (433) 
5

>  <HBD>  (433) 
2

>  <TPSA>  (433) 
84.32

>  <cid>  (433) 
1465

>  <dipole>  (433) 
6.33

>  <excitation_energy_1>  (433) 
4.64

>  <excitation_energy_2>  (433) 
4.779

>  <excitation_energy_3>  (433) 
5.131

>  <excitation_energy_4>  (433) 
5.457

>  <homo_energy>  (433) 
-6.37

>  <homo_lumo_gap>  (433) 
5.306

>  <logP>  (433) 
-0.795

>  <lumo_energy>  (433) 
-1.064

>  <melting_point>  (433) 
153.23

>  <molecular_refractivity>  (433) 
51.95

>  <oscillator_strength_1>  (433) 
0.0996

>  <oscillator_strength_2>  (433) 
0.0009

>  <oscillator_strength_3>  (433) 
0.0008

>  <oscillator_strength_4>  (433) 
0.0085

>  <open_babel_can_smiles>  (433) 
O[C@@H]1C[C@H](O[C@@H]1C)n1ccc(nc1=O)O

>  <mulliken_charges>  (433) 
27
1   -0.474544
2   -0.267352
3   0.11997
4   -0.333318
5   0.13451
6   0.104446
7   0.526092
8   0.289212
9   0.714895
10   -0.514975
11   -0.499302
12   -0.61675
13   -0.578537
14   -0.525315
15   -0.52066
16   0.16243
17   0.170001
18   0.142933
19   0.140448
20   0.193033
21   0.20192
22   0.147248
23   0.140113
24   0.152314
25   0.183592
26   0.394378
27   0.413215

>  <lowdin_charges>  (433) 
27
1   -0.460929
2   -0.284782
3   -0.046929
4   -0.30899
5   -0.012107
6   -0.023963
7   0.162345
8   0.06847
9   0.166962
10   -0.195361
11   -0.062372
12   -0.440733
13   -0.331096
14   -0.303894
15   -0.264179
16   0.162943
17   0.167638
18   0.147081
19   0.166601
20   0.184745
21   0.18394
22   0.155378
23   0.142193
24   0.153532
25   0.169047
26   0.345402
27   0.359056

$$$$
PCCDB-ID:  1468
     RDKit          3D

 28 30  0  0  1  0  0  0  0  0999 V2000
    1.1212    0.4220    0.2088 C   0  0  0  0  0  0  0  0  0  0  0  0
    1.0029   -0.8456   -0.1854 C   0  0  0  0  0  0  0  0  0  0  0  0
   -1.2603   -1.1668    3.9662 C   0  0  0  0  0  0  0  0  0  0  0  0
   -0.6744    2.7567    2.1862 C   0  0  0  0  0  0  0  0  0  0  0  0
   -0.2214    1.1184    0.2978 C   0  0  1  0  0  0  0  0  0  0  0  0
   -0.4321   -1.2497   -0.3905 C   0  0  1  0  0  0  0  0  0  0  0  0
   -1.1045    1.4875    3.8239 C   0  0  0  0  0  0  0  0  0  0  0  0
   -1.2026    0.1140   -0.3767 C   0  0  2  0  0  0  0  0  0  0  0  0
   -1.4360    0.8632    5.0444 C   0  0  0  0  0  3  0  0  0  0  0  0
   -0.8666    0.6350    2.7391 C   0  0  0  0  0  0  0  0  0  0  0  0
   -1.6587    1.5718    6.1811 N   0  0  0  0  0  0  0  0  0  0  0  0
   -1.5110   -0.4788    5.0913 N   0  0  0  0  0  0  0  0  0  0  0  0
   -0.9344   -0.7059    2.7550 N   0  0  0  0  0  2  0  0  0  0  0  0
   -0.9810    2.8157    3.4597 N   0  0  0  0  0  0  0  0  0  0  0  0
   -0.5859    1.4745    1.6770 N   0  0  0  0  0  0  0  0  0  0  0  0
   -0.5868   -1.9229   -1.6498 O   0  0  0  0  0  0  0  0  0  0  0  0
   -1.4516    0.5447   -1.6988 O   0  0  0  0  0  0  0  0  0  0  0  0
    2.0478    0.9243    0.4704 H   0  0  0  0  0  0  0  0  0  0  0  0
    1.8168   -1.5519   -0.3164 H   0  0  0  0  0  0  0  0  0  0  0  0
   -1.3382   -2.2485    4.0576 H   0  0  0  0  0  0  0  0  0  0  0  0
   -0.4989    3.6142    1.5482 H   0  0  0  0  0  0  0  0  0  0  0  0
   -0.2463    2.0575   -0.2641 H   0  0  0  0  0  0  0  0  0  0  0  0
   -0.7673   -1.8908    0.4327 H   0  0  0  0  0  0  0  0  0  0  0  0
   -2.1439    0.0525    0.1842 H   0  0  0  0  0  0  0  0  0  0  0  0
   -1.7923    2.5697    6.1114 H   0  0  0  0  0  0  0  0  0  0  0  0
   -2.0642    1.0824    6.9654 H   0  0  0  0  0  0  0  0  0  0  0  0
   -1.3782   -2.4810   -1.5926 H   0  0  0  0  0  0  0  0  0  0  0  0
   -1.2101   -0.2148   -2.2650 H   0  0  0  0  0  0  0  0  0  0  0  0
  1  5  1  0
  1 18  1  0
  2  1  2  0
  3 20  1  0
  3 12  2  0
  4 14  2  0
  5 22  1  6
  5 15  1  0
  6  8  1  0
  6  2  1  0
  6 23  1  1
  7  9  1  0
  8 24  1  1
  8  5  1  0
  9 12  1  0
  9 11  1  0
 10 13  1  0
 10  7  2  0
 11 26  1  0
 13  3  1  0
 14  7  1  0
 15  4  1  0
 15 10  1  0
 16 27  1  0
 16  6  1  0
 17  8  1  0
 19  2  1  0
 21  4  1  0
 25 11  1  0
 28 17  1  0
M  RAD  2   9   2  13   2
M  END
>  <HBA>  (434) 
7

>  <HBD>  (434) 
3

>  <TPSA>  (434) 
110.08

>  <cid>  (434) 
1468

>  <dipole>  (434) 
0.53

>  <excitation_energy_1>  (434) 
4.83

>  <excitation_energy_2>  (434) 
4.987

>  <excitation_energy_3>  (434) 
5.027

>  <excitation_energy_4>  (434) 
5.206

>  <homo_energy>  (434) 
-5.924

>  <homo_lumo_gap>  (434) 
5.412

>  <logP>  (434) 
-0.178

>  <lumo_energy>  (434) 
-0.512

>  <melting_point>  (434) 
214.44

>  <molecular_refractivity>  (434) 
59.95

>  <oscillator_strength_1>  (434) 
0.1071

>  <oscillator_strength_2>  (434) 
0.0065

>  <oscillator_strength_3>  (434) 
0.0918

>  <oscillator_strength_4>  (434) 
0.0528

>  <open_babel_can_smiles>  (434) 
O[C@H]1C=C[C@@H]([C@H]1O)n1cnc2c1[N]C=N[C]2N

>  <mulliken_charges>  (434) 
28
1   -0.090564
2   -0.089044
3   0.16284
4   0.217247
5   -0.052072
6   0.045596
7   0.187478
8   0.114939
9   0.4878
10   0.527507
11   -0.775517
12   -0.509945
13   -0.515494
14   -0.531105
15   -0.489647
16   -0.635294
17   -0.653998
18   0.144299
19   0.149351
20   0.140948
21   0.165217
22   0.173723
23   0.175599
24   0.136695
25   0.354642
26   0.343515
27   0.405516
28   0.409769

>  <lowdin_charges>  (434) 
28
1   -0.163934
2   -0.14888
3   -0.036185
4   -0.067771
5   -0.059444
6   -0.030271
7   -0.059732
8   -0.017411
9   0.118644
10   0.056385
11   -0.439456
12   -0.221276
13   -0.210939
14   -0.194315
15   -0.021468
16   -0.454139
17   -0.469385
18   0.164104
19   0.1684
20   0.153197
21   0.172122
22   0.168001
23   0.161497
24   0.140036
25   0.297692
26   0.295478
27   0.353486
28   0.345565

$$$$
PCCDB-ID:  1472
     RDKit          3D

 24 24  0  0  1  0  0  0  0  0999 V2000
    1.6158    0.3294    0.0294 C   0  0  0  0  0  0  0  0  0  0  0  0
   -0.6257    3.0651    3.0052 C   0  0  0  0  0  0  0  0  0  0  0  0
    0.5922    1.1827    0.7645 C   0  0  2  0  0  0  0  0  0  0  0  0
    0.6518    3.1254    2.1541 C   0  0  2  0  0  0  0  0  0  0  0  0
    0.0167    2.3564   -0.0730 C   0  0  2  0  0  0  0  0  0  0  0  0
    0.4483    3.6206    0.7053 C   0  0  1  0  0  0  0  0  0  0  0  0
    1.1878    1.7572    2.0007 N   0  0  0  0  0  0  0  0  0  0  0  0
    2.7381    1.1611   -0.2731 O   0  0  0  0  0  0  0  0  0  0  0  0
   -0.3411    2.4309    4.2393 O   0  0  0  0  0  0  0  0  0  0  0  0
   -1.3977    2.2298   -0.1260 O   0  0  0  0  0  0  0  0  0  0  0  0
   -0.5481    4.6225    0.5124 O   0  0  0  0  0  0  0  0  0  0  0  0
    1.1599   -0.0762   -0.8856 H   0  0  0  0  0  0  0  0  0  0  0  0
    1.9157   -0.5156    0.6674 H   0  0  0  0  0  0  0  0  0  0  0  0
   -1.4206    2.5451    2.4502 H   0  0  0  0  0  0  0  0  0  0  0  0
   -0.9861    4.0746    3.2285 H   0  0  0  0  0  0  0  0  0  0  0  0
   -0.2549    0.5380    1.0266 H   0  0  0  0  0  0  0  0  0  0  0  0
    1.3896    3.7259    2.7007 H   0  0  0  0  0  0  0  0  0  0  0  0
    0.4327    2.3710   -1.0904 H   0  0  0  0  0  0  0  0  0  0  0  0
    1.4158    3.9572    0.3064 H   0  0  0  0  0  0  0  0  0  0  0  0
    2.1945    1.8145    1.8563 H   0  0  0  0  0  0  0  0  0  0  0  0
    3.4169    0.6151   -0.6966 H   0  0  0  0  0  0  0  0  0  0  0  0
    0.2154    1.6690    3.9872 H   0  0  0  0  0  0  0  0  0  0  0  0
   -1.7464    3.1330   -0.2262 H   0  0  0  0  0  0  0  0  0  0  0  0
   -0.2404    5.4516    0.9063 H   0  0  0  0  0  0  0  0  0  0  0  0
  1 13  1  0
  1  3  1  0
  2 15  1  0
  2  9  1  0
  3 16  1  1
  3  7  1  0
  4 17  1  1
  4  2  1  0
  5 18  1  6
  5  6  1  0
  5  3  1  0
  6 19  1  6
  6  4  1  0
  7  4  1  0
  8  1  1  0
 10  5  1  0
 11  6  1  0
 11 24  1  0
 12  1  1  0
 14  2  1  0
 20  7  1  0
 21  8  1  0
 22  9  1  0
 23 10  1  0
M  END
>  <HBA>  (435) 
5

>  <HBD>  (435) 
5

>  <TPSA>  (435) 
92.95

>  <cid>  (435) 
1472

>  <dipole>  (435) 
4.41

>  <excitation_energy_1>  (435) 
5.418

>  <excitation_energy_2>  (435) 
5.567

>  <excitation_energy_3>  (435) 
6.056

>  <excitation_energy_4>  (435) 
6.091

>  <homo_energy>  (435) 
-6.248

>  <homo_lumo_gap>  (435) 
7.538

>  <logP>  (435) 
-2.638

>  <lumo_energy>  (435) 
1.29

>  <melting_point>  (435) 
97.67

>  <molecular_refractivity>  (435) 
40.21

>  <oscillator_strength_1>  (435) 
0.0022

>  <oscillator_strength_2>  (435) 
0.0127

>  <oscillator_strength_3>  (435) 
0.0019

>  <oscillator_strength_4>  (435) 
0.001

>  <open_babel_can_smiles>  (435) 
OC[C@H]1N[C@@H]([C@H]([C@H]1O)O)CO

>  <mulliken_charges>  (435) 
24
1   -0.080484
2   -0.002949
3   0.034809
4   -0.067848
5   0.11029
6   0.119162
7   -0.600997
8   -0.627656
9   -0.636697
10   -0.648082
11   -0.651226
12   0.142884
13   0.13831
14   0.139415
15   0.125918
16   0.165559
17   0.13044
18   0.13319
19   0.131729
20   0.321671
21   0.40192
22   0.398631
23   0.416178
24   0.405835

>  <lowdin_charges>  (435) 
24
1   -0.144372
2   -0.14859
3   -0.082441
4   -0.112458
5   -0.01993
6   -0.038111
7   -0.36285
8   -0.480814
9   -0.477688
10   -0.46406
11   -0.46313
12   0.141562
13   0.137743
14   0.13843
15   0.139158
16   0.161084
17   0.143378
18   0.136074
19   0.139042
20   0.261738
21   0.352406
22   0.338975
23   0.349407
24   0.355446

$$$$
PCCDB-ID:  1520
     RDKit          3D

 23 22  0  0  0  0  0  0  0  0999 V2000
    0.4751   -0.4273   -0.5434 C   0  0  0  0  0  0  0  0  0  0  0  0
    1.8844    0.1155   -0.2850 C   0  0  0  0  0  0  0  0  0  0  0  0
    2.7082    0.2830   -1.5675 C   0  0  0  0  0  0  0  0  0  0  0  0
    4.1136    0.8321   -1.3138 C   0  0  0  0  0  0  0  0  0  0  0  0
    6.2128    1.4766   -2.3744 C   0  0  0  0  0  0  0  0  0  0  0  0
    6.9534    1.6050   -3.7047 C   0  0  0  0  0  0  0  0  0  0  0  0
    4.8762    0.9331   -2.5559 N   0  0  0  0  0  0  0  0  0  0  0  0
    6.2028    2.8138   -4.8838 S   0  0  0  0  0  0  0  0  0  0  0  0
   -0.0883   -0.5380    0.3902 H   0  0  0  0  0  0  0  0  0  0  0  0
    0.5119   -1.4100   -1.0293 H   0  0  0  0  0  0  0  0  0  0  0  0
   -0.0942    0.2436   -1.1984 H   0  0  0  0  0  0  0  0  0  0  0  0
    2.4152   -0.5599    0.4009 H   0  0  0  0  0  0  0  0  0  0  0  0
    1.8141    1.0824    0.2332 H   0  0  0  0  0  0  0  0  0  0  0  0
    2.1752    0.9575   -2.2551 H   0  0  0  0  0  0  0  0  0  0  0  0
    2.7973   -0.6801   -2.0869 H   0  0  0  0  0  0  0  0  0  0  0  0
    4.6550    0.1515   -0.6411 H   0  0  0  0  0  0  0  0  0  0  0  0
    4.0414    1.8006   -0.7779 H   0  0  0  0  0  0  0  0  0  0  0  0
    6.2253    2.4562   -1.8533 H   0  0  0  0  0  0  0  0  0  0  0  0
    6.7820    0.7832   -1.7382 H   0  0  0  0  0  0  0  0  0  0  0  0
    6.9214    0.6493   -4.2358 H   0  0  0  0  0  0  0  0  0  0  0  0
    8.0013    1.8728   -3.5440 H   0  0  0  0  0  0  0  0  0  0  0  0
    4.3734    1.5300   -3.2132 H   0  0  0  0  0  0  0  0  0  0  0  0
    6.4522    3.9212   -4.1497 H   0  0  0  0  0  0  0  0  0  0  0  0
  1  2  1  0
  1  9  1  0
  2 13  1  0
  2 12  1  0
  3  4  1  0
  3  2  1  0
  4 17  1  0
  4 16  1  0
  5 18  1  0
  5 19  1  0
  6 21  1  0
  6  5  1  0
  7  5  1  0
  7  4  1  0
  8 23  1  0
  8  6  1  0
 10  1  1  0
 11  1  1  0
 14  3  1  0
 15  3  1  0
 20  6  1  0
 22  7  1  0
M  END
>  <HBA>  (436) 
2

>  <HBD>  (436) 
2

>  <TPSA>  (436) 
50.83

>  <cid>  (436) 
1520

>  <dipole>  (436) 
1.85

>  <excitation_energy_1>  (436) 
5.226

>  <excitation_energy_2>  (436) 
5.508

>  <excitation_energy_3>  (436) 
5.701

>  <excitation_energy_4>  (436) 
5.876

>  <homo_energy>  (436) 
-5.957

>  <homo_lumo_gap>  (436) 
6.68

>  <logP>  (436) 
1.697

>  <lumo_energy>  (436) 
0.724

>  <melting_point>  (436) 
20.88

>  <molecular_refractivity>  (436) 
41.69

>  <oscillator_strength_1>  (436) 
0.0051

>  <oscillator_strength_2>  (436) 
0.0165

>  <oscillator_strength_3>  (436) 
0.0284

>  <oscillator_strength_4>  (436) 
0.0122

>  <open_babel_can_smiles>  (436) 
CCCCNCCS

>  <mulliken_charges>  (436) 
23
1   -0.440833
2   -0.250771
3   -0.259014
4   -0.108595
5   -0.096355
6   -0.422803
7   -0.561261
8   -0.094309
9   0.141984
10   0.143624
11   0.142215
12   0.131847
13   0.131022
14   0.126506
15   0.145202
16   0.133232
17   0.106602
18   0.11003
19   0.145313
20   0.193237
21   0.176742
22   0.312321
23   0.094063

>  <lowdin_charges>  (436) 
23
1   -0.444736
2   -0.272992
3   -0.279735
4   -0.201636
5   -0.203726
6   -0.37246
7   -0.367804
8   -0.092425
9   0.14953
10   0.147027
11   0.148084
12   0.140922
13   0.138688
14   0.138548
15   0.147376
16   0.13923
17   0.113421
18   0.114909
19   0.148033
20   0.175609
21   0.162038
22   0.25991
23   0.112189

$$$$
PCCDB-ID:  1527
     RDKit          3D

 30 30  0  0  1  0  0  0  0  0999 V2000
    0.4063   -0.2126   -0.6159 C   0  0  0  0  0  0  0  0  0  0  0  0
    2.2593   -2.5804   -0.5773 C   0  0  0  0  0  0  0  0  0  0  0  0
    5.6620   -4.0545   -1.1811 C   0  0  0  0  0  0  0  0  0  0  0  0
    1.9125   -0.2305   -0.7700 C   0  0  0  0  0  0  0  0  0  0  0  0
    3.2978   -3.5287   -1.1863 C   0  0  2  0  0  0  0  0  0  0  0  0
    5.3972   -5.5481   -0.9544 C   0  0  2  0  0  0  0  0  0  0  0  0
    2.9160   -5.0096   -1.0029 C   0  0  1  0  0  0  0  0  0  0  0  0
    4.0278   -5.9332   -1.5491 C   0  0  2  0  0  0  0  0  0  0  0  0
    2.7113   -1.2102   -0.7503 N   0  0  0  0  0  0  0  0  0  0  0  0
    4.5955   -3.2831   -0.5584 N   0  0  0  0  0  0  0  0  0  0  0  0
    2.4755    1.0077   -0.9417 O   0  0  0  0  0  0  0  0  0  0  0  0
    5.3560   -5.8648    0.4492 O   0  0  0  0  0  0  0  0  0  0  0  0
    2.6378   -5.3491    0.3549 O   0  0  0  0  0  0  0  0  0  0  0  0
    3.7074   -7.2893   -1.3154 O   0  0  0  0  0  0  0  0  0  0  0  0
   -0.0098   -1.2159   -0.5191 H   0  0  0  0  0  0  0  0  0  0  0  0
   -0.0642    0.2748   -1.4793 H   0  0  0  0  0  0  0  0  0  0  0  0
    0.1279    0.3556    0.2808 H   0  0  0  0  0  0  0  0  0  0  0  0
    2.1738   -2.8172    0.4902 H   0  0  0  0  0  0  0  0  0  0  0  0
    1.2823   -2.7859   -1.0416 H   0  0  0  0  0  0  0  0  0  0  0  0
    5.7620   -3.8807   -2.2716 H   0  0  0  0  0  0  0  0  0  0  0  0
    6.6222   -3.7716   -0.7273 H   0  0  0  0  0  0  0  0  0  0  0  0
    3.3343   -3.3358   -2.2791 H   0  0  0  0  0  0  0  0  0  0  0  0
    6.1796   -6.1501   -1.4386 H   0  0  0  0  0  0  0  0  0  0  0  0
    1.9902   -5.2158   -1.5529 H   0  0  0  0  0  0  0  0  0  0  0  0
    4.0964   -5.8073   -2.6375 H   0  0  0  0  0  0  0  0  0  0  0  0
    4.7763   -2.2816   -0.5932 H   0  0  0  0  0  0  0  0  0  0  0  0
    1.7769    1.6795   -0.9304 H   0  0  0  0  0  0  0  0  0  0  0  0
    5.9918   -5.2891    0.9016 H   0  0  0  0  0  0  0  0  0  0  0  0
    3.4976   -5.2744    0.8155 H   0  0  0  0  0  0  0  0  0  0  0  0
    3.3496   -7.3069   -0.4095 H   0  0  0  0  0  0  0  0  0  0  0  0
  1 15  1  0
  1 17  1  0
  2 18  1  0
  3  6  1  0
  3 21  1  0
  3 10  1  0
  4  9  2  0
  4  1  1  0
  5 22  1  6
  5  7  1  0
  5  2  1  0
  5 10  1  0
  6 23  1  6
  6 12  1  0
  7 24  1  6
  7 13  1  0
  8 25  1  6
  8 14  1  0
  8  7  1  0
  8  6  1  0
  9  2  1  0
 11 27  1  0
 11  4  1  0
 12 28  1  0
 13 29  1  0
 14 30  1  0
 16  1  1  0
 19  2  1  0
 20  3  1  0
 26 10  1  0
M  END
>  <HBA>  (437) 
6

>  <HBD>  (437) 
5

>  <TPSA>  (437) 
101.82

>  <cid>  (437) 
1527

>  <dipole>  (437) 
4.7

>  <excitation_energy_1>  (437) 
5.473

>  <excitation_energy_2>  (437) 
5.544

>  <excitation_energy_3>  (437) 
5.616

>  <excitation_energy_4>  (437) 
5.834

>  <homo_energy>  (437) 
-6.071

>  <homo_lumo_gap>  (437) 
6.525

>  <logP>  (437) 
-2.103

>  <lumo_energy>  (437) 
0.454

>  <melting_point>  (437) 
126.29

>  <molecular_refractivity>  (437) 
51.66

>  <oscillator_strength_1>  (437) 
0.001

>  <oscillator_strength_2>  (437) 
0.0095

>  <oscillator_strength_3>  (437) 
0.0012

>  <oscillator_strength_4>  (437) 
0.0041

>  <open_babel_can_smiles>  (437) 
O[C@@H]1CN[C@@H]([C@@H]([C@@H]1O)O)C/N=C(/O)\C

>  <mulliken_charges>  (437) 
30
1   -0.562295
2   -0.142569
3   -0.174046
4   0.497495
5   0.026634
6   0.135432
7   0.102521
8   0.112096
9   -0.433502
10   -0.581241
11   -0.580235
12   -0.644144
13   -0.657564
14   -0.635238
15   0.189076
16   0.172283
17   0.178558
18   0.167142
19   0.121872
20   0.122176
21   0.133432
22   0.102754
23   0.130757
24   0.134379
25   0.127615
26   0.327437
27   0.404821
28   0.401449
29   0.418995
30   0.403911

>  <lowdin_charges>  (437) 
30
1   -0.48472
2   -0.202643
3   -0.221074
4   0.135463
5   -0.081185
6   -0.024087
7   -0.025056
8   -0.031886
9   -0.213265
10   -0.369524
11   -0.374078
12   -0.464769
13   -0.472724
14   -0.453593
15   0.176332
16   0.168783
17   0.172126
18   0.157132
19   0.132405
20   0.123962
21   0.142086
22   0.115858
23   0.141451
24   0.14684
25   0.143083
26   0.26823
27   0.354778
28   0.350823
29   0.344078
30   0.345176

$$$$
PCCDB-ID:  1531
     RDKit          3D

 18 17  0  0  0  0  0  0  0  0999 V2000
    0.8885   -0.2287   -0.0409 C   0  0  0  0  0  0  0  0  0  0  0  0
    2.5894    1.6333   -0.1947 C   0  0  0  0  0  0  0  0  0  0  0  0
    2.9815   -0.2686    1.3916 C   0  0  0  0  0  0  0  0  0  0  0  0
    2.3808    0.1283    0.0233 C   0  0  0  0  0  0  0  0  0  0  0  0
    3.1963   -0.5689   -0.9953 N   0  0  0  0  0  0  0  0  0  0  0  0
    2.1912    1.9543   -1.5300 O   0  0  0  0  0  0  0  0  0  0  0  0
    4.3831   -0.0955    1.4045 O   0  0  0  0  0  0  0  0  0  0  0  0
    0.3287    0.2502    0.7727 H   0  0  0  0  0  0  0  0  0  0  0  0
    0.7454   -1.3128    0.0511 H   0  0  0  0  0  0  0  0  0  0  0  0
    0.4544    0.0998   -0.9900 H   0  0  0  0  0  0  0  0  0  0  0  0
    3.6475    1.8695   -0.0278 H   0  0  0  0  0  0  0  0  0  0  0  0
    1.9880    2.1910    0.5394 H   0  0  0  0  0  0  0  0  0  0  0  0
    2.7037   -1.3176    1.6026 H   0  0  0  0  0  0  0  0  0  0  0  0
    2.5589    0.3477    2.1944 H   0  0  0  0  0  0  0  0  0  0  0  0
    3.0721   -0.0940   -1.8884 H   0  0  0  0  0  0  0  0  0  0  0  0
    2.8616   -1.5243   -1.1155 H   0  0  0  0  0  0  0  0  0  0  0  0
    2.5115    2.8455   -1.7315 H   0  0  0  0  0  0  0  0  0  0  0  0
    4.6507   -0.3922    0.5097 H   0  0  0  0  0  0  0  0  0  0  0  0
  1  4  1  0
  1  9  1  0
  1  8  1  0
  2 11  1  0
  2  4  1  0
  2 12  1  0
  3  7  1  0
  3 13  1  0
  3 14  1  0
  4  3  1  0
  5  4  1  0
  6  2  1  0
 10  1  1  0
 15  5  1  0
 16  5  1  0
 17  6  1  0
 18  7  1  0
M  END
>  <HBA>  (438) 
3

>  <HBD>  (438) 
3

>  <TPSA>  (438) 
66.48

>  <cid>  (438) 
1531

>  <dipole>  (438) 
2.23

>  <excitation_energy_1>  (438) 
6.031

>  <excitation_energy_2>  (438) 
6.348

>  <excitation_energy_3>  (438) 
6.465

>  <excitation_energy_4>  (438) 
6.609

>  <homo_energy>  (438) 
-6.634

>  <homo_lumo_gap>  (438) 
8.297

>  <logP>  (438) 
-0.611

>  <lumo_energy>  (438) 
1.663

>  <melting_point>  (438) 
77.27

>  <molecular_refractivity>  (438) 
26.41

>  <oscillator_strength_1>  (438) 
0.0193

>  <oscillator_strength_2>  (438) 
0.0148

>  <oscillator_strength_3>  (438) 
0.0025

>  <oscillator_strength_4>  (438) 
0.0072

>  <open_babel_can_smiles>  (438) 
OCC(CO)(N)C

>  <mulliken_charges>  (438) 
18
1   -0.460897
2   -0.0344
3   -0.003864
4   0.141807
5   -0.76228
6   -0.632952
7   -0.634744
8   0.14094
9   0.134903
10   0.167799
11   0.147302
12   0.124196
13   0.108946
14   0.131968
15   0.325964
16   0.299636
17   0.399956
18   0.40572

>  <lowdin_charges>  (438) 
18
1   -0.457345
2   -0.142942
3   -0.140589
4   0.032972
5   -0.549878
6   -0.476493
7   -0.47683
8   0.151575
9   0.143763
10   0.162467
11   0.142719
12   0.134058
13   0.121244
14   0.142793
15   0.268237
16   0.255427
17   0.349481
18   0.339343

$$$$
PCCDB-ID:  1533
     RDKit          3D

 16 16  0  0  0  0  0  0  0  0999 V2000
    1.0577    0.0313    0.0358 C   0  0  0  0  0  0  0  0  0  0  0  0
    3.3146    1.1903   -0.0568 C   0  0  0  0  0  0  0  0  0  0  0  0
    4.6705    1.1220   -0.1428 C   0  0  0  0  0  0  0  0  0  0  0  0
    3.2185   -1.2298   -0.1530 C   0  0  0  0  0  0  0  0  0  0  0  0
    2.5604   -0.0369   -0.0613 C   0  0  0  0  0  0  0  0  0  0  0  0
    4.6678   -1.3281   -0.2486 C   0  0  0  0  0  0  0  0  0  0  0  0
    5.4265   -2.3682   -0.3431 N   0  0  0  0  0  0  0  0  0  0  0  0
    5.3094   -0.0773   -0.2331 N   0  0  0  0  0  0  0  0  0  0  0  0
    0.6379    0.6112   -0.7961 H   0  0  0  0  0  0  0  0  0  0  0  0
    0.7484    0.5333    0.9616 H   0  0  0  0  0  0  0  0  0  0  0  0
    0.6050   -0.9642    0.0206 H   0  0  0  0  0  0  0  0  0  0  0  0
    2.8176    2.1507    0.0159 H   0  0  0  0  0  0  0  0  0  0  0  0
    5.3106    1.9980   -0.1447 H   0  0  0  0  0  0  0  0  0  0  0  0
    2.6644   -2.1647   -0.1572 H   0  0  0  0  0  0  0  0  0  0  0  0
    4.8547   -3.2140   -0.3447 H   0  0  0  0  0  0  0  0  0  0  0  0
    6.3186   -0.1251   -0.2984 H   0  0  0  0  0  0  0  0  0  0  0  0
  1 10  1  0
  2 12  1  0
  3  2  2  0
  4  5  2  0
  5  2  1  0
  5  1  1  0
  6  8  1  0
  6  4  1  0
  7  6  2  0
  8  3  1  0
  9  1  1  0
 11  1  1  0
 13  3  1  0
 14  4  1  0
 15  7  1  0
 16  8  1  0
M  END
>  <HBA>  (439) 
2

>  <HBD>  (439) 
1

>  <TPSA>  (439) 
38.91

>  <cid>  (439) 
1533

>  <dipole>  (439) 
3.01

>  <excitation_energy_1>  (439) 
3.784

>  <excitation_energy_2>  (439) 
4.499

>  <excitation_energy_3>  (439) 
4.976

>  <excitation_energy_4>  (439) 
5.104

>  <homo_energy>  (439) 
-5.064

>  <homo_lumo_gap>  (439) 
4.425

>  <logP>  (439) 
1.553

>  <lumo_energy>  (439) 
-0.639

>  <melting_point>  (439) 
72.81

>  <molecular_refractivity>  (439) 
33.61

>  <oscillator_strength_1>  (439) 
0.0561

>  <oscillator_strength_2>  (439) 
0.0045

>  <oscillator_strength_3>  (439) 
0.0002

>  <oscillator_strength_4>  (439) 
0.0011

>  <open_babel_can_smiles>  (439) 
Cc1cc[nH]c(=N)c1

>  <mulliken_charges>  (439) 
16
1   -0.529423
2   -0.236088
3   0.110016
4   -0.265013
5   0.208703
6   0.500341
7   -0.686881
8   -0.620172
9   0.165894
10   0.165912
11   0.160985
12   0.129008
13   0.160694
14   0.124286
15   0.273578
16   0.338159

>  <lowdin_charges>  (439) 
16
1   -0.440236
2   -0.239516
3   -0.071882
4   -0.224813
5   0.031359
6   0.087898
7   -0.482396
8   -0.185362
9   0.164302
10   0.163661
11   0.159598
12   0.163812
13   0.169234
14   0.159505
15   0.249961
16   0.294875

$$$$
PCCDB-ID:  1534
     RDKit          3D

 18 18  0  0  1  0  0  0  0  0999 V2000
    0.8202    0.0241   -0.0781 C   0  0  0  0  0  0  0  0  0  0  0  0
    2.9921    1.0865   -0.8834 C   0  0  0  0  0  0  0  0  0  0  0  0
    4.5100    1.1121   -0.7314 C   0  0  0  0  0  0  0  0  0  0  0  0
    2.3453    0.0569    0.0400 C   0  0  2  0  0  0  0  0  0  0  0  0
    4.6964   -1.4124   -0.7470 C   0  0  0  0  0  0  0  0  0  0  0  0
    5.3817   -2.4923   -0.7636 N   0  0  0  0  0  0  0  0  0  0  0  0
    5.1200   -0.1523   -1.1411 N   0  0  0  0  0  0  0  0  0  0  0  0
    2.9676   -1.6501   -0.3225 S   0  0  0  0  0  0  0  0  0  0  0  0
    0.4031    0.9968    0.2095 H   0  0  0  0  0  0  0  0  0  0  0  0
    0.3841   -0.7356    0.5795 H   0  0  0  0  0  0  0  0  0  0  0  0
    0.5101   -0.1960   -1.1052 H   0  0  0  0  0  0  0  0  0  0  0  0
    2.7265    0.8751   -1.9262 H   0  0  0  0  0  0  0  0  0  0  0  0
    2.6003    2.0820   -0.6336 H   0  0  0  0  0  0  0  0  0  0  0  0
    4.7669    1.3687    0.3107 H   0  0  0  0  0  0  0  0  0  0  0  0
    4.9346    1.8939   -1.3701 H   0  0  0  0  0  0  0  0  0  0  0  0
    2.6157    0.2928    1.0769 H   0  0  0  0  0  0  0  0  0  0  0  0
    6.3369   -2.3247   -1.0970 H   0  0  0  0  0  0  0  0  0  0  0  0
    6.1270   -0.1060   -1.2541 H   0  0  0  0  0  0  0  0  0  0  0  0
  1  4  1  0
  1  9  1  0
  1 10  1  0
  2  3  1  0
  2 13  1  0
  2  4  1  0
  3 14  1  0
  4 16  1  1
  5  8  1  0
  6  5  2  0
  7  5  1  0
  7  3  1  0
  8  4  1  0
 11  1  1  0
 12  2  1  0
 15  3  1  0
 17  6  1  0
 18  7  1  0
M  END
>  <HBA>  (440) 
3

>  <HBD>  (440) 
1

>  <TPSA>  (440) 
63.68

>  <cid>  (440) 
1534

>  <dipole>  (440) 
4.98

>  <excitation_energy_1>  (440) 
5.014

>  <excitation_energy_2>  (440) 
5.36

>  <excitation_energy_3>  (440) 
5.601

>  <excitation_energy_4>  (440) 
5.734

>  <homo_energy>  (440) 
-5.935

>  <homo_lumo_gap>  (440) 
6.648

>  <logP>  (440) 
0.962

>  <lumo_energy>  (440) 
0.713

>  <melting_point>  (440) 
77.76

>  <molecular_refractivity>  (440) 
41.34

>  <oscillator_strength_1>  (440) 
0.0112

>  <oscillator_strength_2>  (440) 
0.0281

>  <oscillator_strength_3>  (440) 
0.0063

>  <oscillator_strength_4>  (440) 
0.0353

>  <open_babel_can_smiles>  (440) 
C[C@@H]1CCNC(=N)S1

>  <mulliken_charges>  (440) 
18
1   -0.454558
2   -0.263302
3   -0.129514
4   -0.249676
5   0.287264
6   -0.613428
7   -0.571577
8   0.158836
9   0.150273
10   0.166636
11   0.1664
12   0.165146
13   0.145557
14   0.142776
15   0.152464
16   0.166304
17   0.26558
18   0.314818

>  <lowdin_charges>  (440) 
18
1   -0.444429
2   -0.28072
3   -0.194058
4   -0.223706
5   -0.013516
6   -0.434424
7   -0.306474
8   0.15277
9   0.154468
10   0.163917
11   0.159772
12   0.157194
13   0.153435
14   0.133473
15   0.155336
16   0.150967
17   0.243657
18   0.272338

$$$$
PCCDB-ID:  1551
     RDKit          3D

 33 33  0  0  1  0  0  0  0  0999 V2000
   -1.9729   -0.0968    0.5091 C   0  0  0  0  0  0  0  0  0  0  0  0
   -1.7512    1.2278   -0.2355 C   0  0  0  0  0  0  0  0  0  0  0  0
   -1.7299   -1.3948   -0.2737 C   0  0  0  0  0  0  0  0  0  0  0  0
   -0.3212    1.5314   -0.7332 C   0  0  0  0  0  0  0  0  0  0  0  0
   -0.3021   -1.6491   -0.7994 C   0  0  0  0  0  0  0  0  0  0  0  0
    0.8225    1.2301    0.2648 C   0  0  0  0  0  0  0  0  0  0  0  0
    0.8519   -1.3934    0.2041 C   0  0  0  0  0  0  0  0  0  0  0  0
    3.8936   -1.1842    0.7567 C   0  0  0  0  0  0  0  0  0  0  0  0
    1.6326   -0.0681    0.0305 C   0  0  0  0  0  0  0  0  0  0  0  0
    2.8964   -0.0228    0.9403 C   0  0  2  0  0  0  0  0  0  0  0  0
    4.5351   -1.0561   -0.5635 N   0  0  0  0  0  0  0  0  0  0  0  0
    3.6279    1.1841    0.7448 O   0  0  0  0  0  0  0  0  0  0  0  0
   -3.0128   -0.1120    0.8637 H   0  0  0  0  0  0  0  0  0  0  0  0
   -1.3583   -0.1045    1.4186 H   0  0  0  0  0  0  0  0  0  0  0  0
   -2.0500    2.0349    0.4487 H   0  0  0  0  0  0  0  0  0  0  0  0
   -2.4433    1.2875   -1.0881 H   0  0  0  0  0  0  0  0  0  0  0  0
   -2.4270   -1.4438   -1.1228 H   0  0  0  0  0  0  0  0  0  0  0  0
   -2.0039   -2.2304    0.3866 H   0  0  0  0  0  0  0  0  0  0  0  0
   -0.2935    2.5995   -0.9855 H   0  0  0  0  0  0  0  0  0  0  0  0
   -0.1290    1.0129   -1.6796 H   0  0  0  0  0  0  0  0  0  0  0  0
   -0.1252   -1.0679   -1.7110 H   0  0  0  0  0  0  0  0  0  0  0  0
   -0.2638   -2.6994   -1.1174 H   0  0  0  0  0  0  0  0  0  0  0  0
    0.4338    1.2298    1.2942 H   0  0  0  0  0  0  0  0  0  0  0  0
    1.5506    2.0443    0.2278 H   0  0  0  0  0  0  0  0  0  0  0  0
    1.5628   -2.2210    0.0991 H   0  0  0  0  0  0  0  0  0  0  0  0
    0.4767   -1.4659    1.2355 H   0  0  0  0  0  0  0  0  0  0  0  0
    3.4278   -2.1630    0.9376 H   0  0  0  0  0  0  0  0  0  0  0  0
    4.6757   -1.0536    1.5119 H   0  0  0  0  0  0  0  0  0  0  0  0
    1.9910   -0.0323   -1.0126 H   0  0  0  0  0  0  0  0  0  0  0  0
    2.5638   -0.0180    1.9879 H   0  0  0  0  0  0  0  0  0  0  0  0
    3.9408   -1.4488   -1.2909 H   0  0  0  0  0  0  0  0  0  0  0  0
    5.4100   -1.5736   -0.5898 H   0  0  0  0  0  0  0  0  0  0  0  0
    4.2106    0.9776   -0.0138 H   0  0  0  0  0  0  0  0  0  0  0  0
  1 13  1  0
  1 14  1  0
  2 15  1  0
  2  1  1  0
  3 18  1  0
  3  1  1  0
  4  2  1  0
  4  6  1  0
  5  3  1  0
  5  7  1  0
  6 23  1  0
  7 26  1  0
  8 27  1  0
  8 10  1  0
  8 28  1  0
  9  7  1  0
  9  6  1  0
  9 10  1  0
 10 30  1  1
 11  8  1  0
 12 10  1  0
 16  2  1  0
 17  3  1  0
 19  4  1  0
 20  4  1  0
 21  5  1  0
 22  5  1  0
 24  6  1  0
 25  7  1  0
 29  9  1  0
 31 11  1  0
 32 11  1  0
 33 12  1  0
M  END
>  <HBA>  (441) 
2

>  <HBD>  (441) 
2

>  <TPSA>  (441) 
46.25

>  <cid>  (441) 
1551

>  <dipole>  (441) 
3.01

>  <excitation_energy_1>  (441) 
5.777

>  <excitation_energy_2>  (441) 
6.257

>  <excitation_energy_3>  (441) 
6.38

>  <excitation_energy_4>  (441) 
6.565

>  <homo_energy>  (441) 
-6.52

>  <homo_lumo_gap>  (441) 
8.163

>  <logP>  (441) 
2.367

>  <lumo_energy>  (441) 
1.644

>  <melting_point>  (441) 
66.23

>  <molecular_refractivity>  (441) 
51.94

>  <oscillator_strength_1>  (441) 
0.0081

>  <oscillator_strength_2>  (441) 
0.0191

>  <oscillator_strength_3>  (441) 
0.002

>  <oscillator_strength_4>  (441) 
0.0052

>  <open_babel_can_smiles>  (441) 
NC[C@H](C1CCCCCCC1)O

>  <mulliken_charges>  (441) 
33
1   -0.256082
2   -0.257099
3   -0.25636
4   -0.265901
5   -0.263774
6   -0.268904
7   -0.272441
8   -0.181387
9   -0.10712
10   0.154761
11   -0.747731
12   -0.646214
13   0.126759
14   0.132295
15   0.129064
16   0.123397
17   0.125681
18   0.126898
19   0.130414
20   0.130123
21   0.136367
22   0.126483
23   0.122433
24   0.166297
25   0.122567
26   0.131744
27   0.130642
28   0.153031
29   0.106626
30   0.121064
31   0.309444
32   0.311225
33   0.405694

>  <lowdin_charges>  (441) 
33
1   -0.282121
2   -0.279611
3   -0.278476
4   -0.282414
5   -0.282369
6   -0.286606
7   -0.285419
8   -0.229209
9   -0.142676
10   -0.009572
11   -0.560337
12   -0.471639
13   0.142333
14   0.138431
15   0.141527
16   0.138502
17   0.139751
18   0.140016
19   0.142023
20   0.13735
21   0.14116
22   0.140017
23   0.135634
24   0.163107
25   0.13956
26   0.139265
27   0.130056
28   0.153178
29   0.127472
30   0.135503
31   0.260388
32   0.263972
33   0.341206

$$$$
PCCDB-ID:  1562
     RDKit          3D

 25 24  0  0  1  0  0  0  0  0999 V2000
    0.8469   -0.0557   -0.0120 C   0  0  0  0  0  0  0  0  0  0  0  0
    2.4762    1.8587   -0.2351 C   0  0  0  0  0  0  0  0  0  0  0  0
    3.2510   -0.4199    0.6384 C   0  0  0  0  0  0  0  0  0  0  0  0
    2.3010    0.3340   -0.3159 C   0  0  0  0  0  0  0  0  0  0  0  0
    4.7361   -0.3396    0.2443 C   0  0  1  0  0  0  0  0  0  0  0  0
    5.6722   -0.7441    1.3620 C   0  0  0  0  0  0  0  0  0  0  0  0
    5.0458   -1.2035   -1.0103 C   0  0  0  0  0  0  0  0  0  0  0  0
    6.8862   -0.3666    1.5444 N   0  0  0  0  0  0  0  0  0  0  0  0
    5.1551   -1.6123    2.2560 O   0  0  0  0  0  0  0  0  0  0  0  0
    4.2491   -1.9600   -1.5073 O   0  0  0  0  0  0  0  0  0  0  0  0
    6.2786   -1.0422   -1.5253 O   0  0  0  0  0  0  0  0  0  0  0  0
    7.3005    0.5253    0.4991 O   0  0  0  0  0  0  0  0  0  0  0  0
    0.1522    0.4576   -0.6870 H   0  0  0  0  0  0  0  0  0  0  0  0
    0.5716    0.2147    1.0162 H   0  0  0  0  0  0  0  0  0  0  0  0
    0.6941   -1.1345   -0.1280 H   0  0  0  0  0  0  0  0  0  0  0  0
    1.7926    2.3656   -0.9259 H   0  0  0  0  0  0  0  0  0  0  0  0
    3.4919    2.1819   -0.4926 H   0  0  0  0  0  0  0  0  0  0  0  0
    2.2570    2.2247    0.7769 H   0  0  0  0  0  0  0  0  0  0  0  0
    2.9675   -1.4755    0.6749 H   0  0  0  0  0  0  0  0  0  0  0  0
    3.1310   -0.0202    1.6534 H   0  0  0  0  0  0  0  0  0  0  0  0
    2.5247    0.0094   -1.3400 H   0  0  0  0  0  0  0  0  0  0  0  0
    5.0108    0.6904   -0.0123 H   0  0  0  0  0  0  0  0  0  0  0  0
    5.8553   -1.8160    2.9040 H   0  0  0  0  0  0  0  0  0  0  0  0
    6.7982   -0.4096   -0.9795 H   0  0  0  0  0  0  0  0  0  0  0  0
    8.2281    0.6884    0.7308 H   0  0  0  0  0  0  0  0  0  0  0  0
  1 14  1  0
  2 18  1  0
  3 19  1  0
  3 20  1  0
  4  2  1  0
  4  1  1  0
  4  3  1  0
  5 22  1  6
  5  3  1  0
  5  6  1  0
  6  8  2  0
  6  9  1  0
  7  5  1  0
  9 23  1  0
 10  7  2  0
 11  7  1  0
 11 24  1  0
 12 25  1  0
 12  8  1  0
 13  1  1  0
 15  1  1  0
 16  2  1  0
 17  2  1  0
 21  4  1  0
M  END
>  <HBA>  (442) 
5

>  <HBD>  (442) 
3

>  <TPSA>  (442) 
86.63

>  <cid>  (442) 
1562

>  <dipole>  (442) 
4.57

>  <excitation_energy_1>  (442) 
5.501

>  <excitation_energy_2>  (442) 
5.898

>  <excitation_energy_3>  (442) 
6.135

>  <excitation_energy_4>  (442) 
6.195

>  <homo_energy>  (442) 
-6.972

>  <homo_lumo_gap>  (442) 
6.653

>  <logP>  (442) 
0.63

>  <lumo_energy>  (442) 
-0.318

>  <melting_point>  (442) 
152.41

>  <molecular_refractivity>  (442) 
41.27

>  <oscillator_strength_1>  (442) 
0.0203

>  <oscillator_strength_2>  (442) 
0.0047

>  <oscillator_strength_3>  (442) 
0.0009

>  <oscillator_strength_4>  (442) 
0.0486

>  <open_babel_can_smiles>  (442) 
O/N=C(\[C@@H](C(=O)O)CC(C)C)/O

>  <mulliken_charges>  (442) 
25
1   -0.446298
2   -0.450495
3   -0.246858
4   -0.082012
5   -0.30331
6   0.547397
7   0.610609
8   -0.286781
9   -0.578782
10   -0.439268
11   -0.590249
12   -0.538984
13   0.141489
14   0.13594
15   0.152374
16   0.147103
17   0.138127
18   0.138915
19   0.17144
20   0.13616
21   0.150297
22   0.19652
23   0.421278
24   0.440348
25   0.435041

>  <lowdin_charges>  (442) 
25
1   -0.440825
2   -0.448509
3   -0.266623
4   -0.122998
5   -0.186606
6   0.118354
7   0.198163
8   -0.141541
9   -0.337385
10   -0.238161
11   -0.362048
12   -0.39007
13   0.150473
14   0.14297
15   0.152108
16   0.15351
17   0.142709
18   0.144358
19   0.164451
20   0.147349
21   0.148763
22   0.178303
23   0.369123
24   0.357881
25   0.366252

$$$$
PCCDB-ID:  1567
     RDKit          3D

 10  9  0  0  0  0  0  0  0  0999 V2000
    0.9482   -0.0106    0.0870 C   0  0  0  0  0  0  0  0  0  0  0  0
    0.3926   -1.3111    0.6717 C   0  0  0  0  0  0  0  0  0  0  0  0
    2.3690   -0.0178    0.0457 O   0  0  0  0  0  0  0  0  0  0  0  0
   -1.4447   -1.4123    0.6266 S   0  0  0  0  0  0  0  0  0  0  0  0
    0.5642    0.8532    0.6531 H   0  0  0  0  0  0  0  0  0  0  0  0
    0.6140    0.1012   -0.9479 H   0  0  0  0  0  0  0  0  0  0  0  0
    0.7429   -1.4623    1.6991 H   0  0  0  0  0  0  0  0  0  0  0  0
    0.7433   -2.1595    0.0769 H   0  0  0  0  0  0  0  0  0  0  0  0
    2.6945    0.0241    0.9582 H   0  0  0  0  0  0  0  0  0  0  0  0
   -1.6827   -0.3853    1.4726 H   0  0  0  0  0  0  0  0  0  0  0  0
  1  5  1  0
  1  2  1  0
  2  7  1  0
  3  1  1  0
  3  9  1  0
  4  2  1  0
  4 10  1  0
  6  1  1  0
  8  2  1  0
M  END
>  <HBA>  (443) 
2

>  <HBD>  (443) 
2

>  <TPSA>  (443) 
59.03

>  <cid>  (443) 
1567

>  <dipole>  (443) 
2.21

>  <excitation_energy_1>  (443) 
5.237

>  <excitation_energy_2>  (443) 
5.816

>  <excitation_energy_3>  (443) 
6.309

>  <excitation_energy_4>  (443) 
6.591

>  <homo_energy>  (443) 
-6.566

>  <homo_lumo_gap>  (443) 
7.119

>  <logP>  (443) 
-0.091

>  <lumo_energy>  (443) 
0.552

>  <melting_point>  (443) 
14.97

>  <molecular_refractivity>  (443) 
20.82

>  <oscillator_strength_1>  (443) 
0.0032

>  <oscillator_strength_2>  (443) 
0.0472

>  <oscillator_strength_3>  (443) 
0.0017

>  <oscillator_strength_4>  (443) 
0.0216

>  <open_babel_can_smiles>  (443) 
OCCS

>  <mulliken_charges>  (443) 
10
1   -0.023784
2   -0.428507
3   -0.606516
4   -0.077159
5   0.123969
6   0.169423
7   0.166632
8   0.194255
9   0.389716
10   0.091971

>  <lowdin_charges>  (443) 
10
1   -0.140269
2   -0.391861
3   -0.460754
4   -0.077953
5   0.129579
6   0.157846
7   0.153427
8   0.176662
9   0.341215
10   0.11211

$$$$
PCCDB-ID:  1570
     RDKit          3D

 13 13  0  0  0  0  0  0  0  0999 V2000
   -1.3983   -0.1150    0.0257 C   0  0  0  0  0  0  0  0  0  0  0  0
   -0.6915   -1.3360    0.0857 C   0  0  0  0  0  0  0  0  0  0  0  0
   -0.7182    1.0791   -0.0649 C   0  0  0  0  0  0  0  0  0  0  0  0
    0.6804   -1.2973    0.0512 C   0  0  0  0  0  0  0  0  0  0  0  0
    0.7025    1.1374   -0.1021 C   0  0  0  0  0  0  0  0  0  0  0  0
    1.3163   -0.1067   -0.0387 N   0  0  0  0  0  0  0  0  0  0  0  0
    2.6867   -0.1594   -0.0666 O   0  0  0  0  0  0  0  0  0  0  0  0
    1.6753    2.5224   -0.2132 S   0  0  0  0  0  0  0  0  0  0  0  0
   -2.4840   -0.1170    0.0506 H   0  0  0  0  0  0  0  0  0  0  0  0
   -1.1978   -2.2908    0.1583 H   0  0  0  0  0  0  0  0  0  0  0  0
   -1.2431    2.0259   -0.1117 H   0  0  0  0  0  0  0  0  0  0  0  0
    1.3313   -2.1613    0.0903 H   0  0  0  0  0  0  0  0  0  0  0  0
    2.9153    0.8215   -0.1394 H   0  0  0  0  0  0  0  0  0  0  0  0
  1  9  1  0
  1  2  1  0
  2 10  1  0
  3  1  2  0
  4  2  2  0
  4 12  1  0
  5  3  1  0
  5  6  1  0
  6  4  1  0
  7  6  1  0
  8  5  2  0
 11  3  1  0
 13  7  1  0
M  END
>  <HBA>  (444) 
3

>  <HBD>  (444) 
1

>  <TPSA>  (444) 
57.25

>  <cid>  (444) 
1570

>  <dipole>  (444) 
4.97

>  <excitation_energy_1>  (444) 
3.48

>  <excitation_energy_2>  (444) 
3.547

>  <excitation_energy_3>  (444) 
4.198

>  <excitation_energy_4>  (444) 
4.457

>  <homo_energy>  (444) 
-5.747

>  <homo_lumo_gap>  (444) 
4.133

>  <logP>  (444) 
1.455

>  <lumo_energy>  (444) 
-1.614

>  <melting_point>  (444) 
103.24

>  <molecular_refractivity>  (444) 
32.81

>  <oscillator_strength_1>  (444) 
0.0392

>  <oscillator_strength_2>  (444) 
0.0

>  <oscillator_strength_3>  (444) 
0.0001

>  <oscillator_strength_4>  (444) 
0.2807

>  <open_babel_can_smiles>  (444) 
S=c1ccccn1O

>  <mulliken_charges>  (444) 
13
1   -0.071184
2   -0.201974
3   -0.200675
4   0.123183
5   0.161562
6   -0.154362
7   -0.494268
8   -0.274007
9   0.159436
10   0.161859
11   0.177911
12   0.200813
13   0.411706

>  <lowdin_charges>  (444) 
13
1   -0.121105
2   -0.185486
3   -0.1611
4   -0.077758
5   -0.074373
6   0.143762
7   -0.348941
8   -0.250982
9   0.171366
10   0.178188
11   0.186881
12   0.193363
13   0.346185

$$$$
PCCDB-ID:  1606
     RDKit          3D

 24 23  0  0  0  0  0  0  0  0999 V2000
    1.5471   -0.4661   -3.3953 C   0  0  0  0  0  0  0  0  0  0  0  0
   -2.3843   -2.2043   -5.2431 C   0  0  0  0  0  0  0  0  0  0  0  0
    1.2306   -0.9579   -4.8163 C   0  0  0  0  0  0  0  0  0  0  0  0
   -1.2627   -1.3316   -4.6544 C   0  0  0  0  0  0  0  0  0  0  0  0
    2.6955    0.4432   -3.4655 N   0  0  0  0  0  0  0  0  0  0  0  0
   -2.3512   -2.4334   -6.6826 N   0  0  0  0  0  0  0  0  0  0  0  0
    0.1603   -4.1765   -5.2545 N   0  0  0  0  0  2  0  0  0  0  0  0
    0.0794   -1.8642   -4.9694 N   0  0  0  0  0  0  0  0  0  0  0  0
    0.3023   -3.1140   -4.4761 N   0  0  0  0  0  0  0  0  0  0  0  0
    0.1374   -5.2404   -4.6121 O   0  0  0  0  0  1  0  0  0  0  0  0
    0.2343   -3.3192   -3.0842 O   0  0  0  0  0  0  0  0  0  0  0  0
    1.8239   -1.3233   -2.7747 H   0  0  0  0  0  0  0  0  0  0  0  0
    0.6439   -0.0222   -2.9413 H   0  0  0  0  0  0  0  0  0  0  0  0
   -3.3382   -1.7295   -4.9799 H   0  0  0  0  0  0  0  0  0  0  0  0
   -2.3863   -3.1811   -4.7446 H   0  0  0  0  0  0  0  0  0  0  0  0
    2.1082   -1.4668   -5.2241 H   0  0  0  0  0  0  0  0  0  0  0  0
    1.0243   -0.1000   -5.4687 H   0  0  0  0  0  0  0  0  0  0  0  0
   -1.4092   -1.2093   -3.5714 H   0  0  0  0  0  0  0  0  0  0  0  0
   -1.2935   -0.3347   -5.1099 H   0  0  0  0  0  0  0  0  0  0  0  0
    2.4059    1.3453   -3.8411 H   0  0  0  0  0  0  0  0  0  0  0  0
    3.0500    0.6280   -2.5296 H   0  0  0  0  0  0  0  0  0  0  0  0
   -2.3343   -1.5430   -7.1788 H   0  0  0  0  0  0  0  0  0  0  0  0
   -1.4865   -2.9148   -6.9247 H   0  0  0  0  0  0  0  0  0  0  0  0
    0.1817   -4.3164   -3.0887 H   0  0  0  0  0  0  0  0  0  0  0  0
  1 13  1  0
  1 12  1  0
  2 14  1  0
  2 15  1  0
  2  4  1  0
  3  1  1  0
  4 18  1  0
  5  1  1  0
  5 21  1  0
  6  2  1  0
  7 10  1  0
  7  9  1  0
  8  3  1  0
  8  4  1  0
  8  9  1  0
  9 11  1  0
 16  3  1  0
 17  3  1  0
 19  4  1  0
 20  5  1  0
 22  6  1  0
 23  6  1  0
 24 11  1  0
M  RAD  2   7   2  10   2
M  END
>  <HBA>  (445) 
7

>  <HBD>  (445) 
3

>  <TPSA>  (445) 
108.18

>  <cid>  (445) 
1606

>  <dipole>  (445) 
5.13

>  <excitation_energy_1>  (445) 
3.788

>  <excitation_energy_2>  (445) 
4.09

>  <excitation_energy_3>  (445) 
4.468

>  <excitation_energy_4>  (445) 
4.931

>  <homo_energy>  (445) 
-6.346

>  <homo_lumo_gap>  (445) 
4.925

>  <logP>  (445) 
-0.106

>  <lumo_energy>  (445) 
-1.42

>  <melting_point>  (445) 
161.49

>  <molecular_refractivity>  (445) 
38.02

>  <oscillator_strength_1>  (445) 
0.0029

>  <oscillator_strength_2>  (445) 
0.0022

>  <oscillator_strength_3>  (445) 
0.0008

>  <oscillator_strength_4>  (445) 
0.0003

>  <open_babel_can_smiles>  (445) 
NCCN(N([N][O])O)CCN

>  <mulliken_charges>  (445) 
24
1   -0.158238
2   -0.166005
3   -0.118516
4   -0.134513
5   -0.718216
6   -0.70341
7   0.165856
8   -0.28454
9   0.161546
10   -0.406978
11   -0.511756
12   0.172589
13   0.122835
14   0.150482
15   0.162059
16   0.180074
17   0.145994
18   0.15402
19   0.143651
20   0.295224
21   0.305363
22   0.28778
23   0.320005
24   0.434693

>  <lowdin_charges>  (445) 
24
1   -0.226019
2   -0.217003
3   -0.20735
4   -0.221039
5   -0.554115
6   -0.548913
7   0.053777
8   -0.095585
9   0.122467
10   -0.293737
11   -0.389183
12   0.158839
13   0.123064
14   0.151966
15   0.152344
16   0.167285
17   0.150171
18   0.142835
19   0.14961
20   0.25269
21   0.260003
22   0.250042
23   0.261016
24   0.356835

$$$$
PCCDB-ID:  1621
     RDKit          3D

 37 36  0  0  1  0  0  0  0  0999 V2000
    5.4286   -1.5123    3.5570 C   0  0  0  0  0  0  0  0  0  0  0  0
    4.1345    1.7991    0.3386 C   0  0  0  0  0  0  0  0  0  0  0  0
    5.0443    0.5659    0.4300 C   0  0  0  0  0  0  0  0  0  0  0  0
    4.8637    3.1004   -0.0367 C   0  0  0  0  0  0  0  0  0  0  0  0
    4.2666   -0.6851    0.8685 C   0  0  0  0  0  0  0  0  0  0  0  0
    5.6251    3.0516   -1.3827 C   0  0  0  0  0  0  0  0  0  0  0  0
    5.7803   -2.3842   -0.2709 C   0  0  0  0  0  0  0  0  0  0  0  0
    6.0620   -2.0272    2.2616 C   0  0  1  0  0  0  0  0  0  0  0  0
    5.0750   -1.9910    1.0571 C   0  0  1  0  0  0  0  0  0  0  0  0
    4.7386    2.6140   -2.5395 C   0  0  0  0  0  0  0  0  0  0  0  0
    6.5181   -3.7083   -0.1741 C   0  0  0  0  0  0  0  0  0  0  0  0
    7.2850   -1.2582    1.9744 N   0  0  0  0  0  0  0  0  0  0  0  0
    4.8143    1.5475   -3.0975 O   0  0  0  0  0  0  0  0  0  0  0  0
    3.7759    3.5056   -2.9149 O   0  0  0  0  0  0  0  0  0  0  0  0
    7.6889   -3.8122    0.1120 O   0  0  0  0  0  0  0  0  0  0  0  0
    5.7760   -4.8312   -0.3758 O   0  0  0  0  0  0  0  0  0  0  0  0
    4.4715   -2.0073    3.7573 H   0  0  0  0  0  0  0  0  0  0  0  0
    5.2591   -0.4312    3.5166 H   0  0  0  0  0  0  0  0  0  0  0  0
    6.0895   -1.7155    4.4084 H   0  0  0  0  0  0  0  0  0  0  0  0
    3.6362    1.9587    1.3052 H   0  0  0  0  0  0  0  0  0  0  0  0
    3.3312    1.6083   -0.3875 H   0  0  0  0  0  0  0  0  0  0  0  0
    5.8723    0.7472    1.1240 H   0  0  0  0  0  0  0  0  0  0  0  0
    5.4954    0.3847   -0.5526 H   0  0  0  0  0  0  0  0  0  0  0  0
    5.5889    3.3566    0.7460 H   0  0  0  0  0  0  0  0  0  0  0  0
    4.1355    3.9243   -0.0557 H   0  0  0  0  0  0  0  0  0  0  0  0
    3.4804   -0.8851    0.1247 H   0  0  0  0  0  0  0  0  0  0  0  0
    3.7346   -0.4698    1.8041 H   0  0  0  0  0  0  0  0  0  0  0  0
    6.4550    2.3446   -1.3300 H   0  0  0  0  0  0  0  0  0  0  0  0
    6.0504    4.0417   -1.5979 H   0  0  0  0  0  0  0  0  0  0  0  0
    6.5189   -1.6261   -0.5367 H   0  0  0  0  0  0  0  0  0  0  0  0
    5.0379   -2.4129   -1.0799 H   0  0  0  0  0  0  0  0  0  0  0  0
    6.2927   -3.0950    2.4257 H   0  0  0  0  0  0  0  0  0  0  0  0
    4.3328   -2.7756    1.2755 H   0  0  0  0  0  0  0  0  0  0  0  0
    7.8650   -1.8002    1.3326 H   0  0  0  0  0  0  0  0  0  0  0  0
    7.8298   -1.1778    2.8326 H   0  0  0  0  0  0  0  0  0  0  0  0
    3.8482    4.3145   -2.3819 H   0  0  0  0  0  0  0  0  0  0  0  0
    4.8679   -4.5864   -0.6178 H   0  0  0  0  0  0  0  0  0  0  0  0
  1 17  1  0
  1 19  1  0
  2  3  1  0
  2 20  1  0
  3  5  1  0
  3 22  1  0
  4  2  1  0
  4 24  1  0
  5  9  1  0
  5 27  1  0
  6 28  1  0
  6  4  1  0
  7 11  1  0
  7  9  1  0
  8 32  1  1
  8  1  1  0
  9 33  1  1
  9  8  1  0
 10  6  1  0
 11 15  2  0
 12  8  1  0
 12 35  1  0
 13 10  2  0
 14 10  1  0
 14 36  1  0
 16 11  1  0
 18  1  1  0
 21  2  1  0
 23  3  1  0
 25  4  1  0
 26  5  1  0
 29  6  1  0
 30  7  1  0
 31  7  1  0
 34 12  1  0
 37 16  1  0
M  END
>  <HBA>  (446) 
5

>  <HBD>  (446) 
3

>  <TPSA>  (446) 
100.62

>  <cid>  (446) 
1621

>  <dipole>  (446) 
5.12

>  <excitation_energy_1>  (446) 
5.435

>  <excitation_energy_2>  (446) 
5.52

>  <excitation_energy_3>  (446) 
5.558

>  <excitation_energy_4>  (446) 
5.583

>  <homo_energy>  (446) 
-6.289

>  <homo_lumo_gap>  (446) 
6.449

>  <logP>  (446) 
2.16

>  <lumo_energy>  (446) 
0.161

>  <melting_point>  (446) 
178.68

>  <molecular_refractivity>  (446) 
61.24

>  <oscillator_strength_1>  (446) 
0.0027

>  <oscillator_strength_2>  (446) 
0.0021

>  <oscillator_strength_3>  (446) 
0.0002

>  <oscillator_strength_4>  (446) 
0.0024

>  <open_babel_can_smiles>  (446) 
OC(=O)CCCCC[C@H]([C@@H](N)C)CC(=O)O

>  <mulliken_charges>  (446) 
37
1   -0.462722
2   -0.265622
3   -0.271839
4   -0.272737
5   -0.271487
6   -0.383747
7   -0.399126
8   0.032854
9   -0.077251
10   0.597153
11   0.596891
12   -0.741276
13   -0.444595
14   -0.564872
15   -0.452195
16   -0.562156
17   0.144758
18   0.157474
19   0.142166
20   0.132136
21   0.144928
22   0.169197
23   0.151944
24   0.152917
25   0.123155
26   0.127848
27   0.134744
28   0.187182
29   0.152446
30   0.196337
31   0.148774
32   0.127076
33   0.111654
34   0.323398
35   0.29352
36   0.409281
37   0.411794

>  <lowdin_charges>  (446) 
37
1   -0.448974
2   -0.280743
3   -0.290943
4   -0.274292
5   -0.275354
6   -0.321881
7   -0.322149
8   -0.064443
9   -0.127425
10   0.194833
11   0.194226
12   -0.565474
13   -0.242429
14   -0.362355
15   -0.251859
16   -0.352084
17   0.151874
18   0.151813
19   0.150409
20   0.142815
21   0.145351
22   0.157841
23   0.148521
24   0.153492
25   0.136423
26   0.140557
27   0.144003
28   0.175863
29   0.157269
30   0.181071
31   0.156755
32   0.124895
33   0.135184
34   0.265029
35   0.254801
36   0.358051
37   0.359328

$$$$
PCCDB-ID:  1629
     RDKit          3D

 22 22  0  0  0  0  0  0  0  0999 V2000
   -1.3496   -0.4205    0.0413 C   0  0  0  0  0  0  0  0  0  0  0  0
   -0.1197   -1.0619    0.1024 C   0  0  0  0  0  0  0  0  0  0  0  0
   -1.3793    0.9738    0.1231 C   0  0  0  0  0  0  0  0  0  0  0  0
    2.3829   -1.0577    0.3397 C   0  0  0  0  0  0  0  0  0  0  0  0
    1.0706   -0.3257    0.2237 C   0  0  0  0  0  0  0  0  0  0  0  0
    0.9271    1.0740    0.2524 C   0  0  0  0  0  0  0  0  0  0  0  0
    2.0789    2.0509    0.3218 C   0  0  0  0  0  0  0  0  0  0  0  0
   -0.2669    1.6953    0.2274 N   0  0  0  0  0  0  0  0  0  0  0  0
    3.2555    1.7509    0.1800 O   0  0  0  0  0  0  0  0  0  0  0  0
    1.7039    3.3064    0.5448 O   0  0  0  0  0  0  0  0  0  0  0  0
    2.1401   -2.1147   -2.1639 O   0  0  0  0  0  0  0  0  0  0  0  0
    3.3962    0.0405   -1.9518 O   0  0  0  0  0  0  0  0  0  0  0  0
    4.4949   -2.2072   -1.0569 O   0  0  0  0  0  0  0  0  0  0  0  0
    3.2690   -1.3918   -1.2387 P   0  0  0  0  0  0  0  0  0  0  0  0
   -2.2720   -0.9846   -0.0534 H   0  0  0  0  0  0  0  0  0  0  0  0
   -0.0650   -2.1457    0.0589 H   0  0  0  0  0  0  0  0  0  0  0  0
   -2.3174    1.5230    0.1047 H   0  0  0  0  0  0  0  0  0  0  0  0
    2.2224   -2.0389    0.7982 H   0  0  0  0  0  0  0  0  0  0  0  0
    3.0916   -0.5110    0.9662 H   0  0  0  0  0  0  0  0  0  0  0  0
    0.7148    3.2916    0.5545 H   0  0  0  0  0  0  0  0  0  0  0  0
    2.5375   -2.8999   -2.5766 H   0  0  0  0  0  0  0  0  0  0  0  0
    3.5966    0.7421   -1.2884 H   0  0  0  0  0  0  0  0  0  0  0  0
  1  2  2  0
  1  3  1  0
  2  5  1  0
  3  8  2  0
  4 18  1  0
  4 19  1  0
  5  6  2  0
  5  4  1  0
  6  7  1  0
  7 10  1  0
  8  6  1  0
  9  7  2  0
 10 20  1  0
 11 14  1  0
 12 22  1  0
 12 14  1  0
 14 13  2  0
 14  4  1  0
 15  1  1  0
 16  2  1  0
 17  3  1  0
 21 11  1  0
M  END
>  <HBA>  (447) 
6

>  <HBD>  (447) 
3

>  <TPSA>  (447) 
117.53

>  <cid>  (447) 
1629

>  <dipole>  (447) 
7.37

>  <excitation_energy_1>  (447) 
4.367

>  <excitation_energy_2>  (447) 
4.58

>  <excitation_energy_3>  (447) 
4.837

>  <excitation_energy_4>  (447) 
4.998

>  <homo_energy>  (447) 
-7.478

>  <homo_lumo_gap>  (447) 
5.165

>  <logP>  (447) 
0.458

>  <lumo_energy>  (447) 
-2.313

>  <melting_point>  (447) 
201.32

>  <molecular_refractivity>  (447) 
47.15

>  <oscillator_strength_1>  (447) 
0.004

>  <oscillator_strength_2>  (447) 
0.0433

>  <oscillator_strength_3>  (447) 
0.0017

>  <oscillator_strength_4>  (447) 
0.013

>  <open_babel_can_smiles>  (447) 
OC(=O)c1ncccc1CP(=O)(O)O

>  <mulliken_charges>  (447) 
22
1   -0.139368
2   -0.122684
3   0.053757
4   -0.609652
5   0.150417
6   0.212349
7   0.618473
8   -0.547931
9   -0.512961
10   -0.56423
11   -0.660234
12   -0.66731
13   -0.541794
14   1.075843
15   0.161205
16   0.165294
17   0.164711
18   0.196082
19   0.226945
20   0.437081
21   0.439497
22   0.46451

>  <lowdin_charges>  (447) 
22
1   -0.149751
2   -0.111902
3   -0.080332
4   -0.464093
5   0.017632
6   -0.006511
7   0.199718
8   -0.153991
9   -0.277855
10   -0.315753
11   -0.580309
12   -0.578914
13   -0.589596
14   1.051338
15   0.176661
16   0.173857
17   0.169081
18   0.187808
19   0.203814
20   0.36408
21   0.384387
22   0.380632

$$$$
PCCDB-ID:  1630
     RDKit          3D

 19 18  0  0  0  0  0  0  0  0999 V2000
    1.5309    2.4701    0.6023 C   0  0  0  0  0  0  0  0  0  0  0  0
    2.5972    2.4118   -0.1977 C   0  0  0  0  0  0  0  0  0  0  0  0
    6.5888   -1.0920   -1.1653 C   0  0  0  0  0  0  0  0  0  0  0  0
    6.9670   -2.2782   -0.6736 C   0  0  0  0  0  0  0  0  0  0  0  0
    3.1248    1.1560   -0.8139 C   0  0  0  0  0  0  0  0  0  0  0  0
    5.1626   -0.6678   -1.2858 C   0  0  0  0  0  0  0  0  0  0  0  0
    5.7320    1.9302   -0.7095 O   0  0  0  0  0  0  0  0  0  0  0  0
    8.6124   -2.8947   -0.4639 S   0  0  0  0  0  0  0  0  0  0  0  0
    4.8519    0.8163   -0.1841 S   0  0  0  0  0  0  0  0  0  0  0  0
    1.1914    3.4098    1.0284 H   0  0  0  0  0  0  0  0  0  0  0  0
    0.9517    1.5841    0.8550 H   0  0  0  0  0  0  0  0  0  0  0  0
    3.1578    3.3157   -0.4293 H   0  0  0  0  0  0  0  0  0  0  0  0
    7.3274   -0.3602   -1.4867 H   0  0  0  0  0  0  0  0  0  0  0  0
    6.2302   -3.0106   -0.3492 H   0  0  0  0  0  0  0  0  0  0  0  0
    3.2215    1.2499   -1.9029 H   0  0  0  0  0  0  0  0  0  0  0  0
    2.5066    0.2838   -0.5716 H   0  0  0  0  0  0  0  0  0  0  0  0
    4.4636   -1.4556   -0.9826 H   0  0  0  0  0  0  0  0  0  0  0  0
    4.9226   -0.3359   -2.3039 H   0  0  0  0  0  0  0  0  0  0  0  0
    9.2623   -1.7941   -0.8996 H   0  0  0  0  0  0  0  0  0  0  0  0
  1 11  1  0
  1 10  1  0
  2  1  2  3
  3  4  2  0
  4  8  1  0
  4 14  1  0
  5 16  1  0
  5  2  1  0
  5  9  1  0
  6  3  1  0
  6 17  1  0
  6  9  1  0
  9  7  2  0
 12  2  1  0
 13  3  1  0
 15  5  1  0
 18  6  1  0
 19  8  1  0
M  END
>  <HBA>  (448) 
2

>  <HBD>  (448) 
1

>  <TPSA>  (448) 
75.08

>  <cid>  (448) 
1630

>  <dipole>  (448) 
3.25

>  <excitation_energy_1>  (448) 
4.623

>  <excitation_energy_2>  (448) 
4.915

>  <excitation_energy_3>  (448) 
5.015

>  <excitation_energy_4>  (448) 
5.262

>  <homo_energy>  (448) 
-5.927

>  <homo_lumo_gap>  (448) 
5.377

>  <logP>  (448) 
2.23

>  <lumo_energy>  (448) 
-0.55

>  <melting_point>  (448) 
2.19

>  <molecular_refractivity>  (448) 
46.21

>  <oscillator_strength_1>  (448) 
0.0641

>  <oscillator_strength_2>  (448) 
0.0128

>  <oscillator_strength_3>  (448) 
0.2792

>  <oscillator_strength_4>  (448) 
0.2666

>  <open_babel_can_smiles>  (448) 
C=CC[S@](=O)C/C=C/S

>  <mulliken_charges>  (448) 
19
1   -0.32764
2   -0.053865
3   -0.082192
4   -0.281032
5   -0.503998
6   -0.503286
7   -0.636994
8   -0.002491
9   0.778772
10   0.152475
11   0.140245
12   0.166497
13   0.163816
14   0.172615
15   0.188232
16   0.167087
17   0.167604
18   0.187982
19   0.10617

>  <lowdin_charges>  (448) 
19
1   -0.32528
2   -0.153063
3   -0.191855
4   -0.276191
5   -0.417573
6   -0.412718
7   -0.677649
8   0.009811
9   0.805588
10   0.165708
11   0.156619
12   0.171087
13   0.171427
14   0.175952
15   0.168714
16   0.167408
17   0.168122
18   0.16912
19   0.124772

$$$$
PCCDB-ID:  1639
     RDKit          3D

 10 10  0  0  0  0  0  0  0  0999 V2000
   -1.0861    0.0153   -0.1193 C   0  0  0  0  0  3  0  0  0  0  0  0
    0.9386   -0.6873    0.0899 C   0  0  0  0  0  0  0  0  0  0  0  0
    1.9968   -1.3930    0.0896 N   0  0  0  0  0  2  0  0  0  0  0  0
   -0.4196   -1.0827   -0.0160 N   0  0  0  0  0  0  0  0  0  0  0  0
   -0.3305    1.1727   -0.1663 N   0  0  0  0  0  0  0  0  0  0  0  0
    0.9769    0.7367    0.1944 N   0  0  0  0  0  0  0  0  0  0  0  0
   -2.1675    0.0797   -0.1928 H   0  0  0  0  0  0  0  0  0  0  0  0
    1.7385   -2.3768    0.0026 H   0  0  0  0  0  0  0  0  0  0  0  0
   -0.6553    1.9529    0.4017 H   0  0  0  0  0  0  0  0  0  0  0  0
    1.6902    1.1636   -0.3898 H   0  0  0  0  0  0  0  0  0  0  0  0
  1  4  1  0
  2  6  1  0
  3  2  1  0
  4  2  2  0
  5  1  1  0
  5  6  1  0
  5  9  1  0
  7  1  1  0
  8  3  1  0
 10  6  1  0
M  RAD  2   1   2   3   2
M  END
>  <HBA>  (449) 
3

>  <HBD>  (449) 
2

>  <TPSA>  (449) 
67.59

>  <cid>  (449) 
1639

>  <dipole>  (449) 
4.33

>  <excitation_energy_1>  (449) 
4.732

>  <excitation_energy_2>  (449) 
5.183

>  <excitation_energy_3>  (449) 
5.353

>  <excitation_energy_4>  (449) 
5.78

>  <homo_energy>  (449) 
-5.976

>  <homo_lumo_gap>  (449) 
5.284

>  <logP>  (449) 
-0.032

>  <lumo_energy>  (449) 
-0.691

>  <melting_point>  (449) 
130.76

>  <molecular_refractivity>  (449) 
20.79

>  <oscillator_strength_1>  (449) 
0.1063

>  <oscillator_strength_2>  (449) 
0.0026

>  <oscillator_strength_3>  (449) 
0.007

>  <oscillator_strength_4>  (449) 
0.0038

>  <open_babel_can_smiles>  (449) 
[NH]C1=N[CH]NN1

>  <mulliken_charges>  (449) 
10
1   0.238201
2   0.560171
3   -0.65628
4   -0.440682
5   -0.423196
6   -0.456831
7   0.177562
8   0.29744
9   0.350086
10   0.35353

>  <lowdin_charges>  (449) 
10
1   -0.026877
2   0.100205
3   -0.428482
4   -0.201641
5   -0.219863
6   -0.249267
7   0.173919
8   0.266341
9   0.29173
10   0.293935

$$$$
PCCDB-ID:  1645
     RDKit          3D

 18 18  0  0  0  0  0  0  0  0999 V2000
   -0.7581    1.1640    0.0697 C   0  0  0  0  0  0  0  0  0  0  0  0
   -1.3883   -0.0798    0.0025 C   0  0  0  0  0  0  0  0  0  0  0  0
    0.6289    1.2643    0.0465 C   0  0  0  0  0  0  0  0  0  0  0  0
    0.7883   -1.1429   -0.0984 C   0  0  0  0  0  0  0  0  0  0  0  0
   -0.6062   -1.2421   -0.0755 C   0  0  0  0  0  0  0  0  0  0  0  0
    1.4249    0.1064   -0.0384 C   0  0  0  0  0  0  0  0  0  0  0  0
   -1.2512   -2.5918   -0.1295 C   0  0  0  0  0  0  0  0  0  0  0  0
    2.8148    0.1966   -0.0139 N   0  0  0  0  0  0  0  0  0  0  0  0
   -0.8512   -3.6620    0.4299 N   0  0  0  0  0  0  0  0  0  0  0  0
   -2.4094   -2.6555   -0.8494 O   0  0  0  0  0  0  0  0  0  0  0  0
   -1.3565    2.0679    0.1458 H   0  0  0  0  0  0  0  0  0  0  0  0
   -2.4709   -0.1487    0.0562 H   0  0  0  0  0  0  0  0  0  0  0  0
    1.1073    2.2394    0.1006 H   0  0  0  0  0  0  0  0  0  0  0  0
    1.3864   -2.0473   -0.1829 H   0  0  0  0  0  0  0  0  0  0  0  0
    3.2009    1.0766   -0.3312 H   0  0  0  0  0  0  0  0  0  0  0  0
    3.3110   -0.5954   -0.4022 H   0  0  0  0  0  0  0  0  0  0  0  0
   -0.0246   -3.4640    0.9956 H   0  0  0  0  0  0  0  0  0  0  0  0
   -2.4840   -1.8488   -1.3829 H   0  0  0  0  0  0  0  0  0  0  0  0
  1 11  1  0
  2 12  1  0
  2  1  2  0
  3  1  1  0
  3 13  1  0
  4  5  2  0
  4  6  1  0
  5  2  1  0
  6  8  1  0
  6  3  2  0
  7  5  1  0
  7  9  2  0
  9 17  1  0
 10  7  1  0
 14  4  1  0
 15  8  1  0
 16  8  1  0
 18 10  1  0
M  END
>  <HBA>  (450) 
3

>  <HBD>  (450) 
2

>  <TPSA>  (450) 
69.11

>  <cid>  (450) 
1645

>  <dipole>  (450) 
5.84

>  <excitation_energy_1>  (450) 
4.334

>  <excitation_energy_2>  (450) 
4.994

>  <excitation_energy_3>  (450) 
5.046

>  <excitation_energy_4>  (450) 
5.205

>  <homo_energy>  (450) 
-5.946

>  <homo_lumo_gap>  (450) 
5.091

>  <logP>  (450) 
1.649

>  <lumo_energy>  (450) 
-0.854

>  <melting_point>  (450) 
143.28

>  <molecular_refractivity>  (450) 
38.94

>  <oscillator_strength_1>  (450) 
0.0476

>  <oscillator_strength_2>  (450) 
0.0078

>  <oscillator_strength_3>  (450) 
0.0205

>  <oscillator_strength_4>  (450) 
0.0608

>  <open_babel_can_smiles>  (450) 
Nc1cccc(c1)C(=N)O

>  <mulliken_charges>  (450) 
18
1   -0.134851
2   -0.207491
3   -0.166251
4   -0.223776
5   0.068372
6   0.319196
7   0.417535
8   -0.789904
9   -0.584154
10   -0.577286
11   0.137259
12   0.139546
13   0.125989
14   0.131838
15   0.325388
16   0.32666
17   0.286803
18   0.405125

>  <lowdin_charges>  (450) 
18
1   -0.139865
2   -0.198183
3   -0.191747
4   -0.200772
5   -0.037553
6   0.068938
7   0.12646
8   -0.484401
9   -0.391958
10   -0.364087
11   0.16254
12   0.159706
13   0.157171
14   0.160276
15   0.27945
16   0.280819
17   0.258461
18   0.354745

$$$$
PCCDB-ID:  1646
     RDKit          3D

 17 16  0  0  0  0  0  0  0  0999 V2000
    1.0802   -0.1558   -0.0122 C   0  0  0  0  0  0  0  0  0  0  0  0
    0.4895   -0.9953   -1.1526 C   0  0  0  0  0  0  0  0  0  0  0  0
    2.6069   -0.0905   -0.1008 C   0  0  0  0  0  0  0  0  0  0  0  0
    0.8450   -0.4239   -2.4562 N   0  0  0  0  0  0  0  0  0  0  0  0
    4.8927    0.7908    0.8612 O   0  0  0  0  0  0  0  0  0  0  0  0
    2.9868    2.4109    0.8165 O   0  0  0  0  0  1  0  0  0  0  0  0
    2.9758    0.4858    2.4762 O   0  0  0  0  0  1  0  0  0  0  0  0
    3.2816    1.0148    1.1523 S   0  0  0  0  0  0  0  0  0  0  0  0
    0.7785   -0.5783    0.9521 H   0  0  0  0  0  0  0  0  0  0  0  0
    0.6722    0.8624   -0.0590 H   0  0  0  0  0  0  0  0  0  0  0  0
   -0.5968   -1.0907   -0.9821 H   0  0  0  0  0  0  0  0  0  0  0  0
    0.9047   -2.0102   -1.1098 H   0  0  0  0  0  0  0  0  0  0  0  0
    2.9293    0.2874   -1.0730 H   0  0  0  0  0  0  0  0  0  0  0  0
    3.0699   -1.0664    0.0753 H   0  0  0  0  0  0  0  0  0  0  0  0
    0.3239    0.4390   -2.6084 H   0  0  0  0  0  0  0  0  0  0  0  0
    0.5692   -1.0582   -3.2031 H   0  0  0  0  0  0  0  0  0  0  0  0
    5.2717    1.6824    0.7432 H   0  0  0  0  0  0  0  0  0  0  0  0
  1  9  1  0
  2 12  1  0
  2 11  1  0
  2  1  1  0
  3  1  1  0
  3 14  1  0
  3  8  1  0
  4  2  1  0
  5  8  1  0
  6  8  1  0
  8  7  1  0
 10  1  1  0
 13  3  1  0
 15  4  1  0
 16  4  1  0
 17  5  1  0
M  RAD  2   6   2   7   2
M  END
>  <HBA>  (451) 
4

>  <HBD>  (451) 
2

>  <TPSA>  (451) 
88.77

>  <cid>  (451) 
1646

>  <dipole>  (451) 
4.31

>  <excitation_energy_1>  (451) 
5.808

>  <excitation_energy_2>  (451) 
6.467

>  <excitation_energy_3>  (451) 
6.707

>  <excitation_energy_4>  (451) 
6.864

>  <homo_energy>  (451) 
-6.841

>  <homo_lumo_gap>  (451) 
7.856

>  <logP>  (451) 
1.004

>  <lumo_energy>  (451) 
1.015

>  <melting_point>  (451) 
110.66

>  <molecular_refractivity>  (451) 
29.78

>  <oscillator_strength_1>  (451) 
0.01

>  <oscillator_strength_2>  (451) 
0.0018

>  <oscillator_strength_3>  (451) 
0.0272

>  <oscillator_strength_4>  (451) 
0.0356

>  <open_babel_can_smiles>  (451) 
NCCCS([O])(O)[O]

>  <mulliken_charges>  (451) 
17
1   -0.287065
2   -0.146446
3   -0.453955
4   -0.717813
5   -0.650127
6   -0.532757
7   -0.493569
8   1.188766
9   0.174456
10   0.167608
11   0.132714
12   0.146949
13   0.224388
14   0.200959
15   0.30168
16   0.305733
17   0.438479

>  <lowdin_charges>  (451) 
17
1   -0.283222
2   -0.198815
3   -0.417152
4   -0.561038
5   -0.591434
6   -0.594199
7   -0.56631
8   1.334109
9   0.165395
10   0.158056
11   0.12784
12   0.14423
13   0.19724
14   0.186451
15   0.257251
16   0.262022
17   0.379575

$$$$
PCCDB-ID:  1647
     RDKit          3D

 11 10  0  0  0  0  0  0  0  0999 V2000
    1.0341   -0.0735   -0.0400 C   0  0  0  0  0  0  0  0  0  0  0  0
    0.4915    0.6848   -1.2687 C   0  0  0  0  0  0  0  0  0  0  0  0
    2.4981   -0.0876    0.0095 C   0  0  0  0  0  0  0  0  0  0  0  0
   -0.9705    0.6770   -1.2230 N   0  0  0  0  0  0  0  0  0  0  0  0
    3.6587   -0.0858    0.0312 N   0  0  0  0  0  0  0  0  0  0  0  0
    0.6757   -1.1112   -0.0504 H   0  0  0  0  0  0  0  0  0  0  0  0
    0.6394    0.3908    0.8705 H   0  0  0  0  0  0  0  0  0  0  0  0
    0.9296    0.2488   -2.1820 H   0  0  0  0  0  0  0  0  0  0  0  0
    0.8305    1.7246   -1.2172 H   0  0  0  0  0  0  0  0  0  0  0  0
   -1.3245   -0.2419   -1.4856 H   0  0  0  0  0  0  0  0  0  0  0  0
   -1.3417    1.3308   -1.9091 H   0  0  0  0  0  0  0  0  0  0  0  0
  1  3  1  0
  1  7  1  0
  2  4  1  0
  2  9  1  0
  2  1  1  0
  3  5  3  0
  6  1  1  0
  8  2  1  0
 10  4  1  0
 11  4  1  0
M  END
>  <HBA>  (452) 
2

>  <HBD>  (452) 
1

>  <TPSA>  (452) 
49.81

>  <cid>  (452) 
1647

>  <dipole>  (452) 
4.16

>  <excitation_energy_1>  (452) 
5.829

>  <excitation_energy_2>  (452) 
6.748

>  <excitation_energy_3>  (452) 
6.94

>  <excitation_energy_4>  (452) 
7.162

>  <homo_energy>  (452) 
-6.966

>  <homo_lumo_gap>  (452) 
7.932

>  <logP>  (452) 
0.559

>  <lumo_energy>  (452) 
0.966

>  <melting_point>  (452) 
63.58

>  <molecular_refractivity>  (452) 
18.99

>  <oscillator_strength_1>  (452) 
0.0143

>  <oscillator_strength_2>  (452) 
0.0015

>  <oscillator_strength_3>  (452) 
0.0114

>  <oscillator_strength_4>  (452) 
0.0078

>  <open_babel_can_smiles>  (452) 
NCCC#N

>  <mulliken_charges>  (452) 
11
1   -0.32873
2   -0.142873
3   0.345243
4   -0.715596
5   -0.472544
6   0.186497
7   0.20801
8   0.143174
9   0.166715
10   0.30076
11   0.309344

>  <lowdin_charges>  (452) 
11
1   -0.275745
2   -0.195267
3   -0.019908
4   -0.555644
5   -0.128979
6   0.176164
7   0.18906
8   0.133667
9   0.155461
10   0.256407
11   0.264785

$$$$
PCCDB-ID:  1650
     RDKit          3D

 32 32  0  0  1  0  0  0  0  0999 V2000
    0.5342    1.1322    0.8466 C   0  0  0  0  0  0  0  0  0  0  0  0
   -0.1887    1.5368   -1.5334 C   0  0  0  0  0  0  0  0  0  0  0  0
    0.0874   -2.0632   -2.3003 C   0  0  0  0  0  0  0  0  0  0  0  0
    2.8027    0.4832   -1.3219 C   0  0  0  0  0  0  0  0  0  0  0  0
    0.2984    0.4821   -0.5292 C   0  0  0  0  0  0  0  0  0  0  0  0
    1.4332   -1.3296   -2.1443 C   0  0  2  0  0  0  0  0  0  0  0  0
    1.5490   -0.3394   -0.9452 C   0  0  1  0  0  0  0  0  0  0  0  0
    0.2441   -3.3326   -3.1467 C   0  0  0  0  0  0  0  0  0  0  0  0
    2.0022   -0.5578   -3.3746 C   0  0  1  0  0  0  0  0  0  0  0  0
    0.9931    0.1143   -4.3339 C   0  0  0  0  0  0  0  0  0  0  0  0
    2.8781    0.4914   -2.8084 N   0  0  0  0  0  0  0  0  0  0  0  0
    0.4342   -4.4173   -2.6440 O   0  0  0  0  0  0  0  0  0  0  0  0
    0.2188   -3.1710   -4.4793 O   0  0  0  0  0  0  0  0  0  0  0  0
    0.1101   -0.4905   -4.9240 O   0  0  0  0  0  0  0  0  0  0  0  0
    1.2002    1.4097   -4.5075 O   0  0  0  0  0  0  0  0  0  0  0  0
   -0.3811    1.6149    1.2063 H   0  0  0  0  0  0  0  0  0  0  0  0
    1.3129    1.9041    0.8030 H   0  0  0  0  0  0  0  0  0  0  0  0
    0.8390    0.3922    1.5961 H   0  0  0  0  0  0  0  0  0  0  0  0
   -1.0322    2.0923   -1.1078 H   0  0  0  0  0  0  0  0  0  0  0  0
   -0.5381    1.0997   -2.4724 H   0  0  0  0  0  0  0  0  0  0  0  0
    0.5917    2.2698   -1.7701 H   0  0  0  0  0  0  0  0  0  0  0  0
   -0.6834   -1.4043   -2.7099 H   0  0  0  0  0  0  0  0  0  0  0  0
   -0.2371   -2.4010   -1.3127 H   0  0  0  0  0  0  0  0  0  0  0  0
    3.7012    0.0146   -0.9007 H   0  0  0  0  0  0  0  0  0  0  0  0
    2.7649    1.5112   -0.9481 H   0  0  0  0  0  0  0  0  0  0  0  0
   -0.5144   -0.2456   -0.3976 H   0  0  0  0  0  0  0  0  0  0  0  0
    2.1798   -2.1081   -1.9408 H   0  0  0  0  0  0  0  0  0  0  0  0
    1.7929   -0.9461   -0.0648 H   0  0  0  0  0  0  0  0  0  0  0  0
    2.5665   -1.2521   -4.0090 H   0  0  0  0  0  0  0  0  0  0  0  0
    3.8371    0.3901   -3.1261 H   0  0  0  0  0  0  0  0  0  0  0  0
    0.0729   -2.2202   -4.7128 H   0  0  0  0  0  0  0  0  0  0  0  0
    1.9519    1.6066   -3.8721 H   0  0  0  0  0  0  0  0  0  0  0  0
  1 16  1  0
  1 18  1  0
  2 19  1  0
  2  5  1  0
  3  6  1  0
  3 23  1  0
  4 25  1  0
  4  7  1  0
  4 24  1  0
  5 26  1  0
  5  1  1  0
  6 27  1  1
  6  7  1  0
  7  5  1  0
  7 28  1  1
  8 12  2  0
  8  3  1  0
  9 29  1  6
  9 11  1  0
  9  6  1  0
 10  9  1  0
 11  4  1  0
 13  8  1  0
 14 10  2  0
 15 10  1  0
 15 32  1  0
 17  1  1  0
 20  2  1  0
 21  2  1  0
 22  3  1  0
 30 11  1  0
 31 13  1  0
M  END
>  <HBA>  (453) 
5

>  <HBD>  (453) 
3

>  <TPSA>  (453) 
86.63

>  <cid>  (453) 
1650

>  <dipole>  (453) 
7.31

>  <excitation_energy_1>  (453) 
5.368

>  <excitation_energy_2>  (453) 
5.582

>  <excitation_energy_3>  (453) 
5.631

>  <excitation_energy_4>  (453) 
5.968

>  <homo_energy>  (453) 
-6.825

>  <homo_lumo_gap>  (453) 
6.425

>  <logP>  (453) 
0.735

>  <lumo_energy>  (453) 
-0.4

>  <melting_point>  (453) 
174.86

>  <molecular_refractivity>  (453) 
58.33

>  <oscillator_strength_1>  (453) 
0.0004

>  <oscillator_strength_2>  (453) 
0.001

>  <oscillator_strength_3>  (453) 
0.0028

>  <oscillator_strength_4>  (453) 
0.0003

>  <open_babel_can_smiles>  (453) 
OC(=O)C[C@@H]1[C@@H](CN[C@@H]1C(=O)O)C(C)C

>  <mulliken_charges>  (453) 
32
1   -0.453182
2   -0.474539
3   -0.382476
4   -0.136004
5   -0.081438
6   -0.115461
7   -0.118284
8   0.569318
9   -0.094583
10   0.64689
11   -0.650438
12   -0.46005
13   -0.598002
14   -0.506877
15   -0.565545
16   0.152179
17   0.142901
18   0.145218
19   0.152945
20   0.169073
21   0.142068
22   0.172304
23   0.174832
24   0.148152
25   0.162088
26   0.139575
27   0.16391
28   0.145441
29   0.190123
30   0.329523
31   0.451066
32   0.439272

>  <lowdin_charges>  (453) 
32
1   -0.447785
2   -0.455941
3   -0.320308
4   -0.204632
5   -0.127873
6   -0.12547
7   -0.140168
8   0.18519
9   -0.119983
10   0.186993
11   -0.36598
12   -0.265953
13   -0.369488
14   -0.279904
15   -0.329081
16   0.15516
17   0.146072
18   0.150377
19   0.157562
20   0.157376
21   0.147704
22   0.165356
23   0.17245
24   0.145581
25   0.151237
26   0.146701
27   0.161743
28   0.155396
29   0.176436
30   0.272575
31   0.358122
32   0.360538

$$$$
PCCDB-ID:  1653
     RDKit          3D

 22 22  0  0  1  0  0  0  0  0999 V2000
   -1.2235   -0.3370   -0.1467 C   0  0  0  0  0  0  0  0  0  0  0  0
    0.5828    1.4260   -0.3597 C   0  0  0  0  0  0  0  0  0  0  0  0
   -0.9291    1.1461   -0.1650 C   0  0  1  0  0  0  0  0  0  0  0  0
   -0.2702   -1.2628    0.0232 C   0  0  0  0  0  0  0  0  0  0  0  0
    1.4426    0.5164    0.5123 C   0  0  2  0  0  0  0  0  0  0  0  0
    1.2069   -0.9611    0.1507 C   0  0  1  0  0  0  0  0  0  0  0  0
   -1.6997    1.8864   -1.2642 C   0  0  0  0  0  0  0  0  0  0  0  0
   -0.4889   -2.6132    0.1078 O   0  0  0  0  0  0  0  0  0  0  0  0
    1.1052    0.7437    1.8676 O   0  0  0  0  0  0  0  0  0  0  0  0
    1.7993   -1.7371    1.1915 O   0  0  0  0  0  0  0  0  0  0  0  0
   -2.1016    3.0176   -1.1612 O   0  0  0  0  0  0  0  0  0  0  0  0
   -1.8632    1.1938   -2.4250 O   0  0  0  0  0  0  0  0  0  0  0  0
   -2.2697   -0.6457   -0.1900 H   0  0  0  0  0  0  0  0  0  0  0  0
    0.7892    2.4728   -0.1191 H   0  0  0  0  0  0  0  0  0  0  0  0
    0.8613    1.2713   -1.4111 H   0  0  0  0  0  0  0  0  0  0  0  0
   -1.2430    1.5987    0.7814 H   0  0  0  0  0  0  0  0  0  0  0  0
    2.5077    0.7400    0.3377 H   0  0  0  0  0  0  0  0  0  0  0  0
    1.7025   -1.1890   -0.8073 H   0  0  0  0  0  0  0  0  0  0  0  0
   -1.4435   -2.7919    0.1209 H   0  0  0  0  0  0  0  0  0  0  0  0
    1.4243   -0.0420    2.3471 H   0  0  0  0  0  0  0  0  0  0  0  0
    1.3664   -2.6068    1.1825 H   0  0  0  0  0  0  0  0  0  0  0  0
   -1.4991    0.2972   -2.3008 H   0  0  0  0  0  0  0  0  0  0  0  0
  1  4  2  0
  2  3  1  0
  2 14  1  0
  2  5  1  0
  3  1  1  0
  3 16  1  1
  4  8  1  0
  4  6  1  0
  5 17  1  1
  5  9  1  0
  6 18  1  6
  6  5  1  0
  6 10  1  0
  7 11  2  0
  7  3  1  0
  8 19  1  0
  9 20  1  0
 12 22  1  0
 12  7  1  0
 13  1  1  0
 15  2  1  0
 21 10  1  0
M  END
>  <HBA>  (454) 
5

>  <HBD>  (454) 
4

>  <TPSA>  (454) 
97.99

>  <cid>  (454) 
1653

>  <dipole>  (454) 
5.73

>  <excitation_energy_1>  (454) 
5.375

>  <excitation_energy_2>  (454) 
5.552

>  <excitation_energy_3>  (454) 
5.873

>  <excitation_energy_4>  (454) 
6.131

>  <homo_energy>  (454) 
-6.778

>  <homo_lumo_gap>  (454) 
6.61

>  <logP>  (454) 
-0.745

>  <lumo_energy>  (454) 
-0.169

>  <melting_point>  (454) 
134.25

>  <molecular_refractivity>  (454) 
38.84

>  <oscillator_strength_1>  (454) 
0.0141

>  <oscillator_strength_2>  (454) 
0.0009

>  <oscillator_strength_3>  (454) 
0.0831

>  <oscillator_strength_4>  (454) 
0.0315

>  <open_babel_can_smiles>  (454) 
OC(=O)[C@@H]1C[C@@H](O)[C@H](C(=C1)O)O

>  <mulliken_charges>  (454) 
22
1   -0.26497
2   -0.305031
3   -0.197098
4   0.340596
5   0.123222
6   0.080921
7   0.585335
8   -0.645504
9   -0.637643
10   -0.651028
11   -0.448775
12   -0.57045
13   0.135816
14   0.182341
15   0.143143
16   0.196815
17   0.132318
18   0.144301
19   0.418626
20   0.41113
21   0.421039
22   0.404898

>  <lowdin_charges>  (454) 
22
1   -0.268745
2   -0.273722
3   -0.152458
4   0.078446
5   -0.002822
6   -0.025222
7   0.185328
8   -0.382314
9   -0.463806
10   -0.458624
11   -0.237898
12   -0.360751
13   0.15638
14   0.171609
15   0.148548
16   0.182453
17   0.13649
18   0.145807
19   0.363838
20   0.349428
21   0.356092
22   0.351941

$$$$
PCCDB-ID:  1662
     RDKit          3D

 21 20  0  0  0  0  0  0  0  0999 V2000
    0.9255   -0.5186    0.1231 C   0  0  0  0  0  0  0  0  0  0  0  0
    2.4988    1.0429   -1.1339 C   0  0  0  0  0  0  0  0  0  0  0  0
    2.6213    0.8481    1.3950 C   0  0  0  0  0  0  0  0  0  0  0  0
    2.4347    0.3276   -2.4769 C   0  0  0  0  0  0  0  0  0  0  0  0
    3.9909    1.5309    1.4897 C   0  0  0  0  0  0  0  0  0  0  0  0
    2.3322    0.0931    0.0827 C   0  0  0  0  0  0  0  0  0  0  0  0
    2.6683   -0.8547   -2.6282 O   0  0  0  0  0  0  0  0  0  0  0  0
    2.1370    1.0841   -3.5522 O   0  0  0  0  0  0  0  0  0  0  0  0
    4.1412    2.6257    1.9783 O   0  0  0  0  0  0  0  0  0  0  0  0
    5.0310    0.8211    1.0088 O   0  0  0  0  0  0  0  0  0  0  0  0
    3.3121   -0.9590    0.0160 O   0  0  0  0  0  0  0  0  0  0  0  0
    0.1576    0.2573    0.2214 H   0  0  0  0  0  0  0  0  0  0  0  0
    0.8446   -1.1965    0.9779 H   0  0  0  0  0  0  0  0  0  0  0  0
    0.7246   -1.0933   -0.7864 H   0  0  0  0  0  0  0  0  0  0  0  0
    1.7424    1.8364   -1.0874 H   0  0  0  0  0  0  0  0  0  0  0  0
    3.4805    1.5334   -1.0827 H   0  0  0  0  0  0  0  0  0  0  0  0
    1.8651    1.6162    1.5739 H   0  0  0  0  0  0  0  0  0  0  0  0
    2.5514    0.1194    2.2135 H   0  0  0  0  0  0  0  0  0  0  0  0
    1.9812    2.0064   -3.2880 H   0  0  0  0  0  0  0  0  0  0  0  0
    4.6863   -0.0238    0.6292 H   0  0  0  0  0  0  0  0  0  0  0  0
    3.2606   -1.3227   -0.8940 H   0  0  0  0  0  0  0  0  0  0  0  0
  1 12  1  0
  1 13  1  0
  2 15  1  0
  2 16  1  0
  2  6  1  0
  3  5  1  0
  3 17  1  0
  3 18  1  0
  4  2  1  0
  5  9  2  0
  6  1  1  0
  6  3  1  0
  7  4  2  0
  8 19  1  0
  8  4  1  0
 10  5  1  0
 11  6  1  0
 14  1  1  0
 20 10  1  0
 21 11  1  0
M  END
>  <HBA>  (455) 
5

>  <HBD>  (455) 
3

>  <TPSA>  (455) 
94.83

>  <cid>  (455) 
1662

>  <dipole>  (455) 
4.39

>  <excitation_energy_1>  (455) 
5.507

>  <excitation_energy_2>  (455) 
5.76

>  <excitation_energy_3>  (455) 
5.964

>  <excitation_energy_4>  (455) 
6.05

>  <homo_energy>  (455) 
-7.116

>  <homo_lumo_gap>  (455) 
6.373

>  <logP>  (455) 
-0.313

>  <lumo_energy>  (455) 
-0.743

>  <melting_point>  (455) 
157.4

>  <molecular_refractivity>  (455) 
35.7

>  <oscillator_strength_1>  (455) 
0.001

>  <oscillator_strength_2>  (455) 
0.0002

>  <oscillator_strength_3>  (455) 
0.0002

>  <oscillator_strength_4>  (455) 
0.003

>  <open_babel_can_smiles>  (455) 
OC(=O)CC(CC(=O)O)(O)C

>  <mulliken_charges>  (455) 
21
1   -0.46499
2   -0.428814
3   -0.377899
4   0.629046
5   0.574948
6   0.282564
7   -0.462647
8   -0.549174
9   -0.453774
10   -0.589533
11   -0.676575
12   0.145422
13   0.169176
14   0.168807
15   0.163908
16   0.21303
17   0.171731
18   0.187898
19   0.422042
20   0.438191
21   0.436643

>  <lowdin_charges>  (455) 
21
1   -0.458218
2   -0.342092
3   -0.32262
4   0.205375
5   0.177845
6   0.126227
7   -0.252653
8   -0.325844
9   -0.253077
10   -0.369378
11   -0.465895
12   0.154713
13   0.166615
14   0.164278
15   0.166907
16   0.189663
17   0.17408
18   0.180765
19   0.366143
20   0.359777
21   0.35739

$$$$
PCCDB-ID:  1663
     RDKit          3D

 20 20  0  0  0  0  0  0  0  0999 V2000
   -0.4403    1.6395    0.0962 C   0  0  0  0  0  0  0  0  0  0  0  0
   -1.1250    0.4271    0.0628 C   0  0  0  0  0  0  0  0  0  0  0  0
    0.9545    1.6747    0.0329 C   0  0  0  0  0  0  0  0  0  0  0  0
    0.9833   -0.7441   -0.1104 C   0  0  0  0  0  0  0  0  0  0  0  0
   -1.1396   -2.1035   -0.0596 C   0  0  0  0  0  0  0  0  0  0  0  0
   -0.4102   -0.7769   -0.0390 C   0  0  0  0  0  0  0  0  0  0  0  0
    1.6659    0.4768   -0.0700 C   0  0  0  0  0  0  0  0  0  0  0  0
   -2.8030   -3.4362   -1.1210 N   0  0  0  0  0  0  0  0  0  0  0  0
   -2.2711   -2.0613   -0.9965 N   0  0  0  0  0  0  0  0  0  0  0  0
    3.0327    0.4312   -0.1410 O   0  0  0  0  0  0  0  0  0  0  0  0
   -0.9928    2.5725    0.1723 H   0  0  0  0  0  0  0  0  0  0  0  0
   -2.2089    0.3999    0.1014 H   0  0  0  0  0  0  0  0  0  0  0  0
    1.4852    2.6251    0.0602 H   0  0  0  0  0  0  0  0  0  0  0  0
    1.5603   -1.6602   -0.1985 H   0  0  0  0  0  0  0  0  0  0  0  0
   -1.5555   -2.3128    0.9384 H   0  0  0  0  0  0  0  0  0  0  0  0
   -0.4404   -2.9245   -0.2879 H   0  0  0  0  0  0  0  0  0  0  0  0
   -3.6688   -3.3107   -1.6525 H   0  0  0  0  0  0  0  0  0  0  0  0
   -3.1443   -3.6500   -0.1791 H   0  0  0  0  0  0  0  0  0  0  0  0
   -1.8629   -1.8846   -1.9171 H   0  0  0  0  0  0  0  0  0  0  0  0
    3.3775    1.3372   -0.1147 H   0  0  0  0  0  0  0  0  0  0  0  0
  1 11  1  0
  2  1  2  0
  2 12  1  0
  3 13  1  0
  3  1  1  0
  4  7  1  0
  4  6  2  0
  5  6  1  0
  5 15  1  0
  6  2  1  0
  7  3  2  0
  8  9  1  0
  8 18  1  0
  9  5  1  0
 10 20  1  0
 10  7  1  0
 14  4  1  0
 16  5  1  0
 17  8  1  0
 19  9  1  0
M  END
>  <HBA>  (456) 
3

>  <HBD>  (456) 
3

>  <TPSA>  (456) 
58.28

>  <cid>  (456) 
1663

>  <dipole>  (456) 
1.52

>  <excitation_energy_1>  (456) 
4.495

>  <excitation_energy_2>  (456) 
4.763

>  <excitation_energy_3>  (456) 
5.012

>  <excitation_energy_4>  (456) 
5.095

>  <homo_energy>  (456) 
-5.358

>  <homo_lumo_gap>  (456) 
5.361

>  <logP>  (456) 
1.447

>  <lumo_energy>  (456) 
0.003

>  <melting_point>  (456) 
129.55

>  <molecular_refractivity>  (456) 
38.94

>  <oscillator_strength_1>  (456) 
0.0013

>  <oscillator_strength_2>  (456) 
0.0121

>  <oscillator_strength_3>  (456) 
0.0318

>  <oscillator_strength_4>  (456) 
0.0082

>  <open_babel_can_smiles>  (456) 
NNCc1cccc(c1)O

>  <mulliken_charges>  (456) 
20
1   -0.135363
2   -0.168448
3   -0.195695
4   -0.223384
5   -0.19387
6   0.127913
7   0.354815
8   -0.5926
9   -0.466431
10   -0.644492
11   0.129832
12   0.139986
13   0.11563
14   0.135675
15   0.148338
16   0.141288
17   0.305971
18   0.303058
19   0.31151
20   0.406265

>  <lowdin_charges>  (456) 
20
1   -0.144876
2   -0.180654
3   -0.218946
4   -0.19738
5   -0.205031
6   -0.0027
7   0.105271
8   -0.494769
9   -0.318642
10   -0.381093
11   0.15824
12   0.163347
13   0.152172
14   0.1658
15   0.14518
16   0.136076
17   0.254759
18   0.251855
19   0.255754
20   0.355636

$$$$
PCCDB-ID:  1669
     RDKit          3D

 25 25  0  0  0  0  0  0  0  0999 V2000
    1.7287   -2.1661    0.3550 C   0  0  0  0  0  0  0  0  0  0  0  0
    4.1390   -2.5294   -4.0107 C   0  0  0  0  0  0  0  0  0  0  0  0
    3.8235   -3.6117   -3.1870 C   0  0  0  0  0  0  0  0  0  0  0  0
    4.4694   -0.0401   -4.3962 C   0  0  0  0  0  0  0  0  0  0  0  0
    5.9333    0.3926   -4.2075 C   0  0  0  0  0  0  0  0  0  0  0  0
    3.6943   -1.0275   -2.1953 C   0  0  0  0  0  0  0  0  0  0  0  0
    4.0865   -1.2185   -3.5280 C   0  0  0  0  0  0  0  0  0  0  0  0
    3.4495   -3.4094   -1.8584 C   0  0  0  0  0  0  0  0  0  0  0  0
    3.3749   -2.0945   -1.3586 C   0  0  0  0  0  0  0  0  0  0  0  0
    6.2233    1.5763   -5.0245 N   0  0  0  0  0  0  0  0  0  0  0  0
    3.1520   -4.4395   -1.0030 O   0  0  0  0  0  0  0  0  0  0  0  0
    3.0597   -1.8339   -0.0467 O   0  0  0  0  0  0  0  0  0  0  0  0
    1.6384   -1.8396    1.3937 H   0  0  0  0  0  0  0  0  0  0  0  0
    1.5449   -3.2430    0.2921 H   0  0  0  0  0  0  0  0  0  0  0  0
    0.9911   -1.6305   -0.2579 H   0  0  0  0  0  0  0  0  0  0  0  0
    4.4284   -2.7149   -5.0424 H   0  0  0  0  0  0  0  0  0  0  0  0
    3.8745   -4.6274   -3.5775 H   0  0  0  0  0  0  0  0  0  0  0  0
    4.3081   -0.2934   -5.4535 H   0  0  0  0  0  0  0  0  0  0  0  0
    3.8315    0.8251   -4.1808 H   0  0  0  0  0  0  0  0  0  0  0  0
    6.5894   -0.4733   -4.4108 H   0  0  0  0  0  0  0  0  0  0  0  0
    6.0917    0.6633   -3.1565 H   0  0  0  0  0  0  0  0  0  0  0  0
    3.6310   -0.0273   -1.7745 H   0  0  0  0  0  0  0  0  0  0  0  0
    6.1890    1.3248   -6.0123 H   0  0  0  0  0  0  0  0  0  0  0  0
    7.1772    1.8891   -4.8500 H   0  0  0  0  0  0  0  0  0  0  0  0
    3.2516   -5.2757   -1.4838 H   0  0  0  0  0  0  0  0  0  0  0  0
  1 13  1  0
  2  7  2  0
  2  3  1  0
  3  8  2  0
  4  5  1  0
  4 19  1  0
  4  7  1  0
  5 21  1  0
  6 22  1  0
  6  9  2  0
  7  6  1  0
  8  9  1  0
  8 11  1  0
  9 12  1  0
 10 24  1  0
 10  5  1  0
 12  1  1  0
 14  1  1  0
 15  1  1  0
 16  2  1  0
 17  3  1  0
 18  4  1  0
 20  5  1  0
 23 10  1  0
 25 11  1  0
M  END
>  <HBA>  (457) 
3

>  <HBD>  (457) 
2

>  <TPSA>  (457) 
55.48

>  <cid>  (457) 
1669

>  <dipole>  (457) 
2.75

>  <excitation_energy_1>  (457) 
4.901

>  <excitation_energy_2>  (457) 
4.954

>  <excitation_energy_3>  (457) 
5.424

>  <excitation_energy_4>  (457) 
5.528

>  <homo_energy>  (457) 
-5.685

>  <homo_lumo_gap>  (457) 
5.829

>  <logP>  (457) 
1.602

>  <lumo_energy>  (457) 
0.144

>  <melting_point>  (457) 
107.82

>  <molecular_refractivity>  (457) 
47.44

>  <oscillator_strength_1>  (457) 
0.044

>  <oscillator_strength_2>  (457) 
0.001

>  <oscillator_strength_3>  (457) 
0.0119

>  <oscillator_strength_4>  (457) 
0.0227

>  <open_babel_can_smiles>  (457) 
NCCc1ccc(c(c1)OC)O

>  <mulliken_charges>  (457) 
25
1   -0.212944
2   -0.188636
3   -0.199068
4   -0.34087
5   -0.129875
6   -0.23645
7   0.165873
8   0.311256
9   0.333057
10   -0.714833
11   -0.643535
12   -0.521269
13   0.157373
14   0.167159
15   0.137895
16   0.119424
17   0.116759
18   0.130379
19   0.157554
20   0.116283
21   0.146122
22   0.133356
23   0.29063
24   0.296246
25   0.408114

>  <lowdin_charges>  (457) 
25
1   -0.273915
2   -0.168214
3   -0.208725
4   -0.274446
5   -0.202905
6   -0.177458
7   -0.014159
8   0.073196
9   0.069725
10   -0.556026
11   -0.37793
12   -0.224854
13   0.154177
14   0.14988
15   0.139439
16   0.153211
17   0.151368
18   0.141117
19   0.15767
20   0.119447
21   0.143551
22   0.164792
23   0.248668
24   0.25368
25   0.358712

$$$$
PCCDB-ID:  1670
     RDKit          3D

 28 28  0  0  1  0  0  0  0  0999 V2000
    3.0112   -1.7772    0.0905 C   0  0  0  0  0  0  0  0  0  0  0  0
    4.0670    1.9185    3.3247 C   0  0  0  0  0  0  0  0  0  0  0  0
    4.3934    0.5727    3.5028 C   0  0  0  0  0  0  0  0  0  0  0  0
    3.3456    3.8661    1.8493 C   0  0  0  0  0  0  0  0  0  0  0  0
    3.6128    1.4879    1.0053 C   0  0  0  0  0  0  0  0  0  0  0  0
    3.6801    2.4039    2.0698 C   0  0  0  0  0  0  0  0  0  0  0  0
    1.8552    4.1763    1.5339 C   0  0  1  0  0  0  0  0  0  0  0  0
    4.3431   -0.3223    2.4340 C   0  0  0  0  0  0  0  0  0  0  0  0
    3.9332    0.1412    1.1655 C   0  0  0  0  0  0  0  0  0  0  0  0
    0.9399    3.9340    2.7543 C   0  0  0  0  0  0  0  0  0  0  0  0
    1.7468    5.5341    1.0143 N   0  0  0  0  0  0  0  0  0  0  0  0
    4.6869   -1.6406    2.5518 O   0  0  0  0  0  0  0  0  0  0  0  0
    0.2904    4.8105    3.2731 O   0  0  0  0  0  0  0  0  0  0  0  0
    0.8758    2.6645    3.2240 O   0  0  0  0  0  0  0  0  0  0  0  0
    3.9166   -0.6682    0.0605 O   0  0  0  0  0  0  0  0  0  0  0  0
    3.0847   -2.2462   -0.8928 H   0  0  0  0  0  0  0  0  0  0  0  0
    1.9810   -1.4327    0.2515 H   0  0  0  0  0  0  0  0  0  0  0  0
    3.2831   -2.4993    0.8652 H   0  0  0  0  0  0  0  0  0  0  0  0
    4.1215    2.5955    4.1729 H   0  0  0  0  0  0  0  0  0  0  0  0
    4.7055    0.2158    4.4829 H   0  0  0  0  0  0  0  0  0  0  0  0
    3.9116    4.2567    0.9965 H   0  0  0  0  0  0  0  0  0  0  0  0
    3.6510    4.4521    2.7255 H   0  0  0  0  0  0  0  0  0  0  0  0
    3.3292    1.8141    0.0080 H   0  0  0  0  0  0  0  0  0  0  0  0
    1.5306    3.4892    0.7398 H   0  0  0  0  0  0  0  0  0  0  0  0
    1.9183    6.1822    1.7845 H   0  0  0  0  0  0  0  0  0  0  0  0
    0.7742    5.7071    0.7612 H   0  0  0  0  0  0  0  0  0  0  0  0
    4.9562   -1.8125    3.4678 H   0  0  0  0  0  0  0  0  0  0  0  0
    1.5314    2.1061    2.7662 H   0  0  0  0  0  0  0  0  0  0  0  0
  1 17  1  0
  1 18  1  0
  2  3  2  0
  2 19  1  0
  3 20  1  0
  4  6  1  0
  4 22  1  0
  5  9  1  0
  5  6  2  0
  6  2  1  0
  7 24  1  6
  7  4  1  0
  7 10  1  0
  8 12  1  0
  8  3  1  0
  9  8  2  0
 10 14  1  0
 10 13  2  0
 11  7  1  0
 11 25  1  0
 12 27  1  0
 15  1  1  0
 15  9  1  0
 16  1  1  0
 21  4  1  0
 23  5  1  0
 26 11  1  0
 28 14  1  0
M  END
>  <HBA>  (458) 
5

>  <HBD>  (458) 
3

>  <TPSA>  (458) 
92.78

>  <cid>  (458) 
1670

>  <dipole>  (458) 
3.74

>  <excitation_energy_1>  (458) 
4.854

>  <excitation_energy_2>  (458) 
5.19

>  <excitation_energy_3>  (458) 
5.4

>  <excitation_energy_4>  (458) 
5.546

>  <homo_energy>  (458) 
-6.212

>  <homo_lumo_gap>  (458) 
5.75

>  <logP>  (458) 
1.056

>  <lumo_energy>  (458) 
-0.463

>  <melting_point>  (458) 
184.31

>  <molecular_refractivity>  (458) 
54.02

>  <oscillator_strength_1>  (458) 
0.0526

>  <oscillator_strength_2>  (458) 
0.0004

>  <oscillator_strength_3>  (458) 
0.0312

>  <oscillator_strength_4>  (458) 
0.0185

>  <open_babel_can_smiles>  (458) 
COc1cc(ccc1O)C[C@@H](C(=O)O)N

>  <mulliken_charges>  (458) 
28
1   -0.217948
2   -0.184251
3   -0.195441
4   -0.336067
5   -0.238995
6   0.087028
7   -0.113199
8   0.317162
9   0.340526
10   0.572275
11   -0.690758
12   -0.637723
13   -0.451366
14   -0.572441
15   -0.517836
16   0.164633
17   0.139727
18   0.173731
19   0.141003
20   0.130167
21   0.184321
22   0.151769
23   0.146043
24   0.159317
25   0.306389
26   0.3091
27   0.413529
28   0.419307

>  <lowdin_charges>  (458) 
28
1   -0.27517
2   -0.169469
3   -0.205463
4   -0.275882
5   -0.184705
6   -0.04333
7   -0.115974
8   0.080238
9   0.071209
10   0.173947
11   -0.529891
12   -0.369691
13   -0.252482
14   -0.360355
15   -0.21834
16   0.159224
17   0.138171
18   0.155993
19   0.165074
20   0.158743
21   0.174007
22   0.154797
23   0.169516
24   0.156349
25   0.261336
26   0.261605
27   0.360826
28   0.359719

$$$$
PCCDB-ID:  1672
     RDKit          3D

 17 16  0  0  0  0  0  0  0  0999 V2000
    1.0804   -2.1812   -0.6905 C   0  0  0  0  0  0  0  0  0  0  0  0
    4.3189   -1.1910    0.7578 C   0  0  0  0  0  0  0  0  0  0  0  0
    4.8765   -2.5323    1.2385 C   0  0  0  0  0  0  0  0  0  0  0  0
    2.8075   -1.1922    0.5700 C   0  0  0  0  0  0  0  0  0  0  0  0
    6.3306   -2.4353    1.4330 N   0  0  0  0  0  0  0  0  0  0  0  0
    2.4693   -2.1057   -0.4610 O   0  0  0  0  0  0  0  0  0  0  0  0
    0.9231   -2.9018   -1.4977 H   0  0  0  0  0  0  0  0  0  0  0  0
    0.6626   -1.2073   -0.9953 H   0  0  0  0  0  0  0  0  0  0  0  0
    0.5350   -2.5231    0.2046 H   0  0  0  0  0  0  0  0  0  0  0  0
    4.7877   -0.9161   -0.1974 H   0  0  0  0  0  0  0  0  0  0  0  0
    4.5901   -0.4126    1.4816 H   0  0  0  0  0  0  0  0  0  0  0  0
    4.5649   -3.3224    0.5364 H   0  0  0  0  0  0  0  0  0  0  0  0
    4.4281   -2.7778    2.2107 H   0  0  0  0  0  0  0  0  0  0  0  0
    2.4541   -0.1798    0.3081 H   0  0  0  0  0  0  0  0  0  0  0  0
    2.3024   -1.4782    1.5103 H   0  0  0  0  0  0  0  0  0  0  0  0
    6.7793   -2.2960    0.5274 H   0  0  0  0  0  0  0  0  0  0  0  0
    6.6872   -3.3247    1.7805 H   0  0  0  0  0  0  0  0  0  0  0  0
  1  6  1  0
  1  9  1  0
  2  3  1  0
  2 11  1  0
  3  5  1  0
  3 13  1  0
  4  2  1  0
  4 15  1  0
  5 17  1  0
  6  4  1  0
  7  1  1  0
  8  1  1  0
 10  2  1  0
 12  3  1  0
 14  4  1  0
 16  5  1  0
M  END
>  <HBA>  (459) 
2

>  <HBD>  (459) 
1

>  <TPSA>  (459) 
35.25

>  <cid>  (459) 
1672

>  <dipole>  (459) 
1.13

>  <excitation_energy_1>  (459) 
5.613

>  <excitation_energy_2>  (459) 
6.206

>  <excitation_energy_3>  (459) 
6.412

>  <excitation_energy_4>  (459) 
6.575

>  <homo_energy>  (459) 
-6.144

>  <homo_lumo_gap>  (459) 
8.523

>  <logP>  (459) 
0.682

>  <lumo_energy>  (459) 
2.378

>  <melting_point>  (459) 
20.06

>  <molecular_refractivity>  (459) 
25.13

>  <oscillator_strength_1>  (459) 
0.016

>  <oscillator_strength_2>  (459) 
0.0048

>  <oscillator_strength_3>  (459) 
0.0088

>  <oscillator_strength_4>  (459) 
0.0254

>  <open_babel_can_smiles>  (459) 
COCCCN

>  <mulliken_charges>  (459) 
17
1   -0.189279
2   -0.265075
3   -0.134864
4   -0.016715
5   -0.719183
6   -0.459522
7   0.156372
8   0.128028
9   0.128317
10   0.137622
11   0.147682
12   0.136871
13   0.131765
14   0.118662
15   0.114826
16   0.290781
17   0.293712

>  <lowdin_charges>  (459) 
17
1   -0.28014
2   -0.285109
3   -0.207336
4   -0.127863
5   -0.560368
6   -0.275395
7   0.154677
8   0.130369
9   0.131221
10   0.145045
11   0.155159
12   0.129818
13   0.137996
14   0.126243
15   0.123105
16   0.249775
17   0.252803

$$$$
PCCDB-ID:  1673
     RDKit          3D

 18 19  0  0  0  0  0  0  0  0999 V2000
    1.0730    0.1099   -0.0231 C   0  0  0  0  0  0  0  0  0  0  0  0
    3.9480    3.2396    0.0120 C   0  0  0  0  0  0  0  0  0  0  0  0
    3.2650   -1.0482    0.0241 C   0  0  0  0  0  0  0  0  0  0  0  0
    4.6549    1.2620    0.0466 C   0  0  0  0  0  0  0  0  0  0  0  0
    5.3085    0.0264    0.0640 C   0  0  0  0  0  0  0  0  0  0  0  0
    3.2392    1.2801    0.0172 C   0  0  0  0  0  0  0  0  0  0  0  0
    6.6529   -0.0917    0.1129 N   0  0  0  0  0  0  0  0  0  0  0  0
    5.0983    2.5577    0.0413 N   0  0  0  0  0  0  0  0  0  0  0  0
    2.7729    2.5277   -0.0039 N   0  0  0  0  0  0  0  0  0  0  0  0
    4.5745   -1.1259    0.0495 N   0  0  0  0  0  0  0  0  0  0  0  0
    2.5355    0.0963    0.0086 N   0  0  0  0  0  0  0  0  0  0  0  0
    0.7052   -0.9178   -0.0260 H   0  0  0  0  0  0  0  0  0  0  0  0
    0.7320    0.6334   -0.9196 H   0  0  0  0  0  0  0  0  0  0  0  0
    0.6938    0.6418    0.8528 H   0  0  0  0  0  0  0  0  0  0  0  0
    3.9298    4.3239    0.0010 H   0  0  0  0  0  0  0  0  0  0  0  0
    2.6910   -1.9708    0.0149 H   0  0  0  0  0  0  0  0  0  0  0  0
    7.2191    0.7388    0.0231 H   0  0  0  0  0  0  0  0  0  0  0  0
    7.0734   -1.0020    0.0048 H   0  0  0  0  0  0  0  0  0  0  0  0
  1 11  1  0
  1 14  1  0
  2  8  2  0
  3 10  2  0
  4  5  2  0
  5  7  1  0
  6  4  1  0
  8  4  1  0
  9  2  1  0
  9  6  2  0
 10  5  1  0
 11  6  1  0
 11  3  1  0
 12  1  1  0
 13  1  1  0
 15  2  1  0
 16  3  1  0
 17  7  1  0
 18  7  1  0
M  END
>  <HBA>  (460) 
5

>  <HBD>  (460) 
1

>  <TPSA>  (460) 
69.62

>  <cid>  (460) 
1673

>  <dipole>  (460) 
4.03

>  <excitation_energy_1>  (460) 
4.34

>  <excitation_energy_2>  (460) 
4.669

>  <excitation_energy_3>  (460) 
4.756

>  <excitation_energy_4>  (460) 
5.198

>  <homo_energy>  (460) 
-5.761

>  <homo_lumo_gap>  (460) 
4.757

>  <logP>  (460) 
0.527

>  <lumo_energy>  (460) 
-1.004

>  <melting_point>  (460) 
147.49

>  <molecular_refractivity>  (460) 
40.99

>  <oscillator_strength_1>  (460) 
0.0988

>  <oscillator_strength_2>  (460) 
0.1013

>  <oscillator_strength_3>  (460) 
0.0003

>  <oscillator_strength_4>  (460) 
0.0499

>  <open_babel_can_smiles>  (460) 
Nc1ncn(c2c1ncn2)C

>  <mulliken_charges>  (460) 
18
1   -0.322846
2   0.161733
3   0.215331
4   0.233833
5   0.472836
6   0.471962
7   -0.772484
8   -0.535614
9   -0.525858
10   -0.51583
11   -0.462469
12   0.167553
13   0.200658
14   0.200852
15   0.132029
16   0.165631
17   0.364836
18   0.347846

>  <lowdin_charges>  (460) 
18
1   -0.338732
2   -0.066787
3   -0.033751
4   -0.065171
5   0.125582
6   0.033375
7   -0.429281
8   -0.232351
9   -0.247514
10   -0.204961
11   0.009943
12   0.16376
13   0.179398
14   0.17972
15   0.152317
16   0.170059
17   0.307026
18   0.297369

$$$$
PCCDB-ID:  1676
     RDKit          3D

 24 25  0  0  0  0  0  0  0  0999 V2000
    1.0584   -0.9329   -2.0339 C   0  0  0  0  0  0  0  0  0  0  0  0
    2.5786   -1.1194   -2.0391 C   0  0  0  0  0  0  0  0  0  0  0  0
    3.1542   -1.1851   -0.6192 C   0  0  0  0  0  0  0  0  0  0  0  0
    5.8545   -4.6651   -0.5948 C   0  0  0  0  0  0  0  0  0  0  0  0
    6.6106   -2.6763   -0.5938 C   0  0  0  0  0  0  0  0  0  0  0  0
    5.2333   -2.5408   -0.6017 C   0  0  0  0  0  0  0  0  0  0  0  0
    7.3714   -1.4747   -0.5863 C   0  0  0  0  0  0  0  0  0  0  0  0
    5.4399   -0.1462   -0.6272 C   0  0  0  0  0  0  0  0  0  0  0  0
    6.9828   -4.0088   -0.5885 N   0  0  0  0  0  0  0  0  0  0  0  0
    4.7437   -3.8206   -0.6014 N   0  0  0  0  0  0  0  0  0  0  0  0
    6.8102   -0.2976   -0.6000 N   0  0  0  0  0  0  0  0  0  0  0  0
    4.6110   -1.3392   -0.5958 N   0  0  0  0  0  0  0  0  0  0  0  0
    8.7132   -1.5347   -0.5646 O   0  0  0  0  0  0  0  0  0  0  0  0
    4.8684    0.9311   -0.6722 O   0  0  0  0  0  0  0  0  0  0  0  0
    0.6681   -0.8774   -3.0553 H   0  0  0  0  0  0  0  0  0  0  0  0
    0.7768   -0.0071   -1.5191 H   0  0  0  0  0  0  0  0  0  0  0  0
    0.5499   -1.7638   -1.5284 H   0  0  0  0  0  0  0  0  0  0  0  0
    3.0592   -0.2822   -2.5566 H   0  0  0  0  0  0  0  0  0  0  0  0
    2.8456   -2.0317   -2.5905 H   0  0  0  0  0  0  0  0  0  0  0  0
    2.7117   -2.0133   -0.0491 H   0  0  0  0  0  0  0  0  0  0  0  0
    2.9382   -0.2571   -0.0864 H   0  0  0  0  0  0  0  0  0  0  0  0
    5.7398   -5.7401   -0.5936 H   0  0  0  0  0  0  0  0  0  0  0  0
    3.7751   -4.1041   -0.6252 H   0  0  0  0  0  0  0  0  0  0  0  0
    8.9669   -2.4758   -0.5565 H   0  0  0  0  0  0  0  0  0  0  0  0
  1 17  1  0
  1 16  1  0
  2  1  1  0
  2  3  1  0
  3 12  1  0
  3 21  1  0
  3 20  1  0
  4 22  1  0
  4  9  2  0
  5  9  1  0
  5  7  1  0
  6 10  1  0
  6 12  1  0
  6  5  2  0
  7 13  1  0
  8 11  1  0
  8 12  1  0
 10  4  1  0
 11  7  2  0
 13 24  1  0
 14  8  2  0
 15  1  1  0
 18  2  1  0
 19  2  1  0
 23 10  1  0
M  END
>  <HBA>  (461) 
4

>  <HBD>  (461) 
2

>  <TPSA>  (461) 
83.54

>  <cid>  (461) 
1676

>  <dipole>  (461) 
8.44

>  <excitation_energy_1>  (461) 
4.542

>  <excitation_energy_2>  (461) 
4.744

>  <excitation_energy_3>  (461) 
5.079

>  <excitation_energy_4>  (461) 
5.155

>  <homo_energy>  (461) 
-5.957

>  <homo_lumo_gap>  (461) 
5.129

>  <logP>  (461) 
-0.177

>  <lumo_energy>  (461) 
-0.827

>  <melting_point>  (461) 
230.43

>  <molecular_refractivity>  (461) 
51.85

>  <oscillator_strength_1>  (461) 
0.1367

>  <oscillator_strength_2>  (461) 
0.0116

>  <oscillator_strength_3>  (461) 
0.0004

>  <oscillator_strength_4>  (461) 
0.0011

>  <open_babel_can_smiles>  (461) 
CCCn1c(=O)nc(c2c1[nH]cn2)O

>  <mulliken_charges>  (461) 
24
1   -0.44905
2   -0.257619
3   -0.160323
4   0.223801
5   0.117665
6   0.650855
7   0.528116
8   0.70041
9   -0.510664
10   -0.674434
11   -0.54026
12   -0.574669
13   -0.584533
14   -0.514121
15   0.156954
16   0.161102
17   0.136477
18   0.181054
19   0.127032
20   0.12745
21   0.201122
22   0.174731
23   0.346637
24   0.432266

>  <lowdin_charges>  (461) 
24
1   -0.444798
2   -0.282201
3   -0.198234
4   -0.070534
5   -0.100409
6   0.086594
7   0.162566
8   0.181742
9   -0.176574
10   -0.197127
11   -0.205119
12   -0.0703
13   -0.322268
14   -0.295759
15   0.157806
16   0.156929
17   0.144802
18   0.166928
19   0.137249
20   0.138837
21   0.182367
22   0.175185
23   0.302112
24   0.370205

$$$$
PCCDB-ID:  1678
     RDKit          3D

 13 12  0  0  0  0  0  0  0  0999 V2000
    1.4524   -0.0710    0.3020 C   0  0  0  0  0  0  0  0  0  0  0  0
    1.3174   -1.1102    1.4204 C   0  0  0  0  0  0  0  0  0  0  0  0
    2.8716    0.1358   -0.2477 C   0  0  0  0  0  0  0  0  0  0  0  0
    1.0732   -2.5228    0.9305 N   0  0  0  0  0  0  0  0  0  0  0  0
    3.4219    1.2089   -0.2107 O   0  0  0  0  0  0  0  0  0  0  0  0
    3.4697   -0.9488   -0.7716 O   0  0  0  0  0  0  0  0  0  0  0  0
    1.5376   -2.8541   -0.1682 O   0  0  0  0  0  0  0  0  0  0  0  0
    0.4445   -3.2628    1.6660 O   0  0  0  0  0  0  0  0  0  0  0  0
    1.1409    0.8949    0.7052 H   0  0  0  0  0  0  0  0  0  0  0  0
    0.7687   -0.3213   -0.5182 H   0  0  0  0  0  0  0  0  0  0  0  0
    0.4697   -0.9038    2.0736 H   0  0  0  0  0  0  0  0  0  0  0  0
    2.2169   -1.1828    2.0409 H   0  0  0  0  0  0  0  0  0  0  0  0
    2.8582   -1.7160   -0.7411 H   0  0  0  0  0  0  0  0  0  0  0  0
  1  9  1  0
  1  2  1  0
  2 12  1  0
  2 11  1  0
  3  5  2  0
  3  1  1  0
  4  2  1  0
  4  8  1  0
  6 13  1  0
  6  3  1  0
  7  4  2  0
 10  1  1  0
M  CHG  2   4   1   8  -1
M  END
>  <HBA>  (462) 
2

>  <HBD>  (462) 
1

>  <TPSA>  (462) 
83.12

>  <cid>  (462) 
1678

>  <dipole>  (462) 
3.44

>  <excitation_energy_1>  (462) 
3.904

>  <excitation_energy_2>  (462) 
4.16

>  <excitation_energy_3>  (462) 
4.579

>  <excitation_energy_4>  (462) 
5.061

>  <homo_energy>  (462) 
-7.524

>  <homo_lumo_gap>  (462) 
4.637

>  <logP>  (462) 
0.261

>  <lumo_energy>  (462) 
-2.887

>  <melting_point>  (462) 
83.34

>  <molecular_refractivity>  (462) 
26.41

>  <oscillator_strength_1>  (462) 
0.0003

>  <oscillator_strength_2>  (462) 
0.0001

>  <oscillator_strength_3>  (462) 
0.0001

>  <oscillator_strength_4>  (462) 
0.0022

>  <open_babel_can_smiles>  (462) 
OC(=O)CCN(=O)=O

>  <mulliken_charges>  (462) 
13
1   -0.400792
2   -0.1972
3   0.583657
4   0.467091
5   -0.435733
6   -0.576677
7   -0.391457
8   -0.335736
9   0.202861
10   0.198231
11   0.215805
12   0.229302
13   0.440649

>  <lowdin_charges>  (462) 
13
1   -0.327093
2   -0.22124
3   0.185442
4   0.304036
5   -0.240818
6   -0.359374
7   -0.254052
8   -0.201085
9   0.189885
10   0.182327
11   0.190654
12   0.194744
13   0.356576

$$$$
PCCDB-ID:  1679
     RDKit          3D

 17 17  0  0  0  0  0  0  0  0999 V2000
   -0.8189    1.1937    0.0595 C   0  0  0  0  0  0  0  0  0  0  0  0
   -1.4296   -0.0580    0.0188 C   0  0  0  0  0  0  0  0  0  0  0  0
    0.5709    1.2892   -0.0197 C   0  0  0  0  0  0  0  0  0  0  0  0
    0.7236   -1.1379   -0.1688 C   0  0  0  0  0  0  0  0  0  0  0  0
   -0.6662   -1.2368   -0.0965 C   0  0  0  0  0  0  0  0  0  0  0  0
    1.3306    0.1233   -0.1358 C   0  0  0  0  0  0  0  0  0  0  0  0
   -1.3475   -2.5705   -0.1602 C   0  0  0  0  0  0  0  0  0  0  0  0
   -2.4455   -2.8400   -0.7410 N   0  0  0  0  0  0  0  0  0  0  0  0
    2.7610    0.3185   -0.2128 N   0  0  0  0  0  2  0  0  0  0  0  0
   -0.6889   -3.5964    0.4475 O   0  0  0  0  0  0  0  0  0  0  0  0
    3.4103   -0.7097   -0.3195 O   0  0  0  0  0  1  0  0  0  0  0  0
   -1.4250    2.0891    0.1579 H   0  0  0  0  0  0  0  0  0  0  0  0
   -2.5107   -0.1353    0.0957 H   0  0  0  0  0  0  0  0  0  0  0  0
    1.0843    2.2456    0.0089 H   0  0  0  0  0  0  0  0  0  0  0  0
    1.3587   -2.0119   -0.2807 H   0  0  0  0  0  0  0  0  0  0  0  0
   -2.8020   -2.0155   -1.2258 H   0  0  0  0  0  0  0  0  0  0  0  0
   -0.0084   -3.2375    1.0379 H   0  0  0  0  0  0  0  0  0  0  0  0
  1 12  1  0
  2  1  2  0
  2 13  1  0
  3 14  1  0
  3  1  1  0
  4  6  1  0
  4  5  2  0
  5  2  1  0
  6  3  2  0
  7  5  1  0
  7 10  1  0
  8  7  2  0
  9  6  1  0
 10 17  1  0
 11  9  1  0
 15  4  1  0
 16  8  1  0
M  RAD  2   9   2  11   2
M  END
>  <HBA>  (463) 
4

>  <HBD>  (463) 
1

>  <TPSA>  (463) 
72.52

>  <cid>  (463) 
1679

>  <dipole>  (463) 
4.12

>  <excitation_energy_1>  (463) 
1.495

>  <excitation_energy_2>  (463) 
3.554

>  <excitation_energy_3>  (463) 
3.79

>  <excitation_energy_4>  (463) 
3.975

>  <homo_energy>  (463) 
-6.416

>  <homo_lumo_gap>  (463) 
3.238

>  <logP>  (463) 
1.884

>  <lumo_energy>  (463) 
-3.178

>  <melting_point>  (463) 
121.22

>  <molecular_refractivity>  (463) 
39.99

>  <oscillator_strength_1>  (463) 
0.0003

>  <oscillator_strength_2>  (463) 
0.0166

>  <oscillator_strength_3>  (463) 
0.0036

>  <oscillator_strength_4>  (463) 
0.0

>  <open_babel_can_smiles>  (463) 
[O][N]c1cccc(c1)C(=N)O

>  <mulliken_charges>  (463) 
17
1   -0.142147
2   -0.151582
3   -0.117638
4   -0.191218
5   0.054731
6   0.212787
7   0.433129
8   -0.572064
9   -0.046718
10   -0.570095
11   -0.272421
12   0.157885
13   0.160439
14   0.167257
15   0.177154
16   0.28947
17   0.411028

>  <lowdin_charges>  (463) 
17
1   -0.147304
2   -0.124166
3   -0.121013
4   -0.146918
5   -0.041835
6   -0.017685
7   0.123043
8   -0.378444
9   0.051576
10   -0.355237
11   -0.16752
12   0.17237
13   0.170691
14   0.179823
15   0.182191
16   0.260281
17   0.360147

$$$$
PCCDB-ID:  1681
     RDKit          3D

 19 19  0  0  0  0  0  0  0  0999 V2000
   -1.4600   -0.0740    0.0906 C   0  0  0  0  0  0  0  0  0  0  0  0
   -0.8335    1.1728    0.0235 C   0  0  0  0  0  0  0  0  0  0  0  0
   -0.6914   -1.2395    0.0428 C   0  0  0  0  0  0  0  0  0  0  0  0
    3.9637    0.2434   -0.3659 C   0  0  0  0  0  0  0  0  0  0  0  0
    0.5519    1.2583   -0.0900 C   0  0  0  0  0  0  0  0  0  0  0  0
    0.6943   -1.1625   -0.0733 C   0  0  0  0  0  0  0  0  0  0  0  0
    2.7579    0.1708   -0.2624 C   0  0  0  0  0  0  0  0  0  0  0  0
    5.4182    0.3053   -0.5248 C   0  0  0  0  0  0  0  0  0  0  0  0
    1.3358    0.0893   -0.1410 C   0  0  0  0  0  0  0  0  0  0  0  0
    5.8064    1.3069   -1.5327 N   0  0  0  0  0  0  0  0  0  0  0  0
   -2.5411   -0.1368    0.1803 H   0  0  0  0  0  0  0  0  0  0  0  0
   -1.4268    2.0826    0.0608 H   0  0  0  0  0  0  0  0  0  0  0  0
   -1.1729   -2.2124    0.0936 H   0  0  0  0  0  0  0  0  0  0  0  0
    1.0426    2.2254   -0.1401 H   0  0  0  0  0  0  0  0  0  0  0  0
    1.2948   -2.0663   -0.1127 H   0  0  0  0  0  0  0  0  0  0  0  0
    5.7879   -0.7157   -0.7347 H   0  0  0  0  0  0  0  0  0  0  0  0
    5.8751    0.6032    0.4291 H   0  0  0  0  0  0  0  0  0  0  0  0
    5.4161    1.0389   -2.4350 H   0  0  0  0  0  0  0  0  0  0  0  0
    6.8202    1.2886   -1.6394 H   0  0  0  0  0  0  0  0  0  0  0  0
  1 11  1  0
  2 12  1  0
  2  1  2  0
  3  1  1  0
  3 13  1  0
  4  7  3  0
  5  2  1  0
  6  3  2  0
  7  9  1  0
  8  4  1  0
  8 17  1  0
  9  5  2  0
  9  6  1  0
 10  8  1  0
 14  5  1  0
 15  6  1  0
 16  8  1  0
 18 10  1  0
 19 10  1  0
M  END
>  <HBA>  (464) 
1

>  <HBD>  (464) 
1

>  <TPSA>  (464) 
26.02

>  <cid>  (464) 
1681

>  <dipole>  (464) 
1.45

>  <excitation_energy_1>  (464) 
4.822

>  <excitation_energy_2>  (464) 
4.905

>  <excitation_energy_3>  (464) 
5.077

>  <excitation_energy_4>  (464) 
5.332

>  <homo_energy>  (464) 
-6.019

>  <homo_lumo_gap>  (464) 
5.358

>  <logP>  (464) 
1.697

>  <lumo_energy>  (464) 
-0.661

>  <melting_point>  (464) 
77.42

>  <molecular_refractivity>  (464) 
41.89

>  <oscillator_strength_1>  (464) 
0.2483

>  <oscillator_strength_2>  (464) 
0.0004

>  <oscillator_strength_3>  (464) 
0.1752

>  <oscillator_strength_4>  (464) 
0.003

>  <open_babel_can_smiles>  (464) 
NCC#Cc1ccccc1

>  <mulliken_charges>  (464) 
19
1   -0.124295
2   -0.133688
3   -0.132835
4   -0.084154
5   -0.135256
6   -0.136955
7   0.113537
8   -0.272164
9   0.005702
10   -0.702248
11   0.131563
12   0.133219
13   0.132132
14   0.144437
15   0.137481
16   0.147771
17   0.174285
18   0.302369
19   0.299102

>  <lowdin_charges>  (464) 
19
1   -0.151453
2   -0.155704
3   -0.155471
4   -0.071227
5   -0.145277
6   -0.148132
7   -0.071382
8   -0.184751
9   0.005941
10   -0.546854
11   0.15694
12   0.160306
13   0.1592
14   0.167073
15   0.164426
16   0.13973
17   0.165366
18   0.257921
19   0.253348

$$$$
PCCDB-ID:  1682
     RDKit          3D

 16 15  0  0  0  0  0  0  0  0999 V2000
    0.4036   -0.2104    0.2074 C   0  0  0  0  0  0  0  0  0  0  0  0
    0.0862    1.2655   -0.0435 C   0  0  0  0  0  0  0  0  0  0  0  0
    1.5217   -0.3842    1.2300 C   0  0  0  0  0  0  0  0  0  0  0  0
    2.0889    0.5225    1.7839 O   0  0  0  0  0  0  0  0  0  0  0  0
    1.8633   -1.6731    1.4986 O   0  0  0  0  0  0  0  0  0  0  0  0
   -1.4282    3.1022   -1.3268 O   0  0  0  0  0  0  0  0  0  0  0  0
   -0.6396    0.9957   -2.5755 O   0  0  0  0  0  0  0  0  0  0  0  0
   -2.5987    0.8314   -0.8266 O   0  0  0  0  0  0  0  0  0  0  0  0
   -1.3093    1.4844   -1.1758 P   0  0  0  0  0  0  0  0  0  0  0  0
    0.6985   -0.7028   -0.7288 H   0  0  0  0  0  0  0  0  0  0  0  0
   -0.4926   -0.7354    0.5649 H   0  0  0  0  0  0  0  0  0  0  0  0
    0.9584    1.7895   -0.4463 H   0  0  0  0  0  0  0  0  0  0  0  0
   -0.1739    1.7629    0.8959 H   0  0  0  0  0  0  0  0  0  0  0  0
    1.3123   -2.2831    0.9800 H   0  0  0  0  0  0  0  0  0  0  0  0
   -2.3410    3.3761   -1.1356 H   0  0  0  0  0  0  0  0  0  0  0  0
   -1.3252    0.8085   -3.2392 H   0  0  0  0  0  0  0  0  0  0  0  0
  1 11  1  0
  1  3  1  0
  2  1  1  0
  2 13  1  0
  3  5  1  0
  3  4  2  0
  6  9  1  0
  6 15  1  0
  7  9  1  0
  9  8  2  0
  9  2  1  0
 10  1  1  0
 12  2  1  0
 14  5  1  0
 16  7  1  0
M  END
>  <HBA>  (465) 
5

>  <HBD>  (465) 
3

>  <TPSA>  (465) 
104.64

>  <cid>  (465) 
1682

>  <dipole>  (465) 
3.5

>  <excitation_energy_1>  (465) 
5.781

>  <excitation_energy_2>  (465) 
6.583

>  <excitation_energy_3>  (465) 
6.861

>  <excitation_energy_4>  (465) 
6.931

>  <homo_energy>  (465) 
-7.638

>  <homo_lumo_gap>  (465) 
7.72

>  <logP>  (465) 
-0.361

>  <lumo_energy>  (465) 
0.082

>  <melting_point>  (465) 
138.92

>  <molecular_refractivity>  (465) 
29.29

>  <oscillator_strength_1>  (465) 
0.0003

>  <oscillator_strength_2>  (465) 
0.0205

>  <oscillator_strength_3>  (465) 
0.0161

>  <oscillator_strength_4>  (465) 
0.0501

>  <open_babel_can_smiles>  (465) 
OC(=O)CCP(=O)(O)O

>  <mulliken_charges>  (465) 
16
1   -0.430788
2   -0.460596
3   0.610105
4   -0.432333
5   -0.563221
6   -0.647525
7   -0.653606
8   -0.562943
9   1.038109
10   0.191019
11   0.198701
12   0.212743
13   0.20717
14   0.412569
15   0.441346
16   0.439251

>  <lowdin_charges>  (465) 
16
1   -0.325317
2   -0.44304
3   0.199885
4   -0.234256
5   -0.357385
6   -0.581244
7   -0.577079
8   -0.608135
9   1.050505
10   0.175659
11   0.180313
12   0.197428
13   0.194112
14   0.362318
15   0.383659
16   0.382577

$$$$
PCCDB-ID:  1693
     RDKit          3D

 27 26  0  0  1  0  0  0  0  0999 V2000
    1.5831   -1.2355   -0.5540 C   0  0  0  0  0  0  0  0  0  0  0  0
    3.0694   -0.9108   -0.3737 C   0  0  0  0  0  0  0  0  0  0  0  0
    3.4671   -0.6990    1.0927 C   0  0  0  0  0  0  0  0  0  0  0  0
    4.9554   -0.3765    1.2810 C   0  0  0  0  0  0  0  0  0  0  0  0
    6.6520    2.5099    2.1891 C   0  0  0  0  0  0  0  0  0  0  0  0
    5.3446   -0.1855    2.7547 C   0  0  0  0  0  0  0  0  0  0  0  0
    7.3561    1.4396    2.5901 C   0  0  0  0  0  0  0  0  0  0  0  0
    7.3185    3.7936    1.9128 C   0  0  0  0  0  0  0  0  0  0  0  0
    6.8354    0.0799    2.9944 C   0  0  1  0  0  0  0  0  0  0  0  0
    6.7404    4.8020    1.5541 O   0  0  0  0  0  0  0  0  0  0  0  0
    7.1965   -0.1307    4.3690 O   0  0  0  0  0  0  0  0  0  0  0  0
    1.3310   -1.3802   -1.6105 H   0  0  0  0  0  0  0  0  0  0  0  0
    0.9509   -0.4260   -0.1687 H   0  0  0  0  0  0  0  0  0  0  0  0
    1.3094   -2.1523   -0.0174 H   0  0  0  0  0  0  0  0  0  0  0  0
    3.3200   -0.0095   -0.9507 H   0  0  0  0  0  0  0  0  0  0  0  0
    3.6760   -1.7227   -0.7994 H   0  0  0  0  0  0  0  0  0  0  0  0
    3.2144   -1.5996    1.6719 H   0  0  0  0  0  0  0  0  0  0  0  0
    2.8614    0.1150    1.5181 H   0  0  0  0  0  0  0  0  0  0  0  0
    5.2078    0.5213    0.7020 H   0  0  0  0  0  0  0  0  0  0  0  0
    5.5590   -1.1915    0.8552 H   0  0  0  0  0  0  0  0  0  0  0  0
    5.5744    2.4904    2.0478 H   0  0  0  0  0  0  0  0  0  0  0  0
    5.0993   -1.0954    3.3163 H   0  0  0  0  0  0  0  0  0  0  0  0
    4.7483    0.6237    3.2022 H   0  0  0  0  0  0  0  0  0  0  0  0
    8.4347    1.5487    2.7174 H   0  0  0  0  0  0  0  0  0  0  0  0
    8.4229    3.7853    2.0571 H   0  0  0  0  0  0  0  0  0  0  0  0
    7.4154   -0.6802    2.4545 H   0  0  0  0  0  0  0  0  0  0  0  0
    6.7236    0.5380    4.8917 H   0  0  0  0  0  0  0  0  0  0  0  0
  1  2  1  0
  1 13  1  0
  1 14  1  0
  2  3  1  0
  3  4  1  0
  3 18  1  0
  3 17  1  0
  4  6  1  0
  5  7  2  0
  6  9  1  0
  6 23  1  0
  6 22  1  0
  7 24  1  0
  7  9  1  0
  8 25  1  0
  8  5  1  0
  9 26  1  6
  9 11  1  0
 10  8  2  0
 11 27  1  0
 12  1  1  0
 15  2  1  0
 16  2  1  0
 19  4  1  0
 20  4  1  0
 21  5  1  0
M  END
>  <HBA>  (466) 
2

>  <HBD>  (466) 
1

>  <TPSA>  (466) 
37.3

>  <cid>  (466) 
1693

>  <dipole>  (466) 
2.38

>  <excitation_energy_1>  (466) 
3.628

>  <excitation_energy_2>  (466) 
5.022

>  <excitation_energy_3>  (466) 
5.989

>  <excitation_energy_4>  (466) 
6.282

>  <homo_energy>  (466) 
-6.92

>  <homo_lumo_gap>  (466) 
5.167

>  <logP>  (466) 
1.683

>  <lumo_energy>  (466) 
-1.752

>  <melting_point>  (466) 
31.58

>  <molecular_refractivity>  (466) 
46.26

>  <oscillator_strength_1>  (466) 
0.0003

>  <oscillator_strength_2>  (466) 
0.0733

>  <oscillator_strength_3>  (466) 
0.3646

>  <oscillator_strength_4>  (466) 
0.011

>  <open_babel_can_smiles>  (466) 
CCCCC[C@@H](/C=C/C=O)O

>  <mulliken_charges>  (466) 
27
1   -0.442145
2   -0.249072
3   -0.246322
4   -0.269365
5   -0.15004
6   -0.289108
7   -0.12396
8   0.231882
9   0.099401
10   -0.411438
11   -0.615731
12   0.14448
13   0.143059
14   0.142198
15   0.134004
16   0.131813
17   0.130549
18   0.12954
19   0.141675
20   0.133987
21   0.155364
22   0.154172
23   0.127926
24   0.154016
25   0.103235
26   0.151164
27   0.388716

>  <lowdin_charges>  (466) 
27
1   -0.444218
2   -0.273622
3   -0.274894
4   -0.279871
5   -0.20173
6   -0.295463
7   -0.127676
8   0.04638
9   -0.001627
10   -0.226243
11   -0.454994
12   0.14954
13   0.148138
14   0.147
15   0.141011
16   0.140645
17   0.139498
18   0.139644
19   0.144458
20   0.142333
21   0.167915
22   0.15688
23   0.140321
24   0.162788
25   0.113052
26   0.156511
27   0.344224

$$$$
PCCDB-ID:  1695
     RDKit          3D

 18 19  0  0  0  0  0  0  0  0999 V2000
   -0.6497    1.6753   -0.0525 C   0  0  0  0  0  0  0  0  0  0  0  0
   -2.0379    1.0686    0.2974 C   0  0  0  0  0  0  0  0  0  0  0  0
   -1.3642   -1.2744    0.0437 C   0  0  0  0  0  0  0  0  0  0  0  0
    0.0559   -0.7635    0.0316 C   0  0  0  0  0  0  0  0  0  0  0  0
    0.3420    0.5649   -0.0069 C   0  0  0  0  0  0  0  0  0  0  0  0
    1.3543   -1.3618    0.0650 C   0  0  0  0  0  0  0  0  0  0  0  0
   -2.3229   -0.2238   -0.3354 N   0  0  0  0  0  0  0  0  0  0  0  0
    2.3281   -0.4786    0.0353 N   0  0  0  0  0  0  0  0  0  0  0  0
    1.6750   -2.6764    0.1123 O   0  0  0  0  0  0  0  0  0  0  0  0
    1.6706    0.7716   -0.0109 O   0  0  0  0  0  0  0  0  0  0  0  0
   -0.3835    2.4741    0.6508 H   0  0  0  0  0  0  0  0  0  0  0  0
   -0.6666    2.1307   -1.0531 H   0  0  0  0  0  0  0  0  0  0  0  0
   -2.8314    1.7699    0.0203 H   0  0  0  0  0  0  0  0  0  0  0  0
   -2.1007    0.9228    1.3829 H   0  0  0  0  0  0  0  0  0  0  0  0
   -1.6384   -1.6396    1.0447 H   0  0  0  0  0  0  0  0  0  0  0  0
   -1.5033   -2.1196   -0.6430 H   0  0  0  0  0  0  0  0  0  0  0  0
   -2.2958   -0.1085   -1.3479 H   0  0  0  0  0  0  0  0  0  0  0  0
    0.8573   -3.1943    0.1423 H   0  0  0  0  0  0  0  0  0  0  0  0
  1  5  1  0
  1  2  1  0
  1 11  1  0
  2 14  1  0
  3 15  1  0
  4  3  1  0
  4  6  1  0
  5  4  2  0
  6  9  1  0
  7  3  1  0
  7  2  1  0
  8  6  2  0
  9 18  1  0
 10  5  1  0
 10  8  1  0
 12  1  1  0
 13  2  1  0
 16  3  1  0
 17  7  1  0
M  END
>  <HBA>  (467) 
3

>  <HBD>  (467) 
2

>  <TPSA>  (467) 
58.03

>  <cid>  (467) 
1695

>  <dipole>  (467) 
4.3

>  <excitation_energy_1>  (467) 
5.399

>  <excitation_energy_2>  (467) 
5.477

>  <excitation_energy_3>  (467) 
5.639

>  <excitation_energy_4>  (467) 
5.794

>  <homo_energy>  (467) 
-6.506

>  <homo_lumo_gap>  (467) 
6.468

>  <logP>  (467) 
-0.058

>  <lumo_energy>  (467) 
-0.038

>  <melting_point>  (467) 
143.03

>  <molecular_refractivity>  (467) 
38.67

>  <oscillator_strength_1>  (467) 
0.0038

>  <oscillator_strength_2>  (467) 
0.0015

>  <oscillator_strength_3>  (467) 
0.0007

>  <oscillator_strength_4>  (467) 
0.0018

>  <open_babel_can_smiles>  (467) 
Oc1noc2c1CNCC2

>  <mulliken_charges>  (467) 
18
1   -0.358283
2   -0.1612
3   -0.22785
4   -0.026493
5   0.39365
6   0.457657
7   -0.52731
8   -0.229872
9   -0.610291
10   -0.394564
11   0.171846
12   0.166253
13   0.155102
14   0.159731
15   0.165012
16   0.147808
17   0.300254
18   0.41855

>  <lowdin_charges>  (467) 
18
1   -0.297109
2   -0.201969
3   -0.200237
4   -0.148021
5   0.078917
6   0.094315
7   -0.348014
8   -0.108371
9   -0.353179
10   -0.07649
11   0.170539
12   0.160951
13   0.155831
14   0.149232
15   0.151554
16   0.150966
17   0.253725
18   0.36736

$$$$
PCCDB-ID:  1720
     RDKit          3D

 24 26  0  0  0  0  0  0  0  0999 V2000
    0.7314    2.7417    0.1350 C   0  0  0  0  0  0  0  0  0  0  0  0
    1.7220    1.7794    0.1165 C   0  0  0  0  0  0  0  0  0  0  0  0
   -0.6236    2.3669    0.0710 C   0  0  0  0  0  0  0  0  0  0  0  0
    0.6351   -2.3105    0.0358 C   0  0  0  0  0  0  0  0  0  0  0  0
    1.9916   -1.9671    0.0256 C   0  0  0  0  0  0  0  0  0  0  0  0
    1.4023    0.4022    0.0407 C   0  0  0  0  0  0  0  0  0  0  0  0
   -0.9867    1.0299    0.0011 C   0  0  0  0  0  0  0  0  0  0  0  0
   -0.3549   -1.3391    0.0129 C   0  0  0  0  0  0  0  0  0  0  0  0
    2.3996   -0.6344    0.0150 C   0  0  0  0  0  0  0  0  0  0  0  0
    0.0243    0.0238    0.0116 C   0  0  0  0  0  0  0  0  0  0  0  0
   -2.3807    0.5427   -0.0755 C   0  0  0  0  0  0  0  0  0  0  0  0
   -1.7934   -1.7141    0.0213 C   0  0  0  0  0  0  0  0  0  0  0  0
    3.7470   -0.3073    0.0374 N   0  0  0  0  0  0  0  0  0  0  0  0
   -2.7515   -0.6881   -0.0592 N   0  0  0  0  0  0  0  0  0  0  0  0
   -3.3824    1.4494   -0.1717 O   0  0  0  0  0  0  0  0  0  0  0  0
   -2.1486   -2.8829    0.0838 O   0  0  0  0  0  0  0  0  0  0  0  0
    0.9941    3.7923    0.2101 H   0  0  0  0  0  0  0  0  0  0  0  0
    2.7582    2.0938    0.1999 H   0  0  0  0  0  0  0  0  0  0  0  0
   -1.3685    3.1594    0.1057 H   0  0  0  0  0  0  0  0  0  0  0  0
    0.3287   -3.3518    0.0471 H   0  0  0  0  0  0  0  0  0  0  0  0
    2.7451   -2.7513    0.0173 H   0  0  0  0  0  0  0  0  0  0  0  0
    4.3775   -1.0739   -0.1609 H   0  0  0  0  0  0  0  0  0  0  0  0
    4.0191    0.5393   -0.4439 H   0  0  0  0  0  0  0  0  0  0  0  0
   -3.0213    2.3401   -0.2924 H   0  0  0  0  0  0  0  0  0  0  0  0
  1 17  1  0
  2  1  2  0
  2 18  1  0
  3 19  1  0
  3  1  1  0
  4 20  1  0
  5  4  2  0
  6  2  1  0
  7 10  1  0
  7  3  2  0
  8 12  1  0
  8  4  1  0
  9  5  1  0
  9 13  1  0
  9  6  2  0
 10  8  2  0
 10  6  1  0
 11 14  2  0
 11  7  1  0
 12 16  2  0
 14 12  1  0
 15 11  1  0
 21  5  1  0
 22 13  1  0
 23 13  1  0
 24 15  1  0
M  END
>  <HBA>  (468) 
3

>  <HBD>  (468) 
2

>  <TPSA>  (468) 
75.95

>  <cid>  (468) 
1720

>  <dipole>  (468) 
9.68

>  <excitation_energy_1>  (468) 
2.98

>  <excitation_energy_2>  (468) 
2.997

>  <excitation_energy_3>  (468) 
3.745

>  <excitation_energy_4>  (468) 
3.869

>  <homo_energy>  (468) 
-5.834

>  <homo_lumo_gap>  (468) 
3.423

>  <logP>  (468) 
1.643

>  <lumo_energy>  (468) 
-2.411

>  <melting_point>  (468) 
260.54

>  <molecular_refractivity>  (468) 
63.94

>  <oscillator_strength_1>  (468) 
0.1499

>  <oscillator_strength_2>  (468) 
0.0028

>  <oscillator_strength_3>  (468) 
0.0002

>  <oscillator_strength_4>  (468) 
0.0122

>  <open_babel_can_smiles>  (468) 
OC1=NC(=O)c2c3c1cccc3c(cc2)N

>  <mulliken_charges>  (468) 
24
1   -0.124922
2   -0.199183
3   -0.244169
4   -0.202824
5   -0.170371
6   0.135641
7   0.093041
8   0.040874
9   0.256021
10   0.009816
11   0.459324
12   0.507616
13   -0.791705
14   -0.508677
15   -0.578791
16   -0.477758
17   0.143052
18   0.137253
19   0.130048
20   0.172438
21   0.129692
22   0.334711
23   0.331569
24   0.417302

>  <lowdin_charges>  (468) 
24
1   -0.159122
2   -0.135534
3   -0.150653
4   -0.098012
5   -0.205237
6   -0.027432
7   -0.047122
8   -0.075099
9   0.076822
10   0.01325
11   0.152505
12   0.153357
13   -0.469512
14   -0.183675
15   -0.334226
16   -0.256196
17   0.164534
18   0.160311
19   0.156127
20   0.181908
21   0.160325
22   0.285226
23   0.282294
24   0.355158

$$$$
PCCDB-ID:  1726
     RDKit          3D

 21 20  0  0  0  0  0  0  0  0999 V2000
    1.3468    0.3369   -0.4071 C   0  0  0  0  0  0  0  0  0  0  0  0
    0.4335   -0.5213    0.4764 C   0  0  0  0  0  0  0  0  0  0  0  0
    2.8356    0.1812   -0.0764 C   0  0  0  0  0  0  0  0  0  0  0  0
   -1.0547   -0.3013    0.1625 C   0  0  0  0  0  0  0  0  0  0  0  0
    3.1194    0.6246    1.2946 N   0  0  0  0  0  0  0  0  0  0  0  0
   -1.9714   -0.7589    2.6653 O   0  0  0  0  0  0  0  0  0  0  0  0
   -3.6085   -0.8101    0.6688 O   0  0  0  0  0  0  0  0  0  0  0  0
   -1.9863   -2.8268    1.0899 O   0  0  0  0  0  0  0  0  0  0  0  0
   -2.1495   -1.3493    1.1525 P   0  0  0  0  0  0  0  0  0  0  0  0
    1.0668    1.3972   -0.3069 H   0  0  0  0  0  0  0  0  0  0  0  0
    1.1937    0.0807   -1.4649 H   0  0  0  0  0  0  0  0  0  0  0  0
    0.6325   -0.2905    1.5274 H   0  0  0  0  0  0  0  0  0  0  0  0
    0.6782   -1.5818    0.3333 H   0  0  0  0  0  0  0  0  0  0  0  0
    3.4273    0.7081   -0.8468 H   0  0  0  0  0  0  0  0  0  0  0  0
    3.1104   -0.8796   -0.1436 H   0  0  0  0  0  0  0  0  0  0  0  0
   -1.2748   -0.5254   -0.8885 H   0  0  0  0  0  0  0  0  0  0  0  0
   -1.3466    0.7420    0.3356 H   0  0  0  0  0  0  0  0  0  0  0  0
    3.0219    1.6382    1.3513 H   0  0  0  0  0  0  0  0  0  0  0  0
    4.0892    0.4222    1.5310 H   0  0  0  0  0  0  0  0  0  0  0  0
   -1.8453   -1.5006    3.2803 H   0  0  0  0  0  0  0  0  0  0  0  0
   -4.2811   -1.4962    0.8175 H   0  0  0  0  0  0  0  0  0  0  0  0
  1 10  1  0
  1  3  1  0
  1  2  1  0
  2 12  1  0
  3  5  1  0
  4 17  1  0
  4  2  1  0
  4  9  1  0
  5 18  1  0
  5 19  1  0
  6 20  1  0
  7 21  1  0
  7  9  1  0
  8  9  2  0
  9  6  1  0
 11  1  1  0
 13  2  1  0
 14  3  1  0
 15  3  1  0
 16  4  1  0
M  END
>  <HBA>  (469) 
4

>  <HBD>  (469) 
3

>  <TPSA>  (469) 
93.36

>  <cid>  (469) 
1726

>  <dipole>  (469) 
2.35

>  <excitation_energy_1>  (469) 
5.641

>  <excitation_energy_2>  (469) 
5.965

>  <excitation_energy_3>  (469) 
6.464

>  <excitation_energy_4>  (469) 
6.533

>  <homo_energy>  (469) 
-6.395

>  <homo_lumo_gap>  (469) 
7.717

>  <logP>  (469) 
0.603

>  <lumo_energy>  (469) 
1.322

>  <melting_point>  (469) 
115.35

>  <molecular_refractivity>  (469) 
35.04

>  <oscillator_strength_1>  (469) 
0.0103

>  <oscillator_strength_2>  (469) 
0.0041

>  <oscillator_strength_3>  (469) 
0.0365

>  <oscillator_strength_4>  (469) 
0.0004

>  <open_babel_can_smiles>  (469) 
NCCCCP(=O)(O)O

>  <mulliken_charges>  (469) 
21
1   -0.255786
2   -0.269904
3   -0.139792
4   -0.473032
5   -0.712257
6   -0.656977
7   -0.649661
8   -0.568923
9   1.040388
10   0.125855
11   0.132006
12   0.181273
13   0.157659
14   0.115803
15   0.14176
16   0.181273
17   0.186626
18   0.292744
19   0.298819
20   0.43601
21   0.436117

>  <lowdin_charges>  (469) 
21
1   -0.274836
2   -0.271628
3   -0.204101
4   -0.446032
5   -0.55451
6   -0.58712
7   -0.580653
8   -0.611472
9   1.049319
10   0.135404
11   0.141605
12   0.163902
13   0.153454
14   0.121716
15   0.141287
16   0.176988
17   0.180404
18   0.249135
19   0.254787
20   0.381856
21   0.380497

$$$$
PCCDB-ID:  1727
     RDKit          3D

 13 13  0  0  0  0  0  0  0  0999 V2000
   -0.8071    1.1363   -0.0013 C   0  0  0  0  0  0  0  0  0  0  0  0
    1.3843    0.0386   -0.0076 C   0  0  0  0  0  0  0  0  0  0  0  0
   -1.3838   -0.0869    0.0692 C   0  0  0  0  0  0  0  0  0  0  0  0
    0.7532   -1.1545    0.0632 C   0  0  0  0  0  0  0  0  0  0  0  0
    0.6499    1.3053   -0.0454 C   0  0  0  0  0  0  0  0  0  0  0  0
    1.3032    2.4223   -0.1109 N   0  0  0  0  0  0  0  0  0  0  0  0
   -0.6259   -1.2351    0.1020 N   0  0  0  0  0  0  0  0  0  0  0  0
   -1.4417    2.0176   -0.0249 H   0  0  0  0  0  0  0  0  0  0  0  0
    2.4671    0.0834   -0.0369 H   0  0  0  0  0  0  0  0  0  0  0  0
   -2.4584   -0.2325    0.1033 H   0  0  0  0  0  0  0  0  0  0  0  0
    1.2779   -2.1032    0.0919 H   0  0  0  0  0  0  0  0  0  0  0  0
    0.6439    3.2084   -0.1287 H   0  0  0  0  0  0  0  0  0  0  0  0
   -1.0766   -2.1348    0.1550 H   0  0  0  0  0  0  0  0  0  0  0  0
  1  3  2  0
  2  4  2  0
  3  7  1  0
  3 10  1  0
  4 11  1  0
  4  7  1  0
  5  2  1  0
  5  1  1  0
  6  5  2  3
  7 13  1  0
  8  1  1  0
  9  2  1  0
 12  6  1  0
M  END
>  <HBA>  (470) 
2

>  <HBD>  (470) 
1

>  <TPSA>  (470) 
38.91

>  <cid>  (470) 
1727

>  <dipole>  (470) 
5.55

>  <excitation_energy_1>  (470) 
4.171

>  <excitation_energy_2>  (470) 
4.212

>  <excitation_energy_3>  (470) 
5.082

>  <excitation_energy_4>  (470) 
5.105

>  <homo_energy>  (470) 
-5.167

>  <homo_lumo_gap>  (470) 
5.121

>  <logP>  (470) 
1.245

>  <lumo_energy>  (470) 
-0.046

>  <melting_point>  (470) 
67.98

>  <molecular_refractivity>  (470) 
28.64

>  <oscillator_strength_1>  (470) 
0.0004

>  <oscillator_strength_2>  (470) 
0.0171

>  <oscillator_strength_3>  (470) 
0.0039

>  <oscillator_strength_4>  (470) 
0.2775

>  <open_babel_can_smiles>  (470) 
N=c1cc[nH]cc1

>  <mulliken_charges>  (470) 
13
1   -0.207127
2   -0.165547
3   0.078823
4   0.06889
5   0.307953
6   -0.67178
7   -0.600177
8   0.131135
9   0.146032
10   0.157818
11   0.157533
12   0.258936
13   0.337512

>  <lowdin_charges>  (470) 
13
1   -0.22362
2   -0.187404
3   -0.091675
4   -0.100303
5   0.046953
6   -0.441852
7   -0.202364
8   0.164099
9   0.173534
10   0.164445
11   0.166876
12   0.236612
13   0.294701

$$$$
PCCDB-ID:  1733
     RDKit          3D

 21 22  0  0  0  0  0  0  0  0999 V2000
    0.9443   -0.0390    0.1681 C   0  0  0  0  0  0  0  0  0  0  0  0
    7.3769    1.1107   -0.1512 C   0  0  0  0  0  0  0  0  0  0  0  0
    6.7246    2.3673   -0.1197 C   0  0  0  0  0  0  0  0  0  0  0  0
    6.6374   -0.0499   -0.1117 C   0  0  0  0  0  0  0  0  0  0  0  0
    5.3502    2.4540   -0.0500 C   0  0  0  0  0  0  0  0  0  0  0  0
    2.4300    2.5066    0.0952 C   0  0  0  0  0  0  0  0  0  0  0  0
    4.4081   -1.1533    0.0024 C   0  0  0  0  0  0  0  0  0  0  0  0
    2.4439    0.0509    0.0967 C   0  0  0  0  0  0  0  0  0  0  0  0
    5.2229    0.0097   -0.0404 C   0  0  0  0  0  0  0  0  0  0  0  0
    4.5674    1.2734   -0.0095 C   0  0  0  0  0  0  0  0  0  0  0  0
    3.1346    1.2613    0.0616 C   0  0  0  0  0  0  0  0  0  0  0  0
    1.8786    3.5318    0.1216 N   0  0  0  0  0  0  0  0  0  0  0  0
    3.0952   -1.1466    0.0669 N   0  0  0  0  0  0  0  0  0  0  0  0
    0.4677    0.9416    0.2254 H   0  0  0  0  0  0  0  0  0  0  0  0
    0.6520   -0.6310    1.0424 H   0  0  0  0  0  0  0  0  0  0  0  0
    0.5636   -0.5678   -0.7135 H   0  0  0  0  0  0  0  0  0  0  0  0
    8.4607    1.0687   -0.2068 H   0  0  0  0  0  0  0  0  0  0  0  0
    7.3180    3.2768   -0.1506 H   0  0  0  0  0  0  0  0  0  0  0  0
    7.1232   -1.0223   -0.1341 H   0  0  0  0  0  0  0  0  0  0  0  0
    4.8570    3.4209   -0.0254 H   0  0  0  0  0  0  0  0  0  0  0  0
    4.8876   -2.1331   -0.0185 H   0  0  0  0  0  0  0  0  0  0  0  0
  1 14  1  0
  1 15  1  0
  2  3  2  0
  2  4  1  0
  3  5  1  0
  4  9  2  0
  5 20  1  0
  5 10  2  0
  6 12  3  0
  7 13  2  0
  8  1  1  0
  9 10  1  0
  9  7  1  0
 10 11  1  0
 11  6  1  0
 11  8  2  0
 13  8  1  0
 16  1  1  0
 17  2  1  0
 18  3  1  0
 19  4  1  0
 21  7  1  0
M  END
>  <HBA>  (471) 
2

>  <HBD>  (471) 
0

>  <TPSA>  (471) 
36.68

>  <cid>  (471) 
1733

>  <dipole>  (471) 
4.05

>  <excitation_energy_1>  (471) 
4.017

>  <excitation_energy_2>  (471) 
4.088

>  <excitation_energy_3>  (471) 
4.461

>  <excitation_energy_4>  (471) 
5.144

>  <homo_energy>  (471) 
-6.577

>  <homo_lumo_gap>  (471) 
4.476

>  <logP>  (471) 
2.415

>  <lumo_energy>  (471) 
-2.101

>  <melting_point>  (471) 
106.73

>  <molecular_refractivity>  (471) 
51.42

>  <oscillator_strength_1>  (471) 
0.0979

>  <oscillator_strength_2>  (471) 
0.0004

>  <oscillator_strength_3>  (471) 
0.0059

>  <oscillator_strength_4>  (471) 
0.0019

>  <open_babel_can_smiles>  (471) 
N#Cc1c(C)ncc2c1cccc2

>  <mulliken_charges>  (471) 
21
1   -0.508566
2   -0.128828
3   -0.129781
4   -0.191912
5   -0.183211
6   0.216709
7   0.009793
8   0.284975
9   0.093757
10   0.15672
11   0.054877
12   -0.500676
13   -0.47035
14   0.177771
15   0.18034
16   0.180407
17   0.14414
18   0.148294
19   0.146184
20   0.166485
21   0.152872

>  <lowdin_charges>  (471) 
21
1   -0.445762
2   -0.149934
3   -0.134382
4   -0.141309
5   -0.156418
6   -0.012306
7   -0.064262
8   0.076667
9   -0.025179
10   0.025516
11   -0.057405
12   -0.124307
13   -0.150358
14   0.171475
15   0.175878
16   0.17589
17   0.163643
18   0.167907
19   0.165532
20   0.177692
21   0.161421

$$$$
PCCDB-ID:  1737
     RDKit          3D

 23 22  0  0  1  0  0  0  0  0999 V2000
    1.1704   -1.1068   -0.7234 C   0  0  0  0  0  0  0  0  0  0  0  0
    0.0039   -0.6700   -1.6219 C   0  0  1  0  0  0  0  0  0  0  0  0
    1.4188   -0.1809    0.4788 C   0  0  1  0  0  0  0  0  0  0  0  0
   -0.2886   -1.7543   -2.6811 C   0  0  1  0  0  0  0  0  0  0  0  0
    0.6039   -0.6143    1.7144 C   0  0  0  0  0  0  0  0  0  0  0  0
   -1.3970   -1.3384   -3.6679 C   0  0  0  0  0  0  0  0  0  0  0  0
   -1.1953   -0.3795   -0.8987 O   0  0  0  0  0  0  0  0  0  0  0  0
    2.8017   -0.0776    0.8489 O   0  0  0  0  0  0  0  0  0  0  0  0
    0.8802   -2.0504   -3.4021 O   0  0  0  0  0  0  0  0  0  0  0  0
   -0.5439   -1.0157    1.6509 O   0  0  0  0  0  0  0  0  0  0  0  0
    1.2542   -0.5085    2.8699 O   0  0  0  0  0  0  0  0  0  0  0  0
   -1.2339   -1.5012   -4.8603 O   0  0  0  0  0  0  0  0  0  0  0  0
   -2.5180   -0.8428   -3.1496 O   0  0  0  0  0  0  0  0  0  0  0  0
    2.0648   -1.1117   -1.3541 H   0  0  0  0  0  0  0  0  0  0  0  0
    1.0065   -2.1357   -0.3769 H   0  0  0  0  0  0  0  0  0  0  0  0
    0.2915    0.2533   -2.1422 H   0  0  0  0  0  0  0  0  0  0  0  0
    1.1081    0.8426    0.2356 H   0  0  0  0  0  0  0  0  0  0  0  0
   -0.6587   -2.6464   -2.1425 H   0  0  0  0  0  0  0  0  0  0  0  0
   -1.1544   -0.7735    0.0041 H   0  0  0  0  0  0  0  0  0  0  0  0
    3.2334   -0.9267    0.6565 H   0  0  0  0  0  0  0  0  0  0  0  0
    0.5981   -2.0545   -4.3407 H   0  0  0  0  0  0  0  0  0  0  0  0
    2.1616   -0.2023    2.6417 H   0  0  0  0  0  0  0  0  0  0  0  0
   -2.3668   -0.6809   -2.1835 H   0  0  0  0  0  0  0  0  0  0  0  0
  1 15  1  0
  1  3  1  0
  2 16  1  6
  2  7  1  0
  2  1  1  0
  3 17  1  6
  3  8  1  0
  3  5  1  0
  4 18  1  1
  4  2  1  0
  5 11  1  0
  6 13  1  0
  6  4  1  0
  7 19  1  0
  9  4  1  0
 10  5  2  0
 12  6  2  0
 13 23  1  0
 14  1  1  0
 20  8  1  0
 21  9  1  0
 22 11  1  0
M  END
>  <HBA>  (472) 
7

>  <HBD>  (472) 
5

>  <TPSA>  (472) 
135.29

>  <cid>  (472) 
1737

>  <dipole>  (472) 
5.58

>  <excitation_energy_1>  (472) 
5.654

>  <excitation_energy_2>  (472) 
5.873

>  <excitation_energy_3>  (472) 
6.035

>  <excitation_energy_4>  (472) 
6.295

>  <homo_energy>  (472) 
-7.519

>  <homo_lumo_gap>  (472) 
6.754

>  <logP>  (472) 
-2.372

>  <lumo_energy>  (472) 
-0.765

>  <melting_point>  (472) 
183.61

>  <molecular_refractivity>  (472) 
37.98

>  <oscillator_strength_1>  (472) 
0.0004

>  <oscillator_strength_2>  (472) 
0.0008

>  <oscillator_strength_3>  (472) 
0.0014

>  <oscillator_strength_4>  (472) 
0.0143

>  <open_babel_can_smiles>  (472) 
OC(=O)[C@H](C[C@@H]([C@@H](C(=O)O)O)O)O

>  <mulliken_charges>  (472) 
23
1   -0.359256
2   0.130305
3   0.034265
4   0.032993
5   0.607895
6   0.585624
7   -0.695403
8   -0.643019
9   -0.648779
10   -0.476174
11   -0.553739
12   -0.475401
13   -0.577646
14   0.196571
15   0.165599
16   0.155593
17   0.206528
18   0.148825
19   0.446435
20   0.414195
21   0.419237
22   0.436378
23   0.448976

>  <lowdin_charges>  (472) 
23
1   -0.306076
2   -0.009075
3   -0.041556
4   -0.05971
5   0.182153
6   0.173649
7   -0.482957
8   -0.449199
9   -0.458781
10   -0.259054
11   -0.315746
12   -0.259731
13   -0.336522
14   0.181756
15   0.158193
16   0.149318
17   0.180446
18   0.147242
19   0.358818
20   0.356802
21   0.355157
22   0.368228
23   0.366643

$$$$
PCCDB-ID:  1742
     RDKit          3D

 19 19  0  0  0  0  0  0  0  0999 V2000
   -0.8161    0.7479   -0.0951 C   0  0  0  0  0  0  0  0  0  0  0  0
    1.1380   -0.6408    0.1808 C   0  0  0  0  0  0  0  0  0  0  0  0
   -1.6132   -0.3864   -0.1952 C   0  0  0  0  0  0  0  0  0  0  0  0
    0.3507   -1.7821    0.0861 C   0  0  0  0  0  0  0  0  0  0  0  0
    0.5695    0.6398    0.0805 C   0  0  0  0  0  0  0  0  0  0  0  0
   -1.0304   -1.6574   -0.1086 C   0  0  0  0  0  0  0  0  0  0  0  0
    1.3573    1.9048    0.1743 C   0  0  0  0  0  0  0  0  0  0  0  0
    3.5016    2.9666   -0.1402 N   0  0  0  0  0  0  0  0  0  0  0  0
    2.7176    1.7921   -0.0345 N   0  0  0  0  0  0  0  0  0  0  0  0
   -1.7559   -2.8079   -0.1998 O   0  0  0  0  0  0  0  0  0  0  0  0
    0.8430    2.9934    0.4208 O   0  0  0  0  0  0  0  0  0  0  0  0
   -1.2534    1.7393   -0.1508 H   0  0  0  0  0  0  0  0  0  0  0  0
    2.2020   -0.7542    0.3682 H   0  0  0  0  0  0  0  0  0  0  0  0
   -2.6880   -0.2897   -0.3382 H   0  0  0  0  0  0  0  0  0  0  0  0
    0.7820   -2.7742    0.1720 H   0  0  0  0  0  0  0  0  0  0  0  0
    3.7882    3.2164    0.8074 H   0  0  0  0  0  0  0  0  0  0  0  0
    2.8584    3.7102   -0.4246 H   0  0  0  0  0  0  0  0  0  0  0  0
    3.0483    1.0458   -0.6314 H   0  0  0  0  0  0  0  0  0  0  0  0
   -2.6921   -2.5848   -0.3218 H   0  0  0  0  0  0  0  0  0  0  0  0
  1  5  2  0
  2 13  1  0
  3  6  2  0
  3  1  1  0
  4 15  1  0
  4  2  2  0
  5  7  1  0
  5  2  1  0
  6  4  1  0
  7 11  2  0
  8  9  1  0
  8 16  1  0
  9  7  1  0
 10  6  1  0
 12  1  1  0
 14  3  1  0
 17  8  1  0
 18  9  1  0
 19 10  1  0
M  END
>  <HBA>  (473) 
4

>  <HBD>  (473) 
3

>  <TPSA>  (473) 
75.35

>  <cid>  (473) 
1742

>  <dipole>  (473) 
2.36

>  <excitation_energy_1>  (473) 
4.81

>  <excitation_energy_2>  (473) 
4.94

>  <excitation_energy_3>  (473) 
5.045

>  <excitation_energy_4>  (473) 
5.357

>  <homo_energy>  (473) 
-6.324

>  <homo_lumo_gap>  (473) 
5.489

>  <logP>  (473) 
1.087

>  <lumo_energy>  (473) 
-0.835

>  <melting_point>  (473) 
161.28

>  <molecular_refractivity>  (473) 
39.36

>  <oscillator_strength_1>  (473) 
0.0326

>  <oscillator_strength_2>  (473) 
0.0156

>  <oscillator_strength_3>  (473) 
0.2344

>  <oscillator_strength_4>  (473) 
0.0312

>  <open_babel_can_smiles>  (473) 
NNC(=O)c1ccc(cc1)O

>  <mulliken_charges>  (473) 
19
1   -0.163247
2   -0.189248
3   -0.199374
4   -0.163006
5   0.069544
6   0.359943
7   0.534831
8   -0.567021
9   -0.507377
10   -0.634739
11   -0.52292
12   0.166886
13   0.140392
14   0.128014
15   0.147043
16   0.324249
17   0.325895
18   0.338119
19   0.412015

>  <lowdin_charges>  (473) 
19
1   -0.119065
2   -0.143038
3   -0.208377
4   -0.184285
5   -0.064752
6   0.111824
7   0.151597
8   -0.461324
9   -0.243425
10   -0.365602
11   -0.314226
12   0.178839
13   0.16075
14   0.155568
15   0.170486
16   0.263963
17   0.266423
18   0.28511
19   0.359536

$$$$
PCCDB-ID:  1745
     RDKit          3D

 13 13  0  0  0  0  0  0  0  0999 V2000
   -1.1513    0.1213    0.2673 C   0  0  0  0  0  0  0  0  0  0  0  0
   -0.8737   -2.4908    0.0097 C   0  0  0  0  0  0  0  0  0  0  0  0
    0.8722    0.7039   -0.0984 C   0  0  0  0  0  0  0  0  0  0  0  0
   -0.4719   -1.0529    0.0374 C   0  0  0  0  0  0  0  0  0  0  0  0
   -0.3093    1.2087    0.1864 N   0  0  0  0  0  0  0  0  0  0  0  0
    0.8346   -0.6579   -0.1906 N   0  0  0  0  0  0  0  0  0  0  0  0
   -0.3990   -3.1692   -1.1570 O   0  0  0  0  0  0  0  0  0  0  0  0
   -2.2023    0.2417    0.4968 H   0  0  0  0  0  0  0  0  0  0  0  0
   -1.9662   -2.5606    0.1128 H   0  0  0  0  0  0  0  0  0  0  0  0
   -0.4339   -3.0467    0.8464 H   0  0  0  0  0  0  0  0  0  0  0  0
    1.7819    1.2698   -0.2505 H   0  0  0  0  0  0  0  0  0  0  0  0
    1.5861   -1.2780   -0.4588 H   0  0  0  0  0  0  0  0  0  0  0  0
   -0.7854   -2.7176   -1.9249 H   0  0  0  0  0  0  0  0  0  0  0  0
  1  8  1  0
  2  4  1  0
  2  9  1  0
  2 10  1  0
  3  5  2  0
  4  1  2  0
  5  1  1  0
  6  3  1  0
  6  4  1  0
  7  2  1  0
 11  3  1  0
 12  6  1  0
 13  7  1  0
M  END
>  <HBA>  (474) 
2

>  <HBD>  (474) 
2

>  <TPSA>  (474) 
48.91

>  <cid>  (474) 
1745

>  <dipole>  (474) 
2.15

>  <excitation_energy_1>  (474) 
5.362

>  <excitation_energy_2>  (474) 
5.955

>  <excitation_energy_3>  (474) 
6.155

>  <excitation_energy_4>  (474) 
6.176

>  <homo_energy>  (474) 
-6.147

>  <homo_lumo_gap>  (474) 
6.653

>  <logP>  (474) 
-0.098

>  <lumo_energy>  (474) 
0.506

>  <melting_point>  (474) 
88.55

>  <molecular_refractivity>  (474) 
24.72

>  <oscillator_strength_1>  (474) 
0.063

>  <oscillator_strength_2>  (474) 
0.1058

>  <oscillator_strength_3>  (474) 
0.0045

>  <oscillator_strength_4>  (474) 
0.0303

>  <open_babel_can_smiles>  (474) 
OCc1cnc[nH]1

>  <mulliken_charges>  (474) 
13
1   -0.075602
2   -0.115224
3   0.208844
4   0.276593
5   -0.424638
6   -0.586626
7   -0.612806
8   0.133245
9   0.145637
10   0.1638
11   0.155957
12   0.33994
13   0.390879

>  <lowdin_charges>  (474) 
13
1   -0.164213
2   -0.13267
3   -0.088664
4   -0.042375
5   -0.187527
6   -0.183328
7   -0.472602
8   0.159338
9   0.143289
10   0.157732
11   0.167521
12   0.298681
13   0.344816

$$$$
PCCDB-ID:  1748
     RDKit          3D

 25 25  0  0  0  0  0  0  0  0999 V2000
    3.0283    1.2605   -0.2055 C   0  0  0  0  0  0  0  0  0  0  0  0
    3.2213   -3.2751   -1.0956 C   0  0  0  0  0  0  0  0  0  0  0  0
    2.6824   -2.1225   -0.5221 C   0  0  0  0  0  0  0  0  0  0  0  0
    4.4055   -4.4700   -2.9928 C   0  0  0  0  0  0  0  0  0  0  0  0
    3.3594   -5.2052   -3.8481 C   0  0  0  0  0  0  0  0  0  0  0  0
    3.9284   -1.9814   -2.9927 C   0  0  0  0  0  0  0  0  0  0  0  0
    3.8559   -3.2199   -2.3411 C   0  0  0  0  0  0  0  0  0  0  0  0
    3.3816   -0.8264   -2.4315 C   0  0  0  0  0  0  0  0  0  0  0  0
    2.7530   -0.8923   -1.1732 C   0  0  0  0  0  0  0  0  0  0  0  0
    3.9363   -6.4277   -4.4177 N   0  0  0  0  0  0  0  0  0  0  0  0
    3.4239    0.3907   -3.0617 O   0  0  0  0  0  0  0  0  0  0  0  0
    2.1518    0.2030   -0.6006 O   0  0  0  0  0  0  0  0  0  0  0  0
    2.3943    2.0179    0.2616 H   0  0  0  0  0  0  0  0  0  0  0  0
    3.5472    1.6964   -1.0647 H   0  0  0  0  0  0  0  0  0  0  0  0
    3.7654    0.9039    0.5270 H   0  0  0  0  0  0  0  0  0  0  0  0
    3.1546   -4.2221   -0.5660 H   0  0  0  0  0  0  0  0  0  0  0  0
    2.1904   -2.1545    0.4455 H   0  0  0  0  0  0  0  0  0  0  0  0
    5.2652   -4.2134   -3.6280 H   0  0  0  0  0  0  0  0  0  0  0  0
    4.7746   -5.1688   -2.2336 H   0  0  0  0  0  0  0  0  0  0  0  0
    2.9517   -4.5015   -4.5968 H   0  0  0  0  0  0  0  0  0  0  0  0
    2.5188   -5.4966   -3.2069 H   0  0  0  0  0  0  0  0  0  0  0  0
    4.4174   -1.9131   -3.9650 H   0  0  0  0  0  0  0  0  0  0  0  0
    4.6394   -6.1807   -5.1139 H   0  0  0  0  0  0  0  0  0  0  0  0
    3.2171   -6.9458   -4.9201 H   0  0  0  0  0  0  0  0  0  0  0  0
    3.8735    0.2797   -3.9138 H   0  0  0  0  0  0  0  0  0  0  0  0
  1 13  1  0
  1 15  1  0
  2 16  1  0
  2  3  2  0
  3 17  1  0
  4  7  1  0
  4 19  1  0
  5 21  1  0
  5  4  1  0
  6  8  1  0
  6  7  2  0
  7  2  1  0
  8  9  2  0
  9 12  1  0
  9  3  1  0
 10  5  1  0
 11  8  1  0
 12  1  1  0
 14  1  1  0
 18  4  1  0
 20  5  1  0
 22  6  1  0
 23 10  1  0
 24 10  1  0
 25 11  1  0
M  END
>  <HBA>  (475) 
3

>  <HBD>  (475) 
2

>  <TPSA>  (475) 
55.48

>  <cid>  (475) 
1748

>  <dipole>  (475) 
2.62

>  <excitation_energy_1>  (475) 
4.917

>  <excitation_energy_2>  (475) 
4.961

>  <excitation_energy_3>  (475) 
5.438

>  <excitation_energy_4>  (475) 
5.556

>  <homo_energy>  (475) 
-5.704

>  <homo_lumo_gap>  (475) 
5.859

>  <logP>  (475) 
1.602

>  <lumo_energy>  (475) 
0.155

>  <melting_point>  (475) 
107.82

>  <molecular_refractivity>  (475) 
47.44

>  <oscillator_strength_1>  (475) 
0.0543

>  <oscillator_strength_2>  (475) 
0.0015

>  <oscillator_strength_3>  (475) 
0.0181

>  <oscillator_strength_4>  (475) 
0.0535

>  <open_babel_can_smiles>  (475) 
NCCc1ccc(c(c1)O)OC

>  <mulliken_charges>  (475) 
25
1   -0.212472
2   -0.199645
3   -0.173186
4   -0.342944
5   -0.12974
6   -0.263579
7   0.175457
8   0.324885
9   0.323568
10   -0.714203
11   -0.644865
12   -0.520477
13   0.157026
14   0.166589
15   0.137242
16   0.124256
17   0.135873
18   0.130479
19   0.158758
20   0.115996
21   0.146474
22   0.108457
23   0.290777
24   0.297098
25   0.408176

>  <lowdin_charges>  (475) 
25
1   -0.279832
2   -0.183614
3   -0.16595
4   -0.277047
5   -0.205418
6   -0.2202
7   -0.000201
8   0.077916
9   0.063242
10   -0.560881
11   -0.377097
12   -0.223861
13   0.156609
14   0.152594
15   0.138513
16   0.156745
17   0.165755
18   0.142905
19   0.159364
20   0.119927
21   0.14619
22   0.147828
23   0.251313
24   0.25716
25   0.358039

$$$$
PCCDB-ID:  1750
     RDKit          3D

 18 19  0  0  0  0  0  0  0  0999 V2000
    2.1657   -0.6628    0.1650 C   0  0  0  0  0  0  0  0  0  0  0  0
    0.9664   -1.3973    0.1012 C   0  0  0  0  0  0  0  0  0  0  0  0
    2.1376    0.7245    0.1328 C   0  0  0  0  0  0  0  0  0  0  0  0
   -1.7179    1.0980   -0.1349 C   0  0  0  0  0  0  0  0  0  0  0  0
   -2.4959   -0.0016   -0.1623 C   0  0  0  0  0  0  0  0  0  0  0  0
   -0.2863    0.7039   -0.0299 C   0  0  0  0  0  0  0  0  0  0  0  0
   -0.2218   -0.7032    0.0061 C   0  0  0  0  0  0  0  0  0  0  0  0
    0.9113    1.4095    0.0361 C   0  0  0  0  0  0  0  0  0  0  0  0
   -1.6340   -1.2228   -0.0764 C   0  0  0  0  0  0  0  0  0  0  0  0
    0.9477    2.8787    0.0059 N   0  0  0  0  0  0  0  0  0  0  0  0
   -1.9821   -2.3871   -0.0733 O   0  0  0  0  0  0  0  0  0  0  0  0
    2.0469    3.4264    0.0725 O   0  0  0  0  0  0  0  0  0  0  0  0
   -0.1242    3.4794   -0.0841 O   0  0  0  0  0  0  0  0  0  0  0  0
    3.1186   -1.1772    0.2393 H   0  0  0  0  0  0  0  0  0  0  0  0
    0.9641   -2.4833    0.1253 H   0  0  0  0  0  0  0  0  0  0  0  0
    3.0491    1.3073    0.1811 H   0  0  0  0  0  0  0  0  0  0  0  0
   -2.0404    2.1275   -0.1813 H   0  0  0  0  0  0  0  0  0  0  0  0
   -3.5752   -0.0425   -0.2343 H   0  0  0  0  0  0  0  0  0  0  0  0
  1 14  1  0
  2 15  1  0
  2  1  2  0
  3  1  1  0
  3 16  1  0
  4  6  1  0
  5  4  2  0
  5  9  1  0
  6  7  2  0
  6  8  1  0
  7  2  1  0
  8  3  2  0
  9 11  2  0
  9  7  1  0
 10  8  1  0
 10 12  1  0
 13 10  2  0
 17  4  1  0
 18  5  1  0
M  CHG  2  10   1  12  -1
M  END
>  <HBA>  (476) 
1

>  <HBD>  (476) 
0

>  <TPSA>  (476) 
62.89

>  <cid>  (476) 
1750

>  <dipole>  (476) 
1.78

>  <excitation_energy_1>  (476) 
2.895

>  <excitation_energy_2>  (476) 
3.102

>  <excitation_energy_3>  (476) 
3.624

>  <excitation_energy_4>  (476) 
3.656

>  <homo_energy>  (476) 
-7.11

>  <homo_lumo_gap>  (476) 
3.94

>  <logP>  (476) 
2.328

>  <lumo_energy>  (476) 
-3.17

>  <melting_point>  (476) 
125.78

>  <molecular_refractivity>  (476) 
48.63

>  <oscillator_strength_1>  (476) 
0.0

>  <oscillator_strength_2>  (476) 
0.0212

>  <oscillator_strength_3>  (476) 
0.014

>  <oscillator_strength_4>  (476) 
0.0

>  <open_babel_can_smiles>  (476) 
O=C1C=Cc2c1cccc2N(=O)=O

>  <mulliken_charges>  (476) 
18
1   -0.147334
2   -0.148273
3   -0.140815
4   -0.11483
5   -0.175037
6   0.081798
7   0.027612
8   0.203267
9   0.385414
10   0.380677
11   -0.44152
12   -0.386917
13   -0.406855
14   0.157582
15   0.172282
16   0.189373
17   0.196457
18   0.167119

>  <lowdin_charges>  (476) 
18
1   -0.146861
2   -0.105191
3   -0.129933
4   -0.109141
5   -0.177025
6   0.014926
7   -0.043564
8   -0.000705
9   0.155668
10   0.309783
11   -0.195365
12   -0.239136
13   -0.246848
14   0.172362
15   0.179023
16   0.192036
17   0.190138
18   0.179833

$$$$
PCCDB-ID:  1754
     RDKit          3D

 42 41  0  0  0  0  0  0  0  0999 V2000
    1.5475   -0.9928   -2.5044 C   0  0  0  0  0  0  0  0  0  0  0  0
    2.7313   -1.2580   -3.4413 C   0  0  0  0  0  0  0  0  0  0  0  0
    3.5584   -2.4838   -3.0301 C   0  0  0  0  0  0  0  0  0  0  0  0
    4.7078   -2.8329   -3.9927 C   0  0  0  0  0  0  0  0  0  0  0  0
    5.8223   -1.7791   -4.1239 C   0  0  0  0  0  0  0  0  0  0  0  0
    6.6272   -1.5363   -2.8394 C   0  0  0  0  0  0  0  0  0  0  0  0
    7.7824   -0.5433   -3.0251 C   0  0  0  0  0  0  0  0  0  0  0  0
    8.5908   -0.3170   -1.7385 C   0  0  0  0  0  0  0  0  0  0  0  0
    9.8249    0.5865   -1.8926 C   0  0  0  0  0  0  0  0  0  0  0  0
   11.8949    4.8182   -2.4949 C   0  0  0  0  0  0  0  0  0  0  0  0
    9.4920    2.0367   -2.2233 C   0  0  0  0  0  0  0  0  0  0  0  0
   10.5175    4.1455   -2.5333 C   0  0  0  0  0  0  0  0  0  0  0  0
   11.8208    6.3031   -2.8246 C   0  0  0  0  0  0  0  0  0  0  0  0
   11.9652    7.1898   -2.0233 O   0  0  0  0  0  0  0  0  0  0  0  0
   11.5370    6.6023   -4.1264 O   0  0  0  0  0  0  0  0  0  0  0  0
   10.7054    2.7779   -2.2497 O   0  0  0  0  0  0  0  0  0  0  0  0
    0.8618   -1.8489   -2.4800 H   0  0  0  0  0  0  0  0  0  0  0  0
    0.9737   -0.1149   -2.8225 H   0  0  0  0  0  0  0  0  0  0  0  0
    1.8875   -0.8142   -1.4767 H   0  0  0  0  0  0  0  0  0  0  0  0
    3.3713   -0.3662   -3.4717 H   0  0  0  0  0  0  0  0  0  0  0  0
    2.3611   -1.4016   -4.4668 H   0  0  0  0  0  0  0  0  0  0  0  0
    2.8883   -3.3530   -2.9632 H   0  0  0  0  0  0  0  0  0  0  0  0
    3.9503   -2.3328   -2.0142 H   0  0  0  0  0  0  0  0  0  0  0  0
    4.2846   -3.0214   -4.9897 H   0  0  0  0  0  0  0  0  0  0  0  0
    5.1601   -3.7823   -3.6715 H   0  0  0  0  0  0  0  0  0  0  0  0
    5.3978   -0.8270   -4.4724 H   0  0  0  0  0  0  0  0  0  0  0  0
    6.5131   -2.1043   -4.9151 H   0  0  0  0  0  0  0  0  0  0  0  0
    7.0288   -2.4951   -2.4782 H   0  0  0  0  0  0  0  0  0  0  0  0
    5.9649   -1.1666   -2.0444 H   0  0  0  0  0  0  0  0  0  0  0  0
    7.3765    0.4102   -3.3919 H   0  0  0  0  0  0  0  0  0  0  0  0
    8.4556   -0.9101   -3.8144 H   0  0  0  0  0  0  0  0  0  0  0  0
    8.9256   -1.2920   -1.3593 H   0  0  0  0  0  0  0  0  0  0  0  0
    7.9314    0.0974   -0.9615 H   0  0  0  0  0  0  0  0  0  0  0  0
   10.4884    0.1899   -2.6724 H   0  0  0  0  0  0  0  0  0  0  0  0
   10.4021    0.5823   -0.9598 H   0  0  0  0  0  0  0  0  0  0  0  0
   12.5575    4.3021   -3.2021 H   0  0  0  0  0  0  0  0  0  0  0  0
   12.3219    4.7166   -1.4956 H   0  0  0  0  0  0  0  0  0  0  0  0
    8.8102    2.4556   -1.4627 H   0  0  0  0  0  0  0  0  0  0  0  0
    8.9839    2.1212   -3.1982 H   0  0  0  0  0  0  0  0  0  0  0  0
   10.0425    4.2764   -3.5228 H   0  0  0  0  0  0  0  0  0  0  0  0
    9.8492    4.6159   -1.7933 H   0  0  0  0  0  0  0  0  0  0  0  0
   11.4792    5.7881   -4.6530 H   0  0  0  0  0  0  0  0  0  0  0  0
  1 17  1  0
  1 19  1  0
  2  3  1  0
  2  1  1  0
  3 22  1  0
  3 23  1  0
  4 25  1  0
  4  3  1  0
  5  4  1  0
  5  6  1  0
  6 28  1  0
  6 29  1  0
  7  6  1  0
  7  8  1  0
  8 32  1  0
  8 33  1  0
  9  8  1  0
  9 35  1  0
 10 37  1  0
 11  9  1  0
 11 38  1  0
 12 10  1  0
 12 16  1  0
 12 41  1  0
 13 10  1  0
 13 14  2  0
 15 13  1  0
 16 11  1  0
 18  1  1  0
 20  2  1  0
 21  2  1  0
 24  4  1  0
 26  5  1  0
 27  5  1  0
 30  7  1  0
 31  7  1  0
 34  9  1  0
 36 10  1  0
 39 11  1  0
 40 12  1  0
 42 15  1  0
M  END
>  <HBA>  (477) 
3

>  <HBD>  (477) 
1

>  <TPSA>  (477) 
46.53

>  <cid>  (477) 
1754

>  <dipole>  (477) 
4.66

>  <excitation_energy_1>  (477) 
5.6

>  <excitation_energy_2>  (477) 
6.311

>  <excitation_energy_3>  (477) 
6.585

>  <excitation_energy_4>  (477) 
6.614

>  <homo_energy>  (477) 
-7.29

>  <homo_lumo_gap>  (477) 
7.431

>  <logP>  (477) 
3.618

>  <lumo_energy>  (477) 
0.142

>  <melting_point>  (477) 
37.0

>  <molecular_refractivity>  (477) 
67.46

>  <oscillator_strength_1>  (477) 
0.0019

>  <oscillator_strength_2>  (477) 
0.0061

>  <oscillator_strength_3>  (477) 
0.0067

>  <oscillator_strength_4>  (477) 
0.0199

>  <open_babel_can_smiles>  (477) 
CCCCCCCCCCOCCC(=O)O

>  <mulliken_charges>  (477) 
42
1   -0.441759
2   -0.247904
3   -0.249972
4   -0.257936
5   -0.257402
6   -0.254366
7   -0.256317
8   -0.266739
9   -0.274423
10   -0.388968
11   -0.009912
12   -0.005699
13   0.579003
14   -0.429095
15   -0.562538
16   -0.48028
17   0.141872
18   0.14164
19   0.140747
20   0.132751
21   0.129678
22   0.127792
23   0.130564
24   0.127169
25   0.126675
26   0.131152
27   0.127224
28   0.128102
29   0.133232
30   0.129693
31   0.129267
32   0.136852
33   0.130793
34   0.142606
35   0.148106
36   0.165001
37   0.19371
38   0.122016
39   0.122917
40   0.110019
41   0.145828
42   0.408901

>  <lowdin_charges>  (477) 
42
1   -0.444128
2   -0.274066
3   -0.278048
4   -0.275716
5   -0.279124
6   -0.277329
7   -0.278306
8   -0.276397
9   -0.282033
10   -0.320007
11   -0.131126
12   -0.126888
13   0.19843
14   -0.233261
15   -0.364548
16   -0.271637
17   0.146774
18   0.149697
19   0.144985
20   0.139094
21   0.1375
22   0.141352
23   0.137054
24   0.139865
25   0.140024
26   0.138387
27   0.141408
28   0.137988
29   0.140455
30   0.136963
31   0.139333
32   0.145505
33   0.140383
34   0.148174
35   0.15256
36   0.164443
37   0.18074
38   0.128597
39   0.126855
40   0.118712
41   0.140148
42   0.357187

$$$$
PCCDB-ID:  1755
     RDKit          3D

 31 30  0  0  0  0  0  0  0  0999 V2000
    0.6898    0.4978   -0.3748 C   0  0  0  0  0  0  0  0  0  0  0  0
    0.3915   -0.7566    0.4616 C   0  0  0  0  0  0  0  0  0  0  0  0
    0.5369    1.8231    0.3852 C   0  0  0  0  0  0  0  0  0  0  0  0
   -1.0734   -0.8838    0.8905 C   0  0  0  0  0  0  0  0  0  0  0  0
    0.9187    3.0434   -0.4782 C   0  0  0  0  0  0  0  0  0  0  0  0
   -2.7630   -2.2590    2.2881 C   0  0  0  0  0  0  0  0  0  0  0  0
   -3.2448   -3.6828    2.6331 C   0  0  0  0  0  0  0  0  0  0  0  0
   -1.3932   -2.1695    1.6324 C   0  0  0  0  0  0  0  0  0  0  0  0
    0.6940    4.3607    0.2537 C   0  0  0  0  0  0  0  0  0  0  0  0
   -2.6544   -4.2760    3.9180 C   0  0  0  0  0  0  0  0  0  0  0  0
   -0.5851   -3.0880    1.6893 O   0  0  0  0  0  0  0  0  0  0  0  0
   -0.1998    5.1302    0.0101 O   0  0  0  0  0  0  0  0  0  0  0  0
    1.5615    4.6259    1.2731 O   0  0  0  0  0  0  0  0  0  0  0  0
   -3.3341   -4.5420    4.8813 O   0  0  0  0  0  0  0  0  0  0  0  0
   -1.3265   -4.4936    3.9138 O   0  0  0  0  0  0  0  0  0  0  0  0
    0.0393    0.5128   -1.2610 H   0  0  0  0  0  0  0  0  0  0  0  0
    1.7178    0.4235   -0.7551 H   0  0  0  0  0  0  0  0  0  0  0  0
    1.0312   -0.7701    1.3535 H   0  0  0  0  0  0  0  0  0  0  0  0
    0.6640   -1.6485   -0.1129 H   0  0  0  0  0  0  0  0  0  0  0  0
    1.1580    1.7943    1.2923 H   0  0  0  0  0  0  0  0  0  0  0  0
   -0.4978    1.9528    0.7266 H   0  0  0  0  0  0  0  0  0  0  0  0
   -1.7377   -0.8468    0.0121 H   0  0  0  0  0  0  0  0  0  0  0  0
   -1.3935   -0.0429    1.5216 H   0  0  0  0  0  0  0  0  0  0  0  0
    0.3046    3.0731   -1.3818 H   0  0  0  0  0  0  0  0  0  0  0  0
    1.9691    2.9633   -0.7929 H   0  0  0  0  0  0  0  0  0  0  0  0
   -2.7389   -1.6284    3.1898 H   0  0  0  0  0  0  0  0  0  0  0  0
   -3.4890   -1.7737    1.6229 H   0  0  0  0  0  0  0  0  0  0  0  0
   -3.0254   -4.3534    1.7923 H   0  0  0  0  0  0  0  0  0  0  0  0
   -4.3267   -3.6680    2.7764 H   0  0  0  0  0  0  0  0  0  0  0  0
    2.2367    3.9301    1.3290 H   0  0  0  0  0  0  0  0  0  0  0  0
   -0.9425   -4.1854    3.0609 H   0  0  0  0  0  0  0  0  0  0  0  0
  1  3  1  0
  1  2  1  0
  2  4  1  0
  2 18  1  0
  3 21  1  0
  3 20  1  0
  4 23  1  0
  4  8  1  0
  5  9  1  0
  5  3  1  0
  6  7  1  0
  6 26  1  0
  7 29  1  0
  7 10  1  0
  8 11  2  0
  8  6  1  0
  9 13  1  0
 10 14  2  0
 12  9  2  0
 13 30  1  0
 15 10  1  0
 16  1  1  0
 17  1  1  0
 19  2  1  0
 22  4  1  0
 24  5  1  0
 25  5  1  0
 27  6  1  0
 28  7  1  0
 31 15  1  0
M  END
>  <HBA>  (478) 
5

>  <HBD>  (478) 
2

>  <TPSA>  (478) 
91.67

>  <cid>  (478) 
1755

>  <dipole>  (478) 
5.47

>  <excitation_energy_1>  (478) 
4.531

>  <excitation_energy_2>  (478) 
4.993

>  <excitation_energy_3>  (478) 
5.535

>  <excitation_energy_4>  (478) 
5.596

>  <homo_energy>  (478) 
-6.988

>  <homo_lumo_gap>  (478) 
5.516

>  <logP>  (478) 
1.455

>  <lumo_energy>  (478) 
-1.472

>  <melting_point>  (478) 
146.49

>  <molecular_refractivity>  (478) 
53.93

>  <oscillator_strength_1>  (478) 
0.0002

>  <oscillator_strength_2>  (478) 
0.0009

>  <oscillator_strength_3>  (478) 
0.0019

>  <oscillator_strength_4>  (478) 
0.0023

>  <open_babel_can_smiles>  (478) 
O=C(CCC(=O)O)CCCCCC(=O)O

>  <mulliken_charges>  (478) 
31
1   -0.262463
2   -0.255985
3   -0.273429
4   -0.366518
5   -0.376159
6   -0.374527
7   -0.376288
8   0.473696
9   0.587111
10   0.576244
11   -0.469938
12   -0.432199
13   -0.56158
14   -0.447484
15   -0.586705
16   0.140355
17   0.141811
18   0.149803
19   0.163506
20   0.131463
21   0.161039
22   0.174955
23   0.172372
24   0.180896
25   0.152084
26   0.198461
27   0.175623
28   0.172779
29   0.182403
30   0.408629
31   0.440046

>  <lowdin_charges>  (478) 
31
1   -0.274292
2   -0.272776
3   -0.274542
4   -0.31032
5   -0.314222
6   -0.311015
7   -0.3143
8   0.184914
9   0.194776
10   0.187987
11   -0.245511
12   -0.235204
13   -0.361586
14   -0.254966
15   -0.370074
16   0.144591
17   0.146827
18   0.151345
19   0.161029
20   0.138323
21   0.150791
22   0.171092
23   0.167059
24   0.173577
25   0.153336
26   0.182575
27   0.172541
28   0.167704
29   0.175641
30   0.358086
31   0.356612

$$$$
PCCDB-ID:  1774
     RDKit          3D

 19 19  0  0  0  0  0  0  0  0999 V2000
    0.9950   -0.0912   -0.0910 C   0  0  0  0  0  0  0  0  0  0  0  0
    2.8265   -0.0257    1.6473 C   0  0  0  0  0  0  0  0  0  0  0  0
    4.1870    0.5231   -1.6159 C   0  0  0  0  0  0  0  0  0  0  0  0
    3.1853    1.1683   -0.6124 C   0  0  0  0  0  0  0  0  0  0  0  0
    4.0149   -0.9421   -1.3945 C   0  0  0  0  0  3  0  0  0  0  0  0
    2.5037    0.0055    0.1510 C   0  0  0  0  0  0  0  0  0  0  0  0
    3.1385   -1.2351   -0.4705 N   0  0  0  0  0  0  0  0  0  0  0  0
    2.7793   -2.3770   -0.0564 O   0  0  0  0  0  1  0  0  0  0  0  0
    0.4836    0.7507    0.3881 H   0  0  0  0  0  0  0  0  0  0  0  0
    0.6103   -1.0264    0.3237 H   0  0  0  0  0  0  0  0  0  0  0  0
    0.7677   -0.0676   -1.1627 H   0  0  0  0  0  0  0  0  0  0  0  0
    2.3385    0.8138    2.1541 H   0  0  0  0  0  0  0  0  0  0  0  0
    3.9063    0.0498    1.8177 H   0  0  0  0  0  0  0  0  0  0  0  0
    2.4717   -0.9626    2.0843 H   0  0  0  0  0  0  0  0  0  0  0  0
    5.2209    0.8432   -1.4264 H   0  0  0  0  0  0  0  0  0  0  0  0
    3.9671    0.8066   -2.6543 H   0  0  0  0  0  0  0  0  0  0  0  0
    2.4410    1.7711   -1.1403 H   0  0  0  0  0  0  0  0  0  0  0  0
    3.7039    1.8355    0.0819 H   0  0  0  0  0  0  0  0  0  0  0  0
    4.5275   -1.7500   -1.9007 H   0  0  0  0  0  0  0  0  0  0  0  0
  1  6  1  0
  1 10  1  0
  1  9  1  0
  2 13  1  0
  2 14  1  0
  2 12  1  0
  3 15  1  0
  3  5  1  0
  3  4  1  0
  4 18  1  0
  4  6  1  0
  5  7  1  0
  6  2  1  0
  7  8  1  0
  7  6  1  0
 11  1  1  0
 16  3  1  0
 17  4  1  0
 19  5  1  0
M  RAD  2   5   2   8   2
M  END
>  <HBA>  (479) 
1

>  <HBD>  (479) 
0

>  <TPSA>  (479) 
28.75

>  <cid>  (479) 
1774

>  <dipole>  (479) 
3.74

>  <excitation_energy_1>  (479) 
4.517

>  <excitation_energy_2>  (479) 
5.171

>  <excitation_energy_3>  (479) 
5.323

>  <excitation_energy_4>  (479) 
5.619

>  <homo_energy>  (479) 
-5.592

>  <homo_lumo_gap>  (479) 
5.535

>  <logP>  (479) 
1.099

>  <lumo_energy>  (479) 
-0.057

>  <melting_point>  (479) 
36.61

>  <molecular_refractivity>  (479) 
39.26

>  <oscillator_strength_1>  (479) 
0.0

>  <oscillator_strength_2>  (479) 
0.0001

>  <oscillator_strength_3>  (479) 
0.1827

>  <oscillator_strength_4>  (479) 
0.0001

>  <open_babel_can_smiles>  (479) 
[O]N1[CH]CCC1(C)C

>  <mulliken_charges>  (479) 
19
1   -0.449916
2   -0.449772
3   -0.337099
4   -0.324186
5   0.053544
6   0.190362
7   0.088209
8   -0.519269
9   0.146904
10   0.183287
11   0.147236
12   0.147021
13   0.147075
14   0.183278
15   0.158626
16   0.158629
17   0.156916
18   0.156752
19   0.162403

>  <lowdin_charges>  (479) 
19
1   -0.44564
2   -0.445457
3   -0.273865
4   -0.286028
5   -0.170874
6   0.063019
7   0.194724
8   -0.39089
9   0.155558
10   0.171676
11   0.151457
12   0.155632
13   0.151199
14   0.171664
15   0.153354
16   0.153503
17   0.157817
18   0.157873
19   0.175278

$$$$
PCCDB-ID:  1809
     RDKit          3D

 28 29  0  0  0  0  0  0  0  0999 V2000
    2.2892    1.4937   -0.0327 C   0  0  0  0  0  0  0  0  0  0  0  0
    1.0085    2.0194    0.0397 C   0  0  0  0  0  0  0  0  0  0  0  0
   -1.4807   -2.3750   -0.0699 C   0  0  0  0  0  0  0  0  0  0  0  0
   -1.3715   -3.0565    1.3058 C   0  0  0  0  0  0  0  0  0  0  0  0
    1.4365   -0.7892   -0.0903 C   0  0  0  0  0  0  0  0  0  0  0  0
   -2.0823    0.1262    0.0301 C   0  0  0  0  0  0  0  0  0  0  0  0
    2.5171    0.0968   -0.0999 C   0  0  0  0  0  0  0  0  0  0  0  0
   -1.1784   -0.9043   -0.0342 C   0  0  0  0  0  0  0  0  0  0  0  0
    0.1273   -0.2875   -0.0305 C   0  0  0  0  0  0  0  0  0  0  0  0
   -0.0647    1.1210    0.0359 C   0  0  0  0  0  0  0  0  0  0  0  0
    3.9172   -0.4151   -0.2028 C   0  0  0  0  0  0  0  0  0  0  0  0
   -1.5845   -4.5007    1.1725 N   0  0  0  0  0  0  0  0  0  0  0  0
    4.8936    0.1150   -0.8245 N   0  0  0  0  0  0  0  0  0  0  0  0
   -1.4217    1.3426    0.0809 N   0  0  0  0  0  0  0  0  0  0  0  0
    4.1554   -1.6024    0.4311 O   0  0  0  0  0  0  0  0  0  0  0  0
    3.1452    2.1617   -0.0111 H   0  0  0  0  0  0  0  0  0  0  0  0
    0.8482    3.0924    0.1034 H   0  0  0  0  0  0  0  0  0  0  0  0
   -2.4953   -2.5311   -0.4625 H   0  0  0  0  0  0  0  0  0  0  0  0
   -0.8021   -2.8920   -0.7593 H   0  0  0  0  0  0  0  0  0  0  0  0
   -2.0642   -2.5527    2.0042 H   0  0  0  0  0  0  0  0  0  0  0  0
   -0.3616   -2.9012    1.7050 H   0  0  0  0  0  0  0  0  0  0  0  0
    1.6069   -1.8598   -0.1780 H   0  0  0  0  0  0  0  0  0  0  0  0
   -3.1635    0.0927    0.0447 H   0  0  0  0  0  0  0  0  0  0  0  0
   -2.5485   -4.6781    0.8906 H   0  0  0  0  0  0  0  0  0  0  0  0
   -1.4709   -4.9536    2.0778 H   0  0  0  0  0  0  0  0  0  0  0  0
    4.5705    0.9444   -1.3249 H   0  0  0  0  0  0  0  0  0  0  0  0
   -1.8682    2.2463    0.0958 H   0  0  0  0  0  0  0  0  0  0  0  0
    3.4297   -1.7668    1.0530 H   0  0  0  0  0  0  0  0  0  0  0  0
  1 16  1  0
  1  2  2  0
  2 17  1  0
  3  8  1  0
  3  4  1  0
  4 21  1  0
  4 20  1  0
  5  9  1  0
  6 23  1  0
  6 14  1  0
  7  5  2  0
  7  1  1  0
  8  9  1  0
  8  6  2  0
  9 10  2  0
 10  2  1  0
 10 14  1  0
 11  7  1  0
 11 15  1  0
 12  4  1  0
 12 25  1  0
 13 11  2  0
 14 27  1  0
 15 28  1  0
 18  3  1  0
 19  3  1  0
 22  5  1  0
 24 12  1  0
 26 13  1  0
M  END
>  <HBA>  (480) 
3

>  <HBD>  (480) 
3

>  <TPSA>  (480) 
84.9

>  <cid>  (480) 
1809

>  <dipole>  (480) 
8.34

>  <excitation_energy_1>  (480) 
4.333

>  <excitation_energy_2>  (480) 
4.506

>  <excitation_energy_3>  (480) 
4.922

>  <excitation_energy_4>  (480) 
5.126

>  <homo_energy>  (480) 
-5.804

>  <homo_lumo_gap>  (480) 
5.059

>  <logP>  (480) 
2.169

>  <lumo_energy>  (480) 
-0.746

>  <melting_point>  (480) 
244.16

>  <molecular_refractivity>  (480) 
58.87

>  <oscillator_strength_1>  (480) 
0.0302

>  <oscillator_strength_2>  (480) 
0.0114

>  <oscillator_strength_3>  (480) 
0.0015

>  <oscillator_strength_4>  (480) 
0.0067

>  <open_babel_can_smiles>  (480) 
NCCc1c[nH]c2c1cc(cc2)C(=N)O

>  <mulliken_charges>  (480) 
28
1   -0.201014
2   -0.161729
3   -0.339846
4   -0.127622
5   -0.290757
6   -0.003622
7   0.06567
8   0.079548
9   0.079708
10   0.323072
11   0.421781
12   -0.713857
13   -0.590979
14   -0.691721
15   -0.579343
16   0.139608
17   0.131761
18   0.133485
19   0.162596
20   0.11474
21   0.140516
22   0.149495
23   0.151441
24   0.292262
25   0.298063
26   0.282954
27   0.330956
28   0.402835

>  <lowdin_charges>  (480) 
28
1   -0.163815
2   -0.176838
3   -0.273351
4   -0.20395
5   -0.169772
6   -0.129378
7   -0.065111
8   -0.055003
9   -0.032592
10   0.036379
11   0.127026
12   -0.556632
13   -0.398664
14   -0.196508
15   -0.368467
16   0.16461
17   0.158837
18   0.145409
19   0.161102
20   0.119739
21   0.141332
22   0.162656
23   0.163837
24   0.249673
25   0.255765
26   0.256388
27   0.293615
28   0.353713

$$$$
PCCDB-ID:  1839
     RDKit          3D

 20 20  0  0  0  0  0  0  0  0999 V2000
   -0.2871    0.3989   -1.3769 C   0  0  0  0  0  0  0  0  0  0  0  0
    0.0778   -0.9651   -1.2792 C   0  0  0  0  0  0  0  0  0  0  0  0
   -0.8292    2.1189    0.4986 C   0  0  0  0  0  0  0  0  0  0  0  0
   -0.4618    0.8529   -0.0843 C   0  0  0  0  0  0  0  0  0  0  0  0
    0.0990   -1.2429    0.0626 C   0  0  0  0  0  0  0  0  0  0  0  0
   -1.6777    5.4108   -0.4709 C   0  0  0  0  0  0  0  0  0  0  0  0
   -1.6514    5.5291   -1.7326 N   0  0  0  0  0  0  0  0  0  0  0  0
   -1.0687    3.1342   -0.2591 N   0  0  0  0  0  0  0  0  0  0  0  0
   -1.4086    4.2928    0.3185 N   0  0  0  0  0  0  0  0  0  0  0  0
    0.3959   -2.4509    0.7564 N   0  0  0  0  0  0  0  0  0  0  0  0
   -1.9962    6.4401    0.3507 O   0  0  0  0  0  0  0  0  0  0  0  0
    0.6881   -3.4206    0.0473 O   0  0  0  0  0  0  0  0  0  0  0  0
    0.3411   -2.4418    1.9865 O   0  0  0  0  0  0  0  0  0  0  0  0
   -0.2250   -0.1574    0.8033 O   0  0  0  0  0  0  0  0  0  0  0  0
   -0.4098    0.9886   -2.2733 H   0  0  0  0  0  0  0  0  0  0  0  0
    0.2990   -1.6632   -2.0719 H   0  0  0  0  0  0  0  0  0  0  0  0
   -0.8907    2.1590    1.5909 H   0  0  0  0  0  0  0  0  0  0  0  0
   -1.3895    4.6484   -2.1749 H   0  0  0  0  0  0  0  0  0  0  0  0
   -1.4839    4.3829    1.3299 H   0  0  0  0  0  0  0  0  0  0  0  0
   -2.1750    7.1938   -0.2385 H   0  0  0  0  0  0  0  0  0  0  0  0
  1  2  1  0
  1  4  2  0
  2  5  2  0
  3 17  1  0
  4  3  1  0
  4 14  1  0
  5 10  1  0
  5 14  1  0
  6  9  1  0
  6 11  1  0
  7  6  2  0
  8  9  1  0
  8  3  2  0
  9 19  1  0
 10 13  1  0
 12 10  2  0
 15  1  1  0
 16  2  1  0
 18  7  1  0
 20 11  1  0
M  CHG  2  10   1  13  -1
M  END
>  <HBA>  (481) 
5

>  <HBD>  (481) 
2

>  <TPSA>  (481) 
126.44

>  <cid>  (481) 
1839

>  <dipole>  (481) 
4.03

>  <excitation_energy_1>  (481) 
3.348

>  <excitation_energy_2>  (481) 
3.691

>  <excitation_energy_3>  (481) 
4.205

>  <excitation_energy_4>  (481) 
4.327

>  <homo_energy>  (481) 
-6.368

>  <homo_lumo_gap>  (481) 
3.592

>  <logP>  (481) 
1.804

>  <lumo_energy>  (481) 
-2.776

>  <melting_point>  (481) 
176.53

>  <molecular_refractivity>  (481) 
47.09

>  <oscillator_strength_1>  (481) 
0.6075

>  <oscillator_strength_2>  (481) 
0.0

>  <oscillator_strength_3>  (481) 
0.0003

>  <oscillator_strength_4>  (481) 
0.2653

>  <open_babel_can_smiles>  (481) 
OC(=N)N/N=C/c1ccc(o1)N(=O)=O

>  <mulliken_charges>  (481) 
20
1   -0.194898
2   -0.14282
3   -0.010173
4   0.368932
5   0.533784
6   0.67876
7   -0.63662
8   -0.213857
9   -0.453353
10   0.328296
11   -0.607289
12   -0.405258
13   -0.393112
14   -0.459733
15   0.175668
16   0.192342
17   0.155582
18   0.309534
19   0.342779
20   0.431437

>  <lowdin_charges>  (481) 
20
1   -0.183498
2   -0.14938
3   -0.130595
4   0.094591
5   0.067606
6   0.154018
7   -0.446944
8   -0.064988
9   -0.181328
10   0.300866
11   -0.372252
12   -0.258022
13   -0.23901
14   -0.063855
15   0.187979
16   0.197962
17   0.15444
18   0.27223
19   0.283214
20   0.376965

$$$$
PCCDB-ID:  1841
     RDKit          3D

 24 23  0  0  1  0  0  0  0  0999 V2000
    0.0968    0.0763    0.8673 C   0  0  0  0  0  0  0  0  0  0  0  0
    1.4203   -0.9570    6.0825 C   0  0  0  0  0  0  0  0  0  0  0  0
    1.4678   -0.1232    1.4903 C   0  0  1  0  0  0  0  0  0  0  0  0
    0.5825    0.0923    5.3440 C   0  0  2  0  0  0  0  0  0  0  0  0
    1.5861    0.3786    2.9486 C   0  0  1  0  0  0  0  0  0  0  0  0
    0.4510   -0.1703    3.8255 C   0  0  2  0  0  0  0  0  0  0  0  0
   -0.5268   -0.8788    0.4403 O   0  0  0  0  0  0  0  0  0  0  0  0
    0.8295   -2.2326    5.8236 O   0  0  0  0  0  0  0  0  0  0  0  0
    1.8128   -1.4938    1.4547 O   0  0  0  0  0  0  0  0  0  0  0  0
    2.8688    0.0210    3.4412 O   0  0  0  0  0  0  0  0  0  0  0  0
   -0.7345    0.4451    3.3050 O   0  0  0  0  0  0  0  0  0  0  0  0
    1.1191    1.7972    5.8042 S   0  0  0  0  0  0  0  0  0  0  0  0
   -0.2699    1.1106    0.7634 H   0  0  0  0  0  0  0  0  0  0  0  0
    1.4076   -0.7240    7.1561 H   0  0  0  0  0  0  0  0  0  0  0  0
    2.4590   -0.9175    5.7308 H   0  0  0  0  0  0  0  0  0  0  0  0
    2.1928    0.4537    0.8919 H   0  0  0  0  0  0  0  0  0  0  0  0
   -0.4347    0.0334    5.7481 H   0  0  0  0  0  0  0  0  0  0  0  0
    1.5311    1.4717    2.9651 H   0  0  0  0  0  0  0  0  0  0  0  0
    0.4035   -1.2588    3.6971 H   0  0  0  0  0  0  0  0  0  0  0  0
    1.3843   -2.9082    6.2414 H   0  0  0  0  0  0  0  0  0  0  0  0
    1.0379   -1.9432    1.0578 H   0  0  0  0  0  0  0  0  0  0  0  0
    2.9996   -0.9064    3.1708 H   0  0  0  0  0  0  0  0  0  0  0  0
   -1.4714   -0.1773    3.3999 H   0  0  0  0  0  0  0  0  0  0  0  0
    2.4073    1.6535    5.4237 H   0  0  0  0  0  0  0  0  0  0  0  0
  1  3  1  0
  2 14  1  0
  3 16  1  6
  3  5  1  0
  4 17  1  1
  4 12  1  0
  4  2  1  0
  5 18  1  6
  5 10  1  0
  5  6  1  0
  6 19  1  1
  6  4  1  0
  7  1  2  0
  8  2  1  0
  8 20  1  0
  9  3  1  0
 11 23  1  0
 11  6  1  0
 13  1  1  0
 15  2  1  0
 21  9  1  0
 22 10  1  0
 24 12  1  0
M  END
>  <HBA>  (482) 
6

>  <HBD>  (482) 
5

>  <TPSA>  (482) 
136.79

>  <cid>  (482) 
1841

>  <dipole>  (482) 
1.8

>  <excitation_energy_1>  (482) 
4.679

>  <excitation_energy_2>  (482) 
4.856

>  <excitation_energy_3>  (482) 
5.539

>  <excitation_energy_4>  (482) 
5.626

>  <homo_energy>  (482) 
-6.495

>  <homo_lumo_gap>  (482) 
5.66

>  <logP>  (482) 
-2.441

>  <lumo_energy>  (482) 
-0.835

>  <melting_point>  (482) 
99.89

>  <molecular_refractivity>  (482) 
43.73

>  <oscillator_strength_1>  (482) 
0.0004

>  <oscillator_strength_2>  (482) 
0.001

>  <oscillator_strength_3>  (482) 
0.0044

>  <oscillator_strength_4>  (482) 
0.055

>  <open_babel_can_smiles>  (482) 
OC[C@H]([C@H]([C@H]([C@H](C=O)O)O)O)S

>  <mulliken_charges>  (482) 
24
1   0.261046
2   -0.042553
3   0.044175
4   -0.274306
5   0.12159
6   0.10433
7   -0.430584
8   -0.626567
9   -0.66224
10   -0.636685
11   -0.630773
12   -0.087704
13   0.143799
14   0.145137
15   0.146119
16   0.161181
17   0.177859
18   0.164747
19   0.163797
20   0.399047
21   0.416139
22   0.416276
23   0.408116
24   0.118053

>  <lowdin_charges>  (482) 
24
1   0.053723
2   -0.144995
3   -0.053075
4   -0.235455
5   -0.021764
6   -0.028932
7   -0.244566
8   -0.481086
9   -0.468317
10   -0.452582
11   -0.442608
12   -0.078201
13   0.143265
14   0.140643
15   0.138486
16   0.161199
17   0.169854
18   0.157919
19   0.151308
20   0.350931
21   0.352842
22   0.351191
23   0.356231
24   0.123987

$$$$
PCCDB-ID:  1853
     RDKit          3D

 24 26  0  0  0  0  0  0  0  0999 V2000
    2.9017   -1.5388   -0.0001 C   0  0  0  0  0  0  0  0  0  0  0  0
    3.5705   -0.3026   -0.0002 C   0  0  0  0  0  0  0  0  0  0  0  0
   -2.8816   -1.4993    0.0001 C   0  0  0  0  0  0  0  0  0  0  0  0
   -3.5242   -0.2467    0.0002 C   0  0  0  0  0  0  0  0  0  0  0  0
    1.5200   -1.5851   -0.0001 C   0  0  0  0  0  0  0  0  0  0  0  0
   -1.5000   -1.5721   -0.0000 C   0  0  0  0  0  0  0  0  0  0  0  0
    2.8375    0.8691   -0.0005 C   0  0  0  0  0  0  0  0  0  0  0  0
   -2.7748    0.9140    0.0001 C   0  0  0  0  0  0  0  0  0  0  0  0
    0.7442   -0.4034   -0.0007 C   0  0  0  0  0  0  0  0  0  0  0  0
   -0.7083   -0.4022   -0.0004 C   0  0  0  0  0  0  0  0  0  0  0  0
    1.4252    0.8468   -0.0007 C   0  0  0  0  0  0  0  0  0  0  0  0
   -1.3628    0.8611   -0.0000 C   0  0  0  0  0  0  0  0  0  0  0  0
    0.6073    2.0518   -0.0004 C   0  0  0  0  0  0  0  0  0  0  0  0
   -0.6861    2.0604    0.0001 N   0  0  0  0  0  0  0  0  0  0  0  0
    1.1866    3.2819   -0.0007 O   0  0  0  0  0  0  0  0  0  0  0  0
    3.4729   -2.4630   -0.0002 H   0  0  0  0  0  0  0  0  0  0  0  0
    4.6559   -0.2671   -0.0005 H   0  0  0  0  0  0  0  0  0  0  0  0
   -3.4704   -2.4123    0.0001 H   0  0  0  0  0  0  0  0  0  0  0  0
   -4.6095   -0.1944    0.0003 H   0  0  0  0  0  0  0  0  0  0  0  0
    1.0262   -2.5505    0.0004 H   0  0  0  0  0  0  0  0  0  0  0  0
   -1.0261   -2.5487    0.0002 H   0  0  0  0  0  0  0  0  0  0  0  0
    3.3833    1.8105   -0.0006 H   0  0  0  0  0  0  0  0  0  0  0  0
   -3.2388    1.8951   -0.0002 H   0  0  0  0  0  0  0  0  0  0  0  0
    2.1506    3.1969   -0.0009 H   0  0  0  0  0  0  0  0  0  0  0  0
  2  1  2  0
  3  4  2  0
  4 19  1  0
  5  1  1  0
  5 20  1  0
  6  3  1  0
  6 21  1  0
  7  2  1  0
  8  4  1  0
  9 10  1  0
  9  5  2  0
 10  6  2  0
 10 12  1  0
 11  9  1  0
 11  7  2  0
 11 13  1  0
 12 14  1  0
 12  8  2  0
 13 14  2  0
 15 13  1  0
 16  1  1  0
 17  2  1  0
 18  3  1  0
 22  7  1  0
 23  8  1  0
 24 15  1  0
M  END
>  <HBA>  (483) 
1

>  <HBD>  (483) 
1

>  <TPSA>  (483) 
32.86

>  <cid>  (483) 
1853

>  <dipole>  (483) 
3.8

>  <excitation_energy_1>  (483) 
3.934

>  <excitation_energy_2>  (483) 
4.024

>  <excitation_energy_3>  (483) 
4.474

>  <excitation_energy_4>  (483) 
4.615

>  <homo_energy>  (483) 
-5.889

>  <homo_lumo_gap>  (483) 
4.596

>  <logP>  (483) 
2.681

>  <lumo_energy>  (483) 
-1.293

>  <melting_point>  (483) 
175.71

>  <molecular_refractivity>  (483) 
62.07

>  <oscillator_strength_1>  (483) 
0.0098

>  <oscillator_strength_2>  (483) 
0.0787

>  <oscillator_strength_3>  (483) 
0.1029

>  <oscillator_strength_4>  (483) 
0.0007

>  <open_babel_can_smiles>  (483) 
Oc1nc2ccccc2c2c1cccc2

>  <mulliken_charges>  (483) 
24
1   -0.132527
2   -0.125257
3   -0.13827
4   -0.131529
5   -0.178781
6   -0.196461
7   -0.228635
8   -0.154653
9   0.089232
10   0.091011
11   0.094078
12   0.232017
13   0.432947
14   -0.551525
15   -0.598061
16   0.140164
17   0.138988
18   0.129438
19   0.132104
20   0.142907
21   0.130796
22   0.120252
23   0.144502
24   0.417265

>  <lowdin_charges>  (483) 
24
1   -0.144079
2   -0.151984
3   -0.163305
4   -0.148373
5   -0.152369
6   -0.157326
7   -0.160698
8   -0.156348
9   0.016887
10   -0.029845
11   -0.048481
12   0.046326
13   0.131907
14   -0.16624
15   -0.349563
16   0.163856
17   0.161331
18   0.158778
19   0.157888
20   0.16331
21   0.156044
22   0.15078
23   0.169574
24   0.35193

$$$$
PCCDB-ID:  1883
     RDKit          3D

 24 25  0  0  1  0  0  0  0  0999 V2000
    1.1800   -0.5875   -1.6699 C   0  0  0  0  0  0  0  0  0  0  0  0
    2.2321   -1.6110    0.4348 C   0  0  0  0  0  0  0  0  0  0  0  0
    2.0180   -0.3937   -0.4399 C   0  0  0  0  0  0  0  0  0  0  0  0
    4.4805    0.2059    2.8454 C   0  0  1  0  0  0  0  0  0  0  0  0
    2.5650    0.7762   -0.0356 C   0  0  0  0  0  0  0  0  0  0  0  0
    3.4883    1.2715    2.3243 C   0  0  0  0  0  0  0  0  0  0  0  0
    4.4960   -0.2935    1.3350 C   0  0  2  0  0  0  0  0  0  0  0  0
    2.3474    2.1275   -0.6686 C   0  0  0  0  0  0  0  0  0  0  0  0
    5.6408    0.6699    3.5392 N   0  0  0  0  0  0  0  0  0  0  0  0
    3.4468    0.7013    1.0735 N   0  0  0  0  0  0  0  0  0  0  0  0
    2.9383    2.2751    2.7439 O   0  0  0  0  0  0  0  0  0  0  0  0
    2.0846    2.2728   -1.8431 O   0  0  0  0  0  0  0  0  0  0  0  0
    2.4542    3.1864    0.1499 O   0  0  0  0  0  0  0  0  0  0  0  0
    4.0101   -1.9848    0.8256 S   0  0  0  0  0  0  0  0  0  0  0  0
    1.6928   -1.2765   -2.3558 H   0  0  0  0  0  0  0  0  0  0  0  0
    1.0014    0.3491   -2.1948 H   0  0  0  0  0  0  0  0  0  0  0  0
    0.2230   -1.0572   -1.4072 H   0  0  0  0  0  0  0  0  0  0  0  0
    1.8591   -2.5141   -0.0546 H   0  0  0  0  0  0  0  0  0  0  0  0
    1.6891   -1.4968    1.3798 H   0  0  0  0  0  0  0  0  0  0  0  0
    3.9493   -0.5232    3.4665 H   0  0  0  0  0  0  0  0  0  0  0  0
    5.4379   -0.0536    0.8291 H   0  0  0  0  0  0  0  0  0  0  0  0
    6.2002    1.3129    2.9852 H   0  0  0  0  0  0  0  0  0  0  0  0
    6.2321   -0.0942    3.8527 H   0  0  0  0  0  0  0  0  0  0  0  0
    2.5279    2.9485    1.1074 H   0  0  0  0  0  0  0  0  0  0  0  0
  1 17  1  0
  1  3  1  0
  2 14  1  0
  2 19  1  0
  3  5  2  0
  3  2  1  0
  4 20  1  1
  4  9  1  0
  5 10  1  0
  6 11  2  0
  6  4  1  0
  7 21  1  6
  7  4  1  0
  8  5  1  0
  8 13  1  0
  9 23  1  0
 10  7  1  0
 10  6  1  0
 12  8  2  0
 13 24  1  0
 14  7  1  0
 15  1  1  0
 16  1  1  0
 18  2  1  0
 22  9  1  0
M  END
>  <HBA>  (484) 
6

>  <HBD>  (484) 
2

>  <TPSA>  (484) 
108.93

>  <cid>  (484) 
1883

>  <dipole>  (484) 
5.59

>  <excitation_energy_1>  (484) 
3.991

>  <excitation_energy_2>  (484) 
4.34

>  <excitation_energy_3>  (484) 
4.968

>  <excitation_energy_4>  (484) 
5.042

>  <homo_energy>  (484) 
-6.514

>  <homo_lumo_gap>  (484) 
4.966

>  <logP>  (484) 
0.226

>  <lumo_energy>  (484) 
-1.548

>  <melting_point>  (484) 
198.3

>  <molecular_refractivity>  (484) 
54.95

>  <oscillator_strength_1>  (484) 
0.0094

>  <oscillator_strength_2>  (484) 
0.0447

>  <oscillator_strength_3>  (484) 
0.0281

>  <oscillator_strength_4>  (484) 
0.0031

>  <open_babel_can_smiles>  (484) 
O=C1[C@H](N)[C@@H]2N1C(=C(CS2)C)C(=O)O

>  <mulliken_charges>  (484) 
24
1   -0.532454
2   -0.497786
3   0.135163
4   -0.079964
5   0.167769
6   0.57552
7   -0.119057
8   0.582666
9   -0.699372
10   -0.515696
11   -0.496375
12   -0.454438
13   -0.597412
14   0.118041
15   0.173387
16   0.220559
17   0.16099
18   0.196557
19   0.203106
20   0.194497
21   0.184948
22   0.314924
23   0.320037
24   0.444388

>  <lowdin_charges>  (484) 
24
1   -0.448383
2   -0.369935
3   0.026748
4   -0.093113
5   -0.036069
6   0.14988
7   -0.178489
8   0.187925
9   -0.519706
10   -0.08643
11   -0.266873
12   -0.249573
13   -0.351856
14   0.104802
15   0.172226
16   0.192158
17   0.162217
18   0.181552
19   0.175549
20   0.178853
21   0.1631
22   0.269351
23   0.273676
24   0.36239

$$$$
PCCDB-ID:  1890
     RDKit          3D

 30 32  0  0  1  0  0  0  0  0999 V2000
   -1.4098   -0.1386   -0.0592 C   0  0  0  0  0  0  0  0  0  0  0  0
   -0.7383   -0.6441   -1.1747 C   0  0  0  0  0  0  0  0  0  0  0  0
   -0.6867    0.4829    0.9598 C   0  0  0  0  0  0  0  0  0  0  0  0
    0.6473   -0.5221   -1.2763 C   0  0  0  0  0  0  0  0  0  0  0  0
    0.7008    0.5966    0.8619 C   0  0  0  0  0  0  0  0  0  0  0  0
    7.5064   -0.9288   -1.8117 C   0  0  0  0  0  0  0  0  0  0  0  0
    6.8531    0.2830   -1.6747 C   0  0  0  0  0  0  0  0  0  0  0  0
    5.4067   -2.0963   -1.3935 C   0  0  0  0  0  0  0  0  0  0  0  0
    3.2591    1.5258   -1.2009 C   0  0  0  0  0  0  0  0  0  0  0  0
    1.3783    0.1001   -0.2568 C   0  0  0  0  0  0  0  0  0  0  0  0
    6.7719   -2.1232   -1.6777 C   0  0  0  0  0  0  0  0  0  0  0  0
    5.4766    0.3444   -1.4005 C   0  0  0  0  0  0  0  0  0  0  0  0
    4.7728    1.6376   -1.3519 C   0  0  0  0  0  0  0  0  0  0  0  0
    2.8729    0.2922   -0.3759 C   0  0  1  0  0  0  0  0  0  0  0  0
    4.7645   -0.8665   -1.2506 C   0  0  0  0  0  0  0  0  0  0  0  0
    7.3532   -3.3469   -1.8057 O   0  0  0  0  0  0  0  0  0  0  0  0
    5.3354    2.7179   -1.4624 O   0  0  0  0  0  0  0  0  0  0  0  0
    3.4323   -0.9003   -0.9716 O   0  0  0  0  0  0  0  0  0  0  0  0
   -2.4896   -0.2335    0.0173 H   0  0  0  0  0  0  0  0  0  0  0  0
   -1.2947   -1.1358   -1.9683 H   0  0  0  0  0  0  0  0  0  0  0  0
   -1.1997    0.8722    1.8351 H   0  0  0  0  0  0  0  0  0  0  0  0
    1.1702   -0.9258   -2.1377 H   0  0  0  0  0  0  0  0  0  0  0  0
    1.2616    1.0723    1.6637 H   0  0  0  0  0  0  0  0  0  0  0  0
    8.5716   -0.9658   -2.0299 H   0  0  0  0  0  0  0  0  0  0  0  0
    7.3843    1.2230   -1.7887 H   0  0  0  0  0  0  0  0  0  0  0  0
    4.8530   -3.0201   -1.2715 H   0  0  0  0  0  0  0  0  0  0  0  0
    2.8131    1.4438   -2.2024 H   0  0  0  0  0  0  0  0  0  0  0  0
    2.8712    2.4399   -0.7424 H   0  0  0  0  0  0  0  0  0  0  0  0
    3.3101    0.3897    0.6291 H   0  0  0  0  0  0  0  0  0  0  0  0
    8.2996   -3.2319   -1.9854 H   0  0  0  0  0  0  0  0  0  0  0  0
  1 19  1  0
  1  3  2  0
  2  1  1  0
  3 21  1  0
  4  2  2  0
  4 10  1  0
  5  3  1  0
  5 23  1  0
  6 11  2  0
  6  7  1  0
  7 12  2  0
  8 26  1  0
  8 15  2  0
  9 28  1  0
  9 14  1  0
 10  5  2  0
 11  8  1  0
 12 13  1  0
 12 15  1  0
 13  9  1  0
 14 10  1  0
 14 29  1  1
 15 18  1  0
 16 11  1  0
 17 13  2  0
 18 14  1  0
 20  2  1  0
 22  4  1  0
 24  6  1  0
 25  7  1  0
 27  9  1  0
 30 16  1  0
M  END
>  <HBA>  (485) 
3

>  <HBD>  (485) 
1

>  <TPSA>  (485) 
46.53

>  <cid>  (485) 
1890

>  <dipole>  (485) 
1.83

>  <excitation_energy_1>  (485) 
3.793

>  <excitation_energy_2>  (485) 
4.26

>  <excitation_energy_3>  (485) 
4.746

>  <excitation_energy_4>  (485) 
4.9

>  <homo_energy>  (485) 
-6.248

>  <homo_lumo_gap>  (485) 
4.947

>  <logP>  (485) 
3.099

>  <lumo_energy>  (485) 
-1.301

>  <melting_point>  (485) 
138.27

>  <molecular_refractivity>  (485) 
67.52

>  <oscillator_strength_1>  (485) 
0.001

>  <oscillator_strength_2>  (485) 
0.053

>  <oscillator_strength_3>  (485) 
0.2162

>  <oscillator_strength_4>  (485) 
0.0058

>  <open_babel_can_smiles>  (485) 
Oc1ccc2c(c1)O[C@@H](CC2=O)c1ccccc1

>  <mulliken_charges>  (485) 
30
1   -0.125177
2   -0.132618
3   -0.131001
4   -0.166203
5   -0.178291
6   -0.199554
7   -0.178745
8   -0.237737
9   -0.367656
10   0.136238
11   0.367776
12   0.046686
13   0.398546
14   0.046988
15   0.343789
16   -0.632977
17   -0.480946
18   -0.547145
19   0.13271
20   0.134061
21   0.133678
22   0.14458
23   0.129325
24   0.126206
25   0.167157
26   0.155356
27   0.178658
28   0.175762
29   0.147069
30   0.413466

>  <lowdin_charges>  (485) 
30
1   -0.152416
2   -0.153012
3   -0.153672
4   -0.156707
5   -0.164984
6   -0.226133
7   -0.106053
8   -0.218055
9   -0.314143
10   -0.01296
11   0.125085
12   -0.114507
13   0.148415
14   0.014067
15   0.122952
16   -0.359529
17   -0.256836
18   -0.194509
19   0.157412
20   0.160876
21   0.160443
22   0.165902
23   0.158112
24   0.155769
25   0.179154
26   0.180329
27   0.173087
28   0.176103
29   0.145813
30   0.36

$$$$
PCCDB-ID:  1893
     RDKit          3D

 17 18  0  0  0  0  0  0  0  0999 V2000
    2.1020    0.6846   -0.2775 C   0  0  0  0  0  0  0  0  0  0  0  0
    0.9499    1.4308   -0.1618 C   0  0  0  0  0  0  0  0  0  0  0  0
    2.0622   -0.7319   -0.2276 C   0  0  0  0  0  0  0  0  0  0  0  0
   -1.6057    1.1619    0.1573 C   0  0  0  0  0  0  0  0  0  0  0  0
   -0.2776    0.7511    0.0094 C   0  0  0  0  0  0  0  0  0  0  0  0
    0.8785   -1.4172   -0.0618 C   0  0  0  0  0  0  0  0  0  0  0  0
   -0.3446   -0.6917    0.0634 C   0  0  0  0  0  0  0  0  0  0  0  0
   -2.3176    0.0244    0.2796 N   0  0  0  0  0  0  0  0  0  0  0  0
   -1.6092   -1.1209    0.2301 N   0  0  0  0  0  0  0  0  0  0  0  0
    0.9231   -2.8801   -0.0191 N   0  0  0  0  0  0  0  0  0  0  0  0
    2.0241   -3.4263   -0.1428 O   0  0  0  0  0  0  0  0  0  0  0  0
   -0.1383   -3.4784    0.1377 O   0  0  0  0  0  0  0  0  0  0  0  0
    3.0609    1.1755   -0.4101 H   0  0  0  0  0  0  0  0  0  0  0  0
    0.9813    2.5160   -0.2008 H   0  0  0  0  0  0  0  0  0  0  0  0
    2.9736   -1.3101   -0.3191 H   0  0  0  0  0  0  0  0  0  0  0  0
   -2.0657    2.1388    0.1798 H   0  0  0  0  0  0  0  0  0  0  0  0
   -3.3179   -0.0523    0.4051 H   0  0  0  0  0  0  0  0  0  0  0  0
  1  3  1  0
  1  2  2  0
  2  5  1  0
  3  6  2  0
  4 16  1  0
  4  8  1  0
  5  7  1  0
  5  4  2  0
  6 10  1  0
  6  7  1  0
  7  9  2  0
  8 17  1  0
  9  8  1  0
 10 12  1  0
 11 10  2  0
 13  1  1  0
 14  2  1  0
 15  3  1  0
M  CHG  2  10   1  12  -1
M  END
>  <HBA>  (486) 
1

>  <HBD>  (486) 
1

>  <TPSA>  (486) 
74.5

>  <cid>  (486) 
1893

>  <dipole>  (486) 
7.23

>  <excitation_energy_1>  (486) 
3.472

>  <excitation_energy_2>  (486) 
3.519

>  <excitation_energy_3>  (486) 
4.05

>  <excitation_energy_4>  (486) 
4.286

>  <homo_energy>  (486) 
-6.376

>  <homo_lumo_gap>  (486) 
4.0

>  <logP>  (486) 
1.994

>  <lumo_energy>  (486) 
-2.376

>  <melting_point>  (486) 
150.23

>  <molecular_refractivity>  (486) 
44.92

>  <oscillator_strength_1>  (486) 
0.1542

>  <oscillator_strength_2>  (486) 
0.0

>  <oscillator_strength_3>  (486) 
0.0003

>  <oscillator_strength_4>  (486) 
0.0451

>  <open_babel_can_smiles>  (486) 
O=N(=O)c1cccc2c1n[nH]c2

>  <mulliken_charges>  (486) 
17
1   -0.146046
2   -0.168744
3   -0.182647
4   0.034058
5   0.032634
6   0.297044
7   0.288289
8   -0.371762
9   -0.368957
10   0.363324
11   -0.412034
12   -0.383336
13   0.146317
14   0.147026
15   0.185989
16   0.178477
17   0.360369

>  <lowdin_charges>  (486) 
17
1   -0.166319
2   -0.123808
3   -0.129781
4   -0.144129
5   -0.048032
6   -0.003597
7   0.008379
8   -0.067629
9   -0.146765
10   0.307478
11   -0.265783
12   -0.227146
13   0.167444
14   0.165407
15   0.190625
16   0.181333
17   0.302322

$$$$
PCCDB-ID:  1923
     RDKit          3D

 18 19  0  0  0  0  0  0  0  0999 V2000
    2.4108    0.7180    0.0126 C   0  0  0  0  0  0  0  0  0  0  0  0
   -2.4199    0.6409   -0.0424 C   0  0  0  0  0  0  0  0  0  0  0  0
    1.2298    1.4229    0.0158 C   0  0  0  0  0  0  0  0  0  0  0  0
   -1.2632    1.3826   -0.0134 C   0  0  0  0  0  0  0  0  0  0  0  0
    2.4121   -0.6953   -0.0194 C   0  0  0  0  0  0  0  0  0  0  0  0
   -2.3186   -0.7720   -0.0722 C   0  0  0  0  0  0  0  0  0  0  0  0
   -0.0061    0.7247   -0.0135 C   0  0  0  0  0  0  0  0  0  0  0  0
    1.2259   -1.4049   -0.0477 C   0  0  0  0  0  0  0  0  0  0  0  0
   -0.0263   -0.7066   -0.0460 C   0  0  0  0  0  0  0  0  0  0  0  0
   -1.1776   -1.4312   -0.0745 N   0  0  0  0  0  0  0  0  0  0  0  0
    1.1735   -2.7624   -0.0781 O   0  0  0  0  0  0  0  0  0  0  0  0
    3.3617    1.2432    0.0347 H   0  0  0  0  0  0  0  0  0  0  0  0
   -3.3967    1.1156   -0.0429 H   0  0  0  0  0  0  0  0  0  0  0  0
    1.2264    2.5093    0.0410 H   0  0  0  0  0  0  0  0  0  0  0  0
   -1.2927    2.4696    0.0114 H   0  0  0  0  0  0  0  0  0  0  0  0
    3.3590   -1.2324   -0.0216 H   0  0  0  0  0  0  0  0  0  0  0  0
   -3.2247   -1.3771   -0.0941 H   0  0  0  0  0  0  0  0  0  0  0  0
    2.0818   -3.1039   -0.0745 H   0  0  0  0  0  0  0  0  0  0  0  0
  1  3  2  0
  1 12  1  0
  2  4  1  0
  3 14  1  0
  4 15  1  0
  5  1  1  0
  6  2  2  0
  7  4  2  0
  7  3  1  0
  8  9  1  0
  8  5  2  0
  9  7  1  0
 10  6  1  0
 10  9  2  0
 11 18  1  0
 11  8  1  0
 13  2  1  0
 16  5  1  0
 17  6  1  0
M  END
>  <HBA>  (487) 
2

>  <HBD>  (487) 
1

>  <TPSA>  (487) 
33.12

>  <cid>  (487) 
1923

>  <dipole>  (487) 
2.21

>  <excitation_energy_1>  (487) 
3.939

>  <excitation_energy_2>  (487) 
4.281

>  <excitation_energy_3>  (487) 
4.383

>  <excitation_energy_4>  (487) 
5.034

>  <homo_energy>  (487) 
-5.725

>  <homo_lumo_gap>  (487) 
4.52

>  <logP>  (487) 
1.94

>  <lumo_energy>  (487) 
-1.205

>  <melting_point>  (487) 
104.13

>  <molecular_refractivity>  (487) 
43.77

>  <oscillator_strength_1>  (487) 
0.0487

>  <oscillator_strength_2>  (487) 
0.002

>  <oscillator_strength_3>  (487) 
0.0041

>  <oscillator_strength_4>  (487) 
0.0

>  <open_babel_can_smiles>  (487) 
Oc1cccc2c1nccc2

>  <mulliken_charges>  (487) 
18
1   -0.133048
2   -0.149677
3   -0.202124
4   -0.155015
5   -0.210381
6   0.042255
7   0.16327
8   0.340041
9   0.194328
10   -0.478822
11   -0.615
12   0.133344
13   0.136893
14   0.127509
15   0.140477
16   0.119176
17   0.139751
18   0.407023

>  <lowdin_charges>  (487) 
18
1   -0.144286
2   -0.178686
3   -0.180735
4   -0.126556
5   -0.222597
6   -0.087753
7   -0.008272
8   0.105874
9   0.017733
10   -0.133817
11   -0.349374
12   0.160805
13   0.163872
14   0.155817
15   0.16007
16   0.154805
17   0.156259
18   0.35684

$$$$
PCCDB-ID:  1935
     RDKit          3D

 29 31  0  0  0  0  0  0  0  0999 V2000
    3.7374   -0.5895   -0.0096 C   0  0  0  0  0  0  0  0  0  0  0  0
   -3.7217   -0.6502    0.3576 C   0  0  0  0  0  0  0  0  0  0  0  0
    3.6602    0.8108   -0.0036 C   0  0  0  0  0  0  0  0  0  0  0  0
   -3.6784    0.6867   -0.3900 C   0  0  0  0  0  0  0  0  0  0  0  0
    2.5707   -1.3405   -0.0261 C   0  0  0  0  0  0  0  0  0  0  0  0
   -2.5098   -1.5211    0.0019 C   0  0  0  0  0  0  0  0  0  0  0  0
    2.4250    1.4380   -0.0087 C   0  0  0  0  0  0  0  0  0  0  0  0
   -2.4207    1.4709    0.0031 C   0  0  0  0  0  0  0  0  0  0  0  0
    1.2991   -0.7412   -0.0375 C   0  0  0  0  0  0  0  0  0  0  0  0
   -1.2068   -0.7554   -0.0173 C   0  0  0  0  0  0  0  0  0  0  0  0
    1.2447    0.6718   -0.0233 C   0  0  0  0  0  0  0  0  0  0  0  0
   -1.1827    0.6051   -0.0172 C   0  0  0  0  0  0  0  0  0  0  0  0
    0.0382   -1.5322   -0.0656 C   0  0  0  0  0  0  0  0  0  0  0  0
   -0.0581   -2.8226   -0.1260 N   0  0  0  0  0  0  0  0  0  0  0  0
    0.0141    1.2969   -0.0254 N   0  0  0  0  0  0  0  0  0  0  0  0
    4.7040   -1.0844    0.0002 H   0  0  0  0  0  0  0  0  0  0  0  0
   -4.6489   -1.1887    0.1281 H   0  0  0  0  0  0  0  0  0  0  0  0
   -3.7323   -0.4539    1.4395 H   0  0  0  0  0  0  0  0  0  0  0  0
    4.5670    1.4091    0.0074 H   0  0  0  0  0  0  0  0  0  0  0  0
   -4.5699    1.2890   -0.1786 H   0  0  0  0  0  0  0  0  0  0  0  0
   -3.6670    0.5001   -1.4724 H   0  0  0  0  0  0  0  0  0  0  0  0
    2.6435   -2.4246   -0.0272 H   0  0  0  0  0  0  0  0  0  0  0  0
   -2.6567   -1.9970   -0.9790 H   0  0  0  0  0  0  0  0  0  0  0  0
   -2.4106   -2.3581    0.7018 H   0  0  0  0  0  0  0  0  0  0  0  0
    2.3564    2.5239    0.0004 H   0  0  0  0  0  0  0  0  0  0  0  0
   -2.5459    1.8954    1.0114 H   0  0  0  0  0  0  0  0  0  0  0  0
   -2.2769    2.3269   -0.6724 H   0  0  0  0  0  0  0  0  0  0  0  0
    0.8649   -3.2631   -0.1638 H   0  0  0  0  0  0  0  0  0  0  0  0
   -0.0110    2.3065   -0.0387 H   0  0  0  0  0  0  0  0  0  0  0  0
  1  3  2  0
  1 16  1  0
  2 18  1  0
  3 19  1  0
  4 20  1  0
  4  8  1  0
  4  2  1  0
  5  1  1  0
  6  2  1  0
  6 24  1  0
  7  3  1  0
  7 25  1  0
  8 26  1  0
  9  5  2  0
  9 11  1  0
 10 12  2  0
 10  6  1  0
 11  7  2  0
 12  8  1  0
 13  9  1  0
 13 10  1  0
 14 13  2  0
 15 11  1  0
 15 12  1  0
 17  2  1  0
 21  4  1  0
 22  5  1  0
 23  6  1  0
 27  8  1  0
 28 14  1  0
 29 15  1  0
M  END
>  <HBA>  (488) 
2

>  <HBD>  (488) 
1

>  <TPSA>  (488) 
38.91

>  <cid>  (488) 
1935

>  <dipole>  (488) 
4.35

>  <excitation_energy_1>  (488) 
3.709

>  <excitation_energy_2>  (488) 
4.219

>  <excitation_energy_3>  (488) 
4.319

>  <excitation_energy_4>  (488) 
4.516

>  <homo_energy>  (488) 
-5.056

>  <homo_lumo_gap>  (488) 
4.264

>  <logP>  (488) 
3.277

>  <lumo_energy>  (488) 
-0.792

>  <melting_point>  (488) 
144.24

>  <molecular_refractivity>  (488) 
63.58

>  <oscillator_strength_1>  (488) 
0.0908

>  <oscillator_strength_2>  (488) 
0.0657

>  <oscillator_strength_3>  (488) 
0.0044

>  <oscillator_strength_4>  (488) 
0.0013

>  <open_babel_can_smiles>  (488) 
N=c1c2CCCCc2[nH]c2c1cccc2

>  <mulliken_charges>  (488) 
29
1   -0.133878
2   -0.272816
3   -0.135144
4   -0.260825
5   -0.217
6   -0.318426
7   -0.179048
8   -0.351754
9   0.117071
10   0.066267
11   0.339899
12   0.316546
13   0.217895
14   -0.671579
15   -0.795434
16   0.130254
17   0.134874
18   0.133482
19   0.133084
20   0.133938
21   0.143982
22   0.133708
23   0.151828
24   0.168102
25   0.123039
26   0.159226
27   0.141214
28   0.270946
29   0.320549

>  <lowdin_charges>  (488) 
29
1   -0.173492
2   -0.275289
3   -0.143494
4   -0.271288
5   -0.139481
6   -0.266808
7   -0.188666
8   -0.279798
9   -0.051765
10   -0.067648
11   0.059231
12   0.036649
13   0.045834
14   -0.426171
15   -0.208072
16   0.159362
17   0.146929
18   0.137872
19   0.160967
20   0.146338
21   0.143615
22   0.155849
23   0.153734
24   0.167212
25   0.152446
26   0.154135
27   0.149022
28   0.23846
29   0.284316

$$$$
PCCDB-ID:  1962
     RDKit          3D

 24 25  0  0  1  0  0  0  0  0999 V2000
    0.6966   -0.9071   -0.9251 C   0  0  0  0  0  0  0  0  0  0  0  0
    0.0392   -2.0355   -0.4540 C   0  0  0  0  0  0  0  0  0  0  0  0
   -5.2773   -4.8502    0.5814 C   0  0  0  0  0  0  0  0  0  0  0  0
   -0.0476    0.0904   -1.5638 C   0  0  0  0  0  0  0  0  0  0  0  0
   -4.9572   -4.5018    2.0576 C   0  0  0  0  0  0  0  0  0  0  0  0
   -2.0033   -1.0793   -1.2911 C   0  0  0  0  0  0  0  0  0  0  0  0
   -3.3627   -3.3993   -0.3095 C   0  0  0  0  0  0  0  0  0  0  0  0
   -3.7506   -4.7254    0.3297 C   0  0  1  0  0  0  0  0  0  0  0  0
   -1.3460   -2.1314   -0.6377 C   0  0  0  0  0  0  0  0  0  0  0  0
   -1.3676    0.0095   -1.7444 N   0  0  0  0  0  0  0  0  0  0  0  0
   -3.5314   -4.8125    1.7923 N   0  0  0  0  0  0  0  0  0  0  0  0
   -1.9484   -3.2566   -0.1595 O   0  0  0  0  0  0  0  0  0  0  0  0
    1.7702   -0.7985   -0.8006 H   0  0  0  0  0  0  0  0  0  0  0  0
    0.5628   -2.8424    0.0500 H   0  0  0  0  0  0  0  0  0  0  0  0
   -5.9276   -4.1608    0.0347 H   0  0  0  0  0  0  0  0  0  0  0  0
   -5.6433   -5.8707    0.4493 H   0  0  0  0  0  0  0  0  0  0  0  0
    0.4376    0.9871   -1.9443 H   0  0  0  0  0  0  0  0  0  0  0  0
   -5.4153   -5.1294    2.8309 H   0  0  0  0  0  0  0  0  0  0  0  0
   -5.1683   -3.4489    2.2974 H   0  0  0  0  0  0  0  0  0  0  0  0
   -3.0764   -1.1065   -1.4593 H   0  0  0  0  0  0  0  0  0  0  0  0
   -3.8759   -2.5606    0.1843 H   0  0  0  0  0  0  0  0  0  0  0  0
   -3.6363   -3.3907   -1.3749 H   0  0  0  0  0  0  0  0  0  0  0  0
   -3.2698   -5.5403   -0.2265 H   0  0  0  0  0  0  0  0  0  0  0  0
   -2.8451   -4.1554    2.1597 H   0  0  0  0  0  0  0  0  0  0  0  0
  1 13  1  0
  1  2  2  0
  2 14  1  0
  3  5  1  0
  4  1  1  0
  5 19  1  0
  5 18  1  0
  6  9  2  0
  7 12  1  0
  7 21  1  0
  7  8  1  0
  8 23  1  6
  8  3  1  0
  8 11  1  0
  9  2  1  0
  9 12  1  0
 10  4  2  0
 10  6  1  0
 11  5  1  0
 11 24  1  0
 15  3  1  0
 16  3  1  0
 17  4  1  0
 20  6  1  0
 22  7  1  0
M  END
>  <HBA>  (489) 
3

>  <HBD>  (489) 
1

>  <TPSA>  (489) 
34.15

>  <cid>  (489) 
1962

>  <dipole>  (489) 
0.95

>  <excitation_energy_1>  (489) 
4.813

>  <excitation_energy_2>  (489) 
4.91

>  <excitation_energy_3>  (489) 
4.989

>  <excitation_energy_4>  (489) 
5.465

>  <homo_energy>  (489) 
-6.144

>  <homo_lumo_gap>  (489) 
5.551

>  <logP>  (489) 
1.151

>  <lumo_energy>  (489) 
-0.593

>  <melting_point>  (489) 
71.69

>  <molecular_refractivity>  (489) 
49.75

>  <oscillator_strength_1>  (489) 
0.0027

>  <oscillator_strength_2>  (489) 
0.0101

>  <oscillator_strength_3>  (489) 
0.0658

>  <oscillator_strength_4>  (489) 
0.0002

>  <open_babel_can_smiles>  (489) 
C1C[C@H](N1)COc1cccnc1

>  <mulliken_charges>  (489) 
24
1   -0.139859
2   -0.148017
3   -0.32058
4   0.028497
5   -0.124692
6   -0.022821
7   -0.052994
8   0.029426
9   0.369239
10   -0.413335
11   -0.554654
12   -0.52773
13   0.138648
14   0.151438
15   0.143133
16   0.159915
17   0.139209
18   0.145192
19   0.127658
20   0.143196
21   0.139745
22   0.146058
23   0.142641
24   0.300689

>  <lowdin_charges>  (489) 
24
1   -0.163167
2   -0.157083
3   -0.292267
4   -0.110879
5   -0.198319
6   -0.145836
7   -0.141554
8   -0.06608
9   0.082512
10   -0.139442
11   -0.375374
12   -0.202476
13   0.163309
14   0.172504
15   0.148854
16   0.158696
17   0.156688
18   0.144299
19   0.127411
20   0.15715
21   0.140205
22   0.143189
23   0.144359
24   0.253301

$$$$
PCCDB-ID:  1969
     RDKit          3D

 32 31  0  0  0  0  0  0  0  0999 V2000
    5.9645    1.0393    1.3224 C   0  0  0  0  0  0  0  0  0  0  0  0
    5.3814    1.0350   -1.1561 C   0  0  0  0  0  0  0  0  0  0  0  0
    0.9648    1.2256    0.0088 C   0  0  0  0  0  0  0  0  0  0  0  0
    1.6903    1.5756    2.4246 C   0  0  0  0  0  0  0  0  0  0  0  0
    5.2985   -1.1280    0.1992 C   0  0  0  0  0  0  0  0  0  0  0  0
    1.6317    3.5455    0.8370 C   0  0  0  0  0  0  0  0  0  0  0  0
    5.0927    0.4038    0.2207 C   0  0  0  0  0  0  0  0  0  0  0  0
    1.8765    2.0244    0.9617 C   0  0  0  0  0  0  0  0  0  0  0  0
    4.4381   -2.0119    0.5317 N   0  0  0  0  0  0  0  0  0  0  0  0
    6.5871   -1.5256   -0.1398 N   0  0  0  0  0  0  0  0  0  0  0  0
    2.5078    4.4337    0.5621 N   0  0  0  0  0  0  0  0  0  0  0  0
    0.3348    3.9415    1.1456 N   0  0  0  0  0  0  0  0  0  0  0  0
    3.6501    0.6191    0.5733 N   0  0  0  0  0  2  0  0  0  0  0  0
    3.3100    1.8062    0.5747 N   0  0  0  0  0  2  0  0  0  0  0  0
    7.0210    0.8242    1.1446 H   0  0  0  0  0  0  0  0  0  0  0  0
    5.6977    0.6320    2.3031 H   0  0  0  0  0  0  0  0  0  0  0  0
    5.8107    2.1224    1.3384 H   0  0  0  0  0  0  0  0  0  0  0  0
    6.4453    0.9766   -1.4076 H   0  0  0  0  0  0  0  0  0  0  0  0
    5.1013    2.0914   -1.1374 H   0  0  0  0  0  0  0  0  0  0  0  0
    4.8091    0.5364   -1.9459 H   0  0  0  0  0  0  0  0  0  0  0  0
   -0.0857    1.2924    0.3107 H   0  0  0  0  0  0  0  0  0  0  0  0
    1.2513    0.1710    0.0296 H   0  0  0  0  0  0  0  0  0  0  0  0
    1.0545    1.5912   -1.0199 H   0  0  0  0  0  0  0  0  0  0  0  0
    0.6779    1.8026    2.7673 H   0  0  0  0  0  0  0  0  0  0  0  0
    2.3933    2.1023    3.0783 H   0  0  0  0  0  0  0  0  0  0  0  0
    1.8712    0.4998    2.5085 H   0  0  0  0  0  0  0  0  0  0  0  0
    3.5799   -1.5468    0.8313 H   0  0  0  0  0  0  0  0  0  0  0  0
    7.0633   -0.9915   -0.8543 H   0  0  0  0  0  0  0  0  0  0  0  0
    6.6526   -2.5278   -0.2795 H   0  0  0  0  0  0  0  0  0  0  0  0
    3.4168    3.9828    0.4486 H   0  0  0  0  0  0  0  0  0  0  0  0
   -0.4174    3.3328    0.8519 H   0  0  0  0  0  0  0  0  0  0  0  0
    0.1706    4.9164    0.9201 H   0  0  0  0  0  0  0  0  0  0  0  0
  1 17  1  0
  1 16  1  0
  2 19  1  0
  2  7  1  0
  3 22  1  0
  3 21  1  0
  3  8  1  0
  4 26  1  0
  4 24  1  0
  4 25  1  0
  5  7  1  0
  5  9  2  0
  6  8  1  0
  6 12  1  0
  7 13  1  0
  7  1  1  0
  8  4  1  0
  9 27  1  0
 10  5  1  0
 11  6  2  0
 13 14  1  0
 14  8  1  0
 15  1  1  0
 18  2  1  0
 20  2  1  0
 23  3  1  0
 28 10  1  0
 29 10  1  0
 30 11  1  0
 31 12  1  0
 32 12  1  0
M  RAD  2  13   2  14   2
M  END
>  <HBA>  (490) 
6

>  <HBD>  (490) 
4

>  <TPSA>  (490) 
124.46

>  <cid>  (490) 
1969

>  <dipole>  (490) 
1.76

>  <excitation_energy_1>  (490) 
3.035

>  <excitation_energy_2>  (490) 
4.051

>  <excitation_energy_3>  (490) 
4.061

>  <excitation_energy_4>  (490) 
4.344

>  <homo_energy>  (490) 
-6.256

>  <homo_lumo_gap>  (490) 
4.629

>  <logP>  (490) 
2.468

>  <lumo_energy>  (490) 
-1.627

>  <melting_point>  (490) 
180.77

>  <molecular_refractivity>  (490) 
58.1

>  <oscillator_strength_1>  (490) 
0.0001

>  <oscillator_strength_2>  (490) 
0.0223

>  <oscillator_strength_3>  (490) 
0.0002

>  <oscillator_strength_4>  (490) 
0.0006

>  <open_babel_can_smiles>  (490) 
NC(=N)C([N][N]C(C(=N)N)(C)C)(C)C

>  <mulliken_charges>  (490) 
32
1   -0.442563
2   -0.471608
3   -0.470895
4   -0.44252
5   0.448605
6   0.448471
7   0.128418
8   0.128461
9   -0.644742
10   -0.749971
11   -0.644705
12   -0.749751
13   -0.201289
14   -0.201929
15   0.162905
16   0.163467
17   0.165099
18   0.144261
19   0.181151
20   0.16268
21   0.144016
22   0.180964
23   0.1629
24   0.162526
25   0.163449
26   0.165081
27   0.300529
28   0.320362
29   0.33295
30   0.30062
31   0.320144
32   0.332916

>  <lowdin_charges>  (490) 
32
1   -0.437802
2   -0.448169
3   -0.445863
4   -0.440131
5   0.080879
6   0.081438
7   0.027906
8   0.027417
9   -0.435383
10   -0.485395
11   -0.434731
12   -0.486496
13   -0.07155
14   -0.071515
15   0.161507
16   0.16144
17   0.157857
18   0.150293
19   0.166792
20   0.160632
21   0.150345
22   0.166724
23   0.158686
24   0.162008
25   0.163077
26   0.157984
27   0.253851
28   0.274448
29   0.282779
30   0.253262
31   0.274317
32   0.283391

$$$$
PCCDB-ID:  1979
     RDKit          3D

 27 28  0  0  1  0  0  0  0  0999 V2000
    1.1193    0.6300    0.8444 C   0  0  0  0  0  0  0  0  0  0  0  0
    6.7980   -0.7716   -0.8566 C   0  0  0  0  0  0  0  0  0  0  0  0
    5.7183   -1.4242    1.3164 C   0  0  0  0  0  0  0  0  0  0  0  0
    7.5563    0.3586   -0.0879 C   0  0  0  0  0  0  0  0  0  0  0  0
    6.5442   -0.2851    1.9931 C   0  0  0  0  0  0  0  0  0  0  0  0
    5.5000    1.3755    0.6065 C   0  0  0  0  0  0  0  0  0  0  0  0
    2.4274    1.0097    0.1888 C   0  0  0  0  0  0  0  0  0  0  0  0
    5.4495   -1.0144   -0.1460 C   0  0  0  0  0  0  0  0  0  0  0  0
    4.6754    0.3092   -0.1764 C   0  0  1  0  0  0  0  0  0  0  0  0
    6.7855    0.8384    1.0709 N   0  0  0  0  0  0  0  0  0  0  0  0
    2.6178    2.0095   -0.4699 O   0  0  0  0  0  0  0  0  0  0  0  0
    3.3763    0.0756    0.4307 O   0  0  0  0  0  0  0  0  0  0  0  0
    1.2561    0.5257    1.9259 H   0  0  0  0  0  0  0  0  0  0  0  0
    0.7735   -0.3373    0.4653 H   0  0  0  0  0  0  0  0  0  0  0  0
    0.3732    1.3979    0.6378 H   0  0  0  0  0  0  0  0  0  0  0  0
    7.3764   -1.7032   -0.8639 H   0  0  0  0  0  0  0  0  0  0  0  0
    6.6316   -0.4932   -1.9049 H   0  0  0  0  0  0  0  0  0  0  0  0
    4.7687   -1.5865    1.8358 H   0  0  0  0  0  0  0  0  0  0  0  0
    6.2640   -2.3753    1.3360 H   0  0  0  0  0  0  0  0  0  0  0  0
    7.7491    1.2172   -0.7411 H   0  0  0  0  0  0  0  0  0  0  0  0
    8.5278    0.0057    0.2758 H   0  0  0  0  0  0  0  0  0  0  0  0
    7.5195   -0.6509    2.3336 H   0  0  0  0  0  0  0  0  0  0  0  0
    6.0231    0.1094    2.8728 H   0  0  0  0  0  0  0  0  0  0  0  0
    4.9282    1.7131    1.4778 H   0  0  0  0  0  0  0  0  0  0  0  0
    5.6888    2.2513   -0.0224 H   0  0  0  0  0  0  0  0  0  0  0  0
    4.8732   -1.7883   -0.6646 H   0  0  0  0  0  0  0  0  0  0  0  0
    4.4985    0.6333   -1.2059 H   0  0  0  0  0  0  0  0  0  0  0  0
  1 13  1  0
  2  8  1  0
  2  4  1  0
  3 19  1  0
  3 18  1  0
  3  5  1  0
  4 21  1  0
  5 22  1  0
  5 23  1  0
  6 10  1  0
  6 24  1  0
  7 12  1  0
  7  1  1  0
  8 26  1  0
  8  3  1  0
  9 27  1  6
  9  8  1  0
  9 12  1  0
  9  6  1  0
 10  4  1  0
 10  5  1  0
 11  7  2  0
 14  1  1  0
 15  1  1  0
 16  2  1  0
 17  2  1  0
 20  4  1  0
 25  6  1  0
M  END
>  <HBA>  (491) 
3

>  <HBD>  (491) 
0

>  <TPSA>  (491) 
29.54

>  <cid>  (491) 
1979

>  <dipole>  (491) 
2.41

>  <excitation_energy_1>  (491) 
5.048

>  <excitation_energy_2>  (491) 
5.225

>  <excitation_energy_3>  (491) 
5.545

>  <excitation_energy_4>  (491) 
5.645

>  <homo_energy>  (491) 
-5.657

>  <homo_lumo_gap>  (491) 
6.041

>  <logP>  (491) 
0.582

>  <lumo_energy>  (491) 
0.384

>  <melting_point>  (491) 
31.68

>  <molecular_refractivity>  (491) 
49.24

>  <oscillator_strength_1>  (491) 
0.0096

>  <oscillator_strength_2>  (491) 
0.0119

>  <oscillator_strength_3>  (491) 
0.0138

>  <oscillator_strength_4>  (491) 
0.0276

>  <open_babel_can_smiles>  (491) 
CC(=O)O[C@H]1CN2CC[C@H]1CC2

>  <mulliken_charges>  (491) 
27
1   -0.524909
2   -0.291124
3   -0.288054
4   -0.148567
5   -0.147437
6   -0.167029
7   0.602318
8   -0.12353
9   0.134902
10   -0.372775
11   -0.471239
12   -0.478389
13   0.179623
14   0.180649
15   0.182523
16   0.139194
17   0.138104
18   0.152016
19   0.133926
20   0.144625
21   0.143088
22   0.140803
23   0.143479
24   0.151627
25   0.159635
26   0.133632
27   0.152909

>  <lowdin_charges>  (491) 
27
1   -0.463958
2   -0.299957
3   -0.303768
4   -0.213338
5   -0.211898
6   -0.221411
7   0.197133
8   -0.137008
9   -0.014991
10   -0.181268
11   -0.266662
12   -0.198705
13   0.174938
14   0.176891
15   0.176313
16   0.147603
17   0.144149
18   0.15199
19   0.144506
20   0.147716
21   0.146041
22   0.145
23   0.14684
24   0.15527
25   0.157312
26   0.150379
27   0.150883

$$$$
PCCDB-ID:  1983
     RDKit          3D

 20 20  0  0  0  0  0  0  0  0999 V2000
    1.1923    0.1582   -1.6597 C   0  0  0  0  0  0  0  0  0  0  0  0
    2.8122    3.4331    0.1318 C   0  0  0  0  0  0  0  0  0  0  0  0
    0.5534    2.6263    0.3584 C   0  0  0  0  0  0  0  0  0  0  0  0
    2.3408    4.7431    0.0993 C   0  0  0  0  0  0  0  0  0  0  0  0
    0.0775    3.9352    0.3425 C   0  0  0  0  0  0  0  0  0  0  0  0
    2.1072    0.1112   -0.4545 C   0  0  0  0  0  0  0  0  0  0  0  0
    1.9272    2.3491    0.2381 C   0  0  0  0  0  0  0  0  0  0  0  0
    0.9699    5.0014    0.2054 C   0  0  0  0  0  0  0  0  0  0  0  0
    2.4559    1.0499    0.3242 N   0  0  0  0  0  0  0  0  0  0  0  0
    2.6503   -1.1158   -0.1970 O   0  0  0  0  0  0  0  0  0  0  0  0
    0.4483    6.2699    0.1896 O   0  0  0  0  0  0  0  0  0  0  0  0
    0.2909   -0.4443   -1.4907 H   0  0  0  0  0  0  0  0  0  0  0  0
    1.7084   -0.2546   -2.5362 H   0  0  0  0  0  0  0  0  0  0  0  0
    0.8865    1.1807   -1.8835 H   0  0  0  0  0  0  0  0  0  0  0  0
    3.8774    3.2326    0.0692 H   0  0  0  0  0  0  0  0  0  0  0  0
   -0.1440    1.8045    0.4960 H   0  0  0  0  0  0  0  0  0  0  0  0
    3.0442    5.5691    0.0043 H   0  0  0  0  0  0  0  0  0  0  0  0
   -0.9826    4.1462    0.4441 H   0  0  0  0  0  0  0  0  0  0  0  0
    2.3527   -1.7438   -0.8730 H   0  0  0  0  0  0  0  0  0  0  0  0
    1.1766    6.9048    0.1086 H   0  0  0  0  0  0  0  0  0  0  0  0
  1 12  1  0
  1  6  1  0
  2  7  2  0
  3 16  1  0
  4  2  1  0
  4  8  2  0
  5  3  2  0
  5 18  1  0
  6 10  1  0
  6  9  2  0
  7  9  1  0
  7  3  1  0
  8  5  1  0
 11  8  1  0
 13  1  1  0
 14  1  1  0
 15  2  1  0
 17  4  1  0
 19 10  1  0
 20 11  1  0
M  END
>  <HBA>  (492) 
3

>  <HBD>  (492) 
2

>  <TPSA>  (492) 
49.33

>  <cid>  (492) 
1983

>  <dipole>  (492) 
3.21

>  <excitation_energy_1>  (492) 
4.485

>  <excitation_energy_2>  (492) 
4.632

>  <excitation_energy_3>  (492) 
4.653

>  <excitation_energy_4>  (492) 
4.782

>  <homo_energy>  (492) 
-5.295

>  <homo_lumo_gap>  (492) 
5.279

>  <logP>  (492) 
1.424

>  <lumo_energy>  (492) 
-0.016

>  <melting_point>  (492) 
99.57

>  <molecular_refractivity>  (492) 
42.78

>  <oscillator_strength_1>  (492) 
0.0953

>  <oscillator_strength_2>  (492) 
0.0498

>  <oscillator_strength_3>  (492) 
0.0597

>  <oscillator_strength_4>  (492) 
0.0024

>  <open_babel_can_smiles>  (492) 
Oc1ccc(cc1)/N=C(/O)\C

>  <mulliken_charges>  (492) 
20
1   -0.556322
2   -0.156368
3   -0.164707
4   -0.20175
5   -0.169237
6   0.480549
7   0.238886
8   0.349015
9   -0.471582
10   -0.571094
11   -0.648323
12   0.176477
13   0.16713
14   0.19838
15   0.135999
16   0.126127
17   0.117581
18   0.137641
19   0.406324
20   0.405272

>  <lowdin_charges>  (492) 
20
1   -0.48511
2   -0.158093
3   -0.177724
4   -0.2104
5   -0.182653
6   0.145257
7   0.028909
8   0.092666
9   -0.174674
10   -0.364813
11   -0.38683
12   0.170433
13   0.166423
14   0.183322
15   0.163157
16   0.158528
17   0.153569
18   0.164811
19   0.3563
20   0.35692

$$$$
PCCDB-ID:  1990
     RDKit          3D

 10  9  0  0  0  0  0  0  0  0999 V2000
    1.0810   -0.0114   -0.0419 C   0  0  0  0  0  0  0  0  0  0  0  0
    2.5800    0.0769   -0.0257 C   0  0  0  0  0  0  0  0  0  0  0  0
    3.3016    1.1121    0.1781 N   0  0  0  0  0  0  0  0  0  0  0  0
    3.2805   -1.0749   -0.2536 O   0  0  0  0  0  0  0  0  0  0  0  0
    2.4975    2.2600    0.4029 O   0  0  0  0  0  0  0  0  0  0  0  0
    0.6388    0.9679    0.1381 H   0  0  0  0  0  0  0  0  0  0  0  0
    0.7308   -0.7052    0.7333 H   0  0  0  0  0  0  0  0  0  0  0  0
    0.7310   -0.3853   -1.0127 H   0  0  0  0  0  0  0  0  0  0  0  0
    2.6487   -1.7971   -0.3838 H   0  0  0  0  0  0  0  0  0  0  0  0
    3.1750    2.9393    0.5378 H   0  0  0  0  0  0  0  0  0  0  0  0
  1  2  1  0
  1  6  1  0
  1  7  1  0
  2  3  2  0
  3  5  1  0
  4  2  1  0
  5 10  1  0
  8  1  1  0
  9  4  1  0
M  END
>  <HBA>  (493) 
3

>  <HBD>  (493) 
2

>  <TPSA>  (493) 
49.33

>  <cid>  (493) 
1990

>  <dipole>  (493) 
2.44

>  <excitation_energy_1>  (493) 
5.393

>  <excitation_energy_2>  (493) 
5.798

>  <excitation_energy_3>  (493) 
6.511

>  <excitation_energy_4>  (493) 
6.6

>  <homo_energy>  (493) 
-6.057

>  <homo_lumo_gap>  (493) 
6.846

>  <logP>  (493) 
-0.097

>  <lumo_energy>  (493) 
0.789

>  <melting_point>  (493) 
78.57

>  <molecular_refractivity>  (493) 
15.46

>  <oscillator_strength_1>  (493) 
0.0018

>  <oscillator_strength_2>  (493) 
0.0014

>  <oscillator_strength_3>  (493) 
0.1608

>  <oscillator_strength_4>  (493) 
0.0023

>  <open_babel_can_smiles>  (493) 
O/N=C(/O)\C

>  <mulliken_charges>  (493) 
10
1   -0.554463
2   0.524622
3   -0.240778
4   -0.586573
5   -0.526428
6   0.214454
7   0.170186
8   0.169578
9   0.411218
10   0.418183

>  <lowdin_charges>  (493) 
10
1   -0.478522
2   0.103727
3   -0.101942
4   -0.369264
5   -0.397606
6   0.190261
7   0.168431
8   0.167095
9   0.360572
10   0.35725

$$$$
PCCDB-ID:  1995
     RDKit          3D

 27 26  0  0  1  0  0  0  0  0999 V2000
    1.4030   -0.6316   -0.7764 C   0  0  0  0  0  0  0  0  0  0  0  0
    1.4481    0.9143    1.2163 C   0  0  0  0  0  0  0  0  0  0  0  0
    3.2879    4.2211    0.0202 C   0  0  0  0  0  0  0  0  0  0  0  0
    3.6203    0.2311    0.0580 C   0  0  0  0  0  0  0  0  0  0  0  0
    2.1241    0.5537   -0.1156 C   0  0  0  0  0  0  0  0  0  0  0  0
    4.1682    3.4455   -0.9339 C   0  0  0  0  0  0  0  0  0  0  0  0
    4.5349    1.4441    0.3593 C   0  0  1  0  0  0  0  0  0  0  0  0
    5.9325    0.8980    0.7326 C   0  0  0  0  0  0  0  0  0  0  0  0
    4.6780    2.2903   -0.8104 N   0  0  0  0  0  0  0  0  0  0  0  0
    4.4489    4.0956   -2.0996 O   0  0  0  0  0  0  0  0  0  0  0  0
    6.1483    0.3398    1.7824 O   0  0  0  0  0  0  0  0  0  0  0  0
    6.8677    1.0582   -0.2169 O   0  0  0  0  0  0  0  0  0  0  0  0
    0.3351   -0.4215   -0.9089 H   0  0  0  0  0  0  0  0  0  0  0  0
    1.4898   -1.5357   -0.1602 H   0  0  0  0  0  0  0  0  0  0  0  0
    1.8277   -0.8569   -1.7614 H   0  0  0  0  0  0  0  0  0  0  0  0
    0.3982    1.1901    1.0617 H   0  0  0  0  0  0  0  0  0  0  0  0
    1.9373    1.7533    1.7248 H   0  0  0  0  0  0  0  0  0  0  0  0
    1.4696    0.0599    1.9045 H   0  0  0  0  0  0  0  0  0  0  0  0
    3.1493    3.7073    0.9709 H   0  0  0  0  0  0  0  0  0  0  0  0
    2.2993    4.3833   -0.4264 H   0  0  0  0  0  0  0  0  0  0  0  0
    3.7304    5.2042    0.2238 H   0  0  0  0  0  0  0  0  0  0  0  0
    4.0008   -0.2425   -0.8560 H   0  0  0  0  0  0  0  0  0  0  0  0
    3.7502   -0.4893    0.8749 H   0  0  0  0  0  0  0  0  0  0  0  0
    2.0371    1.4133   -0.7969 H   0  0  0  0  0  0  0  0  0  0  0  0
    4.1702    1.9660    1.2533 H   0  0  0  0  0  0  0  0  0  0  0  0
    4.0280    4.9691   -2.0940 H   0  0  0  0  0  0  0  0  0  0  0  0
    6.4259    1.5559   -0.9461 H   0  0  0  0  0  0  0  0  0  0  0  0
  1 14  1  0
  1  5  1  0
  2 17  1  0
  2 18  1  0
  3 21  1  0
  3 19  1  0
  4  7  1  0
  4 23  1  0
  5  4  1  0
  5  2  1  0
  6  9  2  0
  6  3  1  0
  7  8  1  0
  7 25  1  1
  8 11  2  0
  9  7  1  0
 10 26  1  0
 10  6  1  0
 12  8  1  0
 13  1  1  0
 15  1  1  0
 16  2  1  0
 20  3  1  0
 22  4  1  0
 24  5  1  0
 27 12  1  0
M  END
>  <HBA>  (494) 
4

>  <HBD>  (494) 
2

>  <TPSA>  (494) 
66.4

>  <cid>  (494) 
1995

>  <dipole>  (494) 
7.1

>  <excitation_energy_1>  (494) 
5.625

>  <excitation_energy_2>  (494) 
5.777

>  <excitation_energy_3>  (494) 
5.863

>  <excitation_energy_4>  (494) 
6.076

>  <homo_energy>  (494) 
-6.71

>  <homo_lumo_gap>  (494) 
6.577

>  <logP>  (494) 
1.013

>  <lumo_energy>  (494) 
-0.133

>  <melting_point>  (494) 
97.84

>  <molecular_refractivity>  (494) 
45.34

>  <oscillator_strength_1>  (494) 
0.0042

>  <oscillator_strength_2>  (494) 
0.0014

>  <oscillator_strength_3>  (494) 
0.0239

>  <oscillator_strength_4>  (494) 
0.0738

>  <open_babel_can_smiles>  (494) 
CC(C[C@@H](C(=O)O)/N=C(/O)\C)C

>  <mulliken_charges>  (494) 
27
1   -0.444669
2   -0.448481
3   -0.557995
4   -0.250665
5   -0.07326
6   0.506031
7   -0.095977
8   0.600186
9   -0.46254
10   -0.568741
11   -0.46837
12   -0.577503
13   0.140604
14   0.145767
15   0.147155
16   0.142527
17   0.13468
18   0.151259
19   0.194637
20   0.186893
21   0.179909
22   0.146502
23   0.164131
24   0.119507
25   0.146202
26   0.41256
27   0.429651

>  <lowdin_charges>  (494) 
27
1   -0.440529
2   -0.447379
3   -0.480079
4   -0.27607
5   -0.12351
6   0.144805
7   -0.101348
8   0.178749
9   -0.221134
10   -0.357925
11   -0.259228
12   -0.351419
13   0.146938
14   0.149173
15   0.150733
16   0.148361
17   0.142452
18   0.152486
19   0.178588
20   0.176086
21   0.172442
22   0.153152
23   0.161918
24   0.134388
25   0.148721
26   0.359117
27   0.360513

$$$$
PCCDB-ID:  2000
     RDKit          3D

 28 28  0  0  1  0  0  0  0  0999 V2000
    1.0133   -0.0969    1.0352 C   0  0  0  0  0  0  0  0  0  0  0  0
   -2.2199    0.9019   -1.7300 C   0  0  0  0  0  0  0  0  0  0  0  0
   -2.2507   -0.4925   -1.6530 C   0  0  0  0  0  0  0  0  0  0  0  0
   -1.0367    1.5456   -2.0978 C   0  0  0  0  0  0  0  0  0  0  0  0
   -1.1034   -1.2344   -1.9360 C   0  0  0  0  0  0  0  0  0  0  0  0
    0.1097    0.7992   -2.3796 C   0  0  0  0  0  0  0  0  0  0  0  0
    1.3427   -1.4093   -2.5608 C   0  0  0  0  0  0  0  0  0  0  0  0
    2.2766    0.1476    0.2435 C   0  0  0  0  0  0  0  0  0  0  0  0
    0.0944   -0.6004   -2.2980 C   0  0  0  0  0  0  0  0  0  0  0  0
    2.1678   -1.7096   -1.2741 C   0  0  1  0  0  0  0  0  0  0  0  0
    3.3000   -2.6897   -1.6571 C   0  0  0  0  0  0  0  0  0  0  0  0
    2.7660   -0.5109   -0.7263 N   0  0  0  0  0  0  0  0  0  0  0  0
    2.9889    1.2425    0.6310 O   0  0  0  0  0  0  0  0  0  0  0  0
    3.0767   -3.8272   -2.0004 O   0  0  0  0  0  0  0  0  0  0  0  0
    4.5321   -2.1635   -1.6116 O   0  0  0  0  0  0  0  0  0  0  0  0
    0.5334   -1.0387    0.7722 H   0  0  0  0  0  0  0  0  0  0  0  0
    0.2934    0.7065    0.8402 H   0  0  0  0  0  0  0  0  0  0  0  0
    1.2383   -0.1075    2.1091 H   0  0  0  0  0  0  0  0  0  0  0  0
   -3.1142    1.4810   -1.5156 H   0  0  0  0  0  0  0  0  0  0  0  0
   -3.1705   -1.0032   -1.3800 H   0  0  0  0  0  0  0  0  0  0  0  0
   -1.0068    2.6297   -2.1738 H   0  0  0  0  0  0  0  0  0  0  0  0
   -1.1365   -2.3208   -1.8825 H   0  0  0  0  0  0  0  0  0  0  0  0
    1.0270    1.3050   -2.6703 H   0  0  0  0  0  0  0  0  0  0  0  0
    1.9975   -0.8830   -3.2648 H   0  0  0  0  0  0  0  0  0  0  0  0
    1.0910   -2.3783   -3.0037 H   0  0  0  0  0  0  0  0  0  0  0  0
    1.5221   -2.2512   -0.5699 H   0  0  0  0  0  0  0  0  0  0  0  0
    2.5406    1.6724    1.3757 H   0  0  0  0  0  0  0  0  0  0  0  0
    4.4102   -1.2349   -1.2952 H   0  0  0  0  0  0  0  0  0  0  0  0
  1 18  1  0
  2  3  2  0
  2 19  1  0
  3 20  1  0
  4  2  1  0
  5 22  1  0
  5  3  1  0
  6  9  1  0
  6  4  2  0
  7  9  1  0
  7 10  1  0
  8 13  1  0
  8  1  1  0
  9  5  2  0
 10 12  1  0
 10 26  1  1
 11 15  1  0
 11 10  1  0
 12  8  2  0
 13 27  1  0
 14 11  2  0
 15 28  1  0
 16  1  1  0
 17  1  1  0
 21  4  1  0
 23  6  1  0
 24  7  1  0
 25  7  1  0
M  END
>  <HBA>  (495) 
4

>  <HBD>  (495) 
2

>  <TPSA>  (495) 
66.4

>  <cid>  (495) 
2000

>  <dipole>  (495) 
7.35

>  <excitation_energy_1>  (495) 
5.255

>  <excitation_energy_2>  (495) 
5.388

>  <excitation_energy_3>  (495) 
5.694

>  <excitation_energy_4>  (495) 
5.762

>  <homo_energy>  (495) 
-6.637

>  <homo_lumo_gap>  (495) 
6.188

>  <logP>  (495) 
1.209

>  <lumo_energy>  (495) 
-0.449

>  <melting_point>  (495) 
130.22

>  <molecular_refractivity>  (495) 
55.41

>  <oscillator_strength_1>  (495) 
0.0013

>  <oscillator_strength_2>  (495) 
0.03

>  <oscillator_strength_3>  (495) 
0.0102

>  <oscillator_strength_4>  (495) 
0.0229

>  <open_babel_can_smiles>  (495) 
OC(=O)[C@H](Cc1ccccc1)/N=C(/O)\C

>  <mulliken_charges>  (495) 
28
1   -0.556408
2   -0.133354
3   -0.129533
4   -0.136555
5   -0.189414
6   -0.186226
7   -0.353361
8   0.513066
9   0.16367
10   -0.080466
11   0.605384
12   -0.473856
13   -0.5705
14   -0.471733
15   -0.576895
16   0.194288
17   0.198745
18   0.170596
19   0.13202
20   0.133833
21   0.132648
22   0.135056
23   0.140236
24   0.15987
25   0.18131
26   0.153738
27   0.413426
28   0.430415

>  <lowdin_charges>  (495) 
28
1   -0.479643
2   -0.162372
3   -0.156297
4   -0.157477
5   -0.166073
6   -0.168662
7   -0.273261
8   0.154174
9   -0.006525
10   -0.098556
11   0.176532
12   -0.228838
13   -0.357935
14   -0.260472
15   -0.347748
16   0.180576
17   0.184374
18   0.166467
19   0.159313
20   0.159816
21   0.156565
22   0.15696
23   0.16256
24   0.161729
25   0.172155
26   0.152731
27   0.361301
28   0.358608

$$$$
PCCDB-ID:  2005
     RDKit          3D

 27 26  0  0  0  0  0  0  0  0999 V2000
    0.1142   -0.0429   -0.2678 C   0  0  0  0  0  0  0  0  0  0  0  0
    2.6055   -4.2700   -2.2380 C   0  0  0  0  0  0  0  0  0  0  0  0
    3.5451   -5.1090   -3.1138 C   0  0  0  0  0  0  0  0  0  0  0  0
    3.1679   -2.8832   -1.9092 C   0  0  0  0  0  0  0  0  0  0  0  0
    2.9566   -6.4665   -3.5613 C   0  0  0  0  0  0  0  0  0  0  0  0
    2.1965   -2.0223   -1.0924 C   0  0  0  0  0  0  0  0  0  0  0  0
    0.1109   -0.9518   -1.4798 C   0  0  0  0  0  0  0  0  0  0  0  0
    2.7237   -7.4102   -2.3885 C   0  0  0  0  0  0  0  0  0  0  0  0
    0.9734   -1.7982   -1.8513 N   0  0  0  0  0  0  0  0  0  0  0  0
   -1.0031   -0.8323   -2.2700 O   0  0  0  0  0  0  0  0  0  0  0  0
    3.5441   -8.1919   -1.9773 O   0  0  0  0  0  0  0  0  0  0  0  0
    1.5143   -7.3057   -1.7631 O   0  0  0  0  0  0  0  0  0  0  0  0
    1.0239   -0.1508    0.3245 H   0  0  0  0  0  0  0  0  0  0  0  0
   -0.7416   -0.2723    0.3799 H   0  0  0  0  0  0  0  0  0  0  0  0
    0.0282    1.0076   -0.5739 H   0  0  0  0  0  0  0  0  0  0  0  0
    2.3956   -4.8027   -1.2995 H   0  0  0  0  0  0  0  0  0  0  0  0
    1.6424   -4.1300   -2.7481 H   0  0  0  0  0  0  0  0  0  0  0  0
    4.4886   -5.2955   -2.5843 H   0  0  0  0  0  0  0  0  0  0  0  0
    3.7999   -4.5420   -4.0186 H   0  0  0  0  0  0  0  0  0  0  0  0
    3.4036   -2.3529   -2.8417 H   0  0  0  0  0  0  0  0  0  0  0  0
    4.1093   -2.9820   -1.3508 H   0  0  0  0  0  0  0  0  0  0  0  0
    3.6591   -6.9670   -4.2333 H   0  0  0  0  0  0  0  0  0  0  0  0
    2.0233   -6.2997   -4.1165 H   0  0  0  0  0  0  0  0  0  0  0  0
    2.6983   -1.0791   -0.8247 H   0  0  0  0  0  0  0  0  0  0  0  0
    1.9696   -2.5387   -0.1455 H   0  0  0  0  0  0  0  0  0  0  0  0
   -1.5829   -0.1479   -1.9025 H   0  0  0  0  0  0  0  0  0  0  0  0
    0.9775   -6.6215   -2.1951 H   0  0  0  0  0  0  0  0  0  0  0  0
  1 13  1  0
  1 14  1  0
  2  4  1  0
  2 16  1  0
  3 18  1  0
  3  2  1  0
  4 21  1  0
  4  6  1  0
  5  3  1  0
  5  8  1  0
  6 24  1  0
  6 25  1  0
  7  1  1  0
  8 11  2  0
  8 12  1  0
  9  7  2  0
  9  6  1  0
 10 26  1  0
 10  7  1  0
 15  1  1  0
 17  2  1  0
 19  3  1  0
 20  4  1  0
 22  5  1  0
 23  5  1  0
 27 12  1  0
M  END
>  <HBA>  (496) 
4

>  <HBD>  (496) 
2

>  <TPSA>  (496) 
66.4

>  <cid>  (496) 
2005

>  <dipole>  (496) 
6.64

>  <excitation_energy_1>  (496) 
5.588

>  <excitation_energy_2>  (496) 
5.599

>  <excitation_energy_3>  (496) 
5.865

>  <excitation_energy_4>  (496) 
5.919

>  <homo_energy>  (496) 
-6.789

>  <homo_lumo_gap>  (496) 
7.165

>  <logP>  (496) 
1.158

>  <lumo_energy>  (496) 
0.376

>  <melting_point>  (496) 
97.84

>  <molecular_refractivity>  (496) 
45.34

>  <oscillator_strength_1>  (496) 
0.0018

>  <oscillator_strength_2>  (496) 
0.0003

>  <oscillator_strength_3>  (496) 
0.0029

>  <oscillator_strength_4>  (496) 
0.0053

>  <open_babel_can_smiles>  (496) 
OC(=O)CCCCC/N=C(/O)\C

>  <mulliken_charges>  (496) 
27
1   -0.564099
2   -0.282516
3   -0.259159
4   -0.253583
5   -0.370324
6   -0.149603
7   0.499065
8   0.583852
9   -0.416138
10   -0.580058
11   -0.440651
12   -0.56435
13   0.185114
14   0.177652
15   0.173385
16   0.138709
17   0.153848
18   0.156187
19   0.145519
20   0.139999
21   0.128381
22   0.176632
23   0.140788
24   0.128964
25   0.137043
26   0.404066
27   0.411276

>  <lowdin_charges>  (496) 
27
1   -0.484477
2   -0.291264
3   -0.267612
4   -0.275975
5   -0.31722
6   -0.200351
7   0.13192
8   0.197073
9   -0.213184
10   -0.373425
11   -0.244112
12   -0.365683
13   0.175365
14   0.171615
15   0.167559
16   0.141879
17   0.1493
18   0.15197
19   0.149584
20   0.145839
21   0.141302
22   0.175133
23   0.148321
24   0.134412
25   0.138102
26   0.354845
27   0.359083

$$$$
PCCDB-ID:  2006
     RDKit          3D

 24 25  0  0  0  0  0  0  0  0999 V2000
   -2.5650   -0.2390   -0.6478 C   0  0  0  0  0  0  0  0  0  0  0  0
   -2.2804   -1.5221   -0.1890 C   0  0  0  0  0  0  0  0  0  0  0  0
   -1.5762    0.7422   -0.7246 C   0  0  0  0  0  0  0  0  0  0  0  0
    0.0283   -0.8643    0.1356 C   0  0  0  0  0  0  0  0  0  0  0  0
   -0.9724   -1.8375    0.2064 C   0  0  0  0  0  0  0  0  0  0  0  0
   -0.2680    0.4234   -0.3278 C   0  0  0  0  0  0  0  0  0  0  0  0
   -0.6376   -3.1789    0.6948 C   0  0  0  0  0  0  0  0  0  0  0  0
    0.7695    2.6536   -0.7688 C   0  0  0  0  0  0  0  0  0  0  0  0
    2.1810    3.2622   -0.6356 C   0  0  0  0  0  0  0  0  0  0  0  0
    0.7915    1.3500   -0.3698 N   0  0  0  0  0  0  0  0  0  0  0  0
   -1.5100   -4.1858    0.7968 N   0  0  0  0  0  0  0  0  0  0  0  0
    0.6120   -3.5485    1.1052 N   0  0  0  0  0  0  0  0  0  0  0  0
   -0.7314   -5.1478    1.2767 N   0  0  0  0  0  0  0  0  0  0  0  0
    0.5365   -4.8009    1.4716 N   0  0  0  0  0  0  0  0  0  0  0  0
   -0.1841    3.2949   -1.1757 O   0  0  0  0  0  0  0  0  0  0  0  0
    2.2101    4.5427   -1.0130 O   0  0  0  0  0  0  0  0  0  0  0  0
    3.1436    2.6392   -0.2338 O   0  0  0  0  0  0  0  0  0  0  0  0
   -3.5769    0.0089   -0.9554 H   0  0  0  0  0  0  0  0  0  0  0  0
   -3.0563   -2.2781   -0.1325 H   0  0  0  0  0  0  0  0  0  0  0  0
   -1.8004    1.7378   -1.0814 H   0  0  0  0  0  0  0  0  0  0  0  0
    1.0374   -1.1200    0.4456 H   0  0  0  0  0  0  0  0  0  0  0  0
    1.7044    1.0236   -0.0685 H   0  0  0  0  0  0  0  0  0  0  0  0
   -1.0747   -6.0767    1.4843 H   0  0  0  0  0  0  0  0  0  0  0  0
    3.1306    4.8462   -0.8960 H   0  0  0  0  0  0  0  0  0  0  0  0
  1  2  2  0
  2 19  1  0
  2  5  1  0
  3  1  1  0
  3  6  2  0
  4  5  2  0
  4 21  1  0
  5  7  1  0
  6  4  1  0
  7 11  2  0
  7 12  1  0
  8  9  1  0
  8 10  1  0
  9 17  2  0
 10  6  1  0
 10 22  1  0
 11 13  1  0
 12 14  2  0
 13 14  1  0
 13 23  1  0
 15  8  2  0
 16 24  1  0
 16  9  1  0
 18  1  1  0
 20  3  1  0
M  END
>  <HBA>  (497) 
7

>  <HBD>  (497) 
3

>  <TPSA>  (497) 
120.86

>  <cid>  (497) 
2006

>  <dipole>  (497) 
1.89

>  <excitation_energy_1>  (497) 
3.888

>  <excitation_energy_2>  (497) 
3.986

>  <excitation_energy_3>  (497) 
4.229

>  <excitation_energy_4>  (497) 
4.594

>  <homo_energy>  (497) 
-6.343

>  <homo_lumo_gap>  (497) 
4.487

>  <logP>  (497) 
-0.037

>  <lumo_energy>  (497) 
-1.856

>  <melting_point>  (497) 
267.82

>  <molecular_refractivity>  (497) 
55.7

>  <oscillator_strength_1>  (497) 
0.0001

>  <oscillator_strength_2>  (497) 
0.2241

>  <oscillator_strength_3>  (497) 
0.0342

>  <oscillator_strength_4>  (497) 
0.0714

>  <open_babel_can_smiles>  (497) 
OC(=O)C(=O)Nc1cccc(c1)c1n[nH]nn1

>  <mulliken_charges>  (497) 
24
1   -0.149048
2   -0.172211
3   -0.156581
4   -0.255763
5   0.131119
6   0.368753
7   0.448042
8   0.571243
9   0.535115
10   -0.728176
11   -0.338664
12   -0.365973
13   -0.193099
14   -0.030069
15   -0.484987
16   -0.531489
17   -0.470437
18   0.142724
19   0.156807
20   0.190974
21   0.168651
22   0.366644
23   0.374836
24   0.421589

>  <lowdin_charges>  (497) 
24
1   -0.141509
2   -0.15684
3   -0.168748
4   -0.17018
5   -0.007872
6   0.057982
7   0.026879
8   0.130043
9   0.172199
10   -0.210436
11   -0.13553
12   -0.140051
13   -0.062064
14   -0.059093
15   -0.256287
16   -0.305396
17   -0.262818
18   0.1642
19   0.173623
20   0.189238
21   0.175421
22   0.305763
23   0.311528
24   0.369948

$$$$
PCCDB-ID:  2015
     RDKit          3D

 24 26  0  0  0  0  0  0  0  0999 V2000
   -3.6749   -0.6747    0.0331 C   0  0  0  0  0  0  0  0  0  0  0  0
    3.6835   -0.6502    0.0333 C   0  0  0  0  0  0  0  0  0  0  0  0
   -3.6334    0.7304    0.0319 C   0  0  0  0  0  0  0  0  0  0  0  0
    3.6328    0.7547    0.0321 C   0  0  0  0  0  0  0  0  0  0  0  0
   -2.4889   -1.3907    0.0320 C   0  0  0  0  0  0  0  0  0  0  0  0
    2.5024   -1.3741    0.0322 C   0  0  0  0  0  0  0  0  0  0  0  0
   -2.4226    1.4047    0.0303 C   0  0  0  0  0  0  0  0  0  0  0  0
    2.4175    1.4209    0.0304 C   0  0  0  0  0  0  0  0  0  0  0  0
   -1.2461   -0.7348    0.0302 C   0  0  0  0  0  0  0  0  0  0  0  0
    1.2553   -0.7265    0.0303 C   0  0  0  0  0  0  0  0  0  0  0  0
   -1.2167    0.6776    0.0303 C   0  0  0  0  0  0  0  0  0  0  0  0
    1.2165    0.6857    0.0303 C   0  0  0  0  0  0  0  0  0  0  0  0
    0.0072   -1.5196    0.0283 C   0  0  0  0  0  0  0  0  0  0  0  0
   -0.0023    1.3358    0.0299 N   0  0  0  0  0  0  0  0  0  0  0  0
    0.0113   -2.7519    0.0258 O   0  0  0  0  0  0  0  0  0  0  0  0
   -4.6299   -1.1912    0.0345 H   0  0  0  0  0  0  0  0  0  0  0  0
    4.6420   -1.1604    0.0348 H   0  0  0  0  0  0  0  0  0  0  0  0
   -4.5589    1.3001    0.0328 H   0  0  0  0  0  0  0  0  0  0  0  0
    4.5544    1.3305    0.0331 H   0  0  0  0  0  0  0  0  0  0  0  0
   -2.4762   -2.4761    0.0319 H   0  0  0  0  0  0  0  0  0  0  0  0
    2.4969   -2.4595    0.0320 H   0  0  0  0  0  0  0  0  0  0  0  0
   -2.3952    2.4923    0.0295 H   0  0  0  0  0  0  0  0  0  0  0  0
    2.3828    2.5082    0.0297 H   0  0  0  0  0  0  0  0  0  0  0  0
   -0.0057    2.3464    0.0261 H   0  0  0  0  0  0  0  0  0  0  0  0
  1 16  1  0
  2 17  1  0
  3 18  1  0
  3  1  2  0
  4 19  1  0
  4  2  1  0
  5  1  1  0
  6  2  2  0
  7  3  1  0
  8  4  2  0
  9 11  1  0
  9  5  2  0
 10 12  2  0
 10  6  1  0
 11  7  2  0
 12  8  1  0
 13  9  1  0
 13 10  1  0
 14 11  1  0
 14 12  1  0
 15 13  2  0
 20  5  1  0
 21  6  1  0
 22  7  1  0
 23  8  1  0
 24 14  1  0
M  END
>  <HBA>  (498) 
1

>  <HBD>  (498) 
1

>  <TPSA>  (498) 
32.86

>  <cid>  (498) 
2015

>  <dipole>  (498) 
4.95

>  <excitation_energy_1>  (498) 
3.559

>  <excitation_energy_2>  (498) 
3.596

>  <excitation_energy_3>  (498) 
4.392

>  <excitation_energy_4>  (498) 
4.742

>  <homo_energy>  (498) 
-5.619

>  <homo_lumo_gap>  (498) 
4.112

>  <logP>  (498) 
2.681

>  <lumo_energy>  (498) 
-1.508

>  <melting_point>  (498) 
175.71

>  <molecular_refractivity>  (498) 
62.07

>  <oscillator_strength_1>  (498) 
0.0786

>  <oscillator_strength_2>  (498) 
0.0

>  <oscillator_strength_3>  (498) 
0.0373

>  <oscillator_strength_4>  (498) 
0.0239

>  <open_babel_can_smiles>  (498) 
O=c1c2ccccc2[nH]c2c1cccc2

>  <mulliken_charges>  (498) 
24
1   -0.137775
2   -0.137747
3   -0.128693
4   -0.128711
5   -0.17896
6   -0.178981
7   -0.185392
8   -0.185389
9   0.03915
10   0.039125
11   0.352541
12   0.352561
13   0.380835
14   -0.834811
15   -0.520657
16   0.134821
17   0.134819
18   0.13677
19   0.136777
20   0.165483
21   0.165477
22   0.126271
23   0.126265
24   0.326221

>  <lowdin_charges>  (498) 
24
1   -0.173925
2   -0.173875
3   -0.133498
4   -0.133537
5   -0.115986
6   -0.115987
7   -0.192012
8   -0.192029
9   -0.068718
10   -0.068729
11   0.063648
12   0.063699
13   0.134585
14   -0.201674
15   -0.289716
16   0.161438
17   0.161399
18   0.162426
19   0.162461
20   0.177116
21   0.177115
22   0.154011
23   0.154018
24   0.287769

$$$$
PCCDB-ID:  2041
     RDKit          3D

 20 20  0  0  0  0  0  0  0  0999 V2000
    0.0543    0.2686    1.2104 C   0  0  0  0  0  0  0  0  0  0  0  0
    1.2150   -0.1393   -0.8830 C   0  0  0  0  0  0  0  0  0  0  0  0
   -0.6076   -0.9444    1.0723 C   0  0  0  0  0  0  0  0  0  0  0  0
    0.5577   -1.3535   -1.0302 C   0  0  0  0  0  0  0  0  0  0  0  0
    1.7291    1.9434    0.2777 C   0  0  0  0  0  0  0  0  0  0  0  0
    0.9469    3.0053    2.3858 C   0  0  0  0  0  0  0  0  0  0  0  0
    2.5919    4.0889    0.9740 C   0  0  0  0  0  0  0  0  0  0  0  0
    0.9806    0.6946    0.2331 C   0  0  0  0  0  0  0  0  0  0  0  0
    1.7360    2.9573    1.1913 C   0  0  0  0  0  0  0  0  0  0  0  0
   -0.3473   -1.7377   -0.0443 C   0  0  0  0  0  0  0  0  0  0  0  0
    0.3137    3.0629    3.3602 N   0  0  0  0  0  0  0  0  0  0  0  0
    3.2870    5.0038    0.7933 N   0  0  0  0  0  0  0  0  0  0  0  0
   -1.0546   -3.0244   -0.1835 N   0  0  0  0  0  0  0  0  0  0  0  0
   -1.8414   -3.3359    0.7077 O   0  0  0  0  0  0  0  0  0  0  0  0
   -0.8110   -3.7001   -1.1815 O   0  0  0  0  0  0  0  0  0  0  0  0
   -0.1533    0.8772    2.0809 H   0  0  0  0  0  0  0  0  0  0  0  0
    1.9250    0.1748   -1.6429 H   0  0  0  0  0  0  0  0  0  0  0  0
   -1.3194   -1.2841    1.8143 H   0  0  0  0  0  0  0  0  0  0  0  0
    0.7314   -1.9987   -1.8827 H   0  0  0  0  0  0  0  0  0  0  0  0
    2.3990    2.0939   -0.5656 H   0  0  0  0  0  0  0  0  0  0  0  0
  1 16  1  0
  2  8  2  0
  3  1  2  0
  3 18  1  0
  4  2  1  0
  4 10  2  0
  5  9  2  3
  6 11  3  0
  7  9  1  0
  8  5  1  0
  8  1  1  0
  9  6  1  0
 10  3  1  0
 12  7  3  0
 13 10  1  0
 13 14  1  0
 15 13  2  0
 17  2  1  0
 19  4  1  0
 20  5  1  0
M  CHG  2  13   1  14  -1
M  END
>  <HBA>  (499) 
2

>  <HBD>  (499) 
0

>  <TPSA>  (499) 
93.4

>  <cid>  (499) 
2041

>  <dipole>  (499) 
2.9

>  <excitation_energy_1>  (499) 
3.536

>  <excitation_energy_2>  (499) 
3.755

>  <excitation_energy_3>  (499) 
3.904

>  <excitation_energy_4>  (499) 
4.016

>  <homo_energy>  (499) 
-7.723

>  <homo_lumo_gap>  (499) 
3.948

>  <logP>  (499) 
2.549

>  <lumo_energy>  (499) 
-3.774

>  <melting_point>  (499) 
136.53

>  <molecular_refractivity>  (499) 
54.47

>  <oscillator_strength_1>  (499) 
0.0001

>  <oscillator_strength_2>  (499) 
0.6951

>  <oscillator_strength_3>  (499) 
0.0493

>  <oscillator_strength_4>  (499) 
0.0002

>  <open_babel_can_smiles>  (499) 
N#CC(=Cc1ccc(cc1)N(=O)=O)C#N

>  <mulliken_charges>  (499) 
20
1   -0.190728
2   -0.194579
3   -0.153696
4   -0.148155
5   -0.164993
6   0.321616
7   0.293439
8   0.187474
9   0.133513
10   0.283651
11   -0.481501
12   -0.449513
13   0.386379
14   -0.382115
15   -0.38418
16   0.193473
17   0.164766
18   0.20161
19   0.19763
20   0.185909

>  <lowdin_charges>  (499) 
20
1   -0.135593
2   -0.133838
3   -0.130025
4   -0.134368
5   -0.074326
6   -0.001377
7   -0.005079
8   0.001765
9   -0.032662
10   0.021122
11   -0.083357
12   -0.081848
13   0.308989
14   -0.23286
15   -0.23544
16   0.191959
17   0.174578
18   0.197682
19   0.195838
20   0.188839

$$$$
PCCDB-ID:  2045
     RDKit          3D

 26 26  0  0  0  0  0  0  0  0999 V2000
   -1.1114    0.9788   -1.5251 C   0  0  0  0  0  0  0  0  0  0  0  0
   -1.9995    1.7353    0.5972 C   0  0  0  0  0  0  0  0  0  0  0  0
   -2.0561   -0.0337   -1.5731 C   0  0  0  0  0  0  0  0  0  0  0  0
   -2.9434    0.7256    0.5584 C   0  0  0  0  0  0  0  0  0  0  0  0
   -0.0289    2.9075   -0.5218 C   0  0  0  0  0  0  0  0  0  0  0  0
   -0.3812    4.1907    1.5456 C   0  0  0  0  0  0  0  0  0  0  0  0
    2.9984    6.0682   -1.3658 C   0  0  0  0  0  0  0  0  0  0  0  0
    1.2914    4.7434   -2.4755 C   0  0  0  0  0  0  0  0  0  0  0  0
   -1.0534    1.8914   -0.4461 C   0  0  0  0  0  0  0  0  0  0  0  0
    0.2866    3.9561    0.3021 C   0  0  0  0  0  0  0  0  0  0  0  0
    1.8779    5.1952   -1.2637 C   0  0  0  0  0  0  0  0  0  0  0  0
   -2.9796   -0.1660   -0.5269 C   0  0  0  0  0  0  0  0  0  0  0  0
    1.3964    4.8962    0.0160 C   0  0  0  0  0  0  0  0  0  0  0  0
   -0.8596    4.4191    2.5836 N   0  0  0  0  0  0  0  0  0  0  0  0
    3.9134    6.7918   -1.3620 N   0  0  0  0  0  0  0  0  0  0  0  0
    0.8330    4.3758   -3.4831 N   0  0  0  0  0  0  0  0  0  0  0  0
    1.9533    5.4960    1.0900 N   0  0  0  0  0  0  0  0  0  0  0  0
   -3.9307   -1.1306   -0.5029 O   0  0  0  0  0  0  0  0  0  0  0  0
   -0.4041    1.0825   -2.3434 H   0  0  0  0  0  0  0  0  0  0  0  0
   -1.9968    2.4070    1.4462 H   0  0  0  0  0  0  0  0  0  0  0  0
   -2.0829   -0.7189   -2.4174 H   0  0  0  0  0  0  0  0  0  0  0  0
   -3.6675    0.6047    1.3572 H   0  0  0  0  0  0  0  0  0  0  0  0
    0.5981    2.8114   -1.4006 H   0  0  0  0  0  0  0  0  0  0  0  0
    1.6170    5.3105    2.0238 H   0  0  0  0  0  0  0  0  0  0  0  0
    2.6579    6.2117    0.9683 H   0  0  0  0  0  0  0  0  0  0  0  0
   -3.8623   -1.6784   -1.3015 H   0  0  0  0  0  0  0  0  0  0  0  0
  1  9  2  0
  2 20  1  0
  3  1  1  0
  3 12  2  0
  4  2  2  0
  4 22  1  0
  5  9  1  0
  5 10  2  0
  6 14  3  0
  7 15  3  0
  7 11  1  0
  8 11  1  0
  9  2  1  0
 10  6  1  0
 11 13  2  0
 12 18  1  0
 12  4  1  0
 13 10  1  0
 13 17  1  0
 16  8  3  0
 17 24  1  0
 19  1  1  0
 21  3  1  0
 23  5  1  0
 25 17  1  0
 26 18  1  0
M  END
>  <HBA>  (500) 
5

>  <HBD>  (500) 
2

>  <TPSA>  (500) 
117.62

>  <cid>  (500) 
2045

>  <dipole>  (500) 
6.77

>  <excitation_energy_1>  (500) 
3.091

>  <excitation_energy_2>  (500) 
3.748

>  <excitation_energy_3>  (500) 
4.19

>  <excitation_energy_4>  (500) 
4.735

>  <homo_energy>  (500) 
-6.338

>  <homo_lumo_gap>  (500) 
3.459

>  <logP>  (500) 
2.259

>  <lumo_energy>  (500) 
-2.879

>  <melting_point>  (500) 
240.5

>  <molecular_refractivity>  (500) 
64.07

>  <oscillator_strength_1>  (500) 
0.2733

>  <oscillator_strength_2>  (500) 
0.4904

>  <oscillator_strength_3>  (500) 
0.005

>  <oscillator_strength_4>  (500) 
0.0657

>  <open_babel_can_smiles>  (500) 
N#C/C(=C\c1ccc(cc1)O)/C(=C(C#N)C#N)N

>  <mulliken_charges>  (500) 
26
1   -0.182779
2   -0.183318
3   -0.195253
4   -0.161948
5   -0.199214
6   0.265186
7   0.27447
8   0.255682
9   0.163856
10   0.086963
11   0.025447
12   0.367517
13   0.415764
14   -0.514128
15   -0.492167
16   -0.506321
17   -0.81429
18   -0.618777
19   0.170071
20   0.181821
21   0.142091
22   0.163611
23   0.190263
24   0.370969
25   0.37502
26   0.419462

>  <lowdin_charges>  (500) 
26
1   -0.11693
2   -0.127049
3   -0.210546
4   -0.175705
5   -0.069921
6   -0.015576
7   -0.010144
8   -0.013115
9   -0.0354
10   -0.076036
11   -0.141315
12   0.128293
13   0.136441
14   -0.124597
15   -0.134959
16   -0.141273
17   -0.410553
18   -0.347691
19   0.176434
20   0.186307
21   0.165251
22   0.179415
23   0.193706
24   0.307847
25   0.310754
26   0.36636

$$$$
PCCDB-ID:  2046
     RDKit          3D

 21 21  0  0  0  0  0  0  0  0999 V2000
   -0.9334    0.2980   -0.6840 C   0  0  0  0  0  0  0  0  0  0  0  0
   -0.0145    1.3177   -0.8690 C   0  0  0  0  0  0  0  0  0  0  0  0
   -1.6734   -1.7902    0.3401 C   0  0  0  0  0  0  0  0  0  0  0  0
    0.5761   -0.7604    0.8888 C   0  0  0  0  0  0  0  0  0  0  0  0
   -0.6776   -3.3660    1.9810 C   0  0  0  0  0  0  0  0  0  0  0  0
   -2.8746   -3.7689    1.0373 C   0  0  0  0  0  0  0  0  0  0  0  0
   -0.6495   -0.7632    0.2026 C   0  0  0  0  0  0  0  0  0  0  0  0
   -1.7159   -2.9246    1.0984 C   0  0  0  0  0  0  0  0  0  0  0  0
    1.2070    1.2990   -0.1963 C   0  0  0  0  0  0  0  0  0  0  0  0
    1.5197    0.2558    0.7028 C   0  0  0  0  0  0  0  0  0  0  0  0
    0.1620   -3.7280    2.7008 N   0  0  0  0  0  0  0  0  0  0  0  0
   -3.8153   -4.4510    0.9847 N   0  0  0  0  0  0  0  0  0  0  0  0
    2.1413    2.4004   -0.4696 N   0  0  0  0  0  0  0  0  0  0  0  0
    2.6842    0.2683    1.3811 O   0  0  0  0  0  0  0  0  0  0  0  0
    1.6501    3.4555   -0.8756 O   0  0  0  0  0  0  0  0  0  0  0  0
    3.3387    2.1972   -0.3014 O   0  0  0  0  0  0  0  0  0  0  0  0
   -1.8764    0.3174   -1.2210 H   0  0  0  0  0  0  0  0  0  0  0  0
   -0.2188    2.1490   -1.5324 H   0  0  0  0  0  0  0  0  0  0  0  0
   -2.5585   -1.6217   -0.2682 H   0  0  0  0  0  0  0  0  0  0  0  0
    0.8199   -1.5547    1.5848 H   0  0  0  0  0  0  0  0  0  0  0  0
    2.7068   -0.4893    1.9894 H   0  0  0  0  0  0  0  0  0  0  0  0
  1  7  2  0
  2  1  1  0
  2  9  2  0
  3  8  2  3
  4 20  1  0
  5 11  3  0
  6  8  1  0
  7  3  1  0
  7  4  1  0
  8  5  1  0
  9 10  1  0
 10  4  2  0
 10 14  1  0
 12  6  3  0
 13 16  1  0
 13  9  1  0
 14 21  1  0
 15 13  2  0
 17  1  1  0
 18  2  1  0
 19  3  1  0
M  CHG  2  13   1  16  -1
M  END
>  <HBA>  (501) 
3

>  <HBD>  (501) 
1

>  <TPSA>  (501) 
113.63

>  <cid>  (501) 
2046

>  <dipole>  (501) 
1.67

>  <excitation_energy_1>  (501) 
3.301

>  <excitation_energy_2>  (501) 
3.444

>  <excitation_energy_3>  (501) 
3.89

>  <excitation_energy_4>  (501) 
4.009

>  <homo_energy>  (501) 
-7.44

>  <homo_lumo_gap>  (501) 
3.742

>  <logP>  (501) 
2.254

>  <lumo_energy>  (501) 
-3.698

>  <melting_point>  (501) 
177.51

>  <molecular_refractivity>  (501) 
56.49

>  <oscillator_strength_1>  (501) 
0.1385

>  <oscillator_strength_2>  (501) 
0.0622

>  <oscillator_strength_3>  (501) 
0.4173

>  <oscillator_strength_4>  (501) 
0.1527

>  <open_babel_can_smiles>  (501) 
N#CC(=Cc1ccc(c(c1)O)N(=O)=O)C#N

>  <mulliken_charges>  (501) 
21
1   -0.199772
2   -0.152796
3   -0.166504
4   -0.268475
5   0.325952
6   0.292521
7   0.191518
8   0.131798
9   0.263202
10   0.355331
11   -0.490463
12   -0.449141
13   0.363437
14   -0.600251
15   -0.385754
16   -0.359789
17   0.161267
18   0.197322
19   0.188077
20   0.173862
21   0.428657

>  <lowdin_charges>  (501) 
21
1   -0.156089
2   -0.124023
3   -0.070499
4   -0.197808
5   0.002312
6   -0.005501
7   0.008324
8   -0.036712
9   -0.004365
10   0.123267
11   -0.092099
12   -0.081444
13   0.304129
14   -0.327201
15   -0.245944
16   -0.21304
17   0.17335
18   0.1959
19   0.190152
20   0.185008
21   0.372284

$$$$
PCCDB-ID:  2048
     RDKit          3D

 32 34  0  0  0  0  0  0  0  0999 V2000
    1.0051    0.0220   -0.1698 C   0  0  0  0  0  0  0  0  0  0  0  0
    2.5852   -2.4660    0.0480 C   0  0  0  0  0  0  0  0  0  0  0  0
   11.4827    1.5060    1.2729 C   0  0  0  0  0  0  0  0  0  0  0  0
   10.8550    0.3621    0.7723 C   0  0  0  0  0  0  0  0  0  0  0  0
   10.7170    2.6285    1.5902 C   0  0  0  0  0  0  0  0  0  0  0  0
    9.4759    0.3432    0.5859 C   0  0  0  0  0  0  0  0  0  0  0  0
    9.3354    2.6124    1.4016 C   0  0  0  0  0  0  0  0  0  0  0  0
    3.1393    1.3075    0.1098 C   0  0  0  0  0  0  0  0  0  0  0  0
    4.6346   -1.0494    0.3178 C   0  0  0  0  0  0  0  0  0  0  0  0
    6.4475    2.6173    0.5381 C   0  0  0  0  0  0  0  0  0  0  0  0
    2.4998    0.0870    0.0296 C   0  0  0  0  0  0  0  0  0  0  0  0
    3.2690   -1.1230    0.1351 C   0  0  0  0  0  0  0  0  0  0  0  0
    8.6948    1.4709    0.8916 C   0  0  0  0  0  0  0  0  0  0  0  0
    4.5394    1.3958    0.2959 C   0  0  0  0  0  0  0  0  0  0  0  0
    5.3034    0.1974    0.4055 C   0  0  0  0  0  0  0  0  0  0  0  0
    7.2266    1.4228    0.6789 C   0  0  0  0  0  0  0  0  0  0  0  0
    5.1461    2.6162    0.3563 N   0  0  0  0  0  0  0  0  0  0  0  0
    6.6483    0.2326    0.5990 N   0  0  0  0  0  0  0  0  0  0  0  0
    0.5730    1.0251   -0.2263 H   0  0  0  0  0  0  0  0  0  0  0  0
    0.5091   -0.5115    0.6513 H   0  0  0  0  0  0  0  0  0  0  0  0
    0.7424   -0.5089   -1.0940 H   0  0  0  0  0  0  0  0  0  0  0  0
    3.3088   -3.2812    0.1373 H   0  0  0  0  0  0  0  0  0  0  0  0
    2.0552   -2.5897   -0.9052 H   0  0  0  0  0  0  0  0  0  0  0  0
    1.8379   -2.5919    0.8421 H   0  0  0  0  0  0  0  0  0  0  0  0
   12.5596    1.5205    1.4178 H   0  0  0  0  0  0  0  0  0  0  0  0
   11.4435   -0.5176    0.5251 H   0  0  0  0  0  0  0  0  0  0  0  0
   11.1935    3.5186    1.9920 H   0  0  0  0  0  0  0  0  0  0  0  0
    8.9791   -0.5413    0.2024 H   0  0  0  0  0  0  0  0  0  0  0  0
    8.7565    3.4875    1.6803 H   0  0  0  0  0  0  0  0  0  0  0  0
    2.5829    2.2373    0.0302 H   0  0  0  0  0  0  0  0  0  0  0  0
    5.2368   -1.9498    0.4022 H   0  0  0  0  0  0  0  0  0  0  0  0
    6.9321    3.5910    0.5535 H   0  0  0  0  0  0  0  0  0  0  0  0
  1 11  1  0
  1 20  1  0
  2 12  1  0
  2 22  1  0
  2 24  1  0
  3 25  1  0
  3  5  2  0
  4  3  1  0
  5 27  1  0
  6  4  2  0
  6 13  1  0
  7  5  1  0
  7 29  1  0
  8 14  2  0
  9 31  1  0
  9 15  2  0
 10 32  1  0
 10 16  1  0
 11  8  1  0
 11 12  2  0
 12  9  1  0
 13  7  2  0
 14 17  1  0
 14 15  1  0
 15 18  1  0
 16 13  1  0
 17 10  2  0
 18 16  2  0
 19  1  1  0
 21  1  1  0
 23  2  1  0
 26  4  1  0
 28  6  1  0
 30  8  1  0
M  END
>  <HBA>  (502) 
2

>  <HBD>  (502) 
0

>  <TPSA>  (502) 
25.78

>  <cid>  (502) 
2048

>  <dipole>  (502) 
1.16

>  <excitation_energy_1>  (502) 
3.537

>  <excitation_energy_2>  (502) 
3.749

>  <excitation_energy_3>  (502) 
3.953

>  <excitation_energy_4>  (502) 
4.337

>  <homo_energy>  (502) 
-6.074

>  <homo_lumo_gap>  (502) 
4.25

>  <logP>  (502) 
3.914

>  <lumo_energy>  (502) 
-1.823

>  <melting_point>  (502) 
126.61

>  <molecular_refractivity>  (502) 
74.91

>  <oscillator_strength_1>  (502) 
0.0023

>  <oscillator_strength_2>  (502) 
0.2908

>  <oscillator_strength_3>  (502) 
0.0329

>  <oscillator_strength_4>  (502) 
0.0083

>  <open_babel_can_smiles>  (502) 
Cc1cc2ncc(nc2cc1C)c1ccccc1

>  <mulliken_charges>  (502) 
32
1   -0.53496
2   -0.534998
3   -0.12173
4   -0.134336
5   -0.137623
6   -0.155102
7   -0.177308
8   -0.228246
9   -0.237202
10   0.006399
11   0.137322
12   0.140615
13   0.091588
14   0.277011
15   0.312613
16   0.243351
17   -0.473192
18   -0.563021
19   0.163111
20   0.162777
21   0.162855
22   0.162837
23   0.162838
24   0.163276
25   0.132003
26   0.1329
27   0.132456
28   0.155555
29   0.134812
30   0.13887
31   0.13712
32   0.147409

>  <lowdin_charges>  (502) 
32
1   -0.441316
2   -0.441212
3   -0.148136
4   -0.155366
5   -0.156466
6   -0.142155
7   -0.16006
8   -0.165963
9   -0.168897
10   -0.111481
11   0.000665
12   0.00195
13   -0.014213
14   0.021792
15   0.02813
16   0.034916
17   -0.119994
18   -0.134184
19   0.160819
20   0.161699
21   0.160913
22   0.161757
23   0.160712
24   0.161564
25   0.157142
26   0.159865
27   0.159704
28   0.173285
29   0.15995
30   0.166977
31   0.166144
32   0.161459

$$$$
PCCDB-ID:  2054
     RDKit          3D

 22 22  0  0  0  0  0  0  0  0999 V2000
   -0.5872    0.0099    1.0971 C   0  0  0  0  0  0  0  0  0  0  0  0
    0.2738    1.0722    1.3460 C   0  0  0  0  0  0  0  0  0  0  0  0
   -1.3947   -1.8513   -0.2487 C   0  0  0  0  0  0  0  0  0  0  0  0
    0.5736   -0.4345   -0.9816 C   0  0  0  0  0  0  0  0  0  0  0  0
   -0.7322   -2.8677   -2.4071 C   0  0  0  0  0  0  0  0  0  0  0  0
   -0.4582   -0.7668   -0.0706 C   0  0  0  0  0  0  0  0  0  0  0  0
   -1.5437   -2.7772   -1.2407 C   0  0  0  0  0  0  0  0  0  0  0  0
    1.2874    1.3919    0.4410 C   0  0  0  0  0  0  0  0  0  0  0  0
    1.4351    0.6222   -0.7399 C   0  0  0  0  0  0  0  0  0  0  0  0
   -2.6545   -3.7859   -1.0926 C   0  0  0  0  0  0  0  0  0  0  0  0
   -0.1197   -3.0140   -3.3900 N   0  0  0  0  0  0  0  0  0  0  0  0
    2.1612    2.4106    0.6199 O   0  0  0  0  0  0  0  0  0  0  0  0
    2.4428    0.9858   -1.5782 O   0  0  0  0  0  0  0  0  0  0  0  0
   -3.4052   -3.7964   -0.1450 O   0  0  0  0  0  0  0  0  0  0  0  0
   -2.7815   -4.6989   -2.0810 O   0  0  0  0  0  0  0  0  0  0  0  0
   -1.3705   -0.2243    1.8116 H   0  0  0  0  0  0  0  0  0  0  0  0
    0.1630    1.6649    2.2516 H   0  0  0  0  0  0  0  0  0  0  0  0
   -2.1284   -1.9700    0.5466 H   0  0  0  0  0  0  0  0  0  0  0  0
    0.7051   -1.0079   -1.8932 H   0  0  0  0  0  0  0  0  0  0  0  0
    1.9593    2.8608    1.4558 H   0  0  0  0  0  0  0  0  0  0  0  0
    2.4462    0.3899   -2.3443 H   0  0  0  0  0  0  0  0  0  0  0  0
   -2.1105   -4.5655   -2.7748 H   0  0  0  0  0  0  0  0  0  0  0  0
  1  2  2  0
  1 16  1  0
  2 17  1  0
  3  6  1  0
  3 18  1  0
  4  9  1  0
  4  6  2  0
  5  7  1  0
  6  1  1  0
  7 10  1  0
  7  3  2  0
  8 12  1  0
  8  2  1  0
  9  8  2  0
 10 14  2  0
 11  5  3  0
 12 20  1  0
 13  9  1  0
 15 10  1  0
 19  4  1  0
 21 13  1  0
 22 15  1  0
M  END
>  <HBA>  (503) 
5

>  <HBD>  (503) 
3

>  <TPSA>  (503) 
101.55

>  <cid>  (503) 
2054

>  <dipole>  (503) 
5.36

>  <excitation_energy_1>  (503) 
3.516

>  <excitation_energy_2>  (503) 
3.975

>  <excitation_energy_3>  (503) 
4.127

>  <excitation_energy_4>  (503) 
4.958

>  <homo_energy>  (503) 
-6.305

>  <homo_lumo_gap>  (503) 
3.709

>  <logP>  (503) 
1.089

>  <lumo_energy>  (503) 
-2.596

>  <melting_point>  (503) 
221.94

>  <molecular_refractivity>  (503) 
51.71

>  <oscillator_strength_1>  (503) 
0.3775

>  <oscillator_strength_2>  (503) 
0.2699

>  <oscillator_strength_3>  (503) 
0.0001

>  <oscillator_strength_4>  (503) 
0.0238

>  <open_babel_can_smiles>  (503) 
N#C/C(=C\c1ccc(c(c1)O)O)/C(=O)O

>  <mulliken_charges>  (503) 
22
1   -0.186514
2   -0.199945
3   -0.198062
4   -0.259789
5   0.234002
6   0.179105
7   0.04572
8   0.3358
9   0.333389
10   0.606038
11   -0.526821
12   -0.608332
13   -0.627295
14   -0.454646
15   -0.583363
16   0.153451
17   0.138239
18   0.192524
19   0.162384
20   0.418132
21   0.420236
22   0.425747

>  <lowdin_charges>  (503) 
22
1   -0.140519
2   -0.20586
3   -0.061601
4   -0.19586
5   -0.02739
6   -0.024852
7   -0.118222
8   0.103461
9   0.084396
10   0.202254
11   -0.136759
12   -0.339091
13   -0.357757
14   -0.247296
15   -0.343527
16   0.170905
17   0.163826
18   0.192918
19   0.178643
20   0.366038
21   0.36765
22   0.368642

$$$$
PCCDB-ID:  2065
     RDKit          3D

 23 23  0  0  0  0  0  0  0  0999 V2000
   -0.9237    0.2206   -0.8125 C   0  0  0  0  0  0  0  0  0  0  0  0
   -0.0790    1.3144   -0.9675 C   0  0  0  0  0  0  0  0  0  0  0  0
   -1.5152   -1.9484    0.1304 C   0  0  0  0  0  0  0  0  0  0  0  0
    0.6672   -0.7850    0.7070 C   0  0  0  0  0  0  0  0  0  0  0  0
   -0.5081   -3.4082    1.8337 C   0  0  0  0  0  0  0  0  0  0  0  0
   -0.5727   -0.8523    0.0283 C   0  0  0  0  0  0  0  0  0  0  0  0
   -1.5172   -3.0903    0.8758 C   0  0  0  0  0  0  0  0  0  0  0  0
    1.1400    1.3725   -0.2911 C   0  0  0  0  0  0  0  0  0  0  0  0
    1.5131    0.3020    0.5580 C   0  0  0  0  0  0  0  0  0  0  0  0
   -2.6479   -4.0832    0.7651 C   0  0  0  0  0  0  0  0  0  0  0  0
    0.2617   -3.7203    2.6531 N   0  0  0  0  0  0  0  0  0  0  0  0
   -3.3997   -4.2774   -0.2418 N   0  0  0  0  0  0  0  0  0  0  0  0
    2.0112    2.4052   -0.3956 O   0  0  0  0  0  0  0  0  0  0  0  0
    2.7140    0.4160    1.1868 O   0  0  0  0  0  0  0  0  0  0  0  0
   -2.8801   -4.8366    1.8699 O   0  0  0  0  0  0  0  0  0  0  0  0
   -1.8684    0.1962   -1.3480 H   0  0  0  0  0  0  0  0  0  0  0  0
   -0.3641    2.1358   -1.6214 H   0  0  0  0  0  0  0  0  0  0  0  0
   -2.3947   -1.8254   -0.4991 H   0  0  0  0  0  0  0  0  0  0  0  0
    0.9800   -1.5926    1.3598 H   0  0  0  0  0  0  0  0  0  0  0  0
   -3.0955   -3.7186   -1.0384 H   0  0  0  0  0  0  0  0  0  0  0  0
    1.6447    3.0701   -1.0005 H   0  0  0  0  0  0  0  0  0  0  0  0
    2.8535   -0.3667    1.7435 H   0  0  0  0  0  0  0  0  0  0  0  0
   -2.2819   -4.5836    2.5918 H   0  0  0  0  0  0  0  0  0  0  0  0
  1  6  2  0
  2  1  1  0
  2  8  2  0
  3  7  2  0
  4 19  1  0
  5 11  3  0
  6  3  1  0
  6  4  1  0
  7  5  1  0
  8  9  1  0
  9  4  2  0
  9 14  1  0
 10  7  1  0
 10 15  1  0
 12 10  2  0
 13  8  1  0
 14 22  1  0
 15 23  1  0
 16  1  1  0
 17  2  1  0
 18  3  1  0
 20 12  1  0
 21 13  1  0
M  END
>  <HBA>  (504) 
5

>  <HBD>  (504) 
3

>  <TPSA>  (504) 
107.34

>  <cid>  (504) 
2065

>  <dipole>  (504) 
6.34

>  <excitation_energy_1>  (504) 
3.514

>  <excitation_energy_2>  (504) 
3.921

>  <excitation_energy_3>  (504) 
4.097

>  <excitation_energy_4>  (504) 
4.397

>  <homo_energy>  (504) 
-6.21

>  <homo_lumo_gap>  (504) 
3.701

>  <logP>  (504) 
1.19

>  <lumo_energy>  (504) 
-2.509

>  <melting_point>  (504) 
220.42

>  <molecular_refractivity>  (504) 
52.85

>  <oscillator_strength_1>  (504) 
0.4234

>  <oscillator_strength_2>  (504) 
0.1347

>  <oscillator_strength_3>  (504) 
0.0049

>  <oscillator_strength_4>  (504) 
0.0459

>  <open_babel_can_smiles>  (504) 
N#C/C(=C\c1ccc(c(c1)O)O)/C(=N)O

>  <mulliken_charges>  (504) 
23
1   -0.193011
2   -0.198555
3   -0.211732
4   -0.263149
5   0.24781
6   0.178865
7   0.07181
8   0.333473
9   0.333108
10   0.473348
11   -0.51689
12   -0.582998
13   -0.610434
14   -0.627372
15   -0.580742
16   0.145166
17   0.136428
18   0.155003
19   0.162814
20   0.288254
21   0.417057
22   0.420148
23   0.4216

>  <lowdin_charges>  (504) 
23
1   -0.147222
2   -0.205525
3   -0.089697
4   -0.199279
5   -0.023937
6   -0.023041
7   -0.099021
8   0.098969
9   0.085772
10   0.137817
11   -0.13108
12   -0.389951
13   -0.342879
14   -0.358306
15   -0.351724
16   0.165475
17   0.163446
18   0.17223
19   0.179843
20   0.259109
21   0.366776
22   0.367209
23   0.365016

$$$$
PCCDB-ID:  2068
     RDKit          3D

 30 31  0  0  1  0  0  0  0  0999 V2000
    0.9963    0.2707    0.0920 C   0  0  0  0  0  0  0  0  0  0  0  0
    2.9247   -0.6160    1.4750 C   0  0  0  0  0  0  0  0  0  0  0  0
    4.8352   -1.1020   -2.7880 C   0  0  0  0  0  0  0  0  0  0  0  0
    4.1727   -2.4489   -3.2268 C   0  0  0  0  0  0  0  0  0  0  0  0
    4.6802   -2.5126   -0.8809 C   0  0  0  0  0  0  0  0  0  0  0  0
    2.5031   -0.0347    0.1142 C   0  0  0  0  0  0  0  0  0  0  0  0
    4.4903   -1.0330   -1.2828 C   0  0  2  0  0  0  0  0  0  0  0  0
    3.6421   -3.0353   -1.8951 C   0  0  1  0  0  0  0  0  0  0  0  0
    2.9492   -0.8157   -1.1512 C   0  0  1  0  0  0  0  0  0  0  0  0
    2.3682   -2.2570   -1.4544 C   0  0  2  0  0  0  0  0  0  0  0  0
    1.6228   -2.8763   -0.3473 N   0  0  0  0  0  0  0  0  0  0  0  0
    0.7239    0.9394    0.9183 H   0  0  0  0  0  0  0  0  0  0  0  0
    0.4163   -0.6516    0.1851 H   0  0  0  0  0  0  0  0  0  0  0  0
    0.7074    0.7664   -0.8437 H   0  0  0  0  0  0  0  0  0  0  0  0
    2.7181    0.1131    2.2682 H   0  0  0  0  0  0  0  0  0  0  0  0
    3.9965   -0.8414    1.5137 H   0  0  0  0  0  0  0  0  0  0  0  0
    2.3673   -1.5245    1.7204 H   0  0  0  0  0  0  0  0  0  0  0  0
    4.4546   -0.2386   -3.3444 H   0  0  0  0  0  0  0  0  0  0  0  0
    5.9213   -1.1325   -2.9356 H   0  0  0  0  0  0  0  0  0  0  0  0
    4.9049   -3.1222   -3.6860 H   0  0  0  0  0  0  0  0  0  0  0  0
    3.3673   -2.3042   -3.9565 H   0  0  0  0  0  0  0  0  0  0  0  0
    4.4240   -2.7271    0.1623 H   0  0  0  0  0  0  0  0  0  0  0  0
    5.6961   -2.8820   -1.0656 H   0  0  0  0  0  0  0  0  0  0  0  0
    3.0268    0.9309    0.0248 H   0  0  0  0  0  0  0  0  0  0  0  0
    5.0848   -0.3000   -0.7281 H   0  0  0  0  0  0  0  0  0  0  0  0
    3.4832   -4.1192   -1.9217 H   0  0  0  0  0  0  0  0  0  0  0  0
    2.6323   -0.1718   -1.9829 H   0  0  0  0  0  0  0  0  0  0  0  0
    1.6559   -2.1940   -2.2857 H   0  0  0  0  0  0  0  0  0  0  0  0
    2.2649   -3.1751    0.3852 H   0  0  0  0  0  0  0  0  0  0  0  0
    1.1834   -3.7299   -0.6917 H   0  0  0  0  0  0  0  0  0  0  0  0
  1  6  1  0
  1 13  1  0
  1 12  1  0
  2 16  1  0
  2 17  1  0
  2 15  1  0
  3  7  1  0
  4  3  1  0
  4  8  1  0
  5 22  1  0
  6  2  1  0
  7  9  1  0
  7  5  1  0
  7 25  1  1
  8 26  1  6
  8 10  1  0
  8  5  1  0
  9 27  1  6
  9  6  1  0
 10 28  1  6
 10  9  1  0
 10 11  1  0
 11 29  1  0
 14  1  1  0
 18  3  1  0
 19  3  1  0
 20  4  1  0
 21  4  1  0
 23  5  1  0
 24  6  1  0
 30 11  1  0
M  END
>  <HBA>  (505) 
1

>  <HBD>  (505) 
1

>  <TPSA>  (505) 
26.02

>  <cid>  (505) 
2068

>  <dipole>  (505) 
1.44

>  <excitation_energy_1>  (505) 
5.427

>  <excitation_energy_2>  (505) 
5.98

>  <excitation_energy_3>  (505) 
6.033

>  <excitation_energy_4>  (505) 
6.158

>  <homo_energy>  (505) 
-6.106

>  <homo_lumo_gap>  (505) 
7.954

>  <logP>  (505) 
2.716

>  <lumo_energy>  (505) 
1.848

>  <melting_point>  (505) 
70.19

>  <molecular_refractivity>  (505) 
48.66

>  <oscillator_strength_1>  (505) 
0.0175

>  <oscillator_strength_2>  (505) 
0.0055

>  <oscillator_strength_3>  (505) 
0.007

>  <oscillator_strength_4>  (505) 
0.0069

>  <open_babel_can_smiles>  (505) 
CC([C@H]1[C@@H]2CC[C@H]([C@H]1N)C2)C

>  <mulliken_charges>  (505) 
30
1   -0.454221
2   -0.463306
3   -0.274278
4   -0.27461
5   -0.281724
6   -0.057777
7   -0.108992
8   -0.10906
9   -0.085425
10   0.014972
11   -0.71566
12   0.12778
13   0.178529
14   0.126053
15   0.137019
16   0.139491
17   0.149164
18   0.13252
19   0.131283
20   0.135017
21   0.131676
22   0.128375
23   0.131323
24   0.11502
25   0.113138
26   0.103002
27   0.117908
28   0.122934
29   0.295264
30   0.294588

>  <lowdin_charges>  (505) 
30
1   -0.453209
2   -0.453423
3   -0.283678
4   -0.288531
5   -0.288338
6   -0.114343
7   -0.138886
8   -0.150255
9   -0.140591
10   -0.077159
11   -0.544518
12   0.142878
13   0.163962
14   0.140852
15   0.148226
16   0.14337
17   0.150843
18   0.14247
19   0.139694
20   0.146763
21   0.142436
22   0.137747
23   0.142487
24   0.134201
25   0.14091
26   0.131744
27   0.14146
28   0.138552
29   0.249931
30   0.254405

$$$$
PCCDB-ID:  2072
     RDKit          3D

 20 21  0  0  0  0  0  0  0  0999 V2000
    2.4490   -0.6723   -0.0368 C   0  0  0  0  0  0  0  0  0  0  0  0
    1.2746   -1.3910    0.0127 C   0  0  0  0  0  0  0  0  0  0  0  0
    2.4339    0.7355   -0.0485 C   0  0  0  0  0  0  0  0  0  0  0  0
   -1.2690    1.3559   -0.0964 C   0  0  0  0  0  0  0  0  0  0  0  0
   -2.4047    0.5833   -0.0691 C   0  0  0  0  0  0  0  0  0  0  0  0
   -0.0015    0.7182   -0.0343 C   0  0  0  0  0  0  0  0  0  0  0  0
    0.0314   -0.7084    0.0269 C   0  0  0  0  0  0  0  0  0  0  0  0
    1.2392    1.4406   -0.0434 C   0  0  0  0  0  0  0  0  0  0  0  0
   -1.2436   -1.3750    0.0909 C   0  0  0  0  0  0  0  0  0  0  0  0
    1.2225    2.8354   -0.1050 N   0  0  0  0  0  0  0  0  0  0  0  0
   -2.4031   -0.7679    0.0417 N   0  0  0  0  0  0  0  0  0  0  0  0
   -1.3214   -2.7271    0.2073 O   0  0  0  0  0  0  0  0  0  0  0  0
    3.4034   -1.1909   -0.0543 H   0  0  0  0  0  0  0  0  0  0  0  0
    1.3243   -2.4771    0.0096 H   0  0  0  0  0  0  0  0  0  0  0  0
    3.3746    1.2814   -0.0624 H   0  0  0  0  0  0  0  0  0  0  0  0
   -1.3530    2.4313   -0.2097 H   0  0  0  0  0  0  0  0  0  0  0  0
   -3.3888    1.0426   -0.1339 H   0  0  0  0  0  0  0  0  0  0  0  0
    2.1159    3.2682    0.0966 H   0  0  0  0  0  0  0  0  0  0  0  0
    0.4796    3.2797    0.4203 H   0  0  0  0  0  0  0  0  0  0  0  0
   -0.4369   -3.0917    0.3571 H   0  0  0  0  0  0  0  0  0  0  0  0
  1  2  2  0
  2  7  1  0
  3  8  2  0
  3  1  1  0
  4  5  2  0
  4  6  1  0
  5 11  1  0
  6  7  2  0
  7  9  1  0
  8  6  1  0
  9 12  1  0
 10  8  1  0
 10 18  1  0
 10 19  1  0
 11  9  2  0
 12 20  1  0
 13  1  1  0
 14  2  1  0
 15  3  1  0
 16  4  1  0
 17  5  1  0
M  END
>  <HBA>  (506) 
2

>  <HBD>  (506) 
2

>  <TPSA>  (506) 
58.88

>  <cid>  (506) 
2072

>  <dipole>  (506) 
4.72

>  <excitation_energy_1>  (506) 
3.937

>  <excitation_energy_2>  (506) 
4.182

>  <excitation_energy_3>  (506) 
4.669

>  <excitation_energy_4>  (506) 
4.784

>  <homo_energy>  (506) 
-5.407

>  <homo_lumo_gap>  (506) 
4.427

>  <logP>  (506) 
1.692

>  <lumo_energy>  (506) 
-0.98

>  <melting_point>  (506) 
180.53

>  <molecular_refractivity>  (506) 
48.97

>  <oscillator_strength_1>  (506) 
0.1272

>  <oscillator_strength_2>  (506) 
0.1086

>  <oscillator_strength_3>  (506) 
0.0097

>  <oscillator_strength_4>  (506) 
0.001

>  <open_babel_can_smiles>  (506) 
Nc1cccc2c1ccnc2O

>  <mulliken_charges>  (506) 
20
1   -0.137222
2   -0.224441
3   -0.179577
4   -0.214543
5   0.024273
6   0.124828
7   0.081485
8   0.245265
9   0.424087
10   -0.786052
11   -0.462707
12   -0.596648
13   0.133144
14   0.114273
15   0.121342
16   0.12591
17   0.139418
18   0.323762
19   0.326585
20   0.41682

>  <lowdin_charges>  (506) 
20
1   -0.145949
2   -0.191641
3   -0.201162
4   -0.206112
5   -0.087877
6   -0.007535
7   -0.046551
8   0.061223
9   0.138496
10   -0.483626
11   -0.165665
12   -0.354
13   0.161039
14   0.147103
15   0.155663
16   0.158085
17   0.157003
18   0.277164
19   0.279714
20   0.354627

$$$$
PCCDB-ID:  2080
     RDKit          3D

 33 33  0  0  1  0  0  0  0  0999 V2000
    2.5148   -0.5972   -1.5227 C   0  0  0  0  0  0  0  0  0  0  0  0
    9.2075    1.5042    1.0665 C   0  0  0  0  0  0  0  0  0  0  0  0
    8.8986    0.6563    2.1310 C   0  0  0  0  0  0  0  0  0  0  0  0
    8.3373    1.5896   -0.0220 C   0  0  0  0  0  0  0  0  0  0  0  0
    7.7282   -0.1033    2.1059 C   0  0  0  0  0  0  0  0  0  0  0  0
    7.1668    0.8312   -0.0430 C   0  0  0  0  0  0  0  0  0  0  0  0
    5.5745   -0.8472    1.0012 C   0  0  0  0  0  0  0  0  0  0  0  0
    1.9816    0.1790   -0.3087 C   0  0  1  0  0  0  0  0  0  0  0  0
    6.8457   -0.0243    1.0193 C   0  0  0  0  0  0  0  0  0  0  0  0
    4.3227   -0.1511    1.6150 C   0  0  1  0  0  0  0  0  0  0  0  0
    3.0096    1.2339    0.1543 C   0  0  0  0  0  0  0  0  0  0  0  0
    4.6120    0.1586    3.1014 C   0  0  0  0  0  0  0  0  0  0  0  0
    0.6645    0.7168   -0.6367 N   0  0  0  0  0  0  0  0  0  0  0  0
    3.9965    1.0914    0.9432 N   0  0  0  0  0  0  0  0  0  0  0  0
    2.8337    2.4672   -0.3814 O   0  0  0  0  0  0  0  0  0  0  0  0
    4.7285   -0.7166    3.9285 O   0  0  0  0  0  0  0  0  0  0  0  0
    4.7499    1.4596    3.3856 O   0  0  0  0  0  0  0  0  0  0  0  0
    3.4401   -1.1253   -1.2808 H   0  0  0  0  0  0  0  0  0  0  0  0
    2.7255    0.0843   -2.3563 H   0  0  0  0  0  0  0  0  0  0  0  0
    1.7658   -1.3257   -1.8469 H   0  0  0  0  0  0  0  0  0  0  0  0
   10.1209    2.0930    1.0834 H   0  0  0  0  0  0  0  0  0  0  0  0
    9.5695    0.5822    2.9828 H   0  0  0  0  0  0  0  0  0  0  0  0
    8.5699    2.2461   -0.8565 H   0  0  0  0  0  0  0  0  0  0  0  0
    7.4901   -0.7576    2.9407 H   0  0  0  0  0  0  0  0  0  0  0  0
    6.4925    0.9046   -0.8925 H   0  0  0  0  0  0  0  0  0  0  0  0
    5.7182   -1.7728    1.5684 H   0  0  0  0  0  0  0  0  0  0  0  0
    5.3289   -1.1306   -0.0292 H   0  0  0  0  0  0  0  0  0  0  0  0
    1.8403   -0.5247    0.5179 H   0  0  0  0  0  0  0  0  0  0  0  0
    3.5117   -0.8920    1.6176 H   0  0  0  0  0  0  0  0  0  0  0  0
    0.5796    1.1125   -1.5676 H   0  0  0  0  0  0  0  0  0  0  0  0
    0.2582    1.3257    0.0659 H   0  0  0  0  0  0  0  0  0  0  0  0
    1.9725    2.4592   -0.8366 H   0  0  0  0  0  0  0  0  0  0  0  0
    4.6208    1.9354    2.5295 H   0  0  0  0  0  0  0  0  0  0  0  0
  1 18  1  0
  1  8  1  0
  2 21  1  0
  2  3  2  0
  3 22  1  0
  4  2  1  0
  5  3  1  0
  5 24  1  0
  6  4  2  0
  6  9  1  0
  7  9  1  0
  7 26  1  0
  7 10  1  0
  8 11  1  0
  8 28  1  1
  9  5  2  0
 10 29  1  1
 10 12  1  0
 11 14  2  0
 12 17  1  0
 12 16  2  0
 13  8  1  0
 13 31  1  0
 14 10  1  0
 15 11  1  0
 19  1  1  0
 20  1  1  0
 23  4  1  0
 25  6  1  0
 27  7  1  0
 30 13  1  0
 32 15  1  0
 33 17  1  0
M  END
>  <HBA>  (507) 
5

>  <HBD>  (507) 
3

>  <TPSA>  (507) 
92.42

>  <cid>  (507) 
2080

>  <dipole>  (507) 
6.99

>  <excitation_energy_1>  (507) 
5.22

>  <excitation_energy_2>  (507) 
5.303

>  <excitation_energy_3>  (507) 
5.347

>  <excitation_energy_4>  (507) 
5.49

>  <homo_energy>  (507) 
-6.381

>  <homo_lumo_gap>  (507) 
6.153

>  <logP>  (507) 
1.237

>  <lumo_energy>  (507) 
-0.229

>  <melting_point>  (507) 
183.81

>  <molecular_refractivity>  (507) 
62.92

>  <oscillator_strength_1>  (507) 
0.0073

>  <oscillator_strength_2>  (507) 
0.0049

>  <oscillator_strength_3>  (507) 
0.0013

>  <oscillator_strength_4>  (507) 
0.005

>  <open_babel_can_smiles>  (507) 
C[C@@H](/C(=N\[C@H](C(=O)O)Cc1ccccc1)/O)N

>  <mulliken_charges>  (507) 
33
1   -0.459047
2   -0.128945
3   -0.128477
4   -0.130664
5   -0.181475
6   -0.166271
7   -0.3659
8   -0.044718
9   0.161545
10   -0.080129
11   0.485444
12   0.615734
13   -0.740196
14   -0.476465
15   -0.571534
16   -0.479259
17   -0.57454
18   0.177421
19   0.151394
20   0.178775
21   0.126997
22   0.131453
23   0.125949
24   0.149843
25   0.119586
26   0.174973
27   0.148003
28   0.175636
29   0.149533
30   0.312526
31   0.323806
32   0.385352
33   0.433653

>  <lowdin_charges>  (507) 
33
1   -0.444438
2   -0.157765
3   -0.154338
4   -0.157965
5   -0.16313
6   -0.161411
7   -0.270539
8   -0.090719
9   -0.011147
10   -0.103348
11   0.120244
12   0.185018
13   -0.550319
14   -0.225508
15   -0.355739
16   -0.267851
17   -0.345432
18   0.165876
19   0.154069
20   0.16919
21   0.156495
22   0.159233
23   0.156547
24   0.166989
25   0.153927
26   0.168715
27   0.148019
28   0.163958
29   0.150675
30   0.26525
31   0.273032
32   0.340741
33   0.36167

$$$$
PCCDB-ID:  2083
     RDKit          3D

 38 38  0  0  1  0  0  0  0  0999 V2000
    3.8798    2.1737    0.0740 C   0  0  0  0  0  0  0  0  0  0  0  0
    4.1565   -0.0462    1.2036 C   0  0  0  0  0  0  0  0  0  0  0  0
    1.9798    0.5220    0.0543 C   0  0  0  0  0  0  0  0  0  0  0  0
    3.3256   -1.2418   -4.8181 C   0  0  0  0  0  0  0  0  0  0  0  0
    3.0076   -0.6014   -6.0158 C   0  0  0  0  0  0  0  0  0  0  0  0
    5.3138    0.0919   -4.6356 C   0  0  0  0  0  0  0  0  0  0  0  0
    3.8090   -1.2053   -1.6650 C   0  0  0  0  0  0  0  0  0  0  0  0
    5.9357    1.8147   -6.4088 C   0  0  0  0  0  0  0  0  0  0  0  0
    4.4808   -0.9005   -4.1063 C   0  0  0  0  0  0  0  0  0  0  0  0
    5.0244    0.7489   -5.8330 C   0  0  0  0  0  0  0  0  0  0  0  0
    3.8528    0.3890   -6.5156 C   0  0  0  0  0  0  0  0  0  0  0  0
    4.8124   -1.5895   -2.7809 C   0  0  1  0  0  0  0  0  0  0  0  0
    3.5149    0.6813    0.0095 C   0  0  0  0  0  0  0  0  0  0  0  0
    4.1028    0.1693   -1.2535 N   0  0  0  0  0  0  0  0  0  0  0  0
    5.2896    3.0681   -6.6061 O   0  0  0  0  0  0  0  0  0  0  0  0
    3.5908    1.0540   -7.6960 O   0  0  0  0  0  0  0  0  0  0  0  0
    6.1206   -1.2973   -2.3263 O   0  0  0  0  0  0  0  0  0  0  0  0
    3.5160    2.6240    1.0038 H   0  0  0  0  0  0  0  0  0  0  0  0
    3.4308    2.7263   -0.7614 H   0  0  0  0  0  0  0  0  0  0  0  0
    4.9657    2.3060    0.0243 H   0  0  0  0  0  0  0  0  0  0  0  0
    3.8046    0.3892    2.1453 H   0  0  0  0  0  0  0  0  0  0  0  0
    5.2472    0.0451    1.1662 H   0  0  0  0  0  0  0  0  0  0  0  0
    3.9036   -1.1116    1.2230 H   0  0  0  0  0  0  0  0  0  0  0  0
    1.5675    0.9588    0.9714 H   0  0  0  0  0  0  0  0  0  0  0  0
    1.6831   -0.5325    0.0285 H   0  0  0  0  0  0  0  0  0  0  0  0
    1.5091    1.0276   -0.7982 H   0  0  0  0  0  0  0  0  0  0  0  0
    2.6628   -2.0193   -4.4435 H   0  0  0  0  0  0  0  0  0  0  0  0
    2.1063   -0.8750   -6.5624 H   0  0  0  0  0  0  0  0  0  0  0  0
    6.2259    0.3378   -4.1004 H   0  0  0  0  0  0  0  0  0  0  0  0
    3.9841   -1.8685   -0.8127 H   0  0  0  0  0  0  0  0  0  0  0  0
    2.7751   -1.3647   -2.0093 H   0  0  0  0  0  0  0  0  0  0  0  0
    6.3756    1.4527   -7.3526 H   0  0  0  0  0  0  0  0  0  0  0  0
    6.7609    2.0022   -5.7157 H   0  0  0  0  0  0  0  0  0  0  0  0
    4.7564   -2.6760   -2.9306 H   0  0  0  0  0  0  0  0  0  0  0  0
    3.8365    0.7956   -2.0136 H   0  0  0  0  0  0  0  0  0  0  0  0
    4.5847    2.9033   -7.2536 H   0  0  0  0  0  0  0  0  0  0  0  0
    2.7620    0.7209   -8.0731 H   0  0  0  0  0  0  0  0  0  0  0  0
    5.9909   -0.5114   -1.7538 H   0  0  0  0  0  0  0  0  0  0  0  0
  1 18  1  0
  2 23  1  0
  2 21  1  0
  3 24  1  0
  4 27  1  0
  4  9  2  0
  5  4  1  0
  6  9  1  0
  6 29  1  0
  7 14  1  0
  7 30  1  0
  8 10  1  0
  8 33  1  0
  9 12  1  0
 10  6  2  0
 11  5  2  0
 11 10  1  0
 12 34  1  6
 12 17  1  0
 12  7  1  0
 13  3  1  0
 13  1  1  0
 13  2  1  0
 14 13  1  0
 15  8  1  0
 16 11  1  0
 17 38  1  0
 19  1  1  0
 20  1  1  0
 22  2  1  0
 25  3  1  0
 26  3  1  0
 28  5  1  0
 31  7  1  0
 32  8  1  0
 35 14  1  0
 36 15  1  0
 37 16  1  0
M  END
>  <HBA>  (508) 
4

>  <HBD>  (508) 
4

>  <TPSA>  (508) 
72.72

>  <cid>  (508) 
2083

>  <dipole>  (508) 
4.34

>  <excitation_energy_1>  (508) 
4.948

>  <excitation_energy_2>  (508) 
5.055

>  <excitation_energy_3>  (508) 
5.361

>  <excitation_energy_4>  (508) 
5.497

>  <homo_energy>  (508) 
-5.97

>  <homo_lumo_gap>  (508) 
5.821

>  <logP>  (508) 
1.697

>  <lumo_energy>  (508) 
-0.15

>  <melting_point>  (508) 
125.08

>  <molecular_refractivity>  (508) 
67.6

>  <oscillator_strength_1>  (508) 
0.0271

>  <oscillator_strength_2>  (508) 
0.0005

>  <oscillator_strength_3>  (508) 
0.0021

>  <oscillator_strength_4>  (508) 
0.0482

>  <open_babel_can_smiles>  (508) 
OCc1cc(ccc1O)[C@H](CNC(C)(C)C)O

>  <mulliken_charges>  (508) 
38
1   -0.451774
2   -0.440964
3   -0.446844
4   -0.194348
5   -0.186329
6   -0.260853
7   -0.151126
8   -0.107382
9   0.134609
10   0.136258
11   0.293484
12   0.072395
13   0.217738
14   -0.598934
15   -0.628154
16   -0.668242
17   -0.643579
18   0.144905
19   0.139873
20   0.154866
21   0.142333
22   0.152744
23   0.143787
24   0.14336
25   0.144709
26   0.137815
27   0.124074
28   0.117665
29   0.14096
30   0.153712
31   0.127978
32   0.135589
33   0.150026
34   0.138801
35   0.307077
36   0.408299
37   0.412853
38   0.402619

>  <lowdin_charges>  (508) 
38
1   -0.444639
2   -0.443298
3   -0.457294
4   -0.162323
5   -0.209813
6   -0.159963
7   -0.222393
8   -0.130267
9   -0.041746
10   -0.04656
11   0.093185
12   -0.003854
13   0.073049
14   -0.361954
15   -0.474894
16   -0.393953
17   -0.464757
18   0.152871
19   0.148478
20   0.154104
21   0.152086
22   0.153318
23   0.147281
24   0.152527
25   0.148462
26   0.148228
27   0.15573
28   0.153016
29   0.166929
30   0.151467
31   0.129162
32   0.137388
33   0.153065
34   0.145018
35   0.260719
36   0.343629
37   0.361092
38   0.336902

$$$$
PCCDB-ID:  2095
     RDKit          3D

 31 32  0  0  1  0  0  0  0  0999 V2000
    1.3371    1.3041   -0.7285 C   0  0  0  0  0  0  0  0  0  0  0  0
    1.9294   -0.9860    0.0125 C   0  0  0  0  0  0  0  0  0  0  0  0
    4.5674    4.9594    2.7119 C   0  0  0  0  0  0  0  0  0  0  0  0
    4.1776    3.5698    3.2381 C   0  0  2  0  0  0  0  0  0  0  0  0
    4.0851    1.1956    2.9044 C   0  0  1  0  0  0  0  0  0  0  0  0
    5.3182    2.8347    4.0689 C   0  0  1  0  0  0  0  0  0  0  0  0
    5.4725    1.3820    3.5008 C   0  0  1  0  0  0  0  0  0  0  0  0
    3.9403    2.5086    2.1751 C   0  0  1  0  0  0  0  0  0  0  0  0
    2.7846    0.9187    1.2173 C   0  0  0  0  0  0  0  0  0  0  0  0
    3.6281    0.2205    1.9135 N   0  0  0  0  0  0  0  0  0  0  0  0
    1.9047    0.4403    0.2974 N   0  0  0  0  0  0  0  0  0  0  0  0
    5.6519    4.9265    1.7996 O   0  0  0  0  0  0  0  0  0  0  0  0
    6.5321    3.5873    4.0214 O   0  0  0  0  0  0  0  0  0  0  0  0
    5.8543    0.5296    4.5700 O   0  0  0  0  0  0  0  0  0  0  0  0
    2.7096    2.2914    1.4452 O   0  0  0  0  0  0  0  0  0  0  0  0
    1.9186    1.2619   -1.6626 H   0  0  0  0  0  0  0  0  0  0  0  0
    1.3150    2.3332   -0.3742 H   0  0  0  0  0  0  0  0  0  0  0  0
    0.3136    0.9797   -0.9470 H   0  0  0  0  0  0  0  0  0  0  0  0
    2.6453   -1.2321   -0.7862 H   0  0  0  0  0  0  0  0  0  0  0  0
    0.9303   -1.3046   -0.3041 H   0  0  0  0  0  0  0  0  0  0  0  0
    2.2210   -1.5234    0.9149 H   0  0  0  0  0  0  0  0  0  0  0  0
    4.7795    5.6247    3.5626 H   0  0  0  0  0  0  0  0  0  0  0  0
    3.7161    5.3820    2.1668 H   0  0  0  0  0  0  0  0  0  0  0  0
    3.2949    3.6758    3.8808 H   0  0  0  0  0  0  0  0  0  0  0  0
    3.3911    1.1752    3.7655 H   0  0  0  0  0  0  0  0  0  0  0  0
    5.0014    2.7320    5.1150 H   0  0  0  0  0  0  0  0  0  0  0  0
    6.2390    1.3856    2.7103 H   0  0  0  0  0  0  0  0  0  0  0  0
    4.7354    2.6109    1.4232 H   0  0  0  0  0  0  0  0  0  0  0  0
    6.4099    4.6084    2.3216 H   0  0  0  0  0  0  0  0  0  0  0  0
    7.1915    3.1045    4.5447 H   0  0  0  0  0  0  0  0  0  0  0  0
    5.8815   -0.3759    4.2227 H   0  0  0  0  0  0  0  0  0  0  0  0
  1 17  1  0
  1 11  1  0
  2 11  1  0
  2 21  1  0
  3  4  1  0
  3 22  1  0
  4 24  1  1
  4  6  1  0
  5  7  1  0
  5 25  1  1
  6 26  1  1
  7 27  1  6
  7  6  1  0
  7 14  1  0
  8 28  1  6
  8  5  1  0
  8  4  1  0
  9 15  1  0
  9 10  2  0
 10  5  1  0
 11  9  1  0
 12 29  1  0
 12  3  1  0
 13  6  1  0
 13 30  1  0
 15  8  1  0
 16  1  1  0
 18  1  1  0
 19  2  1  0
 20  2  1  0
 23  3  1  0
 31 14  1  0
M  END
>  <HBA>  (509) 
6

>  <HBD>  (509) 
3

>  <TPSA>  (509) 
85.52

>  <cid>  (509) 
2095

>  <dipole>  (509) 
1.66

>  <excitation_energy_1>  (509) 
5.385

>  <excitation_energy_2>  (509) 
5.488

>  <excitation_energy_3>  (509) 
5.639

>  <excitation_energy_4>  (509) 
5.833

>  <homo_energy>  (509) 
-5.78

>  <homo_lumo_gap>  (509) 
7.042

>  <logP>  (509) 
-2.549

>  <lumo_energy>  (509) 
1.263

>  <melting_point>  (509) 
84.01

>  <molecular_refractivity>  (509) 
55.63

>  <oscillator_strength_1>  (509) 
0.0085

>  <oscillator_strength_2>  (509) 
0.017

>  <oscillator_strength_3>  (509) 
0.0107

>  <oscillator_strength_4>  (509) 
0.0218

>  <open_babel_can_smiles>  (509) 
OC[C@@H]1[C@H](O)[C@H]([C@H]2[C@H]1OC(=N2)N(C)C)O

>  <mulliken_charges>  (509) 
31
1   -0.319677
2   -0.307746
3   -0.03034
4   -0.167194
5   -0.015636
6   0.112443
7   0.110776
8   0.138401
9   0.768445
10   -0.544242
11   -0.479967
12   -0.637252
13   -0.650779
14   -0.651314
15   -0.542785
16   0.151412
17   0.197998
18   0.155426
19   0.151433
20   0.149764
21   0.19633
22   0.129667
23   0.147343
24   0.140947
25   0.132733
26   0.149251
27   0.126196
28   0.156569
29   0.414561
30   0.411761
31   0.405476

>  <lowdin_charges>  (509) 
31
1   -0.348524
2   -0.346664
3   -0.137329
4   -0.16266
5   -0.097706
6   -0.00481
7   -0.035825
8   -0.012871
9   0.173429
10   -0.305374
11   -0.102013
12   -0.478719
13   -0.461057
14   -0.4632
15   -0.233388
16   0.143578
17   0.177223
18   0.15161
19   0.145769
20   0.150585
21   0.180462
22   0.134564
23   0.151174
24   0.155878
25   0.137513
26   0.145347
27   0.135153
28   0.149987
29   0.34451
30   0.359756
31   0.353601

$$$$
PCCDB-ID:  2108
     RDKit          3D

 27 27  0  0  1  0  0  0  0  0999 V2000
    2.8204   -0.1169   -1.1519 C   0  0  0  0  0  0  0  0  0  0  0  0
    4.4930    3.8455    0.4334 C   0  0  0  0  0  0  0  0  0  0  0  0
    2.9808    3.6553    0.5892 C   0  0  2  0  0  0  0  0  0  0  0  0
    2.4347    3.8512    2.0218 C   0  0  2  0  0  0  0  0  0  0  0  0
    2.6156    2.5871    2.8906 C   0  0  2  0  0  0  0  0  0  0  0  0
    2.0791    1.3412    2.1529 C   0  0  2  0  0  0  0  0  0  0  0  0
    2.7215    1.2462    0.7635 C   0  0  1  0  0  0  0  0  0  0  0  0
    5.2163    3.0121    1.3341 O   0  0  0  0  0  0  0  0  0  0  0  0
    1.0206    4.1001    1.9625 O   0  0  0  0  0  0  0  0  0  0  0  0
    1.9828    2.7272    4.1447 O   0  0  0  0  0  0  0  0  0  0  0  0
    0.6599    1.3637    2.1167 O   0  0  0  0  0  0  0  0  0  0  0  0
    2.1544    0.1946    0.0635 O   0  0  0  0  0  0  0  0  0  0  0  0
    2.4842    2.4522    0.0124 O   0  0  0  0  0  0  0  0  0  0  0  0
    2.3371   -1.0116   -1.5512 H   0  0  0  0  0  0  0  0  0  0  0  0
    3.8864   -0.3315   -0.9775 H   0  0  0  0  0  0  0  0  0  0  0  0
    2.7361    0.6993   -1.8785 H   0  0  0  0  0  0  0  0  0  0  0  0
    4.7218    4.9084    0.6167 H   0  0  0  0  0  0  0  0  0  0  0  0
    4.7475    3.6185   -0.6122 H   0  0  0  0  0  0  0  0  0  0  0  0
    2.5408    4.4452   -0.0376 H   0  0  0  0  0  0  0  0  0  0  0  0
    2.9440    4.6959    2.5074 H   0  0  0  0  0  0  0  0  0  0  0  0
    3.6858    2.4679    3.0765 H   0  0  0  0  0  0  0  0  0  0  0  0
    2.3500    0.4459    2.7214 H   0  0  0  0  0  0  0  0  0  0  0  0
    3.8093    1.1071    0.8716 H   0  0  0  0  0  0  0  0  0  0  0  0
    6.1633    3.1329    1.1667 H   0  0  0  0  0  0  0  0  0  0  0  0
    0.8718    4.9149    1.4586 H   0  0  0  0  0  0  0  0  0  0  0  0
    1.0402    2.5564    3.9670 H   0  0  0  0  0  0  0  0  0  0  0  0
    0.4122    2.1679    1.6240 H   0  0  0  0  0  0  0  0  0  0  0  0
  1 15  1  0
  1 12  1  0
  2  3  1  0
  2 17  1  0
  2  8  1  0
  3 19  1  6
  3  4  1  0
  4 20  1  1
  4  5  1  0
  5 21  1  1
  5 10  1  0
  6 22  1  1
  6  5  1  0
  7 23  1  1
  7  6  1  0
  9  4  1  0
 11  6  1  0
 12  7  1  0
 13  3  1  0
 13  7  1  0
 14  1  1  0
 16  1  1  0
 18  2  1  0
 24  8  1  0
 25  9  1  0
 26 10  1  0
 27 11  1  0
M  END
>  <HBA>  (510) 
6

>  <HBD>  (510) 
4

>  <TPSA>  (510) 
99.38

>  <cid>  (510) 
2108

>  <dipole>  (510) 
6.11

>  <excitation_energy_1>  (510) 
5.642

>  <excitation_energy_2>  (510) 
5.994

>  <excitation_energy_3>  (510) 
6.045

>  <excitation_energy_4>  (510) 
6.294

>  <homo_energy>  (510) 
-6.523

>  <homo_lumo_gap>  (510) 
7.698

>  <logP>  (510) 
-2.567

>  <lumo_energy>  (510) 
1.176

>  <melting_point>  (510) 
51.92

>  <molecular_refractivity>  (510) 
40.47

>  <oscillator_strength_1>  (510) 
0.0007

>  <oscillator_strength_2>  (510) 
0.0024

>  <oscillator_strength_3>  (510) 
0.0008

>  <oscillator_strength_4>  (510) 
0.0125

>  <open_babel_can_smiles>  (510) 
CO[C@H]1O[C@H](CO)[C@H]([C@H]([C@H]1O)O)O

>  <mulliken_charges>  (510) 
27
1   -0.202049
2   -0.052477
3   0.100507
4   0.09597
5   0.106865
6   0.066315
7   0.357581
8   -0.609749
9   -0.641078
10   -0.635458
11   -0.6401
12   -0.460622
13   -0.51218
14   0.160632
15   0.126511
16   0.15365
17   0.125639
18   0.141563
19   0.126427
20   0.131151
21   0.16447
22   0.151118
23   0.124836
24   0.403288
25   0.398044
26   0.405085
27   0.414061

>  <lowdin_charges>  (510) 
27
1   -0.279162
2   -0.148952
3   -0.02942
4   -0.033657
5   -0.038268
6   -0.035888
7   0.07999
8   -0.464525
9   -0.460449
10   -0.449599
11   -0.456722
12   -0.231014
13   -0.282349
14   0.157517
15   0.129943
16   0.145534
17   0.131778
18   0.139889
19   0.148129
20   0.143888
21   0.160924
22   0.15864
23   0.126423
24   0.350514
25   0.346928
26   0.34483
27   0.345078

$$$$
PCCDB-ID:  2109
     RDKit          3D

 19 18  0  0  1  0  0  0  0  0999 V2000
    1.0248    0.4196   -0.2855 C   0  0  0  0  0  0  0  0  0  0  0  0
    3.0639   -1.0144   -0.8831 C   0  0  0  0  0  0  0  0  0  0  0  0
    2.4756   -1.2588   -2.2844 C   0  0  0  0  0  0  0  0  0  0  0  0
    3.2543    1.5173   -0.5305 C   0  0  0  0  0  0  0  0  0  0  0  0
    2.5395    0.2143   -0.0864 C   0  0  1  0  0  0  0  0  0  0  0  0
    2.8015    0.0843    1.3657 N   0  0  0  0  0  0  0  0  0  0  0  0
    1.9366   -2.3061   -2.5610 O   0  0  0  0  0  0  0  0  0  0  0  0
    2.6026   -0.2714   -3.1795 O   0  0  0  0  0  0  0  0  0  0  0  0
    3.5348    1.7681   -1.6913 O   0  0  0  0  0  0  0  0  0  0  0  0
    3.5135    2.3647    0.4559 O   0  0  0  0  0  0  0  0  0  0  0  0
    0.8026    0.6678   -1.3258 H   0  0  0  0  0  0  0  0  0  0  0  0
    0.6594    1.2308    0.3527 H   0  0  0  0  0  0  0  0  0  0  0  0
    0.4868   -0.5014   -0.0331 H   0  0  0  0  0  0  0  0  0  0  0  0
    4.1578   -0.9535   -0.9662 H   0  0  0  0  0  0  0  0  0  0  0  0
    2.8227   -1.9144   -0.3125 H   0  0  0  0  0  0  0  0  0  0  0  0
    3.6620   -0.4351    1.5375 H   0  0  0  0  0  0  0  0  0  0  0  0
    2.0484   -0.4225    1.8262 H   0  0  0  0  0  0  0  0  0  0  0  0
    3.0403    0.5168   -2.7667 H   0  0  0  0  0  0  0  0  0  0  0  0
    3.2467    1.8712    1.2795 H   0  0  0  0  0  0  0  0  0  0  0  0
  1  5  1  0
  1 13  1  0
  1 12  1  0
  2 15  1  0
  2  5  1  0
  3  2  1  0
  4 10  1  0
  5  4  1  6
  5  6  1  0
  6 16  1  0
  6 17  1  0
  7  3  2  0
  8 18  1  0
  8  3  1  0
  9  4  2  0
 10 19  1  0
 11  1  1  0
 14  2  1  0
M  END
>  <HBA>  (511) 
5

>  <HBD>  (511) 
3

>  <TPSA>  (511) 
100.62

>  <cid>  (511) 
2109

>  <dipole>  (511) 
6.23

>  <excitation_energy_1>  (511) 
5.467

>  <excitation_energy_2>  (511) 
5.521

>  <excitation_energy_3>  (511) 
5.992

>  <excitation_energy_4>  (511) 
6.142

>  <homo_energy>  (511) 
-7.015

>  <homo_lumo_gap>  (511) 
6.509

>  <logP>  (511) 
-0.037

>  <lumo_energy>  (511) 
-0.506

>  <melting_point>  (511) 
193.69

>  <molecular_refractivity>  (511) 
32.44

>  <oscillator_strength_1>  (511) 
0.003

>  <oscillator_strength_2>  (511) 
0.003

>  <oscillator_strength_3>  (511) 
0.0117

>  <oscillator_strength_4>  (511) 
0.0

>  <open_babel_can_smiles>  (511) 
OC(=O)C[C@](C(=O)O)(N)C

>  <mulliken_charges>  (511) 
19
1   -0.47494
2   -0.398792
3   0.585043
4   0.642779
5   0.08261
6   -0.781911
7   -0.452688
8   -0.589334
9   -0.494724
10   -0.561527
11   0.197441
12   0.168571
13   0.173967
14   0.174833
15   0.174761
16   0.330071
17   0.33188
18   0.45006
19   0.441899

>  <lowdin_charges>  (511) 
19
1   -0.447041
2   -0.3274
3   0.182239
4   0.189554
5   0.02294
6   -0.538739
7   -0.256268
8   -0.36338
9   -0.268791
10   -0.324081
11   0.178969
12   0.164743
13   0.166488
14   0.167483
15   0.173397
16   0.272571
17   0.278171
18   0.363143
19   0.366001

$$$$
PCCDB-ID:  2110
     RDKit          3D

 27 27  0  0  1  0  0  0  0  0999 V2000
    0.7619    0.3191   -0.3871 C   0  0  0  0  0  0  0  0  0  0  0  0
    3.1774    4.2363    2.0922 C   0  0  0  0  0  0  0  0  0  0  0  0
    3.4580    2.9774    1.5604 C   0  0  0  0  0  0  0  0  0  0  0  0
    1.9893    4.4659    2.7840 C   0  0  0  0  0  0  0  0  0  0  0  0
    1.3554    2.1533    2.4157 C   0  0  0  0  0  0  0  0  0  0  0  0
    2.8379    0.5606    1.1189 C   0  0  0  0  0  0  0  0  0  0  0  0
    2.5419    1.9220    1.7119 C   0  0  0  0  0  0  0  0  0  0  0  0
    1.0787    3.4161    2.9493 C   0  0  0  0  0  0  0  0  0  0  0  0
    2.8322   -1.0747   -0.7333 C   0  0  0  0  0  0  0  0  0  0  0  0
    2.2941    0.3269   -0.3297 C   0  0  1  0  0  0  0  0  0  0  0  0
    2.9085    1.3165   -1.2434 N   0  0  0  0  0  0  0  0  0  0  0  0
   -0.0994    3.5613    3.6257 O   0  0  0  0  0  0  0  0  0  0  0  0
    2.3346   -2.1072   -0.3467 O   0  0  0  0  0  0  0  0  0  0  0  0
    3.9302   -1.0308   -1.5030 O   0  0  0  0  0  0  0  0  0  0  0  0
    0.3591   -0.4994    0.2148 H   0  0  0  0  0  0  0  0  0  0  0  0
    0.4213    0.1661   -1.4187 H   0  0  0  0  0  0  0  0  0  0  0  0
    0.3533    1.2679   -0.0264 H   0  0  0  0  0  0  0  0  0  0  0  0
    3.8929    5.0458    1.9761 H   0  0  0  0  0  0  0  0  0  0  0  0
    4.4023    2.8023    1.0507 H   0  0  0  0  0  0  0  0  0  0  0  0
    1.7741    5.4473    3.2026 H   0  0  0  0  0  0  0  0  0  0  0  0
    0.6363    1.3556    2.5747 H   0  0  0  0  0  0  0  0  0  0  0  0
    2.4189   -0.2326    1.7453 H   0  0  0  0  0  0  0  0  0  0  0  0
    3.9236    0.4082    1.0933 H   0  0  0  0  0  0  0  0  0  0  0  0
    2.9704    2.2281   -0.7922 H   0  0  0  0  0  0  0  0  0  0  0  0
    2.3237    1.4385   -2.0695 H   0  0  0  0  0  0  0  0  0  0  0  0
   -0.1647    4.4699    3.9586 H   0  0  0  0  0  0  0  0  0  0  0  0
    4.0747   -0.0621   -1.6677 H   0  0  0  0  0  0  0  0  0  0  0  0
  1 10  1  0
  1 17  1  0
  1 15  1  0
  2  4  2  0
  3  7  2  0
  3  2  1  0
  4  8  1  0
  4 20  1  0
  5 21  1  0
  5  8  2  0
  6  7  1  0
  6 22  1  0
  7  5  1  0
  8 12  1  0
  9 13  2  0
 10  9  1  6
 10  6  1  0
 11 24  1  0
 11 10  1  0
 12 26  1  0
 14  9  1  0
 16  1  1  0
 18  2  1  0
 19  3  1  0
 23  6  1  0
 25 11  1  0
 27 14  1  0
M  END
>  <HBA>  (512) 
4

>  <HBD>  (512) 
3

>  <TPSA>  (512) 
83.55

>  <cid>  (512) 
2110

>  <dipole>  (512) 
6.82

>  <excitation_energy_1>  (512) 
4.96

>  <excitation_energy_2>  (512) 
5.347

>  <excitation_energy_3>  (512) 
5.35

>  <excitation_energy_4>  (512) 
5.675

>  <homo_energy>  (512) 
-6.359

>  <homo_lumo_gap>  (512) 
5.856

>  <logP>  (512) 
1.437

>  <lumo_energy>  (512) 
-0.503

>  <melting_point>  (512) 
188.56

>  <molecular_refractivity>  (512) 
52.37

>  <oscillator_strength_1>  (512) 
0.0405

>  <oscillator_strength_2>  (512) 
0.005

>  <oscillator_strength_3>  (512) 
0.0069

>  <oscillator_strength_4>  (512) 
0.0159

>  <open_babel_can_smiles>  (512) 
Oc1cccc(c1)C[C@](C(=O)O)(N)C

>  <mulliken_charges>  (512) 
27
1   -0.46506
2   -0.132236
3   -0.209716
4   -0.194623
5   -0.216664
6   -0.371027
7   0.160602
8   0.354515
9   0.620126
10   0.098
11   -0.792424
12   -0.638603
13   -0.476316
14   -0.588434
15   0.180495
16   0.144616
17   0.155409
18   0.137529
19   0.134401
20   0.123273
21   0.146625
22   0.181097
23   0.160831
24   0.327902
25   0.318995
26   0.409667
27   0.43102

>  <lowdin_charges>  (512) 
27
1   -0.454547
2   -0.142829
3   -0.202468
4   -0.214708
5   -0.196369
6   -0.274344
7   0.002576
8   0.107887
9   0.176054
10   0.025992
11   -0.549081
12   -0.373205
13   -0.26167
14   -0.357167
15   0.172694
16   0.151094
17   0.156777
18   0.162679
19   0.158552
20   0.155478
21   0.171075
22   0.173861
23   0.158685
24   0.271037
25   0.267262
26   0.358028
27   0.356658

$$$$
PCCDB-ID:  2111
     RDKit          3D

 23 22  0  0  1  0  0  0  0  0999 V2000
    0.7391   -0.1358    0.3103 C   0  0  0  0  0  0  0  0  0  0  0  0
    4.4401    2.7526   -2.8832 C   0  0  0  0  0  0  0  0  0  0  0  0
    2.8233    0.4028   -1.0130 C   0  0  0  0  0  0  0  0  0  0  0  0
    4.3465    0.5746   -1.0842 C   0  0  0  0  0  0  0  0  0  0  0  0
    2.6726    1.0532    1.4008 C   0  0  0  0  0  0  0  0  0  0  0  0
    2.2707   -0.0362    0.3680 C   0  0  1  0  0  0  0  0  0  0  0  0
    2.9176   -1.3065    0.7798 N   0  0  0  0  0  0  0  0  0  0  0  0
    2.1345    2.1353    1.4527 O   0  0  0  0  0  0  0  0  0  0  0  0
    3.6968    0.7051    2.1950 O   0  0  0  0  0  0  0  0  0  0  0  0
    4.9680    1.0064   -2.7564 S   0  0  0  0  0  0  0  0  0  0  0  0
    0.2986    0.8460    0.1215 H   0  0  0  0  0  0  0  0  0  0  0  0
    0.3367   -0.5032    1.2624 H   0  0  0  0  0  0  0  0  0  0  0  0
    0.4299   -0.8253   -0.4836 H   0  0  0  0  0  0  0  0  0  0  0  0
    4.8423    3.1319   -3.8262 H   0  0  0  0  0  0  0  0  0  0  0  0
    4.8514    3.3457   -2.0608 H   0  0  0  0  0  0  0  0  0  0  0  0
    3.3517    2.8546   -2.9025 H   0  0  0  0  0  0  0  0  0  0  0  0
    2.5061   -0.3351   -1.7620 H   0  0  0  0  0  0  0  0  0  0  0  0
    2.3331    1.3474   -1.2693 H   0  0  0  0  0  0  0  0  0  0  0  0
    4.8600   -0.3587   -0.8316 H   0  0  0  0  0  0  0  0  0  0  0  0
    4.6956    1.3321   -0.3742 H   0  0  0  0  0  0  0  0  0  0  0  0
    3.1023   -1.9001   -0.0266 H   0  0  0  0  0  0  0  0  0  0  0  0
    2.2985   -1.8335    1.3947 H   0  0  0  0  0  0  0  0  0  0  0  0
    3.9143   -0.2246    1.9276 H   0  0  0  0  0  0  0  0  0  0  0  0
  1  6  1  0
  1 12  1  0
  2 10  1  0
  2 15  1  0
  3  6  1  0
  4  3  1  0
  4 19  1  0
  4 20  1  0
  5  8  2  0
  5  9  1  0
  6  7  1  0
  6  5  1  1
  7 22  1  0
 10  4  1  0
 11  1  1  0
 13  1  1  0
 14  2  1  0
 16  2  1  0
 17  3  1  0
 18  3  1  0
 21  7  1  0
 23  9  1  0
M  END
>  <HBA>  (513) 
4

>  <HBD>  (513) 
2

>  <TPSA>  (513) 
88.62

>  <cid>  (513) 
2111

>  <dipole>  (513) 
3.97

>  <excitation_energy_1>  (513) 
5.063

>  <excitation_energy_2>  (513) 
5.272

>  <excitation_energy_3>  (513) 
5.527

>  <excitation_energy_4>  (513) 
5.564

>  <homo_energy>  (513) 
-6.082

>  <homo_lumo_gap>  (513) 
6.495

>  <logP>  (513) 
1.242

>  <lumo_energy>  (513) 
0.414

>  <melting_point>  (513) 
124.84

>  <molecular_refractivity>  (513) 
43.06

>  <oscillator_strength_1>  (513) 
0.0032

>  <oscillator_strength_2>  (513) 
0.0006

>  <oscillator_strength_3>  (513) 
0.006

>  <oscillator_strength_4>  (513) 
0.0113

>  <open_babel_can_smiles>  (513) 
C[C@](C(=O)O)(CCSC)N

>  <mulliken_charges>  (513) 
23
1   -0.458329
2   -0.585391
3   -0.272874
4   -0.438939
5   0.616783
6   0.098336
7   -0.785261
8   -0.475519
9   -0.588825
10   0.087964
11   0.186324
12   0.147293
13   0.144002
14   0.185732
15   0.185015
16   0.181362
17   0.150179
18   0.174013
19   0.175286
20   0.19297
21   0.322346
22   0.322686
23   0.434848

>  <lowdin_charges>  (513) 
23
1   -0.448528
2   -0.545886
3   -0.282411
4   -0.388042
5   0.171819
6   0.021325
7   -0.548505
8   -0.260408
9   -0.354384
10   0.098629
11   0.174442
12   0.152615
13   0.151463
14   0.177718
15   0.167175
16   0.160101
17   0.152419
18   0.165454
19   0.16655
20   0.168697
21   0.27123
22   0.270052
23   0.358473

$$$$
PCCDB-ID:  2112
     RDKit          3D

 30 30  0  0  1  0  0  0  0  0999 V2000
   -0.2951    2.3450   -0.8113 C   0  0  0  0  0  0  0  0  0  0  0  0
    1.6185   -0.1567   -3.7101 C   0  0  0  0  0  0  0  0  0  0  0  0
    2.6065    4.1555    1.5392 C   0  0  0  0  0  0  0  0  0  0  0  0
    0.5435    3.3059    2.4208 C   0  0  0  0  0  0  0  0  0  0  0  0
    2.4960    5.2824    2.3543 C   0  0  0  0  0  0  0  0  0  0  0  0
    0.4179    4.4237    3.2413 C   0  0  0  0  0  0  0  0  0  0  0  0
    1.7625    1.9266    0.6616 C   0  0  0  0  0  0  0  0  0  0  0  0
    1.6325    3.1467    1.5490 C   0  0  0  0  0  0  0  0  0  0  0  0
    1.3972    5.4213    3.2075 C   0  0  0  0  0  0  0  0  0  0  0  0
    1.5113    0.8152   -1.5614 C   0  0  0  0  0  0  0  0  0  0  0  0
    1.2361    2.1150   -0.7886 C   0  0  1  0  0  0  0  0  0  0  0  0
    1.9957    3.1958   -1.4386 N   0  0  0  0  0  0  0  0  0  0  0  0
    1.2297    6.5005    4.0330 O   0  0  0  0  0  0  0  0  0  0  0  0
    1.7454   -0.2657   -1.0683 O   0  0  0  0  0  0  0  0  0  0  0  0
    1.4060    1.0095   -2.8974 O   0  0  0  0  0  0  0  0  0  0  0  0
   -0.8401    1.5024   -0.3681 H   0  0  0  0  0  0  0  0  0  0  0  0
   -0.6461    2.4759   -1.8403 H   0  0  0  0  0  0  0  0  0  0  0  0
   -0.5433    3.2474   -0.2426 H   0  0  0  0  0  0  0  0  0  0  0  0
    1.4912    0.1768   -4.7404 H   0  0  0  0  0  0  0  0  0  0  0  0
    0.8904   -0.9338   -3.4634 H   0  0  0  0  0  0  0  0  0  0  0  0
    2.6260   -0.5515   -3.5556 H   0  0  0  0  0  0  0  0  0  0  0  0
    3.4673    4.0543    0.8837 H   0  0  0  0  0  0  0  0  0  0  0  0
   -0.2183    2.5312    2.4670 H   0  0  0  0  0  0  0  0  0  0  0  0
    3.2685    6.0496    2.3313 H   0  0  0  0  0  0  0  0  0  0  0  0
   -0.4246    4.5362    3.9165 H   0  0  0  0  0  0  0  0  0  0  0  0
    1.2316    1.0795    1.1063 H   0  0  0  0  0  0  0  0  0  0  0  0
    2.8141    1.6326    0.5881 H   0  0  0  0  0  0  0  0  0  0  0  0
    1.7531    4.0773   -0.9882 H   0  0  0  0  0  0  0  0  0  0  0  0
    1.7072    3.2691   -2.4123 H   0  0  0  0  0  0  0  0  0  0  0  0
    1.9837    7.1002    3.9220 H   0  0  0  0  0  0  0  0  0  0  0  0
  1 11  1  0
  1 16  1  0
  1 18  1  0
  2 21  1  0
  2 20  1  0
  2 15  1  0
  3  8  2  0
  3  5  1  0
  4 23  1  0
  4  6  2  0
  5  9  2  0
  6 25  1  0
  7 26  1  0
  7  8  1  0
  8  4  1  0
  9  6  1  0
  9 13  1  0
 10 14  2  0
 11 10  1  6
 11  7  1  0
 12 28  1  0
 12 11  1  0
 15 10  1  0
 17  1  1  0
 19  2  1  0
 22  3  1  0
 24  5  1  0
 27  7  1  0
 29 12  1  0
 30 13  1  0
M  END
>  <HBA>  (514) 
4

>  <HBD>  (514) 
2

>  <TPSA>  (514) 
72.55

>  <cid>  (514) 
2112

>  <dipole>  (514) 
2.62

>  <excitation_energy_1>  (514) 
4.935

>  <excitation_energy_2>  (514) 
5.13

>  <excitation_energy_3>  (514) 
5.416

>  <excitation_energy_4>  (514) 
5.516

>  <homo_energy>  (514) 
-5.856

>  <homo_lumo_gap>  (514) 
5.788

>  <logP>  (514) 
1.525

>  <lumo_energy>  (514) 
-0.068

>  <melting_point>  (514) 
123.18

>  <molecular_refractivity>  (514) 
56.69

>  <oscillator_strength_1>  (514) 
0.0265

>  <oscillator_strength_2>  (514) 
0.0005

>  <oscillator_strength_3>  (514) 
0.0008

>  <oscillator_strength_4>  (514) 
0.0004

>  <open_babel_can_smiles>  (514) 
COC(=O)[C@@](Cc1ccc(cc1)O)(N)C

>  <mulliken_charges>  (514) 
30
1   -0.467163
2   -0.21844
3   -0.197612
4   -0.191114
5   -0.195436
6   -0.159216
7   -0.331921
8   0.144518
9   0.349119
10   0.669002
11   0.085017
12   -0.730237
13   -0.643489
14   -0.486671
15   -0.472033
16   0.150517
17   0.151237
18   0.161003
19   0.163445
20   0.170892
21   0.174316
22   0.148003
23   0.12862
24   0.118584
25   0.139249
26   0.157079
27   0.160821
28   0.304684
29   0.310509
30   0.40672

>  <lowdin_charges>  (514) 
30
1   -0.461159
2   -0.276453
3   -0.157941
4   -0.156256
5   -0.216893
6   -0.187023
7   -0.270838
8   -0.028561
9   0.101218
10   0.201688
11   0.042046
12   -0.546755
13   -0.381129
14   -0.257876
15   -0.196026
16   0.154986
17   0.152938
18   0.159801
19   0.158874
20   0.160566
21   0.160956
22   0.165912
23   0.157799
24   0.153552
25   0.16748
26   0.161525
27   0.162793
28   0.258001
29   0.259019
30   0.357754

$$$$
PCCDB-ID:  2113
     RDKit          3D

 24 23  0  0  1  0  0  0  0  0999 V2000
    2.8772   -1.1655    0.7871 C   0  0  0  0  0  0  0  0  0  0  0  0
    2.6077    2.4578   -0.7343 C   0  0  0  0  0  0  0  0  0  0  0  0
    2.9952    1.2842    0.1775 C   0  0  0  0  0  0  0  0  0  0  0  0
    3.1271    3.8000   -0.2046 C   0  0  0  0  0  0  0  0  0  0  0  0
    2.6915   -0.4365   -1.6157 C   0  0  0  0  0  0  0  0  0  0  0  0
    2.3327   -0.0761   -0.1482 C   0  0  1  0  0  0  0  0  0  0  0  0
    2.4644    4.1523    1.0607 N   0  0  0  0  0  0  0  0  0  0  0  0
    0.8560    0.0624   -0.0677 N   0  0  0  0  0  0  0  0  0  0  0  0
    3.7903   -0.8189   -1.9486 O   0  0  0  0  0  0  0  0  0  0  0  0
    1.6894   -0.2415   -2.4873 O   0  0  0  0  0  0  0  0  0  0  0  0
    3.9439   -1.3214    0.6096 H   0  0  0  0  0  0  0  0  0  0  0  0
    2.3687   -2.1221    0.6129 H   0  0  0  0  0  0  0  0  0  0  0  0
    2.7269   -0.8792    1.8343 H   0  0  0  0  0  0  0  0  0  0  0  0
    1.5151    2.5208   -0.8380 H   0  0  0  0  0  0  0  0  0  0  0  0
    3.0020    2.2973   -1.7454 H   0  0  0  0  0  0  0  0  0  0  0  0
    2.7512    1.5450    1.2153 H   0  0  0  0  0  0  0  0  0  0  0  0
    4.0808    1.1388    0.1304 H   0  0  0  0  0  0  0  0  0  0  0  0
    3.0109    4.5655   -0.9913 H   0  0  0  0  0  0  0  0  0  0  0  0
    4.2030    3.7191   -0.0036 H   0  0  0  0  0  0  0  0  0  0  0  0
    1.5130    4.4649    0.8684 H   0  0  0  0  0  0  0  0  0  0  0  0
    2.9364    4.9457    1.4908 H   0  0  0  0  0  0  0  0  0  0  0  0
    0.5966    0.7584    0.6287 H   0  0  0  0  0  0  0  0  0  0  0  0
    0.4325   -0.8181    0.2217 H   0  0  0  0  0  0  0  0  0  0  0  0
    0.9273    0.0480   -1.9214 H   0  0  0  0  0  0  0  0  0  0  0  0
  1 13  1  0
  2  4  1  0
  2  3  1  0
  3 16  1  0
  4 19  1  0
  4  7  1  0
  6  5  1  6
  6  8  1  0
  6  3  1  0
  6  1  1  0
  7 21  1  0
  8 23  1  0
  8 22  1  0
  9  5  2  0
 10 24  1  0
 10  5  1  0
 11  1  1  0
 12  1  1  0
 14  2  1  0
 15  2  1  0
 17  3  1  0
 18  4  1  0
 20  7  1  0
M  END
>  <HBA>  (515) 
4

>  <HBD>  (515) 
3

>  <TPSA>  (515) 
89.34

>  <cid>  (515) 
2113

>  <dipole>  (515) 
5.37

>  <excitation_energy_1>  (515) 
5.528

>  <excitation_energy_2>  (515) 
5.678

>  <excitation_energy_3>  (515) 
5.978

>  <excitation_energy_4>  (515) 
6.136

>  <homo_energy>  (515) 
-6.539

>  <homo_lumo_gap>  (515) 
7.263

>  <logP>  (515) 
0.928

>  <lumo_energy>  (515) 
0.724

>  <melting_point>  (515) 
170.12

>  <molecular_refractivity>  (515) 
38.18

>  <oscillator_strength_1>  (515) 
0.003

>  <oscillator_strength_2>  (515) 
0.0133

>  <oscillator_strength_3>  (515) 
0.0118

>  <oscillator_strength_4>  (515) 
0.0023

>  <open_babel_can_smiles>  (515) 
C[C@](C(=O)O)(CCCN)N

>  <mulliken_charges>  (515) 
24
1   -0.459965
2   -0.272923
3   -0.275205
4   -0.146468
5   0.620413
6   0.099097
7   -0.718272
8   -0.788059
9   -0.480746
10   -0.593404
11   0.184237
12   0.142615
13   0.142574
14   0.130246
15   0.1592
16   0.161497
17   0.159776
18   0.122552
19   0.143304
20   0.292456
21   0.300935
22   0.322926
23   0.319212
24   0.434001

>  <lowdin_charges>  (515) 
24
1   -0.444992
2   -0.285487
3   -0.275331
4   -0.203312
5   0.172285
6   0.023761
7   -0.561882
8   -0.549275
9   -0.264928
10   -0.359205
11   0.172087
12   0.14962
13   0.148618
14   0.137027
15   0.155303
16   0.154147
17   0.157779
18   0.125344
19   0.141869
20   0.250426
21   0.258155
22   0.271834
23   0.266855
24   0.359303

$$$$
PCCDB-ID:  2130
     RDKit          3D

 28 30  0  0  1  0  0  0  0  0999 V2000
   -0.7771    1.0432    1.2244 C   0  0  0  0  0  0  0  0  0  0  0  0
   -0.9902    0.7474   -1.2677 C   0  0  0  0  0  0  0  0  0  0  0  0
    1.2584    1.2444   -0.2470 C   0  0  0  0  0  0  0  0  0  0  0  0
   -1.2442   -1.2377    0.2572 C   0  0  0  0  0  0  0  0  0  0  0  0
    0.9963   -0.7391    1.2766 C   0  0  0  0  0  0  0  0  0  0  0  0
    0.7813   -1.0370   -1.2082 C   0  0  0  0  0  0  0  0  0  0  0  0
   -1.5109    0.2745    0.1058 C   0  0  1  0  0  0  0  0  0  0  0  0
    0.7391    0.7755    1.1281 C   0  0  2  0  0  0  0  0  0  0  0  0
    0.5255    0.4763   -1.3669 C   0  0  1  0  0  0  0  0  0  0  0  0
    0.2681   -1.5316    0.1612 C   0  0  2  0  0  0  0  0  0  0  0  0
    0.4683   -2.9861    0.2402 N   0  0  0  0  0  0  0  0  0  0  0  0
   -1.1538    0.7288    2.2079 H   0  0  0  0  0  0  0  0  0  0  0  0
   -0.9769    2.1201    1.1370 H   0  0  0  0  0  0  0  0  0  0  0  0
   -1.1919    1.8195   -1.3996 H   0  0  0  0  0  0  0  0  0  0  0  0
   -1.5207    0.2211   -2.0731 H   0  0  0  0  0  0  0  0  0  0  0  0
    2.3418    1.0743   -0.3191 H   0  0  0  0  0  0  0  0  0  0  0  0
    1.0974    2.3252   -0.3626 H   0  0  0  0  0  0  0  0  0  0  0  0
   -1.7671   -1.8064   -0.5219 H   0  0  0  0  0  0  0  0  0  0  0  0
   -1.6272   -1.5937    1.2256 H   0  0  0  0  0  0  0  0  0  0  0  0
    0.6485   -1.0898    2.2599 H   0  0  0  0  0  0  0  0  0  0  0  0
    2.0755   -0.9480    1.2282 H   0  0  0  0  0  0  0  0  0  0  0  0
    1.8576   -1.2493   -1.2960 H   0  0  0  0  0  0  0  0  0  0  0  0
    0.2789   -1.6037   -2.0021 H   0  0  0  0  0  0  0  0  0  0  0  0
   -2.5903    0.4631    0.1760 H   0  0  0  0  0  0  0  0  0  0  0  0
    1.2624    1.3192    1.9261 H   0  0  0  0  0  0  0  0  0  0  0  0
    0.8966    0.8083   -2.3456 H   0  0  0  0  0  0  0  0  0  0  0  0
    0.1539   -3.3195    1.1530 H   0  0  0  0  0  0  0  0  0  0  0  0
    1.4683   -3.1907    0.2016 H   0  0  0  0  0  0  0  0  0  0  0  0
  1 12  1  0
  2  7  1  0
  3  8  1  0
  4 19  1  0
  5 20  1  0
  6 10  1  0
  7 24  1  6
  7  4  1  0
  7  1  1  0
  8  1  1  0
  8  5  1  0
  8 25  1  1
  9 26  1  6
  9  2  1  0
  9  6  1  0
  9  3  1  0
 10 11  1  1
 10  4  1  0
 10  5  1  0
 11 27  1  0
 13  1  1  0
 14  2  1  0
 15  2  1  0
 16  3  1  0
 17  3  1  0
 18  4  1  0
 21  5  1  0
 22  6  1  0
 23  6  1  0
 28 11  1  0
M  END
>  <HBA>  (516) 
1

>  <HBD>  (516) 
1

>  <TPSA>  (516) 
26.02

>  <cid>  (516) 
2130

>  <dipole>  (516) 
1.24

>  <excitation_energy_1>  (516) 
5.541

>  <excitation_energy_2>  (516) 
5.986

>  <excitation_energy_3>  (516) 
6.263

>  <excitation_energy_4>  (516) 
6.396

>  <homo_energy>  (516) 
-6.133

>  <homo_lumo_gap>  (516) 
7.984

>  <logP>  (516) 
2.614

>  <lumo_energy>  (516) 
1.85

>  <melting_point>  (516) 
103.79

>  <molecular_refractivity>  (516) 
46.59

>  <oscillator_strength_1>  (516) 
0.0188

>  <oscillator_strength_2>  (516) 
0.0106

>  <oscillator_strength_3>  (516) 
0.0017

>  <oscillator_strength_4>  (516) 
0.0212

>  <open_babel_can_smiles>  (516) 
N[C@]12C[C@H]3C[C@@H](C2)C[C@@H](C1)C3

>  <mulliken_charges>  (516) 
28
1   -0.264632
2   -0.264899
3   -0.264608
4   -0.262743
5   -0.272145
6   -0.262642
7   -0.09223
8   -0.089249
9   -0.092582
10   0.182213
11   -0.724666
12   0.123926
13   0.125029
14   0.123941
15   0.127782
16   0.124025
17   0.125032
18   0.140405
19   0.114969
20   0.115012
21   0.115056
22   0.114929
23   0.140348
24   0.115486
25   0.114012
26   0.115568
27   0.286339
28   0.286321

>  <lowdin_charges>  (516) 
28
1   -0.279155
2   -0.280598
3   -0.277214
4   -0.282444
5   -0.292755
6   -0.280464
7   -0.128945
8   -0.133257
9   -0.130773
10   0.049766
11   -0.540324
12   0.138357
13   0.137981
14   0.137576
15   0.142012
16   0.136827
17   0.13789
18   0.149579
19   0.135212
20   0.134331
21   0.132882
22   0.133525
23   0.149418
24   0.137383
25   0.139495
26   0.13908
27   0.247949
28   0.246666

$$$$
PCCDB-ID:  2141
     RDKit          3D

 27 26  0  0  0  0  0  0  0  0999 V2000
    3.8863    2.2563   -0.6088 C   0  0  0  0  0  0  0  0  0  0  0  0
    3.7743    3.6987   -1.1070 C   0  0  0  0  0  0  0  0  0  0  0  0
    5.1330    1.5382   -1.1274 C   0  0  0  0  0  0  0  0  0  0  0  0
    6.3541   -0.5730   -1.1040 C   0  0  0  0  0  0  0  0  0  0  0  0
    6.4142   -1.9733   -0.5009 C   0  0  0  0  0  0  0  0  0  0  0  0
    2.5752    4.3399   -0.5543 N   0  0  0  0  0  0  0  0  0  0  0  0
    5.2088    0.1746   -0.6047 N   0  0  0  0  0  0  0  0  0  0  0  0
    4.6157   -5.0235   -3.0399 O   0  0  0  0  0  0  0  0  0  0  0  0
    4.8608   -2.6694   -3.8396 O   0  0  0  0  0  0  0  0  0  0  0  0
    7.0112   -3.9338   -3.0081 O   0  0  0  0  0  0  0  0  0  0  0  0
    5.5550   -3.7169   -2.8167 P   0  0  0  0  0  0  0  0  0  0  0  0
    4.9625   -3.0533   -0.9250 S   0  0  0  0  0  0  0  0  0  0  0  0
    2.9914    1.6975   -0.9260 H   0  0  0  0  0  0  0  0  0  0  0  0
    3.8871    2.2509    0.4864 H   0  0  0  0  0  0  0  0  0  0  0  0
    3.8182    3.7064   -2.2127 H   0  0  0  0  0  0  0  0  0  0  0  0
    4.6445    4.2704   -0.7586 H   0  0  0  0  0  0  0  0  0  0  0  0
    6.0312    2.0766   -0.7929 H   0  0  0  0  0  0  0  0  0  0  0  0
    5.1486    1.5703   -2.2356 H   0  0  0  0  0  0  0  0  0  0  0  0
    6.3930   -0.6388   -2.2080 H   0  0  0  0  0  0  0  0  0  0  0  0
    7.2677   -0.0467   -0.7920 H   0  0  0  0  0  0  0  0  0  0  0  0
    6.3835   -1.9122    0.5905 H   0  0  0  0  0  0  0  0  0  0  0  0
    7.3172   -2.5053   -0.8082 H   0  0  0  0  0  0  0  0  0  0  0  0
    1.7441    3.8906   -0.9383 H   0  0  0  0  0  0  0  0  0  0  0  0
    2.5326    5.3112   -0.8593 H   0  0  0  0  0  0  0  0  0  0  0  0
    4.3597   -0.3260   -0.8688 H   0  0  0  0  0  0  0  0  0  0  0  0
    5.0406   -5.8160   -2.6689 H   0  0  0  0  0  0  0  0  0  0  0  0
    5.2230   -2.7902   -4.7361 H   0  0  0  0  0  0  0  0  0  0  0  0
  1 14  1  0
  2 16  1  0
  2  1  1  0
  2  6  1  0
  3 17  1  0
  3  1  1  0
  3  7  1  0
  4 20  1  0
  4  7  1  0
  4  5  1  0
  5 21  1  0
  8 11  1  0
  8 26  1  0
  9 11  1  0
 10 11  2  0
 11 12  1  0
 12  5  1  0
 13  1  1  0
 15  2  1  0
 18  3  1  0
 19  4  1  0
 22  5  1  0
 23  6  1  0
 24  6  1  0
 25  7  1  0
 27  9  1  0
M  END
>  <HBA>  (517) 
6

>  <HBD>  (517) 
4

>  <TPSA>  (517) 
130.69

>  <cid>  (517) 
2141

>  <dipole>  (517) 
2.14

>  <excitation_energy_1>  (517) 
4.996

>  <excitation_energy_2>  (517) 
5.342

>  <excitation_energy_3>  (517) 
5.554

>  <excitation_energy_4>  (517) 
5.589

>  <homo_energy>  (517) 
-6.003

>  <homo_lumo_gap>  (517) 
6.112

>  <logP>  (517) 
0.842

>  <lumo_energy>  (517) 
0.109

>  <melting_point>  (517) 
150.83

>  <molecular_refractivity>  (517) 
50.24

>  <oscillator_strength_1>  (517) 
0.0056

>  <oscillator_strength_2>  (517) 
0.0024

>  <oscillator_strength_3>  (517) 
0.0103

>  <oscillator_strength_4>  (517) 
0.0126

>  <open_babel_can_smiles>  (517) 
NCCCNCCSP(=O)(O)O

>  <mulliken_charges>  (517) 
27
1   -0.259836
2   -0.136328
3   -0.112002
4   -0.112122
5   -0.454184
6   -0.714184
7   -0.562856
8   -0.633512
9   -0.633499
10   -0.541083
11   0.968259
12   -0.079292
13   0.121762
14   0.16408
15   0.110439
16   0.139111
17   0.136013
18   0.109688
19   0.14057
20   0.151119
21   0.198131
22   0.215675
23   0.291324
24   0.294881
25   0.312964
26   0.442471
27   0.442413

>  <lowdin_charges>  (517) 
27
1   -0.280155
2   -0.201889
3   -0.196803
4   -0.202366
5   -0.366621
6   -0.556954
7   -0.36661
8   -0.564734
9   -0.558706
10   -0.587528
11   0.937039
12   -0.027392
13   0.135456
14   0.1558
15   0.112361
16   0.141776
17   0.13944
18   0.112494
19   0.127034
20   0.15101
21   0.176951
22   0.185016
23   0.25154
24   0.253017
25   0.259012
26   0.387435
27   0.384376

$$$$
PCCDB-ID:  2148
     RDKit          3D

 24 24  0  0  0  0  0  0  0  0999 V2000
   -0.7490   -0.2756    0.1614 C   0  0  0  0  0  0  0  0  0  0  0  0
    0.9213   -1.9807   -0.1774 C   0  0  0  0  0  0  0  0  0  0  0  0
   -1.7301   -1.2480    0.2628 C   0  0  0  0  0  0  0  0  0  0  0  0
   -0.0545   -2.9625   -0.0826 C   0  0  0  0  0  0  0  0  0  0  0  0
    3.9725    1.1358   -0.1581 C   0  0  0  0  0  0  0  0  0  0  0  0
    0.5965   -0.6203   -0.0483 C   0  0  0  0  0  0  0  0  0  0  0  0
   -1.4002   -2.6135    0.1465 C   0  0  0  0  0  0  0  0  0  0  0  0
    4.1167    2.1759    0.9720 C   0  0  0  0  0  0  0  0  0  0  0  0
    1.5892    0.4765   -0.1426 C   0  0  0  0  0  0  0  0  0  0  0  0
   -2.3685   -3.5908    0.2989 N   0  0  0  0  0  0  0  0  0  0  0  0
    2.9038    0.1608    0.0403 N   0  0  0  0  0  0  0  0  0  0  0  0
    5.1490    2.3191    1.5847 O   0  0  0  0  0  0  0  0  0  0  0  0
    3.0291    2.9220    1.2031 O   0  0  0  0  0  0  0  0  0  0  0  0
    1.2507    1.6500   -0.3831 O   0  0  0  0  0  0  0  0  0  0  0  0
   -1.0054    0.7754    0.2428 H   0  0  0  0  0  0  0  0  0  0  0  0
    1.9418   -2.2859   -0.3944 H   0  0  0  0  0  0  0  0  0  0  0  0
   -2.7644   -0.9611    0.4369 H   0  0  0  0  0  0  0  0  0  0  0  0
    0.2163   -4.0096   -0.1937 H   0  0  0  0  0  0  0  0  0  0  0  0
    4.9201    0.6027   -0.2377 H   0  0  0  0  0  0  0  0  0  0  0  0
    3.7814    1.6638   -1.0997 H   0  0  0  0  0  0  0  0  0  0  0  0
   -3.3273   -3.3066    0.1483 H   0  0  0  0  0  0  0  0  0  0  0  0
   -2.1601   -4.5023   -0.0859 H   0  0  0  0  0  0  0  0  0  0  0  0
    3.1427   -0.7219    0.4675 H   0  0  0  0  0  0  0  0  0  0  0  0
    2.2961    2.6436    0.5926 H   0  0  0  0  0  0  0  0  0  0  0  0
  1 15  1  0
  1  3  2  0
  2  4  1  0
  2  6  2  0
  3 17  1  0
  4  7  2  0
  5 11  1  0
  5  8  1  0
  6  1  1  0
  7  3  1  0
  7 10  1  0
  8 13  1  0
  8 12  2  0
  9  6  1  0
  9 11  1  0
 11 23  1  0
 14  9  2  0
 16  2  1  0
 18  4  1  0
 19  5  1  0
 20  5  1  0
 21 10  1  0
 22 10  1  0
 24 13  1  0
M  END
>  <HBA>  (518) 
5

>  <HBD>  (518) 
3

>  <TPSA>  (518) 
92.42

>  <cid>  (518) 
2148

>  <dipole>  (518) 
9.1

>  <excitation_energy_1>  (518) 
4.507

>  <excitation_energy_2>  (518) 
4.677

>  <excitation_energy_3>  (518) 
5.011

>  <excitation_energy_4>  (518) 
5.036

>  <homo_energy>  (518) 
-6.101

>  <homo_lumo_gap>  (518) 
4.928

>  <logP>  (518) 
1.055

>  <lumo_energy>  (518) 
-1.173

>  <melting_point>  (518) 
192.04

>  <molecular_refractivity>  (518) 
50.42

>  <oscillator_strength_1>  (518) 
0.4201

>  <oscillator_strength_2>  (518) 
0.0761

>  <oscillator_strength_3>  (518) 
0.0024

>  <oscillator_strength_4>  (518) 
0.0009

>  <open_babel_can_smiles>  (518) 
O=C(c1ccc(cc1)N)NCC(=O)O

>  <mulliken_charges>  (518) 
24
1   -0.160264
2   -0.188267
3   -0.179878
4   -0.178203
5   -0.251284
6   0.078129
7   0.340197
8   0.591224
9   0.565106
10   -0.791172
11   -0.602866
12   -0.451143
13   -0.58516
14   -0.57118
15   0.167226
16   0.129813
17   0.131396
18   0.127671
19   0.18072
20   0.195946
21   0.332483
22   0.331023
23   0.341656
24   0.446825

>  <lowdin_charges>  (518) 
24
1   -0.11364
2   -0.141958
3   -0.194356
4   -0.197529
5   -0.236391
6   -0.07316
7   0.077546
8   0.177858
9   0.174335
10   -0.467345
11   -0.265281
12   -0.254643
13   -0.362996
14   -0.34437
15   0.178162
16   0.156224
17   0.158264
18   0.15654
19   0.174966
20   0.177201
21   0.282703
22   0.282504
23   0.29063
24   0.364737

$$$$
PCCDB-ID:  2149
     RDKit          3D

 17 16  0  0  1  0  0  0  0  0999 V2000
    1.3795   -0.1794   -0.5757 C   0  0  0  0  0  0  0  0  0  0  0  0
    1.2534    1.3372   -2.6402 C   0  0  0  0  0  0  0  0  0  0  0  0
    0.8731    1.1522   -1.1602 C   0  0  1  0  0  0  0  0  0  0  0  0
    1.0039   -0.4338    0.8900 C   0  0  0  0  0  0  0  0  0  0  0  0
    0.4020    0.4524   -3.4534 N   0  0  0  0  0  0  0  0  0  0  0  0
   -0.5550    1.2391   -1.0643 O   0  0  0  0  0  0  0  0  0  0  0  0
    1.7574   -0.9674    1.6697 O   0  0  0  0  0  0  0  0  0  0  0  0
   -0.2391   -0.0616    1.2459 O   0  0  0  0  0  0  0  0  0  0  0  0
    2.4696   -0.2424   -0.6413 H   0  0  0  0  0  0  0  0  0  0  0  0
    0.9647   -1.0106   -1.1650 H   0  0  0  0  0  0  0  0  0  0  0  0
    2.3324    1.1795   -2.7826 H   0  0  0  0  0  0  0  0  0  0  0  0
    1.0262    2.3699   -2.9228 H   0  0  0  0  0  0  0  0  0  0  0  0
    1.2766    1.9855   -0.5744 H   0  0  0  0  0  0  0  0  0  0  0  0
    0.8223   -0.4672   -3.5642 H   0  0  0  0  0  0  0  0  0  0  0  0
    0.2680    0.8305   -4.3868 H   0  0  0  0  0  0  0  0  0  0  0  0
   -0.8636    0.7944   -1.8864 H   0  0  0  0  0  0  0  0  0  0  0  0
   -0.6657    0.3976    0.4817 H   0  0  0  0  0  0  0  0  0  0  0  0
  1  4  1  0
  2  3  1  0
  3  6  1  0
  3  1  1  0
  3 13  1  1
  4  8  1  0
  4  7  2  0
  5  2  1  0
  9  1  1  0
 10  1  1  0
 11  2  1  0
 12  2  1  0
 14  5  1  0
 15  5  1  0
 16  6  1  0
 17  8  1  0
M  END
>  <HBA>  (519) 
4

>  <HBD>  (519) 
3

>  <TPSA>  (519) 
83.55

>  <cid>  (519) 
2149

>  <dipole>  (519) 
7.32

>  <excitation_energy_1>  (519) 
5.596

>  <excitation_energy_2>  (519) 
6.101

>  <excitation_energy_3>  (519) 
6.326

>  <excitation_energy_4>  (519) 
6.743

>  <homo_energy>  (519) 
-6.808

>  <homo_lumo_gap>  (519) 
7.434

>  <logP>  (519) 
-0.519

>  <lumo_energy>  (519) 
0.626

>  <melting_point>  (519) 
124.79

>  <molecular_refractivity>  (519) 
26.98

>  <oscillator_strength_1>  (519) 
0.001

>  <oscillator_strength_2>  (519) 
0.0023

>  <oscillator_strength_3>  (519) 
0.0312

>  <oscillator_strength_4>  (519) 
0.0077

>  <open_babel_can_smiles>  (519) 
NC[C@H](CC(=O)O)O

>  <mulliken_charges>  (519) 
17
1   -0.395134
2   -0.170463
3   0.127281
4   0.590887
5   -0.756298
6   -0.656018
7   -0.458387
8   -0.58879
9   0.170767
10   0.162138
11   0.145523
12   0.164562
13   0.158276
14   0.319894
15   0.324839
16   0.422499
17   0.438425

>  <lowdin_charges>  (519) 
17
1   -0.337378
2   -0.21813
3   -0.013723
4   0.189557
5   -0.552855
6   -0.469618
7   -0.259495
8   -0.370668
9   0.169727
10   0.16432
11   0.139585
12   0.157051
13   0.154974
14   0.265897
15   0.271338
16   0.348985
17   0.360433

$$$$
PCCDB-ID:  2151
     RDKit          3D

 28 29  0  0  0  0  0  0  0  0999 V2000
    1.2022    0.6457    0.1707 C   0  0  0  0  0  0  0  0  0  0  0  0
    3.5033    2.2112   -1.0304 C   0  0  0  0  0  0  0  0  0  0  0  0
    8.5056    2.4630    0.8365 C   0  0  0  0  0  0  0  0  0  0  0  0
    8.4980    1.2644    0.1194 C   0  0  0  0  0  0  0  0  0  0  0  0
    7.2972    3.0045    1.2763 C   0  0  0  0  0  0  0  0  0  0  0  0
    7.3008    0.6164   -0.1776 C   0  0  0  0  0  0  0  0  0  0  0  0
    6.0910    2.3594    1.0052 C   0  0  0  0  0  0  0  0  0  0  0  0
    2.6393    0.2358    0.1257 C   0  0  0  0  0  0  0  0  0  0  0  0
    6.0901    1.1673    0.2673 C   0  0  0  0  0  0  0  0  0  0  0  0
    3.1893   -1.0027    0.1396 C   0  0  0  0  0  0  0  0  0  0  0  0
    4.6433   -0.8632    0.0597 C   0  0  0  0  0  0  0  0  0  0  0  0
    2.6284   -2.2761    0.2114 N   0  0  0  0  0  0  0  0  0  0  0  0
    3.6531    1.2301    0.0612 N   0  0  0  0  0  0  0  0  0  0  0  0
    4.8735    0.5134   -0.0478 N   0  0  0  0  0  0  0  0  0  0  0  0
    5.4895   -1.7501    0.1333 O   0  0  0  0  0  0  0  0  0  0  0  0
    0.5809   -0.1877    0.5128 H   0  0  0  0  0  0  0  0  0  0  0  0
    0.8225    0.9477   -0.8146 H   0  0  0  0  0  0  0  0  0  0  0  0
    1.0492    1.4849    0.8593 H   0  0  0  0  0  0  0  0  0  0  0  0
    3.5024    1.7276   -2.0175 H   0  0  0  0  0  0  0  0  0  0  0  0
    4.3249    2.9275   -0.9772 H   0  0  0  0  0  0  0  0  0  0  0  0
    2.5634    2.7472   -0.8826 H   0  0  0  0  0  0  0  0  0  0  0  0
    9.4435    2.9663    1.0534 H   0  0  0  0  0  0  0  0  0  0  0  0
    9.4332    0.8295   -0.2231 H   0  0  0  0  0  0  0  0  0  0  0  0
    7.2886    3.9303    1.8458 H   0  0  0  0  0  0  0  0  0  0  0  0
    7.2931   -0.3152   -0.7285 H   0  0  0  0  0  0  0  0  0  0  0  0
    5.1519    2.7567    1.3742 H   0  0  0  0  0  0  0  0  0  0  0  0
    1.8190   -2.3521    0.8172 H   0  0  0  0  0  0  0  0  0  0  0  0
    3.3406   -2.9559    0.4673 H   0  0  0  0  0  0  0  0  0  0  0  0
  1 16  1  0
  1 18  1  0
  2 20  1  0
  2 21  1  0
  2 13  1  0
  3 22  1  0
  3  5  2  0
  4  3  1  0
  5 24  1  0
  6  4  2  0
  6  9  1  0
  7  5  1  0
  7 26  1  0
  8 10  2  0
  8  1  1  0
  9  7  2  0
 10 12  1  0
 11 15  2  0
 11 10  1  0
 12 28  1  0
 12 27  1  0
 13  8  1  0
 14 11  1  0
 14 13  1  0
 14  9  1  0
 17  1  1  0
 19  2  1  0
 23  4  1  0
 25  6  1  0
M  END
>  <HBA>  (520) 
4

>  <HBD>  (520) 
1

>  <TPSA>  (520) 
52.95

>  <cid>  (520) 
2151

>  <dipole>  (520) 
3.99

>  <excitation_energy_1>  (520) 
4.241

>  <excitation_energy_2>  (520) 
4.478

>  <excitation_energy_3>  (520) 
4.585

>  <excitation_energy_4>  (520) 
4.685

>  <homo_energy>  (520) 
-5.238

>  <homo_lumo_gap>  (520) 
4.751

>  <logP>  (520) 
1.648

>  <lumo_energy>  (520) 
-0.487

>  <melting_point>  (520) 
131.33

>  <molecular_refractivity>  (520) 
60.66

>  <oscillator_strength_1>  (520) 
0.0802

>  <oscillator_strength_2>  (520) 
0.0067

>  <oscillator_strength_3>  (520) 
0.0029

>  <oscillator_strength_4>  (520) 
0.2412

>  <open_babel_can_smiles>  (520) 
Nc1c(C)n(n(c1=O)c1ccccc1)C

>  <mulliken_charges>  (520) 
28
1   -0.526883
2   -0.311472
3   -0.123792
4   -0.146024
5   -0.142632
6   -0.148114
7   -0.163058
8   0.317124
9   0.292652
10   0.126633
11   0.596894
12   -0.81231
13   -0.348986
14   -0.434862
15   -0.548456
16   0.162957
17   0.173708
18   0.171868
19   0.159954
20   0.178135
21   0.165867
22   0.127338
23   0.133637
24   0.129466
25   0.169348
26   0.14771
27   0.315233
28   0.338067

>  <lowdin_charges>  (520) 
28
1   -0.442494
2   -0.357184
3   -0.167885
4   -0.149788
5   -0.151738
6   -0.162707
7   -0.186297
8   -0.005318
9   0.048971
10   -0.033191
11   0.138042
12   -0.488588
13   -0.060389
14   -0.023513
15   -0.319495
16   0.167205
17   0.165226
18   0.16675
19   0.147291
20   0.167534
21   0.16177
22   0.157727
23   0.160321
24   0.157542
25   0.180816
26   0.167851
27   0.274014
28   0.287527

$$$$
PCCDB-ID:  2155
     RDKit          3D

 10 10  0  0  0  0  0  0  0  0999 V2000
   -1.1541   -0.0426   -0.0777 C   0  0  0  0  0  0  0  0  0  0  0  0
   -0.5043   -1.2149   -0.0004 C   0  0  0  0  0  0  0  0  0  0  0  0
    1.0572    0.8079   -0.0281 C   0  0  0  0  0  0  0  0  0  0  0  0
    2.0602    1.5955   -0.0225 N   0  0  0  0  0  0  0  0  0  0  0  0
   -0.3113    1.0653   -0.0940 N   0  0  0  0  0  0  0  0  0  0  0  0
    1.2467   -0.9792    0.0582 S   0  0  0  0  0  0  0  0  0  0  0  0
   -2.2240    0.1130   -0.1265 H   0  0  0  0  0  0  0  0  0  0  0  0
   -0.9364   -2.2040    0.0267 H   0  0  0  0  0  0  0  0  0  0  0  0
    1.7745    2.5761   -0.0772 H   0  0  0  0  0  0  0  0  0  0  0  0
   -0.6522    2.0144   -0.1475 H   0  0  0  0  0  0  0  0  0  0  0  0
  1  2  2  0
  2  8  1  0
  2  6  1  0
  3  4  2  0
  3  6  1  0
  5  1  1  0
  5  3  1  0
  7  1  1  0
  9  4  1  0
 10  5  1  0
M  END
>  <HBA>  (521) 
3

>  <HBD>  (521) 
1

>  <TPSA>  (521) 
67.15

>  <cid>  (521) 
2155

>  <dipole>  (521) 
4.51

>  <excitation_energy_1>  (521) 
4.27

>  <excitation_energy_2>  (521) 
4.561

>  <excitation_energy_3>  (521) 
4.97

>  <excitation_energy_4>  (521) 
5.079

>  <homo_energy>  (521) 
-5.298

>  <homo_lumo_gap>  (521) 
5.638

>  <logP>  (521) 
1.306

>  <lumo_energy>  (521) 
0.34

>  <melting_point>  (521) 
67.21

>  <molecular_refractivity>  (521) 
26.52

>  <oscillator_strength_1>  (521) 
0.0007

>  <oscillator_strength_2>  (521) 
0.0002

>  <oscillator_strength_3>  (521) 
0.1024

>  <oscillator_strength_4>  (521) 
0.0014

>  <open_babel_can_smiles>  (521) 
N=c1scc[nH]1

>  <mulliken_charges>  (521) 
10
1   0.110548
2   -0.377238
3   0.301358
4   -0.62921
5   -0.591379
6   0.234349
7   0.167157
8   0.178628
9   0.273482
10   0.332306

>  <lowdin_charges>  (521) 
10
1   -0.116579
2   -0.340257
3   -0.012373
4   -0.44419
5   -0.245797
6   0.253807
7   0.173122
8   0.188532
9   0.252171
10   0.291563

$$$$
PCCDB-ID:  2172
     RDKit          3D

 23 24  0  0  1  0  0  0  0  0999 V2000
    0.7155   -0.0144    0.1742 C   0  0  0  0  0  0  0  0  0  0  0  0
    0.0482   -1.3497    0.4053 C   0  0  0  0  0  0  0  0  0  0  0  0
    4.6611    2.0128   -1.5607 C   0  0  0  0  0  0  0  0  0  0  0  0
    1.9185    0.1790   -0.3637 C   0  0  0  0  0  0  0  0  0  0  0  0
    5.0883    0.5463   -1.4327 C   0  0  0  0  0  0  0  0  0  0  0  0
    3.2378    1.4316   -1.6884 C   0  0  1  0  0  0  0  0  0  0  0  0
    2.9176   -0.8369   -0.9588 C   0  0  2  0  0  0  0  0  0  0  0  0
    3.5554   -1.7922    0.0915 C   0  0  0  0  0  0  0  0  0  0  0  0
    3.8046    0.0718   -1.7068 N   0  0  0  0  0  0  0  0  0  0  0  0
    0.1530   -1.7926    1.7470 O   0  0  0  0  0  0  0  0  0  0  0  0
    6.1124   -0.0525   -1.1678 O   0  0  0  0  0  0  0  0  0  0  0  0
    2.8391   -2.3356    0.9034 O   0  0  0  0  0  0  0  0  0  0  0  0
    4.8460   -2.0922    0.0147 O   0  0  0  0  0  0  0  0  0  0  0  0
    2.4479    1.4639   -0.5158 O   0  0  0  0  0  0  0  0  0  0  0  0
    0.1877    0.8707    0.5217 H   0  0  0  0  0  0  0  0  0  0  0  0
    0.4424   -2.1013   -0.2943 H   0  0  0  0  0  0  0  0  0  0  0  0
   -1.0231   -1.2454    0.2024 H   0  0  0  0  0  0  0  0  0  0  0  0
    5.0510    2.5558   -2.4247 H   0  0  0  0  0  0  0  0  0  0  0  0
    4.8208    2.5855   -0.6442 H   0  0  0  0  0  0  0  0  0  0  0  0
    2.6432    1.6931   -2.5700 H   0  0  0  0  0  0  0  0  0  0  0  0
    2.4019   -1.5071   -1.6576 H   0  0  0  0  0  0  0  0  0  0  0  0
    1.0894   -2.0367    1.8550 H   0  0  0  0  0  0  0  0  0  0  0  0
    5.3849   -1.4924   -0.5625 H   0  0  0  0  0  0  0  0  0  0  0  0
  1  2  1  0
  1 15  1  0
  2 10  1  0
  3  5  1  0
  3 19  1  0
  4  1  2  0
  5 11  2  0
  6 20  1  6
  6  3  1  0
  6 14  1  0
  7 21  1  6
  7  4  1  0
  7  8  1  0
  8 12  2  0
  9  6  1  0
  9  5  1  0
  9  7  1  0
 10 22  1  0
 13  8  1  0
 14  4  1  0
 16  2  1  0
 17  2  1  0
 18  3  1  0
 23 13  1  0
M  END
>  <HBA>  (522) 
6

>  <HBD>  (522) 
2

>  <TPSA>  (522) 
87.07

>  <cid>  (522) 
2172

>  <dipole>  (522) 
6.27

>  <excitation_energy_1>  (522) 
4.758

>  <excitation_energy_2>  (522) 
5.169

>  <excitation_energy_3>  (522) 
5.52

>  <excitation_energy_4>  (522) 
5.569

>  <homo_energy>  (522) 
-6.602

>  <homo_lumo_gap>  (522) 
5.51

>  <logP>  (522) 
-1.158

>  <lumo_energy>  (522) 
-1.091

>  <melting_point>  (522) 
141.33

>  <molecular_refractivity>  (522) 
46.9

>  <oscillator_strength_1>  (522) 
0.0031

>  <oscillator_strength_2>  (522) 
0.0054

>  <oscillator_strength_3>  (522) 
0.0037

>  <oscillator_strength_4>  (522) 
0.0045

>  <open_babel_can_smiles>  (522) 
OC(=O)[C@@H]1N2[C@@H](O/C/1=C/CO)CC2=O

>  <mulliken_charges>  (522) 
23
1   -0.207582
2   -0.057425
3   -0.405399
4   0.358582
5   0.587642
6   0.27137
7   -0.148219
8   0.614659
9   -0.46094
10   -0.629859
11   -0.488943
12   -0.454001
13   -0.575026
14   -0.496036
15   0.155693
16   0.119207
17   0.145242
18   0.196742
19   0.215121
20   0.165229
21   0.217909
22   0.423415
23   0.452619

>  <lowdin_charges>  (522) 
23
1   -0.200094
2   -0.128801
3   -0.310618
4   0.069446
5   0.175419
6   0.065777
7   -0.108997
8   0.200713
9   -0.137391
10   -0.468755
11   -0.252428
12   -0.2504
13   -0.336762
14   -0.209137
15   0.174738
16   0.130103
17   0.149023
18   0.184975
19   0.195236
20   0.15121
21   0.190682
22   0.345037
23   0.371025

$$$$
PCCDB-ID:  2181
     RDKit          3D

 26 27  0  0  1  0  0  0  0  0999 V2000
    0.9439    1.2484   -0.0681 C   0  0  0  0  0  0  0  0  0  0  0  0
    1.5261   -0.1630    0.0988 C   0  0  0  0  0  0  0  0  0  0  0  0
   -5.1869    0.2282    0.1893 C   0  0  0  0  0  0  0  0  0  0  0  0
   -3.9076    0.2426   -0.3618 C   0  0  0  0  0  0  0  0  0  0  0  0
   -0.4746    1.3284    0.5189 C   0  0  0  0  0  0  0  0  0  0  0  0
   -5.3110    0.1981    1.5784 C   0  0  0  0  0  0  0  0  0  0  0  0
    0.5633   -1.2121   -0.4816 C   0  0  0  0  0  0  0  0  0  0  0  0
   -3.0434    0.2054    1.8588 C   0  0  0  0  0  0  0  0  0  0  0  0
   -2.7913    0.2343    0.4799 C   0  0  0  0  0  0  0  0  0  0  0  0
   -1.3797    0.2264   -0.0805 C   0  0  2  0  0  0  0  0  0  0  0  0
   -4.2625    0.1848    2.4101 N   0  0  0  0  0  0  0  0  0  0  0  0
   -0.8078   -1.1295    0.0362 N   0  0  0  0  0  0  0  0  0  0  0  0
    0.9072    1.5003   -1.1386 H   0  0  0  0  0  0  0  0  0  0  0  0
    1.5931    1.9944    0.4063 H   0  0  0  0  0  0  0  0  0  0  0  0
    1.6860   -0.3699    1.1676 H   0  0  0  0  0  0  0  0  0  0  0  0
    2.5069   -0.2383   -0.3892 H   0  0  0  0  0  0  0  0  0  0  0  0
   -6.0706    0.2377   -0.4422 H   0  0  0  0  0  0  0  0  0  0  0  0
   -3.7712    0.2578   -1.4408 H   0  0  0  0  0  0  0  0  0  0  0  0
   -0.9173    2.3155    0.3323 H   0  0  0  0  0  0  0  0  0  0  0  0
   -0.4208    1.2074    1.6098 H   0  0  0  0  0  0  0  0  0  0  0  0
   -6.2942    0.1838    2.0463 H   0  0  0  0  0  0  0  0  0  0  0  0
    0.9329   -2.2279   -0.2992 H   0  0  0  0  0  0  0  0  0  0  0  0
    0.5091   -1.0878   -1.5732 H   0  0  0  0  0  0  0  0  0  0  0  0
   -2.2152    0.1994    2.5669 H   0  0  0  0  0  0  0  0  0  0  0  0
   -1.4538    0.4229   -1.1610 H   0  0  0  0  0  0  0  0  0  0  0  0
   -0.8175   -1.4087    1.0175 H   0  0  0  0  0  0  0  0  0  0  0  0
  1  2  1  0
  1 14  1  0
  1  5  1  0
  2 15  1  0
  3  6  2  0
  4  3  1  0
  4  9  2  0
  5 20  1  0
  6 21  1  0
  6 11  1  0
  7 22  1  0
  7 12  1  0
  7  2  1  0
  8 11  2  0
  8 24  1  0
  9  8  1  0
 10 25  1  6
 10 12  1  0
 10  9  1  0
 10  5  1  0
 12 26  1  0
 13  1  1  0
 16  2  1  0
 17  3  1  0
 18  4  1  0
 19  5  1  0
 23  7  1  0
M  END
>  <HBA>  (523) 
2

>  <HBD>  (523) 
1

>  <TPSA>  (523) 
24.92

>  <cid>  (523) 
2181

>  <dipole>  (523) 
2.11

>  <excitation_energy_1>  (523) 
4.513

>  <excitation_energy_2>  (523) 
4.783

>  <excitation_energy_3>  (523) 
4.857

>  <excitation_energy_4>  (523) 
5.128

>  <homo_energy>  (523) 
-5.891

>  <homo_lumo_gap>  (523) 
5.353

>  <logP>  (523) 
2.225

>  <lumo_energy>  (523) 
-0.539

>  <melting_point>  (523) 
69.76

>  <molecular_refractivity>  (523) 
53.03

>  <oscillator_strength_1>  (523) 
0.0042

>  <oscillator_strength_2>  (523) 
0.0004

>  <oscillator_strength_3>  (523) 
0.0039

>  <oscillator_strength_4>  (523) 
0.0

>  <open_babel_can_smiles>  (523) 
C1CC[C@@H](NC1)c1cccnc1

>  <mulliken_charges>  (523) 
26
1   -0.263208
2   -0.262389
3   -0.138648
4   -0.150426
5   -0.26458
6   0.037987
7   -0.141634
8   -0.014275
9   0.173035
10   -0.070511
11   -0.413127
12   -0.53417
13   0.129957
14   0.136764
15   0.125819
16   0.131727
17   0.136605
18   0.140863
19   0.13783
20   0.131607
21   0.140381
22   0.140821
23   0.137537
24   0.133298
25   0.128851
26   0.289885

>  <lowdin_charges>  (523) 
26
1   -0.279263
2   -0.292423
3   -0.175451
4   -0.129282
5   -0.290804
6   -0.090749
7   -0.206483
8   -0.103481
9   -0.017197
10   -0.062079
11   -0.148914
12   -0.356098
13   0.136795
14   0.147686
15   0.13486
16   0.145435
17   0.16442
18   0.159829
19   0.148179
20   0.137456
21   0.15564
22   0.146572
23   0.137185
24   0.151919
25   0.138242
26   0.248006

$$$$
PCCDB-ID:  2209
     RDKit          3D

 19 19  0  0  0  0  0  0  0  0999 V2000
   -0.6244   -0.9772    0.7326 C   0  0  0  0  0  0  0  0  0  0  0  0
    0.7609   -1.2672    0.1350 C   0  0  0  0  0  0  0  0  0  0  0  0
   -1.1305    0.2140   -0.0921 C   0  0  0  0  0  0  0  0  0  0  0  0
    1.3124    0.1325   -0.1691 C   0  0  0  0  0  0  0  0  0  0  0  0
    0.0828    2.1385   -1.0564 C   0  0  0  0  0  0  0  0  0  0  0  0
    1.4661    4.2698   -2.0764 N   0  0  0  0  0  0  0  0  0  0  0  0
    0.1042    0.9210   -0.4838 N   0  0  0  0  0  0  0  0  0  0  0  0
   -1.2901    2.9858   -1.4420 S   0  0  0  0  0  0  0  0  0  0  0  0
    1.7810    2.7712   -1.3523 S   0  0  0  0  0  0  0  0  0  0  0  0
   -0.5288   -0.6922    1.7872 H   0  0  0  0  0  0  0  0  0  0  0  0
   -1.3037   -1.8327    0.6785 H   0  0  0  0  0  0  0  0  0  0  0  0
    0.6612   -1.8381   -0.7956 H   0  0  0  0  0  0  0  0  0  0  0  0
    1.4166   -1.8296    0.8061 H   0  0  0  0  0  0  0  0  0  0  0  0
   -1.7853    0.8915    0.4614 H   0  0  0  0  0  0  0  0  0  0  0  0
   -1.6724   -0.0985   -0.9936 H   0  0  0  0  0  0  0  0  0  0  0  0
    2.0090    0.1376   -1.0135 H   0  0  0  0  0  0  0  0  0  0  0  0
    1.8290    0.5613    0.7008 H   0  0  0  0  0  0  0  0  0  0  0  0
    1.8058    4.3264   -3.0293 H   0  0  0  0  0  0  0  0  0  0  0  0
    1.7700    5.0539   -1.5111 H   0  0  0  0  0  0  0  0  0  0  0  0
  1 10  1  0
  2  1  1  0
  2 13  1  0
  3 14  1  0
  3  1  1  0
  4  2  1  0
  4 17  1  0
  5  7  1  0
  6 19  1  0
  6  9  1  0
  7  4  1  0
  7  3  1  0
  8  5  2  0
  9  5  1  0
 11  1  1  0
 12  2  1  0
 15  3  1  0
 16  4  1  0
 18  6  1  0
M  END
>  <HBA>  (524) 
4

>  <HBD>  (524) 
1

>  <TPSA>  (524) 
86.65

>  <cid>  (524) 
2209

>  <dipole>  (524) 
4.23

>  <excitation_energy_1>  (524) 
3.607

>  <excitation_energy_2>  (524) 
4.326

>  <excitation_energy_3>  (524) 
4.718

>  <excitation_energy_4>  (524) 
4.837

>  <homo_energy>  (524) 
-5.268

>  <homo_lumo_gap>  (524) 
4.963

>  <logP>  (524) 
1.612

>  <lumo_energy>  (524) 
-0.305

>  <melting_point>  (524) 
92.9

>  <molecular_refractivity>  (524) 
48.94

>  <oscillator_strength_1>  (524) 
0.0002

>  <oscillator_strength_2>  (524) 
0.0346

>  <oscillator_strength_3>  (524) 
0.0028

>  <oscillator_strength_4>  (524) 
0.0014

>  <open_babel_can_smiles>  (524) 
NSC(=S)N1CCCC1

>  <mulliken_charges>  (524) 
19
1   -0.304765
2   -0.298075
3   -0.107387
4   -0.13866
5   -0.006612
6   -0.779451
7   -0.3727
8   -0.23401
9   0.220761
10   0.154401
11   0.155966
12   0.157799
13   0.154454
14   0.187222
15   0.172042
16   0.184018
17   0.171078
18   0.341671
19   0.34225

>  <lowdin_charges>  (524) 
19
1   -0.284438
2   -0.282479
3   -0.192557
4   -0.204079
5   -0.171272
6   -0.649899
7   -0.079347
8   -0.207353
9   0.228633
10   0.149814
11   0.158475
12   0.153025
13   0.158276
14   0.172716
15   0.158998
16   0.167593
17   0.155188
18   0.2833
19   0.285406

$$$$
PCCDB-ID:  2214
     RDKit          3D

 22 22  0  0  0  0  0  0  0  0999 V2000
    1.9193   -0.5864    0.9838 C   0  0  0  0  0  0  0  0  0  0  0  0
    3.3072   -4.5651   -3.4662 C   0  0  0  0  0  0  0  0  0  0  0  0
    3.9596    0.2394   -2.1967 C   0  0  0  0  0  0  0  0  0  0  0  0
    4.6108   -0.3943   -3.2473 C   0  0  0  0  0  0  0  0  0  0  0  0
    3.3064   -1.9105   -1.3160 C   0  0  0  0  0  0  0  0  0  0  0  0
    2.6229    0.2189   -0.0978 C   0  0  0  0  0  0  0  0  0  0  0  0
    3.3017   -0.5100   -1.2112 C   0  0  0  0  0  0  0  0  0  0  0  0
    4.6241   -1.7910   -3.3375 C   0  0  0  0  0  0  0  0  0  0  0  0
    3.9536   -2.5590   -2.3629 C   0  0  0  0  0  0  0  0  0  0  0  0
    2.6302    1.4413   -0.0537 O   0  0  0  0  0  0  0  0  0  0  0  0
    5.2727   -2.4583   -4.3349 O   0  0  0  0  0  0  0  0  0  0  0  0
    3.9828   -3.9311   -2.3757 O   0  0  0  0  0  0  0  0  0  0  0  0
    1.1206   -1.2057    0.5581 H   0  0  0  0  0  0  0  0  0  0  0  0
    1.4900    0.1054    1.7105 H   0  0  0  0  0  0  0  0  0  0  0  0
    2.6184   -1.2608    1.4927 H   0  0  0  0  0  0  0  0  0  0  0  0
    3.3756   -5.6385   -3.2764 H   0  0  0  0  0  0  0  0  0  0  0  0
    3.7807   -4.3310   -4.4243 H   0  0  0  0  0  0  0  0  0  0  0  0
    2.2504   -4.2680   -3.4953 H   0  0  0  0  0  0  0  0  0  0  0  0
    3.9508    1.3210   -2.1163 H   0  0  0  0  0  0  0  0  0  0  0  0
    5.1276    0.1918   -4.0059 H   0  0  0  0  0  0  0  0  0  0  0  0
    2.8123   -2.5368   -0.5808 H   0  0  0  0  0  0  0  0  0  0  0  0
    5.6991   -1.8109   -4.9185 H   0  0  0  0  0  0  0  0  0  0  0  0
  1 15  1  0
  1 14  1  0
  2 16  1  0
  2 12  1  0
  3 19  1  0
  3  7  2  0
  4  3  1  0
  5  7  1  0
  5 21  1  0
  6 10  2  0
  6  1  1  0
  7  6  1  0
  8  4  2  0
  8  9  1  0
  9  5  2  0
 11  8  1  0
 12  9  1  0
 13  1  1  0
 17  2  1  0
 18  2  1  0
 20  4  1  0
 22 11  1  0
M  END
>  <HBA>  (525) 
3

>  <HBD>  (525) 
1

>  <TPSA>  (525) 
46.53

>  <cid>  (525) 
2214

>  <dipole>  (525) 
3.26

>  <excitation_energy_1>  (525) 
3.817

>  <excitation_energy_2>  (525) 
4.437

>  <excitation_energy_3>  (525) 
4.821

>  <excitation_energy_4>  (525) 
5.25

>  <homo_energy>  (525) 
-6.166

>  <homo_lumo_gap>  (525) 
4.92

>  <logP>  (525) 
1.603

>  <lumo_energy>  (525) 
-1.246

>  <melting_point>  (525) 
85.3

>  <molecular_refractivity>  (525) 
45.15

>  <oscillator_strength_1>  (525) 
0.0003

>  <oscillator_strength_2>  (525) 
0.113

>  <oscillator_strength_3>  (525) 
0.1246

>  <oscillator_strength_4>  (525) 
0.0012

>  <open_babel_can_smiles>  (525) 
COc1cc(ccc1O)C(=O)C

>  <mulliken_charges>  (525) 
22
1   -0.541258
2   -0.215829
3   -0.165469
4   -0.199045
5   -0.242971
6   0.403769
7   0.075253
8   0.322441
9   0.335717
10   -0.461072
11   -0.632577
12   -0.520475
13   0.168623
14   0.179679
15   0.171416
16   0.162501
17   0.168881
18   0.140562
19   0.164741
20   0.128344
21   0.142253
22   0.414515

>  <lowdin_charges>  (525) 
22
1   -0.478453
2   -0.272392
3   -0.124048
4   -0.208357
5   -0.163561
6   0.15866
7   -0.065285
8   0.091153
9   0.0651
10   -0.250737
11   -0.364047
12   -0.222734
13   0.169666
14   0.175249
15   0.171141
16   0.156371
17   0.152353
18   0.137865
19   0.176783
20   0.158496
21   0.172599
22   0.364179

$$$$
PCCDB-ID:  2230
     RDKit          3D

 24 24  0  0  0  0  0  0  0  0999 V2000
    0.9153    0.0225    0.3905 C   0  0  0  0  0  0  0  0  0  0  0  0
    5.6531    2.6002    4.1850 C   0  0  0  0  0  0  0  0  0  0  0  0
    3.0492   -1.7846    1.6530 C   0  0  0  0  0  0  0  0  0  0  0  0
    3.7111   -0.6015    2.3042 C   0  0  0  0  0  0  0  0  0  0  0  0
    2.7910   -1.5224    0.1547 C   0  0  0  0  0  0  0  0  0  0  0  0
    3.2120    0.8400    0.3172 C   0  0  0  0  0  0  0  0  0  0  0  0
    3.7905    0.5984    1.7051 C   0  0  0  0  0  0  0  0  0  0  0  0
    4.4730    1.7596    2.3279 C   0  0  0  0  0  0  0  0  0  0  0  0
    2.2657   -0.1854   -0.1209 N   0  0  0  0  0  0  0  0  0  0  0  0
    4.5709    2.8488    1.7916 O   0  0  0  0  0  0  0  0  0  0  0  0
    4.9840    1.4981    3.5564 O   0  0  0  0  0  0  0  0  0  0  0  0
    0.2573   -0.7590   -0.0063 H   0  0  0  0  0  0  0  0  0  0  0  0
    0.5402    0.9884    0.0353 H   0  0  0  0  0  0  0  0  0  0  0  0
    0.8295    0.0139    1.4924 H   0  0  0  0  0  0  0  0  0  0  0  0
    5.9992    2.2216    5.1476 H   0  0  0  0  0  0  0  0  0  0  0  0
    4.9664    3.4392    4.3272 H   0  0  0  0  0  0  0  0  0  0  0  0
    6.4985    2.9359    3.5782 H   0  0  0  0  0  0  0  0  0  0  0  0
    2.1075   -2.0048    2.1798 H   0  0  0  0  0  0  0  0  0  0  0  0
    3.6722   -2.6805    1.7829 H   0  0  0  0  0  0  0  0  0  0  0  0
    4.1326   -0.7331    3.2974 H   0  0  0  0  0  0  0  0  0  0  0  0
    2.0987   -2.2680   -0.2534 H   0  0  0  0  0  0  0  0  0  0  0  0
    3.7364   -1.6243   -0.3943 H   0  0  0  0  0  0  0  0  0  0  0  0
    4.0370    0.8979   -0.4088 H   0  0  0  0  0  0  0  0  0  0  0  0
    2.7238    1.8188    0.2878 H   0  0  0  0  0  0  0  0  0  0  0  0
  1 14  1  0
  2 16  1  0
  2 15  1  0
  3 19  1  0
  3 18  1  0
  3  4  1  0
  4 20  1  0
  5  3  1  0
  6  7  1  0
  7  4  2  0
  7  8  1  0
  8 11  1  0
  9  5  1  0
  9  6  1  0
  9  1  1  0
 10  8  2  0
 11  2  1  0
 12  1  1  0
 13  1  1  0
 17  2  1  0
 21  5  1  0
 22  5  1  0
 23  6  1  0
 24  6  1  0
M  END
>  <HBA>  (526) 
3

>  <HBD>  (526) 
0

>  <TPSA>  (526) 
29.54

>  <cid>  (526) 
2230

>  <dipole>  (526) 
2.63

>  <excitation_energy_1>  (526) 
3.65

>  <excitation_energy_2>  (526) 
4.919

>  <excitation_energy_3>  (526) 
5.026

>  <excitation_energy_4>  (526) 
5.624

>  <homo_energy>  (526) 
-5.606

>  <homo_lumo_gap>  (526) 
4.672

>  <logP>  (526) 
0.359

>  <lumo_energy>  (526) 
-0.933

>  <melting_point>  (526) 
22.97

>  <molecular_refractivity>  (526) 
46.08

>  <oscillator_strength_1>  (526) 
0.0015

>  <oscillator_strength_2>  (526) 
0.0001

>  <oscillator_strength_3>  (526) 
0.0096

>  <oscillator_strength_4>  (526) 
0.2135

>  <open_babel_can_smiles>  (526) 
COC(=O)C1=CCCN(C1)C

>  <mulliken_charges>  (526) 
24
1   -0.304241
2   -0.214925
3   -0.320321
4   -0.139654
5   -0.148268
6   -0.201788
7   0.052548
8   0.597779
9   -0.363706
10   -0.494708
11   -0.469711
12   0.146517
13   0.154291
14   0.126257
15   0.161141
16   0.169066
17   0.169434
18   0.158075
19   0.15014
20   0.156156
21   0.140267
22   0.146528
23   0.161862
24   0.167262

>  <lowdin_charges>  (526) 
24
1   -0.356983
2   -0.278889
3   -0.296332
4   -0.130754
5   -0.204168
6   -0.201724
7   -0.072277
8   0.193429
9   -0.182405
10   -0.273355
11   -0.196333
12   0.150121
13   0.152374
14   0.121781
15   0.158344
16   0.159196
17   0.159486
18   0.156709
19   0.157794
20   0.167875
21   0.148023
22   0.146442
23   0.156954
24   0.164693

$$$$
PCCDB-ID:  2237
     RDKit          3D

 39 40  0  0  1  0  0  0  0  0999 V2000
    0.5955    0.5404   -0.1553 C   0  0  0  0  0  0  0  0  0  0  0  0
    2.5897   -0.5945   -1.0868 C   0  0  0  0  0  0  0  0  0  0  0  0
    5.5211    3.4404    2.5664 C   0  0  0  0  0  0  0  0  0  0  0  0
    3.3091    3.1230   -0.6810 C   0  0  0  0  0  0  0  0  0  0  0  0
    3.4283    5.6824    2.0029 C   0  0  0  0  0  0  0  0  0  0  0  0
    4.5970    5.2758    1.0945 C   0  0  0  0  0  0  0  0  0  0  0  0
    2.1755    4.8405    1.6984 C   0  0  0  0  0  0  0  0  0  0  0  0
    1.9171    1.0058    2.4529 C   0  0  0  0  0  0  0  0  0  0  0  0
    1.7298    2.5010    2.4147 C   0  0  0  0  0  0  0  0  0  0  0  0
    3.9414    1.3864    1.0360 C   0  0  0  0  0  0  0  0  0  0  0  0
    1.8777    0.1885   -0.0058 C   0  0  0  0  0  0  0  0  0  0  0  0
    4.9105    3.7633    1.1861 C   0  0  2  0  0  0  0  0  0  0  0  0
    2.7058    0.4681    1.2449 C   0  0  2  0  0  0  0  0  0  0  0  0
    2.4671    3.3529    1.6887 C   0  0  0  0  0  0  0  0  0  0  0  0
    3.6422    2.8960    0.8190 C   0  0  1  0  0  0  0  0  0  0  0  0
    0.0424    0.2790   -1.0544 H   0  0  0  0  0  0  0  0  0  0  0  0
    0.0536    1.1122    0.5910 H   0  0  0  0  0  0  0  0  0  0  0  0
    1.9176   -0.8329   -1.9168 H   0  0  0  0  0  0  0  0  0  0  0  0
    2.9932   -1.5373   -0.6923 H   0  0  0  0  0  0  0  0  0  0  0  0
    3.4416   -0.0371   -1.4966 H   0  0  0  0  0  0  0  0  0  0  0  0
    6.2404    4.2174    2.8515 H   0  0  0  0  0  0  0  0  0  0  0  0
    6.0623    2.4897    2.5703 H   0  0  0  0  0  0  0  0  0  0  0  0
    4.7581    3.3914    3.3514 H   0  0  0  0  0  0  0  0  0  0  0  0
    4.1757    2.8630   -1.3026 H   0  0  0  0  0  0  0  0  0  0  0  0
    3.0461    4.1601   -0.9041 H   0  0  0  0  0  0  0  0  0  0  0  0
    2.4664    2.4999   -0.9884 H   0  0  0  0  0  0  0  0  0  0  0  0
    3.2025    6.7489    1.8759 H   0  0  0  0  0  0  0  0  0  0  0  0
    3.7097    5.5464    3.0552 H   0  0  0  0  0  0  0  0  0  0  0  0
    5.4975    5.8439    1.3619 H   0  0  0  0  0  0  0  0  0  0  0  0
    4.3625    5.5508    0.0589 H   0  0  0  0  0  0  0  0  0  0  0  0
    1.7847    5.1449    0.7155 H   0  0  0  0  0  0  0  0  0  0  0  0
    1.3820    5.0576    2.4237 H   0  0  0  0  0  0  0  0  0  0  0  0
    0.9448    0.5042    2.5297 H   0  0  0  0  0  0  0  0  0  0  0  0
    2.4581    0.7325    3.3726 H   0  0  0  0  0  0  0  0  0  0  0  0
    0.9251    2.9037    3.0316 H   0  0  0  0  0  0  0  0  0  0  0  0
    4.5615    1.0228    0.2069 H   0  0  0  0  0  0  0  0  0  0  0  0
    4.5463    1.2631    1.9386 H   0  0  0  0  0  0  0  0  0  0  0  0
    5.6763    3.5383    0.4288 H   0  0  0  0  0  0  0  0  0  0  0  0
    3.1191   -0.5117    1.5335 H   0  0  0  0  0  0  0  0  0  0  0  0
  1 11  2  3
  1 17  1  0
  2 19  1  0
  2 11  1  0
  3 22  1  0
  3 21  1  0
  3 23  1  0
  5 28  1  0
  6 12  1  0
  6 29  1  0
  6  5  1  0
  7  5  1  0
  7 32  1  0
  8 33  1  0
  8 34  1  0
  9  8  1  0
  9 35  1  0
 10 13  1  0
 10 37  1  0
 11 13  1  0
 12 38  1  6
 12  3  1  0
 13 39  1  1
 13  8  1  0
 14  7  1  0
 14  9  2  0
 15  4  1  6
 15 10  1  0
 15 12  1  0
 15 14  1  0
 16  1  1  0
 18  2  1  0
 20  2  1  0
 24  4  1  0
 25  4  1  0
 26  4  1  0
 27  5  1  0
 30  6  1  0
 31  7  1  0
 36 10  1  0
M  END
>  <HBA>  (527) 
0

>  <HBD>  (527) 
0

>  <TPSA>  (527) 
0.0

>  <cid>  (527) 
2237

>  <dipole>  (527) 
0.54

>  <excitation_energy_1>  (527) 
5.366

>  <excitation_energy_2>  (527) 
5.552

>  <excitation_energy_3>  (527) 
5.817

>  <excitation_energy_4>  (527) 
5.873

>  <homo_energy>  (527) 
-5.962

>  <homo_lumo_gap>  (527) 
6.686

>  <logP>  (527) 
4.725

>  <lumo_energy>  (527) 
0.724

>  <melting_point>  (527) 
27.33

>  <molecular_refractivity>  (527) 
68.78

>  <oscillator_strength_1>  (527) 
0.0212

>  <oscillator_strength_2>  (527) 
0.0088

>  <oscillator_strength_3>  (527) 
0.0024

>  <oscillator_strength_4>  (527) 
0.01

>  <open_babel_can_smiles>  (527) 
CC(=C)[C@@H]1CC=C2[C@@](C1)(C)[C@H](C)CCC2

>  <mulliken_charges>  (527) 
39
1   -0.403925
2   -0.514676
3   -0.46732
4   -0.47526
5   -0.260592
6   -0.276145
7   -0.336325
8   -0.310386
9   -0.206368
10   -0.303423
11   0.231128
12   -0.072055
13   -0.151241
14   0.199065
15   0.048267
16   0.127461
17   0.140417
18   0.151527
19   0.149249
20   0.157033
21   0.138049
22   0.145222
23   0.151595
24   0.131545
25   0.141917
26   0.165707
27   0.128695
28   0.136819
29   0.127906
30   0.132116
31   0.140852
32   0.134202
33   0.142339
34   0.14165
35   0.110078
36   0.127249
37   0.139674
38   0.113375
39   0.124579

>  <lowdin_charges>  (527) 
39
1   -0.370515
2   -0.444485
3   -0.456184
4   -0.453902
5   -0.274459
6   -0.281453
7   -0.274197
8   -0.278055
9   -0.198339
10   -0.278377
11   0.006628
12   -0.125957
13   -0.123857
14   -0.016832
15   0.008734
16   0.152988
17   0.160549
18   0.156891
19   0.153083
20   0.156228
21   0.149196
22   0.148538
23   0.151847
24   0.143507
25   0.145641
26   0.163971
27   0.141246
28   0.140009
29   0.142475
30   0.139488
31   0.145204
32   0.147457
33   0.150794
34   0.150091
35   0.146373
36   0.143066
37   0.150674
38   0.136987
39   0.144946

$$$$
PCCDB-ID:  2285
     RDKit          3D

 19 19  0  0  0  0  0  0  0  0999 V2000
   -1.9666    0.0494    0.0361 C   0  0  0  0  0  0  0  0  0  0  0  0
   -1.2560    1.2511    0.0442 C   0  0  0  0  0  0  0  0  0  0  0  0
   -1.2787   -1.1653   -0.0114 C   0  0  0  0  0  0  0  0  0  0  0  0
    0.1384    1.2350    0.0051 C   0  0  0  0  0  0  0  0  0  0  0  0
    0.1155   -1.1805   -0.0497 C   0  0  0  0  0  0  0  0  0  0  0  0
    2.3422    0.0123   -0.0979 C   0  0  0  0  0  0  0  0  0  0  0  0
    0.8363    0.0219   -0.0415 C   0  0  0  0  0  0  0  0  0  0  0  0
    3.0545   -1.2242   -2.0117 C   0  0  0  0  0  0  0  0  0  0  0  0
    2.9314   -2.2886   -1.4612 O   0  0  0  0  0  0  0  0  0  0  0  0
    3.4564   -1.0940   -3.2889 O   0  0  0  0  0  0  0  0  0  0  0  0
    2.8324   -0.0029   -1.4722 O   0  0  0  0  0  0  0  0  0  0  0  0
   -3.0528    0.0592    0.0682 H   0  0  0  0  0  0  0  0  0  0  0  0
   -1.7864    2.1988    0.0833 H   0  0  0  0  0  0  0  0  0  0  0  0
   -1.8287   -2.1025   -0.0157 H   0  0  0  0  0  0  0  0  0  0  0  0
    0.6915    2.1718    0.0149 H   0  0  0  0  0  0  0  0  0  0  0  0
    0.6541   -2.1225   -0.0954 H   0  0  0  0  0  0  0  0  0  0  0  0
    2.7615   -0.8545    0.4160 H   0  0  0  0  0  0  0  0  0  0  0  0
    2.7618    0.9290    0.3215 H   0  0  0  0  0  0  0  0  0  0  0  0
    3.4715   -0.1464   -3.5085 H   0  0  0  0  0  0  0  0  0  0  0  0
  1  2  2  0
  1 12  1  0
  2 13  1  0
  3  1  1  0
  4 15  1  0
  4  2  1  0
  5  7  1  0
  5  3  2  0
  6  7  1  0
  6 18  1  0
  6 17  1  0
  7  4  2  0
  8 11  1  0
  8  9  2  0
 10  8  1  0
 11  6  1  0
 14  3  1  0
 16  5  1  0
 19 10  1  0
M  END
>  <HBA>  (528) 
3

>  <HBD>  (528) 
1

>  <TPSA>  (528) 
46.53

>  <cid>  (528) 
2285

>  <dipole>  (528) 
3.42

>  <excitation_energy_1>  (528) 
5.289

>  <excitation_energy_2>  (528) 
5.888

>  <excitation_energy_3>  (528) 
6.347

>  <excitation_energy_4>  (528) 
6.367

>  <homo_energy>  (528) 
-6.925

>  <homo_lumo_gap>  (528) 
6.471

>  <logP>  (528) 
1.881

>  <lumo_energy>  (528) 
-0.454

>  <melting_point>  (528) 
85.03

>  <molecular_refractivity>  (528) 
39.46

>  <oscillator_strength_1>  (528) 
0.0024

>  <oscillator_strength_2>  (528) 
0.0625

>  <oscillator_strength_3>  (528) 
0.0122

>  <oscillator_strength_4>  (528) 
0.0336

>  <open_babel_can_smiles>  (528) 
OC(=O)OCc1ccccc1

>  <mulliken_charges>  (528) 
19
1   -0.125035
2   -0.129052
3   -0.130298
4   -0.17295
5   -0.179023
6   -0.145202
7   0.147924
8   0.780549
9   -0.467551
10   -0.56933
11   -0.478481
12   0.134265
13   0.133312
14   0.137176
15   0.128431
16   0.166088
17   0.186643
18   0.160386
19   0.422148

>  <lowdin_charges>  (528) 
19
1   -0.146817
2   -0.156199
3   -0.153651
4   -0.157769
5   -0.153518
6   -0.124251
7   -0.02625
8   0.235503
9   -0.269074
10   -0.33815
11   -0.218692
12   0.157762
13   0.159603
14   0.161487
15   0.156835
16   0.174085
17   0.171242
18   0.159764
19   0.368091

$$$$
PCCDB-ID:  2292
     RDKit          3D

 34 34  0  0  1  0  0  0  0  0999 V2000
    7.4241    1.2034   -5.1584 C   0  0  0  0  0  0  0  0  0  0  0  0
    8.1405    0.8942   -3.8377 C   0  0  0  0  0  0  0  0  0  0  0  0
    7.6278    1.6953   -2.6283 C   0  0  0  0  0  0  0  0  0  0  0  0
    9.9030    5.3846    2.0906 C   0  0  0  0  0  0  0  0  0  0  0  0
    8.1643    4.0082    3.0180 C   0  0  0  0  0  0  0  0  0  0  0  0
   10.6553    5.2178    3.2531 C   0  0  0  0  0  0  0  0  0  0  0  0
    8.9069    3.8270    4.1811 C   0  0  0  0  0  0  0  0  0  0  0  0
    7.9241    3.2031   -2.7031 C   0  0  0  0  0  0  0  0  0  0  0  0
    8.0898    3.7166   -0.2705 C   0  0  0  0  0  0  0  0  0  0  0  0
    8.6494    4.7812    1.9549 C   0  0  0  0  0  0  0  0  0  0  0  0
   10.1610    4.4347    4.3006 C   0  0  0  0  0  0  0  0  0  0  0  0
    7.8523    4.9171    0.6742 C   0  0  1  0  0  0  0  0  0  0  0  0
    7.4634    4.0062   -1.5644 N   0  0  0  0  0  0  0  0  0  0  0  0
   10.8524    4.2336    5.4661 O   0  0  0  0  0  0  0  0  0  0  0  0
    8.2051    6.1068   -0.0071 O   0  0  0  0  0  0  0  0  0  0  0  0
    7.7968    0.5623   -5.9653 H   0  0  0  0  0  0  0  0  0  0  0  0
    7.5701    2.2425   -5.4739 H   0  0  0  0  0  0  0  0  0  0  0  0
    6.3439    1.0318   -5.0704 H   0  0  0  0  0  0  0  0  0  0  0  0
    9.2192    1.0711   -3.9563 H   0  0  0  0  0  0  0  0  0  0  0  0
    8.0337   -0.1760   -3.6176 H   0  0  0  0  0  0  0  0  0  0  0  0
    8.0799    1.2861   -1.7154 H   0  0  0  0  0  0  0  0  0  0  0  0
    6.5412    1.5488   -2.5274 H   0  0  0  0  0  0  0  0  0  0  0  0
   10.2765    6.0028    1.2813 H   0  0  0  0  0  0  0  0  0  0  0  0
    7.1831    3.5434    2.9401 H   0  0  0  0  0  0  0  0  0  0  0  0
   11.6262    5.7022    3.3482 H   0  0  0  0  0  0  0  0  0  0  0  0
    8.5296    3.2313    5.0065 H   0  0  0  0  0  0  0  0  0  0  0  0
    7.4678    3.6318   -3.6034 H   0  0  0  0  0  0  0  0  0  0  0  0
    9.0071    3.3602   -2.7974 H   0  0  0  0  0  0  0  0  0  0  0  0
    7.7441    2.7868    0.2085 H   0  0  0  0  0  0  0  0  0  0  0  0
    9.1695    3.6200   -0.4377 H   0  0  0  0  0  0  0  0  0  0  0  0
    6.7763    4.9337    0.9336 H   0  0  0  0  0  0  0  0  0  0  0  0
    6.4502    3.9246   -1.4788 H   0  0  0  0  0  0  0  0  0  0  0  0
   11.6907    4.7188    5.4185 H   0  0  0  0  0  0  0  0  0  0  0  0
    7.9818    5.9088   -0.9406 H   0  0  0  0  0  0  0  0  0  0  0  0
  1 18  1  0
  1  2  1  0
  2 20  1  0
  2  3  1  0
  3 22  1  0
  3 21  1  0
  4  6  2  0
  5  7  1  0
  6 25  1  0
  6 11  1  0
  7 11  2  0
  7 26  1  0
  8  3  1  0
  8 13  1  0
  9 29  1  0
  9 12  1  0
 10  4  1  0
 10  5  2  0
 11 14  1  0
 12 31  1  1
 12 10  1  0
 13 32  1  0
 13  9  1  0
 15 12  1  0
 16  1  1  0
 17  1  1  0
 19  2  1  0
 23  4  1  0
 24  5  1  0
 27  8  1  0
 28  8  1  0
 30  9  1  0
 33 14  1  0
 34 15  1  0
M  END
>  <HBA>  (529) 
3

>  <HBD>  (529) 
3

>  <TPSA>  (529) 
52.49

>  <cid>  (529) 
2292

>  <dipole>  (529) 
2.72

>  <excitation_energy_1>  (529) 
4.936

>  <excitation_energy_2>  (529) 
5.092

>  <excitation_energy_3>  (529) 
5.325

>  <excitation_energy_4>  (529) 
5.567

>  <homo_energy>  (529) 
-5.66

>  <homo_lumo_gap>  (529) 
5.81

>  <logP>  (529) 
2.206

>  <lumo_energy>  (529) 
0.15

>  <melting_point>  (529) 
90.6

>  <molecular_refractivity>  (529) 
61.43

>  <oscillator_strength_1>  (529) 
0.0284

>  <oscillator_strength_2>  (529) 
0.0001

>  <oscillator_strength_3>  (529) 
0.007

>  <oscillator_strength_4>  (529) 
0.0666

>  <open_babel_can_smiles>  (529) 
CCCCNC[C@@H](c1ccc(cc1)O)O

>  <mulliken_charges>  (529) 
34
1   -0.446031
2   -0.252369
3   -0.264399
4   -0.17707
5   -0.187468
6   -0.198133
7   -0.162142
8   -0.130774
9   -0.149099
10   0.135041
11   0.350712
12   0.086448
13   -0.582325
14   -0.645855
15   -0.651922
16   0.146654
17   0.147384
18   0.142339
19   0.133884
20   0.136662
21   0.140692
22   0.122776
23   0.150845
24   0.119387
25   0.115646
26   0.135746
27   0.144195
28   0.143691
29   0.129303
30   0.150417
31   0.107055
32   0.299145
33   0.40578
34   0.403785

>  <lowdin_charges>  (529) 
34
1   -0.445743
2   -0.269215
3   -0.293033
4   -0.146627
5   -0.15535
6   -0.213292
7   -0.188269
8   -0.205385
9   -0.224654
10   -0.032472
11   0.099568
12   -0.000567
13   -0.357057
14   -0.382291
15   -0.468853
16   0.153119
17   0.146233
18   0.144864
19   0.138965
20   0.143468
21   0.145865
22   0.133636
23   0.171151
24   0.15254
25   0.150883
26   0.166265
27   0.145606
28   0.142128
29   0.13239
30   0.148544
31   0.120207
32   0.252763
33   0.356495
34   0.338119

$$$$
PCCDB-ID:  2310
     RDKit          3D

 24 24  0  0  1  0  0  0  0  0999 V2000
    2.4792   -0.6674    1.5298 C   0  0  0  0  0  0  0  0  0  0  0  0
    2.7424   -0.5257   -2.3950 C   0  0  0  0  0  0  0  0  0  0  0  0
    2.3336   -0.2782    0.0528 C   0  0  0  0  0  0  0  0  0  0  0  0
    4.5005   -1.3500   -0.7995 C   0  0  0  0  0  0  0  0  0  0  0  0
    2.3570   -2.6077   -1.0355 C   0  0  0  0  0  0  0  0  0  0  0  0
    4.8805   -2.5034    0.1085 C   0  0  0  0  0  0  0  0  0  0  0  0
    2.7860   -3.4868    0.1368 C   0  0  0  0  0  0  0  0  0  0  0  0
    2.9782   -1.1923   -1.0261 C   0  0  2  0  0  0  0  0  0  0  0  0
    4.1404   -3.4588    0.5240 N   0  0  0  0  0  0  0  0  0  0  0  0
    6.1796   -2.5450    0.4824 O   0  0  0  0  0  0  0  0  0  0  0  0
    2.0017   -4.2246    0.7000 O   0  0  0  0  0  0  0  0  0  0  0  0
    1.9834    0.0836    2.1551 H   0  0  0  0  0  0  0  0  0  0  0  0
    3.5266   -0.7125    1.8495 H   0  0  0  0  0  0  0  0  0  0  0  0
    2.0201   -1.6340    1.7549 H   0  0  0  0  0  0  0  0  0  0  0  0
    3.2051    0.4683   -2.4366 H   0  0  0  0  0  0  0  0  0  0  0  0
    1.6705   -0.4024   -2.5873 H   0  0  0  0  0  0  0  0  0  0  0  0
    3.1616   -1.1280   -3.2100 H   0  0  0  0  0  0  0  0  0  0  0  0
    2.7474    0.7314   -0.0855 H   0  0  0  0  0  0  0  0  0  0  0  0
    1.2641   -0.1976   -0.1851 H   0  0  0  0  0  0  0  0  0  0  0  0
    5.0013   -1.5390   -1.7615 H   0  0  0  0  0  0  0  0  0  0  0  0
    4.9312   -0.4169   -0.4085 H   0  0  0  0  0  0  0  0  0  0  0  0
    1.2642   -2.5619   -1.0409 H   0  0  0  0  0  0  0  0  0  0  0  0
    2.6635   -3.1265   -1.9563 H   0  0  0  0  0  0  0  0  0  0  0  0
    6.6448   -1.7677    0.1326 H   0  0  0  0  0  0  0  0  0  0  0  0
  1 14  1  0
  1 13  1  0
  1 12  1  0
  3  1  1  0
  4 21  1  0
  4  6  1  0
  5  8  1  0
  5  7  1  0
  6 10  1  0
  6  9  2  0
  7  9  1  0
  7 11  2  0
  8  2  1  6
  8  4  1  0
  8  3  1  0
 15  2  1  0
 16  2  1  0
 17  2  1  0
 18  3  1  0
 19  3  1  0
 20  4  1  0
 22  5  1  0
 23  5  1  0
 24 10  1  0
M  END
>  <HBA>  (530) 
3

>  <HBD>  (530) 
1

>  <TPSA>  (530) 
46.17

>  <cid>  (530) 
2310

>  <dipole>  (530) 
6.83

>  <excitation_energy_1>  (530) 
4.036

>  <excitation_energy_2>  (530) 
4.928

>  <excitation_energy_3>  (530) 
5.571

>  <excitation_energy_4>  (530) 
6.076

>  <homo_energy>  (530) 
-6.512

>  <homo_lumo_gap>  (530) 
5.513

>  <logP>  (530) 
1.168

>  <lumo_energy>  (530) 
-0.999

>  <melting_point>  (530) 
83.33

>  <molecular_refractivity>  (530) 
45.31

>  <oscillator_strength_1>  (530) 
0.001

>  <oscillator_strength_2>  (530) 
0.0002

>  <oscillator_strength_3>  (530) 
0.0072

>  <oscillator_strength_4>  (530) 
0.0339

>  <open_babel_can_smiles>  (530) 
CC[C@@]1(C)CC(=NC(=O)C1)O

>  <mulliken_charges>  (530) 
24
1   -0.4739
2   -0.45665
3   -0.256189
4   -0.394355
5   -0.360101
6   0.518512
7   0.540735
8   0.087278
9   -0.457191
10   -0.559823
11   -0.458873
12   0.150442
13   0.144439
14   0.184118
15   0.143699
16   0.154388
17   0.142542
18   0.12913
19   0.141649
20   0.176932
21   0.160097
22   0.168021
23   0.16118
24   0.413923

>  <lowdin_charges>  (530) 
24
1   -0.456532
2   -0.44037
3   -0.271244
4   -0.3183
5   -0.31063
6   0.157837
7   0.162813
8   0.009255
9   -0.193622
10   -0.333515
11   -0.237173
12   0.157235
13   0.146495
14   0.167286
15   0.148821
16   0.154317
17   0.149014
18   0.139254
19   0.145917
20   0.170343
21   0.16083
22   0.166473
23   0.165074
24   0.360422

$$$$
PCCDB-ID:  2331
     RDKit          3D

 16 16  0  0  0  0  0  0  0  0999 V2000
   -1.4173   -0.0799    0.0364 C   0  0  0  0  0  0  0  0  0  0  0  0
   -0.7970    1.1682   -0.0380 C   0  0  0  0  0  0  0  0  0  0  0  0
   -0.6411   -1.2414    0.0584 C   0  0  0  0  0  0  0  0  0  0  0  0
    0.5943    1.2559   -0.0843 C   0  0  0  0  0  0  0  0  0  0  0  0
    0.7485   -1.1558    0.0031 C   0  0  0  0  0  0  0  0  0  0  0  0
    1.3813    0.0936   -0.0692 C   0  0  0  0  0  0  0  0  0  0  0  0
    2.8731    0.1795   -0.1463 C   0  0  0  0  0  0  0  0  0  0  0  0
    3.6578   -0.5991   -0.7750 N   0  0  0  0  0  0  0  0  0  0  0  0
    3.4351    1.2330    0.5166 O   0  0  0  0  0  0  0  0  0  0  0  0
   -2.5009   -0.1481    0.0771 H   0  0  0  0  0  0  0  0  0  0  0  0
   -1.3957    2.0745   -0.0656 H   0  0  0  0  0  0  0  0  0  0  0  0
   -1.1191   -2.2148    0.1250 H   0  0  0  0  0  0  0  0  0  0  0  0
    1.0716    2.2291   -0.1676 H   0  0  0  0  0  0  0  0  0  0  0  0
    1.3530   -2.0581    0.0372 H   0  0  0  0  0  0  0  0  0  0  0  0
    3.1157   -1.2937   -1.2909 H   0  0  0  0  0  0  0  0  0  0  0  0
    2.7838    1.5937    1.1381 H   0  0  0  0  0  0  0  0  0  0  0  0
  1  3  2  0
  1 10  1  0
  2  1  1  0
  3 12  1  0
  4  6  1  0
  4  2  2  0
  5 14  1  0
  5  3  1  0
  6  5  2  0
  7  6  1  0
  7  9  1  0
  8  7  2  0
  9 16  1  0
 11  2  1  0
 13  4  1  0
 15  8  1  0
M  END
>  <HBA>  (531) 
2

>  <HBD>  (531) 
1

>  <TPSA>  (531) 
43.09

>  <cid>  (531) 
2331

>  <dipole>  (531) 
4.71

>  <excitation_energy_1>  (531) 
4.997

>  <excitation_energy_2>  (531) 
5.105

>  <excitation_energy_3>  (531) 
5.348

>  <excitation_energy_4>  (531) 
5.76

>  <homo_energy>  (531) 
-6.846

>  <homo_lumo_gap>  (531) 
5.782

>  <logP>  (531) 
1.486

>  <lumo_energy>  (531) 
-1.064

>  <melting_point>  (531) 
93.12

>  <molecular_refractivity>  (531) 
34.54

>  <oscillator_strength_1>  (531) 
0.0126

>  <oscillator_strength_2>  (531) 
0.0092

>  <oscillator_strength_3>  (531) 
0.1451

>  <oscillator_strength_4>  (531) 
0.0121

>  <open_babel_can_smiles>  (531) 
OC(=N)c1ccccc1

>  <mulliken_charges>  (531) 
16
1   -0.122335
2   -0.128923
3   -0.132213
4   -0.192065
5   -0.17076
6   0.068479
7   0.419006
8   -0.578423
9   -0.575688
10   0.141202
11   0.141975
12   0.14242
13   0.14683
14   0.147116
15   0.287357
16   0.406023

>  <lowdin_charges>  (531) 
16
1   -0.143497
2   -0.150031
3   -0.148534
4   -0.166522
5   -0.152858
6   -0.047551
7   0.125931
8   -0.388935
9   -0.364482
10   0.161453
11   0.164133
12   0.163817
13   0.163745
14   0.166405
15   0.260113
16   0.356813

$$$$
PCCDB-ID:  2345
     RDKit          3D

 28 29  0  0  0  0  0  0  0  0999 V2000
   -0.1355   -1.2895   -2.7877 C   0  0  0  0  0  0  0  0  0  0  0  0
    6.5145   -3.9741    2.5784 C   0  0  0  0  0  0  0  0  0  0  0  0
   -0.4746   -0.8824   -1.4961 C   0  0  0  0  0  0  0  0  0  0  0  0
    1.1716   -1.1192   -3.2491 C   0  0  0  0  0  0  0  0  0  0  0  0
    5.3229   -3.3749    2.9941 C   0  0  0  0  0  0  0  0  0  0  0  0
    7.0878   -3.6183    1.3547 C   0  0  0  0  0  0  0  0  0  0  0  0
    0.4922   -0.3062   -0.6718 C   0  0  0  0  0  0  0  0  0  0  0  0
    2.1376   -0.5437   -2.4235 C   0  0  0  0  0  0  0  0  0  0  0  0
    4.7029   -2.4194    2.1908 C   0  0  0  0  0  0  0  0  0  0  0  0
    6.4710   -2.6650    0.5486 C   0  0  0  0  0  0  0  0  0  0  0  0
    2.8457    0.4850   -0.2231 C   0  0  0  0  0  0  0  0  0  0  0  0
    1.8054   -0.1312   -1.1257 C   0  0  0  0  0  0  0  0  0  0  0  0
    5.2763   -2.0604    0.9630 C   0  0  0  0  0  0  0  0  0  0  0  0
    4.6614   -1.0449    0.0611 C   0  0  0  0  0  0  0  0  0  0  0  0
    5.1264   -0.7204   -1.0162 O   0  0  0  0  0  0  0  0  0  0  0  0
    3.5298   -0.5159    0.5809 O   0  0  0  0  0  0  0  0  0  0  0  0
   -0.8876   -1.7356   -3.4332 H   0  0  0  0  0  0  0  0  0  0  0  0
    6.9956   -4.7184    3.2075 H   0  0  0  0  0  0  0  0  0  0  0  0
   -1.4909   -1.0095   -1.1326 H   0  0  0  0  0  0  0  0  0  0  0  0
    1.4394   -1.4336   -4.2544 H   0  0  0  0  0  0  0  0  0  0  0  0
    4.8769   -3.6522    3.9453 H   0  0  0  0  0  0  0  0  0  0  0  0
    8.0138   -4.0848    1.0303 H   0  0  0  0  0  0  0  0  0  0  0  0
    0.2261    0.0140    0.3333 H   0  0  0  0  0  0  0  0  0  0  0  0
    3.1578   -0.4196   -2.7741 H   0  0  0  0  0  0  0  0  0  0  0  0
    3.7772   -1.9510    2.5053 H   0  0  0  0  0  0  0  0  0  0  0  0
    6.8971   -2.3729   -0.4055 H   0  0  0  0  0  0  0  0  0  0  0  0
    2.3837    1.1452    0.5144 H   0  0  0  0  0  0  0  0  0  0  0  0
    3.5943    1.0369   -0.7941 H   0  0  0  0  0  0  0  0  0  0  0  0
  1  3  2  0
  2  5  2  0
  2 18  1  0
  3 19  1  0
  3  7  1  0
  4  1  1  0
  4  8  2  0
  5 21  1  0
  6  2  1  0
  7 23  1  0
  8 12  1  0
  9 25  1  0
  9  5  1  0
 10 13  1  0
 10  6  2  0
 11 27  1  0
 11 16  1  0
 12  7  2  0
 12 11  1  0
 13  9  2  0
 14 16  1  0
 14 13  1  0
 15 14  2  0
 17  1  1  0
 20  4  1  0
 22  6  1  0
 24  8  1  0
 26 10  1  0
 28 11  1  0
M  END
>  <HBA>  (532) 
2

>  <HBD>  (532) 
0

>  <TPSA>  (532) 
26.3

>  <cid>  (532) 
2345

>  <dipole>  (532) 
1.76

>  <excitation_energy_1>  (532) 
4.761

>  <excitation_energy_2>  (532) 
4.908

>  <excitation_energy_3>  (532) 
4.993

>  <excitation_energy_4>  (532) 
5.056

>  <homo_energy>  (532) 
-6.735

>  <homo_lumo_gap>  (532) 
5.557

>  <logP>  (532) 
3.044

>  <lumo_energy>  (532) 
-1.178

>  <melting_point>  (532) 
59.65

>  <molecular_refractivity>  (532) 
62.21

>  <oscillator_strength_1>  (532) 
0.0043

>  <oscillator_strength_2>  (532) 
0.0167

>  <oscillator_strength_3>  (532) 
0.001

>  <oscillator_strength_4>  (532) 
0.0235

>  <open_babel_can_smiles>  (532) 
O=C(c1ccccc1)OCc1ccccc1

>  <mulliken_charges>  (532) 
28
1   -0.125674
2   -0.116709
3   -0.129318
4   -0.130497
5   -0.136927
6   -0.138451
7   -0.172105
8   -0.176669
9   -0.156684
10   -0.151566
11   -0.141917
12   0.148189
13   0.049039
14   0.602205
15   -0.495956
16   -0.475081
17   0.131388
18   0.136454
19   0.130991
20   0.13358
21   0.135931
22   0.137422
23   0.127557
24   0.161153
25   0.156279
26   0.162564
27   0.155798
28   0.179004

>  <lowdin_charges>  (532) 
28
1   -0.15337
2   -0.141222
3   -0.155901
4   -0.153665
5   -0.157322
6   -0.156263
7   -0.156008
8   -0.152471
9   -0.137989
10   -0.129935
11   -0.130955
12   -0.024278
13   -0.04532
14   0.200768
15   -0.277492
16   -0.191265
17   0.159848
18   0.16208
19   0.157482
20   0.158661
21   0.16058
22   0.161498
23   0.155481
24   0.171028
25   0.172321
26   0.176444
27   0.158757
28   0.168507

$$$$
PCCDB-ID:  2346
     RDKit          3D

 17 17  0  0  0  0  0  0  0  0999 V2000
   -1.7708    0.1637    0.0433 C   0  0  0  0  0  0  0  0  0  0  0  0
   -0.9737    1.3094    0.0728 C   0  0  0  0  0  0  0  0  0  0  0  0
   -1.1737   -1.0985    0.0313 C   0  0  0  0  0  0  0  0  0  0  0  0
    0.4164    1.1927    0.0891 C   0  0  0  0  0  0  0  0  0  0  0  0
    0.2160   -1.2132    0.0496 C   0  0  0  0  0  0  0  0  0  0  0  0
    2.5329   -0.1968    0.0806 C   0  0  0  0  0  0  0  0  0  0  0  0
    2.9776   -0.4949   -2.4084 C   0  0  0  0  0  0  0  0  0  0  0  0
    1.0216   -0.0690    0.0775 C   0  0  0  0  0  0  0  0  0  0  0  0
    3.1017   -0.2726   -1.2424 N   0  0  0  0  0  0  0  0  0  0  0  0
    2.9336   -0.7658   -3.9780 S   0  0  0  0  0  0  0  0  0  0  0  0
   -2.8535    0.2536    0.0328 H   0  0  0  0  0  0  0  0  0  0  0  0
   -1.4334    2.2938    0.0855 H   0  0  0  0  0  0  0  0  0  0  0  0
   -1.7897   -1.9933    0.0121 H   0  0  0  0  0  0  0  0  0  0  0  0
    1.0359    2.0864    0.1110 H   0  0  0  0  0  0  0  0  0  0  0  0
    0.6788   -2.1975    0.0420 H   0  0  0  0  0  0  0  0  0  0  0  0
    2.8424   -1.0967    0.6260 H   0  0  0  0  0  0  0  0  0  0  0  0
    2.9912    0.6583    0.5887 H   0  0  0  0  0  0  0  0  0  0  0  0
  1  2  2  0
  2 12  1  0
  2  4  1  0
  3  1  1  0
  3  5  2  0
  4 14  1  0
  5  8  1  0
  6 17  1  0
  6 16  1  0
  7  9  2  3
  8  6  1  0
  8  4  2  0
  9  6  1  0
 10  7  2  0
 11  1  1  0
 13  3  1  0
 15  5  1  0
M  END
>  <HBA>  (533) 
2

>  <HBD>  (533) 
0

>  <TPSA>  (533) 
44.45

>  <cid>  (533) 
2346

>  <dipole>  (533) 
3.88

>  <excitation_energy_1>  (533) 
4.54

>  <excitation_energy_2>  (533) 
5.017

>  <excitation_energy_3>  (533) 
5.215

>  <excitation_energy_4>  (533) 
5.353

>  <homo_energy>  (533) 
-6.553

>  <homo_lumo_gap>  (533) 
5.785

>  <logP>  (533) 
2.289

>  <lumo_energy>  (533) 
-0.767

>  <melting_point>  (533) 
55.9

>  <molecular_refractivity>  (533) 
45.38

>  <oscillator_strength_1>  (533) 
0.0005

>  <oscillator_strength_2>  (533) 
0.0472

>  <oscillator_strength_3>  (533) 
0.0028

>  <oscillator_strength_4>  (533) 
0.0074

>  <open_babel_can_smiles>  (533) 
S=C=NCc1ccccc1

>  <mulliken_charges>  (533) 
17
1   -0.124732
2   -0.127021
3   -0.126854
4   -0.168169
5   -0.167282
6   -0.236807
7   0.222608
8   0.149361
9   -0.341126
10   -0.131683
11   0.13767
12   0.138265
13   0.13879
14   0.135691
15   0.136678
16   0.182681
17   0.181931

>  <lowdin_charges>  (533) 
17
1   -0.146089
2   -0.15017
3   -0.150683
4   -0.157409
5   -0.156293
6   -0.167942
7   -0.045685
8   -0.01753
9   -0.105928
10   -0.047327
11   0.159793
12   0.161716
13   0.162859
14   0.160816
15   0.160299
16   0.169902
17   0.169669

$$$$
PCCDB-ID:  2355
     RDKit          3D

 24 26  0  0  0  0  0  0  0  0999 V2000
    2.0440   -0.4424   -0.2307 C   0  0  0  0  0  0  0  0  0  0  0  0
    3.0821    3.0140    0.8928 C   0  0  0  0  0  0  0  0  0  0  0  0
    3.0360    4.2819    1.3607 C   0  0  0  0  0  0  0  0  0  0  0  0
    4.1560   -1.8366    2.1454 C   0  0  0  0  0  0  0  0  0  0  0  0
    4.5570   -2.2001    3.3859 C   0  0  0  0  0  0  0  0  0  0  0  0
    4.1880    1.2645    4.0165 C   0  0  0  0  0  0  0  0  0  0  0  0
    3.4677    1.9227    1.7499 C   0  0  0  0  0  0  0  0  0  0  0  0
    3.9311   -0.4100    2.2040 C   0  0  0  0  0  0  0  0  0  0  0  0
    4.2399   -0.0336    3.5300 C   0  0  0  0  0  0  0  0  0  0  0  0
    3.8014    2.2340    3.0958 C   0  0  0  0  0  0  0  0  0  0  0  0
    3.3729    4.6027    2.7421 C   0  0  0  0  0  0  0  0  0  0  0  0
    3.5293    0.5860    1.3074 C   0  0  0  0  0  0  0  0  0  0  0  0
    3.3595    5.6994    3.2479 O   0  0  0  0  0  0  0  0  0  0  0  0
    3.2387    0.3141   -0.0062 O   0  0  0  0  0  0  0  0  0  0  0  0
    4.6160   -1.1298    4.2503 O   0  0  0  0  0  0  0  0  0  0  0  0
    3.7471    3.5216    3.5467 O   0  0  0  0  0  0  0  0  0  0  0  0
    1.9745   -0.5844   -1.3109 H   0  0  0  0  0  0  0  0  0  0  0  0
    1.1628    0.1054    0.1263 H   0  0  0  0  0  0  0  0  0  0  0  0
    2.0820   -1.4192    0.2644 H   0  0  0  0  0  0  0  0  0  0  0  0
    2.8386    2.7890   -0.1405 H   0  0  0  0  0  0  0  0  0  0  0  0
    2.7516    5.1234    0.7399 H   0  0  0  0  0  0  0  0  0  0  0  0
    4.0513   -2.4881    1.2903 H   0  0  0  0  0  0  0  0  0  0  0  0
    4.8400   -3.1486    3.8169 H   0  0  0  0  0  0  0  0  0  0  0  0
    4.4381    1.5253    5.0373 H   0  0  0  0  0  0  0  0  0  0  0  0
  1 14  1  0
  1 18  1  0
  1 19  1  0
  2  3  2  0
  2  7  1  0
  3 11  1  0
  4  8  1  0
  4  5  2  0
  5 23  1  0
  5 15  1  0
  6 24  1  0
  7 10  2  0
  8  9  1  0
  9  6  2  0
  9 15  1  0
 10 16  1  0
 10  6  1  0
 11 13  2  0
 11 16  1  0
 12  7  1  0
 12  8  2  0
 14 12  1  0
 17  1  1  0
 20  2  1  0
 21  3  1  0
 22  4  1  0
M  END
>  <HBA>  (534) 
4

>  <HBD>  (534) 
0

>  <TPSA>  (534) 
52.58

>  <cid>  (534) 
2355

>  <dipole>  (534) 
6.52

>  <excitation_energy_1>  (534) 
3.707

>  <excitation_energy_2>  (534) 
4.238

>  <excitation_energy_3>  (534) 
4.493

>  <excitation_energy_4>  (534) 
4.937

>  <homo_energy>  (534) 
-6.076

>  <homo_lumo_gap>  (534) 
4.343

>  <logP>  (534) 
2.548

>  <lumo_energy>  (534) 
-1.733

>  <melting_point>  (534) 
133.0

>  <molecular_refractivity>  (534) 
58.75

>  <oscillator_strength_1>  (534) 
0.0328

>  <oscillator_strength_2>  (534) 
0.27

>  <oscillator_strength_3>  (534) 
0.0

>  <oscillator_strength_4>  (534) 
0.0328

>  <open_babel_can_smiles>  (534) 
COc1c2ccc(=O)oc2cc2c1cco2

>  <mulliken_charges>  (534) 
24
1   -0.217798
2   -0.105908
3   -0.226574
4   -0.210412
5   0.08118
6   -0.242465
7   0.083279
8   0.113009
9   0.329347
10   0.311525
11   0.596545
12   0.179312
13   -0.464452
14   -0.527023
15   -0.479163
16   -0.525324
17   0.171775
18   0.155469
19   0.153755
20   0.166108
21   0.161984
22   0.156999
23   0.169642
24   0.16919

>  <lowdin_charges>  (534) 
24
1   -0.269029
2   -0.10307
3   -0.207173
4   -0.209419
5   -0.050583
6   -0.201476
7   -0.069117
8   -0.06112
9   0.102704
10   0.120081
11   0.195648
12   0.099562
13   -0.239574
14   -0.221426
15   -0.106254
16   -0.136922
17   0.161161
18   0.147911
19   0.145884
20   0.176538
21   0.182195
22   0.178433
23   0.178052
24   0.186995

$$$$
PCCDB-ID:  2358
     RDKit          3D

 24 25  0  0  1  0  0  0  0  0999 V2000
    2.6274    1.3000   -0.6926 C   0  0  0  0  0  0  0  0  0  0  0  0
    2.5730   -2.2745    0.0474 C   0  0  0  0  0  0  0  0  0  0  0  0
    3.2444   -3.4505   -0.2583 C   0  0  0  0  0  0  0  0  0  0  0  0
    4.0949   -1.0153   -1.3707 C   0  0  0  0  0  0  0  0  0  0  0  0
    2.9918   -1.0545   -0.5090 C   0  0  0  0  0  0  0  0  0  0  0  0
    4.3317   -3.4185   -1.1337 C   0  0  0  0  0  0  0  0  0  0  0  0
    4.7571   -2.2007   -1.6863 C   0  0  0  0  0  0  0  0  0  0  0  0
    6.1538   -4.5316   -2.2722 C   0  0  0  0  0  0  0  0  0  0  0  0
    6.8282   -3.1538   -2.2842 C   0  0  1  0  0  0  0  0  0  0  0  0
    5.0209   -4.5762   -1.5492 N   0  0  0  0  0  0  0  0  0  0  0  0
    6.5865   -5.5016   -2.9055 O   0  0  0  0  0  0  0  0  0  0  0  0
    7.7972   -3.1109   -3.2487 O   0  0  0  0  0  0  0  0  0  0  0  0
    4.3088   -5.7803   -1.5538 O   0  0  0  0  0  0  0  0  0  0  0  0
    2.2706    0.0406   -0.1415 O   0  0  0  0  0  0  0  0  0  0  0  0
    5.8081   -2.1645   -2.5664 O   0  0  0  0  0  0  0  0  0  0  0  0
    1.9147    2.0173   -0.2822 H   0  0  0  0  0  0  0  0  0  0  0  0
    2.5502    1.2960   -1.7875 H   0  0  0  0  0  0  0  0  0  0  0  0
    3.6448    1.5929   -0.4020 H   0  0  0  0  0  0  0  0  0  0  0  0
    1.7186   -2.2757    0.7152 H   0  0  0  0  0  0  0  0  0  0  0  0
    2.9182   -4.3995    0.1517 H   0  0  0  0  0  0  0  0  0  0  0  0
    4.4582   -0.0963   -1.8126 H   0  0  0  0  0  0  0  0  0  0  0  0
    7.2609   -2.9049   -1.3041 H   0  0  0  0  0  0  0  0  0  0  0  0
    7.6931   -3.9175   -3.7908 H   0  0  0  0  0  0  0  0  0  0  0  0
    4.8717   -6.3307   -2.1455 H   0  0  0  0  0  0  0  0  0  0  0  0
  1 18  1  0
  1 16  1  0
  1 14  1  0
  2 19  1  0
  3  2  2  0
  3 20  1  0
  4  5  2  0
  5 14  1  0
  5  2  1  0
  6  3  1  0
  7  4  1  0
  7  6  2  0
  8 10  1  0
  9  8  1  0
  9 22  1  1
 10  6  1  0
 11  8  2  0
 12  9  1  0
 13 10  1  0
 15  9  1  0
 15  7  1  0
 17  1  1  0
 21  4  1  0
 23 12  1  0
 24 13  1  0
M  END
>  <HBA>  (535) 
6

>  <HBD>  (535) 
2

>  <TPSA>  (535) 
79.23

>  <cid>  (535) 
2358

>  <dipole>  (535) 
2.48

>  <excitation_energy_1>  (535) 
4.358

>  <excitation_energy_2>  (535) 
4.558

>  <excitation_energy_3>  (535) 
4.92

>  <excitation_energy_4>  (535) 
5.374

>  <homo_energy>  (535) 
-5.706

>  <homo_lumo_gap>  (535) 
4.942

>  <logP>  (535) 
0.193

>  <lumo_energy>  (535) 
-0.765

>  <melting_point>  (535) 
142.04

>  <molecular_refractivity>  (535) 
51.74

>  <oscillator_strength_1>  (535) 
0.2147

>  <oscillator_strength_2>  (535) 
0.0138

>  <oscillator_strength_3>  (535) 
0.0167

>  <oscillator_strength_4>  (535) 
0.1439

>  <open_babel_can_smiles>  (535) 
COc1ccc2c(c1)O[C@@H](C(=O)N2O)O

>  <mulliken_charges>  (535) 
24
1   -0.218253
2   -0.186107
3   -0.161806
4   -0.273316
5   0.391178
6   0.314598
7   0.324561
8   0.525685
9   0.298872
10   -0.286357
11   -0.552052
12   -0.600969
13   -0.515103
14   -0.50743
15   -0.529883
16   0.174923
17   0.157955
18   0.156301
19   0.147266
20   0.167697
21   0.153349
22   0.162217
23   0.42202
24   0.434654

>  <lowdin_charges>  (535) 
24
1   -0.274926
2   -0.186124
3   -0.148244
4   -0.230423
5   0.10912
6   -0.013647
7   0.093927
8   0.102156
9   0.088402
10   0.069397
11   -0.321703
12   -0.395249
13   -0.362319
14   -0.192947
15   -0.208
16   0.167033
17   0.146399
18   0.146821
19   0.172918
20   0.179946
21   0.178635
22   0.148758
23   0.362153
24   0.367917

$$$$
PCCDB-ID:  2360
     RDKit          3D

 20 19  0  0  1  0  0  0  0  0999 V2000
    0.8378   -0.5778    1.5906 C   0  0  0  0  0  0  0  0  0  0  0  0
   -0.0240   -1.6079    0.8340 C   0  0  1  0  0  0  0  0  0  0  0  0
   -0.8004    0.1823    3.2742 C   0  0  0  0  0  0  0  0  0  0  0  0
    0.5299   -1.7943   -0.5932 C   0  0  0  0  0  0  0  0  0  0  0  0
   -0.9237    0.4216    4.7935 C   0  0  0  0  0  0  0  0  0  0  0  0
   -0.1797   -2.9256    1.4648 N   0  0  0  0  0  0  0  0  0  0  0  0
    0.3998   -0.3645    2.9650 N   0  0  0  0  0  0  0  0  0  0  0  0
   -1.6924    0.4483    2.4834 O   0  0  0  0  0  0  0  0  0  0  0  0
    1.0848   -0.9132   -1.2080 O   0  0  0  0  0  0  0  0  0  0  0  0
    0.3175   -3.0208   -1.0923 O   0  0  0  0  0  0  0  0  0  0  0  0
   -2.1077    0.9423    5.1255 O   0  0  0  0  0  0  0  0  0  0  0  0
   -0.0371    0.1623    5.5821 O   0  0  0  0  0  0  0  0  0  0  0  0
    0.8169    0.3617    1.0307 H   0  0  0  0  0  0  0  0  0  0  0  0
    1.8787   -0.9141    1.6283 H   0  0  0  0  0  0  0  0  0  0  0  0
   -1.0282   -1.1836    0.7264 H   0  0  0  0  0  0  0  0  0  0  0  0
    0.6852   -3.2250    1.9140 H   0  0  0  0  0  0  0  0  0  0  0  0
   -0.8994   -2.9063    2.1824 H   0  0  0  0  0  0  0  0  0  0  0  0
    1.0524   -0.4691    3.7316 H   0  0  0  0  0  0  0  0  0  0  0  0
   -0.0975   -3.5294   -0.3519 H   0  0  0  0  0  0  0  0  0  0  0  0
   -2.0967    1.0684    6.0937 H   0  0  0  0  0  0  0  0  0  0  0  0
  1 14  1  0
  1  7  1  0
  2 15  1  6
  2  6  1  0
  2  1  1  0
  3  5  1  0
  4  2  1  0
  5 11  1  0
  5 12  2  0
  6 16  1  0
  6 17  1  0
  7  3  1  0
  7 18  1  0
  8  3  2  0
  9  4  2  0
 10  4  1  0
 10 19  1  0
 11 20  1  0
 13  1  1  0
M  END
>  <HBA>  (536) 
7

>  <HBD>  (536) 
4

>  <TPSA>  (536) 
129.72

>  <cid>  (536) 
2360

>  <dipole>  (536) 
5.96

>  <excitation_energy_1>  (536) 
3.984

>  <excitation_energy_2>  (536) 
4.57

>  <excitation_energy_3>  (536) 
5.338

>  <excitation_energy_4>  (536) 
5.456

>  <homo_energy>  (536) 
-6.983

>  <homo_lumo_gap>  (536) 
5.146

>  <logP>  (536) 
-1.31

>  <lumo_energy>  (536) 
-1.837

>  <melting_point>  (536) 
231.24

>  <molecular_refractivity>  (536) 
35.4

>  <oscillator_strength_1>  (536) 
0.0004

>  <oscillator_strength_2>  (536) 
0.0281

>  <oscillator_strength_3>  (536) 
0.0415

>  <oscillator_strength_4>  (536) 
0.002

>  <open_babel_can_smiles>  (536) 
N[C@H](C(=O)O)CNC(=O)C(=O)O

>  <mulliken_charges>  (536) 
20
1   -0.13396
2   -0.110507
3   0.551394
4   0.62105
5   0.530904
6   -0.764761
7   -0.603388
8   -0.494766
9   -0.466468
10   -0.580235
11   -0.529406
12   -0.470472
13   0.20623
14   0.157729
15   0.22193
16   0.316595
17   0.332984
18   0.359928
19   0.433565
20   0.421654

>  <lowdin_charges>  (536) 
20
1   -0.201128
2   -0.122219
3   0.122808
4   0.179099
5   0.169644
6   -0.542879
7   -0.259652
8   -0.272422
9   -0.256429
10   -0.352509
11   -0.303574
12   -0.263212
13   0.181031
14   0.158025
15   0.187841
16   0.265489
17   0.277179
18   0.301744
19   0.362146
20   0.369018

$$$$
PCCDB-ID:  2365
     RDKit          3D

  9  9  0  0  0  0  0  0  0  0999 V2000
    0.3523    1.0834   -0.0829 C   0  0  0  0  0  0  0  0  0  0  0  0
   -0.9895    0.3665    0.1335 C   0  0  0  0  0  0  0  0  0  0  0  0
    0.9384   -0.3154    0.1303 C   0  0  0  0  0  0  0  0  0  0  0  0
    2.0140   -0.8330    0.1534 O   0  0  0  0  0  0  0  0  0  0  0  0
   -0.2894   -0.9109    0.3169 O   0  0  0  0  0  0  0  0  0  0  0  0
    0.6452    1.8127    0.6765 H   0  0  0  0  0  0  0  0  0  0  0  0
    0.5306    1.4969   -1.0786 H   0  0  0  0  0  0  0  0  0  0  0  0
   -1.6588    0.3159   -0.7282 H   0  0  0  0  0  0  0  0  0  0  0  0
   -1.5435    0.6326    1.0364 H   0  0  0  0  0  0  0  0  0  0  0  0
  1  3  1  0
  1  2  1  0
  1  6  1  0
  2  5  1  0
  2  9  1  0
  3  4  2  0
  3  5  1  0
  7  1  1  0
  8  2  1  0
M  END
>  <HBA>  (537) 
2

>  <HBD>  (537) 
0

>  <TPSA>  (537) 
26.3

>  <cid>  (537) 
2365

>  <dipole>  (537) 
4.11

>  <excitation_energy_1>  (537) 
5.907

>  <excitation_energy_2>  (537) 
7.148

>  <excitation_energy_3>  (537) 
7.492

>  <excitation_energy_4>  (537) 
7.658

>  <homo_energy>  (537) 
-7.611

>  <homo_lumo_gap>  (537) 
7.777

>  <logP>  (537) 
-0.067

>  <lumo_energy>  (537) 
0.166

>  <melting_point>  (537) 
10.45

>  <molecular_refractivity>  (537) 
15.71

>  <oscillator_strength_1>  (537) 
0.0007

>  <oscillator_strength_2>  (537) 
0.0437

>  <oscillator_strength_3>  (537) 
0.0027

>  <oscillator_strength_4>  (537) 
0.0207

>  <open_babel_can_smiles>  (537) 
C1COC1=O

>  <mulliken_charges>  (537) 
9
1   -0.439197
2   -0.03643
3   0.622657
4   -0.427186
5   -0.442069
6   0.192871
7   0.192905
8   0.168196
9   0.168252

>  <lowdin_charges>  (537) 
9
1   -0.327757
2   -0.123248
3   0.19535
4   -0.208237
5   -0.212113
6   0.180712
7   0.179427
8   0.15787
9   0.157995

$$$$
PCCDB-ID:  2366
     RDKit          3D

 22 22  0  0  0  0  0  0  0  0999 V2000
    1.0189   -0.1015   -0.0848 C   0  0  0  0  0  0  0  0  0  0  0  0
    5.6004    4.4000    2.7890 C   0  0  0  0  0  0  0  0  0  0  0  0
    5.6610    5.3412    1.7628 C   0  0  0  0  0  0  0  0  0  0  0  0
    5.1944    3.1020    2.4853 C   0  0  0  0  0  0  0  0  0  0  0  0
    4.3900    1.3972    0.7785 C   0  0  0  0  0  0  0  0  0  0  0  0
    5.3096    4.9300    0.4763 C   0  0  0  0  0  0  0  0  0  0  0  0
    2.8720    1.3465    0.5403 C   0  0  0  0  0  0  0  0  0  0  0  0
    4.8623    2.7800    1.1626 C   0  0  0  0  0  0  0  0  0  0  0  0
    2.4552    0.0033    0.1479 N   0  0  0  0  0  0  0  0  0  0  0  0
    4.9201    3.6877    0.1712 N   0  0  0  0  0  0  0  0  0  0  0  0
    0.7784   -1.1102   -0.4371 H   0  0  0  0  0  0  0  0  0  0  0  0
    0.6195    0.6256   -0.8170 H   0  0  0  0  0  0  0  0  0  0  0  0
    0.4858    0.0564    0.8605 H   0  0  0  0  0  0  0  0  0  0  0  0
    5.8666    4.6702    3.8077 H   0  0  0  0  0  0  0  0  0  0  0  0
    5.9739    6.3643    1.9487 H   0  0  0  0  0  0  0  0  0  0  0  0
    5.1377    2.3416    3.2593 H   0  0  0  0  0  0  0  0  0  0  0  0
    4.9025    1.1006   -0.1460 H   0  0  0  0  0  0  0  0  0  0  0  0
    4.6528    0.6676    1.5521 H   0  0  0  0  0  0  0  0  0  0  0  0
    5.3462    5.6338   -0.3544 H   0  0  0  0  0  0  0  0  0  0  0  0
    2.6004    2.1240   -0.1978 H   0  0  0  0  0  0  0  0  0  0  0  0
    2.3483    1.6015    1.4720 H   0  0  0  0  0  0  0  0  0  0  0  0
    2.9484   -0.2536   -0.7064 H   0  0  0  0  0  0  0  0  0  0  0  0
  1  9  1  0
  1 13  1  0
  2 14  1  0
  3 15  1  0
  3  2  2  0
  4  2  1  0
  4 16  1  0
  5  8  1  0
  5 18  1  0
  6  3  1  0
  7  5  1  0
  7 21  1  0
  8  4  2  0
  9  7  1  0
 10  6  2  0
 10  8  1  0
 11  1  1  0
 12  1  1  0
 17  5  1  0
 19  6  1  0
 20  7  1  0
 22  9  1  0
M  END
>  <HBA>  (538) 
2

>  <HBD>  (538) 
1

>  <TPSA>  (538) 
24.92

>  <cid>  (538) 
2366

>  <dipole>  (538) 
1.23

>  <excitation_energy_1>  (538) 
4.578

>  <excitation_energy_2>  (538) 
4.888

>  <excitation_energy_3>  (538) 
4.938

>  <excitation_energy_4>  (538) 
5.229

>  <homo_energy>  (538) 
-5.853

>  <homo_lumo_gap>  (538) 
5.29

>  <logP>  (538) 
1.234

>  <lumo_energy>  (538) 
-0.563

>  <melting_point>  (538) 
48.51

>  <molecular_refractivity>  (538) 
41.62

>  <oscillator_strength_1>  (538) 
0.0127

>  <oscillator_strength_2>  (538) 
0.003

>  <oscillator_strength_3>  (538) 
0.0004

>  <oscillator_strength_4>  (538) 
0.0002

>  <open_babel_can_smiles>  (538) 
CNCCc1ccccn1

>  <mulliken_charges>  (538) 
22
1   -0.298932
2   -0.101795
3   -0.142758
4   -0.17068
5   -0.327059
6   0.036786
7   -0.114875
8   0.293507
9   -0.542832
10   -0.46218
11   0.14688
12   0.120826
13   0.150102
14   0.141468
15   0.135888
16   0.135157
17   0.150369
18   0.149315
19   0.13858
20   0.133756
21   0.135994
22   0.292484

>  <lowdin_charges>  (538) 
22
1   -0.360079
2   -0.126521
3   -0.180125
4   -0.185259
5   -0.282162
6   -0.088783
7   -0.199849
8   0.056506
9   -0.364644
10   -0.161219
11   0.149318
12   0.12237
13   0.147619
14   0.161561
15   0.162302
16   0.163307
17   0.15635
18   0.154062
19   0.156195
20   0.128153
21   0.140138
22   0.250759

$$$$
PCCDB-ID:  2383
     RDKit          3D

 24 23  0  0  0  0  0  0  0  0999 V2000
    0.6922   -0.5147    0.1914 C   0  0  0  0  0  0  0  0  0  0  0  0
    7.1349   -4.0378    4.5594 C   0  0  0  0  0  0  0  0  0  0  0  0
    4.2350   -1.0107    1.0247 C   0  0  0  0  0  0  0  0  0  0  0  0
    6.3855   -1.4179    2.1008 C   0  0  0  0  0  0  0  0  0  0  0  0
    2.7295   -0.9989    1.2632 C   0  0  0  0  0  0  0  0  0  0  0  0
    7.0349   -2.0220    3.3351 C   0  0  0  0  0  0  0  0  0  0  0  0
    4.9328   -1.4561    2.2255 N   0  0  0  0  0  0  0  0  0  0  0  0
    2.0957   -0.5735    0.0724 O   0  0  0  0  0  0  0  0  0  0  0  0
    6.6588   -3.3892    3.4002 O   0  0  0  0  0  0  0  0  0  0  0  0
    0.2990   -0.1759   -0.7710 H   0  0  0  0  0  0  0  0  0  0  0  0
    0.3767    0.1932    0.9754 H   0  0  0  0  0  0  0  0  0  0  0  0
    0.2595   -1.5015    0.4260 H   0  0  0  0  0  0  0  0  0  0  0  0
    6.7901   -5.0744    4.5160 H   0  0  0  0  0  0  0  0  0  0  0  0
    6.7469   -3.5688    5.4779 H   0  0  0  0  0  0  0  0  0  0  0  0
    8.2360   -4.0300    4.6066 H   0  0  0  0  0  0  0  0  0  0  0  0
    4.5582    0.0113    0.7902 H   0  0  0  0  0  0  0  0  0  0  0  0
    4.4512   -1.6245    0.1304 H   0  0  0  0  0  0  0  0  0  0  0  0
    6.7600   -1.9531    1.2071 H   0  0  0  0  0  0  0  0  0  0  0  0
    6.7074   -0.3721    2.0079 H   0  0  0  0  0  0  0  0  0  0  0  0
    2.4908   -0.3256    2.1024 H   0  0  0  0  0  0  0  0  0  0  0  0
    2.3795   -2.0092    1.5455 H   0  0  0  0  0  0  0  0  0  0  0  0
    6.6924   -1.4886    4.2366 H   0  0  0  0  0  0  0  0  0  0  0  0
    8.1323   -1.9276    3.2754 H   0  0  0  0  0  0  0  0  0  0  0  0
    4.6732   -2.4199    2.4329 H   0  0  0  0  0  0  0  0  0  0  0  0
  1 12  1  0
  1 11  1  0
  2 15  1  0
  2 14  1  0
  3  5  1  0
  3  7  1  0
  4  7  1  0
  4  6  1  0
  5 21  1  0
  5 20  1  0
  6  9  1  0
  6 22  1  0
  7 24  1  0
  8  1  1  0
  8  5  1  0
  9  2  1  0
 10  1  1  0
 13  2  1  0
 16  3  1  0
 17  3  1  0
 18  4  1  0
 19  4  1  0
 23  6  1  0
M  END
>  <HBA>  (539) 
3

>  <HBD>  (539) 
1

>  <TPSA>  (539) 
30.49

>  <cid>  (539) 
2383

>  <dipole>  (539) 
1.46

>  <excitation_energy_1>  (539) 
5.721

>  <excitation_energy_2>  (539) 
5.901

>  <excitation_energy_3>  (539) 
6.068

>  <excitation_energy_4>  (539) 
6.164

>  <homo_energy>  (539) 
-5.91

>  <homo_lumo_gap>  (539) 
8.319

>  <logP>  (539) 
0.26

>  <lumo_energy>  (539) 
2.408

>  <melting_point>  (539) 
-17.28

>  <molecular_refractivity>  (539) 
35.93

>  <oscillator_strength_1>  (539) 
0.0008

>  <oscillator_strength_2>  (539) 
0.0144

>  <oscillator_strength_3>  (539) 
0.0223

>  <oscillator_strength_4>  (539) 
0.0194

>  <open_babel_can_smiles>  (539) 
COCCNCCOC

>  <mulliken_charges>  (539) 
24
1   -0.188577
2   -0.189984
3   -0.129911
4   -0.121513
5   -0.012145
6   -0.022548
7   -0.571803
8   -0.464503
9   -0.468344
10   0.156358
11   0.128981
12   0.127697
13   0.157753
14   0.133058
15   0.130572
16   0.146964
17   0.126091
18   0.123446
19   0.138915
20   0.130454
21   0.110208
22   0.131109
23   0.119497
24   0.308227

>  <lowdin_charges>  (539) 
24
1   -0.278222
2   -0.275556
3   -0.205656
4   -0.204089
5   -0.133042
6   -0.131206
7   -0.364499
8   -0.271647
9   -0.278482
10   0.154065
11   0.131836
12   0.129966
13   0.153532
14   0.133512
15   0.129609
16   0.145548
17   0.125185
18   0.125389
19   0.144935
20   0.132454
21   0.119863
22   0.133916
23   0.127034
24   0.255556

$$$$
PCCDB-ID:  2438
     RDKit          3D

 35 37  0  0  0  0  0  0  0  0999 V2000
    0.9195   -0.0473    0.2737 C   0  0  0  0  0  0  0  0  0  0  0  0
    9.6694   -1.2650    3.7671 C   0  0  0  0  0  0  0  0  0  0  0  0
    9.9041   -0.6570    2.5383 C   0  0  0  0  0  0  0  0  0  0  0  0
    4.4419   -1.1264    1.0879 C   0  0  0  0  0  0  0  0  0  0  0  0
    4.4397    1.2958    0.4543 C   0  0  0  0  0  0  0  0  0  0  0  0
    2.9150   -1.0612    1.1778 C   0  0  0  0  0  0  0  0  0  0  0  0
    2.9134    1.2774    0.5731 C   0  0  0  0  0  0  0  0  0  0  0  0
    7.2574   -0.9767    3.5360 C   0  0  0  0  0  0  0  0  0  0  0  0
    7.3932    0.6750    0.2921 C   0  0  0  0  0  0  0  0  0  0  0  0
    5.0818    0.2501    1.3813 C   0  0  0  0  0  0  0  0  0  0  0  0
    8.3566   -1.4220    4.2611 C   0  0  0  0  0  0  0  0  0  0  0  0
    7.4711   -0.3622    2.2906 C   0  0  0  0  0  0  0  0  0  0  0  0
    6.5857    0.2113    1.3032 C   0  0  0  0  0  0  0  0  0  0  0  0
    8.8007   -0.2100    1.8097 C   0  0  0  0  0  0  0  0  0  0  0  0
    8.7206    0.4236    0.5836 N   0  0  0  0  0  0  0  0  0  0  0  0
    2.3733   -0.0476    0.2732 N   0  0  0  0  0  0  0  0  0  0  0  0
    8.1144   -2.0221    5.4757 O   0  0  0  0  0  0  0  0  0  0  0  0
    0.5491   -1.0390   -0.0094 H   0  0  0  0  0  0  0  0  0  0  0  0
    0.5488    0.6768   -0.4608 H   0  0  0  0  0  0  0  0  0  0  0  0
    0.4811    0.2117    1.2587 H   0  0  0  0  0  0  0  0  0  0  0  0
   10.5097   -1.6256    4.3579 H   0  0  0  0  0  0  0  0  0  0  0  0
   10.9183   -0.5380    2.1663 H   0  0  0  0  0  0  0  0  0  0  0  0
    4.7319   -1.4440    0.0783 H   0  0  0  0  0  0  0  0  0  0  0  0
    4.8211   -1.8809    1.7872 H   0  0  0  0  0  0  0  0  0  0  0  0
    4.8161    2.2986    0.6922 H   0  0  0  0  0  0  0  0  0  0  0  0
    4.7090    1.0804   -0.5883 H   0  0  0  0  0  0  0  0  0  0  0  0
    2.6151   -0.8628    2.2298 H   0  0  0  0  0  0  0  0  0  0  0  0
    2.4825   -2.0315    0.9037 H   0  0  0  0  0  0  0  0  0  0  0  0
    2.4744    1.9938   -0.1323 H   0  0  0  0  0  0  0  0  0  0  0  0
    2.6207    1.6117    1.5921 H   0  0  0  0  0  0  0  0  0  0  0  0
    6.2620   -1.1124    3.9473 H   0  0  0  0  0  0  0  0  0  0  0  0
    7.1279    1.1754   -0.6286 H   0  0  0  0  0  0  0  0  0  0  0  0
    4.8090    0.5198    2.4150 H   0  0  0  0  0  0  0  0  0  0  0  0
    9.5032    0.6890    0.0078 H   0  0  0  0  0  0  0  0  0  0  0  0
    8.9627   -2.2680    5.8741 H   0  0  0  0  0  0  0  0  0  0  0  0
  1 20  1  0
  2 11  2  0
  2 21  1  0
  3  2  1  0
  4  6  1  0
  4 10  1  0
  4 24  1  0
  5  7  1  0
  5 25  1  0
  5 10  1  0
  6 27  1  0
  7 30  1  0
  8 31  1  0
  8 11  1  0
  9 15  1  0
  9 13  2  0
 10 33  1  0
 11 17  1  0
 12  8  2  0
 13 10  1  0
 13 12  1  0
 14 12  1  0
 14  3  2  0
 15 14  1  0
 16  1  1  0
 16  7  1  0
 16  6  1  0
 17 35  1  0
 18  1  1  0
 19  1  1  0
 22  3  1  0
 23  4  1  0
 26  5  1  0
 28  6  1  0
 29  7  1  0
 32  9  1  0
 34 15  1  0
M  END
>  <HBA>  (540) 
2

>  <HBD>  (540) 
2

>  <TPSA>  (540) 
39.26

>  <cid>  (540) 
2438

>  <dipole>  (540) 
2.59

>  <excitation_energy_1>  (540) 
4.293

>  <excitation_energy_2>  (540) 
4.554

>  <excitation_energy_3>  (540) 
4.66

>  <excitation_energy_4>  (540) 
4.689

>  <homo_energy>  (540) 
-5.089

>  <homo_lumo_gap>  (540) 
4.98

>  <logP>  (540) 
2.621

>  <lumo_energy>  (540) 
-0.109

>  <melting_point>  (540) 
162.63

>  <molecular_refractivity>  (540) 
74.02

>  <oscillator_strength_1>  (540) 
0.0596

>  <oscillator_strength_2>  (540) 
0.0001

>  <oscillator_strength_3>  (540) 
0.0858

>  <oscillator_strength_4>  (540) 
0.0001

>  <open_babel_can_smiles>  (540) 
CN1CCC(CC1)c1c[nH]c2c1cc(O)cc2

>  <mulliken_charges>  (540) 
35
1   -0.288776
2   -0.218835
3   -0.167477
4   -0.260792
5   -0.268863
6   -0.117085
7   -0.118489
8   -0.259785
9   -0.008618
10   -0.169405
11   0.353877
12   0.07675
13   0.076014
14   0.317915
15   -0.705113
16   -0.378864
17   -0.656265
18   0.14605
19   0.144844
20   0.115504
21   0.110486
22   0.122494
23   0.139094
24   0.140217
25   0.134247
26   0.136458
27   0.103099
28   0.135096
29   0.132731
30   0.10412
31   0.131977
32   0.146881
33   0.12518
34   0.323285
35   0.402046

>  <lowdin_charges>  (540) 
35
1   -0.35575
2   -0.219447
3   -0.176716
4   -0.279891
5   -0.277418
6   -0.199339
7   -0.19992
8   -0.200506
9   -0.136089
10   -0.120265
11   0.092021
12   -0.023016
13   -0.063325
14   0.018884
15   -0.208124
16   -0.188116
17   -0.393833
18   0.148278
19   0.149008
20   0.11902
21   0.15153
22   0.155426
23   0.145882
24   0.151068
25   0.146305
26   0.141698
27   0.11025
28   0.14432
29   0.14481
30   0.111453
31   0.164111
32   0.163706
33   0.140011
34   0.290671
35   0.353304

$$$$
PCCDB-ID:  2519
     RDKit          3D

 24 25  0  0  0  0  0  0  0  0999 V2000
    1.0163   -0.1814   -0.0569 C   0  0  0  0  0  0  0  0  0  0  0  0
    6.9896    1.0755   -0.1545 C   0  0  0  0  0  0  0  0  0  0  0  0
    3.7743    4.7364   -0.0945 C   0  0  0  0  0  0  0  0  0  0  0  0
    3.3592   -1.1221   -0.0971 C   0  0  0  0  0  0  0  0  0  0  0  0
    3.2356    1.0609   -0.0911 C   0  0  0  0  0  0  0  0  0  0  0  0
    4.5468    0.6259   -0.1152 C   0  0  0  0  0  0  0  0  0  0  0  0
    2.8517    2.4415   -0.0814 C   0  0  0  0  0  0  0  0  0  0  0  0
    5.3400    2.8845   -0.1276 C   0  0  0  0  0  0  0  0  0  0  0  0
    4.6301   -0.7313   -0.1191 N   0  0  0  0  0  0  0  0  0  0  0  0
    2.4710   -0.0973   -0.0791 N   0  0  0  0  0  0  0  0  0  0  0  0
    5.5956    1.5161   -0.1323 N   0  0  0  0  0  0  0  0  0  0  0  0
    3.9906    3.2864   -0.1013 N   0  0  0  0  0  0  0  0  0  0  0  0
    1.7029    2.8755   -0.0593 O   0  0  0  0  0  0  0  0  0  0  0  0
    6.2485    3.7025   -0.1449 O   0  0  0  0  0  0  0  0  0  0  0  0
    0.7337   -1.2362   -0.0578 H   0  0  0  0  0  0  0  0  0  0  0  0
    0.5956    0.3153   -0.9340 H   0  0  0  0  0  0  0  0  0  0  0  0
    0.6227    0.3065    0.8375 H   0  0  0  0  0  0  0  0  0  0  0  0
    6.9931   -0.0140   -0.1568 H   0  0  0  0  0  0  0  0  0  0  0  0
    7.5169    1.4538    0.7250 H   0  0  0  0  0  0  0  0  0  0  0  0
    7.4894    1.4579   -1.0481 H   0  0  0  0  0  0  0  0  0  0  0  0
    2.6991    4.9032   -0.0676 H   0  0  0  0  0  0  0  0  0  0  0  0
    4.2099    5.1831   -0.9915 H   0  0  0  0  0  0  0  0  0  0  0  0
    4.2547    5.1818    0.7799 H   0  0  0  0  0  0  0  0  0  0  0  0
    3.0344   -2.1543   -0.0943 H   0  0  0  0  0  0  0  0  0  0  0  0
  1 17  1  0
  2 11  1  0
  2 19  1  0
  3 21  1  0
  3 23  1  0
  4 24  1  0
  4 10  1  0
  5  7  1  0
  5 10  1  0
  6  5  2  0
  7 13  2  0
  8 12  1  0
  9  6  1  0
  9  4  2  0
 10  1  1  0
 11  8  1  0
 11  6  1  0
 12  3  1  0
 12  7  1  0
 14  8  2  0
 15  1  1  0
 16  1  1  0
 18  2  1  0
 20  2  1  0
 22  3  1  0
M  END
>  <HBA>  (541) 
6

>  <HBD>  (541) 
0

>  <TPSA>  (541) 
61.82

>  <cid>  (541) 
2519

>  <dipole>  (541) 
3.83

>  <excitation_energy_1>  (541) 
4.622

>  <excitation_energy_2>  (541) 
4.96

>  <excitation_energy_3>  (541) 
5.33

>  <excitation_energy_4>  (541) 
5.608

>  <homo_energy>  (541) 
-5.959

>  <homo_lumo_gap>  (541) 
5.143

>  <logP>  (541) 
-1.029

>  <lumo_energy>  (541) 
-0.816

>  <melting_point>  (541) 
143.54

>  <molecular_refractivity>  (541) 
52.04

>  <oscillator_strength_1>  (541) 
0.1368

>  <oscillator_strength_2>  (541) 
0.0

>  <oscillator_strength_3>  (541) 
0.0016

>  <oscillator_strength_4>  (541) 
0.0157

>  <open_babel_can_smiles>  (541) 
Cn1cnc2c1c(=O)n(C)c(=O)n2C

>  <mulliken_charges>  (541) 
24
1   -0.315086
2   -0.321667
3   -0.314767
4   0.220041
5   0.218189
6   0.475147
7   0.632169
8   0.785225
9   -0.511426
10   -0.484322
11   -0.589481
12   -0.574413
13   -0.540063
14   -0.526678
15   0.166143
16   0.199056
17   0.198936
18   0.197655
19   0.181458
20   0.181697
21   0.197998
22   0.177258
23   0.177475
24   0.169455

>  <lowdin_charges>  (541) 
24
1   -0.338481
2   -0.340755
3   -0.347996
4   -0.062235
5   -0.081989
6   0.063597
7   0.157445
8   0.193157
9   -0.20512
10   0.012373
11   -0.057696
12   -0.093102
13   -0.311889
14   -0.310138
15   0.163503
16   0.178493
17   0.178236
18   0.178413
19   0.168822
20   0.168891
21   0.179696
22   0.166618
23   0.166981
24   0.173176

$$$$
PCCDB-ID:  2526
     RDKit          3D

 19 18  0  0  0  0  0  0  0  0999 V2000
    1.3778   -1.3855   -0.0480 C   0  0  0  0  0  0  0  0  0  0  0  0
    2.3439   -1.0000    2.2772 C   0  0  0  0  0  0  0  0  0  0  0  0
    1.4300   -0.4699    1.1759 C   0  0  0  0  0  0  0  0  0  0  0  0
    0.6598   -0.8145   -1.1467 O   0  0  0  0  0  0  0  0  0  0  0  0
    2.3403   -0.1595    3.4118 O   0  0  0  0  0  0  0  0  0  0  0  0
    1.5966    3.2933    0.4034 O   0  0  0  0  0  0  0  0  0  0  0  0
    1.6097    1.7606   -1.5485 O   0  0  0  0  0  0  0  0  0  0  0  0
   -0.4070    1.6306    0.1558 O   0  0  0  0  0  0  0  0  0  0  0  0
    1.9678    0.8290    0.8135 O   0  0  0  0  0  0  0  0  0  0  0  0
    1.0426    1.8574   -0.0433 P   0  0  0  0  0  0  0  0  0  0  0  0
    0.9356   -2.3494    0.2406 H   0  0  0  0  0  0  0  0  0  0  0  0
    2.3882   -1.5716   -0.4243 H   0  0  0  0  0  0  0  0  0  0  0  0
    3.3601   -1.1299    1.8694 H   0  0  0  0  0  0  0  0  0  0  0  0
    1.9845   -1.9798    2.6083 H   0  0  0  0  0  0  0  0  0  0  0  0
    0.4247   -0.3156    1.5836 H   0  0  0  0  0  0  0  0  0  0  0  0
   -0.1986   -0.4848   -0.8193 H   0  0  0  0  0  0  0  0  0  0  0  0
    2.5678    0.7304    3.0949 H   0  0  0  0  0  0  0  0  0  0  0  0
    2.3154    3.5987   -0.1741 H   0  0  0  0  0  0  0  0  0  0  0  0
    1.4181    0.8449   -1.8549 H   0  0  0  0  0  0  0  0  0  0  0  0
  1 11  1  0
  1  3  1  0
  2 14  1  0
  2  5  1  0
  3 15  1  0
  3  2  1  0
  4 16  1  0
  4  1  1  0
  7 10  1  0
  9  3  1  0
 10  8  2  0
 10  6  1  0
 10  9  1  0
 12  1  1  0
 13  2  1  0
 17  5  1  0
 18  6  1  0
 19  7  1  0
M  END
>  <HBA>  (542) 
6

>  <HBD>  (542) 
4

>  <TPSA>  (542) 
117.03

>  <cid>  (542) 
2526

>  <dipole>  (542) 
3.45

>  <excitation_energy_1>  (542) 
6.586

>  <excitation_energy_2>  (542) 
6.839

>  <excitation_energy_3>  (542) 
6.985

>  <excitation_energy_4>  (542) 
7.263

>  <homo_energy>  (542) 
-7.557

>  <homo_lumo_gap>  (542) 
8.275

>  <logP>  (542) 
-1.551

>  <lumo_energy>  (542) 
0.718

>  <melting_point>  (542) 
92.39

>  <molecular_refractivity>  (542) 
30.93

>  <oscillator_strength_1>  (542) 
0.0094

>  <oscillator_strength_2>  (542) 
0.0043

>  <oscillator_strength_3>  (542) 
0.0226

>  <oscillator_strength_4>  (542) 
0.0031

>  <open_babel_can_smiles>  (542) 
OCC(OP(=O)(O)O)CO

>  <mulliken_charges>  (542) 
19
1   -0.037301
2   -0.029044
3   0.051446
4   -0.643277
5   -0.61367
6   -0.625441
7   -0.679042
8   -0.582598
9   -0.560333
10   1.203443
11   0.15109
12   0.163618
13   0.132444
14   0.153076
15   0.179705
16   0.42408
17   0.408606
18   0.44568
19   0.457521

>  <lowdin_charges>  (542) 
19
1   -0.145252
2   -0.138635
3   -0.027852
4   -0.457381
5   -0.453411
6   -0.547096
7   -0.585836
8   -0.593946
9   -0.408299
10   1.118218
11   0.148883
12   0.156404
13   0.133984
14   0.155017
15   0.164451
16   0.36116
17   0.350338
18   0.391404
19   0.377848

$$$$
PCCDB-ID:  2527
     RDKit          3D

 35 34  0  0  1  0  0  0  0  0999 V2000
    4.2277    0.3651    1.9601 C   0  0  0  0  0  0  0  0  0  0  0  0
    1.9005    0.8569    2.7636 C   0  0  0  0  0  0  0  0  0  0  0  0
    0.9235    2.4283   -3.5757 C   0  0  0  0  0  0  0  0  0  0  0  0
    1.7949    2.1656   -4.8062 C   0  0  0  0  0  0  0  0  0  0  0  0
    1.3717    1.6413   -2.3347 C   0  0  0  0  0  0  0  0  0  0  0  0
    3.4091    2.7480    2.3079 C   0  0  0  0  0  0  0  0  0  0  0  0
    1.5792    0.8013   -5.4207 C   0  0  0  0  0  0  0  0  0  0  0  0
    2.4337    1.3329    0.3774 C   0  0  2  0  0  0  0  0  0  0  0  0
    3.2246    1.8916   -0.8333 C   0  0  0  0  0  0  0  0  0  0  0  0
    3.0354    1.3334    1.8271 C   0  0  0  0  0  0  0  0  0  0  0  0
    2.7434    1.9908   -2.0048 N   0  0  0  0  0  0  0  0  0  0  0  0
    4.7005    3.1380    1.8097 O   0  0  0  0  0  0  0  0  0  0  0  0
    0.7829   -0.0392   -5.0577 O   0  0  0  0  0  0  0  0  0  0  0  0
    2.4020    0.5976   -6.4829 O   0  0  0  0  0  0  0  0  0  0  0  0
    1.9930    0.0103    0.0441 O   0  0  0  0  0  0  0  0  0  0  0  0
    4.5377    2.2008   -0.6865 O   0  0  0  0  0  0  0  0  0  0  0  0
    4.6283    0.3858    2.9798 H   0  0  0  0  0  0  0  0  0  0  0  0
    5.0424    0.6066    1.2736 H   0  0  0  0  0  0  0  0  0  0  0  0
    3.8969   -0.6580    1.7548 H   0  0  0  0  0  0  0  0  0  0  0  0
    2.2737    0.7244    3.7855 H   0  0  0  0  0  0  0  0  0  0  0  0
    1.4974   -0.0948    2.4122 H   0  0  0  0  0  0  0  0  0  0  0  0
    1.0763    1.5815    2.7956 H   0  0  0  0  0  0  0  0  0  0  0  0
   -0.1201    2.1756   -3.7962 H   0  0  0  0  0  0  0  0  0  0  0  0
    0.9627    3.5006   -3.3477 H   0  0  0  0  0  0  0  0  0  0  0  0
    2.8536    2.2578   -4.5371 H   0  0  0  0  0  0  0  0  0  0  0  0
    1.6123    2.9093   -5.5928 H   0  0  0  0  0  0  0  0  0  0  0  0
    1.3024    0.5686   -2.5503 H   0  0  0  0  0  0  0  0  0  0  0  0
    0.6610    1.8326   -1.5153 H   0  0  0  0  0  0  0  0  0  0  0  0
    3.4411    2.7556    3.4055 H   0  0  0  0  0  0  0  0  0  0  0  0
    2.6402    3.4676    1.9891 H   0  0  0  0  0  0  0  0  0  0  0  0
    1.5075    1.9207    0.4348 H   0  0  0  0  0  0  0  0  0  0  0  0
    4.7922    4.1003    1.8788 H   0  0  0  0  0  0  0  0  0  0  0  0
    2.1923   -0.2963   -6.8127 H   0  0  0  0  0  0  0  0  0  0  0  0
    2.7302   -0.4484   -0.3885 H   0  0  0  0  0  0  0  0  0  0  0  0
    4.7244    2.4978    0.2333 H   0  0  0  0  0  0  0  0  0  0  0  0
  1 17  1  0
  2 22  1  0
  2 20  1  0
  3 24  1  0
  3  5  1  0
  4 25  1  0
  4  3  1  0
  5 11  1  0
  5 28  1  0
  6 29  1  0
  7 13  2  0
  7  4  1  0
  8 31  1  1
  8 10  1  0
  9 16  1  0
  9  8  1  0
 10  1  1  0
 10  6  1  0
 10  2  1  0
 11  9  2  0
 12 32  1  0
 12  6  1  0
 14  7  1  0
 15  8  1  0
 16 35  1  0
 18  1  1  0
 19  1  1  0
 21  2  1  0
 23  3  1  0
 26  4  1  0
 27  5  1  0
 30  6  1  0
 33 14  1  0
 34 15  1  0
M  END
>  <HBA>  (543) 
6

>  <HBD>  (543) 
4

>  <TPSA>  (543) 
106.86

>  <cid>  (543) 
2527

>  <dipole>  (543) 
4.63

>  <excitation_energy_1>  (543) 
5.084

>  <excitation_energy_2>  (543) 
5.437

>  <excitation_energy_3>  (543) 
5.584

>  <excitation_energy_4>  (543) 
5.789

>  <homo_energy>  (543) 
-6.261

>  <homo_lumo_gap>  (543) 
6.626

>  <logP>  (543) 
-0.262

>  <lumo_energy>  (543) 
0.365

>  <melting_point>  (543) 
152.43

>  <molecular_refractivity>  (543) 
57.02

>  <oscillator_strength_1>  (543) 
0.0004

>  <oscillator_strength_2>  (543) 
0.0015

>  <oscillator_strength_3>  (543) 
0.0002

>  <oscillator_strength_4>  (543) 
0.0067

>  <open_babel_can_smiles>  (543) 
OCC([C@@H](/C(=N\CCCC(=O)O)/O)O)(C)C

>  <mulliken_charges>  (543) 
35
1   -0.465586
2   -0.464029
3   -0.250305
4   -0.354115
5   -0.145749
6   -0.04877
7   0.575634
8   0.074028
9   0.405877
10   0.033022
11   -0.413417
12   -0.634253
13   -0.471624
14   -0.569362
15   -0.619854
16   -0.624629
17   0.147755
18   0.163261
19   0.150569
20   0.143607
21   0.184626
22   0.137786
23   0.144021
24   0.130583
25   0.207441
26   0.167191
27   0.170243
28   0.123094
29   0.146066
30   0.138284
31   0.145242
32   0.415769
33   0.40343
34   0.40457
35   0.449594

>  <lowdin_charges>  (543) 
35
1   -0.452432
2   -0.443834
3   -0.273368
4   -0.307316
5   -0.204176
6   -0.138238
7   0.200912
8   -0.033071
9   0.09207
10   -0.016484
11   -0.209282
12   -0.455348
13   -0.276933
14   -0.364688
15   -0.446312
16   -0.394309
17   0.153999
18   0.159577
19   0.153571
20   0.148678
21   0.170682
22   0.146854
23   0.150224
24   0.143533
25   0.185208
26   0.17013
27   0.155705
28   0.132356
29   0.142259
30   0.13896
31   0.15098
32   0.358124
33   0.356353
34   0.351916
35   0.353699

$$$$
PCCDB-ID:  2537
     RDKit          3D

 27 28  0  0  1  0  0  0  0  0999 V2000
    0.9766    0.0296    0.0612 C   0  0  0  0  0  0  0  0  0  0  0  0
    2.9869    0.0416    1.5127 C   0  0  0  0  0  0  0  0  0  0  0  0
    2.8796    2.6651   -0.3992 C   0  0  0  0  0  0  0  0  0  0  0  0
    2.6564   -0.7109   -2.2606 C   0  0  0  0  0  0  0  0  0  0  0  0
    2.6842    0.8485   -2.2539 C   0  0  0  0  0  0  0  0  0  0  0  0
    4.6572   -0.7156   -0.7995 C   0  0  0  0  0  0  0  0  0  0  0  0
    3.1551   -1.0677   -0.8391 C   0  0  1  0  0  0  0  0  0  0  0  0
    4.6188    0.8227   -0.7816 C   0  0  0  0  0  0  0  0  0  0  0  0
    2.5137    0.0546    0.0461 C   0  0  0  0  0  0  0  0  0  0  0  0
    3.1366    1.2239   -0.8017 C   0  0  1  0  0  0  0  0  0  0  0  0
    5.5730    1.5699   -0.7644 O   0  0  0  0  0  0  0  0  0  0  0  0
    0.6209   -0.8844    0.5533 H   0  0  0  0  0  0  0  0  0  0  0  0
    0.5255    0.0636   -0.9334 H   0  0  0  0  0  0  0  0  0  0  0  0
    0.5832    0.8798    0.6307 H   0  0  0  0  0  0  0  0  0  0  0  0
    2.6948   -0.8964    2.0008 H   0  0  0  0  0  0  0  0  0  0  0  0
    2.5198    0.8595    2.0732 H   0  0  0  0  0  0  0  0  0  0  0  0
    4.0694    0.1524    1.6274 H   0  0  0  0  0  0  0  0  0  0  0  0
    3.4454    3.3464   -1.0434 H   0  0  0  0  0  0  0  0  0  0  0  0
    3.2011    2.8563    0.6304 H   0  0  0  0  0  0  0  0  0  0  0  0
    1.8163    2.9186   -0.4811 H   0  0  0  0  0  0  0  0  0  0  0  0
    3.3061   -1.1376   -3.0322 H   0  0  0  0  0  0  0  0  0  0  0  0
    1.6489   -1.0952   -2.4457 H   0  0  0  0  0  0  0  0  0  0  0  0
    1.6952    1.2760   -2.4508 H   0  0  0  0  0  0  0  0  0  0  0  0
    3.3634    1.2673   -3.0043 H   0  0  0  0  0  0  0  0  0  0  0  0
    5.2214   -1.0807   -1.6651 H   0  0  0  0  0  0  0  0  0  0  0  0
    5.1707   -1.0834    0.0956 H   0  0  0  0  0  0  0  0  0  0  0  0
    2.9251   -2.0907   -0.5247 H   0  0  0  0  0  0  0  0  0  0  0  0
  1 12  1  0
  1 14  1  0
  2 17  1  0
  2 15  1  0
  2 16  1  0
  3 19  1  0
  4  5  1  0
  4  7  1  0
  5 10  1  0
  6  8  1  0
  6 26  1  0
  7  6  1  0
  7 27  1  1
  7  9  1  0
  8 11  2  0
  9  1  1  0
  9  2  1  0
 10  8  1  0
 10  3  1  1
 10  9  1  0
 13  1  1  0
 18  3  1  0
 20  3  1  0
 21  4  1  0
 22  4  1  0
 23  5  1  0
 24  5  1  0
 25  6  1  0
M  END
>  <HBA>  (544) 
1

>  <HBD>  (544) 
0

>  <TPSA>  (544) 
17.07

>  <cid>  (544) 
2537

>  <dipole>  (544) 
2.96

>  <excitation_energy_1>  (544) 
4.217

>  <excitation_energy_2>  (544) 
5.865

>  <excitation_energy_3>  (544) 
6.205

>  <excitation_energy_4>  (544) 
6.295

>  <homo_energy>  (544) 
-6.234

>  <homo_lumo_gap>  (544) 
6.006

>  <logP>  (544) 
2.402

>  <lumo_energy>  (544) 
-0.229

>  <melting_point>  (544) 
74.7

>  <molecular_refractivity>  (544) 
45.64

>  <oscillator_strength_1>  (544) 
0.0003

>  <oscillator_strength_2>  (544) 
0.0044

>  <oscillator_strength_3>  (544) 
0.0116

>  <oscillator_strength_4>  (544) 
0.0064

>  <open_babel_can_smiles>  (544) 
O=C1C[C@H]2C([C@]1(C)CC2)(C)C

>  <mulliken_charges>  (544) 
27
1   -0.466946
2   -0.47176
3   -0.477019
4   -0.280341
5   -0.301734
6   -0.359058
7   -0.112511
8   0.441434
9   0.086737
10   0.02618
11   -0.463731
12   0.144234
13   0.14697
14   0.147352
15   0.144676
16   0.149665
17   0.15413
18   0.163043
19   0.151834
20   0.138742
21   0.138738
22   0.143227
23   0.149323
24   0.152945
25   0.164
26   0.171693
27   0.118176

>  <lowdin_charges>  (544) 
27
1   -0.446477
2   -0.447735
3   -0.439793
4   -0.286889
5   -0.282297
6   -0.318653
7   -0.133796
8   0.155461
9   0.005042
10   -0.030118
11   -0.233969
12   0.152125
13   0.151636
14   0.152921
15   0.151859
16   0.154374
17   0.152584
18   0.164752
19   0.155077
20   0.147661
21   0.147561
22   0.146728
23   0.151062
24   0.153952
25   0.166158
26   0.169487
27   0.141286

$$$$
PCCDB-ID:  2544
     RDKit          3D

 29 30  0  0  1  0  0  0  0  0999 V2000
    1.2021    0.4293   -0.6974 C   0  0  0  0  0  0  0  0  0  0  0  0
    3.9373   -2.3050   -0.6117 C   0  0  0  0  0  0  0  0  0  0  0  0
    4.6129    0.8475    1.1871 C   0  0  0  0  0  0  0  0  0  0  0  0
    4.8081   -0.6007    1.7173 C   0  0  0  0  0  0  0  0  0  0  0  0
    3.1020    0.8654    0.8932 C   0  0  1  0  0  0  0  0  0  0  0  0
    3.3755   -1.1486    1.6250 C   0  0  2  0  0  0  0  0  0  0  0  0
    3.4578    0.3775   -1.6557 C   0  0  0  0  0  0  0  0  0  0  0  0
    1.5604   -2.1875    0.1593 C   0  0  0  0  0  0  0  0  0  0  0  0
    2.6791    0.0593   -0.3745 C   0  0  2  0  0  0  0  0  0  0  0  0
    2.9174   -1.4508    0.1620 C   0  0  2  0  0  0  0  0  0  0  0  0
    4.2717    1.2616   -1.7749 O   0  0  0  0  0  0  0  0  0  0  0  0
    3.1126   -0.3634   -2.7395 O   0  0  0  0  0  0  0  0  0  0  0  0
    1.2240   -2.9336   -0.7338 O   0  0  0  0  0  0  0  0  0  0  0  0
    0.7312   -1.9282    1.1899 O   0  0  0  0  0  0  0  0  0  0  0  0
    2.5738    0.0120    1.9500 O   0  0  0  0  0  0  0  0  0  0  0  0
    1.1699    1.4247   -1.1534 H   0  0  0  0  0  0  0  0  0  0  0  0
    0.5984    0.4570    0.2111 H   0  0  0  0  0  0  0  0  0  0  0  0
    0.7251   -0.2724   -1.3878 H   0  0  0  0  0  0  0  0  0  0  0  0
    4.2457   -3.1524    0.0109 H   0  0  0  0  0  0  0  0  0  0  0  0
    4.8320   -1.7376   -0.8788 H   0  0  0  0  0  0  0  0  0  0  0  0
    3.5042   -2.7234   -1.5203 H   0  0  0  0  0  0  0  0  0  0  0  0
    5.2050    1.0837    0.3047 H   0  0  0  0  0  0  0  0  0  0  0  0
    4.8391    1.5848    1.9624 H   0  0  0  0  0  0  0  0  0  0  0  0
    5.1274   -0.6056    2.7632 H   0  0  0  0  0  0  0  0  0  0  0  0
    5.5338   -1.1825    1.1460 H   0  0  0  0  0  0  0  0  0  0  0  0
    2.6281    1.8450    0.9598 H   0  0  0  0  0  0  0  0  0  0  0  0
    3.1485   -1.9538    2.3275 H   0  0  0  0  0  0  0  0  0  0  0  0
    2.4595   -1.0457   -2.5035 H   0  0  0  0  0  0  0  0  0  0  0  0
    1.1012   -1.1886    1.7207 H   0  0  0  0  0  0  0  0  0  0  0  0
  1  9  1  0
  1 17  1  0
  2 19  1  0
  2 10  1  0
  3  4  1  0
  3 23  1  0
  4 24  1  0
  5 26  1  6
  5  3  1  0
  5 15  1  0
  6  4  1  0
  6 15  1  0
  6 27  1  1
  8 14  1  0
  9  7  1  6
  9 10  1  0
  9  5  1  0
 10  8  1  1
 10  6  1  0
 11  7  2  0
 12 28  1  0
 12  7  1  0
 13  8  2  0
 14 29  1  0
 16  1  1  0
 18  1  1  0
 20  2  1  0
 21  2  1  0
 22  3  1  0
 25  4  1  0
M  END
>  <HBA>  (545) 
5

>  <HBD>  (545) 
2

>  <TPSA>  (545) 
83.83

>  <cid>  (545) 
2544

>  <dipole>  (545) 
3.05

>  <excitation_energy_1>  (545) 
5.431

>  <excitation_energy_2>  (545) 
5.57

>  <excitation_energy_3>  (545) 
6.55

>  <excitation_energy_4>  (545) 
6.593

>  <homo_energy>  (545) 
-7.426

>  <homo_lumo_gap>  (545) 
6.985

>  <logP>  (545) 
0.729

>  <lumo_energy>  (545) 
-0.441

>  <melting_point>  (545) 
198.68

>  <molecular_refractivity>  (545) 
50.06

>  <oscillator_strength_1>  (545) 
0.0042

>  <oscillator_strength_2>  (545) 
0.0004

>  <oscillator_strength_3>  (545) 
0.0026

>  <oscillator_strength_4>  (545) 
0.0069

>  <open_babel_can_smiles>  (545) 
OC(=O)[C@]1(C)[C@@H]2CC[C@H]([C@@]1(C)C(=O)O)O2

>  <mulliken_charges>  (545) 
29
1   -0.497874
2   -0.488684
3   -0.297718
4   -0.286108
5   0.096727
6   0.047148
7   0.61686
8   0.615471
9   -0.053883
10   -0.046427
11   -0.452319
12   -0.573183
13   -0.470198
14   -0.591823
15   -0.512348
16   0.177182
17   0.175731
18   0.173693
19   0.161585
20   0.169423
21   0.18175
22   0.195998
23   0.1565
24   0.160398
25   0.159634
26   0.156949
27   0.16011
28   0.426048
29   0.439357

>  <lowdin_charges>  (545) 
29
1   -0.452643
2   -0.451856
3   -0.299853
4   -0.293014
5   0.007299
6   -0.019223
7   0.192665
8   0.189223
9   -0.045135
10   -0.049417
11   -0.237584
12   -0.344753
13   -0.257454
14   -0.351548
15   -0.286449
16   0.167325
17   0.166649
18   0.164504
19   0.16254
20   0.162168
21   0.171255
22   0.177314
23   0.16005
24   0.158669
25   0.160578
26   0.161518
27   0.159735
28   0.365204
29   0.362234

$$$$
PCCDB-ID:  2545
     RDKit          3D

 26 28  0  0  1  0  0  0  0  0999 V2000
    1.9113    0.2063    1.4349 C   0  0  0  0  0  0  0  0  0  0  0  0
    3.9176   -2.1081    1.3380 C   0  0  0  0  0  0  0  0  0  0  0  0
   -0.0269   -1.8447   -0.6938 C   0  0  0  0  0  0  0  0  0  0  0  0
    0.7843   -3.2588   -0.8318 C   0  0  0  0  0  0  0  0  0  0  0  0
    1.1272   -0.7366   -0.9718 C   0  0  1  0  0  0  0  0  0  0  0  0
    2.1245   -2.4830   -0.5780 C   0  0  0  0  0  0  0  0  0  0  0  0
    3.1762    0.7262   -0.6860 C   0  0  0  0  0  0  0  0  0  0  0  0
    4.3995   -1.2233   -0.9658 C   0  0  0  0  0  0  0  0  0  0  0  0
    2.3466   -0.3016    0.0682 C   0  0  1  0  0  0  0  0  0  0  0  0
    3.3166   -1.6290    0.0236 C   0  0  2  0  0  0  0  0  0  0  0  0
    2.9471    1.8949   -0.8361 O   0  0  0  0  0  0  0  0  0  0  0  0
    5.2748   -1.8892   -1.4365 O   0  0  0  0  0  0  0  0  0  0  0  0
    1.9379   -1.5763   -1.7416 O   0  0  0  0  0  0  0  0  0  0  0  0
    4.2992    0.1392   -1.2467 O   0  0  0  0  0  0  0  0  0  0  0  0
    2.7602    0.4682    2.0749 H   0  0  0  0  0  0  0  0  0  0  0  0
    1.3080   -0.5446    1.9590 H   0  0  0  0  0  0  0  0  0  0  0  0
    1.3008    1.1066    1.3101 H   0  0  0  0  0  0  0  0  0  0  0  0
    4.5045   -1.3185    1.8195 H   0  0  0  0  0  0  0  0  0  0  0  0
    4.5841   -2.9535    1.1455 H   0  0  0  0  0  0  0  0  0  0  0  0
    3.1381   -2.4272    2.0385 H   0  0  0  0  0  0  0  0  0  0  0  0
   -0.5100   -1.7856    0.2887 H   0  0  0  0  0  0  0  0  0  0  0  0
   -0.7967   -1.7274   -1.4645 H   0  0  0  0  0  0  0  0  0  0  0  0
    0.6911   -3.7270   -1.8131 H   0  0  0  0  0  0  0  0  0  0  0  0
    0.5031   -3.9549   -0.0371 H   0  0  0  0  0  0  0  0  0  0  0  0
    0.7527    0.1409   -1.5108 H   0  0  0  0  0  0  0  0  0  0  0  0
    1.6239   -2.1620    0.3510 H   0  0  0  0  0  0  0  0  0  0  0  0
  1 16  1  0
  1 15  1  0
  2 18  1  0
  2 20  1  0
  3 21  1  0
  4  3  1  0
  4  6  1  0
  4 24  1  0
  5 25  1  6
  5  3  1  0
  5  9  1  0
  6 10  1  0
  6 26  1  0
  7  9  1  0
  8 10  1  0
  9  1  1  1
 10  9  1  0
 10  2  1  1
 11  7  2  0
 12  8  2  0
 13  5  1  0
 13  6  1  0
 14  8  1  0
 14  7  1  0
 17  1  1  0
 19  2  1  0
 22  3  1  0
 23  4  1  0
M  END
>  <HBA>  (546) 
4

>  <HBD>  (546) 
0

>  <TPSA>  (546) 
52.6

>  <cid>  (546) 
2545

>  <dipole>  (546) 
6.39

>  <excitation_energy_1>  (546) 
4.979

>  <excitation_energy_2>  (546) 
5.083

>  <excitation_energy_3>  (546) 
5.224

>  <excitation_energy_4>  (546) 
5.291

>  <homo_energy>  (546) 
-7.154

>  <homo_lumo_gap>  (546) 
6.267

>  <logP>  (546) 
0.644

>  <lumo_energy>  (546) 
-0.887

>  <melting_point>  (546) 
100.77

>  <molecular_refractivity>  (546) 
45.89

>  <oscillator_strength_1>  (546) 
0.0029

>  <oscillator_strength_2>  (546) 
0.0012

>  <oscillator_strength_3>  (546) 
0.0047

>  <oscillator_strength_4>  (546) 
0.0051

>  <open_babel_can_smiles>  (546) 
O=C1OC(=O)[C@@]2([C@@]1(C)[C@@H]1CC[C@@H]2O1)C

>  <mulliken_charges>  (546) 
26
1   -0.468138
2   -0.467072
3   -0.322143
4   -0.275372
5   0.11625
6   0.092701
7   0.636254
8   0.658741
9   -0.09155
10   -0.085509
11   -0.44184
12   -0.431596
13   -0.479631
14   -0.445355
15   0.164339
16   0.152047
17   0.184763
18   0.166236
19   0.193585
20   0.155662
21   0.150728
22   0.163495
23   0.17604
24   0.153369
25   0.160974
26   0.183022

>  <lowdin_charges>  (546) 
26
1   -0.443487
2   -0.440245
3   -0.30143
4   -0.258596
5   -0.015245
6   -0.043325
7   0.201459
8   0.21261
9   -0.052286
10   -0.014829
11   -0.206117
12   -0.195044
13   -0.266282
14   -0.142415
15   0.162129
16   0.154157
17   0.175382
18   0.164282
19   0.178875
20   0.158433
21   0.148722
22   0.161199
23   0.163226
24   0.15587
25   0.157381
26   0.185578

$$$$
PCCDB-ID:  2554
     RDKit          3D

 30 32  0  0  0  0  0  0  0  0999 V2000
   -3.7015    0.0289    0.7025 C   0  0  0  0  0  0  0  0  0  0  0  0
    3.6855   -0.0297    0.7894 C   0  0  0  0  0  0  0  0  0  0  0  0
   -3.3421   -1.3030    0.4759 C   0  0  0  0  0  0  0  0  0  0  0  0
    3.3082   -1.3561    0.5594 C   0  0  0  0  0  0  0  0  0  0  0  0
   -2.8213    1.0497    0.3633 C   0  0  0  0  0  0  0  0  0  0  0  0
    2.8312    1.0066    0.4300 C   0  0  0  0  0  0  0  0  0  0  0  0
   -2.1079   -1.5984   -0.0972 C   0  0  0  0  0  0  0  0  0  0  0  0
    2.0802   -1.6294   -0.0394 C   0  0  0  0  0  0  0  0  0  0  0  0
   -0.6550    1.8860   -0.4867 C   0  0  0  0  0  0  0  0  0  0  0  0
    0.6965    1.8792   -0.4716 C   0  0  0  0  0  0  0  0  0  0  0  0
   -1.5618    0.7747   -0.2042 C   0  0  0  0  0  0  0  0  0  0  0  0
    1.5795    0.7553   -0.1652 C   0  0  0  0  0  0  0  0  0  0  0  0
   -1.2285   -0.5731   -0.4539 C   0  0  0  0  0  0  0  0  0  0  0  0
    1.2265   -0.5875   -0.4173 C   0  0  0  0  0  0  0  0  0  0  0  0
    0.0656   -1.3091   -2.4315 C   0  0  0  0  0  0  0  0  0  0  0  0
    1.0832   -1.5081   -3.1771 N   0  0  0  0  0  0  0  0  0  0  0  0
    0.0091   -0.8909   -1.1043 N   0  0  0  0  0  0  0  0  0  0  0  0
   -1.1769   -1.5267   -2.9322 O   0  0  0  0  0  0  0  0  0  0  0  0
   -4.6655    0.2681    1.1428 H   0  0  0  0  0  0  0  0  0  0  0  0
    4.6439    0.1934    1.2499 H   0  0  0  0  0  0  0  0  0  0  0  0
   -4.0253   -2.1071    0.7341 H   0  0  0  0  0  0  0  0  0  0  0  0
    3.9698   -2.1716    0.8370 H   0  0  0  0  0  0  0  0  0  0  0  0
   -3.0958    2.0857    0.5469 H   0  0  0  0  0  0  0  0  0  0  0  0
    3.1212    2.0374    0.6184 H   0  0  0  0  0  0  0  0  0  0  0  0
   -1.8227   -2.6247   -0.3043 H   0  0  0  0  0  0  0  0  0  0  0  0
    1.7752   -2.6516   -0.2424 H   0  0  0  0  0  0  0  0  0  0  0  0
   -1.1411    2.8497   -0.6298 H   0  0  0  0  0  0  0  0  0  0  0  0
    1.1985    2.8362   -0.6034 H   0  0  0  0  0  0  0  0  0  0  0  0
    1.9580   -1.2922   -2.7033 H   0  0  0  0  0  0  0  0  0  0  0  0
   -1.0132   -1.7918   -3.8548 H   0  0  0  0  0  0  0  0  0  0  0  0
  1 19  1  0
  2 20  1  0
  3  1  2  0
  3 21  1  0
  4  2  2  0
  4 22  1  0
  5 23  1  0
  5  1  1  0
  6 24  1  0
  6  2  1  0
  7  3  1  0
  8  4  1  0
  9 10  2  0
  9 11  1  0
 10 12  1  0
 11  5  2  0
 12  6  2  0
 13 11  1  0
 13  7  2  0
 14 12  1  0
 14  8  2  0
 15 17  1  0
 16 29  1  0
 16 15  2  0
 17 13  1  0
 17 14  1  0
 18 15  1  0
 25  7  1  0
 26  8  1  0
 27  9  1  0
 28 10  1  0
 30 18  1  0
M  END
>  <HBA>  (547) 
2

>  <HBD>  (547) 
1

>  <TPSA>  (547) 
46.33

>  <cid>  (547) 
2554

>  <dipole>  (547) 
2.41

>  <excitation_energy_1>  (547) 
3.659

>  <excitation_energy_2>  (547) 
4.244

>  <excitation_energy_3>  (547) 
4.339

>  <excitation_energy_4>  (547) 
4.644

>  <homo_energy>  (547) 
-5.761

>  <homo_lumo_gap>  (547) 
4.395

>  <logP>  (547) 
4.152

>  <lumo_energy>  (547) 
-1.366

>  <melting_point>  (547) 
196.4

>  <molecular_refractivity>  (547) 
76.05

>  <oscillator_strength_1>  (547) 
0.0432

>  <oscillator_strength_2>  (547) 
0.2794

>  <oscillator_strength_3>  (547) 
0.0049

>  <oscillator_strength_4>  (547) 
0.023

>  <open_babel_can_smiles>  (547) 
OC(=N)N1c2ccccc2C=Cc2c1cccc2

>  <mulliken_charges>  (547) 
30
1   -0.118245
2   -0.118236
3   -0.14748
4   -0.144787
5   -0.211012
6   -0.210611
7   -0.116541
8   -0.134912
9   -0.189636
10   -0.193185
11   0.196051
12   0.200872
13   0.197565
14   0.145646
15   0.653202
16   -0.670881
17   -0.623813
18   -0.60124
19   0.132812
20   0.13596
21   0.135126
22   0.138852
23   0.133217
24   0.136415
25   0.139881
26   0.147721
27   0.137695
28   0.137031
29   0.292165
30   0.420368

>  <lowdin_charges>  (547) 
30
1   -0.153909
2   -0.15218
3   -0.153576
4   -0.155579
5   -0.153169
6   -0.152566
7   -0.147866
8   -0.159294
9   -0.151948
10   -0.159836
11   -0.009728
12   -0.007245
13   0.052086
14   0.040794
15   0.168094
16   -0.491334
17   -0.099388
18   -0.368433
19   0.159941
20   0.161449
21   0.162243
22   0.163895
23   0.157936
24   0.159619
25   0.166068
26   0.168657
27   0.162468
28   0.162236
29   0.263365
30   0.367201

$$$$
PCCDB-ID:  2568
     RDKit          3D

 18 18  0  0  0  0  0  0  0  0999 V2000
    0.2635    0.8175    0.5210 C   0  0  0  0  0  0  0  0  0  0  0  0
   -1.0182    0.2635   -0.1489 C   0  0  0  0  0  0  0  0  0  0  0  0
    1.0638   -0.3387   -0.1317 C   0  0  0  0  0  0  0  0  0  0  0  0
   -0.7048   -2.1345    0.6147 C   0  0  0  0  0  0  0  0  0  0  0  0
   -0.4141   -1.5905   -1.8808 C   0  0  0  0  0  0  0  0  0  0  0  0
   -0.2577   -1.1076   -0.4181 C   0  0  0  0  0  0  0  0  0  0  0  0
   -1.6677   -2.8620    0.4415 O   0  0  0  0  0  0  0  0  0  0  0  0
   -0.0559   -2.1899    1.7899 O   0  0  0  0  0  0  0  0  0  0  0  0
    0.2965   -1.1491   -2.7551 O   0  0  0  0  0  0  0  0  0  0  0  0
   -1.4174   -2.4323   -2.1386 O   0  0  0  0  0  0  0  0  0  0  0  0
    0.2159    0.7511    1.6134 H   0  0  0  0  0  0  0  0  0  0  0  0
    0.5608    1.8343    0.2528 H   0  0  0  0  0  0  0  0  0  0  0  0
   -1.2420    0.7574   -1.0977 H   0  0  0  0  0  0  0  0  0  0  0  0
   -1.9314    0.2015    0.4488 H   0  0  0  0  0  0  0  0  0  0  0  0
    1.8481   -0.8435    0.4486 H   0  0  0  0  0  0  0  0  0  0  0  0
    1.5020   -0.0506   -1.0886 H   0  0  0  0  0  0  0  0  0  0  0  0
    0.7082   -1.5905    1.7854 H   0  0  0  0  0  0  0  0  0  0  0  0
   -1.8187   -2.7255   -1.2824 H   0  0  0  0  0  0  0  0  0  0  0  0
  1 11  1  0
  2 14  1  0
  2  1  1  0
  3 15  1  0
  3  1  1  0
  4  8  1  0
  5  6  1  0
  6  2  1  0
  6  3  1  0
  6  4  1  0
  7  4  2  0
  9  5  2  0
 10  5  1  0
 10 18  1  0
 12  1  1  0
 13  2  1  0
 16  3  1  0
 17  8  1  0
M  END
>  <HBA>  (548) 
4

>  <HBD>  (548) 
2

>  <TPSA>  (548) 
74.6

>  <cid>  (548) 
2568

>  <dipole>  (548) 
4.83

>  <excitation_energy_1>  (548) 
5.436

>  <excitation_energy_2>  (548) 
5.66

>  <excitation_energy_3>  (548) 
6.035

>  <excitation_energy_4>  (548) 
6.586

>  <homo_energy>  (548) 
-7.464

>  <homo_lumo_gap>  (548) 
6.626

>  <logP>  (548) 
0.326

>  <lumo_energy>  (548) 
-0.838

>  <melting_point>  (548) 
169.02

>  <molecular_refractivity>  (548) 
32.13

>  <oscillator_strength_1>  (548) 
0.0043

>  <oscillator_strength_2>  (548) 
0.0009

>  <oscillator_strength_3>  (548) 
0.0135

>  <oscillator_strength_4>  (548) 
0.0075

>  <open_babel_can_smiles>  (548) 
OC(=O)C1(CCC1)C(=O)O

>  <mulliken_charges>  (548) 
18
1   -0.287177
2   -0.27707
3   -0.336806
4   0.610489
5   0.602479
6   -0.144724
7   -0.478012
8   -0.55398
9   -0.458287
10   -0.578403
11   0.1462
12   0.165914
13   0.186181
14   0.174668
15   0.141254
16   0.210048
17   0.431611
18   0.445614

>  <lowdin_charges>  (548) 
18
1   -0.281719
2   -0.257796
3   -0.294746
4   0.206084
5   0.190017
6   -0.078387
7   -0.261293
8   -0.323439
9   -0.254796
10   -0.346566
11   0.144393
12   0.157687
13   0.171872
14   0.161571
15   0.142283
16   0.188974
17   0.368418
18   0.367441

$$$$
PCCDB-ID:  2572
     RDKit          3D

 25 24  0  0  0  0  0  0  0  0999 V2000
    0.3815    0.7254    0.0614 C   0  0  0  0  0  0  0  0  0  0  0  0
    0.1319    2.2175   -0.2674 C   0  0  0  0  0  0  0  0  0  0  0  0
    5.1829    1.7560    0.7621 C   0  0  0  0  0  0  0  0  0  0  0  0
    1.8203    0.2270   -0.1372 C   0  0  0  0  0  0  0  0  0  0  0  0
    4.1904    0.6795    0.3242 C   0  0  0  0  0  0  0  0  0  0  0  0
    0.6565    2.6800   -1.6295 C   0  0  0  0  0  0  0  0  0  0  0  0
    6.6217    1.2519    0.7284 C   0  0  0  0  0  0  0  0  0  0  0  0
    2.8119    1.1835    0.3891 N   0  0  0  0  0  0  0  0  0  0  0  0
   -0.0635    2.9593   -2.5598 O   0  0  0  0  0  0  0  0  0  0  0  0
    1.9996    2.7694   -1.7242 O   0  0  0  0  0  0  0  0  0  0  0  0
    6.9382    0.1192    0.4675 O   0  0  0  0  0  0  0  0  0  0  0  0
    7.5723    2.1766    1.0283 O   0  0  0  0  0  0  0  0  0  0  0  0
   -0.2757    0.1019   -0.5556 H   0  0  0  0  0  0  0  0  0  0  0  0
    0.0751    0.5576    1.1028 H   0  0  0  0  0  0  0  0  0  0  0  0
    0.5893    2.8449    0.5084 H   0  0  0  0  0  0  0  0  0  0  0  0
   -0.9430    2.4113   -0.2537 H   0  0  0  0  0  0  0  0  0  0  0  0
    4.9609    2.0954    1.7854 H   0  0  0  0  0  0  0  0  0  0  0  0
    5.0885    2.6397    0.1165 H   0  0  0  0  0  0  0  0  0  0  0  0
    2.0313    0.1122   -1.2065 H   0  0  0  0  0  0  0  0  0  0  0  0
    1.9281   -0.7707    0.3186 H   0  0  0  0  0  0  0  0  0  0  0  0
    4.3357   -0.2279    0.9288 H   0  0  0  0  0  0  0  0  0  0  0  0
    4.3989    0.3986   -0.7132 H   0  0  0  0  0  0  0  0  0  0  0  0
    2.5800    1.4031    1.3589 H   0  0  0  0  0  0  0  0  0  0  0  0
    2.4125    2.4175   -0.8865 H   0  0  0  0  0  0  0  0  0  0  0  0
    7.1624    3.0408    1.1998 H   0  0  0  0  0  0  0  0  0  0  0  0
  1 14  1  0
  2 16  1  0
  2  1  1  0
  2 15  1  0
  3 17  1  0
  4  1  1  0
  4 20  1  0
  4  8  1  0
  5  8  1  0
  5  3  1  0
  5 21  1  0
  6  2  1  0
  7  3  1  0
  7 12  1  0
  8 23  1  0
  9  6  2  0
 10  6  1  0
 10 24  1  0
 11  7  2  0
 12 25  1  0
 13  1  1  0
 18  3  1  0
 19  4  1  0
 22  5  1  0
M  END
>  <HBA>  (549) 
5

>  <HBD>  (549) 
3

>  <TPSA>  (549) 
86.63

>  <cid>  (549) 
2572

>  <dipole>  (549) 
5.81

>  <excitation_energy_1>  (549) 
5.467

>  <excitation_energy_2>  (549) 
5.714

>  <excitation_energy_3>  (549) 
5.898

>  <excitation_energy_4>  (549) 
6.096

>  <homo_energy>  (549) 
-6.789

>  <homo_lumo_gap>  (549) 
6.661

>  <logP>  (549) 
0.306

>  <lumo_energy>  (549) 
-0.128

>  <melting_point>  (549) 
154.27

>  <molecular_refractivity>  (549) 
42.11

>  <oscillator_strength_1>  (549) 
0.0017

>  <oscillator_strength_2>  (549) 
0.0005

>  <oscillator_strength_3>  (549) 
0.0003

>  <oscillator_strength_4>  (549) 
0.002

>  <open_babel_can_smiles>  (549) 
OC(=O)CCNCCCC(=O)O

>  <mulliken_charges>  (549) 
25
1   -0.29087
2   -0.36712
3   -0.421825
4   -0.13899
5   -0.108979
6   0.581567
7   0.616748
8   -0.62299
9   -0.455199
10   -0.605699
11   -0.433782
12   -0.563295
13   0.169192
14   0.14537
15   0.147574
16   0.176165
17   0.16685
18   0.184988
19   0.174446
20   0.143277
21   0.161061
22   0.179572
23   0.308857
24   0.440761
25   0.412321

>  <lowdin_charges>  (549) 
25
1   -0.279518
2   -0.319447
3   -0.327683
4   -0.211782
5   -0.196373
6   0.188516
7   0.19482
8   -0.354852
9   -0.258554
10   -0.389802
11   -0.231977
12   -0.350386
13   0.164587
14   0.146591
15   0.154365
16   0.171224
17   0.161599
18   0.171154
19   0.154495
20   0.138658
21   0.147161
22   0.163364
23   0.25682
24   0.346576
25   0.360447

$$$$
PCCDB-ID:  2598
     RDKit          3D

 26 27  0  0  0  0  0  0  0  0999 V2000
    1.9300    1.3954    0.0211 C   0  0  0  0  0  0  0  0  0  0  0  0
    2.8534    0.3577    0.1620 C   0  0  0  0  0  0  0  0  0  0  0  0
   -4.7082    0.7180   -0.3999 C   0  0  0  0  0  0  0  0  0  0  0  0
   -5.9173    0.0358    0.2399 C   0  0  0  0  0  0  0  0  0  0  0  0
   -1.8539    1.7361   -0.2551 C   0  0  0  0  0  0  0  0  0  0  0  0
    1.2218   -1.2418    0.1701 C   0  0  0  0  0  0  0  0  0  0  0  0
    0.5777    1.0740   -0.0450 C   0  0  0  0  0  0  0  0  0  0  0  0
    0.2124   -0.2790    0.0316 C   0  0  0  0  0  0  0  0  0  0  0  0
   -2.2359    0.4255   -0.1538 C   0  0  0  0  0  0  0  0  0  0  0  0
   -0.4636    2.1508   -0.2036 C   0  0  0  0  0  0  0  0  0  0  0  0
   -1.2065   -0.6762   -0.0350 C   0  0  0  0  0  0  0  0  0  0  0  0
    2.5211   -0.9409    0.2364 N   0  0  0  0  0  0  0  0  0  0  0  0
   -3.5041   -0.0541   -0.1354 N   0  0  0  0  0  0  0  0  0  0  0  0
   -5.8576    0.0436    1.6531 O   0  0  0  0  0  0  0  0  0  0  0  0
   -0.1187    3.3288   -0.2867 O   0  0  0  0  0  0  0  0  0  0  0  0
   -1.5793   -1.8448   -0.0053 O   0  0  0  0  0  0  0  0  0  0  0  0
    2.2374    2.4338   -0.0383 H   0  0  0  0  0  0  0  0  0  0  0  0
    3.9181    0.5770    0.2175 H   0  0  0  0  0  0  0  0  0  0  0  0
   -4.5922    1.7111    0.0444 H   0  0  0  0  0  0  0  0  0  0  0  0
   -4.8671    0.8476   -1.4823 H   0  0  0  0  0  0  0  0  0  0  0  0
   -6.0162   -0.9897   -0.1585 H   0  0  0  0  0  0  0  0  0  0  0  0
   -6.8254    0.5800   -0.0355 H   0  0  0  0  0  0  0  0  0  0  0  0
   -2.5764    2.5360   -0.3751 H   0  0  0  0  0  0  0  0  0  0  0  0
    0.9532   -2.2936    0.2294 H   0  0  0  0  0  0  0  0  0  0  0  0
   -3.5480   -1.0668   -0.2224 H   0  0  0  0  0  0  0  0  0  0  0  0
   -5.0100   -0.3557    1.9083 H   0  0  0  0  0  0  0  0  0  0  0  0
  1  2  2  0
  2 18  1  0
  2 12  1  0
  3 13  1  0
  3 19  1  0
  3  4  1  0
  4 14  1  0
  5 10  1  0
  5  9  2  0
  6 24  1  0
  6 12  2  0
  7  1  1  0
  7  8  2  0
  8  6  1  0
  9 13  1  0
  9 11  1  0
 10  7  1  0
 11 16  2  0
 11  8  1  0
 14 26  1  0
 15 10  2  0
 17  1  1  0
 20  3  1  0
 21  4  1  0
 22  4  1  0
 23  5  1  0
 25 13  1  0
M  END
>  <HBA>  (550) 
5

>  <HBD>  (550) 
2

>  <TPSA>  (550) 
79.29

>  <cid>  (550) 
2598

>  <dipole>  (550) 
2.35

>  <excitation_energy_1>  (550) 
2.697

>  <excitation_energy_2>  (550) 
2.769

>  <excitation_energy_3>  (550) 
3.158

>  <excitation_energy_4>  (550) 
3.642

>  <homo_energy>  (550) 
-6.498

>  <homo_lumo_gap>  (550) 
3.328

>  <logP>  (550) 
0.317

>  <lumo_energy>  (550) 
-3.17

>  <melting_point>  (550) 
169.87

>  <molecular_refractivity>  (550) 
55.62

>  <oscillator_strength_1>  (550) 
0.0009

>  <oscillator_strength_2>  (550) 
0.042

>  <oscillator_strength_3>  (550) 
0.0001

>  <oscillator_strength_4>  (550) 
0.0001

>  <open_babel_can_smiles>  (550) 
OCCNC1=CC(=O)c2c(C1=O)cncc2

>  <mulliken_charges>  (550) 
26
1   -0.190723
2   0.053509
3   -0.132573
4   -0.047474
5   -0.292088
6   0.017189
7   0.074533
8   0.023591
9   0.363254
10   0.415958
11   0.349574
12   -0.409465
13   -0.677993
14   -0.60529
15   -0.493615
16   -0.48805
17   0.17625
18   0.15881
19   0.179668
20   0.157324
21   0.127974
22   0.163715
23   0.150345
24   0.177716
25   0.350113
26   0.397747

>  <lowdin_charges>  (550) 
26
1   -0.149242
2   -0.065004
3   -0.209327
4   -0.13655
5   -0.254997
6   -0.057997
7   -0.000541
8   -0.064819
9   0.042572
10   0.139694
11   0.155893
12   -0.136736
13   -0.249787
14   -0.459321
15   -0.250377
16   -0.237823
17   0.185167
18   0.163774
19   0.164456
20   0.149258
21   0.128196
22   0.159476
23   0.175871
24   0.174479
25   0.289951
26   0.343734

$$$$
PCCDB-ID:  2600
     RDKit          3D

 30 31  0  0  0  0  0  0  0  0999 V2000
    1.4270    0.3741    0.4118 C   0  0  0  0  0  0  0  0  0  0  0  0
    5.8777   -3.1252   -2.7893 C   0  0  0  0  0  0  0  0  0  0  0  0
    7.2605   -2.9495   -2.7929 C   0  0  0  0  0  0  0  0  0  0  0  0
    1.6289   -3.7855   -2.4928 C   0  0  0  0  0  0  0  0  0  0  0  0
    1.3053   -4.9109   -3.4645 C   0  0  0  0  0  0  0  0  0  0  0  0
    2.8987   -1.5741   -1.0927 C   0  0  0  0  0  0  0  0  0  0  0  0
    7.1508   -1.2710   -1.2608 C   0  0  0  0  0  0  0  0  0  0  0  0
    5.0892   -2.3261   -1.9510 C   0  0  0  0  0  0  0  0  0  0  0  0
    5.7561   -1.3565   -1.1774 C   0  0  0  0  0  0  0  0  0  0  0  0
    3.6179   -2.4540   -1.8540 C   0  0  0  0  0  0  0  0  0  0  0  0
    3.4990   -0.4977   -0.3232 C   0  0  0  0  0  0  0  0  0  0  0  0
    5.0173   -0.4058   -0.2950 C   0  0  0  0  0  0  0  0  0  0  0  0
    2.8777    0.3879    0.3787 N   0  0  0  0  0  0  0  0  0  0  0  0
    7.9073   -2.0480   -2.0423 N   0  0  0  0  0  0  0  0  0  0  0  0
    3.0399   -3.4600   -2.5947 N   0  0  0  0  0  0  0  0  0  0  0  0
    2.1717   -5.9985   -3.1468 O   0  0  0  0  0  0  0  0  0  0  0  0
    5.6120    0.4040    0.3952 O   0  0  0  0  0  0  0  0  0  0  0  0
    1.0755    1.2368    0.9847 H   0  0  0  0  0  0  0  0  0  0  0  0
    1.0392   -0.5338    0.8999 H   0  0  0  0  0  0  0  0  0  0  0  0
    0.9787    0.4247   -0.5927 H   0  0  0  0  0  0  0  0  0  0  0  0
    5.4407   -3.8601   -3.4571 H   0  0  0  0  0  0  0  0  0  0  0  0
    7.8823   -3.5683   -3.4378 H   0  0  0  0  0  0  0  0  0  0  0  0
    1.3550   -4.0873   -1.4686 H   0  0  0  0  0  0  0  0  0  0  0  0
    1.0275   -2.9063   -2.7523 H   0  0  0  0  0  0  0  0  0  0  0  0
    1.4677   -4.5642   -4.4957 H   0  0  0  0  0  0  0  0  0  0  0  0
    0.2477   -5.1923   -3.3553 H   0  0  0  0  0  0  0  0  0  0  0  0
    1.8234   -1.6878   -1.0333 H   0  0  0  0  0  0  0  0  0  0  0  0
    7.6616   -0.5247   -0.6583 H   0  0  0  0  0  0  0  0  0  0  0  0
    3.6051   -4.2885   -2.7390 H   0  0  0  0  0  0  0  0  0  0  0  0
    2.0754   -6.6787   -3.8299 H   0  0  0  0  0  0  0  0  0  0  0  0
  1 19  1  0
  1 18  1  0
  2  8  2  0
  3  2  1  0
  3 14  2  0
  4 23  1  0
  5 26  1  0
  5 16  1  0
  5  4  1  0
  6 27  1  0
  6 11  1  0
  7  9  2  0
  7 28  1  0
  8 10  1  0
  8  9  1  0
  9 12  1  0
 10  6  2  0
 11 12  1  0
 11 13  2  0
 12 17  2  0
 13  1  1  0
 14  7  1  0
 15  4  1  0
 15 10  1  0
 20  1  1  0
 21  2  1  0
 22  3  1  0
 24  4  1  0
 25  5  1  0
 29 15  1  0
 30 16  1  0
M  END
>  <HBA>  (551) 
5

>  <HBD>  (551) 
2

>  <TPSA>  (551) 
74.58

>  <cid>  (551) 
2600

>  <dipole>  (551) 
9.57

>  <excitation_energy_1>  (551) 
2.711

>  <excitation_energy_2>  (551) 
2.914

>  <excitation_energy_3>  (551) 
3.069

>  <excitation_energy_4>  (551) 
3.831

>  <homo_energy>  (551) 
-5.842

>  <homo_lumo_gap>  (551) 
3.358

>  <logP>  (551) 
0.662

>  <lumo_energy>  (551) 
-2.484

>  <melting_point>  (551) 
155.0

>  <molecular_refractivity>  (551) 
64.48

>  <oscillator_strength_1>  (551) 
0.0007

>  <oscillator_strength_2>  (551) 
0.0791

>  <oscillator_strength_3>  (551) 
0.0064

>  <oscillator_strength_4>  (551) 
0.0006

>  <open_babel_can_smiles>  (551) 
OCCNC1=C/C(=N\C)/C(=O)c2c1ccnc2

>  <mulliken_charges>  (551) 
30
1   -0.328359
2   -0.223562
3   0.052604
4   -0.11652
5   -0.058037
6   -0.272331
7   0.012791
8   0.123777
9   -0.008813
10   0.34923
11   0.237792
12   0.385675
13   -0.412239
14   -0.412965
15   -0.680891
16   -0.622261
17   -0.449252
18   0.165964
19   0.150083
20   0.144423
21   0.138339
22   0.148925
23   0.160802
24   0.162788
25   0.142506
26   0.141755
27   0.133486
28   0.180786
29   0.347548
30   0.405957

>  <lowdin_charges>  (551) 
30
1   -0.368381
2   -0.189329
3   -0.075519
4   -0.200675
5   -0.134169
6   -0.262812
7   -0.059398
8   0.019155
9   -0.061951
10   0.068044
11   0.009182
12   0.148795
13   -0.141645
14   -0.142046
15   -0.273888
16   -0.474367
17   -0.205597
18   0.158244
19   0.149114
20   0.143544
21   0.165902
22   0.162477
23   0.146421
24   0.159386
25   0.136964
26   0.139466
27   0.163069
28   0.179557
29   0.285953
30   0.354505

$$$$
PCCDB-ID:  2606
     RDKit          3D

 22 22  0  0  1  0  0  0  0  0999 V2000
    3.5721    3.7202   -2.5181 C   0  0  0  0  0  0  0  0  0  0  0  0
    3.6810    3.1235   -1.4751 C   0  0  0  0  0  0  0  0  0  0  0  0
    3.7870    2.4149   -0.2019 C   0  0  0  0  0  0  0  0  0  0  0  0
    7.1230    0.2951    1.3912 C   0  0  0  0  0  0  0  0  0  0  0  0
    7.1019   -1.1529   -0.6632 C   0  0  0  0  0  0  0  0  0  0  0  0
    6.1753   -1.8276    1.5181 C   0  0  0  0  0  0  0  0  0  0  0  0
    6.8150    0.2554   -0.1283 C   0  0  1  0  0  0  0  0  0  0  0  0
    5.3735    0.6520   -0.4207 C   0  0  0  0  0  0  0  0  0  0  0  0
    6.4407   -0.7459    2.1503 N   0  0  0  0  0  0  0  0  0  0  0  0
    6.5288   -2.1619    0.2295 N   0  0  0  0  0  0  0  0  0  0  0  0
    4.5512   -0.0370   -0.9838 O   0  0  0  0  0  0  0  0  0  0  0  0
    5.1238    1.9092    0.0252 O   0  0  0  0  0  0  0  0  0  0  0  0
    3.4785    4.2405   -3.4444 H   0  0  0  0  0  0  0  0  0  0  0  0
    3.0792    1.5823   -0.1653 H   0  0  0  0  0  0  0  0  0  0  0  0
    3.5981    3.0912    0.6363 H   0  0  0  0  0  0  0  0  0  0  0  0
    6.8364    1.2694    1.7979 H   0  0  0  0  0  0  0  0  0  0  0  0
    8.2105    0.2017    1.5278 H   0  0  0  0  0  0  0  0  0  0  0  0
    8.1875   -1.2957   -0.7383 H   0  0  0  0  0  0  0  0  0  0  0  0
    6.6733   -1.2778   -1.6603 H   0  0  0  0  0  0  0  0  0  0  0  0
    5.6293   -2.6169    2.0392 H   0  0  0  0  0  0  0  0  0  0  0  0
    7.4555    0.9871   -0.6360 H   0  0  0  0  0  0  0  0  0  0  0  0
    5.9638   -2.8779   -0.2057 H   0  0  0  0  0  0  0  0  0  0  0  0
  1  2  3  0
  2  3  1  0
  3 14  1  0
  3 12  1  0
  3 15  1  0
  4 17  1  0
  4 16  1  0
  4  9  1  0
  5  7  1  0
  5 10  1  0
  6 20  1  0
  6  9  2  0
  7 21  1  6
  7  4  1  0
  8  7  1  0
  8 12  1  0
 10  6  1  0
 11  8  2  0
 13  1  1  0
 18  5  1  0
 19  5  1  0
 22 10  1  0
M  END
>  <HBA>  (552) 
4

>  <HBD>  (552) 
1

>  <TPSA>  (552) 
50.69

>  <cid>  (552) 
2606

>  <dipole>  (552) 
2.17

>  <excitation_energy_1>  (552) 
5.025

>  <excitation_energy_2>  (552) 
5.413

>  <excitation_energy_3>  (552) 
5.493

>  <excitation_energy_4>  (552) 
5.764

>  <homo_energy>  (552) 
-6.038

>  <homo_lumo_gap>  (552) 
6.131

>  <logP>  (552) 
-0.825

>  <lumo_energy>  (552) 
0.093

>  <melting_point>  (552) 
69.52

>  <molecular_refractivity>  (552) 
51.63

>  <oscillator_strength_1>  (552) 
0.0018

>  <oscillator_strength_2>  (552) 
0.0003

>  <oscillator_strength_3>  (552) 
0.0141

>  <oscillator_strength_4>  (552) 
0.0001

>  <open_babel_can_smiles>  (552) 
C#CCOC(=O)[C@@H]1CNC=NC1

>  <mulliken_charges>  (552) 
22
1   -0.46068
2   0.330023
3   -0.190803
4   -0.148876
5   -0.110095
6   0.214895
7   -0.250984
8   0.655907
9   -0.410294
10   -0.55657
11   -0.478991
12   -0.458761
13   0.197411
14   0.20544
15   0.189797
16   0.165685
17   0.148332
18   0.153374
19   0.168664
20   0.138654
21   0.168054
22   0.329818

>  <lowdin_charges>  (552) 
22
1   -0.225776
2   -0.049952
3   -0.116295
4   -0.202043
5   -0.191491
6   -0.045086
7   -0.176961
8   0.206874
9   -0.249822
10   -0.296312
11   -0.26322
12   -0.187891
13   0.208691
14   0.184745
15   0.17851
16   0.157387
17   0.145045
18   0.14573
19   0.162863
20   0.154477
21   0.174146
22   0.286379

$$$$
PCCDB-ID:  2743
     RDKit          3D

 28 28  0  0  1  0  0  0  0  0999 V2000
    1.0552    0.4574   -0.6132 C   0  0  0  0  0  0  0  0  0  0  0  0
    2.2955    0.4556    1.6016 C   0  0  0  0  0  0  0  0  0  0  0  0
    6.3579   -2.6040    0.5878 C   0  0  0  0  0  0  0  0  0  0  0  0
    5.1472   -2.6312   -1.6426 C   0  0  0  0  0  0  0  0  0  0  0  0
    3.4100   -0.3147   -0.5380 C   0  0  0  0  0  0  0  0  0  0  0  0
    2.3416    0.1655    0.1218 C   0  0  0  0  0  0  0  0  0  0  0  0
    4.7355   -0.6508    0.0304 C   0  0  2  0  0  0  0  0  0  0  0  0
    6.0195   -0.3550   -0.7604 C   0  0  1  0  0  0  0  0  0  0  0  0
    7.1442    0.3136   -0.0427 C   0  0  0  0  0  0  0  0  0  0  0  0
    5.5953   -1.7981   -0.4511 C   0  0  0  0  0  0  0  0  0  0  0  0
    7.3205    0.2873    1.1543 O   0  0  0  0  0  0  0  0  0  0  0  0
    8.0227    0.9978   -0.8310 O   0  0  0  0  0  0  0  0  0  0  0  0
    0.7654    1.5115   -0.4991 H   0  0  0  0  0  0  0  0  0  0  0  0
    0.2241   -0.1372   -0.2081 H   0  0  0  0  0  0  0  0  0  0  0  0
    1.1352    0.2419   -1.6835 H   0  0  0  0  0  0  0  0  0  0  0  0
    1.5028   -0.1326    2.0848 H   0  0  0  0  0  0  0  0  0  0  0  0
    2.0493    1.5115    1.7796 H   0  0  0  0  0  0  0  0  0  0  0  0
    3.2326    0.2404    2.1191 H   0  0  0  0  0  0  0  0  0  0  0  0
    5.7134   -3.3986    0.9840 H   0  0  0  0  0  0  0  0  0  0  0  0
    6.6970   -1.9822    1.4180 H   0  0  0  0  0  0  0  0  0  0  0  0
    7.2376   -3.0832    0.1392 H   0  0  0  0  0  0  0  0  0  0  0  0
    4.4274   -3.3957   -1.3253 H   0  0  0  0  0  0  0  0  0  0  0  0
    6.0057   -3.1473   -2.0895 H   0  0  0  0  0  0  0  0  0  0  0  0
    4.6731   -2.0344   -2.4274 H   0  0  0  0  0  0  0  0  0  0  0  0
    3.3000   -0.4746   -1.6101 H   0  0  0  0  0  0  0  0  0  0  0  0
    4.8701   -0.4316    1.0858 H   0  0  0  0  0  0  0  0  0  0  0  0
    5.8736   -0.0520   -1.7966 H   0  0  0  0  0  0  0  0  0  0  0  0
    7.7644    0.9174   -1.7633 H   0  0  0  0  0  0  0  0  0  0  0  0
  1 13  1  0
  1 14  1  0
  1  6  1  0
  2 17  1  0
  2 16  1  0
  2 18  1  0
  3 19  1  0
  3 20  1  0
  4 22  1  0
  4 10  1  0
  5  7  1  0
  5  6  2  3
  6  2  1  0
  7 26  1  1
  8 27  1  6
  8 10  1  0
  8  9  1  0
  8  7  1  0
  9 11  2  0
 10  7  1  0
 10  3  1  0
 12  9  1  0
 15  1  1  0
 21  3  1  0
 23  4  1  0
 24  4  1  0
 25  5  1  0
 28 12  1  0
M  END
>  <HBA>  (553) 
2

>  <HBD>  (553) 
1

>  <TPSA>  (553) 
37.3

>  <cid>  (553) 
2743

>  <dipole>  (553) 
4.18

>  <excitation_energy_1>  (553) 
5.267

>  <excitation_energy_2>  (553) 
5.363

>  <excitation_energy_3>  (553) 
5.617

>  <excitation_energy_4>  (553) 
5.76

>  <homo_energy>  (553) 
-6.123

>  <homo_lumo_gap>  (553) 
6.128

>  <logP>  (553) 
2.309

>  <lumo_energy>  (553) 
0.005

>  <melting_point>  (553) 
102.41

>  <molecular_refractivity>  (553) 
49.11

>  <oscillator_strength_1>  (553) 
0.1662

>  <oscillator_strength_2>  (553) 
0.0282

>  <oscillator_strength_3>  (553) 
0.0073

>  <oscillator_strength_4>  (553) 
0.0012

>  <open_babel_can_smiles>  (553) 
CC(=C[C@@H]1[C@H](C1(C)C)C(=O)O)C

>  <mulliken_charges>  (553) 
28
1   -0.509404
2   -0.514907
3   -0.479697
4   -0.464735
5   -0.150707
6   0.176053
7   -0.157434
8   -0.283308
9   0.63251
10   0.120584
11   -0.46598
12   -0.578996
13   0.152592
14   0.152337
15   0.150148
16   0.154282
17   0.156395
18   0.163498
19   0.14625
20   0.190556
21   0.143208
22   0.157877
23   0.150021
24   0.14418
25   0.106981
26   0.173815
27   0.127517
28   0.406365

>  <lowdin_charges>  (553) 
28
1   -0.436835
2   -0.444153
3   -0.446158
4   -0.438164
5   -0.188105
6   -0.003978
7   -0.133675
8   -0.216195
9   0.199401
10   0.018983
11   -0.258261
12   -0.355408
13   0.153154
14   0.155051
15   0.151776
16   0.157979
17   0.156833
18   0.159859
19   0.154434
20   0.175384
21   0.150864
22   0.158629
23   0.154937
24   0.150815
25   0.144342
26   0.172354
27   0.151822
28   0.354316

$$$$
PCCDB-ID:  2749
     RDKit          3D

 32 33  0  0  0  0  0  0  0  0999 V2000
    0.6367    1.5632   -0.2246 C   0  0  0  0  0  0  0  0  0  0  0  0
    5.8250    4.5661    1.7601 C   0  0  0  0  0  0  0  0  0  0  0  0
    5.8631    3.1135    2.2530 C   0  0  0  0  0  0  0  0  0  0  0  0
    5.0244    4.6809    0.4551 C   0  0  0  0  0  0  0  0  0  0  0  0
    6.4722    2.1886    1.1921 C   0  0  0  0  0  0  0  0  0  0  0  0
    5.5314    3.7063   -0.6261 C   0  0  0  0  0  0  0  0  0  0  0  0
    3.1420    1.8847   -0.1889 C   0  0  0  0  0  0  0  0  0  0  0  0
    2.2463   -0.3644   -0.1102 C   0  0  0  0  0  0  0  0  0  0  0  0
    2.0345    0.9964   -0.1713 C   0  0  0  0  0  0  0  0  0  0  0  0
    5.7150    2.2394   -0.1668 C   0  0  0  0  0  0  0  0  0  0  0  0
    4.4400    1.4151   -0.1430 C   0  0  0  0  0  0  0  0  0  0  0  0
    3.5629   -0.9093   -0.0775 C   0  0  0  0  0  0  0  0  0  0  0  0
    4.5856    0.0624   -0.0900 N   0  0  0  0  0  0  0  0  0  0  0  0
    3.9342   -2.0983   -0.0482 O   0  0  0  0  0  0  0  0  0  0  0  0
    5.8518   -0.4974   -0.0928 O   0  0  0  0  0  0  0  0  0  0  0  0
    0.4610    2.2554    0.6080 H   0  0  0  0  0  0  0  0  0  0  0  0
   -0.1188    0.7743   -0.1764 H   0  0  0  0  0  0  0  0  0  0  0  0
    0.4792    2.1291   -1.1511 H   0  0  0  0  0  0  0  0  0  0  0  0
    6.8546    4.9155    1.5915 H   0  0  0  0  0  0  0  0  0  0  0  0
    5.3930    5.2236    2.5250 H   0  0  0  0  0  0  0  0  0  0  0  0
    4.8443    2.7806    2.4984 H   0  0  0  0  0  0  0  0  0  0  0  0
    6.4465    3.0397    3.1793 H   0  0  0  0  0  0  0  0  0  0  0  0
    5.0792    5.7047    0.0632 H   0  0  0  0  0  0  0  0  0  0  0  0
    3.9659    4.4972    0.6785 H   0  0  0  0  0  0  0  0  0  0  0  0
    6.5247    1.1568    1.5495 H   0  0  0  0  0  0  0  0  0  0  0  0
    7.5071    2.5039    0.9986 H   0  0  0  0  0  0  0  0  0  0  0  0
    6.5199    4.0542   -0.9555 H   0  0  0  0  0  0  0  0  0  0  0  0
    4.8854    3.7459   -1.5119 H   0  0  0  0  0  0  0  0  0  0  0  0
    2.9707    2.9507   -0.2450 H   0  0  0  0  0  0  0  0  0  0  0  0
    1.4259   -1.0734   -0.0974 H   0  0  0  0  0  0  0  0  0  0  0  0
    6.3593    1.7440   -0.9040 H   0  0  0  0  0  0  0  0  0  0  0  0
    5.5806   -1.4632   -0.0757 H   0  0  0  0  0  0  0  0  0  0  0  0
  1 17  1  0
  1  9  1  0
  1 16  1  0
  2  3  1  0
  2 20  1  0
  3 21  1  0
  3 22  1  0
  4 24  1  0
  4  2  1  0
  5 25  1  0
  5  3  1  0
  6 10  1  0
  6  4  1  0
  7  9  1  0
  7 11  2  0
  8 30  1  0
  8 12  1  0
  9  8  2  0
 10 11  1  0
 10  5  1  0
 11 13  1  0
 12 14  2  0
 13 12  1  0
 15 13  1  0
 15 32  1  0
 18  1  1  0
 19  2  1  0
 23  4  1  0
 26  5  1  0
 27  6  1  0
 28  6  1  0
 29  7  1  0
 31 10  1  0
M  END
>  <HBA>  (554) 
3

>  <HBD>  (554) 
1

>  <TPSA>  (554) 
42.23

>  <cid>  (554) 
2749

>  <dipole>  (554) 
4.07

>  <excitation_energy_1>  (554) 
4.382

>  <excitation_energy_2>  (554) 
5.29

>  <excitation_energy_3>  (554) 
5.346

>  <excitation_energy_4>  (554) 
5.404

>  <homo_energy>  (554) 
-5.747

>  <homo_lumo_gap>  (554) 
4.906

>  <logP>  (554) 
2.442

>  <lumo_energy>  (554) 
-0.841

>  <melting_point>  (554) 
124.43

>  <molecular_refractivity>  (554) 
60.1

>  <oscillator_strength_1>  (554) 
0.1273

>  <oscillator_strength_2>  (554) 
0.0132

>  <oscillator_strength_3>  (554) 
0.0233

>  <oscillator_strength_4>  (554) 
0.0013

>  <open_babel_can_smiles>  (554) 
Cc1cc(C2CCCCC2)n(c(=O)c1)O

>  <mulliken_charges>  (554) 
32
1   -0.531756
2   -0.25598
3   -0.26221
4   -0.266458
5   -0.270956
6   -0.277253
7   -0.327884
8   -0.299852
9   0.233821
10   -0.155337
11   0.409664
12   0.628391
13   -0.280653
14   -0.603734
15   -0.521495
16   0.16818
17   0.166128
18   0.169596
19   0.128673
20   0.132806
21   0.135665
22   0.136353
23   0.135655
24   0.136927
25   0.167374
26   0.13419
27   0.13989
28   0.140919
29   0.137632
30   0.14568
31   0.166702
32   0.439322

>  <lowdin_charges>  (554) 
32
1   -0.440755
2   -0.278371
3   -0.280098
4   -0.27974
5   -0.274752
6   -0.279217
7   -0.236606
8   -0.226976
9   0.035206
10   -0.133745
11   0.068349
12   0.133739
13   0.091847
14   -0.359891
15   -0.363707
16   0.165533
17   0.163352
18   0.165938
19   0.136653
20   0.145901
21   0.14056
22   0.14733
23   0.145353
24   0.136981
25   0.158773
26   0.142989
27   0.148853
28   0.148479
29   0.166757
30   0.17452
31   0.16891
32   0.367835

$$$$
PCCDB-ID:  2758
     RDKit          3D

 29 30  0  0  1  0  0  0  0  0999 V2000
    0.9239    0.0927    0.0337 C   0  0  0  0  0  0  0  0  0  0  0  0
    2.9613   -0.5385   -1.2633 C   0  0  0  0  0  0  0  0  0  0  0  0
    4.1994    3.0148    1.3656 C   0  0  0  0  0  0  0  0  0  0  0  0
    4.4960   -0.8743    1.3263 C   0  0  0  0  0  0  0  0  0  0  0  0
    2.4698   -0.2497    2.6155 C   0  0  0  0  0  0  0  0  0  0  0  0
    4.9952    0.5971    1.3584 C   0  0  0  0  0  0  0  0  0  0  0  0
    2.9314    1.2334    2.6676 C   0  0  0  0  0  0  0  0  0  0  0  0
    2.9535   -0.8696    1.2874 C   0  0  1  0  0  0  0  0  0  0  0  0
    2.4565   -0.0131    0.0908 C   0  0  0  0  0  0  0  0  0  0  0  0
    3.7838    1.5495    1.4213 C   0  0  1  0  0  0  0  0  0  0  0  0
    2.9729    1.3358    0.2461 O   0  0  0  0  0  0  0  0  0  0  0  0
    0.4631   -0.8931   -0.1049 H   0  0  0  0  0  0  0  0  0  0  0  0
    0.6340    0.7273   -0.8103 H   0  0  0  0  0  0  0  0  0  0  0  0
    0.5114    0.5434    0.9401 H   0  0  0  0  0  0  0  0  0  0  0  0
    2.5890   -1.5515   -1.4599 H   0  0  0  0  0  0  0  0  0  0  0  0
    4.0531   -0.5550   -1.3129 H   0  0  0  0  0  0  0  0  0  0  0  0
    2.6049    0.1178   -2.0641 H   0  0  0  0  0  0  0  0  0  0  0  0
    4.8245    3.2749    2.2274 H   0  0  0  0  0  0  0  0  0  0  0  0
    3.3162    3.6622    1.3678 H   0  0  0  0  0  0  0  0  0  0  0  0
    4.7663    3.2157    0.4504 H   0  0  0  0  0  0  0  0  0  0  0  0
    4.8245   -1.4195    2.2191 H   0  0  0  0  0  0  0  0  0  0  0  0
    4.9131   -1.4117    0.4693 H   0  0  0  0  0  0  0  0  0  0  0  0
    1.3832   -0.3262    2.7168 H   0  0  0  0  0  0  0  0  0  0  0  0
    2.8960   -0.8227    3.4476 H   0  0  0  0  0  0  0  0  0  0  0  0
    5.5703    0.8376    0.4571 H   0  0  0  0  0  0  0  0  0  0  0  0
    5.6549    0.7757    2.2166 H   0  0  0  0  0  0  0  0  0  0  0  0
    3.5098    1.4395    3.5767 H   0  0  0  0  0  0  0  0  0  0  0  0
    2.0723    1.9133    2.6740 H   0  0  0  0  0  0  0  0  0  0  0  0
    2.5706   -1.8921    1.1811 H   0  0  0  0  0  0  0  0  0  0  0  0
  1  9  1  0
  1 14  1  0
  2  9  1  0
  3 19  1  0
  3 18  1  0
  4  6  1  0
  4 21  1  0
  5  7  1  0
  5 23  1  0
  5 24  1  0
  6 10  1  0
  6 26  1  0
  7 28  1  0
  7 27  1  0
  8 29  1  6
  8  4  1  0
  8  5  1  0
  9 11  1  0
  9  8  1  0
 10  3  1  1
 10  7  1  0
 11 10  1  0
 12  1  1  0
 13  1  1  0
 15  2  1  0
 16  2  1  0
 17  2  1  0
 20  3  1  0
 22  4  1  0
 25  6  1  0
M  END
>  <HBA>  (555) 
1

>  <HBD>  (555) 
0

>  <TPSA>  (555) 
9.23

>  <cid>  (555) 
2758

>  <dipole>  (555) 
1.3

>  <excitation_energy_1>  (555) 
5.77

>  <excitation_energy_2>  (555) 
6.243

>  <excitation_energy_3>  (555) 
6.293

>  <excitation_energy_4>  (555) 
6.384

>  <homo_energy>  (555) 
-6.24

>  <homo_lumo_gap>  (555) 
8.101

>  <logP>  (555) 
2.744

>  <lumo_energy>  (555) 
1.861

>  <melting_point>  (555) 
29.03

>  <molecular_refractivity>  (555) 
47.12

>  <oscillator_strength_1>  (555) 
0.0123

>  <oscillator_strength_2>  (555) 
0.0039

>  <oscillator_strength_3>  (555) 
0.0178

>  <oscillator_strength_4>  (555) 
0.0021

>  <open_babel_can_smiles>  (555) 
C[C@]12CC[C@H](CC1)C(O2)(C)C

>  <mulliken_charges>  (555) 
29
1   -0.45155
2   -0.451653
3   -0.457374
4   -0.28626
5   -0.285885
6   -0.271862
7   -0.272379
8   -0.108925
9   0.339661
10   0.31143
11   -0.549062
12   0.132052
13   0.1492
14   0.146306
15   0.132112
16   0.146348
17   0.149234
18   0.135828
19   0.149628
20   0.149551
21   0.131624
22   0.140236
23   0.14016
24   0.131565
25   0.138913
26   0.128753
27   0.128776
28   0.139043
29   0.114531

>  <lowdin_charges>  (555) 
29
1   -0.452551
2   -0.44938
3   -0.443722
4   -0.286255
5   -0.283558
6   -0.295043
7   -0.295312
8   -0.141284
9   0.12978
10   0.12407
11   -0.285297
12   0.146313
13   0.156217
14   0.152486
15   0.145991
16   0.150011
17   0.156407
18   0.150312
19   0.155768
20   0.155591
21   0.143902
22   0.146937
23   0.144064
24   0.144229
25   0.148463
26   0.145127
27   0.144883
28   0.148616
29   0.143232

$$$$
PCCDB-ID:  2765
     RDKit          3D

 32 34  0  0  1  0  0  0  0  0999 V2000
   -3.8208    0.3476    0.5058 C   0  0  0  0  0  0  0  0  0  0  0  0
   -2.7743   -0.5684    0.5143 C   0  0  0  0  0  0  0  0  0  0  0  0
   -3.6009    1.6376    0.0124 C   0  0  0  0  0  0  0  0  0  0  0  0
   -1.5126   -0.2033    0.0337 C   0  0  0  0  0  0  0  0  0  0  0  0
   -3.1903    4.2897   -1.5525 C   0  0  0  0  0  0  0  0  0  0  0  0
   -2.1775    3.7021   -2.5032 C   0  0  0  0  0  0  0  0  0  0  0  0
    4.1037    1.9558   -2.4183 C   0  0  0  0  0  0  0  0  0  0  0  0
    3.0651    2.8702   -3.1261 C   0  0  0  0  0  0  0  0  0  0  0  0
    0.9792    0.6171   -1.0547 C   0  0  0  0  0  0  0  0  0  0  0  0
   -2.0930    3.4057   -1.0162 C   0  0  0  0  0  0  0  0  0  0  0  0
   -2.3589    2.0315   -0.4868 C   0  0  0  0  0  0  0  0  0  0  0  0
   -1.3093    1.0854   -0.4645 C   0  0  0  0  0  0  0  0  0  0  0  0
    2.1056    1.3310   -1.7449 C   0  0  0  0  0  3  0  0  0  0  0  0
    3.3382    1.1657   -1.4335 N   0  0  0  0  0  2  0  0  0  0  0  0
    1.8226    2.1369   -2.8417 N   0  0  0  0  0  0  0  0  0  0  0  0
   -0.1086    1.5332   -0.9520 O   0  0  0  0  0  0  0  0  0  0  0  0
   -4.7997    0.0702    0.8859 H   0  0  0  0  0  0  0  0  0  0  0  0
   -2.9249   -1.5732    0.8997 H   0  0  0  0  0  0  0  0  0  0  0  0
   -4.4117    2.3603    0.0221 H   0  0  0  0  0  0  0  0  0  0  0  0
   -0.7027   -0.9236    0.0569 H   0  0  0  0  0  0  0  0  0  0  0  0
   -4.2019    3.8966   -1.5971 H   0  0  0  0  0  0  0  0  0  0  0  0
   -3.1397    5.3521   -1.3313 H   0  0  0  0  0  0  0  0  0  0  0  0
   -1.4314    4.3610   -2.9408 H   0  0  0  0  0  0  0  0  0  0  0  0
   -2.5083    2.8995   -3.1566 H   0  0  0  0  0  0  0  0  0  0  0  0
    4.9019    2.5192   -1.9251 H   0  0  0  0  0  0  0  0  0  0  0  0
    4.5785    1.2695   -3.1332 H   0  0  0  0  0  0  0  0  0  0  0  0
    3.2367    2.9675   -4.2022 H   0  0  0  0  0  0  0  0  0  0  0  0
    3.0460    3.8781   -2.6849 H   0  0  0  0  0  0  0  0  0  0  0  0
    1.3195    0.2782   -0.0706 H   0  0  0  0  0  0  0  0  0  0  0  0
    0.6754   -0.2589   -1.6463 H   0  0  0  0  0  0  0  0  0  0  0  0
   -1.2828    3.9231   -0.5046 H   0  0  0  0  0  0  0  0  0  0  0  0
    0.9459    2.6447   -2.8102 H   0  0  0  0  0  0  0  0  0  0  0  0
  1  2  2  0
  1 17  1  0
  2 18  1  0
  3 19  1  0
  3  1  1  0
  4 20  1  0
  4  2  1  0
  5 22  1  0
  5 10  1  0
  6  5  1  0
  6 10  1  0
  7 25  1  0
  7 14  1  0
  8 15  1  0
  8 28  1  0
  8  7  1  0
  9 16  1  0
  9 29  1  0
 10 31  1  0
 10 11  1  0
 11 12  1  0
 11  3  2  0
 12  4  2  0
 13 14  1  0
 13  9  1  0
 15 32  1  0
 15 13  1  0
 16 12  1  0
 21  5  1  0
 23  6  1  0
 24  6  1  0
 26  7  1  0
 27  8  1  0
 30  9  1  0
M  RAD  2  13   2  14   2
M  END
>  <HBA>  (556) 
3

>  <HBD>  (556) 
1

>  <TPSA>  (556) 
33.62

>  <cid>  (556) 
2765

>  <dipole>  (556) 
1.92

>  <excitation_energy_1>  (556) 
4.992

>  <excitation_energy_2>  (556) 
5.231

>  <excitation_energy_3>  (556) 
5.374

>  <excitation_energy_4>  (556) 
5.439

>  <homo_energy>  (556) 
-5.91

>  <homo_lumo_gap>  (556) 
5.875

>  <logP>  (556) 
1.709

>  <lumo_energy>  (556) 
-0.035

>  <melting_point>  (556) 
100.14

>  <molecular_refractivity>  (556) 
71.43

>  <oscillator_strength_1>  (556) 
0.048

>  <oscillator_strength_2>  (556) 
0.0017

>  <oscillator_strength_3>  (556) 
0.0095

>  <oscillator_strength_4>  (556) 
0.0085

>  <open_babel_can_smiles>  (556) 
C1CN[C]([N]1)COc1ccccc1C1CC1

>  <mulliken_charges>  (556) 
32
1   -0.129157
2   -0.140019
3   -0.196675
4   -0.193966
5   -0.320333
6   -0.299815
7   -0.161635
8   -0.148355
9   -0.095351
10   -0.166687
11   0.099429
12   0.338038
13   0.462488
14   -0.468399
15   -0.60373
16   -0.537184
17   0.125826
18   0.130361
19   0.127256
20   0.140241
21   0.154897
22   0.151827
23   0.143079
24   0.158216
25   0.150534
26   0.151657
27   0.15131
28   0.141891
29   0.175304
30   0.166121
31   0.156521
32   0.336309

>  <lowdin_charges>  (556) 
32
1   -0.175374
2   -0.148081
3   -0.158869
4   -0.213221
5   -0.309746
6   -0.31462
7   -0.210848
8   -0.207178
9   -0.129171
10   -0.14688
11   -0.025967
12   0.098569
13   0.071979
14   -0.239372
15   -0.313393
16   -0.205476
17   0.156764
18   0.157528
19   0.159165
20   0.164989
21   0.159228
22   0.158617
23   0.154935
24   0.162499
25   0.152387
26   0.148783
27   0.148901
28   0.135558
29   0.164491
30   0.158022
31   0.163691
32   0.282091

$$$$
PCCDB-ID:  2766
     RDKit          3D

 14 13  0  0  0  0  0  0  0  0999 V2000
    1.2580    0.3065    0.0524 C   0  0  0  0  0  0  0  0  0  0  0  0
    0.2625    0.4240   -0.8350 C   0  0  0  0  0  0  0  0  0  0  0  0
    2.7171    0.2307   -0.2997 C   0  0  0  0  0  0  0  0  0  0  0  0
   -1.1869    0.5497   -0.5137 C   0  0  0  0  0  0  0  0  0  0  0  0
    3.4742    1.1899    0.5117 N   0  0  0  0  0  0  0  0  0  0  0  0
   -1.9866    0.9929   -1.3043 O   0  0  0  0  0  0  0  0  0  0  0  0
   -1.5969    0.1577    0.7247 O   0  0  0  0  0  0  0  0  0  0  0  0
    1.0624    0.2962    1.1263 H   0  0  0  0  0  0  0  0  0  0  0  0
    0.4740    0.5069   -1.8980 H   0  0  0  0  0  0  0  0  0  0  0  0
    2.8391    0.3391   -1.3911 H   0  0  0  0  0  0  0  0  0  0  0  0
    3.0839   -0.7728   -0.0393 H   0  0  0  0  0  0  0  0  0  0  0  0
    3.2565    2.1395    0.2141 H   0  0  0  0  0  0  0  0  0  0  0  0
    4.4727    1.0597    0.3620 H   0  0  0  0  0  0  0  0  0  0  0  0
   -0.8717   -0.2922    1.1876 H   0  0  0  0  0  0  0  0  0  0  0  0
  1  8  1  0
  2  4  1  0
  2  1  2  0
  3 11  1  0
  3  1  1  0
  3  5  1  0
  4  7  1  0
  6  4  2  0
  7 14  1  0
  9  2  1  0
 10  3  1  0
 12  5  1  0
 13  5  1  0
M  END
>  <HBA>  (557) 
3

>  <HBD>  (557) 
2

>  <TPSA>  (557) 
63.32

>  <cid>  (557) 
2766

>  <dipole>  (557) 
5.24

>  <excitation_energy_1>  (557) 
4.547

>  <excitation_energy_2>  (557) 
4.705

>  <excitation_energy_3>  (557) 
6.009

>  <excitation_energy_4>  (557) 
6.2

>  <homo_energy>  (557) 
-6.958

>  <homo_lumo_gap>  (557) 
5.587

>  <logP>  (557) 
0.286

>  <lumo_energy>  (557) 
-1.371

>  <melting_point>  (557) 
115.96

>  <molecular_refractivity>  (557) 
25.35

>  <oscillator_strength_1>  (557) 
0.009

>  <oscillator_strength_2>  (557) 
0.007

>  <oscillator_strength_3>  (557) 
0.013

>  <oscillator_strength_4>  (557) 
0.3828

>  <open_babel_can_smiles>  (557) 
NC/C=C/C(=O)O

>  <mulliken_charges>  (557) 
14
1   -0.091921
2   -0.185426
3   -0.190977
4   0.57613
5   -0.715063
6   -0.449018
7   -0.572801
8   0.145129
9   0.161115
10   0.138095
11   0.164365
12   0.305872
13   0.306518
14   0.407981

>  <lowdin_charges>  (557) 
14
1   -0.134531
2   -0.206112
3   -0.196214
4   0.194419
5   -0.551493
6   -0.238977
7   -0.362296
8   0.15634
9   0.174678
10   0.130303
11   0.158304
12   0.258887
13   0.259281
14   0.357413

$$$$
PCCDB-ID:  2773
     RDKit          3D

 19 19  0  0  1  0  0  0  0  0999 V2000
    4.6733    0.6858    1.6604 C   0  0  0  0  0  0  0  0  0  0  0  0
   -0.3406   -1.1351    2.1083 C   0  0  0  0  0  0  0  0  0  0  0  0
    0.5423   -2.2922    1.6245 C   0  0  0  0  0  0  0  0  0  0  0  0
    3.4420    0.6416    0.7751 C   0  0  0  0  0  0  0  0  0  0  0  0
    0.5450   -0.0444    2.7200 C   0  0  0  0  0  0  0  0  0  0  0  0
    2.0383   -0.2856    2.4146 C   0  0  2  0  0  0  0  0  0  0  0  0
    2.2866    0.2114    1.0853 N   0  0  0  0  0  0  0  0  0  0  0  0
    3.5864    1.1042   -0.4958 O   0  0  0  0  0  0  0  0  0  0  0  0
    0.1427    0.8805    3.3859 O   0  0  0  0  0  0  0  0  0  0  0  0
    2.1600   -2.1278    2.5234 S   0  0  0  0  0  0  0  0  0  0  0  0
    4.5172    1.3648    2.5060 H   0  0  0  0  0  0  0  0  0  0  0  0
    5.5641    1.0224    1.1208 H   0  0  0  0  0  0  0  0  0  0  0  0
    4.8806   -0.3094    2.0671 H   0  0  0  0  0  0  0  0  0  0  0  0
   -1.0470   -1.4556    2.8811 H   0  0  0  0  0  0  0  0  0  0  0  0
   -0.9262   -0.6935    1.2939 H   0  0  0  0  0  0  0  0  0  0  0  0
    0.7327   -2.2381    0.5508 H   0  0  0  0  0  0  0  0  0  0  0  0
    0.1275   -3.2731    1.8644 H   0  0  0  0  0  0  0  0  0  0  0  0
    2.6480    0.1561    3.2109 H   0  0  0  0  0  0  0  0  0  0  0  0
    4.4974    1.4034   -0.6312 H   0  0  0  0  0  0  0  0  0  0  0  0
  1 13  1  0
  1 11  1  0
  2  5  1  0
  2 14  1  0
  3 17  1  0
  3  2  1  0
  3 10  1  0
  4  7  2  0
  4  1  1  0
  5  9  2  0
  6 10  1  0
  6  5  1  0
  6 18  1  1
  7  6  1  0
  8  4  1  0
 12  1  1  0
 15  2  1  0
 16  3  1  0
 19  8  1  0
M  END
>  <HBA>  (558) 
4

>  <HBD>  (558) 
1

>  <TPSA>  (558) 
71.47

>  <cid>  (558) 
2773

>  <dipole>  (558) 
3.51

>  <excitation_energy_1>  (558) 
4.136

>  <excitation_energy_2>  (558) 
4.467

>  <excitation_energy_3>  (558) 
5.117

>  <excitation_energy_4>  (558) 
5.28

>  <homo_energy>  (558) 
-6.174

>  <homo_lumo_gap>  (558) 
5.494

>  <logP>  (558) 
0.545

>  <lumo_energy>  (558) 
-0.68

>  <melting_point>  (558) 
74.95

>  <molecular_refractivity>  (558) 
39.63

>  <oscillator_strength_1>  (558) 
0.0074

>  <oscillator_strength_2>  (558) 
0.014

>  <oscillator_strength_3>  (558) 
0.0074

>  <oscillator_strength_4>  (558) 
0.0152

>  <open_babel_can_smiles>  (558) 
O=C1CCS[C@H]1/N=C(/O)\C

>  <mulliken_charges>  (558) 
19
1   -0.553486
2   -0.3332
3   -0.42546
4   0.49269
5   0.467995
6   -0.228573
7   -0.395684
8   -0.563695
9   -0.430447
10   0.082293
11   0.199186
12   0.151526
13   0.206014
14   0.184311
15   0.190551
16   0.198175
17   0.179221
18   0.170497
19   0.408085

>  <lowdin_charges>  (558) 
19
1   -0.479232
2   -0.311421
3   -0.365732
4   0.14576
5   0.15987
6   -0.192339
7   -0.21376
8   -0.350327
9   -0.216714
10   0.081443
11   0.182927
12   0.160396
13   0.185741
14   0.178001
15   0.182087
16   0.167824
17   0.169562
18   0.160331
19   0.355586

$$$$
PCCDB-ID:  2775
     RDKit          3D

 25 26  0  0  0  0  0  0  0  0999 V2000
    3.1166    1.6164   -0.3299 C   0  0  0  0  0  0  0  0  0  0  0  0
    2.2188   -4.6912   -0.0108 C   0  0  0  0  0  0  0  0  0  0  0  0
    4.6285   -3.8654   -3.3842 C   0  0  0  0  0  0  0  0  0  0  0  0
    5.4011   -3.5590   -4.4556 C   0  0  0  0  0  0  0  0  0  0  0  0
    2.8993   -2.0151   -0.5808 C   0  0  0  0  0  0  0  0  0  0  0  0
    4.0676   -0.4264   -2.0255 C   0  0  0  0  0  0  0  0  0  0  0  0
    3.2715   -0.6950   -0.9138 C   0  0  0  0  0  0  0  0  0  0  0  0
    4.1421   -2.8353   -2.5134 C   0  0  0  0  0  0  0  0  0  0  0  0
    3.3289   -3.0699   -1.3706 C   0  0  0  0  0  0  0  0  0  0  0  0
    4.4889   -1.5066   -2.8065 C   0  0  0  0  0  0  0  0  0  0  0  0
    5.7670   -2.1868   -4.7636 C   0  0  0  0  0  0  0  0  0  0  0  0
    6.4490   -1.8042   -5.6845 O   0  0  0  0  0  0  0  0  0  0  0  0
    2.7932    0.2554   -0.0703 O   0  0  0  0  0  0  0  0  0  0  0  0
    3.0267   -4.3747   -1.1371 O   0  0  0  0  0  0  0  0  0  0  0  0
    5.2654   -1.2106   -3.8843 O   0  0  0  0  0  0  0  0  0  0  0  0
    2.6328    2.1917    0.4609 H   0  0  0  0  0  0  0  0  0  0  0  0
    2.7314    1.9391   -1.3050 H   0  0  0  0  0  0  0  0  0  0  0  0
    4.2002    1.7834   -0.2931 H   0  0  0  0  0  0  0  0  0  0  0  0
    2.1083   -5.7765   -0.0202 H   0  0  0  0  0  0  0  0  0  0  0  0
    1.2303   -4.2214   -0.0854 H   0  0  0  0  0  0  0  0  0  0  0  0
    2.7004   -4.3798    0.9244 H   0  0  0  0  0  0  0  0  0  0  0  0
    4.3639   -4.8951   -3.1665 H   0  0  0  0  0  0  0  0  0  0  0  0
    5.7846   -4.3127   -5.1330 H   0  0  0  0  0  0  0  0  0  0  0  0
    2.2799   -2.1587    0.2947 H   0  0  0  0  0  0  0  0  0  0  0  0
    4.3727    0.5717   -2.3091 H   0  0  0  0  0  0  0  0  0  0  0  0
  1 18  1  0
  1 13  1  0
  1 16  1  0
  2 21  1  0
  3 22  1  0
  3  8  1  0
  4  3  2  0
  5 24  1  0
  6  7  1  0
  7  5  2  0
  7 13  1  0
  8  9  2  0
  9 14  1  0
  9  5  1  0
 10  8  1  0
 10  6  2  0
 11  4  1  0
 11 15  1  0
 12 11  2  0
 14  2  1  0
 15 10  1  0
 17  1  1  0
 19  2  1  0
 20  2  1  0
 23  4  1  0
 25  6  1  0
M  END
>  <HBA>  (559) 
4

>  <HBD>  (559) 
0

>  <TPSA>  (559) 
48.67

>  <cid>  (559) 
2775

>  <dipole>  (559) 
6.05

>  <excitation_energy_1>  (559) 
4.023

>  <excitation_energy_2>  (559) 
4.172

>  <excitation_energy_3>  (559) 
4.602

>  <excitation_energy_4>  (559) 
5.105

>  <homo_energy>  (559) 
-5.878

>  <homo_lumo_gap>  (559) 
4.441

>  <logP>  (559) 
1.81

>  <lumo_energy>  (559) 
-1.437

>  <melting_point>  (559) 
94.54

>  <molecular_refractivity>  (559) 
55.47

>  <oscillator_strength_1>  (559) 
0.2699

>  <oscillator_strength_2>  (559) 
0.0845

>  <oscillator_strength_3>  (559) 
0.0

>  <oscillator_strength_4>  (559) 
0.0741

>  <open_babel_can_smiles>  (559) 
COc1cc(OC)c2c(c1)oc(=O)cc2

>  <mulliken_charges>  (559) 
25
1   -0.220059
2   -0.218541
3   -0.099923
4   -0.228557
5   -0.262909
6   -0.264014
7   0.395305
8   0.047495
9   0.332997
10   0.321329
11   0.593175
12   -0.470984
13   -0.507564
14   -0.512014
15   -0.526812
16   0.17536
17   0.16202
18   0.161993
19   0.175899
20   0.161143
21   0.161186
22   0.166524
23   0.157633
24   0.146531
25   0.152789

>  <lowdin_charges>  (559) 
25
1   -0.275009
2   -0.273362
3   -0.098902
4   -0.217548
5   -0.252664
6   -0.255459
7   0.127874
8   -0.084948
9   0.119194
10   0.132753
11   0.194469
12   -0.245858
13   -0.187605
14   -0.190623
15   -0.136638
16   0.16738
17   0.151098
18   0.149359
19   0.164316
20   0.150157
21   0.150985
22   0.176578
23   0.180557
24   0.175442
25   0.178454

$$$$
PCCDB-ID:  2779
     RDKit          3D

 30 31  0  0  1  0  0  0  0  0999 V2000
    5.1993    1.7024   -1.4413 C   0  0  0  0  0  0  0  0  0  0  0  0
    3.5213    3.3013   -2.4289 C   0  0  0  0  0  0  0  0  0  0  0  0
    2.8514    6.4903    0.4494 C   0  0  0  0  0  0  0  0  0  0  0  0
    4.0947    2.7243   -1.1253 C   0  0  0  0  0  0  0  0  0  0  0  0
    1.9019    5.4182    1.0100 C   0  0  2  0  0  0  0  0  0  0  0  0
    3.0254    2.0516   -0.2203 C   0  0  1  0  0  0  0  0  0  0  0  0
    2.5992    4.1395    1.4808 C   0  0  2  0  0  0  0  0  0  0  0  0
    0.9647    4.8423   -0.0517 C   0  0  0  0  0  0  0  0  0  0  0  0
    1.4592    2.4555    1.8317 C   0  0  0  0  0  0  0  0  0  0  0  0
    2.0901    3.0152    0.5300 C   0  0  2  0  0  0  0  0  0  0  0  0
    1.0728    3.6019   -0.3368 N   0  0  0  0  0  0  0  0  0  0  0  0
    2.2367    1.1114   -0.9313 O   0  0  0  0  0  0  0  0  0  0  0  0
    0.0645    5.6153   -0.6895 O   0  0  0  0  0  0  0  0  0  0  0  0
    0.8128    1.5216    2.1890 O   0  0  0  0  0  0  0  0  0  0  0  0
    1.9153    3.5097    2.6107 O   0  0  0  0  0  0  0  0  0  0  0  0
    5.9666    2.1414   -2.0892 H   0  0  0  0  0  0  0  0  0  0  0  0
    4.7745    0.8330   -1.9547 H   0  0  0  0  0  0  0  0  0  0  0  0
    5.6923    1.3465   -0.5285 H   0  0  0  0  0  0  0  0  0  0  0  0
    4.3212    3.7546   -3.0256 H   0  0  0  0  0  0  0  0  0  0  0  0
    2.7530    4.0599   -2.2560 H   0  0  0  0  0  0  0  0  0  0  0  0
    3.0707    2.5035   -3.0290 H   0  0  0  0  0  0  0  0  0  0  0  0
    3.5174    6.8593    1.2359 H   0  0  0  0  0  0  0  0  0  0  0  0
    2.3011    7.3524    0.0543 H   0  0  0  0  0  0  0  0  0  0  0  0
    3.4670    6.0900   -0.3633 H   0  0  0  0  0  0  0  0  0  0  0  0
    4.5494    3.5433   -0.5452 H   0  0  0  0  0  0  0  0  0  0  0  0
    1.3204    5.8390    1.8417 H   0  0  0  0  0  0  0  0  0  0  0  0
    3.5655    1.4719    0.5404 H   0  0  0  0  0  0  0  0  0  0  0  0
    3.6663    4.2355    1.6896 H   0  0  0  0  0  0  0  0  0  0  0  0
    1.4845    1.6074   -1.3009 H   0  0  0  0  0  0  0  0  0  0  0  0
    0.1191    6.5229   -0.3525 H   0  0  0  0  0  0  0  0  0  0  0  0
  1  4  1  0
  1 18  1  0
  2 20  1  0
  2  4  1  0
  3  5  1  0
  3 22  1  0
  4 25  1  0
  4  6  1  0
  5  7  1  0
  5 26  1  1
  6 27  1  1
  7 28  1  1
  7 15  1  0
  8  5  1  0
  9 14  2  0
  9 15  1  0
 10  6  1  0
 10  7  1  0
 10  9  1  0
 11  8  2  0
 10 11  1  6
 12  6  1  0
 13 30  1  0
 13  8  1  0
 16  1  1  0
 17  1  1  0
 19  2  1  0
 21  2  1  0
 23  3  1  0
 24  3  1  0
 29 12  1  0
M  END
>  <HBA>  (560) 
5

>  <HBD>  (560) 
2

>  <TPSA>  (560) 
75.63

>  <cid>  (560) 
2779

>  <dipole>  (560) 
7.3

>  <excitation_energy_1>  (560) 
5.278

>  <excitation_energy_2>  (560) 
5.686

>  <excitation_energy_3>  (560) 
5.835

>  <excitation_energy_4>  (560) 
6.08

>  <homo_energy>  (560) 
-6.8

>  <homo_lumo_gap>  (560) 
6.427

>  <logP>  (560) 
-0.238

>  <lumo_energy>  (560) 
-0.373

>  <melting_point>  (560) 
106.59

>  <molecular_refractivity>  (560) 
55.36

>  <oscillator_strength_1>  (560) 
0.0277

>  <oscillator_strength_2>  (560) 
0.0009

>  <oscillator_strength_3>  (560) 
0.0162

>  <oscillator_strength_4>  (560) 
0.0127

>  <open_babel_can_smiles>  (560) 
CC([C@@H]([C@@]12N=C([C@@H]([C@H]2OC1=O)C)O)O)C

>  <mulliken_charges>  (560) 
30
1   -0.452546
2   -0.465486
3   -0.465617
4   -0.081299
5   -0.204906
6   0.140352
7   0.120377
8   0.515299
9   0.64373
10   -0.014281
11   -0.445214
12   -0.630351
13   -0.580409
14   -0.414071
15   -0.48153
16   0.139635
17   0.169782
18   0.138502
19   0.139012
20   0.151038
21   0.158683
22   0.174068
23   0.146187
24   0.178225
25   0.105975
26   0.181205
27   0.136373
28   0.157363
29   0.418563
30   0.421342

>  <lowdin_charges>  (560) 
30
1   -0.447663
2   -0.458617
3   -0.445891
4   -0.139174
5   -0.172252
6   -0.004775
7   -0.006515
8   0.126739
9   0.189489
10   0.004099
11   -0.200098
12   -0.448578
13   -0.331272
14   -0.184452
15   -0.209444
16   0.149556
17   0.161714
18   0.146866
19   0.149908
20   0.151321
21   0.157593
22   0.16702
23   0.152713
24   0.165087
25   0.129806
26   0.172143
27   0.149522
28   0.15593
29   0.352918
30   0.36631

$$$$
PCCDB-ID:  2859
     RDKit          3D

 21 22  0  0  1  0  0  0  0  0999 V2000
   -1.5687    0.7405    0.0681 C   0  0  2  0  0  0  0  0  0  0  0  0
   -0.3540    1.5865   -0.3760 C   0  0  2  0  0  0  0  0  0  0  0  0
   -1.3652   -0.7671   -0.2223 C   0  0  2  0  0  0  0  0  0  0  0  0
    0.9198    1.1559    0.3811 C   0  0  2  0  0  0  0  0  0  0  0  0
    0.0272   -1.2780    0.1306 C   0  0  2  0  0  0  0  0  0  0  0  0
    1.1463   -0.3416    0.3708 C   0  0  1  0  0  0  0  0  0  0  0  0
   -2.7751    1.1675   -0.5213 O   0  0  0  0  0  0  0  0  0  0  0  0
   -0.5604    2.9706   -0.1889 O   0  0  0  0  0  0  0  0  0  0  0  0
   -1.6417   -1.0310   -1.6001 O   0  0  0  0  0  0  0  0  0  0  0  0
    0.8800    1.6328    1.7359 O   0  0  0  0  0  0  0  0  0  0  0  0
    1.0045   -1.0002   -0.8961 O   0  0  0  0  0  0  0  0  0  0  0  0
   -1.6986    0.8707    1.1535 H   0  0  0  0  0  0  0  0  0  0  0  0
   -0.1994    1.4413   -1.4512 H   0  0  0  0  0  0  0  0  0  0  0  0
   -2.1177   -1.3267    0.3427 H   0  0  0  0  0  0  0  0  0  0  0  0
    1.7824    1.6658   -0.0599 H   0  0  0  0  0  0  0  0  0  0  0  0
    0.0955   -2.2911    0.5263 H   0  0  0  0  0  0  0  0  0  0  0  0
    1.9981   -0.6829    0.9611 H   0  0  0  0  0  0  0  0  0  0  0  0
   -2.8059    0.7212   -1.3876 H   0  0  0  0  0  0  0  0  0  0  0  0
   -0.3593    3.1435    0.7482 H   0  0  0  0  0  0  0  0  0  0  0  0
   -0.7965   -0.9193   -2.0714 H   0  0  0  0  0  0  0  0  0  0  0  0
    0.2471    1.0877    2.2318 H   0  0  0  0  0  0  0  0  0  0  0  0
  1 12  1  1
  2 13  1  6
  2  8  1  0
  2  1  1  0
  2  4  1  0
  3  1  1  0
  3  5  1  0
  3 14  1  1
  4 15  1  6
  4 10  1  0
  5  6  1  0
  5 16  1  1
  6  4  1  0
  6 17  1  1
  7  1  1  0
  8 19  1  0
  9  3  1  0
 10 21  1  0
 11  5  1  0
 11  6  1  0
 18  7  1  0
 20  9  1  0
M  END
>  <HBA>  (561) 
5

>  <HBD>  (561) 
4

>  <TPSA>  (561) 
93.45

>  <cid>  (561) 
2859

>  <dipole>  (561) 
3.82

>  <excitation_energy_1>  (561) 
5.644

>  <excitation_energy_2>  (561) 
6.197

>  <excitation_energy_3>  (561) 
6.506

>  <excitation_energy_4>  (561) 
6.653

>  <homo_energy>  (561) 
-6.705

>  <homo_lumo_gap>  (561) 
7.532

>  <logP>  (561) 
-2.789

>  <lumo_energy>  (561) 
0.827

>  <melting_point>  (561) 
84.12

>  <molecular_refractivity>  (561) 
32.46

>  <oscillator_strength_1>  (561) 
0.0008

>  <oscillator_strength_2>  (561) 
0.0003

>  <oscillator_strength_3>  (561) 
0.01

>  <oscillator_strength_4>  (561) 
0.0042

>  <open_babel_can_smiles>  (561) 
O[C@@H]1[C@@H](O)[C@@H](O)[C@H]2[C@@H]([C@@H]1O)O2

>  <mulliken_charges>  (561) 
21
1   0.119602
2   0.114255
3   0.097011
4   0.076123
5   0.020102
6   0.057783
7   -0.627359
8   -0.62267
9   -0.643489
10   -0.632263
11   -0.463734
12   0.100774
13   0.133271
14   0.151691
15   0.169539
16   0.166618
17   0.162525
18   0.40485
19   0.39766
20   0.419237
21   0.398474

>  <lowdin_charges>  (561) 
21
1   -0.039628
2   -0.041169
3   -0.030949
4   -0.026679
5   -0.045564
6   -0.039385
7   -0.443605
8   -0.441816
9   -0.456156
10   -0.454994
11   -0.283776
12   0.12731
13   0.145414
14   0.15995
15   0.16496
16   0.162178
17   0.162985
18   0.345421
19   0.340531
20   0.350481
21   0.344492

$$$$
PCCDB-ID:  2879
     RDKit          3D

 16 16  0  0  0  0  0  0  0  0999 V2000
    0.9268   -0.0944    0.0191 C   0  0  0  0  0  0  0  0  0  0  0  0
    3.1492   -1.3057   -0.1816 C   0  0  0  0  0  0  0  0  0  0  0  0
    3.1644    1.0901   -0.1518 C   0  0  0  0  0  0  0  0  0  0  0  0
    4.5407   -1.3190   -0.3017 C   0  0  0  0  0  0  0  0  0  0  0  0
    4.5499    1.0969   -0.2724 C   0  0  0  0  0  0  0  0  0  0  0  0
    2.4333   -0.1076   -0.1044 C   0  0  0  0  0  0  0  0  0  0  0  0
    5.2459   -0.1150   -0.3481 C   0  0  0  0  0  0  0  0  0  0  0  0
    6.6096   -0.0545   -0.4659 O   0  0  0  0  0  0  0  0  0  0  0  0
    0.5277   -1.1077    0.1310 H   0  0  0  0  0  0  0  0  0  0  0  0
    0.4516    0.3511   -0.8646 H   0  0  0  0  0  0  0  0  0  0  0  0
    0.5975    0.4896    0.8875 H   0  0  0  0  0  0  0  0  0  0  0  0
    2.6145   -2.2523   -0.1473 H   0  0  0  0  0  0  0  0  0  0  0  0
    2.6366    2.0398   -0.0918 H   0  0  0  0  0  0  0  0  0  0  0  0
    5.0742   -2.2667   -0.3586 H   0  0  0  0  0  0  0  0  0  0  0  0
    5.1088    2.0269   -0.3094 H   0  0  0  0  0  0  0  0  0  0  0  0
    6.9604   -0.9580   -0.4976 H   0  0  0  0  0  0  0  0  0  0  0  0
  1  9  1  0
  1 11  1  0
  2 12  1  0
  2  6  2  0
  3  6  1  0
  3 13  1  0
  4  2  1  0
  5  3  2  0
  6  1  1  0
  7  4  2  0
  7  5  1  0
  8  7  1  0
 10  1  1  0
 14  4  1  0
 15  5  1  0
 16  8  1  0
M  END
>  <HBA>  (562) 
1

>  <HBD>  (562) 
1

>  <TPSA>  (562) 
20.23

>  <cid>  (562) 
2879

>  <dipole>  (562) 
1.32

>  <excitation_energy_1>  (562) 
4.918

>  <excitation_energy_2>  (562) 
5.078

>  <excitation_energy_3>  (562) 
5.593

>  <excitation_energy_4>  (562) 
5.67

>  <homo_energy>  (562) 
-5.742

>  <homo_lumo_gap>  (562) 
5.812

>  <logP>  (562) 
1.701

>  <lumo_energy>  (562) 
0.071

>  <melting_point>  (562) 
48.13

>  <molecular_refractivity>  (562) 
33.43

>  <oscillator_strength_1>  (562) 
0.0369

>  <oscillator_strength_2>  (562) 
0.0002

>  <oscillator_strength_3>  (562) 
0.0007

>  <oscillator_strength_4>  (562) 
0.0707

>  <open_babel_can_smiles>  (562) 
Cc1ccc(cc1)O

>  <mulliken_charges>  (562) 
16
1   -0.530192
2   -0.189597
3   -0.183757
4   -0.191712
5   -0.156157
6   0.176859
7   0.346131
8   -0.645258
9   0.15197
10   0.160079
11   0.15842
12   0.122067
13   0.12309
14   0.115083
15   0.137421
16   0.405553

>  <lowdin_charges>  (562) 
16
1   -0.44221
2   -0.157998
3   -0.153736
4   -0.215777
5   -0.184451
6   -0.019253
7   0.100864
8   -0.383063
9   0.154465
10   0.158932
11   0.158506
12   0.154672
13   0.155493
14   0.151866
15   0.166469
16   0.35522

$$$$
PCCDB-ID:  2883
     RDKit          3D

 32 32  0  0  0  0  0  0  0  0999 V2000
    0.3988    1.5780   -0.0261 C   0  0  0  0  0  0  0  0  0  0  0  0
    7.2515    0.8723   -0.7272 C   0  0  0  0  0  0  0  0  0  0  0  0
    4.5674   -2.9235    0.6953 C   0  0  0  0  0  0  0  0  0  0  0  0
    1.8659    1.6035    0.2691 C   0  0  0  0  0  0  0  0  0  0  0  0
    6.4642   -0.0753    0.1819 C   0  0  0  0  0  0  0  0  0  0  0  0
    4.0527   -3.1032   -3.0876 C   0  0  0  0  0  0  0  0  0  0  0  0
    4.2414   -1.7759   -3.4704 C   0  0  0  0  0  0  0  0  0  0  0  0
    2.7410    0.6523   -0.0793 C   0  0  0  0  0  0  0  0  0  0  0  0
    4.1728   -3.4630   -1.7445 C   0  0  0  0  0  0  0  0  0  0  0  0
    4.5605   -0.8216   -2.5043 C   0  0  0  0  0  0  0  0  0  0  0  0
    4.4832   -2.5201   -0.7569 C   0  0  0  0  0  0  0  0  0  0  0  0
    4.6826   -1.1828   -1.1575 C   0  0  0  0  0  0  0  0  0  0  0  0
    4.1811    0.7919    0.2782 C   0  0  0  0  0  0  0  0  0  0  0  0
    5.0422   -0.1905   -0.1851 N   0  0  0  0  0  0  0  0  0  0  0  0
    4.5995    1.7154    0.9766 O   0  0  0  0  0  0  0  0  0  0  0  0
   -0.1883    1.6812    0.8962 H   0  0  0  0  0  0  0  0  0  0  0  0
    0.0951    0.6528   -0.5266 H   0  0  0  0  0  0  0  0  0  0  0  0
    0.1161    2.4241   -0.6678 H   0  0  0  0  0  0  0  0  0  0  0  0
    8.3026    0.9043   -0.4166 H   0  0  0  0  0  0  0  0  0  0  0  0
    6.8426    1.8841   -0.6605 H   0  0  0  0  0  0  0  0  0  0  0  0
    7.2176    0.5417   -1.7712 H   0  0  0  0  0  0  0  0  0  0  0  0
    4.3123   -3.9804    0.8184 H   0  0  0  0  0  0  0  0  0  0  0  0
    3.8819   -2.3326    1.3135 H   0  0  0  0  0  0  0  0  0  0  0  0
    5.5714   -2.7727    1.1093 H   0  0  0  0  0  0  0  0  0  0  0  0
    2.2550    2.4670    0.8075 H   0  0  0  0  0  0  0  0  0  0  0  0
    6.5060    0.2823    1.2133 H   0  0  0  0  0  0  0  0  0  0  0  0
    6.8953   -1.0808    0.1420 H   0  0  0  0  0  0  0  0  0  0  0  0
    3.8080   -3.8581   -3.8299 H   0  0  0  0  0  0  0  0  0  0  0  0
    4.1448   -1.4835   -4.5122 H   0  0  0  0  0  0  0  0  0  0  0  0
    2.4141   -0.2302   -0.6214 H   0  0  0  0  0  0  0  0  0  0  0  0
    4.0146   -4.4979   -1.4504 H   0  0  0  0  0  0  0  0  0  0  0  0
    4.7143    0.2171   -2.7812 H   0  0  0  0  0  0  0  0  0  0  0  0
  1  4  1  0
  1 16  1  0
  2 20  1  0
  2 19  1  0
  2  5  1  0
  3 22  1  0
  3 24  1  0
  3 23  1  0
  4 25  1  0
  5 26  1  0
  6  9  2  0
  7  6  1  0
  7 10  2  0
  8  4  2  0
  8 13  1  0
  9 31  1  0
  9 11  1  0
 10 12  1  0
 11  3  1  0
 12 11  2  0
 12 14  1  0
 13 15  2  0
 14  5  1  0
 14 13  1  0
 17  1  1  0
 18  1  1  0
 21  2  1  0
 27  5  1  0
 28  6  1  0
 29  7  1  0
 30  8  1  0
 32 10  1  0
M  END
>  <HBA>  (563) 
2

>  <HBD>  (563) 
0

>  <TPSA>  (563) 
20.31

>  <cid>  (563) 
2883

>  <dipole>  (563) 
3.22

>  <excitation_energy_1>  (563) 
4.453

>  <excitation_energy_2>  (563) 
4.929

>  <excitation_energy_3>  (563) 
5.02

>  <excitation_energy_4>  (563) 
5.216

>  <homo_energy>  (563) 
-6.335

>  <homo_lumo_gap>  (563) 
5.671

>  <logP>  (563) 
2.924

>  <lumo_energy>  (563) 
-0.664

>  <melting_point>  (563) 
46.03

>  <molecular_refractivity>  (563) 
64.57

>  <oscillator_strength_1>  (563) 
0.0006

>  <oscillator_strength_2>  (563) 
0.0879

>  <oscillator_strength_3>  (563) 
0.0093

>  <oscillator_strength_4>  (563) 
0.0349

>  <open_babel_can_smiles>  (563) 
C/C=C/C(=O)N(c1ccccc1C)CC

>  <mulliken_charges>  (563) 
32
1   -0.498334
2   -0.449539
3   -0.526971
4   -0.060664
5   -0.134474
6   -0.113429
7   -0.14906
8   -0.195561
9   -0.206155
10   -0.125404
11   0.179568
12   0.162257
13   0.577635
14   -0.525215
15   -0.540749
16   0.164122
17   0.15694
18   0.164599
19   0.143238
20   0.176556
21   0.144401
22   0.154128
23   0.173084
24   0.167068
25   0.164645
26   0.176951
27   0.140876
28   0.132555
29   0.134962
30   0.14138
31   0.128222
32   0.142369

>  <lowdin_charges>  (563) 
32
1   -0.441101
2   -0.450838
3   -0.44106
4   -0.102849
5   -0.186651
6   -0.154555
7   -0.158317
8   -0.224574
9   -0.164134
10   -0.161172
11   -0.004407
12   0.026581
13   0.160726
14   -0.09563
15   -0.325154
16   0.163517
17   0.156948
18   0.164398
19   0.151661
20   0.164121
21   0.147445
22   0.155951
23   0.168982
24   0.162137
25   0.171896
26   0.165419
27   0.145708
28   0.161069
29   0.159395
30   0.163437
31   0.156121
32   0.164929

$$$$
PCCDB-ID:  2896
     RDKit          3D

 19 19  0  0  0  0  0  0  0  0999 V2000
   -0.9795   -0.9796   -0.5188 C   0  0  0  0  0  0  0  0  0  0  0  0
    0.4179   -1.1263    0.1031 C   0  0  0  0  0  0  0  0  0  0  0  0
    2.3183    0.5438    0.3514 C   0  0  0  0  0  0  0  0  0  0  0  0
    3.2896    1.1749   -0.6690 C   0  0  0  0  0  0  0  0  0  0  0  0
    0.0256    1.1167   -0.3673 C   0  0  0  0  0  0  0  0  0  0  0  0
    0.2934    2.3764   -0.4600 N   0  0  0  0  0  0  0  0  0  0  0  0
   -1.2017    0.4639   -0.3765 N   0  0  0  0  0  0  0  0  0  0  0  0
    1.0164    0.1721   -0.2034 N   0  0  0  0  0  0  0  0  0  0  0  0
    4.3968    0.7145   -0.8419 O   0  0  0  0  0  0  0  0  0  0  0  0
    2.8518    2.2625   -1.3015 O   0  0  0  0  0  0  0  0  0  0  0  0
   -1.7399   -1.5558    0.0150 H   0  0  0  0  0  0  0  0  0  0  0  0
   -0.9713   -1.2904   -1.5732 H   0  0  0  0  0  0  0  0  0  0  0  0
    0.9926   -1.9451   -0.3385 H   0  0  0  0  0  0  0  0  0  0  0  0
    0.3513   -1.2889    1.1903 H   0  0  0  0  0  0  0  0  0  0  0  0
    2.1826    1.2447    1.1890 H   0  0  0  0  0  0  0  0  0  0  0  0
    2.8017   -0.3597    0.7237 H   0  0  0  0  0  0  0  0  0  0  0  0
   -0.5340    2.9549   -0.5834 H   0  0  0  0  0  0  0  0  0  0  0  0
   -1.9331    0.8882   -0.9334 H   0  0  0  0  0  0  0  0  0  0  0  0
    1.9150    2.4912   -1.0091 H   0  0  0  0  0  0  0  0  0  0  0  0
  1  7  1  0
  1 11  1  0
  1  2  1  0
  2 14  1  0
  3 16  1  0
  3 15  1  0
  4  3  1  0
  5  8  1  0
  6  5  2  0
  7  5  1  0
  8  2  1  0
  8  3  1  0
  9  4  2  0
 10 19  1  0
 10  4  1  0
 12  1  1  0
 13  2  1  0
 17  6  1  0
 18  7  1  0
M  END
>  <HBA>  (564) 
5

>  <HBD>  (564) 
2

>  <TPSA>  (564) 
78.92

>  <cid>  (564) 
2896

>  <dipole>  (564) 
7.87

>  <excitation_energy_1>  (564) 
5.319

>  <excitation_energy_2>  (564) 
5.561

>  <excitation_energy_3>  (564) 
5.828

>  <excitation_energy_4>  (564) 
6.007

>  <homo_energy>  (564) 
-6.316

>  <homo_lumo_gap>  (564) 
7.023

>  <logP>  (564) 
-1.225

>  <lumo_energy>  (564) 
0.708

>  <melting_point>  (564) 
148.59

>  <molecular_refractivity>  (564) 
42.34

>  <oscillator_strength_1>  (564) 
0.0132

>  <oscillator_strength_2>  (564) 
0.0037

>  <oscillator_strength_3>  (564) 
0.0002

>  <oscillator_strength_4>  (564) 
0.0075

>  <open_babel_can_smiles>  (564) 
OC(=O)CN1CCNC1=N

>  <mulliken_charges>  (564) 
19
1   -0.14648
2   -0.129148
3   -0.253568
4   0.592307
5   0.736741
6   -0.769014
7   -0.624607
8   -0.449754
9   -0.461845
10   -0.589822
11   0.167101
12   0.163183
13   0.173946
14   0.157372
15   0.180422
16   0.18019
17   0.292331
18   0.328113
19   0.452533

>  <lowdin_charges>  (564) 
19
1   -0.193529
2   -0.188772
3   -0.232283
4   0.178556
5   0.137543
6   -0.49743
7   -0.309631
8   -0.120443
9   -0.266331
10   -0.367102
11   0.160533
12   0.145376
13   0.163039
14   0.141497
15   0.166164
16   0.175377
17   0.265867
18   0.283974
19   0.357596

$$$$
PCCDB-ID:  2899
     RDKit          3D

 23 23  0  0  0  0  0  0  0  0999 V2000
   -1.5465    0.7644    0.1260 C   0  0  0  0  0  0  0  0  0  0  0  0
   -0.3255    1.5381   -0.4036 C   0  0  0  0  0  0  0  0  0  0  0  0
   -1.5416   -0.7559   -0.0955 C   0  0  0  0  0  0  0  0  0  0  0  0
    0.9670    1.2666    0.3907 C   0  0  0  0  0  0  0  0  0  0  0  0
   -0.3015   -1.5220    0.3975 C   0  0  0  0  0  0  0  0  0  0  0  0
    1.7639    0.0011    0.0067 C   0  0  0  0  0  0  0  0  0  0  0  0
    0.9684   -1.2519   -0.4322 C   0  0  0  0  0  0  0  0  0  0  0  0
    1.8033   -2.4697   -0.4538 N   0  0  0  0  0  0  0  0  0  0  0  0
   -2.4562    1.1727   -0.3357 H   0  0  0  0  0  0  0  0  0  0  0  0
   -1.6365    0.9708    1.2033 H   0  0  0  0  0  0  0  0  0  0  0  0
   -0.5529    2.6102   -0.3367 H   0  0  0  0  0  0  0  0  0  0  0  0
   -0.1741    1.3294   -1.4728 H   0  0  0  0  0  0  0  0  0  0  0  0
   -1.6655   -0.9638   -1.1687 H   0  0  0  0  0  0  0  0  0  0  0  0
   -2.4314   -1.1733    0.3950 H   0  0  0  0  0  0  0  0  0  0  0  0
    0.7003    1.2206    1.4556 H   0  0  0  0  0  0  0  0  0  0  0  0
    1.6399    2.1285    0.2945 H   0  0  0  0  0  0  0  0  0  0  0  0
   -0.5077   -2.5961    0.3222 H   0  0  0  0  0  0  0  0  0  0  0  0
   -0.1187   -1.3104    1.4623 H   0  0  0  0  0  0  0  0  0  0  0  0
    2.3922   -0.2814    0.8645 H   0  0  0  0  0  0  0  0  0  0  0  0
    2.4641    0.2457   -0.8054 H   0  0  0  0  0  0  0  0  0  0  0  0
    0.6452   -1.1054   -1.4721 H   0  0  0  0  0  0  0  0  0  0  0  0
    2.1479   -2.6491    0.4914 H   0  0  0  0  0  0  0  0  0  0  0  0
    2.6384   -2.2938   -1.0143 H   0  0  0  0  0  0  0  0  0  0  0  0
  1 10  1  0
  2 11  1  0
  2  1  1  0
  2  4  1  0
  3  1  1  0
  3 14  1  0
  3  5  1  0
  4 15  1  0
  5 18  1  0
  6  4  1  0
  6 19  1  0
  7  6  1  0
  7  5  1  0
  8  7  1  0
  8 22  1  0
  9  1  1  0
 12  2  1  0
 13  3  1  0
 16  4  1  0
 17  5  1  0
 20  6  1  0
 21  7  1  0
 23  8  1  0
M  END
>  <HBA>  (565) 
1

>  <HBD>  (565) 
1

>  <TPSA>  (565) 
26.02

>  <cid>  (565) 
2899

>  <dipole>  (565) 
1.35

>  <excitation_energy_1>  (565) 
5.593

>  <excitation_energy_2>  (565) 
6.122

>  <excitation_energy_3>  (565) 
6.215

>  <excitation_energy_4>  (565) 
6.417

>  <homo_energy>  (565) 
-6.158

>  <homo_lumo_gap>  (565) 
8.294

>  <logP>  (565) 
2.368

>  <lumo_energy>  (565) 
2.136

>  <melting_point>  (565) 
49.6

>  <molecular_refractivity>  (565) 
36.36

>  <oscillator_strength_1>  (565) 
0.0233

>  <oscillator_strength_2>  (565) 
0.0123

>  <oscillator_strength_3>  (565) 
0.0009

>  <oscillator_strength_4>  (565) 
0.0106

>  <open_babel_can_smiles>  (565) 
NC1CCCCCC1

>  <mulliken_charges>  (565) 
23
1   -0.255068
2   -0.254986
3   -0.262535
4   -0.262859
5   -0.263007
6   -0.269057
7   0.033015
8   -0.714729
9   0.127953
10   0.12617
11   0.129695
12   0.128836
13   0.131119
14   0.129789
15   0.130616
16   0.130587
17   0.150924
18   0.120189
19   0.118149
20   0.122431
21   0.128294
22   0.285419
23   0.289056

>  <lowdin_charges>  (565) 
23
1   -0.276455
2   -0.277275
3   -0.274606
4   -0.281568
5   -0.283161
6   -0.29898
7   -0.069652
8   -0.549487
9   0.142527
10   0.134247
11   0.142472
12   0.136566
13   0.136844
14   0.144199
15   0.137025
16   0.145239
17   0.153891
18   0.133702
19   0.136645
20   0.137346
21   0.134387
22   0.246139
23   0.249954

$$$$
PCCDB-ID:  2901
     RDKit          3D

 20 20  0  0  0  0  0  0  0  0999 V2000
   -0.7239   -1.0631   -0.0177 C   0  0  0  0  0  0  0  0  0  0  0  0
    0.8070   -1.0176   -0.3012 C   0  0  0  0  0  0  0  0  0  0  0  0
   -1.1239    0.3815    0.3759 C   0  0  0  0  0  0  0  0  0  0  0  0
    1.2475    0.4233    0.0359 C   0  0  0  0  0  0  0  0  0  0  0  0
    0.0550    2.6267    0.5693 C   0  0  0  0  0  0  0  0  0  0  0  0
   -0.0092    1.2851   -0.2011 C   0  0  0  0  0  0  0  0  0  0  0  0
   -0.2671    1.5805   -1.6320 N   0  0  0  0  0  0  0  0  0  0  0  0
    0.3944    2.6991    1.7294 O   0  0  0  0  0  0  0  0  0  0  0  0
   -0.3241    3.6892   -0.1531 O   0  0  0  0  0  0  0  0  0  0  0  0
   -0.9746   -1.7659    0.7827 H   0  0  0  0  0  0  0  0  0  0  0  0
   -1.2726   -1.3993   -0.9049 H   0  0  0  0  0  0  0  0  0  0  0  0
    1.0046   -1.2436   -1.3553 H   0  0  0  0  0  0  0  0  0  0  0  0
    1.3627   -1.7552    0.2859 H   0  0  0  0  0  0  0  0  0  0  0  0
   -1.1179    0.5024    1.4632 H   0  0  0  0  0  0  0  0  0  0  0  0
   -2.1182    0.6760    0.0201 H   0  0  0  0  0  0  0  0  0  0  0  0
    2.1057    0.7657   -0.5558 H   0  0  0  0  0  0  0  0  0  0  0  0
    1.5225    0.5176    1.0907 H   0  0  0  0  0  0  0  0  0  0  0  0
   -0.9304    0.9289   -2.0428 H   0  0  0  0  0  0  0  0  0  0  0  0
    0.5889    1.5285   -2.1809 H   0  0  0  0  0  0  0  0  0  0  0  0
   -0.5350    3.3107   -1.0470 H   0  0  0  0  0  0  0  0  0  0  0  0
  1  3  1  0
  1 10  1  0
  2  1  1  0
  2  4  1  0
  2 13  1  0
  3 14  1  0
  4 17  1  0
  5  8  2  0
  6  4  1  0
  6  3  1  0
  6  5  1  0
  7  6  1  0
  9  5  1  0
 11  1  1  0
 12  2  1  0
 15  3  1  0
 16  4  1  0
 18  7  1  0
 19  7  1  0
 20  9  1  0
M  END
>  <HBA>  (566) 
3

>  <HBD>  (566) 
2

>  <TPSA>  (566) 
63.32

>  <cid>  (566) 
2901

>  <dipole>  (566) 
5.51

>  <excitation_energy_1>  (566) 
5.506

>  <excitation_energy_2>  (566) 
5.847

>  <excitation_energy_3>  (566) 
6.791

>  <excitation_energy_4>  (566) 
6.926

>  <homo_energy>  (566) 
-6.672

>  <homo_lumo_gap>  (566) 
7.266

>  <logP>  (566) 
1.043

>  <lumo_energy>  (566) 
0.593

>  <melting_point>  (566) 
138.45

>  <molecular_refractivity>  (566) 
33.36

>  <oscillator_strength_1>  (566) 
0.0012

>  <oscillator_strength_2>  (566) 
0.0052

>  <oscillator_strength_3>  (566) 
0.0459

>  <oscillator_strength_4>  (566) 
0.0139

>  <open_babel_can_smiles>  (566) 
OC(=O)C1(N)CCCC1

>  <mulliken_charges>  (566) 
20
1   -0.281751
2   -0.275108
3   -0.299957
4   -0.289986
5   0.610664
6   0.108528
7   -0.79895
8   -0.479878
9   -0.588264
10   0.152563
11   0.135478
12   0.133099
13   0.150337
14   0.180526
15   0.146252
16   0.135593
17   0.180693
18   0.325192
19   0.322071
20   0.432898

>  <lowdin_charges>  (566) 
20
1   -0.289836
2   -0.286649
3   -0.28149
4   -0.286113
5   0.169856
6   0.020201
7   -0.548101
8   -0.266084
9   -0.353912
10   0.155612
11   0.142618
12   0.139633
13   0.155043
14   0.166305
15   0.149484
16   0.145867
17   0.16732
18   0.273022
19   0.268784
20   0.358441

$$$$
PCCDB-ID:  2902
     RDKit          3D

 26 26  0  0  1  0  0  0  0  0999 V2000
    0.8604   -0.1330    0.2639 C   0  0  0  0  0  0  0  0  0  0  0  0
    2.6972    1.5956    0.4332 C   0  0  0  0  0  0  0  0  0  0  0  0
    3.2119   -0.8905    0.7436 C   0  0  0  0  0  0  0  0  0  0  0  0
    6.1461   -3.0112   -0.6654 C   0  0  0  0  0  0  0  0  0  0  0  0
    2.3481    0.1591    0.0183 C   0  0  0  0  0  0  0  0  0  0  0  0
    4.7337   -0.8028    0.4530 C   0  0  1  0  0  0  0  0  0  0  0  0
    5.5773   -1.8491   -1.4547 C   0  0  0  0  0  0  0  0  0  0  0  0
    5.4918   -1.8629    1.2410 C   0  0  0  0  0  0  0  0  0  0  0  0
    6.1262   -2.8559    0.7728 N   0  0  0  0  0  0  0  0  0  0  0  0
    4.9674   -0.8453   -0.9814 N   0  0  0  0  0  0  0  0  0  0  0  0
    5.7437   -1.9065   -2.8058 O   0  0  0  0  0  0  0  0  0  0  0  0
    5.4802   -1.7203    2.5961 O   0  0  0  0  0  0  0  0  0  0  0  0
    0.2260    0.5818   -0.2730 H   0  0  0  0  0  0  0  0  0  0  0  0
    0.6117   -0.0596    1.3312 H   0  0  0  0  0  0  0  0  0  0  0  0
    0.5884   -1.1405   -0.0729 H   0  0  0  0  0  0  0  0  0  0  0  0
    2.0524    2.3144   -0.0855 H   0  0  0  0  0  0  0  0  0  0  0  0
    3.7329    1.8537    0.1874 H   0  0  0  0  0  0  0  0  0  0  0  0
    2.5531    1.7440    1.5126 H   0  0  0  0  0  0  0  0  0  0  0  0
    2.8762   -1.8963    0.4578 H   0  0  0  0  0  0  0  0  0  0  0  0
    3.0439   -0.8069    1.8284 H   0  0  0  0  0  0  0  0  0  0  0  0
    7.1874   -3.1827   -0.9826 H   0  0  0  0  0  0  0  0  0  0  0  0
    5.6017   -3.9289   -0.9419 H   0  0  0  0  0  0  0  0  0  0  0  0
    2.5498    0.0588   -1.0548 H   0  0  0  0  0  0  0  0  0  0  0  0
    5.0897    0.1775    0.8078 H   0  0  0  0  0  0  0  0  0  0  0  0
    6.2628   -2.6946   -3.0316 H   0  0  0  0  0  0  0  0  0  0  0  0
    4.9985   -0.9109    2.8272 H   0  0  0  0  0  0  0  0  0  0  0  0
  1 14  1  0
  2 18  1  0
  3 20  1  0
  4  9  1  0
  5  1  1  0
  5  2  1  0
  5  3  1  0
  6  3  1  0
  6 24  1  1
  6  8  1  0
  7 10  2  0
  7  4  1  0
  8 12  1  0
  9  8  2  0
 10  6  1  0
 11  7  1  0
 12 26  1  0
 13  1  1  0
 15  1  1  0
 16  2  1  0
 17  2  1  0
 19  3  1  0
 21  4  1  0
 22  4  1  0
 23  5  1  0
 25 11  1  0
M  END
>  <HBA>  (567) 
4

>  <HBD>  (567) 
2

>  <TPSA>  (567) 
58.2

>  <cid>  (567) 
2902

>  <dipole>  (567) 
0.78

>  <excitation_energy_1>  (567) 
5.376

>  <excitation_energy_2>  (567) 
5.554

>  <excitation_energy_3>  (567) 
5.644

>  <excitation_energy_4>  (567) 
6.004

>  <homo_energy>  (567) 
-6.433

>  <homo_lumo_gap>  (567) 
6.776

>  <logP>  (567) 
0.305

>  <lumo_energy>  (567) 
0.343

>  <melting_point>  (567) 
91.83

>  <molecular_refractivity>  (567) 
52.29

>  <oscillator_strength_1>  (567) 
0.0021

>  <oscillator_strength_2>  (567) 
0.0018

>  <oscillator_strength_3>  (567) 
0.0012

>  <oscillator_strength_4>  (567) 
0.0008

>  <open_babel_can_smiles>  (567) 
CC(C[C@@H]1N=C(O)CN=C1O)C

>  <mulliken_charges>  (567) 
26
1   -0.44498
2   -0.455586
3   -0.251078
4   -0.242707
5   -0.062928
6   -0.097351
7   0.495281
8   0.521988
9   -0.43837
10   -0.429192
11   -0.58483
12   -0.592253
13   0.144164
14   0.135578
15   0.141989
16   0.146939
17   0.156055
18   0.128466
19   0.14229
20   0.114462
21   0.163011
22   0.173706
23   0.160759
24   0.14964
25   0.412082
26   0.412864

>  <lowdin_charges>  (567) 
26
1   -0.442888
2   -0.44665
3   -0.274391
4   -0.236712
5   -0.120919
6   -0.098261
7   0.118416
8   0.121459
9   -0.205749
10   -0.202207
11   -0.359446
12   -0.358112
13   0.151685
14   0.141798
15   0.147803
16   0.154179
17   0.152172
18   0.137966
19   0.14879
20   0.131929
21   0.156623
22   0.162788
23   0.153763
24   0.15006
25   0.359106
26   0.356801

$$$$
PCCDB-ID:  2903
     RDKit          3D

 26 26  0  0  0  0  0  0  0  0999 V2000
   -1.5810    0.0020    0.7259 C   0  0  0  0  0  0  0  0  0  0  0  0
   -1.4085    1.3141   -0.0537 C   0  0  0  0  0  0  0  0  0  0  0  0
   -1.3901   -1.3127   -0.0449 C   0  0  0  0  0  0  0  0  0  0  0  0
   -0.0156    1.6101   -0.6491 C   0  0  0  0  0  0  0  0  0  0  0  0
    0.0073   -1.5932   -0.6375 C   0  0  0  0  0  0  0  0  0  0  0  0
    1.1890    1.3338    0.2825 C   0  0  0  0  0  0  0  0  0  0  0  0
    1.2091   -1.3033    0.2917 C   0  0  0  0  0  0  0  0  0  0  0  0
    1.9676    0.0162    0.0471 C   0  0  0  0  0  0  0  0  0  0  0  0
    3.2113   -0.0477    0.8398 N   0  0  0  0  0  0  0  0  0  0  0  0
   -2.5968   -0.0032    1.1448 H   0  0  0  0  0  0  0  0  0  0  0  0
   -0.9127    0.0093    1.5966 H   0  0  0  0  0  0  0  0  0  0  0  0
   -1.6655    2.1348    0.6315 H   0  0  0  0  0  0  0  0  0  0  0  0
   -2.1523    1.3566   -0.8621 H   0  0  0  0  0  0  0  0  0  0  0  0
   -2.1332   -1.3710   -0.8531 H   0  0  0  0  0  0  0  0  0  0  0  0
   -1.6362   -2.1319    0.6459 H   0  0  0  0  0  0  0  0  0  0  0  0
   -0.0065    2.6697   -0.9353 H   0  0  0  0  0  0  0  0  0  0  0  0
    0.1207    1.0609   -1.5882 H   0  0  0  0  0  0  0  0  0  0  0  0
    0.1362   -1.0485   -1.5800 H   0  0  0  0  0  0  0  0  0  0  0  0
    0.0300   -2.6542   -0.9175 H   0  0  0  0  0  0  0  0  0  0  0  0
    0.8785    1.3867    1.3369 H   0  0  0  0  0  0  0  0  0  0  0  0
    1.9198    2.1444    0.1533 H   0  0  0  0  0  0  0  0  0  0  0  0
    1.9580   -2.0938    0.1729 H   0  0  0  0  0  0  0  0  0  0  0  0
    0.8936   -1.3523    1.3453 H   0  0  0  0  0  0  0  0  0  0  0  0
    2.2808    0.0128   -1.0084 H   0  0  0  0  0  0  0  0  0  0  0  0
    2.9714   -0.0509    1.8327 H   0  0  0  0  0  0  0  0  0  0  0  0
    3.7505    0.8062    0.6941 H   0  0  0  0  0  0  0  0  0  0  0  0
  1 10  1  0
  1 11  1  0
  2 12  1  0
  2  1  1  0
  3 15  1  0
  3  1  1  0
  4  2  1  0
  4  6  1  0
  5  3  1  0
  5  7  1  0
  6 20  1  0
  7 23  1  0
  8  6  1  0
  8  7  1  0
  8  9  1  0
  9 25  1  0
 13  2  1  0
 14  3  1  0
 16  4  1  0
 17  4  1  0
 18  5  1  0
 19  5  1  0
 21  6  1  0
 22  7  1  0
 24  8  1  0
 26  9  1  0
M  END
>  <HBA>  (568) 
1

>  <HBD>  (568) 
1

>  <TPSA>  (568) 
26.02

>  <cid>  (568) 
2903

>  <dipole>  (568) 
1.33

>  <excitation_energy_1>  (568) 
5.574

>  <excitation_energy_2>  (568) 
6.094

>  <excitation_energy_3>  (568) 
6.208

>  <excitation_energy_4>  (568) 
6.371

>  <homo_energy>  (568) 
-6.163

>  <homo_lumo_gap>  (568) 
8.264

>  <logP>  (568) 
2.758

>  <lumo_energy>  (568) 
2.101

>  <melting_point>  (568) 
48.94

>  <molecular_refractivity>  (568) 
41.16

>  <oscillator_strength_1>  (568) 
0.0275

>  <oscillator_strength_2>  (568) 
0.0031

>  <oscillator_strength_3>  (568) 
0.0006

>  <oscillator_strength_4>  (568) 
0.0061

>  <open_babel_can_smiles>  (568) 
NC1CCCCCCC1

>  <mulliken_charges>  (568) 
26
1   -0.257292
2   -0.2569
3   -0.257336
4   -0.266224
5   -0.266923
6   -0.261566
7   -0.255223
8   0.013676
9   -0.712569
10   0.12844
11   0.130309
12   0.12838
13   0.127005
14   0.126169
15   0.129031
16   0.130434
17   0.136815
18   0.134942
19   0.132717
20   0.122732
21   0.119011
22   0.152568
23   0.120793
24   0.125864
25   0.285985
26   0.289163

>  <lowdin_charges>  (568) 
26
1   -0.282809
2   -0.278942
3   -0.279551
4   -0.283969
5   -0.282397
6   -0.296603
7   -0.283923
8   -0.065922
9   -0.549031
10   0.143529
11   0.13766
12   0.140979
13   0.14054
14   0.140133
15   0.14133
16   0.142491
17   0.140789
18   0.140001
19   0.143835
20   0.134583
21   0.138937
22   0.156712
23   0.134077
24   0.132629
25   0.246116
26   0.248804

$$$$
PCCDB-ID:  2906
     RDKit          3D

 17 17  0  0  0  0  0  0  0  0999 V2000
   -0.7458   -1.0640    0.3024 C   0  0  0  0  0  0  0  0  0  0  0  0
    0.6980   -1.0940   -0.2279 C   0  0  0  0  0  0  0  0  0  0  0  0
   -1.2518    0.3568   -0.0456 C   0  0  0  0  0  0  0  0  0  0  0  0
    1.2065    0.3151    0.1138 C   0  0  0  0  0  0  0  0  0  0  0  0
    0.0126    1.2535   -0.2253 C   0  0  0  0  0  0  0  0  0  0  0  0
    0.0214    1.8289   -1.5803 N   0  0  0  0  0  0  0  0  0  0  0  0
   -0.7340   -1.2072    1.3909 H   0  0  0  0  0  0  0  0  0  0  0  0
   -1.3780   -1.8538   -0.1180 H   0  0  0  0  0  0  0  0  0  0  0  0
    0.6975   -1.2439   -1.3172 H   0  0  0  0  0  0  0  0  0  0  0  0
    1.3049   -1.8956    0.2071 H   0  0  0  0  0  0  0  0  0  0  0  0
   -1.9274    0.7523    0.7196 H   0  0  0  0  0  0  0  0  0  0  0  0
   -1.8150    0.3583   -0.9860 H   0  0  0  0  0  0  0  0  0  0  0  0
    2.1203    0.6013   -0.4208 H   0  0  0  0  0  0  0  0  0  0  0  0
    1.4290    0.3674    1.1890 H   0  0  0  0  0  0  0  0  0  0  0  0
   -0.0082    2.1046    0.4647 H   0  0  0  0  0  0  0  0  0  0  0  0
    0.0811    1.0776   -2.2690 H   0  0  0  0  0  0  0  0  0  0  0  0
    0.8646    2.3893   -1.7069 H   0  0  0  0  0  0  0  0  0  0  0  0
  1  7  1  0
  2  4  1  0
  2 10  1  0
  2  1  1  0
  3  1  1  0
  3 11  1  0
  4 14  1  0
  5  3  1  0
  5  4  1  0
  5 15  1  0
  6  5  1  0
  8  1  1  0
  9  2  1  0
 12  3  1  0
 13  4  1  0
 16  6  1  0
 17  6  1  0
M  END
>  <HBA>  (569) 
1

>  <HBD>  (569) 
1

>  <TPSA>  (569) 
26.02

>  <cid>  (569) 
2906

>  <dipole>  (569) 
1.33

>  <excitation_energy_1>  (569) 
5.649

>  <excitation_energy_2>  (569) 
6.183

>  <excitation_energy_3>  (569) 
6.354

>  <excitation_energy_4>  (569) 
6.685

>  <homo_energy>  (569) 
-6.139

>  <homo_lumo_gap>  (569) 
8.18

>  <logP>  (569) 
1.588

>  <lumo_energy>  (569) 
2.041

>  <melting_point>  (569) 
50.93

>  <molecular_refractivity>  (569) 
26.74

>  <oscillator_strength_1>  (569) 
0.0306

>  <oscillator_strength_2>  (569) 
0.0109

>  <oscillator_strength_3>  (569) 
0.0022

>  <oscillator_strength_4>  (569) 
0.0011

>  <open_babel_can_smiles>  (569) 
NC1CCCC1

>  <mulliken_charges>  (569) 
17
1   -0.268553
2   -0.269676
3   -0.276968
4   -0.272644
5   0.02923
6   -0.713594
7   0.133493
8   0.134064
9   0.1246
10   0.135157
11   0.139539
12   0.147579
13   0.122822
14   0.128877
15   0.129232
16   0.287136
17   0.289706

>  <lowdin_charges>  (569) 
17
1   -0.283281
2   -0.2828
3   -0.29052
4   -0.30123
5   -0.071337
6   -0.552027
7   0.138346
8   0.145948
9   0.132379
10   0.146573
11   0.150499
12   0.151287
13   0.139493
14   0.139378
15   0.140047
16   0.24765
17   0.249596

$$$$
PCCDB-ID:  2915
     RDKit          3D

 20 19  0  0  0  0  0  0  0  0999 V2000
   -0.1636   -0.2937    1.1704 C   0  0  0  0  0  0  0  0  0  0  0  0
    0.2288   -0.4515   -4.4670 C   0  0  0  0  0  0  0  0  0  0  0  0
    0.6258    0.5797    0.1940 C   0  0  0  0  0  0  0  0  0  0  0  0
    1.3519    0.0867   -3.5811 C   0  0  0  0  0  0  0  0  0  0  0  0
   -0.3470   -1.6435    0.6321 N   0  0  0  0  0  0  0  0  0  0  0  0
    0.6664   -1.6974   -5.1060 N   0  0  0  0  0  0  0  0  0  0  0  0
   -0.4472    1.0381   -1.2505 S   0  0  0  0  0  0  0  0  0  0  0  0
    0.9245    1.6467   -2.6946 S   0  0  0  0  0  0  0  0  0  0  0  0
   -1.1001    0.2245    1.4486 H   0  0  0  0  0  0  0  0  0  0  0  0
    0.4298   -0.3766    2.0899 H   0  0  0  0  0  0  0  0  0  0  0  0
   -0.0875    0.3395   -5.1682 H   0  0  0  0  0  0  0  0  0  0  0  0
   -0.6351   -0.6825   -3.8341 H   0  0  0  0  0  0  0  0  0  0  0  0
    1.4904    0.0235   -0.1761 H   0  0  0  0  0  0  0  0  0  0  0  0
    0.9627    1.5007    0.6774 H   0  0  0  0  0  0  0  0  0  0  0  0
    2.2269    0.3647   -4.1841 H   0  0  0  0  0  0  0  0  0  0  0  0
    1.6714   -0.6752   -2.8648 H   0  0  0  0  0  0  0  0  0  0  0  0
   -0.9271   -1.6015   -0.2046 H   0  0  0  0  0  0  0  0  0  0  0  0
   -0.8534   -2.2162    1.3050 H   0  0  0  0  0  0  0  0  0  0  0  0
    1.3331   -1.4913   -5.8488 H   0  0  0  0  0  0  0  0  0  0  0  0
   -0.1259   -2.1524   -5.5556 H   0  0  0  0  0  0  0  0  0  0  0  0
  1  9  1  0
  1 10  1  0
  2 12  1  0
  2  4  1  0
  3 14  1  0
  3  1  1  0
  4 16  1  0
  4  8  1  0
  5  1  1  0
  5 18  1  0
  6  2  1  0
  7  3  1  0
  8  7  1  0
 11  2  1  0
 13  3  1  0
 15  4  1  0
 17  5  1  0
 19  6  1  0
 20  6  1  0
M  END
>  <HBA>  (570) 
4

>  <HBD>  (570) 
2

>  <TPSA>  (570) 
102.64

>  <cid>  (570) 
2915

>  <dipole>  (570) 
1.2

>  <excitation_energy_1>  (570) 
4.456

>  <excitation_energy_2>  (570) 
4.567

>  <excitation_energy_3>  (570) 
5.142

>  <excitation_energy_4>  (570) 
5.282

>  <homo_energy>  (570) 
-6.289

>  <homo_lumo_gap>  (570) 
5.685

>  <logP>  (570) 
1.686

>  <lumo_energy>  (570) 
-0.604

>  <melting_point>  (570) 
101.2

>  <molecular_refractivity>  (570) 
41.94

>  <oscillator_strength_1>  (570) 
0.0085

>  <oscillator_strength_2>  (570) 
0.0026

>  <oscillator_strength_3>  (570) 
0.0009

>  <oscillator_strength_4>  (570) 
0.0007

>  <open_babel_can_smiles>  (570) 
NCCSSCCN

>  <mulliken_charges>  (570) 
20
1   -0.147914
2   -0.133643
3   -0.40214
4   -0.413006
5   -0.715157
6   -0.715336
7   -0.012494
8   0.008698
9   0.132888
10   0.154831
11   0.131469
12   0.162938
13   0.194798
14   0.178734
15   0.16993
16   0.19791
17   0.311643
18   0.299131
19   0.294755
20   0.301965

>  <lowdin_charges>  (570) 
20
1   -0.2072
2   -0.213529
3   -0.380926
4   -0.387622
5   -0.561551
6   -0.558699
7   0.005594
8   0.033574
9   0.127285
10   0.152777
11   0.129115
12   0.154538
13   0.172152
14   0.164188
15   0.165658
16   0.172692
17   0.26007
18   0.258626
19   0.253609
20   0.259651

$$$$
PCCDB-ID:  2916
     RDKit          3D

 16 15  0  0  0  0  0  0  0  0999 V2000
    1.9435    0.0131    0.1882 C   0  0  0  0  0  0  0  0  0  0  0  0
    0.4928   -0.4324    0.3415 C   0  0  0  0  0  0  0  0  0  0  0  0
    2.1364    1.3612    0.7247 N   0  0  0  0  0  0  0  0  0  0  0  0
   -1.9164    0.0532   -3.2378 O   0  0  0  0  0  0  0  0  0  0  0  0
    0.4893    0.5398   -3.4474 O   0  0  0  0  0  0  0  0  0  0  0  0
   -0.1177   -1.7682   -2.4571 O   0  0  0  0  0  0  0  0  0  0  0  0
   -0.5052   -0.3435   -2.5288 P   0  0  0  0  0  0  0  0  0  0  0  0
   -0.7179    0.5757   -0.6439 S   0  0  0  0  0  0  0  0  0  0  0  0
    2.2523   -0.1145   -0.8638 H   0  0  0  0  0  0  0  0  0  0  0  0
    2.5557   -0.6781    0.7828 H   0  0  0  0  0  0  0  0  0  0  0  0
    0.1675   -0.2998    1.3770 H   0  0  0  0  0  0  0  0  0  0  0  0
    0.3606   -1.4743    0.0437 H   0  0  0  0  0  0  0  0  0  0  0  0
    1.6419    2.0296    0.1345 H   0  0  0  0  0  0  0  0  0  0  0  0
    3.1221    1.6124    0.6723 H   0  0  0  0  0  0  0  0  0  0  0  0
   -2.6662   -0.4220   -2.8408 H   0  0  0  0  0  0  0  0  0  0  0  0
    0.0822    1.3723   -3.7410 H   0  0  0  0  0  0  0  0  0  0  0  0
  1  2  1  0
  1  3  1  0
  1 10  1  0
  2 11  1  0
  4 15  1  0
  4  7  1  0
  5  7  1  0
  7  6  2  0
  7  8  1  0
  8  2  1  0
  9  1  1  0
 12  2  1  0
 13  3  1  0
 14  3  1  0
 16  5  1  0
M  END
>  <HBA>  (571) 
5

>  <HBD>  (571) 
3

>  <TPSA>  (571) 
118.66

>  <cid>  (571) 
2916

>  <dipole>  (571) 
2.25

>  <excitation_energy_1>  (571) 
5.371

>  <excitation_energy_2>  (571) 
5.548

>  <excitation_energy_3>  (571) 
5.696

>  <excitation_energy_4>  (571) 
5.877

>  <homo_energy>  (571) 
-6.498

>  <homo_lumo_gap>  (571) 
6.582

>  <logP>  (571) 
0.471

>  <lumo_energy>  (571) 
0.084

>  <melting_point>  (571) 
125.64

>  <molecular_refractivity>  (571) 
33.01

>  <oscillator_strength_1>  (571) 
0.0002

>  <oscillator_strength_2>  (571) 
0.0003

>  <oscillator_strength_3>  (571) 
0.0243

>  <oscillator_strength_4>  (571) 
0.0009

>  <open_babel_can_smiles>  (571) 
NCCSP(=O)(O)O

>  <mulliken_charges>  (571) 
16
1   -0.141299
2   -0.427553
3   -0.717734
4   -0.661915
5   -0.630586
6   -0.524741
7   1.003819
8   -0.118216
9   0.153521
10   0.155203
11   0.196552
12   0.21846
13   0.310184
14   0.301209
15   0.443831
16   0.439263

>  <lowdin_charges>  (571) 
16
1   -0.207486
2   -0.363247
3   -0.560417
4   -0.578781
5   -0.557238
6   -0.565248
7   0.953756
8   -0.064348
9   0.134404
10   0.154758
11   0.177382
12   0.184617
13   0.260055
14   0.25664
15   0.388852
16   0.386301

$$$$
PCCDB-ID:  2927
     RDKit          3D

 27 26  0  0  1  0  0  0  0  0999 V2000
    0.2328   -0.0058    0.1558 C   0  0  0  0  0  0  0  0  0  0  0  0
    0.7341    1.1327   -0.7442 C   0  0  0  0  0  0  0  0  0  0  0  0
    1.2903   -0.4555    1.1732 C   0  0  0  0  0  0  0  0  0  0  0  0
   -0.3319    1.5715   -1.7624 C   0  0  0  0  0  0  0  0  0  0  0  0
    0.8313   -1.5342    2.1805 C   0  0  1  0  0  0  0  0  0  0  0  0
    0.4911   -2.8420    1.4396 C   0  0  0  0  0  0  0  0  0  0  0  0
    1.8742   -1.7237    3.1850 N   0  0  0  0  0  0  0  0  0  0  0  0
    1.2927   -3.7262    1.2626 O   0  0  0  0  0  0  0  0  0  0  0  0
   -0.7739   -2.9611    0.9501 O   0  0  0  0  0  0  0  0  0  0  0  0
    0.6055    4.0700   -1.8209 O   0  0  0  0  0  0  0  0  0  0  0  0
    1.5482    2.3600   -3.5238 O   0  0  0  0  0  0  0  0  0  0  0  0
   -0.8204    3.3721   -3.8996 O   0  0  0  0  0  0  0  0  0  0  0  0
    0.1557    2.9133   -2.8767 P   0  0  0  0  0  0  0  0  0  0  0  0
   -0.0738   -0.8516   -0.4738 H   0  0  0  0  0  0  0  0  0  0  0  0
   -0.6689    0.3342    0.6902 H   0  0  0  0  0  0  0  0  0  0  0  0
    1.6348    0.8089   -1.2794 H   0  0  0  0  0  0  0  0  0  0  0  0
    1.0247    1.9906   -0.1268 H   0  0  0  0  0  0  0  0  0  0  0  0
    1.6250    0.3991    1.7719 H   0  0  0  0  0  0  0  0  0  0  0  0
    2.1743   -0.8353    0.6421 H   0  0  0  0  0  0  0  0  0  0  0  0
   -1.2414    1.9132   -1.2534 H   0  0  0  0  0  0  0  0  0  0  0  0
   -0.6209    0.7320   -2.4064 H   0  0  0  0  0  0  0  0  0  0  0  0
   -0.0681   -1.1678    2.6974 H   0  0  0  0  0  0  0  0  0  0  0  0
    2.6439   -2.2247    2.7386 H   0  0  0  0  0  0  0  0  0  0  0  0
    1.5345   -2.3594    3.9067 H   0  0  0  0  0  0  0  0  0  0  0  0
   -1.2937   -2.1753    1.1872 H   0  0  0  0  0  0  0  0  0  0  0  0
    0.4726    4.9486   -2.2157 H   0  0  0  0  0  0  0  0  0  0  0  0
    1.5775    2.5946   -4.4666 H   0  0  0  0  0  0  0  0  0  0  0  0
  1 15  1  0
  1  3  1  0
  2 17  1  0
  2  1  1  0
  3 18  1  0
  3  5  1  0
  4 20  1  0
  4  2  1  0
  5 22  1  1
  5  7  1  0
  6  5  1  0
  7 24  1  0
  8  6  2  0
  9 25  1  0
  9  6  1  0
 11 13  1  0
 12 13  2  0
 13 10  1  0
 13  4  1  0
 14  1  1  0
 16  2  1  0
 19  3  1  0
 21  4  1  0
 23  7  1  0
 26 10  1  0
 27 11  1  0
M  END
>  <HBA>  (572) 
6

>  <HBD>  (572) 
4

>  <TPSA>  (572) 
130.66

>  <cid>  (572) 
2927

>  <dipole>  (572) 
2.64

>  <excitation_energy_1>  (572) 
5.468

>  <excitation_energy_2>  (572) 
5.858

>  <excitation_energy_3>  (572) 
5.995

>  <excitation_energy_4>  (572) 
6.285

>  <homo_energy>  (572) 
-6.855

>  <homo_lumo_gap>  (572) 
6.863

>  <logP>  (572) 
0.447

>  <lumo_energy>  (572) 
0.008

>  <melting_point>  (572) 
191.18

>  <molecular_refractivity>  (572) 
46.42

>  <oscillator_strength_1>  (572) 
0.0049

>  <oscillator_strength_2>  (572) 
0.0004

>  <oscillator_strength_3>  (572) 
0.0061

>  <oscillator_strength_4>  (572) 
0.0017

>  <open_babel_can_smiles>  (572) 
OC(=O)[C@H](CCCCP(=O)(O)O)N

>  <mulliken_charges>  (572) 
27
1   -0.292941
2   -0.274534
3   -0.248411
4   -0.482386
5   -0.102355
6   0.580308
7   -0.692912
8   -0.445315
9   -0.562498
10   -0.658503
11   -0.66056
12   -0.558504
13   1.055259
14   0.151339
15   0.123633
16   0.16969
17   0.167721
18   0.167334
19   0.152957
20   0.184436
21   0.187462
22   0.131886
23   0.314335
24   0.304028
25   0.411035
26   0.438586
27   0.438913

>  <lowdin_charges>  (572) 
27
1   -0.288378
2   -0.271935
3   -0.275262
4   -0.448734
5   -0.112455
6   0.177957
7   -0.53181
8   -0.244467
9   -0.356261
10   -0.578332
11   -0.582488
12   -0.605081
13   1.045004
14   0.147624
15   0.134431
16   0.160531
17   0.159485
18   0.162579
19   0.153604
20   0.180611
21   0.182435
22   0.142682
23   0.266169
24   0.261227
25   0.357591
26   0.38187
27   0.381403

$$$$
PCCDB-ID:  2946
     RDKit          3D

 28 30  0  0  0  0  0  0  0  0999 V2000
    0.9113    0.4299    0.2315 C   0  0  0  0  0  0  0  0  0  0  0  0
    7.9799    2.4083   -0.2649 C   0  0  0  0  0  0  0  0  0  0  0  0
    4.3765   -1.1824    0.3435 C   0  0  0  0  0  0  0  0  0  0  0  0
    2.9548   -0.9337   -0.2010 C   0  0  0  0  0  0  0  0  0  0  0  0
    2.6265    2.7858    0.0358 C   0  0  0  0  0  0  0  0  0  0  0  0
    6.5528    0.3478    0.0229 C   0  0  0  0  0  0  0  0  0  0  0  0
    5.1965    0.0542    0.1212 C   0  0  0  0  0  0  0  0  0  0  0  0
    3.0984    1.4972    0.0978 C   0  0  0  0  0  0  0  0  0  0  0  0
    3.5253    3.9274   -0.1098 C   0  0  0  0  0  0  0  0  0  0  0  0
    4.5316    1.2852    0.0222 C   0  0  0  0  0  0  0  0  0  0  0  0
    5.4646    2.2977   -0.1235 C   0  0  0  0  0  0  0  0  0  0  0  0
    5.0835    3.6940   -0.1997 C   0  0  0  0  0  0  0  0  0  0  0  0
    2.3628    0.3434    0.2513 N   0  0  0  0  0  0  0  0  0  0  0  0
    6.7104    1.7043   -0.1263 N   0  0  0  0  0  0  0  0  0  0  0  0
    3.1267    5.0830   -0.1875 O   0  0  0  0  0  0  0  0  0  0  0  0
    5.8575    4.6340   -0.3123 O   0  0  0  0  0  0  0  0  0  0  0  0
    0.4893   -0.5241    0.5577 H   0  0  0  0  0  0  0  0  0  0  0  0
    0.5161    0.6675   -0.7685 H   0  0  0  0  0  0  0  0  0  0  0  0
    0.5794    1.2065    0.9260 H   0  0  0  0  0  0  0  0  0  0  0  0
    8.7876    1.6735   -0.2565 H   0  0  0  0  0  0  0  0  0  0  0  0
    8.1145    3.1137    0.5586 H   0  0  0  0  0  0  0  0  0  0  0  0
    8.0019    2.9697   -1.2017 H   0  0  0  0  0  0  0  0  0  0  0  0
    4.7919   -2.0669   -0.1537 H   0  0  0  0  0  0  0  0  0  0  0  0
    4.3178   -1.4172    1.4158 H   0  0  0  0  0  0  0  0  0  0  0  0
    2.2890   -1.7336    0.1345 H   0  0  0  0  0  0  0  0  0  0  0  0
    2.9776   -0.9642   -1.3026 H   0  0  0  0  0  0  0  0  0  0  0  0
    1.5705    3.0271    0.0642 H   0  0  0  0  0  0  0  0  0  0  0  0
    7.4186   -0.3002    0.0447 H   0  0  0  0  0  0  0  0  0  0  0  0
  1 13  1  0
  1 17  1  0
  1 19  1  0
  2 20  1  0
  2 14  1  0
  2 21  1  0
  3 24  1  0
  4 25  1  0
  4 13  1  0
  4  3  1  0
  5 27  1  0
  5  8  2  0
  6 28  1  0
  6  7  2  0
  7  3  1  0
  8 13  1  0
  9  5  1  0
 10  8  1  0
 10  7  1  0
 11 10  2  0
 12 11  1  0
 12  9  1  0
 14 11  1  0
 14  6  1  0
 15  9  2  0
 16 12  2  0
 18  1  1  0
 22  2  1  0
 23  3  1  0
 26  4  1  0
M  END
>  <HBA>  (573) 
4

>  <HBD>  (573) 
0

>  <TPSA>  (573) 
42.31

>  <cid>  (573) 
2946

>  <dipole>  (573) 
8.56

>  <excitation_energy_1>  (573) 
2.351

>  <excitation_energy_2>  (573) 
2.656

>  <excitation_energy_3>  (573) 
3.558

>  <excitation_energy_4>  (573) 
3.718

>  <homo_energy>  (573) 
-5.551

>  <homo_lumo_gap>  (573) 
3.333

>  <logP>  (573) 
0.557

>  <lumo_energy>  (573) 
-2.218

>  <melting_point>  (573) 
131.11

>  <molecular_refractivity>  (573) 
63.34

>  <oscillator_strength_1>  (573) 
0.0001

>  <oscillator_strength_2>  (573) 
0.0146

>  <oscillator_strength_3>  (573) 
0.0023

>  <oscillator_strength_4>  (573) 
0.0921

>  <open_babel_can_smiles>  (573) 
CN1CCc2c3C1=CC(=O)C(=O)c3n(c2)C

>  <mulliken_charges>  (573) 
28
1   -0.313607
2   -0.311568
3   -0.348763
4   -0.14444
5   -0.334179
6   -0.024027
7   0.078719
8   0.426432
9   0.394175
10   -0.026627
11   0.23077
12   0.357126
13   -0.5064
14   -0.49003
15   -0.479212
16   -0.480243
17   0.159922
18   0.161509
19   0.181382
20   0.160424
21   0.197162
22   0.196693
23   0.154052
24   0.166243
25   0.151561
26   0.154791
27   0.130618
28   0.157514

>  <lowdin_charges>  (573) 
28
1   -0.350871
2   -0.342968
3   -0.270149
4   -0.184526
5   -0.289579
6   -0.137853
7   -0.053918
8   0.079493
9   0.114792
10   -0.048101
11   -0.041117
12   0.116389
13   -0.096754
14   0.025621
15   -0.234213
16   -0.227267
17   0.15869
18   0.148772
19   0.169006
20   0.162147
21   0.177313
22   0.176724
23   0.160175
24   0.157767
25   0.15553
26   0.139981
27   0.16595
28   0.168967

$$$$
PCCDB-ID:  2969
     RDKit          3D

 32 31  0  0  0  0  0  0  0  0999 V2000
    0.4584    0.0039   -0.2530 C   0  0  0  0  0  0  0  0  0  0  0  0
    1.9767   -0.1353   -0.1034 C   0  0  0  0  0  0  0  0  0  0  0  0
    2.6132   -1.0216   -1.1818 C   0  0  0  0  0  0  0  0  0  0  0  0
    4.1340   -1.1641   -1.0402 C   0  0  0  0  0  0  0  0  0  0  0  0
    4.7704   -2.0515   -2.1178 C   0  0  0  0  0  0  0  0  0  0  0  0
    6.2926   -2.1835   -1.9808 C   0  0  0  0  0  0  0  0  0  0  0  0
    6.9290   -3.0753   -3.0548 C   0  0  0  0  0  0  0  0  0  0  0  0
    8.4524   -3.1845   -2.9202 C   0  0  0  0  0  0  0  0  0  0  0  0
    9.0820   -4.0812   -3.9882 C   0  0  0  0  0  0  0  0  0  0  0  0
   10.6001   -4.1680   -3.8791 C   0  0  0  0  0  0  0  0  0  0  0  0
   11.2693   -3.5739   -3.0728 O   0  0  0  0  0  0  0  0  0  0  0  0
   11.2018   -4.9890   -4.7878 O   0  0  0  0  0  0  0  0  0  0  0  0
    0.0352    0.6418    0.5313 H   0  0  0  0  0  0  0  0  0  0  0  0
   -0.0376   -0.9728   -0.1912 H   0  0  0  0  0  0  0  0  0  0  0  0
    0.1943    0.4472   -1.2212 H   0  0  0  0  0  0  0  0  0  0  0  0
    2.2106   -0.5480    0.8884 H   0  0  0  0  0  0  0  0  0  0  0  0
    2.4405    0.8610   -0.1339 H   0  0  0  0  0  0  0  0  0  0  0  0
    2.3774   -0.6094   -2.1745 H   0  0  0  0  0  0  0  0  0  0  0  0
    2.1493   -2.0190   -1.1505 H   0  0  0  0  0  0  0  0  0  0  0  0
    4.3694   -1.5744   -0.0470 H   0  0  0  0  0  0  0  0  0  0  0  0
    4.5965   -0.1663   -1.0728 H   0  0  0  0  0  0  0  0  0  0  0  0
    4.5294   -1.6453   -3.1115 H   0  0  0  0  0  0  0  0  0  0  0  0
    4.3134   -3.0518   -2.0804 H   0  0  0  0  0  0  0  0  0  0  0  0
    6.5355   -2.5858   -0.9863 H   0  0  0  0  0  0  0  0  0  0  0  0
    6.7498   -1.1840   -2.0231 H   0  0  0  0  0  0  0  0  0  0  0  0
    6.6760   -2.6807   -4.0505 H   0  0  0  0  0  0  0  0  0  0  0  0
    6.4811   -4.0792   -3.0038 H   0  0  0  0  0  0  0  0  0  0  0  0
    8.7162   -3.5745   -1.9296 H   0  0  0  0  0  0  0  0  0  0  0  0
    8.9086   -2.1892   -2.9808 H   0  0  0  0  0  0  0  0  0  0  0  0
    8.8325   -3.7147   -4.9957 H   0  0  0  0  0  0  0  0  0  0  0  0
    8.6702   -5.1001   -3.9292 H   0  0  0  0  0  0  0  0  0  0  0  0
   10.5314   -5.3937   -5.3631 H   0  0  0  0  0  0  0  0  0  0  0  0
  1 14  1  0
  1  2  1  0
  1 13  1  0
  2 16  1  0
  3 19  1  0
  3  4  1  0
  3  2  1  0
  4 20  1  0
  5 23  1  0
  5  6  1  0
  5  4  1  0
  6 24  1  0
  7 27  1  0
  7  8  1  0
  7  6  1  0
  8 28  1  0
  9 31  1  0
  9 10  1  0
  9  8  1  0
 10 11  2  0
 12 10  1  0
 15  1  1  0
 17  2  1  0
 18  3  1  0
 21  4  1  0
 22  5  1  0
 25  6  1  0
 26  7  1  0
 29  8  1  0
 30  9  1  0
 32 12  1  0
M  END
>  <HBA>  (574) 
2

>  <HBD>  (574) 
1

>  <TPSA>  (574) 
37.3

>  <cid>  (574) 
2969

>  <dipole>  (574) 
4.14

>  <excitation_energy_1>  (574) 
5.744

>  <excitation_energy_2>  (574) 
6.409

>  <excitation_energy_3>  (574) 
7.418

>  <excitation_energy_4>  (574) 
7.442

>  <homo_energy>  (574) 
-7.342

>  <homo_lumo_gap>  (574) 
7.685

>  <logP>  (574) 
3.212

>  <lumo_energy>  (574) 
0.343

>  <melting_point>  (574) 
47.94

>  <molecular_refractivity>  (574) 
51.96

>  <oscillator_strength_1>  (574) 
0.0003

>  <oscillator_strength_2>  (574) 
0.017

>  <oscillator_strength_3>  (574) 
0.0023

>  <oscillator_strength_4>  (574) 
0.0035

>  <open_babel_can_smiles>  (574) 
CCCCCCCCCC(=O)O

>  <mulliken_charges>  (574) 
32
1   -0.441455
2   -0.246837
3   -0.245709
4   -0.252786
5   -0.253402
6   -0.254121
7   -0.259273
8   -0.24642
9   -0.407688
10   0.609197
11   -0.436905
12   -0.569999
13   0.141923
14   0.140866
15   0.140941
16   0.130374
17   0.13044
18   0.125942
19   0.125826
20   0.128035
21   0.128134
22   0.126609
23   0.12643
24   0.131656
25   0.132017
26   0.126753
27   0.126377
28   0.153714
29   0.15661
30   0.16434
31   0.160963
32   0.407448

>  <lowdin_charges>  (574) 
32
1   -0.445258
2   -0.270892
3   -0.27337
4   -0.273152
5   -0.272815
6   -0.272557
7   -0.273933
8   -0.26813
9   -0.32127
10   0.196709
11   -0.236579
12   -0.363516
13   0.15042
14   0.14571
15   0.145848
16   0.138331
17   0.138323
18   0.13638
19   0.136299
20   0.137572
21   0.137576
22   0.136669
23   0.136537
24   0.139564
25   0.139675
26   0.136417
27   0.136129
28   0.152861
29   0.154275
30   0.160095
31   0.158027
32   0.358056

$$$$
PCCDB-ID:  2972
     RDKit          3D

 19 19  0  0  0  0  0  0  0  0999 V2000
    0.9193   -0.1094    0.1475 C   0  0  0  0  0  0  0  0  0  0  0  0
    2.4410   -2.5142   -0.0624 C   0  0  0  0  0  0  0  0  0  0  0  0
    5.2031   -0.0397   -0.2588 C   0  0  0  0  0  0  0  0  0  0  0  0
    4.4939   -1.1977   -0.2145 C   0  0  0  0  0  0  0  0  0  0  0  0
    2.4212   -0.0277    0.0332 C   0  0  0  0  0  0  0  0  0  0  0  0
    4.5638    1.2587   -0.1436 C   0  0  0  0  0  0  0  0  0  0  0  0
    3.0999    1.1642    0.0380 C   0  0  0  0  0  0  0  0  0  0  0  0
    3.1325   -1.2281   -0.0697 N   0  0  0  0  0  0  0  0  0  0  0  0
    5.1580    2.3384   -0.1802 O   0  0  0  0  0  0  0  0  0  0  0  0
    2.4909    2.3783    0.1765 O   0  0  0  0  0  0  0  0  0  0  0  0
    0.4571    0.8384   -0.1444 H   0  0  0  0  0  0  0  0  0  0  0  0
    0.5800   -0.3484    1.1648 H   0  0  0  0  0  0  0  0  0  0  0  0
    0.4992   -0.8645   -0.5236 H   0  0  0  0  0  0  0  0  0  0  0  0
    3.1865   -3.3086   -0.0040 H   0  0  0  0  0  0  0  0  0  0  0  0
    1.8500   -2.6646   -0.9737 H   0  0  0  0  0  0  0  0  0  0  0  0
    1.7799   -2.6021    0.8049 H   0  0  0  0  0  0  0  0  0  0  0  0
    6.2810   -0.0663   -0.3723 H   0  0  0  0  0  0  0  0  0  0  0  0
    4.9712   -2.1691   -0.2900 H   0  0  0  0  0  0  0  0  0  0  0  0
    1.5893    2.2606    0.5082 H   0  0  0  0  0  0  0  0  0  0  0  0
  1 12  1  0
  2 14  1  0
  2 16  1  0
  3  4  2  0
  3  6  1  0
  4  8  1  0
  5  7  2  0
  5  1  1  0
  6  7  1  0
  7 10  1  0
  8  2  1  0
  8  5  1  0
  9  6  2  0
 10 19  1  0
 11  1  1  0
 13  1  1  0
 15  2  1  0
 17  3  1  0
 18  4  1  0
M  END
>  <HBA>  (575) 
3

>  <HBD>  (575) 
1

>  <TPSA>  (575) 
42.23

>  <cid>  (575) 
2972

>  <dipole>  (575) 
8.2

>  <excitation_energy_1>  (575) 
4.067

>  <excitation_energy_2>  (575) 
4.34

>  <excitation_energy_3>  (575) 
4.767

>  <excitation_energy_4>  (575) 
4.823

>  <homo_energy>  (575) 
-5.287

>  <homo_lumo_gap>  (575) 
5.056

>  <logP>  (575) 
0.399

>  <lumo_energy>  (575) 
-0.231

>  <melting_point>  (575) 
86.74

>  <molecular_refractivity>  (575) 
38.95

>  <oscillator_strength_1>  (575) 
0.0003

>  <oscillator_strength_2>  (575) 
0.0015

>  <oscillator_strength_3>  (575) 
0.1714

>  <oscillator_strength_4>  (575) 
0.0267

>  <open_babel_can_smiles>  (575) 
Cn1ccc(=O)c(c1C)O

>  <mulliken_charges>  (575) 
19
1   -0.553858
2   -0.32906
3   -0.249201
4   0.068646
5   0.319468
6   0.446882
7   0.169785
8   -0.467474
9   -0.537093
10   -0.615393
11   0.163278
12   0.178071
13   0.175021
14   0.17802
15   0.176513
16   0.176485
17   0.142958
18   0.154059
19   0.402892

>  <lowdin_charges>  (575) 
19
1   -0.451819
2   -0.346488
3   -0.229105
4   -0.098006
5   -0.016747
6   0.109895
7   0.038867
8   -0.021735
9   -0.307059
10   -0.356907
11   0.163922
12   0.164353
13   0.170444
14   0.170431
15   0.159093
16   0.163237
17   0.172381
18   0.164253
19   0.35099

$$$$
PCCDB-ID:  2980
     RDKit          3D

 34 33  0  0  1  0  0  0  0  0999 V2000
    0.9010   -1.8217    2.7136 C   0  0  0  0  0  0  0  0  0  0  0  0
    6.0315   -7.5947   -3.0300 C   0  0  0  0  0  0  0  0  0  0  0  0
    3.0381   -4.0808   -0.4715 C   0  0  0  0  0  0  0  0  0  0  0  0
    4.2458   -4.9248   -0.0634 C   0  0  0  0  0  0  0  0  0  0  0  0
    1.0912   -2.8616    0.3849 C   0  0  0  0  0  0  0  0  0  0  0  0
    6.1763   -6.1553   -0.9285 C   0  0  0  0  0  0  0  0  0  0  0  0
    0.2015   -2.6545    1.6315 C   0  0  1  0  0  0  0  0  0  0  0  0
    6.8996   -6.6427   -2.2035 C   0  0  2  0  0  0  0  0  0  0  0  0
   -0.2706   -3.9126    2.2279 N   0  0  0  0  0  0  0  0  0  0  0  0
    7.3885   -5.5630   -3.0771 N   0  0  0  0  0  0  0  0  0  0  0  0
    2.2754   -3.6611    0.7007 N   0  0  0  0  0  0  0  0  0  0  0  0
    4.9977   -5.3508   -1.2390 N   0  0  0  0  0  0  0  0  0  0  0  0
    1.2577   -0.8640    2.3148 H   0  0  0  0  0  0  0  0  0  0  0  0
    1.7601   -2.3591    3.1351 H   0  0  0  0  0  0  0  0  0  0  0  0
    0.2092   -1.6240    3.5370 H   0  0  0  0  0  0  0  0  0  0  0  0
    5.7578   -8.4793   -2.4444 H   0  0  0  0  0  0  0  0  0  0  0  0
    6.5722   -7.9192   -3.9241 H   0  0  0  0  0  0  0  0  0  0  0  0
    5.1032   -7.1001   -3.3357 H   0  0  0  0  0  0  0  0  0  0  0  0
    2.3874   -4.6847   -1.1146 H   0  0  0  0  0  0  0  0  0  0  0  0
    3.3808   -3.2248   -1.0895 H   0  0  0  0  0  0  0  0  0  0  0  0
    3.8908   -5.8156    0.4680 H   0  0  0  0  0  0  0  0  0  0  0  0
    4.8664   -4.3558    0.6608 H   0  0  0  0  0  0  0  0  0  0  0  0
    1.3406   -1.8823   -0.0699 H   0  0  0  0  0  0  0  0  0  0  0  0
    0.5129   -3.4151   -0.3674 H   0  0  0  0  0  0  0  0  0  0  0  0
    6.9037   -5.6115   -0.2901 H   0  0  0  0  0  0  0  0  0  0  0  0
    5.8477   -7.0269   -0.3467 H   0  0  0  0  0  0  0  0  0  0  0  0
   -0.6863   -2.0978    1.3015 H   0  0  0  0  0  0  0  0  0  0  0  0
    7.7900   -7.1912   -1.8648 H   0  0  0  0  0  0  0  0  0  0  0  0
    0.5430   -4.5246    2.3155 H   0  0  0  0  0  0  0  0  0  0  0  0
   -0.8859   -4.3839    1.5639 H   0  0  0  0  0  0  0  0  0  0  0  0
    7.9122   -4.8737   -2.5381 H   0  0  0  0  0  0  0  0  0  0  0  0
    6.6021   -5.0748   -3.5045 H   0  0  0  0  0  0  0  0  0  0  0  0
    2.8870   -3.1184    1.3087 H   0  0  0  0  0  0  0  0  0  0  0  0
    5.3030   -4.5206   -1.7465 H   0  0  0  0  0  0  0  0  0  0  0  0
  1 14  1  0
  1 15  1  0
  2 16  1  0
  2  8  1  0
  3  4  1  0
  3 11  1  0
  4 21  1  0
  4 22  1  0
  5 11  1  0
  5  7  1  0
  6 26  1  0
  6 25  1  0
  7 27  1  6
  7  9  1  0
  7  1  1  0
  8 28  1  1
  8  6  1  0
  9 29  1  0
 10 31  1  0
 10  8  1  0
 11 33  1  0
 12  6  1  0
 12  4  1  0
 13  1  1  0
 17  2  1  0
 18  2  1  0
 19  3  1  0
 20  3  1  0
 23  5  1  0
 24  5  1  0
 30  9  1  0
 32 10  1  0
 34 12  1  0
M  END
>  <HBA>  (576) 
4

>  <HBD>  (576) 
4

>  <TPSA>  (576) 
76.1

>  <cid>  (576) 
2980

>  <dipole>  (576) 
1.75

>  <excitation_energy_1>  (576) 
5.226

>  <excitation_energy_2>  (576) 
5.467

>  <excitation_energy_3>  (576) 
5.627

>  <excitation_energy_4>  (576) 
5.681

>  <homo_energy>  (576) 
-6.016

>  <homo_lumo_gap>  (576) 
7.744

>  <logP>  (576) 
1.042

>  <lumo_energy>  (576) 
1.728

>  <melting_point>  (576) 
134.97

>  <molecular_refractivity>  (576) 
51.59

>  <oscillator_strength_1>  (576) 
0.0063

>  <oscillator_strength_2>  (576) 
0.0146

>  <oscillator_strength_3>  (576) 
0.0087

>  <oscillator_strength_4>  (576) 
0.0609

>  <open_babel_can_smiles>  (576) 
C[C@H](CNCCNC[C@@H](N)C)N

>  <mulliken_charges>  (576) 
34
1   -0.441728
2   -0.440408
3   -0.117411
4   -0.116713
5   -0.12017
6   -0.121148
7   0.016157
8   0.025041
9   -0.7062
10   -0.715302
11   -0.572338
12   -0.559218
13   0.132777
14   0.137183
15   0.163248
16   0.13809
17   0.155031
18   0.154849
19   0.154616
20   0.101976
21   0.154028
22   0.101341
23   0.107411
24   0.129176
25   0.099998
26   0.136369
27   0.126965
28   0.130495
29   0.302726
30   0.286628
31   0.290049
32   0.29332
33   0.297396
34   0.275766

>  <lowdin_charges>  (576) 
34
1   -0.452913
2   -0.450027
3   -0.206506
4   -0.205742
5   -0.220859
6   -0.22185
7   -0.070682
8   -0.067
9   -0.55445
10   -0.556654
11   -0.367185
12   -0.36452
13   0.144524
14   0.145466
15   0.162765
16   0.150218
17   0.156842
18   0.154228
19   0.151027
20   0.112245
21   0.149939
22   0.112147
23   0.116874
24   0.140314
25   0.112633
26   0.144487
27   0.140142
28   0.140732
29   0.254833
30   0.250862
31   0.252227
32   0.252566
33   0.252784
34   0.240532

$$$$
PCCDB-ID:  2981
     RDKit          3D

 26 28  0  0  0  0  0  0  0  0999 V2000
    2.8912   -1.4568   -0.2924 C   0  0  0  0  0  0  0  0  0  0  0  0
   -2.8421   -1.5796    0.2905 C   0  0  0  0  0  0  0  0  0  0  0  0
    3.5589   -0.2365   -0.1677 C   0  0  0  0  0  0  0  0  0  0  0  0
   -3.5614   -0.3887    0.1699 C   0  0  0  0  0  0  0  0  0  0  0  0
    1.5014   -1.5024   -0.2334 C   0  0  0  0  0  0  0  0  0  0  0  0
   -1.4516   -1.5660    0.2292 C   0  0  0  0  0  0  0  0  0  0  0  0
    2.8215    0.9286    0.0159 C   0  0  0  0  0  0  0  0  0  0  0  0
   -2.8747    0.8071   -0.0127 C   0  0  0  0  0  0  0  0  0  0  0  0
    0.7395   -0.3379   -0.0425 C   0  0  0  0  0  0  0  0  0  0  0  0
   -0.7404   -0.3697    0.0394 C   0  0  0  0  0  0  0  0  0  0  0  0
    1.4227    0.8955    0.0836 C   0  0  0  0  0  0  0  0  0  0  0  0
   -1.4758    0.8335   -0.0837 C   0  0  0  0  0  0  0  0  0  0  0  0
    0.6466    2.1516    0.2732 C   0  0  0  0  0  0  0  0  0  0  0  0
   -0.7542    2.1213   -0.2746 C   0  0  0  0  0  0  0  0  0  0  0  0
    1.0495    3.2185    0.8538 N   0  0  0  0  0  2  0  0  0  0  0  0
   -1.2024    3.1692   -0.8566 N   0  0  0  0  0  2  0  0  0  0  0  0
    3.4525   -2.3735   -0.4506 H   0  0  0  0  0  0  0  0  0  0  0  0
   -3.3635   -2.5198    0.4471 H   0  0  0  0  0  0  0  0  0  0  0  0
    4.6422   -0.1922   -0.2316 H   0  0  0  0  0  0  0  0  0  0  0  0
   -4.6455   -0.3907    0.2359 H   0  0  0  0  0  0  0  0  0  0  0  0
    1.0057   -2.4588   -0.3612 H   0  0  0  0  0  0  0  0  0  0  0  0
   -0.9155   -2.5007    0.3535 H   0  0  0  0  0  0  0  0  0  0  0  0
    3.3345    1.8849    0.0760 H   0  0  0  0  0  0  0  0  0  0  0  0
   -3.4276    1.7410   -0.0702 H   0  0  0  0  0  0  0  0  0  0  0  0
    2.0105    3.0953    1.1954 H   0  0  0  0  0  0  0  0  0  0  0  0
   -2.1571    3.0044   -1.1982 H   0  0  0  0  0  0  0  0  0  0  0  0
  1  5  2  0
  1  3  1  0
  2 18  1  0
  3  7  2  0
  4 20  1  0
  4  2  1  0
  5  9  1  0
  6  2  2  0
  6 22  1  0
  7 23  1  0
  7 11  1  0
  8  4  2  0
  9 10  2  0
  9 11  1  0
 10  6  1  0
 11 13  2  0
 12  8  1  0
 12 10  1  0
 13 15  1  0
 14 12  2  0
 14 13  1  0
 15 25  1  0
 16 14  1  0
 17  1  1  0
 19  3  1  0
 21  5  1  0
 24  8  1  0
 26 16  1  0
M  RAD  2  15   2  16   2
M  END
>  <HBA>  (577) 
2

>  <HBD>  (577) 
2

>  <TPSA>  (577) 
47.7

>  <cid>  (577) 
2981

>  <dipole>  (577) 
4.64

>  <excitation_energy_1>  (577) 
3.535

>  <excitation_energy_2>  (577) 
3.874

>  <excitation_energy_3>  (577) 
3.968

>  <excitation_energy_4>  (577) 
4.188

>  <homo_energy>  (577) 
-6.31

>  <homo_lumo_gap>  (577) 
4.259

>  <logP>  (577) 
3.302

>  <lumo_energy>  (577) 
-2.052

>  <melting_point>  (577) 
135.44

>  <molecular_refractivity>  (577) 
66.88

>  <oscillator_strength_1>  (577) 
0.0439

>  <oscillator_strength_2>  (577) 
0.0098

>  <oscillator_strength_3>  (577) 
0.0308

>  <oscillator_strength_4>  (577) 
0.0088

>  <open_babel_can_smiles>  (577) 
[NH]c1c([NH])c2ccccc2c2c1cccc2

>  <mulliken_charges>  (577) 
26
1   -0.128285
2   -0.128151
3   -0.127551
4   -0.127646
5   -0.195983
6   -0.196031
7   -0.199404
8   -0.19943
9   0.072918
10   0.073288
11   0.093375
12   0.093102
13   0.200748
14   0.200809
15   -0.560782
16   -0.560665
17   0.138657
18   0.1386
19   0.139557
20   0.139569
21   0.139321
22   0.139276
23   0.143088
24   0.143172
25   0.284242
26   0.284207

>  <lowdin_charges>  (577) 
26
1   -0.145529
2   -0.145243
3   -0.148929
4   -0.148919
5   -0.156447
6   -0.156738
7   -0.14858
8   -0.148927
9   -0.000132
10   -0.000136
11   -0.031883
12   -0.031854
13   0.04843
14   0.048694
15   -0.313626
16   -0.313813
17   0.163141
18   0.162897
19   0.161375
20   0.16136
21   0.161546
22   0.161762
23   0.162376
24   0.162661
25   0.248172
26   0.248343

$$$$
PCCDB-ID:  2992
     RDKit          3D

 31 32  0  0  1  0  0  0  0  0999 V2000
    9.2692   -2.1022    1.8914 C   0  0  0  0  0  0  0  0  0  0  0  0
    0.7721    1.1228    8.8130 C   0  0  0  0  0  0  0  0  0  0  0  0
    8.1383   -1.4138    1.7436 C   0  0  0  0  0  0  0  0  0  0  0  0
    3.4967   -0.7497    4.9444 C   0  0  0  0  0  0  0  0  0  0  0  0
    3.5754   -1.6819    3.9888 C   0  0  0  0  0  0  0  0  0  0  0  0
    0.7403    0.2327    7.5713 C   0  0  2  0  0  0  0  0  0  0  0  0
    6.7633   -2.0362    1.6717 C   0  0  1  0  0  0  0  0  0  0  0  0
    2.6264   -0.8698    6.1297 C   0  0  2  0  0  0  0  0  0  0  0  0
    4.4297   -1.5700    2.7816 C   0  0  2  0  0  0  0  0  0  0  0  0
    2.0461    0.3096    6.7980 C   0  0  2  0  0  0  0  0  0  0  0  0
    5.9063   -1.5905    2.8548 C   0  0  2  0  0  0  0  0  0  0  0  0
   -0.3616    0.5369    6.7161 O   0  0  0  0  0  0  0  0  0  0  0  0
    6.1063   -1.7147    0.4508 O   0  0  0  0  0  0  0  0  0  0  0  0
    3.1682   -0.3597    7.3771 O   0  0  0  0  0  0  0  0  0  0  0  0
    5.1995   -0.3556    2.6323 O   0  0  0  0  0  0  0  0  0  0  0  0
   10.2373   -1.6117    1.9439 H   0  0  0  0  0  0  0  0  0  0  0  0
    9.2717   -3.1883    1.9613 H   0  0  0  0  0  0  0  0  0  0  0  0
    1.5964    0.8331    9.4731 H   0  0  0  0  0  0  0  0  0  0  0  0
   -0.1701    1.0415    9.3639 H   0  0  0  0  0  0  0  0  0  0  0  0
    0.9192    2.1757    8.5345 H   0  0  0  0  0  0  0  0  0  0  0  0
    8.1628   -0.3257    1.6707 H   0  0  0  0  0  0  0  0  0  0  0  0
    4.0848    0.1615    4.8561 H   0  0  0  0  0  0  0  0  0  0  0  0
    2.9818   -2.5938    4.0578 H   0  0  0  0  0  0  0  0  0  0  0  0
    0.5864   -0.8084    7.8761 H   0  0  0  0  0  0  0  0  0  0  0  0
    6.8592   -3.1287    1.6963 H   0  0  0  0  0  0  0  0  0  0  0  0
    2.0906   -1.8148    6.2362 H   0  0  0  0  0  0  0  0  0  0  0  0
    3.9921   -1.9238    1.8477 H   0  0  0  0  0  0  0  0  0  0  0  0
    2.2762    1.2968    6.3822 H   0  0  0  0  0  0  0  0  0  0  0  0
    6.3669   -1.6710    3.8399 H   0  0  0  0  0  0  0  0  0  0  0  0
   -0.3422    1.4918    6.5411 H   0  0  0  0  0  0  0  0  0  0  0  0
    5.7626   -0.8103    0.5716 H   0  0  0  0  0  0  0  0  0  0  0  0
  1 16  1  0
  1 17  1  0
  2 19  1  0
  2 18  1  0
  3  1  2  3
  4  8  1  0
  5 23  1  0
  5  4  2  0
  6 24  1  1
  6  2  1  0
  7 25  1  1
  7  3  1  0
  7 11  1  0
  8 26  1  1
  8 10  1  0
  8 14  1  0
  9 27  1  6
  9 11  1  0
  9  5  1  0
 10 28  1  6
 10 14  1  0
 10  6  1  0
 11 29  1  1
 12  6  1  0
 13 31  1  0
 13  7  1  0
 15  9  1  0
 15 11  1  0
 20  2  1  0
 21  3  1  0
 22  4  1  0
 30 12  1  0
M  END
>  <HBA>  (578) 
4

>  <HBD>  (578) 
2

>  <TPSA>  (578) 
65.52

>  <cid>  (578) 
2992

>  <dipole>  (578) 
1.04

>  <excitation_energy_1>  (578) 
5.715

>  <excitation_energy_2>  (578) 
5.946

>  <excitation_energy_3>  (578) 
6.076

>  <excitation_energy_4>  (578) 
6.216

>  <homo_energy>  (578) 
-6.588

>  <homo_lumo_gap>  (578) 
6.259

>  <logP>  (578) 
0.005

>  <lumo_energy>  (578) 
-0.329

>  <melting_point>  (578) 
23.8

>  <molecular_refractivity>  (578) 
54.31

>  <oscillator_strength_1>  (578) 
0.4832

>  <oscillator_strength_2>  (578) 
0.0006

>  <oscillator_strength_3>  (578) 
0.1589

>  <oscillator_strength_4>  (578) 
0.0013

>  <open_babel_can_smiles>  (578) 
C=C[C@@H]([C@H]1O[C@@H]1/C=C/[C@H]1O[C@@H]1[C@H](O)C)O

>  <mulliken_charges>  (578) 
31
1   -0.343497
2   -0.469281
3   -0.045254
4   -0.093839
5   -0.144267
6   0.10793
7   0.07913
8   0.051062
9   0.041255
10   0.081373
11   0.048457
12   -0.614842
13   -0.62916
14   -0.462382
15   -0.474773
16   0.147458
17   0.141864
18   0.170648
19   0.162012
20   0.13272
21   0.135794
22   0.156983
23   0.13708
24   0.146644
25   0.149452
26   0.143054
27   0.165021
28   0.128488
29   0.161169
30   0.386178
31   0.403523

>  <lowdin_charges>  (578) 
31
1   -0.325527
2   -0.459754
3   -0.157026
4   -0.155737
5   -0.174667
6   -0.003802
7   -0.004582
8   -0.017175
9   -0.02495
10   -0.038418
11   -0.035717
12   -0.453674
13   -0.451164
14   -0.286019
15   -0.291611
16   0.162745
17   0.15487
18   0.167944
19   0.160486
20   0.142915
21   0.154364
22   0.170581
23   0.161036
24   0.149445
25   0.151691
26   0.153223
27   0.164122
28   0.141611
29   0.162154
30   0.338337
31   0.344298

$$$$
PCCDB-ID:  3007
     RDKit          3D

 23 23  0  0  1  0  0  0  0  0999 V2000
    0.5730    0.4278   -0.4503 C   0  0  0  0  0  0  0  0  0  0  0  0
    0.5876   -4.2917    1.9392 C   0  0  0  0  0  0  0  0  0  0  0  0
    0.4362   -4.1250    0.5620 C   0  0  0  0  0  0  0  0  0  0  0  0
    1.4102   -3.4159    2.6509 C   0  0  0  0  0  0  0  0  0  0  0  0
    1.1006   -3.0883   -0.0959 C   0  0  0  0  0  0  0  0  0  0  0  0
    2.0729   -2.3830    1.9880 C   0  0  0  0  0  0  0  0  0  0  0  0
    2.6320   -1.0577   -0.0955 C   0  0  0  0  0  0  0  0  0  0  0  0
    1.9884    0.3418    0.1235 C   0  0  1  0  0  0  0  0  0  0  0  0
    1.9276   -2.1998    0.6046 C   0  0  0  0  0  0  0  0  0  0  0  0
    2.7896    1.4420   -0.4307 N   0  0  0  0  0  0  0  0  0  0  0  0
   -0.0818   -0.3315   -0.0126 H   0  0  0  0  0  0  0  0  0  0  0  0
    0.5859    0.2724   -1.5382 H   0  0  0  0  0  0  0  0  0  0  0  0
    0.1490    1.4175   -0.2569 H   0  0  0  0  0  0  0  0  0  0  0  0
    0.0734   -5.0994    2.4532 H   0  0  0  0  0  0  0  0  0  0  0  0
   -0.1970   -4.8042   -0.0032 H   0  0  0  0  0  0  0  0  0  0  0  0
    1.5397   -3.5398    3.7231 H   0  0  0  0  0  0  0  0  0  0  0  0
    0.9805   -2.9687   -1.1704 H   0  0  0  0  0  0  0  0  0  0  0  0
    2.7190   -1.7117    2.5504 H   0  0  0  0  0  0  0  0  0  0  0  0
    3.6722   -1.0041    0.2558 H   0  0  0  0  0  0  0  0  0  0  0  0
    2.6766   -1.2513   -1.1766 H   0  0  0  0  0  0  0  0  0  0  0  0
    1.9306    0.5140    1.2074 H   0  0  0  0  0  0  0  0  0  0  0  0
    2.8788    1.3185   -1.4404 H   0  0  0  0  0  0  0  0  0  0  0  0
    3.7393    1.3986   -0.0607 H   0  0  0  0  0  0  0  0  0  0  0  0
  1 13  1  0
  1 11  1  0
  1  8  1  0
  2 14  1  0
  2  4  2  0
  3  2  1  0
  4 16  1  0
  5  3  2  0
  5  9  1  0
  6 18  1  0
  6  4  1  0
  7  8  1  0
  7 19  1  0
  7  9  1  0
  8 21  1  1
  9  6  2  0
 10 23  1  0
 10  8  1  0
 12  1  1  0
 15  3  1  0
 17  5  1  0
 20  7  1  0
 22 10  1  0
M  END
>  <HBA>  (579) 
1

>  <HBD>  (579) 
1

>  <TPSA>  (579) 
26.02

>  <cid>  (579) 
3007

>  <dipole>  (579) 
1.22

>  <excitation_energy_1>  (579) 
5.189

>  <excitation_energy_2>  (579) 
5.365

>  <excitation_energy_3>  (579) 
5.65

>  <excitation_energy_4>  (579) 
5.768

>  <homo_energy>  (579) 
-6.095

>  <homo_lumo_gap>  (579) 
6.12

>  <logP>  (579) 
2.277

>  <lumo_energy>  (579) 
0.024

>  <melting_point>  (579) 
60.07

>  <molecular_refractivity>  (579) 
43.73

>  <oscillator_strength_1>  (579) 
0.009

>  <oscillator_strength_2>  (579) 
0.0633

>  <oscillator_strength_3>  (579) 
0.0758

>  <oscillator_strength_4>  (579) 
0.0108

>  <open_babel_can_smiles>  (579) 
C[C@@H](Cc1ccccc1)N

>  <mulliken_charges>  (579) 
23
1   -0.4417
2   -0.132044
3   -0.127451
4   -0.127613
5   -0.185069
6   -0.182252
7   -0.355938
8   0.030155
9   0.177943
10   -0.701955
11   0.156683
12   0.127788
13   0.160109
14   0.127658
15   0.127956
16   0.128135
17   0.122415
18   0.121542
19   0.132663
20   0.128275
21   0.134972
22   0.28712
23   0.290612

>  <lowdin_charges>  (579) 
23
1   -0.4489
2   -0.162758
3   -0.157127
4   -0.152836
5   -0.167039
6   -0.169618
7   -0.29081
8   -0.059354
9   -0.001872
10   -0.544316
11   0.159456
12   0.139136
13   0.159325
14   0.157867
15   0.15821
16   0.154973
17   0.151977
18   0.154593
19   0.144286
20   0.140768
21   0.137408
22   0.247346
23   0.249284

$$$$
PCCDB-ID:  3043
     RDKit          3D

 29 31  0  0  1  0  0  0  0  0999 V2000
   -0.6865   -1.2291    0.1765 C   0  0  0  0  0  0  0  0  0  0  0  0
    0.8384   -1.3272    0.3580 C   0  0  0  0  0  0  0  0  0  0  0  0
   -1.4784    0.4628    1.9584 C   0  0  0  0  0  0  0  0  0  0  0  0
    3.7917   -1.9843   -3.0438 C   0  0  0  0  0  0  0  0  0  0  0  0
    0.9727    1.2416   -2.2813 C   0  0  0  0  0  0  0  0  0  0  0  0
   -0.9919    0.2366    0.5293 C   0  0  1  0  0  0  0  0  0  0  0  0
    1.2980    0.0832   -0.0186 C   0  0  1  0  0  0  0  0  0  0  0  0
    2.2565    0.1275   -3.5457 C   0  0  0  0  0  0  0  0  0  0  0  0
    2.3412   -0.4889   -2.2902 C   0  0  0  0  0  0  0  0  0  0  0  0
    3.0399   -0.4420   -4.5609 C   0  0  0  0  0  0  0  0  0  0  0  0
    3.0986   -1.5501   -1.9852 N   0  0  0  0  0  0  0  0  0  0  0  0
    3.8036   -1.4969   -4.2976 N   0  0  0  0  0  0  0  0  0  0  0  0
    1.3942    1.2068   -3.5244 N   0  0  0  0  0  0  0  0  0  0  0  0
    1.4881    0.2372   -1.4803 N   0  0  0  0  0  0  0  0  0  0  0  0
   -1.5569    1.8399    2.2678 O   0  0  0  0  0  0  0  0  0  0  0  0
    3.0546    0.0430   -5.8141 O   0  0  0  0  0  0  0  0  0  0  0  0
    0.2765    0.9537    0.4011 O   0  0  0  0  0  0  0  0  0  0  0  0
   -1.2285   -1.9270    0.8226 H   0  0  0  0  0  0  0  0  0  0  0  0
   -0.9696   -1.4461   -0.8579 H   0  0  0  0  0  0  0  0  0  0  0  0
    1.3200   -2.0985   -0.2447 H   0  0  0  0  0  0  0  0  0  0  0  0
    1.0970   -1.5018    1.4079 H   0  0  0  0  0  0  0  0  0  0  0  0
   -0.8149   -0.0744    2.6580 H   0  0  0  0  0  0  0  0  0  0  0  0
   -2.4879    0.0530    2.0729 H   0  0  0  0  0  0  0  0  0  0  0  0
    4.4321   -2.8461   -2.8717 H   0  0  0  0  0  0  0  0  0  0  0  0
    0.2844    1.9678   -1.8745 H   0  0  0  0  0  0  0  0  0  0  0  0
   -1.6974    0.7035   -0.1667 H   0  0  0  0  0  0  0  0  0  0  0  0
    2.2300    0.3835    0.4690 H   0  0  0  0  0  0  0  0  0  0  0  0
   -0.6841    2.2104    2.0550 H   0  0  0  0  0  0  0  0  0  0  0  0
    2.4529    0.8092   -5.8383 H   0  0  0  0  0  0  0  0  0  0  0  0
  1  2  1  0
  1  6  1  0
  1 18  1  0
  2 21  1  0
  3 23  1  0
  3 15  1  0
  3 22  1  0
  4 24  1  0
  4 11  2  0
  5 25  1  0
  5 14  1  0
  6 26  1  6
  6  3  1  0
  7  2  1  0
  7 17  1  0
  7 27  1  1
  8 13  1  0
  8  9  2  0
  9 11  1  0
  9 14  1  0
 10 12  2  0
 10  8  1  0
 12  4  1  0
 13  5  2  0
 14  7  1  0
 16 10  1  0
 17  6  1  0
 19  1  1  0
 20  2  1  0
 28 15  1  0
 29 16  1  0
M  END
>  <HBA>  (580) 
6

>  <HBD>  (580) 
2

>  <TPSA>  (580) 
93.03

>  <cid>  (580) 
3043

>  <dipole>  (580) 
3.41

>  <excitation_energy_1>  (580) 
4.89

>  <excitation_energy_2>  (580) 
5.214

>  <excitation_energy_3>  (580) 
5.357

>  <excitation_energy_4>  (580) 
5.541

>  <homo_energy>  (580) 
-6.561

>  <homo_lumo_gap>  (580) 
5.682

>  <logP>  (580) 
-0.21

>  <lumo_energy>  (580) 
-0.879

>  <melting_point>  (580) 
194.14

>  <molecular_refractivity>  (580) 
58.77

>  <oscillator_strength_1>  (580) 
0.0006

>  <oscillator_strength_2>  (580) 
0.1877

>  <oscillator_strength_3>  (580) 
0.0186

>  <oscillator_strength_4>  (580) 
0.0014

>  <open_babel_can_smiles>  (580) 
OC[C@@H]1CC[C@H](O1)n1cnc2c1ncnc2O

>  <mulliken_charges>  (580) 
29
1   -0.329278
2   -0.314911
3   -0.0305
4   0.157891
5   0.225823
6   0.122019
7   0.27794
8   0.155806
9   0.535957
10   0.50031
11   -0.505603
12   -0.462876
13   -0.533074
14   -0.530575
15   -0.617713
16   -0.592761
17   -0.527648
18   0.163666
19   0.167522
20   0.203069
21   0.160145
22   0.121045
23   0.149697
24   0.154582
25   0.185904
26   0.152085
27   0.175321
28   0.403232
29   0.432924

>  <lowdin_charges>  (580) 
29
1   -0.29453
2   -0.295848
3   -0.145344
4   -0.033111
5   -0.056784
6   -0.01654
7   0.071518
8   -0.070197
9   0.056409
10   0.147036
11   -0.19917
12   -0.18354
13   -0.197826
14   -0.044881
15   -0.460493
16   -0.328409
17   -0.272023
18   0.164276
19   0.15946
20   0.182916
21   0.157632
22   0.129358
23   0.151953
24   0.162309
25   0.183587
26   0.150761
27   0.161587
28   0.345676
29   0.374219

$$$$
PCCDB-ID:  3044
     RDKit          3D

 30 32  0  0  1  0  0  0  0  0999 V2000
    1.0256   -0.6930    0.0972 C   0  0  0  0  0  0  0  0  0  0  0  0
    3.7348    1.7500   -0.8950 C   0  0  0  0  0  0  0  0  0  0  0  0
    8.3381   -1.0922   -2.0405 C   0  0  0  0  0  0  0  0  0  0  0  0
    5.7791    0.3756    1.1559 C   0  0  0  0  0  0  0  0  0  0  0  0
    2.2810    0.1580    0.0897 C   0  0  2  0  0  0  0  0  0  0  0  0
    2.2330    1.4684   -0.7154 C   0  0  2  0  0  0  0  0  0  0  0  0
    4.3577    0.3342   -0.9831 C   0  0  1  0  0  0  0  0  0  0  0  0
    7.6223   -0.3819    0.4251 C   0  0  0  0  0  0  0  0  0  0  0  0
    8.9290   -0.8521    0.1774 C   0  0  0  0  0  3  0  0  0  0  0  0
    6.7734   -0.3263   -0.6834 C   0  0  0  0  0  0  0  0  0  0  0  0
    9.8498   -0.9901    1.1651 N   0  0  0  0  0  0  0  0  0  0  0  0
    9.2673   -1.2009   -1.0771 N   0  0  0  0  0  0  0  0  0  0  0  0
    7.0743   -0.6679   -1.9423 N   0  0  0  0  0  2  0  0  0  0  0  0
    6.9815    0.0603    1.5707 N   0  0  0  0  0  0  0  0  0  0  0  0
    5.5782    0.1771   -0.2006 N   0  0  0  0  0  0  0  0  0  0  0  0
    1.5519    1.3256   -1.9534 O   0  0  0  0  0  0  0  0  0  0  0  0
    3.3433   -0.5751   -0.5594 O   0  0  0  0  0  0  0  0  0  0  0  0
    0.2192   -0.1659    0.6181 H   0  0  0  0  0  0  0  0  0  0  0  0
    1.2130   -1.6396    0.6126 H   0  0  0  0  0  0  0  0  0  0  0  0
    0.6915   -0.9083   -0.9210 H   0  0  0  0  0  0  0  0  0  0  0  0
    4.1343    2.2933   -0.0322 H   0  0  0  0  0  0  0  0  0  0  0  0
    3.9312    2.3466   -1.7888 H   0  0  0  0  0  0  0  0  0  0  0  0
    8.6642   -1.3884   -3.0355 H   0  0  0  0  0  0  0  0  0  0  0  0
    4.9894    0.7528    1.7922 H   0  0  0  0  0  0  0  0  0  0  0  0
    2.5752    0.3888    1.1276 H   0  0  0  0  0  0  0  0  0  0  0  0
    1.7151    2.2699   -0.1816 H   0  0  0  0  0  0  0  0  0  0  0  0
    4.6518    0.0591   -1.9984 H   0  0  0  0  0  0  0  0  0  0  0  0
    9.6688   -0.5710    2.0649 H   0  0  0  0  0  0  0  0  0  0  0  0
   10.8054   -1.1717    0.8953 H   0  0  0  0  0  0  0  0  0  0  0  0
    1.9015    0.5286   -2.3862 H   0  0  0  0  0  0  0  0  0  0  0  0
  1 19  1  0
  1 18  1  0
  2  6  1  0
  2 21  1  0
  3 13  1  0
  3 12  2  0
  4 14  2  0
  4 24  1  0
  5  1  1  0
  5 25  1  1
  6 26  1  1
  6  5  1  0
  7 27  1  6
  7  2  1  0
  7 17  1  0
  7 15  1  0
  8 14  1  0
  9  8  1  0
  9 11  1  0
 10 15  1  0
 10  8  2  0
 11 28  1  0
 12  9  1  0
 13 10  1  0
 15  4  1  0
 16  6  1  0
 17  5  1  0
 20  1  1  0
 22  2  1  0
 23  3  1  0
 29 11  1  0
 30 16  1  0
M  RAD  2   9   2  13   2
M  END
>  <HBA>  (581) 
7

>  <HBD>  (581) 
2

>  <TPSA>  (581) 
99.08

>  <cid>  (581) 
3044

>  <dipole>  (581) 
2.69

>  <excitation_energy_1>  (581) 
4.923

>  <excitation_energy_2>  (581) 
4.986

>  <excitation_energy_3>  (581) 
5.235

>  <excitation_energy_4>  (581) 
5.436

>  <homo_energy>  (581) 
-5.94

>  <homo_lumo_gap>  (581) 
5.418

>  <logP>  (581) 
0.658

>  <lumo_energy>  (581) 
-0.522

>  <melting_point>  (581) 
177.08

>  <molecular_refractivity>  (581) 
60.35

>  <oscillator_strength_1>  (581) 
0.223

>  <oscillator_strength_2>  (581) 
0.0096

>  <oscillator_strength_3>  (581) 
0.0464

>  <oscillator_strength_4>  (581) 
0.0067

>  <open_babel_can_smiles>  (581) 
O[C@@H]1C[C@H](O[C@@H]1C)n1cnc2c1[N]C=N[C]2N

>  <mulliken_charges>  (581) 
30
1   -0.446135
2   -0.352631
3   0.166045
4   0.223041
5   0.109992
6   0.123086
7   0.258842
8   0.185632
9   0.49144
10   0.524431
11   -0.777099
12   -0.509996
13   -0.508059
14   -0.526272
15   -0.511739
16   -0.621433
17   -0.498074
18   0.152948
19   0.165514
20   0.155352
21   0.159623
22   0.179867
23   0.144901
24   0.161771
25   0.120172
26   0.146753
27   0.184896
28   0.353899
29   0.344317
30   0.398916

>  <lowdin_charges>  (581) 
30
1   -0.446014
2   -0.318345
3   -0.032856
4   -0.064227
5   -0.013572
6   -0.017156
7   0.054086
8   -0.062819
9   0.12016
10   0.062185
11   -0.438934
12   -0.221855
13   -0.208893
14   -0.187814
15   -0.034446
16   -0.451935
17   -0.274618
18   0.162001
19   0.164365
20   0.157855
21   0.161255
22   0.172748
23   0.157385
24   0.169976
25   0.127928
26   0.154786
27   0.17027
28   0.29879
29   0.293982
30   0.345712

$$$$
PCCDB-ID:  3045
     RDKit          3D

 19 19  0  0  0  0  0  0  0  0999 V2000
   -1.3485   -0.1073   -0.0585 C   0  0  0  0  0  0  0  0  0  0  0  0
   -0.7813    1.1672   -0.0537 C   0  0  0  0  0  0  0  0  0  0  0  0
    0.8648   -1.0740   -0.0978 C   0  0  0  0  0  0  0  0  0  0  0  0
   -0.5318   -1.2467   -0.0783 C   0  0  0  0  0  0  0  0  0  0  0  0
    0.6018    1.3351   -0.0776 C   0  0  0  0  0  0  0  0  0  0  0  0
    1.4322    0.1939   -0.0992 C   0  0  0  0  0  0  0  0  0  0  0  0
   -1.1616   -2.5858   -0.1266 C   0  0  0  0  0  0  0  0  0  0  0  0
   -0.7664   -3.7108    0.3499 N   0  0  0  0  0  0  0  0  0  0  0  0
    1.2158    2.5507   -0.0781 O   0  0  0  0  0  0  0  0  0  0  0  0
    2.7790    0.4118   -0.1244 O   0  0  0  0  0  0  0  0  0  0  0  0
   -2.3852   -2.6594   -0.7434 O   0  0  0  0  0  0  0  0  0  0  0  0
    0.4302   -3.5942    1.0965 O   0  0  0  0  0  0  0  0  0  0  0  0
   -2.4279   -0.2112   -0.0096 H   0  0  0  0  0  0  0  0  0  0  0  0
   -1.4222    2.0465   -0.0241 H   0  0  0  0  0  0  0  0  0  0  0  0
    1.5091   -1.9462   -0.1042 H   0  0  0  0  0  0  0  0  0  0  0  0
    0.5358    3.2421   -0.0514 H   0  0  0  0  0  0  0  0  0  0  0  0
    3.2287   -0.4476   -0.1096 H   0  0  0  0  0  0  0  0  0  0  0  0
   -2.4205   -1.9547   -1.4095 H   0  0  0  0  0  0  0  0  0  0  0  0
    0.5389   -4.5035    1.4138 H   0  0  0  0  0  0  0  0  0  0  0  0
  1  2  2  0
  1 13  1  0
  2 14  1  0
  3  4  2  0
  4  1  1  0
  5  2  1  0
  6  3  1  0
  6  5  2  0
  7  4  1  0
  7  8  2  0
  8 12  1  0
  9  5  1  0
  9 16  1  0
 10 17  1  0
 10  6  1  0
 11  7  1  0
 12 19  1  0
 15  3  1  0
 18 11  1  0
M  END
>  <HBA>  (582) 
5

>  <HBD>  (582) 
4

>  <TPSA>  (582) 
89.79

>  <cid>  (582) 
3045

>  <dipole>  (582) 
2.01

>  <excitation_energy_1>  (582) 
4.515

>  <excitation_energy_2>  (582) 
4.758

>  <excitation_energy_3>  (582) 
4.962

>  <excitation_energy_4>  (582) 
5.048

>  <homo_energy>  (582) 
-5.717

>  <homo_lumo_gap>  (582) 
4.972

>  <logP>  (582) 
0.608

>  <lumo_energy>  (582) 
-0.746

>  <melting_point>  (582) 
201.91

>  <molecular_refractivity>  (582) 
39.41

>  <oscillator_strength_1>  (582) 
0.15

>  <oscillator_strength_2>  (582) 
0.1192

>  <oscillator_strength_3>  (582) 
0.001

>  <oscillator_strength_4>  (582) 
0.0434

>  <open_babel_can_smiles>  (582) 
O/N=C(\c1ccc(c(c1)O)O)/O

>  <mulliken_charges>  (582) 
19
1   -0.20956
2   -0.19971
3   -0.224424
4   0.082617
5   0.327692
6   0.323966
7   0.443658
8   -0.250515
9   -0.623455
10   -0.631734
11   -0.593697
12   -0.520067
13   0.144549
14   0.126555
15   0.156313
16   0.410873
17   0.411946
18   0.405301
19   0.419692

>  <lowdin_charges>  (582) 
19
1   -0.173372
2   -0.206906
3   -0.190946
4   -0.049371
5   0.087081
6   0.081087
7   0.100237
8   -0.095167
9   -0.359265
10   -0.366322
11   -0.372131
12   -0.386732
13   0.163172
14   0.158451
15   0.175261
16   0.361784
17   0.361002
18   0.356716
19   0.355422

$$$$
PCCDB-ID:  3051
     RDKit          3D

 21 20  0  0  0  0  0  0  0  0999 V2000
    2.3572    1.8106   -0.0020 C   0  0  0  0  0  0  0  0  0  0  0  0
    7.6001   -2.8308   -4.7129 C   0  0  0  0  0  0  0  0  0  0  0  0
    2.6975    0.3413    0.1853 C   0  0  0  0  0  0  0  0  0  0  0  0
    7.6960   -1.3447   -4.4093 C   0  0  0  0  0  0  0  0  0  0  0  0
    4.5800   -0.0264   -1.1858 C   0  0  0  0  0  0  0  0  0  0  0  0
    6.1790   -0.9856   -2.6403 C   0  0  0  0  0  0  0  0  0  0  0  0
    5.3423    0.5279   -0.4410 O   0  0  0  0  0  0  0  0  0  0  0  0
    6.8907   -1.4824   -1.8099 O   0  0  0  0  0  0  0  0  0  0  0  0
    3.2729   -0.2264   -1.0223 O   0  0  0  0  0  0  0  0  0  0  0  0
    6.4263   -0.8177   -3.9386 O   0  0  0  0  0  0  0  0  0  0  0  0
    4.8963   -0.5298   -2.4282 O   0  0  0  0  0  0  0  0  0  0  0  0
    1.8597    2.1901    0.8976 H   0  0  0  0  0  0  0  0  0  0  0  0
    1.6832    1.9494   -0.8533 H   0  0  0  0  0  0  0  0  0  0  0  0
    3.2635    2.4006   -0.1657 H   0  0  0  0  0  0  0  0  0  0  0  0
    8.5454   -3.1796   -5.1437 H   0  0  0  0  0  0  0  0  0  0  0  0
    6.7992   -3.0306   -5.4319 H   0  0  0  0  0  0  0  0  0  0  0  0
    7.4093   -3.4018   -3.7998 H   0  0  0  0  0  0  0  0  0  0  0  0
    1.8039   -0.2630    0.3546 H   0  0  0  0  0  0  0  0  0  0  0  0
    3.3995    0.1921    1.0089 H   0  0  0  0  0  0  0  0  0  0  0  0
    7.9013   -0.7601   -5.3085 H   0  0  0  0  0  0  0  0  0  0  0  0
    8.4598   -1.1357   -3.6567 H   0  0  0  0  0  0  0  0  0  0  0  0
  1  3  1  0
  1 12  1  0
  2  4  1  0
  2 17  1  0
  3 18  1  0
  3 19  1  0
  4 10  1  0
  4 21  1  0
  5  9  1  0
  5  7  2  0
  6 11  1  0
  6  8  2  0
  9  3  1  0
 10  6  1  0
 11  5  1  0
 13  1  1  0
 14  1  1  0
 15  2  1  0
 16  2  1  0
 20  4  1  0
M  END
>  <HBA>  (583) 
5

>  <HBD>  (583) 
0

>  <TPSA>  (583) 
61.83

>  <cid>  (583) 
3051

>  <dipole>  (583) 
1.62

>  <excitation_energy_1>  (583) 
6.394

>  <excitation_energy_2>  (583) 
6.549

>  <excitation_energy_3>  (583) 
7.667

>  <excitation_energy_4>  (583) 
7.722

>  <homo_energy>  (583) 
-7.954

>  <homo_lumo_gap>  (583) 
8.052

>  <logP>  (583) 
1.316

>  <lumo_energy>  (583) 
0.098

>  <melting_point>  (583) 
10.04

>  <molecular_refractivity>  (583) 
35.39

>  <oscillator_strength_1>  (583) 
0.0098

>  <oscillator_strength_2>  (583) 
0.0

>  <oscillator_strength_3>  (583) 
0.005

>  <oscillator_strength_4>  (583) 
0.0094

>  <open_babel_can_smiles>  (583) 
CCOC(=O)OC(=O)OCC

>  <mulliken_charges>  (583) 
21
1   -0.465535
2   -0.465501
3   -0.050469
4   -0.050536
5   0.789413
6   0.788883
7   -0.443294
8   -0.442592
9   -0.438823
10   -0.438243
11   -0.473103
12   0.156525
13   0.164816
14   0.179772
15   0.156477
16   0.164892
17   0.17982
18   0.16423
19   0.179499
20   0.164255
21   0.179514

>  <lowdin_charges>  (583) 
21
1   -0.456599
2   -0.456373
3   -0.122834
4   -0.122719
5   0.252096
6   0.252425
7   -0.245754
8   -0.245115
9   -0.167831
10   -0.167848
11   -0.148597
12   0.163267
13   0.160607
14   0.167761
15   0.162862
16   0.160865
17   0.167748
18   0.159139
19   0.163775
20   0.159136
21   0.163988

$$$$
PCCDB-ID:  3052
     RDKit          3D

 35 35  0  0  0  0  0  0  0  0999 V2000
    2.7296    0.7062   -3.6987 C   0  0  0  0  0  0  0  0  0  0  0  0
    1.9394   -0.5719    0.3733 C   0  0  0  0  0  0  0  0  0  0  0  0
    9.1902    2.1225   -0.0237 C   0  0  0  0  0  0  0  0  0  0  0  0
    3.0475   -0.3878   -2.6768 C   0  0  0  0  0  0  0  0  0  0  0  0
    2.5206    0.5807   -0.4541 C   0  0  0  0  0  0  0  0  0  0  0  0
    7.8063    0.1582    0.2559 C   0  0  0  0  0  0  0  0  0  0  0  0
    6.8026    2.2486   -0.3539 C   0  0  0  0  0  0  0  0  0  0  0  0
    6.4652   -0.3381    0.7986 C   0  0  0  0  0  0  0  0  0  0  0  0
    5.4358    1.7762    0.1603 C   0  0  0  0  0  0  0  0  0  0  0  0
    4.7691   -0.3617   -0.9494 C   0  0  0  0  0  0  0  0  0  0  0  0
    7.8898    1.6145    0.3852 N   0  0  0  0  0  0  0  0  0  0  0  0
    3.5581    0.1634   -1.4131 N   0  0  0  0  0  0  0  0  0  0  0  0
    5.3283    0.3120    0.1396 N   0  0  0  0  0  0  0  0  0  0  0  0
    5.3008   -1.3512   -1.4481 O   0  0  0  0  0  0  0  0  0  0  0  0
    2.3407    0.2612   -4.6223 H   0  0  0  0  0  0  0  0  0  0  0  0
    3.6304    1.2781   -3.9456 H   0  0  0  0  0  0  0  0  0  0  0  0
    1.9747    1.4089   -3.3262 H   0  0  0  0  0  0  0  0  0  0  0  0
    1.1287   -0.2065    1.0149 H   0  0  0  0  0  0  0  0  0  0  0  0
    2.7097   -1.0111    1.0153 H   0  0  0  0  0  0  0  0  0  0  0  0
    1.5339   -1.3631   -0.2661 H   0  0  0  0  0  0  0  0  0  0  0  0
    9.9735    1.6582    0.5856 H   0  0  0  0  0  0  0  0  0  0  0  0
    9.2309    3.2059    0.1362 H   0  0  0  0  0  0  0  0  0  0  0  0
    9.4235    1.9246   -1.0886 H   0  0  0  0  0  0  0  0  0  0  0  0
    3.8074   -1.0673   -3.0628 H   0  0  0  0  0  0  0  0  0  0  0  0
    2.1506   -0.9934   -2.4827 H   0  0  0  0  0  0  0  0  0  0  0  0
    2.9126    1.3460    0.2192 H   0  0  0  0  0  0  0  0  0  0  0  0
    1.7275    1.0635   -1.0358 H   0  0  0  0  0  0  0  0  0  0  0  0
    7.9122   -0.1694   -0.7959 H   0  0  0  0  0  0  0  0  0  0  0  0
    8.6246   -0.2916    0.8315 H   0  0  0  0  0  0  0  0  0  0  0  0
    6.8754    3.3361   -0.2256 H   0  0  0  0  0  0  0  0  0  0  0  0
    6.8689    2.0389   -1.4419 H   0  0  0  0  0  0  0  0  0  0  0  0
    6.4054   -0.1068    1.8701 H   0  0  0  0  0  0  0  0  0  0  0  0
    6.3732   -1.4150    0.6578 H   0  0  0  0  0  0  0  0  0  0  0  0
    4.6549    2.2076   -0.4661 H   0  0  0  0  0  0  0  0  0  0  0  0
    5.2960    2.1265    1.1915 H   0  0  0  0  0  0  0  0  0  0  0  0
  1 17  1  0
  1  4  1  0
  2 18  1  0
  2 19  1  0
  3 22  1  0
  3 11  1  0
  3 21  1  0
  4 25  1  0
  4 12  1  0
  5 26  1  0
  5  2  1  0
  6 11  1  0
  6  8  1  0
  6 29  1  0
  7 30  1  0
  7  9  1  0
  7 11  1  0
  8 32  1  0
  9 35  1  0
 10 13  1  0
 12 10  1  0
 12  5  1  0
 13  9  1  0
 13  8  1  0
 14 10  2  0
 15  1  1  0
 16  1  1  0
 20  2  1  0
 23  3  1  0
 24  4  1  0
 27  5  1  0
 28  6  1  0
 31  7  1  0
 33  8  1  0
 34  9  1  0
M  END
>  <HBA>  (584) 
4

>  <HBD>  (584) 
0

>  <TPSA>  (584) 
26.79

>  <cid>  (584) 
3052

>  <dipole>  (584) 
2.56

>  <excitation_energy_1>  (584) 
5.246

>  <excitation_energy_2>  (584) 
5.484

>  <excitation_energy_3>  (584) 
5.587

>  <excitation_energy_4>  (584) 
5.654

>  <homo_energy>  (584) 
-5.701

>  <homo_lumo_gap>  (584) 
6.819

>  <logP>  (584) 
0.571

>  <lumo_energy>  (584) 
1.118

>  <melting_point>  (584) 
32.99

>  <molecular_refractivity>  (584) 
65.18

>  <oscillator_strength_1>  (584) 
0.0057

>  <oscillator_strength_2>  (584) 
0.0381

>  <oscillator_strength_3>  (584) 
0.0264

>  <oscillator_strength_4>  (584) 
0.0078

>  <open_babel_can_smiles>  (584) 
CCN(C(=O)N1CCN(CC1)C)CC

>  <mulliken_charges>  (584) 
35
1   -0.437811
2   -0.447715
3   -0.28987
4   -0.14387
5   -0.146177
6   -0.129623
7   -0.118639
8   -0.139269
9   -0.157994
10   0.717904
11   -0.384563
12   -0.442899
13   -0.449196
14   -0.534686
15   0.144158
16   0.15147
17   0.14044
18   0.143389
19   0.163099
20   0.154911
21   0.148995
22   0.14621
23   0.12092
24   0.190721
25   0.134555
26   0.158082
27   0.146906
28   0.138177
29   0.136087
30   0.137222
31   0.117946
32   0.142487
33   0.175357
34   0.165096
35   0.148181

>  <lowdin_charges>  (584) 
35
1   -0.452032
2   -0.459465
3   -0.353158
4   -0.199838
5   -0.199278
6   -0.210374
7   -0.205695
8   -0.198329
9   -0.203736
10   0.174146
11   -0.191449
12   -0.145456
13   -0.143094
14   -0.329188
15   0.152471
16   0.15284
17   0.145611
18   0.153868
19   0.159048
20   0.153962
21   0.15159
22   0.14676
23   0.120974
24   0.176181
25   0.136766
26   0.153935
27   0.14922
28   0.129823
29   0.148462
30   0.145499
31   0.117794
32   0.14326
33   0.169798
34   0.163983
35   0.145101

$$$$
PCCDB-ID:  3080
     RDKit          3D

 14 13  0  0  1  0  0  0  0  0999 V2000
    0.7168    0.0365    0.2889 C   0  0  0  0  0  0  0  0  0  0  0  0
    0.6094   -2.1468   -1.0181 C   0  0  0  0  0  0  0  0  0  0  0  0
    0.2425   -0.6572   -1.0020 C   0  0  1  0  0  0  0  0  0  0  0  0
    0.0578   -0.4284    1.4560 O   0  0  0  0  0  0  0  0  0  0  0  0
    0.4061   -3.0004   -2.6319 S   0  0  0  0  0  0  0  0  0  0  0  0
   -1.5677   -0.3638   -1.2822 S   0  0  0  0  0  0  0  0  0  0  0  0
    0.6091    1.1237    0.1732 H   0  0  0  0  0  0  0  0  0  0  0  0
    1.7814   -0.1819    0.4365 H   0  0  0  0  0  0  0  0  0  0  0  0
    0.0705   -2.6806   -0.2303 H   0  0  0  0  0  0  0  0  0  0  0  0
    1.6784   -2.2464   -0.7967 H   0  0  0  0  0  0  0  0  0  0  0  0
    0.7186   -0.1595   -1.8547 H   0  0  0  0  0  0  0  0  0  0  0  0
   -0.8146   -0.0045    1.4772 H   0  0  0  0  0  0  0  0  0  0  0  0
   -0.9058   -2.7175   -2.7853 H   0  0  0  0  0  0  0  0  0  0  0  0
   -1.9958   -1.1574   -0.2747 H   0  0  0  0  0  0  0  0  0  0  0  0
  1  8  1  0
  1  4  1  0
  2  3  1  0
  2 10  1  0
  2  9  1  0
  3 11  1  6
  3  1  1  0
  4 12  1  0
  5  2  1  0
  6  3  1  0
  6 14  1  0
  7  1  1  0
 13  5  1  0
M  END
>  <HBA>  (585) 
3

>  <HBD>  (585) 
3

>  <TPSA>  (585) 
97.83

>  <cid>  (585) 
3080

>  <dipole>  (585) 
1.71

>  <excitation_energy_1>  (585) 
5.247

>  <excitation_energy_2>  (585) 
5.563

>  <excitation_energy_3>  (585) 
5.764

>  <excitation_energy_4>  (585) 
5.872

>  <homo_energy>  (585) 
-6.474

>  <homo_lumo_gap>  (585) 
6.746

>  <logP>  (585) 
0.207

>  <lumo_energy>  (585) 
0.272

>  <melting_point>  (585) 
34.57

>  <molecular_refractivity>  (585) 
33.55

>  <oscillator_strength_1>  (585) 
0.004

>  <oscillator_strength_2>  (585) 
0.0239

>  <oscillator_strength_3>  (585) 
0.0073

>  <oscillator_strength_4>  (585) 
0.0078

>  <open_babel_can_smiles>  (585) 
OC[C@@H](CS)S

>  <mulliken_charges>  (585) 
14
1   -0.032544
2   -0.405705
3   -0.251576
4   -0.610141
5   -0.080461
6   -0.100955
7   0.146752
8   0.155057
9   0.1936
10   0.1832
11   0.18913
12   0.397242
13   0.114923
14   0.101479

>  <lowdin_charges>  (585) 
14
1   -0.136861
2   -0.377435
3   -0.241314
4   -0.462522
5   -0.083397
6   -0.089966
7   0.140129
8   0.14964
9   0.169216
10   0.171145
11   0.175985
12   0.345558
13   0.124425
14   0.115398

$$$$
PCCDB-ID:  3086
     RDKit          3D

 15 14  0  0  0  0  0  0  0  0999 V2000
    1.0673    0.5241   -0.0033 C   0  0  0  0  0  0  0  0  0  0  0  0
    7.2404    2.2831   -2.6648 C   0  0  0  0  0  0  0  0  0  0  0  0
    3.1070    1.3876   -0.7332 C   0  0  0  0  0  0  0  0  0  0  0  0
    5.0438    1.8792   -1.9936 C   0  0  0  0  0  0  0  0  0  0  0  0
    2.8399    2.5029   -0.3790 O   0  0  0  0  0  0  0  0  0  0  0  0
    4.6060    2.7908   -2.6402 O   0  0  0  0  0  0  0  0  0  0  0  0
    2.3440    0.2991   -0.6305 O   0  0  0  0  0  0  0  0  0  0  0  0
    6.3173    1.5001   -1.8846 O   0  0  0  0  0  0  0  0  0  0  0  0
    4.3053    0.9722   -1.2681 O   0  0  0  0  0  0  0  0  0  0  0  0
    0.5731   -0.4470   -0.0061 H   0  0  0  0  0  0  0  0  0  0  0  0
    0.4884    1.2554   -0.5723 H   0  0  0  0  0  0  0  0  0  0  0  0
    1.2039    0.8853    1.0191 H   0  0  0  0  0  0  0  0  0  0  0  0
    8.2160    1.8295   -2.4924 H   0  0  0  0  0  0  0  0  0  0  0  0
    7.2327    3.3231   -2.3298 H   0  0  0  0  0  0  0  0  0  0  0  0
    6.9754    2.2410   -3.7241 H   0  0  0  0  0  0  0  0  0  0  0  0
  1 12  1  0
  2 13  1  0
  2 14  1  0
  2  8  1  0
  3  7  1  0
  3  5  2  0
  4  8  1  0
  4  9  1  0
  6  4  2  0
  7  1  1  0
  9  3  1  0
 10  1  1  0
 11  1  1  0
 15  2  1  0
M  END
>  <HBA>  (586) 
5

>  <HBD>  (586) 
0

>  <TPSA>  (586) 
61.83

>  <cid>  (586) 
3086

>  <dipole>  (586) 
1.51

>  <excitation_energy_1>  (586) 
6.408

>  <excitation_energy_2>  (586) 
6.541

>  <excitation_energy_3>  (586) 
7.67

>  <excitation_energy_4>  (586) 
7.779

>  <homo_energy>  (586) 
-8.09

>  <homo_lumo_gap>  (586) 
8.087

>  <logP>  (586) 
0.536

>  <lumo_energy>  (586) 
-0.003

>  <melting_point>  (586) 
11.37

>  <molecular_refractivity>  (586) 
25.77

>  <oscillator_strength_1>  (586) 
0.0066

>  <oscillator_strength_2>  (586) 
0.0001

>  <oscillator_strength_3>  (586) 
0.0177

>  <oscillator_strength_4>  (586) 
0.0036

>  <open_babel_can_smiles>  (586) 
COC(=O)OC(=O)OC

>  <mulliken_charges>  (586) 
15
1   -0.222574
2   -0.222706
3   0.789029
4   0.788982
5   -0.438102
6   -0.43817
7   -0.429249
8   -0.429186
9   -0.472875
10   0.176691
11   0.182237
12   0.178467
13   0.176704
14   0.181631
15   0.179122

>  <lowdin_charges>  (586) 
15
1   -0.270165
2   -0.26821
3   0.245619
4   0.247242
5   -0.236535
6   -0.237693
7   -0.163191
8   -0.163681
9   -0.143919
10   0.167227
11   0.167211
12   0.162639
13   0.166931
14   0.164023
15   0.1625

$$$$
PCCDB-ID:  3090
     RDKit          3D

 17 17  0  0  0  0  0  0  0  0999 V2000
    0.9837   -0.0558    0.0857 C   0  0  0  0  0  0  0  0  0  0  0  0
    2.7107    2.4871   -0.0091 C   0  0  0  0  0  0  0  0  0  0  0  0
    4.5194   -0.6800    0.2237 C   0  0  0  0  0  0  0  0  0  0  0  0
    2.4770   -0.0245    0.1263 C   0  0  0  0  0  0  0  0  0  0  0  0
    4.5451    0.6972    0.1455 C   0  0  0  0  0  0  0  0  0  0  0  0
    3.2357   -1.1173    0.2112 N   0  0  0  0  0  0  0  0  0  0  0  0
    3.2223    1.1198    0.0828 N   0  0  0  0  0  0  0  0  0  0  0  0
    5.6739    1.5562    0.1271 N   0  0  0  0  0  0  0  0  0  0  0  0
    6.7829    1.0193    0.1915 O   0  0  0  0  0  0  0  0  0  0  0  0
    5.4843    2.7793    0.0484 O   0  0  0  0  0  0  0  0  0  0  0  0
    0.6721   -1.1008    0.1270 H   0  0  0  0  0  0  0  0  0  0  0  0
    0.5847    0.3887   -0.8340 H   0  0  0  0  0  0  0  0  0  0  0  0
    0.5354    0.4729    0.9356 H   0  0  0  0  0  0  0  0  0  0  0  0
    1.6217    2.4400   -0.0182 H   0  0  0  0  0  0  0  0  0  0  0  0
    3.0673    2.9663   -0.9221 H   0  0  0  0  0  0  0  0  0  0  0  0
    3.0479    3.0768    0.8441 H   0  0  0  0  0  0  0  0  0  0  0  0
    5.3685   -1.3448    0.2867 H   0  0  0  0  0  0  0  0  0  0  0  0
  1  4  1  0
  1 11  1  0
  1 13  1  0
  2  7  1  0
  2 16  1  0
  3 17  1  0
  4  6  2  0
  5  3  2  0
  6  3  1  0
  7  4  1  0
  7  5  1  0
  8  5  1  0
  8  9  1  0
 10  8  2  0
 12  1  1  0
 14  2  1  0
 15  2  1  0
M  CHG  2   8   1   9  -1
M  END
>  <HBA>  (587) 
2

>  <HBD>  (587) 
0

>  <TPSA>  (587) 
63.64

>  <cid>  (587) 
3090

>  <dipole>  (587) 
4.87

>  <excitation_energy_1>  (587) 
3.831

>  <excitation_energy_2>  (587) 
4.215

>  <excitation_energy_3>  (587) 
4.256

>  <excitation_energy_4>  (587) 
4.779

>  <homo_energy>  (587) 
-6.939

>  <homo_lumo_gap>  (587) 
4.667

>  <logP>  (587) 
1.16

>  <lumo_energy>  (587) 
-2.272

>  <melting_point>  (587) 
65.62

>  <molecular_refractivity>  (587) 
37.28

>  <oscillator_strength_1>  (587) 
0.0

>  <oscillator_strength_2>  (587) 
0.2381

>  <oscillator_strength_3>  (587) 
0.0005

>  <oscillator_strength_4>  (587) 
0.0

>  <open_babel_can_smiles>  (587) 
Cc1ncc(n1C)N(=O)=O

>  <mulliken_charges>  (587) 
17
1   -0.538896
2   -0.317677
3   0.008542
4   0.487127
5   0.488163
6   -0.464676
7   -0.470172
8   0.332425
9   -0.403433
10   -0.428482
11   0.203802
12   0.176261
13   0.176624
14   0.170269
15   0.199851
16   0.201036
17   0.179236

>  <lowdin_charges>  (587) 
17
1   -0.450219
2   -0.345466
3   -0.103461
4   0.077275
5   -0.013488
6   -0.184983
7   -0.002011
8   0.306469
9   -0.252283
10   -0.271168
11   0.188562
12   0.170156
13   0.170789
14   0.164965
15   0.17851
16   0.179713
17   0.186641

$$$$
PCCDB-ID:  3106
     RDKit          3D

 40 40  0  0  0  0  0  0  0  0999 V2000
   -0.4846    1.7448   -0.7239 C   0  0  0  0  0  0  0  0  0  0  0  0
    4.9470   -1.1624   -1.9532 C   0  0  0  0  0  0  0  0  0  0  0  0
    0.9387    1.5373   -0.1956 C   0  0  0  0  0  0  0  0  0  0  0  0
    4.3167    0.2325   -2.0271 C   0  0  0  0  0  0  0  0  0  0  0  0
    6.1574    5.8410   -0.0222 C   0  0  0  0  0  0  0  0  0  0  0  0
    7.0404    6.8312   -0.4651 C   0  0  0  0  0  0  0  0  0  0  0  0
    4.0162    4.5011   -0.2420 C   0  0  0  0  0  0  0  0  0  0  0  0
    1.9949    2.1964   -1.0919 C   0  0  0  0  0  0  0  0  0  0  0  0
    3.9609    0.7771   -0.6287 C   0  0  0  0  0  0  0  0  0  0  0  0
    4.2369    3.1826   -1.0147 C   0  0  0  0  0  0  0  0  0  0  0  0
    4.6505    6.3735   -1.8246 C   0  0  0  0  0  0  0  0  0  0  0  0
    4.9545    5.5994   -0.6941 C   0  0  0  0  0  0  0  0  0  0  0  0
    6.7257    7.5878   -1.5870 C   0  0  0  0  0  0  0  0  0  0  0  0
    5.5217    7.3602   -2.2746 C   0  0  0  0  0  0  0  0  0  0  0  0
    3.3548    2.1089   -0.5543 N   0  0  0  0  0  0  0  0  0  0  0  0
    7.5168    8.5908   -2.1105 O   0  0  0  0  0  0  0  0  0  0  0  0
    5.2047    8.1045   -3.3742 O   0  0  0  0  0  0  0  0  0  0  0  0
   -1.2233    1.2600   -0.0760 H   0  0  0  0  0  0  0  0  0  0  0  0
   -0.6025    1.3272   -1.7316 H   0  0  0  0  0  0  0  0  0  0  0  0
   -0.7383    2.8109   -0.7771 H   0  0  0  0  0  0  0  0  0  0  0  0
    5.2074   -1.5382   -2.9490 H   0  0  0  0  0  0  0  0  0  0  0  0
    4.2606   -1.8852   -1.4944 H   0  0  0  0  0  0  0  0  0  0  0  0
    5.8645   -1.1527   -1.3513 H   0  0  0  0  0  0  0  0  0  0  0  0
    1.1354    0.4611   -0.1059 H   0  0  0  0  0  0  0  0  0  0  0  0
    1.0355    1.9549    0.8143 H   0  0  0  0  0  0  0  0  0  0  0  0
    3.4174    0.1926   -2.6554 H   0  0  0  0  0  0  0  0  0  0  0  0
    5.0105    0.9226   -2.5252 H   0  0  0  0  0  0  0  0  0  0  0  0
    6.4099    5.2586    0.8601 H   0  0  0  0  0  0  0  0  0  0  0  0
    7.9715    7.0167    0.0679 H   0  0  0  0  0  0  0  0  0  0  0  0
    4.1557    4.2943    0.8250 H   0  0  0  0  0  0  0  0  0  0  0  0
    2.9772    4.8305   -0.3653 H   0  0  0  0  0  0  0  0  0  0  0  0
    1.7435    3.2595   -1.1826 H   0  0  0  0  0  0  0  0  0  0  0  0
    1.9188    1.7832   -2.1164 H   0  0  0  0  0  0  0  0  0  0  0  0
    4.8744    0.7997   -0.0179 H   0  0  0  0  0  0  0  0  0  0  0  0
    3.2873    0.0673   -0.1321 H   0  0  0  0  0  0  0  0  0  0  0  0
    5.2733    2.8653   -0.8505 H   0  0  0  0  0  0  0  0  0  0  0  0
    4.1435    3.3774   -2.0991 H   0  0  0  0  0  0  0  0  0  0  0  0
    3.7240    6.2217   -2.3718 H   0  0  0  0  0  0  0  0  0  0  0  0
    8.3146    8.6883   -1.5699 H   0  0  0  0  0  0  0  0  0  0  0  0
    5.9321    8.7342   -3.5162 H   0  0  0  0  0  0  0  0  0  0  0  0
  1  3  1  0
  1 18  1  0
  2 22  1  0
  2 23  1  0
  3 24  1  0
  3 25  1  0
  4  2  1  0
  4  9  1  0
  5 28  1  0
  6  5  2  0
  6 29  1  0
  7 30  1  0
  8 15  1  0
  8  3  1  0
  9 15  1  0
  9 35  1  0
  9 34  1  0
 10 36  1  0
 10 15  1  0
 10  7  1  0
 11 12  2  0
 12  7  1  0
 12  5  1  0
 13  6  1  0
 14 11  1  0
 14 13  2  0
 16 13  1  0
 16 39  1  0
 17 14  1  0
 19  1  1  0
 20  1  1  0
 21  2  1  0
 26  4  1  0
 27  4  1  0
 31  7  1  0
 32  8  1  0
 33  8  1  0
 37 10  1  0
 38 11  1  0
 40 17  1  0
M  END
>  <HBA>  (588) 
3

>  <HBD>  (588) 
2

>  <TPSA>  (588) 
43.7

>  <cid>  (588) 
3106

>  <dipole>  (588) 
2.22

>  <excitation_energy_1>  (588) 
4.585

>  <excitation_energy_2>  (588) 
4.699

>  <excitation_energy_3>  (588) 
4.878

>  <excitation_energy_4>  (588) 
4.924

>  <homo_energy>  (588) 
-5.293

>  <homo_lumo_gap>  (588) 
5.529

>  <logP>  (588) 
2.762

>  <lumo_energy>  (588) 
0.237

>  <melting_point>  (588) 
87.09

>  <molecular_refractivity>  (588) 
72.0

>  <oscillator_strength_1>  (588) 
0.0004

>  <oscillator_strength_2>  (588) 
0.0447

>  <oscillator_strength_3>  (588) 
0.0011

>  <oscillator_strength_4>  (588) 
0.0256

>  <open_babel_can_smiles>  (588) 
CCCN(CCc1ccc(c(c1)O)O)CCC

>  <mulliken_charges>  (588) 
40
1   -0.447814
2   -0.444109
3   -0.252508
4   -0.264405
5   -0.198318
6   -0.190414
7   -0.349283
8   -0.117123
9   -0.134802
10   -0.120624
11   -0.229646
12   0.165628
13   0.293973
14   0.32789
15   -0.387167
16   -0.680811
17   -0.655499
18   0.144484
19   0.142003
20   0.142115
21   0.14447
22   0.141567
23   0.141352
24   0.133727
25   0.14261
26   0.13702
27   0.138437
28   0.121026
29   0.118123
30   0.146082
31   0.144211
32   0.133669
33   0.113338
34   0.132276
35   0.135445
36   0.136618
37   0.122418
38   0.131804
39   0.415921
40   0.426314

>  <lowdin_charges>  (588) 
40
1   -0.44422
2   -0.44458
3   -0.276214
4   -0.294811
5   -0.182457
6   -0.203432
7   -0.275277
8   -0.197897
9   -0.207846
10   -0.195073
11   -0.192528
12   -0.006204
13   0.051963
14   0.080808
15   -0.189673
16   -0.404583
17   -0.38071
18   0.152364
19   0.145609
20   0.144779
21   0.150627
22   0.14726
23   0.14606
24   0.137768
25   0.145361
26   0.141667
27   0.143892
28   0.155692
29   0.153464
30   0.150399
31   0.146973
32   0.14119
33   0.116728
34   0.139697
35   0.142496
36   0.144048
37   0.122429
38   0.164666
39   0.364859
40   0.364707

$$$$
PCCDB-ID:  3121
     RDKit          3D

 26 25  0  0  0  0  0  0  0  0999 V2000
    0.7916   -1.4139    2.1376 C   0  0  0  0  0  0  0  0  0  0  0  0
    6.9513    2.6190    0.0440 C   0  0  0  0  0  0  0  0  0  0  0  0
    2.3157   -1.3266    2.2645 C   0  0  0  0  0  0  0  0  0  0  0  0
    6.4841    1.3729    0.8027 C   0  0  0  0  0  0  0  0  0  0  0  0
    2.8975   -0.0819    1.5805 C   0  0  0  0  0  0  0  0  0  0  0  0
    4.9554    1.2753    0.8957 C   0  0  0  0  0  0  0  0  0  0  0  0
    4.4375    0.0214    1.6380 C   0  0  0  0  0  0  0  0  0  0  0  0
    4.9669   -0.0231    3.0727 C   0  0  0  0  0  0  0  0  0  0  0  0
    5.7598   -0.8324    3.4842 O   0  0  0  0  0  0  0  0  0  0  0  0
    4.4983    0.9478    3.9114 O   0  0  0  0  0  0  0  0  0  0  0  0
    0.4044   -2.3130    2.6290 H   0  0  0  0  0  0  0  0  0  0  0  0
    0.4810   -1.4482    1.0861 H   0  0  0  0  0  0  0  0  0  0  0  0
    0.3030   -0.5467    2.5991 H   0  0  0  0  0  0  0  0  0  0  0  0
    8.0445    2.6606   -0.0130 H   0  0  0  0  0  0  0  0  0  0  0  0
    6.6093    3.5371    0.5375 H   0  0  0  0  0  0  0  0  0  0  0  0
    6.5634    2.6302   -0.9822 H   0  0  0  0  0  0  0  0  0  0  0  0
    2.7755   -2.2228    1.8268 H   0  0  0  0  0  0  0  0  0  0  0  0
    2.5957   -1.3290    3.3262 H   0  0  0  0  0  0  0  0  0  0  0  0
    6.9185    1.3720    1.8106 H   0  0  0  0  0  0  0  0  0  0  0  0
    6.8697    0.4717    0.3071 H   0  0  0  0  0  0  0  0  0  0  0  0
    2.4393    0.8216    2.0155 H   0  0  0  0  0  0  0  0  0  0  0  0
    2.6010   -0.0739    0.5228 H   0  0  0  0  0  0  0  0  0  0  0  0
    4.5280    1.2677   -0.1165 H   0  0  0  0  0  0  0  0  0  0  0  0
    4.5603    2.1835    1.3778 H   0  0  0  0  0  0  0  0  0  0  0  0
    4.8635   -0.8667    1.1581 H   0  0  0  0  0  0  0  0  0  0  0  0
    3.8665    1.5160    3.4401 H   0  0  0  0  0  0  0  0  0  0  0  0
  1  3  1  0
  1 13  1  0
  1 11  1  0
  2 15  1  0
  2  4  1  0
  3 18  1  0
  4  6  1  0
  4 19  1  0
  5  7  1  0
  5 21  1  0
  5  3  1  0
  6 24  1  0
  6  7  1  0
  7  8  1  0
  8  9  2  0
  8 10  1  0
 12  1  1  0
 14  2  1  0
 16  2  1  0
 17  3  1  0
 20  4  1  0
 22  5  1  0
 23  6  1  0
 25  7  1  0
 26 10  1  0
M  END
>  <HBA>  (589) 
2

>  <HBD>  (589) 
1

>  <TPSA>  (589) 
37.3

>  <cid>  (589) 
3121

>  <dipole>  (589) 
4.21

>  <excitation_energy_1>  (589) 
5.591

>  <excitation_energy_2>  (589) 
6.439

>  <excitation_energy_3>  (589) 
7.077

>  <excitation_energy_4>  (589) 
7.304

>  <homo_energy>  (589) 
-7.105

>  <homo_lumo_gap>  (589) 
7.475

>  <logP>  (589) 
2.287

>  <lumo_energy>  (589) 
0.37

>  <melting_point>  (589) 
49.27

>  <molecular_refractivity>  (589) 
42.34

>  <oscillator_strength_1>  (589) 
0.004

>  <oscillator_strength_2>  (589) 
0.0116

>  <oscillator_strength_3>  (589) 
0.0045

>  <oscillator_strength_4>  (589) 
0.0185

>  <open_babel_can_smiles>  (589) 
CCCC(C(=O)O)CCC

>  <mulliken_charges>  (589) 
26
1   -0.444169
2   -0.444432
3   -0.258509
4   -0.258177
5   -0.270534
6   -0.264585
7   -0.198568
8   0.600496
9   -0.448267
10   -0.57614
11   0.151344
12   0.143658
13   0.142397
14   0.150688
15   0.142882
16   0.142313
17   0.145377
18   0.154607
19   0.157968
20   0.143311
21   0.113479
22   0.144832
23   0.142545
24   0.117003
25   0.160617
26   0.409863

>  <lowdin_charges>  (589) 
26
1   -0.443707
2   -0.441023
3   -0.275886
4   -0.275447
5   -0.275202
6   -0.273991
7   -0.167817
8   0.190044
9   -0.238967
10   -0.365286
11   0.1552
12   0.146124
13   0.147602
14   0.152342
15   0.147303
16   0.145632
17   0.148057
18   0.148928
19   0.151501
20   0.147003
21   0.130007
22   0.147819
23   0.146811
24   0.13247
25   0.164653
26   0.355828

$$$$
PCCDB-ID:  3123
     RDKit          3D

 33 32  0  0  1  0  0  0  0  0999 V2000
   -0.1934    0.0670   -1.5082 C   0  0  0  0  0  0  0  0  0  0  0  0
    0.5263   -0.0702   -2.8570 C   0  0  0  0  0  0  0  0  0  0  0  0
   -0.2714   -1.2633   -0.7403 C   0  0  0  0  0  0  0  0  0  0  0  0
    0.5251    1.2054   -3.7160 C   0  0  0  0  0  0  0  0  0  0  0  0
   -0.9694   -1.1915    0.6341 C   0  0  0  0  0  0  0  0  0  0  0  0
    1.3156    2.3700   -3.0950 C   0  0  0  0  0  0  0  0  0  0  0  0
   -0.0741   -0.8893    1.8589 C   0  0  1  0  0  0  0  0  0  0  0  0
    0.6472    0.4607    1.7053 C   0  0  0  0  0  0  0  0  0  0  0  0
   -0.9015   -0.9321    3.0634 N   0  0  0  0  0  0  0  0  0  0  0  0
    0.1568    1.5117    2.0392 O   0  0  0  0  0  0  0  0  0  0  0  0
    1.8896    0.4363    1.1468 O   0  0  0  0  0  0  0  0  0  0  0  0
    2.2822    4.8891   -3.3035 O   0  0  0  0  0  0  0  0  0  0  0  0
    2.2610    3.3653   -5.3730 O   0  0  0  0  0  0  0  0  0  0  0  0
    0.0269    4.4579   -4.5256 O   0  0  0  0  0  0  0  0  0  0  0  0
    1.3281    3.8545   -4.1320 P   0  0  0  0  0  0  0  0  0  0  0  0
   -1.2163    0.4319   -1.6802 H   0  0  0  0  0  0  0  0  0  0  0  0
    0.3045    0.8273   -0.8971 H   0  0  0  0  0  0  0  0  0  0  0  0
    0.0489   -0.8741   -3.4349 H   0  0  0  0  0  0  0  0  0  0  0  0
    1.5648   -0.3922   -2.6878 H   0  0  0  0  0  0  0  0  0  0  0  0
    0.7396   -1.6875   -0.6273 H   0  0  0  0  0  0  0  0  0  0  0  0
   -0.8144   -1.9853   -1.3638 H   0  0  0  0  0  0  0  0  0  0  0  0
   -0.5081    1.5290   -3.8947 H   0  0  0  0  0  0  0  0  0  0  0  0
    0.9545    0.9741   -4.6980 H   0  0  0  0  0  0  0  0  0  0  0  0
   -1.4556   -2.1453    0.8631 H   0  0  0  0  0  0  0  0  0  0  0  0
   -1.7667   -0.4361    0.6037 H   0  0  0  0  0  0  0  0  0  0  0  0
    2.3582    2.0841   -2.9076 H   0  0  0  0  0  0  0  0  0  0  0  0
    0.8931    2.6776   -2.1320 H   0  0  0  0  0  0  0  0  0  0  0  0
    0.6737   -1.6916    1.9407 H   0  0  0  0  0  0  0  0  0  0  0  0
   -1.4889   -0.0968    3.0625 H   0  0  0  0  0  0  0  0  0  0  0  0
   -0.3078   -0.8361    3.8871 H   0  0  0  0  0  0  0  0  0  0  0  0
    2.1400   -0.4802    0.9445 H   0  0  0  0  0  0  0  0  0  0  0  0
    1.8045    5.7261   -3.1799 H   0  0  0  0  0  0  0  0  0  0  0  0
    2.1184    3.9340   -6.1491 H   0  0  0  0  0  0  0  0  0  0  0  0
  1 17  1  0
  1  3  1  0
  2 19  1  0
  2  1  1  0
  3 20  1  0
  3  5  1  0
  4  6  1  0
  4  2  1  0
  5 24  1  0
  5  7  1  0
  6 26  1  0
  6 27  1  0
  7 28  1  1
  7  9  1  0
  8  7  1  0
  8 10  2  0
  9 30  1  0
 11  8  1  0
 12 32  1  0
 13 15  1  0
 14 15  2  0
 15 12  1  0
 15  6  1  0
 16  1  1  0
 18  2  1  0
 21  3  1  0
 22  4  1  0
 23  4  1  0
 25  5  1  0
 29  9  1  0
 31 11  1  0
 33 13  1  0
M  END
>  <HBA>  (590) 
6

>  <HBD>  (590) 
4

>  <TPSA>  (590) 
130.66

>  <cid>  (590) 
3123

>  <dipole>  (590) 
3.6

>  <excitation_energy_1>  (590) 
5.412

>  <excitation_energy_2>  (590) 
5.834

>  <excitation_energy_3>  (590) 
5.977

>  <excitation_energy_4>  (590) 
6.391

>  <homo_energy>  (590) 
-6.83

>  <homo_lumo_gap>  (590) 
6.808

>  <logP>  (590) 
1.227

>  <lumo_energy>  (590) 
-0.022

>  <melting_point>  (590) 
189.85

>  <molecular_refractivity>  (590) 
56.04

>  <oscillator_strength_1>  (590) 
0.0059

>  <oscillator_strength_2>  (590) 
0.0005

>  <oscillator_strength_3>  (590) 
0.0098

>  <oscillator_strength_4>  (590) 
0.0135

>  <open_babel_can_smiles>  (590) 
N[C@H](C(=O)O)CCCCCCP(=O)(O)O

>  <mulliken_charges>  (590) 
33
1   -0.275824
2   -0.258976
3   -0.277569
4   -0.279445
5   -0.249947
6   -0.475855
7   -0.101706
8   0.593769
9   -0.693478
10   -0.453105
11   -0.570513
12   -0.652549
13   -0.654919
14   -0.566027
15   1.040894
16   0.139899
17   0.162916
18   0.135786
19   0.126911
20   0.109649
21   0.146335
22   0.163853
23   0.158136
24   0.164711
25   0.151761
26   0.188075
27   0.194879
28   0.128733
29   0.314869
30   0.303079
31   0.411192
32   0.437794
33   0.436674

>  <lowdin_charges>  (590) 
33
1   -0.287086
2   -0.274034
3   -0.281151
4   -0.271871
5   -0.276119
6   -0.450914
7   -0.109953
8   0.175972
9   -0.530707
10   -0.246675
11   -0.35681
12   -0.58186
13   -0.577195
14   -0.608971
15   1.043233
16   0.143374
17   0.152816
18   0.145281
19   0.136097
20   0.12709
21   0.151713
22   0.156342
23   0.156131
24   0.162243
25   0.153789
26   0.181084
27   0.183581
28   0.140981
29   0.26494
30   0.259952
31   0.354985
32   0.38263
33   0.381115

$$$$
PCCDB-ID:  3125
     RDKit          3D

 27 27  0  0  1  0  0  0  0  0999 V2000
    0.5373   -0.3921    0.2162 C   0  0  0  0  0  0  0  0  0  0  0  0
    3.3318   -1.8273   -2.6727 C   0  0  0  0  0  0  0  0  0  0  0  0
    1.2639   -0.6868   -3.0993 C   0  0  0  0  0  0  0  0  0  0  0  0
    3.0959   -2.6751   -3.7564 C   0  0  0  0  0  0  0  0  0  0  0  0
    1.0143   -1.5213   -4.1834 C   0  0  0  0  0  0  0  0  0  0  0  0
    2.6842    0.0772   -1.1268 C   0  0  0  0  0  0  0  0  0  0  0  0
    2.4209   -0.8238   -2.3135 C   0  0  0  0  0  0  0  0  0  0  0  0
    1.9309   -2.5266   -4.5138 C   0  0  0  0  0  0  0  0  0  0  0  0
    2.5802    0.6269    1.2821 C   0  0  0  0  0  0  0  0  0  0  0  0
    2.0707   -0.3985    0.2323 C   0  0  1  0  0  0  0  0  0  0  0  0
    2.6454   -1.7162    0.5847 N   0  0  0  0  0  0  0  0  0  0  0  0
    1.6363   -3.3182   -5.5879 O   0  0  0  0  0  0  0  0  0  0  0  0
    2.0921    1.7249    1.4213 O   0  0  0  0  0  0  0  0  0  0  0  0
    3.6460    0.2033    1.9794 O   0  0  0  0  0  0  0  0  0  0  0  0
    0.1584    0.6206    0.0564 H   0  0  0  0  0  0  0  0  0  0  0  0
    0.1443   -0.7415    1.1790 H   0  0  0  0  0  0  0  0  0  0  0  0
    0.1546   -1.0499   -0.5702 H   0  0  0  0  0  0  0  0  0  0  0  0
    4.2559   -1.9385   -2.1091 H   0  0  0  0  0  0  0  0  0  0  0  0
    0.5510    0.0997   -2.8654 H   0  0  0  0  0  0  0  0  0  0  0  0
    3.8233   -3.4419   -4.0172 H   0  0  0  0  0  0  0  0  0  0  0  0
    0.1216   -1.4052   -4.7898 H   0  0  0  0  0  0  0  0  0  0  0  0
    2.2947    1.0833   -1.3119 H   0  0  0  0  0  0  0  0  0  0  0  0
    3.7668    0.1783   -0.9823 H   0  0  0  0  0  0  0  0  0  0  0  0
    2.7184   -2.3026   -0.2455 H   0  0  0  0  0  0  0  0  0  0  0  0
    2.0270   -2.2051    1.2314 H   0  0  0  0  0  0  0  0  0  0  0  0
    2.3562   -3.9544   -5.7207 H   0  0  0  0  0  0  0  0  0  0  0  0
    3.7910   -0.7269    1.6650 H   0  0  0  0  0  0  0  0  0  0  0  0
  1 10  1  0
  1 16  1  0
  2  7  2  0
  2 18  1  0
  3 19  1  0
  3  7  1  0
  4  2  1  0
  5  3  2  0
  6 23  1  0
  6 10  1  0
  7  6  1  0
  8  5  1  0
  8  4  2  0
  9 13  2  0
  9 14  1  0
 10 11  1  0
 10  9  1  1
 11 25  1  0
 12  8  1  0
 15  1  1  0
 17  1  1  0
 20  4  1  0
 21  5  1  0
 22  6  1  0
 24 11  1  0
 26 12  1  0
 27 14  1  0
M  END
>  <HBA>  (591) 
4

>  <HBD>  (591) 
3

>  <TPSA>  (591) 
83.55

>  <cid>  (591) 
3125

>  <dipole>  (591) 
6.02

>  <excitation_energy_1>  (591) 
4.93

>  <excitation_energy_2>  (591) 
5.246

>  <excitation_energy_3>  (591) 
5.412

>  <excitation_energy_4>  (591) 
5.538

>  <homo_energy>  (591) 
-6.259

>  <homo_lumo_gap>  (591) 
5.769

>  <logP>  (591) 
1.437

>  <lumo_energy>  (591) 
-0.49

>  <melting_point>  (591) 
188.56

>  <molecular_refractivity>  (591) 
52.37

>  <oscillator_strength_1>  (591) 
0.028

>  <oscillator_strength_2>  (591) 
0.0059

>  <oscillator_strength_3>  (591) 
0.0461

>  <oscillator_strength_4>  (591) 
0.0851

>  <open_babel_can_smiles>  (591) 
Oc1ccc(cc1)C[C@](C(=O)O)(N)C

>  <mulliken_charges>  (591) 
27
1   -0.465486
2   -0.209834
3   -0.187757
4   -0.192679
5   -0.157948
6   -0.37093
7   0.162014
8   0.351235
9   0.620019
10   0.098352
11   -0.791007
12   -0.63885
13   -0.476542
14   -0.588819
15   0.179361
16   0.145196
17   0.153007
18   0.138152
19   0.139439
20   0.124397
21   0.146844
22   0.178172
23   0.158645
24   0.326275
25   0.318726
26   0.409399
27   0.430616

>  <lowdin_charges>  (591) 
27
1   -0.454963
2   -0.16598
3   -0.151933
4   -0.21447
5   -0.181594
6   -0.272394
7   -0.031037
8   0.104504
9   0.173651
10   0.025311
11   -0.551571
12   -0.375337
13   -0.260715
14   -0.357112
15   0.170406
16   0.15226
17   0.156597
18   0.159713
19   0.163095
20   0.156716
21   0.170982
22   0.170285
23   0.157305
24   0.271161
25   0.26799
26   0.35981
27   0.357321

$$$$
PCCDB-ID:  3134
     RDKit          3D

 21 22  0  0  0  0  0  0  0  0999 V2000
    1.0110    0.1179   -0.1096 C   0  0  0  0  0  0  0  0  0  0  0  0
    3.0271    1.4726    0.2413 C   0  0  0  0  0  0  0  0  0  0  0  0
    6.6361   -0.8423    0.9932 C   0  0  0  0  0  0  0  0  0  0  0  0
    3.1256   -3.3390    0.3773 C   0  0  0  0  0  0  0  0  0  0  0  0
    4.5473   -1.0849    0.5971 C   0  0  0  0  0  0  0  0  0  0  0  0
    5.0708   -2.3820    0.7273 C   0  0  0  0  0  0  0  0  0  0  0  0
    3.1484   -1.0088    0.3276 C   0  0  0  0  0  0  0  0  0  0  0  0
    5.5541   -0.1405    0.7695 N   0  0  0  0  0  0  0  0  0  0  0  0
    6.4120   -2.1999    0.9811 N   0  0  0  0  0  0  0  0  0  0  0  0
    4.4200   -3.5471    0.6297 N   0  0  0  0  0  0  0  0  0  0  0  0
    2.4777   -2.1795    0.2264 N   0  0  0  0  0  0  0  0  0  0  0  0
    2.4402    0.1430    0.1662 N   0  0  0  0  0  0  0  0  0  0  0  0
    0.8046    0.5999   -1.0750 H   0  0  0  0  0  0  0  0  0  0  0  0
    0.4689    0.6698    0.6701 H   0  0  0  0  0  0  0  0  0  0  0  0
    0.6658   -0.9132   -0.1356 H   0  0  0  0  0  0  0  0  0  0  0  0
    2.8730    2.0037   -0.7085 H   0  0  0  0  0  0  0  0  0  0  0  0
    4.0934    1.4143    0.4494 H   0  0  0  0  0  0  0  0  0  0  0  0
    2.5357    2.0534    1.0344 H   0  0  0  0  0  0  0  0  0  0  0  0
    7.6201   -0.4289    1.1716 H   0  0  0  0  0  0  0  0  0  0  0  0
    2.5095   -4.2313    0.2803 H   0  0  0  0  0  0  0  0  0  0  0  0
    7.0837   -2.9393    1.1295 H   0  0  0  0  0  0  0  0  0  0  0  0
  1 12  1  0
  1 14  1  0
  2 17  1  0
  2 18  1  0
  3 19  1  0
  4 10  2  0
  5  6  2  0
  5  8  1  0
  6  9  1  0
  7  5  1  0
  8  3  2  0
  9  3  1  0
  9 21  1  0
 10  6  1  0
 11  7  2  0
 11  4  1  0
 12  2  1  0
 12  7  1  0
 13  1  1  0
 15  1  1  0
 16  2  1  0
 20  4  1  0
M  END
>  <HBA>  (592) 
4

>  <HBD>  (592) 
1

>  <TPSA>  (592) 
57.7

>  <cid>  (592) 
3134

>  <dipole>  (592) 
2.18

>  <excitation_energy_1>  (592) 
4.693

>  <excitation_energy_2>  (592) 
4.978

>  <excitation_energy_3>  (592) 
5.016

>  <excitation_energy_4>  (592) 
5.048

>  <homo_energy>  (592) 
-5.519

>  <homo_lumo_gap>  (592) 
5.146

>  <logP>  (592) 
0.419

>  <lumo_energy>  (592) 
-0.373

>  <melting_point>  (592) 
151.79

>  <molecular_refractivity>  (592) 
45.89

>  <oscillator_strength_1>  (592) 
0.2585

>  <oscillator_strength_2>  (592) 
0.0004

>  <oscillator_strength_3>  (592) 
0.1111

>  <oscillator_strength_4>  (592) 
0.0

>  <open_babel_can_smiles>  (592) 
CN(c1ncnc2c1nc[nH]2)C

>  <mulliken_charges>  (592) 
21
1   -0.320028
2   -0.342116
3   0.235156
4   0.165299
5   0.194148
6   0.50546
7   0.538075
8   -0.52306
9   -0.652211
10   -0.501909
11   -0.529743
12   -0.455372
13   0.149978
14   0.149836
15   0.211041
16   0.150201
17   0.225742
18   0.150277
19   0.165713
20   0.141056
21   0.342457

>  <lowdin_charges>  (592) 
21
1   -0.356447
2   -0.36239
3   -0.060707
4   -0.036598
5   -0.062774
6   0.064996
7   0.117539
8   -0.193268
9   -0.193933
10   -0.213216
11   -0.228024
12   -0.077564
13   0.147655
14   0.149351
15   0.185938
16   0.147727
17   0.190568
18   0.148945
19   0.171266
20   0.156621
21   0.304313

$$$$
PCCDB-ID:  3136
     RDKit          3D

 26 27  0  0  0  0  0  0  0  0999 V2000
    2.1848    0.7242   -0.8747 C   0  0  0  0  0  0  0  0  0  0  0  0
    3.7032   -3.1757    2.3854 C   0  0  0  0  0  0  0  0  0  0  0  0
    4.8030    3.5889    4.5519 C   0  0  0  0  0  0  0  0  0  0  0  0
    5.4990    2.5847    5.2310 C   0  0  0  0  0  0  0  0  0  0  0  0
    4.0409    3.2745    3.4264 C   0  0  0  0  0  0  0  0  0  0  0  0
    5.4330    1.2639    4.7869 C   0  0  0  0  0  0  0  0  0  0  0  0
    3.9744    1.9536    2.9775 C   0  0  0  0  0  0  0  0  0  0  0  0
    4.6684    0.9448    3.6625 C   0  0  0  0  0  0  0  0  0  0  0  0
    3.1421    1.6270    1.7834 C   0  0  0  0  0  0  0  0  0  0  0  0
    4.6180   -0.4682    3.1871 C   0  0  0  0  0  0  0  0  0  0  0  0
    3.1335    0.2217    1.3071 C   0  0  0  0  0  0  0  0  0  0  0  0
    3.7576   -0.7764    2.0189 C   0  0  0  0  0  0  0  0  0  0  0  0
    2.4693    2.4927    1.2281 O   0  0  0  0  0  0  0  0  0  0  0  0
    5.2856   -1.3425    3.7351 O   0  0  0  0  0  0  0  0  0  0  0  0
    2.4002   -0.1537    0.2407 O   0  0  0  0  0  0  0  0  0  0  0  0
    3.6767   -2.0276    1.5235 O   0  0  0  0  0  0  0  0  0  0  0  0
    3.0940    1.2776   -1.1279 H   0  0  0  0  0  0  0  0  0  0  0  0
    1.3777    1.4295   -0.6750 H   0  0  0  0  0  0  0  0  0  0  0  0
    1.9182    0.0607   -1.7007 H   0  0  0  0  0  0  0  0  0  0  0  0
    3.2292   -3.9705    1.8046 H   0  0  0  0  0  0  0  0  0  0  0  0
    3.1291   -2.9997    3.3003 H   0  0  0  0  0  0  0  0  0  0  0  0
    4.7250   -3.4505    2.6482 H   0  0  0  0  0  0  0  0  0  0  0  0
    4.8538    4.6167    4.9004 H   0  0  0  0  0  0  0  0  0  0  0  0
    6.0937    2.8319    6.1060 H   0  0  0  0  0  0  0  0  0  0  0  0
    3.4896    4.0355    2.8841 H   0  0  0  0  0  0  0  0  0  0  0  0
    5.9660    0.4671    5.2951 H   0  0  0  0  0  0  0  0  0  0  0  0
  1 18  1  0
  1 15  1  0
  2 22  1  0
  2 21  1  0
  3 23  1  0
  3  4  2  0
  4 24  1  0
  5  3  1  0
  6  4  1  0
  6 26  1  0
  7  5  2  0
  7  8  1  0
  8  6  2  0
  9  7  1  0
 10  8  1  0
 10 14  2  0
 11  9  1  0
 11 12  2  0
 12 10  1  0
 13  9  2  0
 15 11  1  0
 16 12  1  0
 16  2  1  0
 17  1  1  0
 19  1  1  0
 20  2  1  0
 25  5  1  0
M  END
>  <HBA>  (593) 
4

>  <HBD>  (593) 
0

>  <TPSA>  (593) 
52.6

>  <cid>  (593) 
3136

>  <dipole>  (593) 
1.22

>  <excitation_energy_1>  (593) 
2.49

>  <excitation_energy_2>  (593) 
2.94

>  <excitation_energy_3>  (593) 
2.985

>  <excitation_energy_4>  (593) 
3.687

>  <homo_energy>  (593) 
-5.965

>  <homo_lumo_gap>  (593) 
3.069

>  <logP>  (593) 
1.57

>  <lumo_energy>  (593) 
-2.895

>  <melting_point>  (593) 
94.09

>  <molecular_refractivity>  (593) 
56.03

>  <oscillator_strength_1>  (593) 
0.0377

>  <oscillator_strength_2>  (593) 
0.0021

>  <oscillator_strength_3>  (593) 
0.0

>  <oscillator_strength_4>  (593) 
0.0494

>  <open_babel_can_smiles>  (593) 
COC1=C(OC)C(=O)c2c(C1=O)cccc2

>  <mulliken_charges>  (593) 
26
1   -0.204009
2   -0.204689
3   -0.124702
4   -0.124906
5   -0.176
6   -0.176147
7   0.046099
8   0.046979
9   0.368454
10   0.369023
11   0.260779
12   0.258336
13   -0.487283
14   -0.487326
15   -0.492723
16   -0.492666
17   0.155073
18   0.182249
19   0.160994
20   0.160945
21   0.153775
22   0.182843
23   0.144928
24   0.144999
25   0.167429
26   0.167546

>  <lowdin_charges>  (593) 
26
1   -0.271481
2   -0.27032
3   -0.139981
4   -0.139991
5   -0.130754
6   -0.130874
7   -0.037041
8   -0.037082
9   0.136042
10   0.136021
11   0.046074
12   0.042768
13   -0.241379
14   -0.241812
15   -0.176314
16   -0.178257
17   0.152001
18   0.163808
19   0.157179
20   0.157468
21   0.150939
22   0.162608
23   0.164324
24   0.165582
25   0.180242
26   0.180228

$$$$
PCCDB-ID:  3169
     RDKit          3D

 37 38  0  0  1  0  0  0  0  0999 V2000
   -1.4805    0.2028   -0.7945 C   0  0  0  0  0  0  0  0  0  0  0  0
   -0.6198   -0.7591   -1.3196 C   0  0  0  0  0  0  0  0  0  0  0  0
   -0.9325    1.2603   -0.0643 C   0  0  0  0  0  0  0  0  0  0  0  0
    0.7605   -0.6667   -1.1369 C   0  0  0  0  0  0  0  0  0  0  0  0
    0.4403    1.3528    0.1397 C   0  0  0  0  0  0  0  0  0  0  0  0
    4.2563   -0.4206   -1.8643 C   0  0  0  0  0  0  0  0  0  0  0  0
    4.0387    1.9647   -1.6214 C   0  0  0  0  0  0  0  0  0  0  0  0
    3.6144   -0.5985   -0.4821 C   0  0  0  0  0  0  0  0  0  0  0  0
    3.3881    1.7786   -0.2428 C   0  0  0  0  0  0  0  0  0  0  0  0
    5.7138    1.0656   -3.1496 C   0  0  0  0  0  0  0  0  0  0  0  0
    7.9911    1.3266   -2.0428 C   0  0  0  0  0  0  0  0  0  0  0  0
    1.3251    0.3931   -0.3991 C   0  0  0  0  0  0  0  0  0  0  0  0
    6.9404    1.9756   -2.9535 C   0  0  1  0  0  0  0  0  0  0  0  0
    4.9603    0.8638   -1.9129 N   0  0  0  0  0  0  0  0  0  0  0  0
    2.7046    0.4887   -0.1387 N   0  0  0  0  0  0  0  0  0  0  0  0
    8.6657    0.2656   -2.7262 O   0  0  0  0  0  0  0  0  0  0  0  0
    7.5186    2.3014   -4.2181 O   0  0  0  0  0  0  0  0  0  0  0  0
   -2.5535    0.1304   -0.9462 H   0  0  0  0  0  0  0  0  0  0  0  0
   -1.0189   -1.5901   -1.8963 H   0  0  0  0  0  0  0  0  0  0  0  0
   -1.5824    2.0164    0.3696 H   0  0  0  0  0  0  0  0  0  0  0  0
    1.3964   -1.4177   -1.5920 H   0  0  0  0  0  0  0  0  0  0  0  0
    0.8296    2.1577    0.7550 H   0  0  0  0  0  0  0  0  0  0  0  0
    3.4797   -0.4974   -2.6505 H   0  0  0  0  0  0  0  0  0  0  0  0
    4.9820   -1.2243   -2.0364 H   0  0  0  0  0  0  0  0  0  0  0  0
    4.5914    2.9109   -1.6313 H   0  0  0  0  0  0  0  0  0  0  0  0
    3.2445    2.0421   -2.3909 H   0  0  0  0  0  0  0  0  0  0  0  0
    4.4206   -0.6062    0.2646 H   0  0  0  0  0  0  0  0  0  0  0  0
    3.0950   -1.5561   -0.4079 H   0  0  0  0  0  0  0  0  0  0  0  0
    2.6880    2.5941   -0.0590 H   0  0  0  0  0  0  0  0  0  0  0  0
    4.1694    1.8255    0.5282 H   0  0  0  0  0  0  0  0  0  0  0  0
    6.0827    0.0876   -3.4847 H   0  0  0  0  0  0  0  0  0  0  0  0
    5.0901    1.4782   -3.9625 H   0  0  0  0  0  0  0  0  0  0  0  0
    7.4967    0.8829   -1.1743 H   0  0  0  0  0  0  0  0  0  0  0  0
    8.7096    2.0801   -1.6922 H   0  0  0  0  0  0  0  0  0  0  0  0
    6.6302    2.9320   -2.5185 H   0  0  0  0  0  0  0  0  0  0  0  0
    9.3487    0.6811   -3.2743 H   0  0  0  0  0  0  0  0  0  0  0  0
    7.7266    1.4495   -4.6371 H   0  0  0  0  0  0  0  0  0  0  0  0
  1  3  2  0
  2  4  2  0
  2  1  1  0
  3  5  1  0
  3 20  1  0
  4 12  1  0
  5 22  1  0
  6  8  1  0
  7  9  1  0
  8 28  1  0
  8 15  1  0
  8 27  1  0
  9 15  1  0
  9 29  1  0
  9 30  1  0
 10 13  1  0
 10 14  1  0
 11 34  1  0
 11 33  1  0
 12 15  1  0
 12  5  2  0
 13 35  1  1
 13 11  1  0
 14  6  1  0
 14  7  1  0
 16 11  1  0
 17 13  1  0
 18  1  1  0
 19  2  1  0
 21  4  1  0
 23  6  1  0
 24  6  1  0
 25  7  1  0
 26  7  1  0
 31 10  1  0
 32 10  1  0
 36 16  1  0
 37 17  1  0
M  END
>  <HBA>  (594) 
4

>  <HBD>  (594) 
2

>  <TPSA>  (594) 
46.94

>  <cid>  (594) 
3169

>  <dipole>  (594) 
1.08

>  <excitation_energy_1>  (594) 
4.351

>  <excitation_energy_2>  (594) 
4.576

>  <excitation_energy_3>  (594) 
4.668

>  <excitation_energy_4>  (594) 
4.88

>  <homo_energy>  (594) 
-5.056

>  <homo_lumo_gap>  (594) 
5.257

>  <logP>  (594) 
0.165

>  <lumo_energy>  (594) 
0.201

>  <melting_point>  (594) 
71.79

>  <molecular_refractivity>  (594) 
74.64

>  <oscillator_strength_1>  (594) 
0.0225

>  <oscillator_strength_2>  (594) 
0.0462

>  <oscillator_strength_3>  (594) 
0.0108

>  <oscillator_strength_4>  (594) 
0.1414

>  <open_babel_can_smiles>  (594) 
OC[C@H](CN1CCN(CC1)c1ccccc1)O

>  <mulliken_charges>  (594) 
37
1   -0.136554
2   -0.137808
3   -0.134512
4   -0.190313
5   -0.179174
6   -0.128547
7   -0.12872
8   -0.153829
9   -0.155341
10   -0.150717
11   -0.058946
12   0.334599
13   0.126562
14   -0.404811
15   -0.481258
16   -0.625085
17   -0.633926
18   0.120331
19   0.123529
20   0.123744
21   0.121975
22   0.126082
23   0.124124
24   0.145903
25   0.14153
26   0.126116
27   0.151241
28   0.155775
29   0.154073
30   0.146923
31   0.142634
32   0.131733
33   0.162175
34   0.130189
35   0.134775
36   0.391805
37   0.38372

>  <lowdin_charges>  (594) 
37
1   -0.184499
2   -0.148621
3   -0.150126
4   -0.2114
5   -0.197027
6   -0.214607
7   -0.214158
8   -0.20601
9   -0.202094
10   -0.223303
11   -0.158543
12   0.057899
13   -0.025607
14   -0.192676
15   -0.133429
16   -0.473329
17   -0.462374
18   0.152701
19   0.15558
20   0.156362
21   0.156109
22   0.156434
23   0.123753
24   0.151527
25   0.147583
26   0.125435
27   0.150465
28   0.158065
29   0.159359
30   0.146387
31   0.148939
32   0.133357
33   0.157231
34   0.136683
35   0.144215
36   0.343834
37   0.335886

$$$$
PCCDB-ID:  3171
     RDKit          3D

 26 26  0  0  1  0  0  0  0  0999 V2000
   -1.3101   -0.0563   -0.0929 C   0  0  0  0  0  0  0  0  0  0  0  0
   -0.7372    1.2181   -0.1317 C   0  0  0  0  0  0  0  0  0  0  0  0
    0.8923   -1.0258   -0.0100 C   0  0  0  0  0  0  0  0  0  0  0  0
   -0.5017   -1.1894   -0.0413 C   0  0  0  0  0  0  0  0  0  0  0  0
    0.6455    1.3804   -0.1120 C   0  0  0  0  0  0  0  0  0  0  0  0
    1.4717    0.2374   -0.0478 C   0  0  0  0  0  0  0  0  0  0  0  0
   -0.9196   -3.3952   -1.3035 C   0  0  1  0  0  0  0  0  0  0  0  0
   -1.1073   -2.5724   -0.0036 C   0  0  1  0  0  0  0  0  0  0  0  0
   -1.6622   -4.7626   -1.2657 C   0  0  0  0  0  0  0  0  0  0  0  0
   -1.2841   -2.6027   -2.4682 N   0  0  0  0  0  0  0  0  0  0  0  0
    1.2670    2.5943   -0.1422 O   0  0  0  0  0  0  0  0  0  0  0  0
    2.8197    0.4506   -0.0180 O   0  0  0  0  0  0  0  0  0  0  0  0
   -0.4966   -3.3712    1.0392 O   0  0  0  0  0  0  0  0  0  0  0  0
   -2.2709   -5.1743   -2.2271 O   0  0  0  0  0  0  0  0  0  0  0  0
   -1.5665   -5.4826   -0.1349 O   0  0  0  0  0  0  0  0  0  0  0  0
   -2.3921   -0.1572   -0.1087 H   0  0  0  0  0  0  0  0  0  0  0  0
   -1.3737    2.1001   -0.1751 H   0  0  0  0  0  0  0  0  0  0  0  0
    1.5351   -1.9018    0.0535 H   0  0  0  0  0  0  0  0  0  0  0  0
    0.1539   -3.6239   -1.3725 H   0  0  0  0  0  0  0  0  0  0  0  0
   -2.1863   -2.4801    0.1963 H   0  0  0  0  0  0  0  0  0  0  0  0
   -2.2915   -2.4372   -2.4482 H   0  0  0  0  0  0  0  0  0  0  0  0
   -1.1510   -3.1904   -3.2904 H   0  0  0  0  0  0  0  0  0  0  0  0
    0.5900    3.2861   -0.2028 H   0  0  0  0  0  0  0  0  0  0  0  0
    3.2678   -0.4096   -0.0119 H   0  0  0  0  0  0  0  0  0  0  0  0
   -0.6207   -2.9106    1.8844 H   0  0  0  0  0  0  0  0  0  0  0  0
   -1.0951   -4.9436    0.5421 H   0  0  0  0  0  0  0  0  0  0  0  0
  1  4  2  0
  2  5  2  0
  2  1  1  0
  3 18  1  0
  4  3  1  0
  4  8  1  0
  5  6  1  0
  6 12  1  0
  6  3  2  0
  7 19  1  6
  7  9  1  0
  7  8  1  0
  8 20  1  1
  8 13  1  0
  9 15  1  0
 10 21  1  0
 10  7  1  0
 11  5  1  0
 12 24  1  0
 13 25  1  0
 14  9  2  0
 15 26  1  0
 16  1  1  0
 17  2  1  0
 22 10  1  0
 23 11  1  0
M  END
>  <HBA>  (595) 
6

>  <HBD>  (595) 
5

>  <TPSA>  (595) 
124.01

>  <cid>  (595) 
3171

>  <dipole>  (595) 
4.4

>  <excitation_energy_1>  (595) 
4.729

>  <excitation_energy_2>  (595) 
4.926

>  <excitation_energy_3>  (595) 
5.164

>  <excitation_energy_4>  (595) 
5.243

>  <homo_energy>  (595) 
-5.848

>  <homo_lumo_gap>  (595) 
5.543

>  <logP>  (595) 
0.243

>  <lumo_energy>  (595) 
-0.305

>  <melting_point>  (595) 
237.8

>  <molecular_refractivity>  (595) 
50.71

>  <oscillator_strength_1>  (595) 
0.0859

>  <oscillator_strength_2>  (595) 
0.0039

>  <oscillator_strength_3>  (595) 
0.0171

>  <oscillator_strength_4>  (595) 
0.0097

>  <open_babel_can_smiles>  (595) 
OC(=O)[C@H]([C@H](c1ccc(c(c1)O)O)O)N

>  <mulliken_charges>  (595) 
26
1   -0.196855
2   -0.19842
3   -0.252593
4   0.18184
5   0.32485
6   0.329598
7   -0.099716
8   0.015072
9   0.574939
10   -0.688628
11   -0.627438
12   -0.63136
13   -0.654649
14   -0.462461
15   -0.587415
16   0.125017
17   0.123757
18   0.128486
19   0.172267
20   0.136122
21   0.298449
22   0.318758
23   0.409667
24   0.409712
25   0.411447
26   0.439554

>  <lowdin_charges>  (595) 
26
1   -0.168701
2   -0.204631
3   -0.207078
4   -0.029326
5   0.083176
6   0.084301
7   -0.118496
8   -0.000409
9   0.166408
10   -0.522728
11   -0.364445
12   -0.36659
13   -0.461231
14   -0.260572
15   -0.365008
16   0.154568
17   0.157276
18   0.15928
19   0.162933
20   0.137232
21   0.254388
22   0.269657
23   0.360964
24   0.359439
25   0.358099
26   0.361492

$$$$
PCCDB-ID:  3174
     RDKit          3D

 16 15  0  0  0  0  0  0  0  0999 V2000
    1.1445   -0.0231    0.0422 C   0  0  0  0  0  0  0  0  0  0  0  0
    3.3896    0.7288    0.7665 C   0  0  0  0  0  0  0  0  0  0  0  0
    3.6487    0.4995    2.2667 C   0  0  0  0  0  0  0  0  0  0  0  0
    3.1162   -1.2220   -0.7726 C   0  0  0  0  0  0  0  0  0  0  0  0
    2.5867   -0.3127    0.1130 N   0  0  0  0  0  0  0  0  0  0  0  0
    4.1970    1.3287    2.9449 O   0  0  0  0  0  0  0  0  0  0  0  0
    3.2404   -0.6877    2.7592 O   0  0  0  0  0  0  0  0  0  0  0  0
    2.2631   -1.9685   -1.9814 S   0  0  0  0  0  0  0  0  0  0  0  0
    4.8412   -1.6714   -0.6269 S   0  0  0  0  0  0  0  0  0  0  0  0
    0.8569    0.4946    0.9608 H   0  0  0  0  0  0  0  0  0  0  0  0
    0.5842   -0.9538   -0.0458 H   0  0  0  0  0  0  0  0  0  0  0  0
    0.9099    0.6032   -0.8261 H   0  0  0  0  0  0  0  0  0  0  0  0
    4.3541    0.8436    0.2670 H   0  0  0  0  0  0  0  0  0  0  0  0
    2.8764    1.6901    0.6695 H   0  0  0  0  0  0  0  0  0  0  0  0
    2.8077   -1.1888    2.0406 H   0  0  0  0  0  0  0  0  0  0  0  0
    5.1181   -1.2247    0.6219 H   0  0  0  0  0  0  0  0  0  0  0  0
  1  5  1  0
  1 10  1  0
  2  3  1  0
  3  7  1  0
  3  6  2  0
  4  9  1  0
  4  5  1  0
  5  2  1  0
  8  4  2  0
  9 16  1  0
 11  1  1  0
 12  1  1  0
 13  2  1  0
 14  2  1  0
 15  7  1  0
M  END
>  <HBA>  (596) 
5

>  <HBD>  (596) 
2

>  <TPSA>  (596) 
111.43

>  <cid>  (596) 
3174

>  <dipole>  (596) 
1.99

>  <excitation_energy_1>  (596) 
3.273

>  <excitation_energy_2>  (596) 
4.696

>  <excitation_energy_3>  (596) 
4.952

>  <excitation_energy_4>  (596) 
5.13

>  <homo_energy>  (596) 
-6.387

>  <homo_lumo_gap>  (596) 
4.626

>  <logP>  (596) 
0.217

>  <lumo_energy>  (596) 
-1.761

>  <melting_point>  (596) 
105.18

>  <molecular_refractivity>  (596) 
41.73

>  <oscillator_strength_1>  (596) 
0.0009

>  <oscillator_strength_2>  (596) 
0.1087

>  <oscillator_strength_3>  (596) 
0.0275

>  <oscillator_strength_4>  (596) 
0.0004

>  <open_babel_can_smiles>  (596) 
OC(=O)CN(C(=S)S)C

>  <mulliken_charges>  (596) 
16
1   -0.326163
2   -0.293011
3   0.591245
4   -0.046492
5   -0.377565
6   -0.427911
7   -0.556626
8   -0.158716
9   0.074885
10   0.168507
11   0.209164
12   0.195594
13   0.220711
14   0.214794
15   0.428868
16   0.082714

>  <lowdin_charges>  (596) 
16
1   -0.354536
2   -0.249304
3   0.176494
4   -0.168831
5   -0.110986
6   -0.230757
7   -0.344528
8   -0.141848
9   0.05108
10   0.161519
11   0.184434
12   0.172205
13   0.193158
14   0.190115
15   0.363898
16   0.107886

$$$$
PCCDB-ID:  3200
     RDKit          3D

 24 25  0  0  1  0  0  0  0  0999 V2000
    0.9248   -0.2196    0.0501 C   0  0  0  0  0  0  0  0  0  0  0  0
    6.4635    2.5119   -3.5011 C   0  0  0  0  0  0  0  0  0  0  0  0
    5.0759    2.5921   -3.3845 C   0  0  0  0  0  0  0  0  0  0  0  0
    7.2041    1.8791   -2.4997 C   0  0  0  0  0  0  0  0  0  0  0  0
    4.4286    2.0416   -2.2761 C   0  0  0  0  0  0  0  0  0  0  0  0
    6.5615    1.3330   -1.3895 C   0  0  0  0  0  0  0  0  0  0  0  0
    3.3026   -1.3574    0.0560 C   0  0  0  0  0  0  0  0  0  0  0  0
    2.4201   -0.1275    0.0186 C   0  0  0  0  0  0  0  0  0  0  0  0
    5.1667    1.4093   -1.2706 C   0  0  0  0  0  0  0  0  0  0  0  0
    4.6984   -0.7336    0.0524 C   0  0  0  0  0  0  0  0  0  0  0  0
    4.4820    0.7977   -0.0537 C   0  0  2  0  0  0  0  0  0  0  0  0
    3.0303    0.9986   -0.0348 N   0  0  0  0  0  0  0  0  0  0  0  0
    5.7566   -1.3100    0.1426 O   0  0  0  0  0  0  0  0  0  0  0  0
    0.5854   -0.7182    0.9673 H   0  0  0  0  0  0  0  0  0  0  0  0
    0.5549   -0.8186   -0.7920 H   0  0  0  0  0  0  0  0  0  0  0  0
    0.4851    0.7793    0.0021 H   0  0  0  0  0  0  0  0  0  0  0  0
    6.9660    2.9409   -4.3640 H   0  0  0  0  0  0  0  0  0  0  0  0
    4.4915    3.0857   -4.1569 H   0  0  0  0  0  0  0  0  0  0  0  0
    8.2857    1.8109   -2.5817 H   0  0  0  0  0  0  0  0  0  0  0  0
    3.3507    2.1127   -2.1768 H   0  0  0  0  0  0  0  0  0  0  0  0
    7.1384    0.8295   -0.6197 H   0  0  0  0  0  0  0  0  0  0  0  0
    3.1593   -2.0170   -0.8106 H   0  0  0  0  0  0  0  0  0  0  0  0
    3.1504   -1.9768    0.9494 H   0  0  0  0  0  0  0  0  0  0  0  0
    4.9095    1.2569    0.8504 H   0  0  0  0  0  0  0  0  0  0  0  0
  1 14  1  0
  2  3  2  0
  2  4  1  0
  3  5  1  0
  4  6  2  0
  5 20  1  0
  5  9  2  0
  6  9  1  0
  6 21  1  0
  7 23  1  0
  8  1  1  0
  8  7  1  0
  9 11  1  0
 10  7  1  0
 10 13  2  0
 11 12  1  0
 11 10  1  0
 11 24  1  1
 12  8  2  0
 15  1  1  0
 16  1  1  0
 17  2  1  0
 18  3  1  0
 19  4  1  0
 22  7  1  0
M  END
>  <HBA>  (597) 
2

>  <HBD>  (597) 
0

>  <TPSA>  (597) 
29.43

>  <cid>  (597) 
3200

>  <dipole>  (597) 
2.48

>  <excitation_energy_1>  (597) 
3.876

>  <excitation_energy_2>  (597) 
4.83

>  <excitation_energy_3>  (597) 
4.86

>  <excitation_energy_4>  (597) 
4.903

>  <homo_energy>  (597) 
-6.237

>  <homo_lumo_gap>  (597) 
5.347

>  <logP>  (597) 
1.597

>  <lumo_energy>  (597) 
-0.89

>  <melting_point>  (597) 
66.33

>  <molecular_refractivity>  (597) 
55.73

>  <oscillator_strength_1>  (597) 
0.0048

>  <oscillator_strength_2>  (597) 
0.0115

>  <oscillator_strength_3>  (597) 
0.006

>  <oscillator_strength_4>  (597) 
0.0056

>  <open_babel_can_smiles>  (597) 
O=C1CC(=N[C@@H]1c1ccccc1)C

>  <mulliken_charges>  (597) 
24
1   -0.515308
2   -0.125344
3   -0.133801
4   -0.135318
5   -0.173326
6   -0.165339
7   -0.42833
8   0.330096
9   0.137461
10   0.443349
11   -0.148165
12   -0.414421
13   -0.437751
14   0.165611
15   0.165094
16   0.183505
17   0.127214
18   0.127714
19   0.13016
20   0.145966
21   0.146567
22   0.196085
23   0.192532
24   0.185748

>  <lowdin_charges>  (597) 
24
1   -0.450129
2   -0.159718
3   -0.157651
4   -0.152371
5   -0.163172
6   -0.162409
7   -0.335037
8   0.062097
9   -0.010135
10   0.161464
11   -0.104159
12   -0.175073
13   -0.212215
14   0.166703
15   0.166837
16   0.174394
17   0.157425
18   0.157906
19   0.155877
20   0.16502
21   0.16787
22   0.185997
23   0.184076
24   0.176404

$$$$
PCCDB-ID:  3221
     RDKit          3D

 34 35  0  0  0  0  0  0  0  0999 V2000
    2.0133   -0.6750   -1.8666 C   0  0  0  0  0  0  0  0  0  0  0  0
    8.5903    0.0362   -1.3109 C   0  0  0  0  0  0  0  0  0  0  0  0
    3.2784   -0.4334   -1.0652 C   0  0  0  0  0  0  0  0  0  0  0  0
    2.9018    2.9450    0.2240 C   0  0  0  0  0  0  0  0  0  0  0  0
    4.3340    4.7273   -0.6064 C   0  0  0  0  0  0  0  0  0  0  0  0
    2.2426    3.9801    1.1368 C   0  0  0  0  0  0  0  0  0  0  0  0
    3.6063    5.6977    0.3220 C   0  0  0  0  0  0  0  0  0  0  0  0
    6.6253    2.7961   -0.1663 C   0  0  0  0  0  0  0  0  0  0  0  0
    5.2564    2.4507   -0.4403 C   0  0  0  0  0  0  0  0  0  0  0  0
    5.0360    1.2208   -1.0355 C   0  0  0  0  0  0  0  0  0  0  0  0
    6.1638    0.3482   -1.3583 C   0  0  0  0  0  0  0  0  0  0  0  0
    7.6577    2.0464   -0.4275 N   0  0  0  0  0  0  0  0  0  0  0  0
    7.4188    0.8502   -0.9942 N   0  0  0  0  0  0  0  0  0  0  0  0
    4.2771    3.3701   -0.0458 N   0  0  0  0  0  0  0  0  0  0  0  0
    6.0823   -0.7424   -1.9314 O   0  0  0  0  0  0  0  0  0  0  0  0
    2.2707    5.2788    0.5588 O   0  0  0  0  0  0  0  0  0  0  0  0
    3.7938    0.8626   -1.4577 O   0  0  0  0  0  0  0  0  0  0  0  0
    1.5757   -1.6403   -1.5891 H   0  0  0  0  0  0  0  0  0  0  0  0
    2.2389   -0.6926   -2.9373 H   0  0  0  0  0  0  0  0  0  0  0  0
    1.2699    0.1078   -1.6819 H   0  0  0  0  0  0  0  0  0  0  0  0
    8.4736   -0.9625   -0.8834 H   0  0  0  0  0  0  0  0  0  0  0  0
    9.4570    0.5416   -0.8871 H   0  0  0  0  0  0  0  0  0  0  0  0
    8.7001   -0.0680   -2.3945 H   0  0  0  0  0  0  0  0  0  0  0  0
    4.0327   -1.1952   -1.2651 H   0  0  0  0  0  0  0  0  0  0  0  0
    3.0662   -0.4089    0.0138 H   0  0  0  0  0  0  0  0  0  0  0  0
    2.3152    2.8405   -0.6995 H   0  0  0  0  0  0  0  0  0  0  0  0
    2.9202    1.9745    0.7273 H   0  0  0  0  0  0  0  0  0  0  0  0
    5.3760    5.0361   -0.7266 H   0  0  0  0  0  0  0  0  0  0  0  0
    3.8604    4.7513   -1.6029 H   0  0  0  0  0  0  0  0  0  0  0  0
    2.7515    3.9900    2.1149 H   0  0  0  0  0  0  0  0  0  0  0  0
    1.1875    3.7338    1.2903 H   0  0  0  0  0  0  0  0  0  0  0  0
    3.5455    6.6910   -0.1331 H   0  0  0  0  0  0  0  0  0  0  0  0
    4.1551    5.7761    1.2754 H   0  0  0  0  0  0  0  0  0  0  0  0
    6.8512    3.7343    0.3309 H   0  0  0  0  0  0  0  0  0  0  0  0
  1 20  1  0
  1 18  1  0
  1  3  1  0
  2 13  1  0
  2 22  1  0
  2 21  1  0
  3 25  1  0
  4 27  1  0
  4  6  1  0
  5 14  1  0
  5  7  1  0
  6 31  1  0
  6 30  1  0
  7 16  1  0
  7 33  1  0
  8 34  1  0
  9  8  1  0
  9 14  1  0
 10  9  2  0
 11 10  1  0
 11 13  1  0
 12  8  2  0
 13 12  1  0
 14  4  1  0
 15 11  2  0
 16  6  1  0
 17  3  1  0
 17 10  1  0
 19  1  1  0
 23  2  1  0
 24  3  1  0
 26  4  1  0
 28  5  1  0
 29  5  1  0
 32  7  1  0
M  END
>  <HBA>  (598) 
6

>  <HBD>  (598) 
0

>  <TPSA>  (598) 
56.59

>  <cid>  (598) 
3221

>  <dipole>  (598) 
1.93

>  <excitation_energy_1>  (598) 
4.104

>  <excitation_energy_2>  (598) 
4.395

>  <excitation_energy_3>  (598) 
4.542

>  <excitation_energy_4>  (598) 
5.089

>  <homo_energy>  (598) 
-5.695

>  <homo_lumo_gap>  (598) 
4.612

>  <logP>  (598) 
0.081

>  <lumo_energy>  (598) 
-1.083

>  <melting_point>  (598) 
84.52

>  <molecular_refractivity>  (598) 
66.78

>  <oscillator_strength_1>  (598) 
0.0965

>  <oscillator_strength_2>  (598) 
0.007

>  <oscillator_strength_3>  (598) 
0.0862

>  <oscillator_strength_4>  (598) 
0.2372

>  <open_babel_can_smiles>  (598) 
CCOc1c(cnn(c1=O)C)N1CCOCC1

>  <mulliken_charges>  (598) 
34
1   -0.458806
2   -0.299115
3   -0.04615
4   -0.128125
5   -0.152252
6   -0.037922
7   -0.028847
8   -0.009805
9   0.300358
10   0.25492
11   0.590564
12   -0.252845
13   -0.313358
14   -0.520946
15   -0.558125
16   -0.465716
17   -0.529841
18   0.148949
19   0.168777
20   0.152019
21   0.182285
22   0.178443
23   0.180665
24   0.1954
25   0.122583
26   0.157767
27   0.150894
28   0.153422
29   0.15055
30   0.128307
31   0.149531
32   0.150663
33   0.128468
34   0.157289

>  <lowdin_charges>  (598) 
34
1   -0.446758
2   -0.34484
3   -0.126113
4   -0.209534
5   -0.204852
6   -0.136758
7   -0.137678
8   -0.145325
9   0.0182
10   0.03378
11   0.120678
12   -0.090117
13   0.004451
14   -0.137392
15   -0.331972
16   -0.271446
17   -0.207744
18   0.157673
19   0.160825
20   0.153252
21   0.169395
22   0.172164
23   0.165641
24   0.170169
25   0.12573
26   0.146391
27   0.158038
28   0.156964
29   0.139966
30   0.130872
31   0.15267
32   0.153856
33   0.131475
34   0.168336

$$$$
PCCDB-ID:  3242
     RDKit          3D

 31 32  0  0  0  0  0  0  0  0999 V2000
    0.5182   -0.9911   -0.6642 C   0  0  0  0  0  0  0  0  0  0  0  0
    8.4560   -3.3715   -0.2013 C   0  0  0  0  0  0  0  0  0  0  0  0
    5.5060    2.3189    0.7051 C   0  0  0  0  0  0  0  0  0  0  0  0
    3.5075   -5.6507    0.4907 C   0  0  0  0  0  0  0  0  0  0  0  0
    2.3359    0.6801   -0.1017 C   0  0  0  0  0  0  0  0  0  0  0  0
    6.0424   -4.3577    0.0852 C   0  0  0  0  0  0  0  0  0  0  0  0
    1.9437   -0.6269   -0.3473 C   0  0  0  0  0  0  0  0  0  0  0  0
    6.9656   -3.2860   -0.0789 C   0  0  0  0  0  0  0  0  0  0  0  0
    3.6992    0.8762    0.1812 C   0  0  0  0  0  0  0  0  0  0  0  0
    4.8072   -3.7490    0.1292 C   0  0  0  0  0  0  0  0  0  0  0  0
    4.0805   -1.3339   -0.0344 C   0  0  0  0  0  0  0  0  0  0  0  0
    2.8262   -1.6502   -0.3280 N   0  0  0  0  0  0  0  0  0  0  0  0
    4.5751   -0.1182    0.2318 N   0  0  0  0  0  0  0  0  0  0  0  0
    6.3625   -2.1114   -0.1276 N   0  0  0  0  0  0  0  0  0  0  0  0
    5.0170   -2.3892   -0.0032 N   0  0  0  0  0  0  0  0  0  0  0  0
    4.1114    2.1317    0.4176 O   0  0  0  0  0  0  0  0  0  0  0  0
    3.5723   -4.2394    0.3074 O   0  0  0  0  0  0  0  0  0  0  0  0
   -0.1342   -0.1134   -0.6688 H   0  0  0  0  0  0  0  0  0  0  0  0
    0.1417   -1.7095    0.0726 H   0  0  0  0  0  0  0  0  0  0  0  0
    0.4637   -1.4798   -1.6433 H   0  0  0  0  0  0  0  0  0  0  0  0
    8.7515   -3.9736   -1.0693 H   0  0  0  0  0  0  0  0  0  0  0  0
    8.9032   -3.8372    0.6856 H   0  0  0  0  0  0  0  0  0  0  0  0
    8.8753   -2.3686   -0.3154 H   0  0  0  0  0  0  0  0  0  0  0  0
    5.6219    3.3935    0.8536 H   0  0  0  0  0  0  0  0  0  0  0  0
    6.1247    1.9737   -0.1272 H   0  0  0  0  0  0  0  0  0  0  0  0
    5.7944    1.7716    1.6063 H   0  0  0  0  0  0  0  0  0  0  0  0
    2.4511   -5.8857    0.6266 H   0  0  0  0  0  0  0  0  0  0  0  0
    4.0748   -5.9589    1.3779 H   0  0  0  0  0  0  0  0  0  0  0  0
    3.8941   -6.1784   -0.3899 H   0  0  0  0  0  0  0  0  0  0  0  0
    1.6469    1.5157   -0.1241 H   0  0  0  0  0  0  0  0  0  0  0  0
    6.2582   -5.4119    0.1701 H   0  0  0  0  0  0  0  0  0  0  0  0
  1  7  1  0
  1 19  1  0
  2  8  1  0
  2 22  1  0
  3 24  1  0
  3 26  1  0
  4 27  1  0
  4 28  1  0
  5  9  2  0
  6 10  2  0
  6 31  1  0
  7 12  2  0
  7  5  1  0
  8  6  1  0
  9 13  1  0
  9 16  1  0
 10 17  1  0
 11 15  1  0
 11 13  2  0
 12 11  1  0
 14  8  2  0
 14 15  1  0
 15 10  1  0
 16  3  1  0
 17  4  1  0
 18  1  1  0
 20  1  1  0
 21  2  1  0
 23  2  1  0
 25  3  1  0
 29  4  1  0
 30  5  1  0
M  END
>  <HBA>  (599) 
6

>  <HBD>  (599) 
0

>  <TPSA>  (599) 
62.06

>  <cid>  (599) 
3242

>  <dipole>  (599) 
1.95

>  <excitation_energy_1>  (599) 
4.514

>  <excitation_energy_2>  (599) 
4.774

>  <excitation_energy_3>  (599) 
4.805

>  <excitation_energy_4>  (599) 
4.935

>  <homo_energy>  (599) 
-5.782

>  <homo_lumo_gap>  (599) 
5.203

>  <logP>  (599) 
1.296

>  <lumo_energy>  (599) 
-0.58

>  <melting_point>  (599) 
106.14

>  <molecular_refractivity>  (599) 
62.07

>  <oscillator_strength_1>  (599) 
0.0595

>  <oscillator_strength_2>  (599) 
0.0011

>  <oscillator_strength_3>  (599) 
0.0203

>  <oscillator_strength_4>  (599) 
0.2346

>  <open_babel_can_smiles>  (599) 
COc1cc(C)nc(n1)n1nc(cc1OC)C

>  <mulliken_charges>  (599) 
31
1   -0.509152
2   -0.524845
3   -0.21184
4   -0.217952
5   -0.2387
6   -0.336638
7   0.328688
8   0.347789
9   0.586784
10   0.623203
11   0.646134
12   -0.503316
13   -0.521533
14   -0.334931
15   -0.44031
16   -0.496735
17   -0.47106
18   0.153253
19   0.175903
20   0.176874
21   0.158738
22   0.157842
23   0.174777
24   0.160168
25   0.178169
26   0.172724
27   0.175077
28   0.156962
29   0.158738
30   0.144948
31   0.130239

>  <lowdin_charges>  (599) 
31
1   -0.443597
2   -0.443458
3   -0.273449
4   -0.269319
5   -0.241669
6   -0.297335
7   0.086765
8   0.025601
9   0.159194
10   0.128295
11   0.137293
12   -0.189804
13   -0.18603
14   -0.15517
15   0.027866
16   -0.181631
17   -0.163521
18   0.156942
19   0.173229
20   0.172389
21   0.160681
22   0.160386
23   0.170174
24   0.155966
25   0.164309
26   0.161006
27   0.164516
28   0.149787
29   0.150904
30   0.17458
31   0.165103

$$$$
PCCDB-ID:  3248
     RDKit          3D

 24 24  0  0  0  0  0  0  0  0999 V2000
    4.1376   -0.7180    1.3709 C   0  0  0  0  0  0  0  0  0  0  0  0
    0.7251   -3.1467   -0.9573 C   0  0  0  0  0  0  0  0  0  0  0  0
   -1.3556   -6.6363   -2.3060 C   0  0  0  0  0  0  0  0  0  0  0  0
   -1.7756   -5.3641   -2.6897 C   0  0  0  0  0  0  0  0  0  0  0  0
    1.8228   -3.0819   -0.1799 C   0  0  0  0  0  0  0  0  0  0  0  0
    0.4364   -5.6458   -1.0310 C   0  0  0  0  0  0  0  0  0  0  0  0
    0.0324   -4.3536   -1.4046 C   0  0  0  0  0  0  0  0  0  0  0  0
   -0.2426   -6.7786   -1.4709 C   0  0  0  0  0  0  0  0  0  0  0  0
   -1.0962   -4.2275   -2.2492 C   0  0  0  0  0  0  0  0  0  0  0  0
    2.3965   -1.7724    0.1834 C   0  0  0  0  0  0  0  0  0  0  0  0
    0.2244   -7.9986   -1.0535 O   0  0  0  0  0  0  0  0  0  0  0  0
   -1.4855   -2.9653   -2.6103 O   0  0  0  0  0  0  0  0  0  0  0  0
    1.9719   -0.6810   -0.1475 O   0  0  0  0  0  0  0  0  0  0  0  0
    3.4995   -1.9342    0.9614 O   0  0  0  0  0  0  0  0  0  0  0  0
    4.9798   -1.0227    1.9937 H   0  0  0  0  0  0  0  0  0  0  0  0
    3.4462   -0.0908    1.9406 H   0  0  0  0  0  0  0  0  0  0  0  0
    4.4887   -0.1540    0.5019 H   0  0  0  0  0  0  0  0  0  0  0  0
    0.3056   -2.2020   -1.2912 H   0  0  0  0  0  0  0  0  0  0  0  0
   -1.8965   -7.5129   -2.6570 H   0  0  0  0  0  0  0  0  0  0  0  0
   -2.6415   -5.2568   -3.3401 H   0  0  0  0  0  0  0  0  0  0  0  0
    2.3322   -3.9578    0.2089 H   0  0  0  0  0  0  0  0  0  0  0  0
    1.2953   -5.7854   -0.3837 H   0  0  0  0  0  0  0  0  0  0  0  0
   -0.3350   -8.6960   -1.4280 H   0  0  0  0  0  0  0  0  0  0  0  0
   -2.2681   -3.0264   -3.1786 H   0  0  0  0  0  0  0  0  0  0  0  0
  1 16  1  0
  1 15  1  0
  2  5  2  0
  3  8  2  0
  4  3  1  0
  4  9  2  0
  5 10  1  0
  5 21  1  0
  6 22  1  0
  7  6  2  0
  7  2  1  0
  8 11  1  0
  8  6  1  0
  9  7  1  0
 10 14  1  0
 12  9  1  0
 13 10  2  0
 14  1  1  0
 17  1  1  0
 18  2  1  0
 19  3  1  0
 20  4  1  0
 23 11  1  0
 24 12  1  0
M  END
>  <HBA>  (600) 
4

>  <HBD>  (600) 
2

>  <TPSA>  (600) 
66.76

>  <cid>  (600) 
3248

>  <dipole>  (600) 
4.13

>  <excitation_energy_1>  (600) 
3.518

>  <excitation_energy_2>  (600) 
4.379

>  <excitation_energy_3>  (600) 
4.428

>  <excitation_energy_4>  (600) 
4.823

>  <homo_energy>  (600) 
-5.657

>  <homo_lumo_gap>  (600) 
4.022

>  <logP>  (600) 
1.284

>  <lumo_energy>  (600) 
-1.635

>  <melting_point>  (600) 
119.9

>  <molecular_refractivity>  (600) 
51.48

>  <oscillator_strength_1>  (600) 
0.1844

>  <oscillator_strength_2>  (600) 
0.0036

>  <oscillator_strength_3>  (600) 
0.4811

>  <oscillator_strength_4>  (600) 
0.0002

>  <open_babel_can_smiles>  (600) 
COC(=O)/C=C/c1cc(O)ccc1O

>  <mulliken_charges>  (600) 
24
1   -0.214021
2   -0.141286
3   -0.195741
4   -0.193451
5   -0.204462
6   -0.233765
7   0.124801
8   0.360034
9   0.288341
10   0.619939
11   -0.648405
12   -0.641332
13   -0.501614
14   -0.472117
15   0.159578
16   0.168073
17   0.167165
18   0.19073
19   0.126612
20   0.125618
21   0.148877
22   0.147808
23   0.407006
24   0.411612

>  <lowdin_charges>  (600) 
24
1   -0.282319
2   -0.099869
3   -0.194414
4   -0.200101
5   -0.20625
6   -0.165942
7   -0.026748
8   0.089117
9   0.0925
10   0.193911
11   -0.385603
12   -0.375887
13   -0.27961
14   -0.198708
15   0.158336
16   0.159667
17   0.158489
18   0.188366
19   0.15851
20   0.157341
21   0.166555
22   0.172202
23   0.359099
24   0.361356

$$$$
PCCDB-ID:  3276
     RDKit          3D

 25 25  0  0  0  0  0  0  0  0999 V2000
   -2.7803   -0.2109   -2.9931 C   0  0  0  0  0  0  0  0  0  0  0  0
    2.0975   -2.7452   -2.4894 C   0  0  0  0  0  0  0  0  0  0  0  0
   -1.4560   -0.5852   -2.8587 C   0  0  0  0  0  0  0  0  0  0  0  0
    3.3641   -3.6092   -2.4137 C   0  0  0  0  0  0  0  0  0  0  0  0
    0.0935   -1.0771   -0.9490 C   0  0  0  0  0  0  0  0  0  0  0  0
    0.3055   -2.5939   -0.8811 C   0  0  0  0  0  0  0  0  0  0  0  0
   -2.4273   -0.4343   -0.9162 C   0  0  0  0  0  0  0  0  0  0  0  0
    1.1474   -3.2795   -1.5321 N   0  0  0  0  0  0  0  0  0  0  0  0
   -3.3721   -0.1133   -1.7743 N   0  0  0  0  0  0  0  0  0  0  0  0
   -1.2224   -0.7313   -1.5163 N   0  0  0  0  0  0  0  0  0  0  0  0
   -2.6506   -0.4743    0.5004 N   0  0  0  0  0  0  0  0  0  0  0  0
    3.0547   -4.9711   -2.6136 O   0  0  0  0  0  0  0  0  0  0  0  0
   -0.5293   -3.2376   -0.0394 O   0  0  0  0  0  0  0  0  0  0  0  0
   -1.8070   -1.0810    1.2020 O   0  0  0  0  0  0  0  0  0  0  0  0
   -3.6392    0.0801    0.9461 O   0  0  0  0  0  0  0  0  0  0  0  0
   -3.3262   -0.0108   -3.9045 H   0  0  0  0  0  0  0  0  0  0  0  0
    1.6761   -2.8494   -3.4995 H   0  0  0  0  0  0  0  0  0  0  0  0
    2.3653   -1.6859   -2.3410 H   0  0  0  0  0  0  0  0  0  0  0  0
   -0.6729   -0.7521   -3.5838 H   0  0  0  0  0  0  0  0  0  0  0  0
    3.8531   -3.4411   -1.4389 H   0  0  0  0  0  0  0  0  0  0  0  0
    4.0684   -3.3140   -3.1992 H   0  0  0  0  0  0  0  0  0  0  0  0
    0.8436   -0.6081   -1.5841 H   0  0  0  0  0  0  0  0  0  0  0  0
    0.1610   -0.6412    0.0483 H   0  0  0  0  0  0  0  0  0  0  0  0
    2.2916   -5.1411   -2.0315 H   0  0  0  0  0  0  0  0  0  0  0  0
   -1.0451   -2.5879    0.4833 H   0  0  0  0  0  0  0  0  0  0  0  0
  1  3  2  0
  1  9  1  0
  2  4  1  0
  2 18  1  0
  2  8  1  0
  3 10  1  0
  4 20  1  0
  5  6  1  0
  5 23  1  0
  6 13  1  0
  7 11  1  0
  8  6  2  0
  9  7  2  0
 10  5  1  0
 10  7  1  0
 11 15  1  0
 11 14  2  0
 12  4  1  0
 12 24  1  0
 13 25  1  0
 16  1  1  0
 17  2  1  0
 19  3  1  0
 21  4  1  0
 22  5  1  0
M  CHG  2  11   1  15  -1
M  END
>  <HBA>  (601) 
5

>  <HBD>  (601) 
2

>  <TPSA>  (601) 
112.97

>  <cid>  (601) 
3276

>  <dipole>  (601) 
4.98

>  <excitation_energy_1>  (601) 
3.278

>  <excitation_energy_2>  (601) 
3.532

>  <excitation_energy_3>  (601) 
3.654

>  <excitation_energy_4>  (601) 
3.828

>  <homo_energy>  (601) 
-6.944

>  <homo_lumo_gap>  (601) 
3.712

>  <logP>  (601) 
-0.186

>  <lumo_energy>  (601) 
-3.233

>  <melting_point>  (601) 
125.98

>  <molecular_refractivity>  (601) 
50.9

>  <oscillator_strength_1>  (601) 
0.0062

>  <oscillator_strength_2>  (601) 
0.0201

>  <oscillator_strength_3>  (601) 
0.0266

>  <oscillator_strength_4>  (601) 
0.008

>  <open_babel_can_smiles>  (601) 
OCC/N=C(\Cn1ccnc1N(=O)=O)/O

>  <mulliken_charges>  (601) 
25
1   -0.015246
2   -0.17334
3   0.041699
4   -0.008959
5   -0.288286
6   0.515293
7   0.66132
8   -0.429773
9   -0.411878
10   -0.41579
11   0.37105
12   -0.623704
13   -0.595786
14   -0.449082
15   -0.336049
16   0.170464
17   0.156518
18   0.116022
19   0.189042
20   0.121629
21   0.138647
22   0.190746
23   0.221567
24   0.408433
25   0.44546

>  <lowdin_charges>  (601) 
25
1   -0.12506
2   -0.221815
3   -0.127322
4   -0.135492
5   -0.230335
6   0.122827
7   0.040056
8   -0.20466
9   -0.125552
10   0.013236
11   0.314078
12   -0.468744
13   -0.362281
14   -0.295915
15   -0.177296
16   0.179843
17   0.150222
18   0.124275
19   0.186836
20   0.126006
21   0.146127
22   0.177431
23   0.190285
24   0.346011
25   0.357238

$$$$
PCCDB-ID:  3279
     RDKit          3D

 38 37  0  0  1  0  0  0  0  0999 V2000
    0.1579    1.4848   -0.2969 C   0  0  0  0  0  0  0  0  0  0  0  0
    7.1691    6.7057   -1.3433 C   0  0  0  0  0  0  0  0  0  0  0  0
    1.6377    1.8232   -0.5216 C   0  0  0  0  0  0  0  0  0  0  0  0
    7.7929    6.2898   -0.0093 C   0  0  0  0  0  0  0  0  0  0  0  0
    4.3512    2.8619    0.3581 C   0  0  0  0  0  0  0  0  0  0  0  0
    5.8664    3.0510    0.2659 C   0  0  0  0  0  0  0  0  0  0  0  0
    2.4733   -0.4218    0.3051 C   0  0  0  0  0  0  0  0  0  0  0  0
    8.4602    4.3766    1.5347 C   0  0  0  0  0  0  0  0  0  0  0  0
    2.6011    1.1066    0.4389 C   0  0  1  0  0  0  0  0  0  0  0  0
    7.6361    4.7875    0.2978 C   0  0  1  0  0  0  0  0  0  0  0  0
    4.0019    1.4546    0.1664 N   0  0  0  0  0  0  0  0  0  0  0  0
    6.2113    4.4602    0.4338 N   0  0  0  0  0  0  0  0  0  0  0  0
    3.5002   -1.1262    1.0057 O   0  0  0  0  0  0  0  0  0  0  0  0
    7.9782    4.9893    2.7320 O   0  0  0  0  0  0  0  0  0  0  0  0
   -0.4807    2.1090   -0.9316 H   0  0  0  0  0  0  0  0  0  0  0  0
   -0.1354    1.6637    0.7450 H   0  0  0  0  0  0  0  0  0  0  0  0
   -0.0719    0.4398   -0.5322 H   0  0  0  0  0  0  0  0  0  0  0  0
    7.2443    7.7881   -1.4973 H   0  0  0  0  0  0  0  0  0  0  0  0
    6.1140    6.4199   -1.3694 H   0  0  0  0  0  0  0  0  0  0  0  0
    7.6738    6.2132   -2.1839 H   0  0  0  0  0  0  0  0  0  0  0  0
    1.7648    2.9067   -0.4128 H   0  0  0  0  0  0  0  0  0  0  0  0
    1.9318    1.5806   -1.5519 H   0  0  0  0  0  0  0  0  0  0  0  0
    7.3267    6.8674    0.8028 H   0  0  0  0  0  0  0  0  0  0  0  0
    8.8627    6.5454   -0.0015 H   0  0  0  0  0  0  0  0  0  0  0  0
    3.8850    3.4709   -0.4221 H   0  0  0  0  0  0  0  0  0  0  0  0
    3.9909    3.2578    1.3297 H   0  0  0  0  0  0  0  0  0  0  0  0
    6.2007    2.7269   -0.7270 H   0  0  0  0  0  0  0  0  0  0  0  0
    6.3580    2.3798    0.9988 H   0  0  0  0  0  0  0  0  0  0  0  0
    2.4770   -0.6941   -0.7609 H   0  0  0  0  0  0  0  0  0  0  0  0
    1.5268   -0.7588    0.7370 H   0  0  0  0  0  0  0  0  0  0  0  0
    9.5276    4.5987    1.3759 H   0  0  0  0  0  0  0  0  0  0  0  0
    8.3721    3.2995    1.7080 H   0  0  0  0  0  0  0  0  0  0  0  0
    2.3203    1.3836    1.4758 H   0  0  0  0  0  0  0  0  0  0  0  0
    8.0261    4.2212   -0.5611 H   0  0  0  0  0  0  0  0  0  0  0  0
    4.5516    0.9121    0.8326 H   0  0  0  0  0  0  0  0  0  0  0  0
    5.9221    4.7659    1.3640 H   0  0  0  0  0  0  0  0  0  0  0  0
    4.2649   -1.1694    0.4120 H   0  0  0  0  0  0  0  0  0  0  0  0
    8.2144    5.9288    2.6959 H   0  0  0  0  0  0  0  0  0  0  0  0
  1 16  1  0
  2  4  1  0
  3 21  1  0
  3  1  1  0
  3  9  1  0
  4 24  1  0
  4 10  1  0
  4 23  1  0
  5 26  1  0
  6  5  1  0
  6 12  1  0
  6 28  1  0
  7  9  1  0
  7 30  1  0
  7 13  1  0
  8 32  1  0
  8 14  1  0
  9 33  1  1
 10 34  1  6
 10 12  1  0
 10  8  1  0
 11  5  1  0
 11  9  1  0
 11 35  1  0
 12 36  1  0
 15  1  1  0
 17  1  1  0
 18  2  1  0
 19  2  1  0
 20  2  1  0
 22  3  1  0
 25  5  1  0
 27  6  1  0
 29  7  1  0
 31  8  1  0
 37 13  1  0
 38 14  1  0
M  END
>  <HBA>  (602) 
4

>  <HBD>  (602) 
4

>  <TPSA>  (602) 
64.52

>  <cid>  (602) 
3279

>  <dipole>  (602) 
1.95

>  <excitation_energy_1>  (602) 
5.247

>  <excitation_energy_2>  (602) 
5.411

>  <excitation_energy_3>  (602) 
5.538

>  <excitation_energy_4>  (602) 
5.709

>  <homo_energy>  (602) 
-5.823

>  <homo_lumo_gap>  (602) 
7.513

>  <logP>  (602) 
0.489

>  <lumo_energy>  (602) 
1.69

>  <melting_point>  (602) 
62.38

>  <molecular_refractivity>  (602) 
58.11

>  <oscillator_strength_1>  (602) 
0.0035

>  <oscillator_strength_2>  (602) 
0.0146

>  <oscillator_strength_3>  (602) 
0.0043

>  <oscillator_strength_4>  (602) 
0.0087

>  <open_babel_can_smiles>  (602) 
CC[C@H](NCCN[C@H](CO)CC)CO

>  <mulliken_charges>  (602) 
38
1   -0.45559
2   -0.440076
3   -0.264539
4   -0.262718
5   -0.118523
6   -0.129689
7   -0.049756
8   -0.056435
9   0.060779
10   0.032212
11   -0.598295
12   -0.560252
13   -0.62368
14   -0.619328
15   0.146624
16   0.146061
17   0.148299
18   0.136628
19   0.169836
20   0.136048
21   0.142455
22   0.139837
23   0.120678
24   0.123541
25   0.15635
26   0.107635
27   0.148764
28   0.107482
29   0.126735
30   0.147271
31   0.120583
32   0.149294
33   0.105161
34   0.121938
35   0.291272
36   0.300619
37   0.397019
38   0.395759

>  <lowdin_charges>  (602) 
38
1   -0.446334
2   -0.442401
3   -0.277
4   -0.281995
5   -0.206745
6   -0.206114
7   -0.141313
8   -0.148638
9   -0.077875
10   -0.084531
11   -0.376026
12   -0.356612
13   -0.467938
14   -0.468497
15   0.154224
16   0.14749
17   0.146762
18   0.145228
19   0.159692
20   0.145138
21   0.14532
22   0.143867
23   0.136017
24   0.135354
25   0.150144
26   0.115074
27   0.145849
28   0.113806
29   0.130394
30   0.148296
31   0.127281
32   0.145677
33   0.115025
34   0.141182
35   0.249201
36   0.25325
37   0.346296
38   0.341455

$$$$
PCCDB-ID:  3283
     RDKit          3D

 15 14  0  0  0  0  0  0  0  0999 V2000
    2.1255   -1.3348    0.3004 C   0  0  0  0  0  0  0  0  0  0  0  0
    5.3097    2.0630    1.2724 C   0  0  0  0  0  0  0  0  0  0  0  0
    3.2401   -0.5225   -0.3390 C   0  0  0  0  0  0  0  0  0  0  0  0
    4.8275    1.1632    0.1459 C   0  0  0  0  0  0  0  0  0  0  0  0
    3.7717    0.3564    0.6361 O   0  0  0  0  0  0  0  0  0  0  0  0
    1.6871   -2.0259   -0.4281 H   0  0  0  0  0  0  0  0  0  0  0  0
    1.3353   -0.6746    0.6727 H   0  0  0  0  0  0  0  0  0  0  0  0
    2.5108   -1.9166    1.1439 H   0  0  0  0  0  0  0  0  0  0  0  0
    6.1303    2.7026    0.9289 H   0  0  0  0  0  0  0  0  0  0  0  0
    5.6659    1.4631    2.1161 H   0  0  0  0  0  0  0  0  0  0  0  0
    4.4951    2.7028    1.6271 H   0  0  0  0  0  0  0  0  0  0  0  0
    2.8562    0.0517   -1.2004 H   0  0  0  0  0  0  0  0  0  0  0  0
    4.0324   -1.1881   -0.7242 H   0  0  0  0  0  0  0  0  0  0  0  0
    5.6524    0.5287   -0.2230 H   0  0  0  0  0  0  0  0  0  0  0  0
    4.4794    1.7674   -0.7103 H   0  0  0  0  0  0  0  0  0  0  0  0
  1  7  1  0
  1  8  1  0
  2 11  1  0
  2 10  1  0
  3  1  1  0
  3  5  1  0
  4  5  1  0
  4  2  1  0
  6  1  1  0
  9  2  1  0
 12  3  1  0
 13  3  1  0
 14  4  1  0
 15  4  1  0
M  END
>  <HBA>  (603) 
1

>  <HBD>  (603) 
0

>  <TPSA>  (603) 
9.23

>  <cid>  (603) 
3283

>  <dipole>  (603) 
1.03

>  <excitation_energy_1>  (603) 
6.532

>  <excitation_energy_2>  (603) 
6.956

>  <excitation_energy_3>  (603) 
7.028

>  <excitation_energy_4>  (603) 
7.232

>  <homo_energy>  (603) 
-6.751

>  <homo_lumo_gap>  (603) 
9.315

>  <logP>  (603) 
1.043

>  <lumo_energy>  (603) 
2.563

>  <melting_point>  (603) 
-34.18

>  <molecular_refractivity>  (603) 
22.43

>  <oscillator_strength_1>  (603) 
0.027

>  <oscillator_strength_2>  (603) 
0.0

>  <oscillator_strength_3>  (603) 
0.0169

>  <oscillator_strength_4>  (603) 
0.0373

>  <open_babel_can_smiles>  (603) 
CCOCC

>  <mulliken_charges>  (603) 
15
1   -0.452623
2   -0.452518
3   -0.000926
4   -0.001157
5   -0.467652
6   0.140983
7   0.157499
8   0.157374
9   0.140958
10   0.157431
11   0.157363
12   0.115843
13   0.115771
14   0.115876
15   0.115781

>  <lowdin_charges>  (603) 
15
1   -0.451455
2   -0.450927
3   -0.127462
4   -0.126725
5   -0.276866
6   0.15406
7   0.157469
8   0.157232
9   0.153713
10   0.157265
11   0.157359
12   0.123943
13   0.124423
14   0.124184
15   0.123787

$$$$
PCCDB-ID:  3284
     RDKit          3D

 25 25  0  0  0  0  0  0  0  0999 V2000
    0.9444    0.0689    0.0419 C   0  0  0  0  0  0  0  0  0  0  0  0
    2.1511    0.0626    0.0475 C   0  0  0  0  0  0  0  0  0  0  0  0
    4.2879   -0.4054    2.9654 C   0  0  0  0  0  0  0  0  0  0  0  0
    3.7537   -1.5478    2.0887 C   0  0  0  0  0  0  0  0  0  0  0  0
    3.7748    0.9568    2.4746 C   0  0  0  0  0  0  0  0  0  0  0  0
    4.1179   -1.3320    0.6105 C   0  0  0  0  0  0  0  0  0  0  0  0
    4.1385    1.1925    0.9989 C   0  0  0  0  0  0  0  0  0  0  0  0
    5.2686    0.3203   -1.7131 C   0  0  0  0  0  0  0  0  0  0  0  0
    3.6224    0.0429    0.1036 C   0  0  0  0  0  0  0  0  0  0  0  0
    6.3006    0.1866   -0.9753 N   0  0  0  0  0  0  0  0  0  0  0  0
    5.2162    0.5530   -3.0546 O   0  0  0  0  0  0  0  0  0  0  0  0
    3.9998    0.2562   -1.3014 O   0  0  0  0  0  0  0  0  0  0  0  0
   -0.1219    0.0784    0.0246 H   0  0  0  0  0  0  0  0  0  0  0  0
    5.3870   -0.4095    2.9300 H   0  0  0  0  0  0  0  0  0  0  0  0
    4.0054   -0.5649    4.0137 H   0  0  0  0  0  0  0  0  0  0  0  0
    2.6625   -1.6134    2.1928 H   0  0  0  0  0  0  0  0  0  0  0  0
    4.1615   -2.5102    2.4216 H   0  0  0  0  0  0  0  0  0  0  0  0
    4.1975    1.7666    3.0819 H   0  0  0  0  0  0  0  0  0  0  0  0
    2.6847    1.0053    2.5976 H   0  0  0  0  0  0  0  0  0  0  0  0
    3.6848   -2.1158   -0.0209 H   0  0  0  0  0  0  0  0  0  0  0  0
    5.2037   -1.3551    0.4870 H   0  0  0  0  0  0  0  0  0  0  0  0
    5.2250    1.2333    0.8850 H   0  0  0  0  0  0  0  0  0  0  0  0
    3.7199    2.1374    0.6354 H   0  0  0  0  0  0  0  0  0  0  0  0
    7.1659    0.2762   -1.5077 H   0  0  0  0  0  0  0  0  0  0  0  0
    6.1247    0.5961   -3.3906 H   0  0  0  0  0  0  0  0  0  0  0  0
  1  2  3  0
  2  9  1  0
  3 15  1  0
  4 16  1  0
  4 17  1  0
  4  3  1  0
  5 19  1  0
  5  3  1  0
  5 18  1  0
  6  4  1  0
  7  5  1  0
  8 12  1  0
  8 10  2  0
  9  6  1  0
  9  7  1  0
 11  8  1  0
 12  9  1  0
 13  1  1  0
 14  3  1  0
 20  6  1  0
 21  6  1  0
 22  7  1  0
 23  7  1  0
 24 10  1  0
 25 11  1  0
M  END
>  <HBA>  (604) 
3

>  <HBD>  (604) 
1

>  <TPSA>  (604) 
52.32

>  <cid>  (604) 
3284

>  <dipole>  (604) 
1.38

>  <excitation_energy_1>  (604) 
5.831

>  <excitation_energy_2>  (604) 
6.129

>  <excitation_energy_3>  (604) 
6.324

>  <excitation_energy_4>  (604) 
6.543

>  <homo_energy>  (604) 
-6.925

>  <homo_lumo_gap>  (604) 
7.695

>  <logP>  (604) 
2.118

>  <lumo_energy>  (604) 
0.77

>  <melting_point>  (604) 
99.42

>  <molecular_refractivity>  (604) 
45.84

>  <oscillator_strength_1>  (604) 
0.0022

>  <oscillator_strength_2>  (604) 
0.0006

>  <oscillator_strength_3>  (604) 
0.0623

>  <oscillator_strength_4>  (604) 
0.0006

>  <open_babel_can_smiles>  (604) 
C#CC1(CCCCC1)OC(=N)O

>  <mulliken_charges>  (604) 
25
1   -0.544502
2   0.385927
3   -0.257749
4   -0.270897
5   -0.27054
6   -0.293471
7   -0.294361
8   0.665329
9   0.214503
10   -0.632887
11   -0.567025
12   -0.494848
13   0.195394
14   0.136595
15   0.131012
16   0.143201
17   0.135349
18   0.135257
19   0.143241
20   0.145026
21   0.185023
22   0.184552
23   0.145227
24   0.274998
25   0.405646

>  <lowdin_charges>  (604) 
25
1   -0.240893
2   -0.031954
3   -0.274377
4   -0.276442
5   -0.277528
6   -0.287019
7   -0.286266
8   0.199768
9   0.153561
10   -0.476184
11   -0.363366
12   -0.17127
13   0.20536
14   0.139343
15   0.143218
16   0.143973
17   0.147464
18   0.148572
19   0.14402
20   0.155037
21   0.168632
22   0.168427
23   0.154071
24   0.256192
25   0.35766

$$$$
PCCDB-ID:  3291
     RDKit          3D

 21 21  0  0  1  0  0  0  0  0999 V2000
    1.0314   -0.1071    0.2996 C   0  0  0  0  0  0  0  0  0  0  0  0
    4.5083   -0.1196   -1.5409 C   0  0  0  0  0  0  0  0  0  0  0  0
    2.5415   -0.1574    0.0407 C   0  0  0  0  0  0  0  0  0  0  0  0
    2.5103    1.4002   -2.0398 C   0  0  0  0  0  0  0  0  0  0  0  0
    1.6938    0.9208   -3.2226 C   0  0  0  0  0  0  0  0  0  0  0  0
    2.2881   -0.9750   -2.3503 C   0  0  0  0  0  0  0  0  0  0  0  0
    2.9842    0.0662   -1.4237 C   0  0  1  0  0  0  0  0  0  0  0  0
    1.5664   -0.3458   -3.3966 N   0  0  0  0  0  0  0  0  0  0  0  0
    1.1193    1.7824   -4.0700 O   0  0  0  0  0  0  0  0  0  0  0  0
    2.3622   -2.1724   -2.1945 O   0  0  0  0  0  0  0  0  0  0  0  0
    0.8226   -0.2924    1.3587 H   0  0  0  0  0  0  0  0  0  0  0  0
    0.5040   -0.8724   -0.2798 H   0  0  0  0  0  0  0  0  0  0  0  0
    0.5933    0.8675    0.0514 H   0  0  0  0  0  0  0  0  0  0  0  0
    5.0370    0.5641   -0.8660 H   0  0  0  0  0  0  0  0  0  0  0  0
    4.8575    0.0702   -2.5628 H   0  0  0  0  0  0  0  0  0  0  0  0
    4.7795   -1.1468   -1.2795 H   0  0  0  0  0  0  0  0  0  0  0  0
    2.9158   -1.1436    0.3391 H   0  0  0  0  0  0  0  0  0  0  0  0
    3.0549    0.5798    0.6737 H   0  0  0  0  0  0  0  0  0  0  0  0
    1.8884    1.9988   -1.3622 H   0  0  0  0  0  0  0  0  0  0  0  0
    3.3374    2.0407   -2.3729 H   0  0  0  0  0  0  0  0  0  0  0  0
    1.3147    2.6917   -3.7897 H   0  0  0  0  0  0  0  0  0  0  0  0
  1 11  1  0
  2 16  1  0
  2 14  1  0
  3  1  1  0
  3 17  1  0
  3 18  1  0
  4  7  1  0
  4 19  1  0
  5  4  1  0
  6 10  2  0
  6  7  1  0
  7  2  1  1
  7  3  1  0
  8  5  2  0
  8  6  1  0
  9 21  1  0
  9  5  1  0
 12  1  1  0
 13  1  1  0
 15  2  1  0
 20  4  1  0
M  END
>  <HBA>  (605) 
3

>  <HBD>  (605) 
1

>  <TPSA>  (605) 
46.17

>  <cid>  (605) 
3291

>  <dipole>  (605) 
6.42

>  <excitation_energy_1>  (605) 
4.248

>  <excitation_energy_2>  (605) 
5.42

>  <excitation_energy_3>  (605) 
5.587

>  <excitation_energy_4>  (605) 
6.296

>  <homo_energy>  (605) 
-6.648

>  <homo_lumo_gap>  (605) 
5.733

>  <logP>  (605) 
0.778

>  <lumo_energy>  (605) 
-0.914

>  <melting_point>  (605) 
84.0

>  <molecular_refractivity>  (605) 
40.51

>  <oscillator_strength_1>  (605) 
0.0012

>  <oscillator_strength_2>  (605) 
0.0003

>  <oscillator_strength_3>  (605) 
0.0103

>  <oscillator_strength_4>  (605) 
0.0121

>  <open_babel_can_smiles>  (605) 
C[C@@]1(CC)CC(=NC1=O)O

>  <mulliken_charges>  (605) 
21
1   -0.469114
2   -0.461159
3   -0.259396
4   -0.413478
5   0.520353
6   0.555616
7   0.016229
8   -0.455546
9   -0.559349
10   -0.474841
11   0.154111
12   0.17509
13   0.134708
14   0.145882
15   0.147698
16   0.177577
17   0.164072
18   0.131242
19   0.177162
20   0.173199
21   0.419943

>  <lowdin_charges>  (605) 
21
1   -0.452281
2   -0.436188
3   -0.269157
4   -0.324983
5   0.14926
6   0.155998
7   -0.024212
8   -0.190009
9   -0.312722
10   -0.231802
11   0.156276
12   0.163545
13   0.140688
14   0.15177
15   0.150876
16   0.166773
17   0.160031
18   0.143037
19   0.169396
20   0.167417
21   0.366286

$$$$
PCCDB-ID:  3292
     RDKit          3D

 27 28  0  0  1  0  0  0  0  0999 V2000
    2.5237   -1.1728   -0.0474 C   0  0  0  0  0  0  0  0  0  0  0  0
    3.6127   -0.1515    0.2868 C   0  0  0  0  0  0  0  0  0  0  0  0
   -1.6704    4.4310    2.1493 C   0  0  0  0  0  0  0  0  0  0  0  0
   -1.3250    3.4635    3.0928 C   0  0  0  0  0  0  0  0  0  0  0  0
   -0.7155    4.8672    1.2277 C   0  0  0  0  0  0  0  0  0  0  0  0
   -0.0338    2.9317    3.1165 C   0  0  0  0  0  0  0  0  0  0  0  0
    0.5756    4.3414    1.2512 C   0  0  0  0  0  0  0  0  0  0  0  0
    0.9243    3.3666    2.1961 C   0  0  0  0  0  0  0  0  0  0  0  0
    2.3425    2.8093    2.2163 C   0  0  2  0  0  0  0  0  0  0  0  0
    2.7515    2.1550    0.8722 C   0  0  0  0  0  0  0  0  0  0  0  0
    3.0183    0.7628    2.6035 C   0  0  0  0  0  0  0  0  0  0  0  0
    2.5726    1.7803    3.2372 N   0  0  0  0  0  0  0  0  0  0  0  0
    3.1652    0.8727    1.2271 N   0  0  0  0  0  0  0  0  0  0  0  0
    2.7537    2.6157   -0.2504 O   0  0  0  0  0  0  0  0  0  0  0  0
    3.3756   -0.4085    3.1505 O   0  0  0  0  0  0  0  0  0  0  0  0
    2.9064   -1.9031   -0.7689 H   0  0  0  0  0  0  0  0  0  0  0  0
    1.6522   -0.6790   -0.4887 H   0  0  0  0  0  0  0  0  0  0  0  0
    2.2037   -1.7133    0.8490 H   0  0  0  0  0  0  0  0  0  0  0  0
    3.9228    0.3923   -0.6098 H   0  0  0  0  0  0  0  0  0  0  0  0
    4.4925   -0.6439    0.7119 H   0  0  0  0  0  0  0  0  0  0  0  0
   -2.6758    4.8435    2.1313 H   0  0  0  0  0  0  0  0  0  0  0  0
   -2.0612    3.1188    3.8146 H   0  0  0  0  0  0  0  0  0  0  0  0
   -0.9758    5.6188    0.4869 H   0  0  0  0  0  0  0  0  0  0  0  0
    0.2439    2.1839    3.8512 H   0  0  0  0  0  0  0  0  0  0  0  0
    1.3114    4.6705    0.5239 H   0  0  0  0  0  0  0  0  0  0  0  0
    3.0429    3.6405    2.3874 H   0  0  0  0  0  0  0  0  0  0  0  0
    3.2245   -0.3149    4.1086 H   0  0  0  0  0  0  0  0  0  0  0  0
  1  2  1  0
  1 18  1  0
  2 20  1  0
  2 13  1  0
  3  4  2  0
  4  6  1  0
  4 22  1  0
  5  7  2  0
  5  3  1  0
  6 24  1  0
  7  8  1  0
  8  9  1  0
  8  6  2  0
  9 26  1  1
  9 12  1  0
 10 13  1  0
 10  9  1  0
 11 15  1  0
 11 12  2  0
 13 11  1  0
 14 10  2  0
 15 27  1  0
 16  1  1  0
 17  1  1  0
 19  2  1  0
 21  3  1  0
 23  5  1  0
 25  7  1  0
M  END
>  <HBA>  (606) 
4

>  <HBD>  (606) 
1

>  <TPSA>  (606) 
49.41

>  <cid>  (606) 
3292

>  <dipole>  (606) 
2.81

>  <excitation_energy_1>  (606) 
4.974

>  <excitation_energy_2>  (606) 
5.249

>  <excitation_energy_3>  (606) 
5.434

>  <excitation_energy_4>  (606) 
5.542

>  <homo_energy>  (606) 
-6.368

>  <homo_lumo_gap>  (606) 
6.109

>  <logP>  (606) 
1.566

>  <lumo_energy>  (606) 
-0.259

>  <melting_point>  (606) 
110.0

>  <molecular_refractivity>  (606) 
62.84

>  <oscillator_strength_1>  (606) 
0.0182

>  <oscillator_strength_2>  (606) 
0.0015

>  <oscillator_strength_3>  (606) 
0.0152

>  <oscillator_strength_4>  (606) 
0.0078

>  <open_babel_can_smiles>  (606) 
CCN1C(=O)[C@H](N=C1O)c1ccccc1

>  <mulliken_charges>  (606) 
27
1   -0.449796
2   -0.150198
3   -0.12485
4   -0.134107
5   -0.136541
6   -0.167767
7   -0.165245
8   0.137887
9   -0.169497
10   0.598872
11   0.710501
12   -0.50155
13   -0.483788
14   -0.496136
15   -0.608704
16   0.154737
17   0.169496
18   0.164383
19   0.185584
20   0.169564
21   0.126225
22   0.126352
23   0.129532
24   0.143427
25   0.150073
26   0.192193
27   0.429355

>  <lowdin_charges>  (606) 
27
1   -0.452495
2   -0.192747
3   -0.158425
4   -0.158714
5   -0.1552
6   -0.163631
7   -0.161826
8   -0.009579
9   -0.082329
10   0.160968
11   0.158446
12   -0.271286
13   -0.082435
14   -0.265397
15   -0.343788
16   0.1601
17   0.16256
18   0.158978
19   0.17354
20   0.161573
21   0.155374
22   0.157071
23   0.158169
24   0.167103
25   0.169411
26   0.178702
27   0.375857

$$$$
PCCDB-ID:  3293
     RDKit          3D

 35 36  0  0  0  0  0  0  0  0999 V2000
    1.4383    2.2123   -0.2097 C   0  0  0  0  0  0  0  0  0  0  0  0
    7.4108   -1.8432    0.9730 C   0  0  0  0  0  0  0  0  0  0  0  0
   10.5528    1.4944    0.0964 C   0  0  0  0  0  0  0  0  0  0  0  0
   11.1250    1.0051    2.5082 C   0  0  0  0  0  0  0  0  0  0  0  0
    2.7958    2.7053    0.2625 C   0  0  0  0  0  0  0  0  0  0  0  0
    5.5095    3.0165    1.0840 C   0  0  0  0  0  0  0  0  0  0  0  0
    6.8504    3.0939    1.4742 C   0  0  0  0  0  0  0  0  0  0  0  0
    5.7811    0.6460    0.7250 C   0  0  0  0  0  0  0  0  0  0  0  0
    9.3227   -0.2944    1.3467 C   0  0  0  0  0  0  0  0  0  0  0  0
    8.0030   -0.4683    1.1549 C   0  0  0  0  0  0  0  0  0  0  0  0
    4.9685    1.7855    0.7053 C   0  0  0  0  0  0  0  0  0  0  0  0
    7.1211    0.7102    1.1117 C   0  0  0  0  0  0  0  0  0  0  0  0
    7.6679    1.9621    1.4974 C   0  0  0  0  0  0  0  0  0  0  0  0
    9.9877    1.0617    1.4735 C   0  0  0  0  0  0  0  0  0  0  0  0
    8.9803    2.0136    1.9685 N   0  0  0  0  0  0  0  0  0  0  0  0
    3.6709    1.5851    0.3019 O   0  0  0  0  0  0  0  0  0  0  0  0
    0.7277    3.0449   -0.2540 H   0  0  0  0  0  0  0  0  0  0  0  0
    1.0446    1.4547    0.4752 H   0  0  0  0  0  0  0  0  0  0  0  0
    1.5157    1.7673   -1.2068 H   0  0  0  0  0  0  0  0  0  0  0  0
    8.1802   -2.6159    1.0623 H   0  0  0  0  0  0  0  0  0  0  0  0
    6.9405   -1.9503   -0.0131 H   0  0  0  0  0  0  0  0  0  0  0  0
    6.6329   -2.0464    1.7199 H   0  0  0  0  0  0  0  0  0  0  0  0
   11.2748    0.7613   -0.2828 H   0  0  0  0  0  0  0  0  0  0  0  0
   11.0648    2.4632    0.1741 H   0  0  0  0  0  0  0  0  0  0  0  0
    9.7436    1.5865   -0.6351 H   0  0  0  0  0  0  0  0  0  0  0  0
   11.9035    0.3016    2.1915 H   0  0  0  0  0  0  0  0  0  0  0  0
   10.7403    0.6903    3.4826 H   0  0  0  0  0  0  0  0  0  0  0  0
   11.5948    1.9904    2.6235 H   0  0  0  0  0  0  0  0  0  0  0  0
    2.7192    3.1600    1.2618 H   0  0  0  0  0  0  0  0  0  0  0  0
    3.1923    3.4705   -0.4220 H   0  0  0  0  0  0  0  0  0  0  0  0
    4.9100    3.9196    1.0793 H   0  0  0  0  0  0  0  0  0  0  0  0
    7.2618    4.0564    1.7721 H   0  0  0  0  0  0  0  0  0  0  0  0
    5.3349   -0.2964    0.4260 H   0  0  0  0  0  0  0  0  0  0  0  0
    9.9875   -1.1561    1.3625 H   0  0  0  0  0  0  0  0  0  0  0  0
    9.3409    2.9572    2.0622 H   0  0  0  0  0  0  0  0  0  0  0  0
  1  5  1  0
  1 18  1  0
  2 20  1  0
  2 10  1  0
  2 22  1  0
  3 24  1  0
  3 14  1  0
  4 28  1  0
  4 27  1  0
  5 16  1  0
  5 29  1  0
  6  7  2  0
  7 13  1  0
  7 32  1  0
  8 12  1  0
  9 34  1  0
  9 14  1  0
 10  9  2  0
 11  8  2  0
 11  6  1  0
 12 10  1  0
 12 13  2  0
 13 15  1  0
 14 15  1  0
 14  4  1  0
 15 35  1  0
 16 11  1  0
 17  1  1  0
 19  1  1  0
 21  2  1  0
 23  3  1  0
 25  3  1  0
 26  4  1  0
 30  5  1  0
 31  6  1  0
 33  8  1  0
M  END
>  <HBA>  (607) 
2

>  <HBD>  (607) 
1

>  <TPSA>  (607) 
21.26

>  <cid>  (607) 
3293

>  <dipole>  (607) 
1.35

>  <excitation_energy_1>  (607) 
3.458

>  <excitation_energy_2>  (607) 
4.152

>  <excitation_energy_3>  (607) 
4.572

>  <excitation_energy_4>  (607) 
4.574

>  <homo_energy>  (607) 
-4.607

>  <homo_lumo_gap>  (607) 
4.18

>  <logP>  (607) 
3.831

>  <lumo_energy>  (607) 
-0.427

>  <melting_point>  (607) 
91.96

>  <molecular_refractivity>  (607) 
72.42

>  <oscillator_strength_1>  (607) 
0.0609

>  <oscillator_strength_2>  (607) 
0.005

>  <oscillator_strength_3>  (607) 
0.0

>  <oscillator_strength_4>  (607) 
0.0114

>  <open_babel_can_smiles>  (607) 
CCOc1ccc2c(c1)C(=CC(N2)(C)C)C

>  <mulliken_charges>  (607) 
35
1   -0.455868
2   -0.529576
3   -0.436068
4   -0.449391
5   -0.022005
6   -0.201331
7   -0.210259
8   -0.285364
9   -0.225414
10   0.183105
11   0.386219
12   0.094859
13   0.304769
14   0.192428
15   -0.678577
16   -0.529684
17   0.144675
18   0.161419
19   0.161035
20   0.151843
21   0.160008
22   0.162745
23   0.140956
24   0.129319
25   0.158904
26   0.141697
27   0.160716
28   0.13288
29   0.134685
30   0.133979
31   0.127098
32   0.112956
33   0.130272
34   0.116639
35   0.30033

>  <lowdin_charges>  (607) 
35
1   -0.448694
2   -0.440062
3   -0.457613
4   -0.444522
5   -0.124351
6   -0.205033
7   -0.19812
8   -0.184341
9   -0.188318
10   -0.000983
11   0.081879
12   -0.032949
13   0.047214
14   0.076508
15   -0.289003
16   -0.213886
17   0.155536
18   0.159825
19   0.157938
20   0.157264
21   0.157998
22   0.160744
23   0.152199
24   0.142152
25   0.158678
26   0.151226
27   0.158724
28   0.144783
29   0.133881
30   0.135123
31   0.161127
32   0.150642
33   0.165633
34   0.153721
35   0.26508

$$$$
PCCDB-ID:  3297
     RDKit          3D

 20 19  0  0  1  0  0  0  0  0999 V2000
    2.6535    3.0475   -1.9727 C   0  0  0  0  0  0  0  0  0  0  0  0
    3.8895    3.4056   -1.1624 C   0  0  0  0  0  0  0  0  0  0  0  0
    6.7630    0.8014    0.8760 C   0  0  0  0  0  0  0  0  0  0  0  0
    5.6277    0.2937   -0.0554 C   0  0  2  0  0  0  0  0  0  0  0  0
    4.5644    1.3894   -0.0882 C   0  0  0  0  0  0  0  0  0  0  0  0
    4.9730   -0.9459    0.3290 N   0  0  0  0  0  0  0  0  0  0  0  0
    3.6601    1.4714    0.7168 O   0  0  0  0  0  0  0  0  0  0  0  0
    4.8012    2.2796   -1.0701 O   0  0  0  0  0  0  0  0  0  0  0  0
    8.1775   -0.3630    1.0535 S   0  0  0  0  0  0  0  0  0  0  0  0
    2.0183    3.9332   -2.0894 H   0  0  0  0  0  0  0  0  0  0  0  0
    2.0726    2.2720   -1.4661 H   0  0  0  0  0  0  0  0  0  0  0  0
    2.9314    2.6892   -2.9691 H   0  0  0  0  0  0  0  0  0  0  0  0
    3.6241    3.7248   -0.1516 H   0  0  0  0  0  0  0  0  0  0  0  0
    4.4783    4.1867   -1.6493 H   0  0  0  0  0  0  0  0  0  0  0  0
    6.3656    1.0388    1.8678 H   0  0  0  0  0  0  0  0  0  0  0  0
    7.2016    1.7163    0.4645 H   0  0  0  0  0  0  0  0  0  0  0  0
    6.0433    0.1757   -1.0608 H   0  0  0  0  0  0  0  0  0  0  0  0
    4.4575   -0.8078    1.1965 H   0  0  0  0  0  0  0  0  0  0  0  0
    5.6641   -1.6792    0.4686 H   0  0  0  0  0  0  0  0  0  0  0  0
    7.5940   -1.2024    1.9359 H   0  0  0  0  0  0  0  0  0  0  0  0
  1 11  1  0
  1  2  1  0
  2  8  1  0
  2 13  1  0
  3  9  1  0
  3 15  1  0
  4 17  1  6
  4  6  1  0
  4  3  1  0
  5  4  1  0
  5  7  2  0
  6 19  1  0
  6 18  1  0
  8  5  1  0
  9 20  1  0
 10  1  1  0
 12  1  1  0
 14  2  1  0
 16  3  1  0
M  END
>  <HBA>  (608) 
4

>  <HBD>  (608) 
2

>  <TPSA>  (608) 
91.12

>  <cid>  (608) 
3297

>  <dipole>  (608) 
1.33

>  <excitation_energy_1>  (608) 
5.2

>  <excitation_energy_2>  (608) 
5.331

>  <excitation_energy_3>  (608) 
5.67

>  <excitation_energy_4>  (608) 
5.814

>  <homo_energy>  (608) 
-6.463

>  <homo_lumo_gap>  (608) 
6.338

>  <logP>  (608) 
0.507

>  <lumo_energy>  (608) 
-0.125

>  <melting_point>  (608) 
61.05

>  <molecular_refractivity>  (608) 
38.07

>  <oscillator_strength_1>  (608) 
0.013

>  <oscillator_strength_2>  (608) 
0.0073

>  <oscillator_strength_3>  (608) 
0.0009

>  <oscillator_strength_4>  (608) 
0.0032

>  <open_babel_can_smiles>  (608) 
CCOC(=O)[C@@H](CS)N

>  <mulliken_charges>  (608) 
20
1   -0.462208
2   -0.049934
3   -0.446542
4   -0.030518
5   0.633724
6   -0.712784
7   -0.485551
8   -0.458782
9   -0.069403
10   0.152052
11   0.181304
12   0.161232
13   0.171037
14   0.155792
15   0.188445
16   0.191213
17   0.171896
18   0.31192
19   0.30344
20   0.093666

>  <lowdin_charges>  (608) 
20
1   -0.455046
2   -0.128083
3   -0.391701
4   -0.09245
5   0.197948
6   -0.541328
7   -0.269388
8   -0.187396
9   -0.077943
10   0.16034
11   0.169243
12   0.157854
13   0.158335
14   0.155376
15   0.166809
16   0.17566
17   0.163639
18   0.263803
19   0.260794
20   0.113536

$$$$
PCCDB-ID:  3301
     RDKit          3D

 12 11  0  0  0  0  0  0  0  0999 V2000
    1.0744   -0.0447    0.0709 C   0  0  0  0  0  0  0  0  0  0  0  0
    0.5385   -1.0878    1.0510 C   0  0  0  0  0  0  0  0  0  0  0  0
    2.5411   -0.0354    0.0900 N   0  0  0  0  0  0  0  0  0  0  0  0
   -0.9275   -1.1152    1.0128 N   0  0  0  0  0  0  0  0  0  0  0  0
    0.6138    0.9357    0.3027 H   0  0  0  0  0  0  0  0  0  0  0  0
    0.7409   -0.3150   -0.9367 H   0  0  0  0  0  0  0  0  0  0  0  0
    0.9601   -0.8865    2.0554 H   0  0  0  0  0  0  0  0  0  0  0  0
    0.9133   -2.0710    0.7472 H   0  0  0  0  0  0  0  0  0  0  0  0
    2.8707    0.3550    0.9723 H   0  0  0  0  0  0  0  0  0  0  0  0
    2.8913    0.5850   -0.6375 H   0  0  0  0  0  0  0  0  0  0  0  0
   -1.2981   -0.2619    1.4300 H   0  0  0  0  0  0  0  0  0  0  0  0
   -1.2732   -1.8804    1.5891 H   0  0  0  0  0  0  0  0  0  0  0  0
  1  3  1  0
  1  5  1  0
  1  2  1  0
  2  7  1  0
  3  9  1  0
  4  2  1  0
  4 11  1  0
  4 12  1  0
  6  1  1  0
  8  2  1  0
 10  3  1  0
M  END
>  <HBA>  (609) 
2

>  <HBD>  (609) 
2

>  <TPSA>  (609) 
52.04

>  <cid>  (609) 
3301

>  <dipole>  (609) 
2.07

>  <excitation_energy_1>  (609) 
5.573

>  <excitation_energy_2>  (609) 
5.647

>  <excitation_energy_3>  (609) 
6.074

>  <excitation_energy_4>  (609) 
6.131

>  <homo_energy>  (609) 
-6.158

>  <homo_lumo_gap>  (609) 
8.419

>  <logP>  (609) 
0.304

>  <lumo_energy>  (609) 
2.261

>  <melting_point>  (609) 
84.59

>  <molecular_refractivity>  (609) 
17.14

>  <oscillator_strength_1>  (609) 
0.0078

>  <oscillator_strength_2>  (609) 
0.012

>  <oscillator_strength_3>  (609) 
0.0127

>  <oscillator_strength_4>  (609) 
0.0112

>  <open_babel_can_smiles>  (609) 
NCCN

>  <mulliken_charges>  (609) 
12
1   -0.126989
2   -0.127063
3   -0.718362
4   -0.718384
5   0.102926
6   0.154918
7   0.102941
8   0.154924
9   0.290304
10   0.297254
11   0.290286
12   0.297247

>  <lowdin_charges>  (609) 
12
1   -0.20717
2   -0.207113
3   -0.560952
4   -0.561307
5   0.111272
6   0.149551
7   0.110955
8   0.149892
9   0.250357
10   0.256944
11   0.250678
12   0.256893

$$$$
PCCDB-ID:  3305
     RDKit          3D

 19 18  0  0  0  0  0  0  0  0999 V2000
    2.4751    0.2322    1.4573 C   0  0  0  0  0  0  0  0  0  0  0  0
    3.3073   -0.2258    0.2546 C   0  0  0  0  0  0  0  0  0  0  0  0
    4.6953   -0.3023    0.5666 O   0  0  0  0  0  0  0  0  0  0  0  0
    1.3772   -1.5557   -0.9357 O   0  0  0  0  0  0  0  0  0  0  0  0
    3.8143   -2.3122   -1.4779 O   0  0  0  0  0  0  0  0  0  0  0  0
    2.7314   -2.9934    0.7820 O   0  0  0  0  0  0  0  0  0  0  0  0
    1.5800    1.2263   -1.4015 O   0  0  0  0  0  0  0  0  0  0  0  0
    3.7464    2.2841   -0.7206 O   0  0  0  0  0  0  0  0  0  0  0  0
    3.8353    0.2955   -2.4301 O   0  0  0  0  0  0  0  0  0  0  0  0
    2.8398   -1.9574   -0.2651 P   0  0  0  0  0  0  0  0  0  0  0  0
    3.1432    0.8743   -1.2380 P   0  0  0  0  0  0  0  0  0  0  0  0
    2.6455   -0.4602    2.2865 H   0  0  0  0  0  0  0  0  0  0  0  0
    1.4066    0.2599    1.2316 H   0  0  0  0  0  0  0  0  0  0  0  0
    2.7829    1.2392    1.7628 H   0  0  0  0  0  0  0  0  0  0  0  0
    4.9573    0.5549    0.9443 H   0  0  0  0  0  0  0  0  0  0  0  0
    0.7811   -2.3249   -0.9261 H   0  0  0  0  0  0  0  0  0  0  0  0
    3.9914   -1.5194   -2.0476 H   0  0  0  0  0  0  0  0  0  0  0  0
    1.0866    0.3872   -1.5136 H   0  0  0  0  0  0  0  0  0  0  0  0
    4.3560    2.6466   -1.3864 H   0  0  0  0  0  0  0  0  0  0  0  0
  1 14  1  0
  1 12  1  0
  2  3  1  0
  2  1  1  0
  3 15  1  0
  4 16  1  0
  4 10  1  0
  5 10  1  0
  7 11  1  0
  9 11  2  0
 10  2  1  0
 10  6  2  0
 11  8  1  0
 11  2  1  0
 13  1  1  0
 17  5  1  0
 18  7  1  0
 19  8  1  0
M  END
>  <HBA>  (610) 
7

>  <HBD>  (610) 
5

>  <TPSA>  (610) 
154.91

>  <cid>  (610) 
3305

>  <dipole>  (610) 
4.3

>  <excitation_energy_1>  (610) 
6.319

>  <excitation_energy_2>  (610) 
6.781

>  <excitation_energy_3>  (610) 
6.827

>  <excitation_energy_4>  (610) 
6.954

>  <homo_energy>  (610) 
-7.804

>  <homo_lumo_gap>  (610) 
7.935

>  <logP>  (610) 
-0.992

>  <lumo_energy>  (610) 
0.131

>  <melting_point>  (610) 
178.4

>  <molecular_refractivity>  (610) 
34.9

>  <oscillator_strength_1>  (610) 
0.0309

>  <oscillator_strength_2>  (610) 
0.0108

>  <oscillator_strength_3>  (610) 
0.0087

>  <oscillator_strength_4>  (610) 
0.0011

>  <open_babel_can_smiles>  (610) 
CC(P(=O)(O)O)(P(=O)(O)O)O

>  <mulliken_charges>  (610) 
19
1   -0.486312
2   -0.123915
3   -0.607677
4   -0.728213
5   -0.658753
6   -0.523453
7   -0.64946
8   -0.656773
9   -0.58823
10   1.14032
11   1.098284
12   0.201226
13   0.174604
14   0.167097
15   0.40962
16   0.447589
17   0.472252
18   0.459916
19   0.451876

>  <lowdin_charges>  (610) 
19
1   -0.451236
2   -0.196198
3   -0.423773
4   -0.608694
5   -0.556872
6   -0.56397
7   -0.561779
8   -0.563539
9   -0.60542
10   1.062015
11   1.041101
12   0.182707
13   0.17193
14   0.1633
15   0.356042
16   0.387608
17   0.389615
18   0.383737
19   0.393428

$$$$
PCCDB-ID:  3331
     RDKit          3D

 31 31  0  0  0  0  0  0  0  0999 V2000
   -1.6087   -1.5283    1.7591 C   0  0  0  0  0  0  0  0  0  0  0  0
   -0.4199   -1.8521    2.4149 C   0  0  0  0  0  0  0  0  0  0  0  0
   -1.5652   -0.7398    0.6089 C   0  0  0  0  0  0  0  0  0  0  0  0
    0.8045   -1.3925    1.9280 C   0  0  0  0  0  0  0  0  0  0  0  0
   -0.3401   -0.2796    0.1244 C   0  0  0  0  0  0  0  0  0  0  0  0
    2.8481    0.8748    1.2276 C   0  0  0  0  0  0  0  0  0  0  0  0
    3.1348   -1.1600   -0.2778 C   0  0  0  0  0  0  0  0  0  0  0  0
    0.8616   -0.5981    0.7716 C   0  0  0  0  0  0  0  0  0  0  0  0
    2.1791   -0.0684    0.2201 C   0  0  0  0  0  0  0  0  0  0  0  0
    4.7154    2.3173    1.2895 C   0  0  0  0  0  0  0  0  0  0  0  0
    4.4298   -2.9329    0.5892 C   0  0  0  0  0  0  0  0  0  0  0  0
    4.4533    2.6078    2.5011 N   0  0  0  0  0  0  0  0  0  0  0  0
    4.7796   -3.2572   -0.5910 N   0  0  0  0  0  0  0  0  0  0  0  0
    5.7265    2.7539    0.4898 O   0  0  0  0  0  0  0  0  0  0  0  0
    4.7620   -3.4972    1.7825 O   0  0  0  0  0  0  0  0  0  0  0  0
    3.9755    1.4754    0.5608 O   0  0  0  0  0  0  0  0  0  0  0  0
    3.6153   -1.9069    0.8561 O   0  0  0  0  0  0  0  0  0  0  0  0
   -2.5606   -1.8875    2.1413 H   0  0  0  0  0  0  0  0  0  0  0  0
   -0.4428   -2.4671    3.3110 H   0  0  0  0  0  0  0  0  0  0  0  0
   -2.4835   -0.4800    0.0885 H   0  0  0  0  0  0  0  0  0  0  0  0
    1.7210   -1.6668    2.4393 H   0  0  0  0  0  0  0  0  0  0  0  0
   -0.3162    0.3378   -0.7713 H   0  0  0  0  0  0  0  0  0  0  0  0
    3.1975    0.3470    2.1180 H   0  0  0  0  0  0  0  0  0  0  0  0
    2.1578    1.6614    1.5457 H   0  0  0  0  0  0  0  0  0  0  0  0
    3.9906   -0.7175   -0.7936 H   0  0  0  0  0  0  0  0  0  0  0  0
    2.6288   -1.8426   -0.9666 H   0  0  0  0  0  0  0  0  0  0  0  0
    1.9494    0.5308   -0.6710 H   0  0  0  0  0  0  0  0  0  0  0  0
    5.1251    3.2637    2.8987 H   0  0  0  0  0  0  0  0  0  0  0  0
    5.4025   -4.0642   -0.6052 H   0  0  0  0  0  0  0  0  0  0  0  0
    6.2707    3.3727    1.0000 H   0  0  0  0  0  0  0  0  0  0  0  0
    5.3536   -4.2455    1.6106 H   0  0  0  0  0  0  0  0  0  0  0  0
  1 18  1  0
  1  2  2  0
  2 19  1  0
  3  1  1  0
  4  2  1  0
  4 21  1  0
  5  3  2  0
  5  8  1  0
  6 24  1  0
  6 23  1  0
  7  9  1  0
  7 17  1  0
  8  4  2  0
  9  8  1  0
  9  6  1  0
 10 12  2  0
 11 17  1  0
 11 15  1  0
 12 28  1  0
 13 11  2  0
 14 30  1  0
 14 10  1  0
 16  6  1  0
 16 10  1  0
 20  3  1  0
 22  5  1  0
 25  7  1  0
 26  7  1  0
 27  9  1  0
 29 13  1  0
 31 15  1  0
M  END
>  <HBA>  (611) 
6

>  <HBD>  (611) 
2

>  <TPSA>  (611) 
104.64

>  <cid>  (611) 
3331

>  <dipole>  (611) 
1.84

>  <excitation_energy_1>  (611) 
5.325

>  <excitation_energy_2>  (611) 
5.815

>  <excitation_energy_3>  (611) 
5.875

>  <excitation_energy_4>  (611) 
5.908

>  <homo_energy>  (611) 
-6.544

>  <homo_lumo_gap>  (611) 
6.602

>  <logP>  (611) 
2.361

>  <lumo_energy>  (611) 
0.057

>  <melting_point>  (611) 
158.54

>  <molecular_refractivity>  (611) 
59.4

>  <oscillator_strength_1>  (611) 
0.0004

>  <oscillator_strength_2>  (611) 
0.0081

>  <oscillator_strength_3>  (611) 
0.0084

>  <oscillator_strength_4>  (611) 
0.0034

>  <open_babel_can_smiles>  (611) 
OC(=N)OCC(c1ccccc1)COC(=N)O

>  <mulliken_charges>  (611) 
31
1   -0.127964
2   -0.130438
3   -0.126436
4   -0.180057
5   -0.192
6   -0.01555
7   -0.018067
8   0.155494
9   -0.243854
10   0.647445
11   0.652131
12   -0.625504
13   -0.625482
14   -0.571118
15   -0.572915
16   -0.456002
17   -0.452284
18   0.128051
19   0.13012
20   0.128462
21   0.15686
22   0.125224
23   0.181457
24   0.166083
25   0.179334
26   0.166611
27   0.152377
28   0.275645
29   0.276457
30   0.407642
31   0.408276

>  <lowdin_charges>  (611) 
31
1   -0.158185
2   -0.153357
3   -0.157456
4   -0.16445
5   -0.166734
6   -0.1223
7   -0.122705
8   -0.007202
9   -0.13981
10   0.185523
11   0.186895
12   -0.467586
13   -0.464961
14   -0.366458
15   -0.366078
16   -0.180302
17   -0.179269
18   0.15706
19   0.157599
20   0.157644
21   0.169196
22   0.15398
23   0.164264
24   0.159826
25   0.165099
26   0.160744
27   0.160037
28   0.257309
29   0.256914
30   0.362604
31   0.362162

$$$$
PCCDB-ID:  3332
     RDKit          3D

 28 29  0  0  0  0  0  0  0  0999 V2000
   -1.8920   -0.5259    0.5262 C   0  0  0  0  0  0  0  0  0  0  0  0
   -1.4093    0.7171    0.1127 C   0  0  0  0  0  0  0  0  0  0  0  0
   -1.0009   -1.5861    0.7017 C   0  0  0  0  0  0  0  0  0  0  0  0
   -0.0475    0.8981   -0.1232 C   0  0  0  0  0  0  0  0  0  0  0  0
    0.3609   -1.4048    0.4653 C   0  0  0  0  0  0  0  0  0  0  0  0
    4.3189    1.4106   -0.0845 C   0  0  0  0  0  0  0  0  0  0  0  0
    4.4480   -0.7942   -1.0338 C   0  0  0  0  0  0  0  0  0  0  0  0
    2.9586    1.2297    0.1505 C   0  0  0  0  0  0  0  0  0  0  0  0
    3.0856   -0.9746   -0.8025 C   0  0  0  0  0  0  0  0  0  0  0  0
    6.5625    0.6072   -0.9591 C   0  0  0  0  0  0  0  0  0  0  0  0
    5.0918    0.4014   -0.6785 C   0  0  0  0  0  0  0  0  0  0  0  0
    0.8613   -0.1597    0.0486 C   0  0  0  0  0  0  0  0  0  0  0  0
    2.3118    0.0331   -0.2037 C   0  0  0  0  0  0  0  0  0  0  0  0
    6.9262    1.1530   -2.3542 C   0  0  0  0  0  0  0  0  0  0  0  0
    8.0488    1.4873   -2.6371 O   0  0  0  0  0  0  0  0  0  0  0  0
    5.9281    1.2219   -3.2649 O   0  0  0  0  0  0  0  0  0  0  0  0
   -2.9535   -0.6670    0.7101 H   0  0  0  0  0  0  0  0  0  0  0  0
   -2.0953    1.5470   -0.0346 H   0  0  0  0  0  0  0  0  0  0  0  0
   -1.3648   -2.5555    1.0314 H   0  0  0  0  0  0  0  0  0  0  0  0
    0.3138    1.8625   -0.4697 H   0  0  0  0  0  0  0  0  0  0  0  0
    1.0488   -2.2293    0.6310 H   0  0  0  0  0  0  0  0  0  0  0  0
    4.7933    2.3437    0.2107 H   0  0  0  0  0  0  0  0  0  0  0  0
    5.0218   -1.5954   -1.4949 H   0  0  0  0  0  0  0  0  0  0  0  0
    2.3932    2.0173    0.6403 H   0  0  0  0  0  0  0  0  0  0  0  0
    2.6120   -1.9035   -1.1069 H   0  0  0  0  0  0  0  0  0  0  0  0
    7.1137   -0.3354   -0.8549 H   0  0  0  0  0  0  0  0  0  0  0  0
    7.0097    1.2998   -0.2389 H   0  0  0  0  0  0  0  0  0  0  0  0
    5.0948    0.9264   -2.8545 H   0  0  0  0  0  0  0  0  0  0  0  0
  1  3  2  0
  1 17  1  0
  2  1  1  0
  3 19  1  0
  4 12  1  0
  4  2  2  0
  5 21  1  0
  5  3  1  0
  6  8  2  0
  6 22  1  0
  7  9  1  0
  7 11  2  0
  8 24  1  0
  9 13  2  0
 10 26  1  0
 10 11  1  0
 10 27  1  0
 11  6  1  0
 12  5  2  0
 13 12  1  0
 13  8  1  0
 14 10  1  0
 15 14  2  0
 16 28  1  0
 16 14  1  0
 18  2  1  0
 20  4  1  0
 23  7  1  0
 25  9  1  0
M  END
>  <HBA>  (612) 
2

>  <HBD>  (612) 
1

>  <TPSA>  (612) 
37.3

>  <cid>  (612) 
3332

>  <dipole>  (612) 
5.35

>  <excitation_energy_1>  (612) 
4.709

>  <excitation_energy_2>  (612) 
4.777

>  <excitation_energy_3>  (612) 
4.906

>  <excitation_energy_4>  (612) 
5.483

>  <homo_energy>  (612) 
-6.378

>  <homo_lumo_gap>  (612) 
5.184

>  <logP>  (612) 
2.981

>  <lumo_energy>  (612) 
-1.195

>  <melting_point>  (612) 
121.92

>  <molecular_refractivity>  (612) 
63.42

>  <oscillator_strength_1>  (612) 
0.5828

>  <oscillator_strength_2>  (612) 
0.002

>  <oscillator_strength_3>  (612) 
0.0012

>  <oscillator_strength_4>  (612) 
0.0044

>  <open_babel_can_smiles>  (612) 
OC(=O)Cc1ccc(cc1)c1ccccc1

>  <mulliken_charges>  (612) 
28
1   -0.125104
2   -0.133125
3   -0.133184
4   -0.173344
5   -0.172798
6   -0.17048
7   -0.189847
8   -0.171236
9   -0.169465
10   -0.454843
11   0.089926
12   0.088643
13   0.088996
14   0.586538
15   -0.441316
16   -0.563614
17   0.134408
18   0.135131
19   0.134833
20   0.134237
21   0.134273
22   0.140885
23   0.141017
24   0.142682
25   0.142555
26   0.194057
27   0.192799
28   0.417374

>  <lowdin_charges>  (612) 
28
1   -0.151647
2   -0.153544
3   -0.152021
4   -0.159977
5   -0.16145
6   -0.160574
7   -0.172949
8   -0.156487
9   -0.157072
10   -0.317138
11   -0.033947
12   -0.004181
13   0.003808
14   0.18909
15   -0.244815
16   -0.352022
17   0.158719
18   0.161275
19   0.160044
20   0.159807
21   0.160906
22   0.162741
23   0.163012
24   0.165885
25   0.164757
26   0.182692
27   0.183764
28   0.361324

$$$$
PCCDB-ID:  3338
     RDKit          3D

 28 28  0  0  1  0  0  0  0  0999 V2000
    1.8056   -1.9672    2.3074 C   0  0  0  0  0  0  0  0  0  0  0  0
    2.8147   -1.1258    1.5193 C   0  0  0  0  0  0  0  0  0  0  0  0
    3.7981   -0.3658    2.4192 C   0  0  0  0  0  0  0  0  0  0  0  0
    8.4539   -1.0421    4.9714 C   0  0  0  0  0  0  0  0  0  0  0  0
    7.6577   -0.0509    5.5463 C   0  0  0  0  0  0  0  0  0  0  0  0
    8.3669   -1.2855    3.5990 C   0  0  0  0  0  0  0  0  0  0  0  0
    6.7836    0.6928    4.7516 C   0  0  0  0  0  0  0  0  0  0  0  0
    7.4871   -0.5435    2.8109 C   0  0  0  0  0  0  0  0  0  0  0  0
    4.7923    0.4982    1.6332 C   0  0  0  0  0  0  0  0  0  0  0  0
    6.6837    0.4590    3.3751 C   0  0  0  0  0  0  0  0  0  0  0  0
    5.7600    1.3084    2.5115 C   0  0  1  0  0  0  0  0  0  0  0  0
    6.5079    2.2397    1.7156 O   0  0  0  0  0  0  0  0  0  0  0  0
    1.1285   -2.5106    1.6385 H   0  0  0  0  0  0  0  0  0  0  0  0
    1.1917   -1.3380    2.9636 H   0  0  0  0  0  0  0  0  0  0  0  0
    2.3139   -2.7056    2.9396 H   0  0  0  0  0  0  0  0  0  0  0  0
    2.2769   -0.4095    0.8821 H   0  0  0  0  0  0  0  0  0  0  0  0
    3.3786   -1.7766    0.8358 H   0  0  0  0  0  0  0  0  0  0  0  0
    4.3470   -1.0831    3.0441 H   0  0  0  0  0  0  0  0  0  0  0  0
    3.2321    0.2734    3.1136 H   0  0  0  0  0  0  0  0  0  0  0  0
    9.1356   -1.6226    5.5871 H   0  0  0  0  0  0  0  0  0  0  0  0
    7.7188    0.1471    6.6133 H   0  0  0  0  0  0  0  0  0  0  0  0
    8.9801   -2.0583    3.1427 H   0  0  0  0  0  0  0  0  0  0  0  0
    6.1715    1.4696    5.2042 H   0  0  0  0  0  0  0  0  0  0  0  0
    7.4249   -0.7559    1.7452 H   0  0  0  0  0  0  0  0  0  0  0  0
    4.2510    1.2180    1.0061 H   0  0  0  0  0  0  0  0  0  0  0  0
    5.3679   -0.1376    0.9439 H   0  0  0  0  0  0  0  0  0  0  0  0
    5.1663    1.9479    3.1751 H   0  0  0  0  0  0  0  0  0  0  0  0
    7.1506    1.7278    1.1990 H   0  0  0  0  0  0  0  0  0  0  0  0
  1 15  1  0
  1 14  1  0
  2  1  1  0
  2  3  1  0
  3 18  1  0
  3 19  1  0
  4  5  2  0
  4 20  1  0
  5 21  1  0
  6  4  1  0
  7 23  1  0
  7  5  1  0
  8 10  1  0
  8  6  2  0
  9  3  1  0
  9 11  1  0
 10  7  2  0
 11 27  1  1
 11 10  1  0
 12 11  1  0
 13  1  1  0
 16  2  1  0
 17  2  1  0
 22  6  1  0
 24  8  1  0
 25  9  1  0
 26  9  1  0
 28 12  1  0
M  END
>  <HBA>  (613) 
1

>  <HBD>  (613) 
1

>  <TPSA>  (613) 
20.23

>  <cid>  (613) 
3338

>  <dipole>  (613) 
1.71

>  <excitation_energy_1>  (613) 
5.301

>  <excitation_energy_2>  (613) 
5.888

>  <excitation_energy_3>  (613) 
6.023

>  <excitation_energy_4>  (613) 
6.094

>  <homo_energy>  (613) 
-6.656

>  <homo_lumo_gap>  (613) 
6.501

>  <logP>  (613) 
2.91

>  <lumo_energy>  (613) 
-0.155

>  <melting_point>  (613) 
23.11

>  <molecular_refractivity>  (613) 
51.8

>  <oscillator_strength_1>  (613) 
0.0004

>  <oscillator_strength_2>  (613) 
0.0243

>  <oscillator_strength_3>  (613) 
0.0029

>  <oscillator_strength_4>  (613) 
0.0122

>  <open_babel_can_smiles>  (613) 
CCCC[C@@H](c1ccccc1)O

>  <mulliken_charges>  (613) 
28
1   -0.44212
2   -0.245968
3   -0.2543
4   -0.129691
5   -0.125525
6   -0.128241
7   -0.188199
8   -0.199184
9   -0.2761
10   0.178895
11   0.043875
12   -0.619969
13   0.141873
14   0.141872
15   0.142664
16   0.131765
17   0.129673
18   0.141461
19   0.127518
20   0.130868
21   0.131524
22   0.130443
23   0.130532
24   0.122411
25   0.145547
26   0.120205
27   0.134871
28   0.383303

>  <lowdin_charges>  (613) 
28
1   -0.448363
2   -0.273851
3   -0.280928
4   -0.158521
5   -0.15123
6   -0.154603
7   -0.161043
8   -0.170502
9   -0.292979
10   -0.016162
11   -0.003033
12   -0.461088
13   0.150743
14   0.147942
15   0.148163
16   0.140725
17   0.139915
18   0.146626
19   0.139699
20   0.159792
21   0.156919
22   0.158806
23   0.158691
24   0.149436
25   0.151926
26   0.13653
27   0.147235
28   0.339156

$$$$
PCCDB-ID:  3406
     RDKit          3D

 12 12  0  0  0  0  0  0  0  0999 V2000
    0.8404   -0.0068   -0.0194 C   0  0  0  0  0  0  0  0  0  0  0  0
    3.1909    1.0871   -0.0206 C   0  0  0  0  0  0  0  0  0  0  0  0
    3.2247   -1.1150   -0.0152 C   0  0  0  0  0  0  0  0  0  0  0  0
    2.3412   -0.0045   -0.0179 C   0  0  0  0  0  0  0  0  0  0  0  0
    4.4595    0.5965   -0.0202 N   0  0  0  0  0  0  0  0  0  0  0  0
    4.5065   -0.7517   -0.0162 N   0  0  0  0  0  0  0  0  0  0  0  0
    0.4430    1.0134   -0.0091 H   0  0  0  0  0  0  0  0  0  0  0  0
    0.4346   -0.5263    0.8575 H   0  0  0  0  0  0  0  0  0  0  0  0
    0.4358   -0.5082   -0.9073 H   0  0  0  0  0  0  0  0  0  0  0  0
    2.9892    2.1495   -0.0266 H   0  0  0  0  0  0  0  0  0  0  0  0
    2.9709   -2.1680   -0.0144 H   0  0  0  0  0  0  0  0  0  0  0  0
    5.3250    1.1141   -0.0178 H   0  0  0  0  0  0  0  0  0  0  0  0
  1  4  1  0
  1  7  1  0
  1  8  1  0
  2  5  1  0
  2  4  2  0
  3 11  1  0
  4  3  1  0
  5 12  1  0
  5  6  1  0
  6  3  2  0
  9  1  1  0
 10  2  1  0
M  END
>  <HBA>  (614) 
1

>  <HBD>  (614) 
1

>  <TPSA>  (614) 
28.68

>  <cid>  (614) 
3406

>  <dipole>  (614) 
2.3

>  <excitation_energy_1>  (614) 
5.792

>  <excitation_energy_2>  (614) 
6.202

>  <excitation_energy_3>  (614) 
6.23

>  <excitation_energy_4>  (614) 
6.284

>  <homo_energy>  (614) 
-6.31

>  <homo_lumo_gap>  (614) 
7.08

>  <logP>  (614) 
0.718

>  <lumo_energy>  (614) 
0.77

>  <melting_point>  (614) 
69.93

>  <molecular_refractivity>  (614) 
23.55

>  <oscillator_strength_1>  (614) 
0.0018

>  <oscillator_strength_2>  (614) 
0.0016

>  <oscillator_strength_3>  (614) 
0.0026

>  <oscillator_strength_4>  (614) 
0.0589

>  <open_babel_can_smiles>  (614) 
Cc1c[nH]nc1

>  <mulliken_charges>  (614) 
12
1   -0.529333
2   0.032071
3   0.008964
4   0.065199
5   -0.401899
6   -0.278995
7   0.152022
8   0.161493
9   0.161582
10   0.151519
11   0.134332
12   0.343046

>  <lowdin_charges>  (614) 
12
1   -0.436747
2   -0.154769
3   -0.15878
4   -0.065692
5   -0.126617
6   -0.153772
7   0.156418
8   0.160159
9   0.16004
10   0.16618
11   0.159046
12   0.294535

$$$$
PCCDB-ID:  3415
     RDKit          3D

 10  9  0  0  0  0  0  0  0  0999 V2000
    1.0860    0.0980    0.0610 C   0  0  0  0  0  0  0  0  0  0  0  0
    0.5874   -0.4221   -0.9023 O   0  0  0  0  0  0  0  0  0  0  0  0
    0.3861    0.4617    1.1504 O   0  0  0  0  0  0  0  0  0  0  0  0
    3.2047    1.3724   -1.1437 O   0  0  0  0  0  0  0  0  0  0  0  0
    2.9878    1.4326    1.3625 O   0  0  0  0  0  0  0  0  0  0  0  0
    3.7824   -0.8123    0.2019 O   0  0  0  0  0  0  0  0  0  0  0  0
    2.9285    0.3923    0.1110 P   0  0  0  0  0  0  0  0  0  0  0  0
    0.9788    0.9127    1.7815 H   0  0  0  0  0  0  0  0  0  0  0  0
    3.4151    0.8647   -1.9468 H   0  0  0  0  0  0  0  0  0  0  0  0
    3.8673    1.4521    1.7790 H   0  0  0  0  0  0  0  0  0  0  0  0
  1  7  1  0
  1  3  1  0
  2  1  2  0
  3  8  1  0
  4  7  1  0
  5 10  1  0
  7  6  2  0
  7  5  1  0
  9  4  1  0
M  END
>  <HBA>  (615) 
5

>  <HBD>  (615) 
3

>  <TPSA>  (615) 
104.64

>  <cid>  (615) 
3415

>  <dipole>  (615) 
3.77

>  <excitation_energy_1>  (615) 
5.062

>  <excitation_energy_2>  (615) 
6.497

>  <excitation_energy_3>  (615) 
6.533

>  <excitation_energy_4>  (615) 
6.73

>  <homo_energy>  (615) 
-7.799

>  <homo_lumo_gap>  (615) 
6.743

>  <logP>  (615) 
-0.158

>  <lumo_energy>  (615) 
-1.056

>  <melting_point>  (615) 
150.58

>  <molecular_refractivity>  (615) 
20.07

>  <oscillator_strength_1>  (615) 
0.0039

>  <oscillator_strength_2>  (615) 
0.0255

>  <oscillator_strength_3>  (615) 
0.0102

>  <oscillator_strength_4>  (615) 
0.0368

>  <open_babel_can_smiles>  (615) 
OC(=O)P(=O)(O)O

>  <mulliken_charges>  (615) 
10
1   0.404993
2   -0.405048
3   -0.542467
4   -0.621958
5   -0.673129
6   -0.503831
7   0.987959
8   0.442201
9   0.45647
10   0.45481

>  <lowdin_charges>  (615) 
10
1   0.049829
2   -0.202327
3   -0.329491
4   -0.553545
5   -0.579352
6   -0.559545
7   1.012064
8   0.374941
9   0.395682
10   0.391743

$$$$
PCCDB-ID:  3417
     RDKit          3D

 15 15  0  0  1  0  0  0  0  0999 V2000
    0.9688   -0.3109   -0.2372 C   0  0  0  0  0  0  0  0  0  0  0  0
    2.3658    0.1088    0.1380 C   0  0  2  0  0  0  0  0  0  0  0  0
    3.2824    0.7194   -0.8450 C   0  0  2  0  0  0  0  0  0  0  0  0
    5.9411    1.3525   -1.0959 O   0  0  0  0  0  0  0  0  0  0  0  0
    4.1980    3.1730   -1.0224 O   0  0  0  0  0  0  0  0  0  0  0  0
    4.8159    1.8632    1.2032 O   0  0  0  0  0  0  0  0  0  0  0  0
    3.4415   -0.6496   -0.4399 O   0  0  0  0  0  0  0  0  0  0  0  0
    4.6156    1.8037   -0.2656 P   0  0  0  0  0  0  0  0  0  0  0  0
    0.2536    0.4865   -0.0043 H   0  0  0  0  0  0  0  0  0  0  0  0
    0.6759   -1.2037    0.3266 H   0  0  0  0  0  0  0  0  0  0  0  0
    0.9040   -0.5423   -1.3048 H   0  0  0  0  0  0  0  0  0  0  0  0
    2.5357    0.3613    1.1848 H   0  0  0  0  0  0  0  0  0  0  0  0
    2.9468    0.8696   -1.8725 H   0  0  0  0  0  0  0  0  0  0  0  0
    6.5112    0.8035   -0.5313 H   0  0  0  0  0  0  0  0  0  0  0  0
    4.6965    3.9335   -0.6782 H   0  0  0  0  0  0  0  0  0  0  0  0
  1  9  1  0
  1  2  1  0
  1 10  1  0
  2 12  1  1
  3 13  1  6
  3  7  1  0
  3  8  1  0
  3  2  1  0
  4 14  1  0
  4  8  1  0
  5 15  1  0
  5  8  1  0
  7  2  1  0
  8  6  2  0
 11  1  1  0
M  END
>  <HBA>  (616) 
4

>  <HBD>  (616) 
2

>  <TPSA>  (616) 
79.87

>  <cid>  (616) 
3417

>  <dipole>  (616) 
1.6

>  <excitation_energy_1>  (616) 
6.56

>  <excitation_energy_2>  (616) 
6.759

>  <excitation_energy_3>  (616) 
7.053

>  <excitation_energy_4>  (616) 
7.283

>  <homo_energy>  (616) 
-7.434

>  <homo_lumo_gap>  (616) 
8.441

>  <logP>  (616) 
-0.091

>  <lumo_energy>  (616) 
1.007

>  <melting_point>  (616) 
75.39

>  <molecular_refractivity>  (616) 
26.49

>  <oscillator_strength_1>  (616) 
0.0312

>  <oscillator_strength_2>  (616) 
0.0058

>  <oscillator_strength_3>  (616) 
0.0311

>  <oscillator_strength_4>  (616) 
0.0204

>  <open_babel_can_smiles>  (616) 
C[C@H]1O[C@@H]1P(=O)(O)O

>  <mulliken_charges>  (616) 
15
1   -0.470129
2   0.090236
3   -0.121565
4   -0.639228
5   -0.642246
6   -0.54886
7   -0.441858
8   1.024369
9   0.161944
10   0.169089
11   0.162314
12   0.183189
13   0.185717
14   0.443306
15   0.443722

>  <lowdin_charges>  (616) 
15
1   -0.445397
2   -0.003863
3   -0.194031
4   -0.57214
5   -0.566947
6   -0.59269
7   -0.271419
8   1.033123
9   0.164997
10   0.16601
11   0.161452
12   0.168679
13   0.177761
14   0.388318
15   0.386148

$$$$
PCCDB-ID:  3418
     RDKit          3D

 21 21  0  0  0  0  0  0  0  0999 V2000
   -1.9970   -0.6131   -0.4217 C   0  0  0  0  0  0  0  0  0  0  0  0
   -0.7146   -1.1613   -0.5145 C   0  0  0  0  0  0  0  0  0  0  0  0
   -2.1478    0.7400   -0.1467 C   0  0  0  0  0  0  0  0  0  0  0  0
    0.4082   -0.3567   -0.3419 C   0  0  0  0  0  0  0  0  0  0  0  0
   -1.0273    1.5690    0.0517 C   0  0  0  0  0  0  0  0  0  0  0  0
    0.2579    0.9998   -0.0595 C   0  0  0  0  0  0  0  0  0  0  0  0
   -1.2311    2.9935    0.4020 C   0  0  0  0  0  0  0  0  0  0  0  0
   -0.4318    3.7529    0.9359 O   0  0  0  0  0  0  0  0  0  0  0  0
   -2.4681    3.4345    0.0893 O   0  0  0  0  0  0  0  0  0  0  0  0
    3.8149    1.8849    0.7780 O   0  0  0  0  0  0  0  0  0  0  0  0
    2.1239    3.4217    1.7628 O   0  0  0  0  0  0  0  0  0  0  0  0
    2.0389    0.8148    2.3333 O   0  0  0  0  0  0  0  0  0  0  0  0
    1.3823    1.7940    0.0076 O   0  0  0  0  0  0  0  0  0  0  0  0
    2.3197    1.8863    1.3650 P   0  0  0  0  0  0  0  0  0  0  0  0
   -2.8733   -1.2387   -0.5599 H   0  0  0  0  0  0  0  0  0  0  0  0
   -0.5872   -2.2189   -0.7270 H   0  0  0  0  0  0  0  0  0  0  0  0
   -3.1375    1.1746   -0.0702 H   0  0  0  0  0  0  0  0  0  0  0  0
    1.4112   -0.7607   -0.4224 H   0  0  0  0  0  0  0  0  0  0  0  0
   -2.5113    4.3574    0.4031 H   0  0  0  0  0  0  0  0  0  0  0  0
    4.0716    2.7606    0.4451 H   0  0  0  0  0  0  0  0  0  0  0  0
    1.1873    3.6806    1.5673 H   0  0  0  0  0  0  0  0  0  0  0  0
  1  3  2  0
  2  1  1  0
  2  4  2  0
  3 17  1  0
  3  5  1  0
  4  6  1  0
  5  7  1  0
  6 13  1  0
  6  5  2  0
  7  8  2  0
  9  7  1  0
  9 19  1  0
 10 14  1  0
 13 14  1  0
 14 11  1  0
 14 12  2  0
 15  1  1  0
 16  2  1  0
 18  4  1  0
 20 10  1  0
 21 11  1  0
M  END
>  <HBA>  (617) 
6

>  <HBD>  (617) 
3

>  <TPSA>  (617) 
113.87

>  <cid>  (617) 
3418

>  <dipole>  (617) 
5.01

>  <excitation_energy_1>  (617) 
4.499

>  <excitation_energy_2>  (617) 
5.031

>  <excitation_energy_3>  (617) 
5.242

>  <excitation_energy_4>  (617) 
5.374

>  <homo_energy>  (617) 
-7.124

>  <homo_lumo_gap>  (617) 
5.26

>  <logP>  (617) 
0.856

>  <lumo_energy>  (617) 
-1.864

>  <melting_point>  (617) 
187.75

>  <molecular_refractivity>  (617) 
46.07

>  <oscillator_strength_1>  (617) 
0.0509

>  <oscillator_strength_2>  (617) 
0.0381

>  <oscillator_strength_3>  (617) 
0.1138

>  <oscillator_strength_4>  (617) 
0.0191

>  <open_babel_can_smiles>  (617) 
OC(=O)c1ccccc1OP(=O)(O)O

>  <mulliken_charges>  (617) 
21
1   -0.125231
2   -0.127375
3   -0.171663
4   -0.137643
5   0.056222
6   0.339284
7   0.571164
8   -0.519191
9   -0.563951
10   -0.620939
11   -0.682582
12   -0.528772
13   -0.622274
14   1.153937
15   0.145521
16   0.152389
17   0.169551
18   0.168705
19   0.421281
20   0.441201
21   0.480368

>  <lowdin_charges>  (617) 
21
1   -0.161333
2   -0.119076
3   -0.126716
4   -0.156298
5   -0.070659
6   0.132948
7   0.22609
8   -0.291263
9   -0.338131
10   -0.55131
11   -0.583051
12   -0.563622
13   -0.357954
14   1.130219
15   0.16755
16   0.167806
17   0.177664
18   0.181702
19   0.367961
20   0.386166
21   0.381307

$$$$
PCCDB-ID:  3429
     RDKit          3D

 25 24  0  0  1  0  0  0  0  0999 V2000
    1.7463    1.3181    1.5866 C   0  0  0  0  0  0  0  0  0  0  0  0
    5.1506   -1.1062    4.7618 C   0  0  0  0  0  0  0  0  0  0  0  0
    1.9243   -0.1940    1.4789 C   0  0  1  0  0  0  0  0  0  0  0  0
    5.4090   -0.8401    3.2723 C   0  0  2  0  0  0  0  0  0  0  0  0
    2.9181   -0.7943    2.4896 C   0  0  1  0  0  0  0  0  0  0  0  0
    4.2987   -0.1206    2.4710 C   0  0  2  0  0  0  0  0  0  0  0  0
    4.2823   -2.2212    4.9294 O   0  0  0  0  0  0  0  0  0  0  0  0
    0.6965   -0.8868    1.7845 O   0  0  0  0  0  0  0  0  0  0  0  0
    5.7051   -2.0798    2.6262 O   0  0  0  0  0  0  0  0  0  0  0  0
    2.3543   -0.6846    3.8063 O   0  0  0  0  0  0  0  0  0  0  0  0
    4.7437   -0.0237    1.1203 O   0  0  0  0  0  0  0  0  0  0  0  0
    2.6541    1.8368    1.2646 H   0  0  0  0  0  0  0  0  0  0  0  0
    1.5112    1.6122    2.6147 H   0  0  0  0  0  0  0  0  0  0  0  0
    0.9298    1.6538    0.9341 H   0  0  0  0  0  0  0  0  0  0  0  0
    4.7633   -0.2073    5.2605 H   0  0  0  0  0  0  0  0  0  0  0  0
    6.0989   -1.3806    5.2348 H   0  0  0  0  0  0  0  0  0  0  0  0
    2.2601   -0.4575    0.4696 H   0  0  0  0  0  0  0  0  0  0  0  0
    6.3017   -0.2098    3.1695 H   0  0  0  0  0  0  0  0  0  0  0  0
    3.0372   -1.8574    2.2300 H   0  0  0  0  0  0  0  0  0  0  0  0
    4.1927    0.9023    2.8511 H   0  0  0  0  0  0  0  0  0  0  0  0
    3.3861   -1.8762    4.7273 H   0  0  0  0  0  0  0  0  0  0  0  0
   -0.0288   -0.4363    1.3263 H   0  0  0  0  0  0  0  0  0  0  0  0
    5.1869   -2.7397    3.1286 H   0  0  0  0  0  0  0  0  0  0  0  0
    1.4089   -0.8966    3.6814 H   0  0  0  0  0  0  0  0  0  0  0  0
    5.1524   -0.8907    0.9365 H   0  0  0  0  0  0  0  0  0  0  0  0
  1 13  1  0
  2  7  1  0
  2 16  1  0
  2 15  1  0
  3 17  1  6
  3  1  1  0
  3  8  1  0
  3  5  1  0
  4 18  1  1
  4  2  1  0
  5 19  1  6
  5 10  1  0
  6  5  1  0
  6 20  1  1
  6  4  1  0
  9 23  1  0
  9  4  1  0
 11  6  1  0
 12  1  1  0
 14  1  1  0
 21  7  1  0
 22  8  1  0
 24 10  1  0
 25 11  1  0
M  END
>  <HBA>  (618) 
5

>  <HBD>  (618) 
5

>  <TPSA>  (618) 
101.15

>  <cid>  (618) 
3429

>  <dipole>  (618) 
3.23

>  <excitation_energy_1>  (618) 
6.331

>  <excitation_energy_2>  (618) 
6.704

>  <excitation_energy_3>  (618) 
6.788

>  <excitation_energy_4>  (618) 
6.854

>  <homo_energy>  (618) 
-6.901

>  <homo_lumo_gap>  (618) 
8.27

>  <logP>  (618) 
-2.558

>  <lumo_energy>  (618) 
1.369

>  <melting_point>  (618) 
66.53

>  <molecular_refractivity>  (618) 
36.77

>  <oscillator_strength_1>  (618) 
0.0031

>  <oscillator_strength_2>  (618) 
0.0012

>  <oscillator_strength_3>  (618) 
0.0057

>  <oscillator_strength_4>  (618) 
0.0046

>  <open_babel_can_smiles>  (618) 
OC[C@H]([C@H]([C@H]([C@@H](O)C)O)O)O

>  <mulliken_charges>  (618) 
25
1   -0.486606
2   -0.067906
3   0.134681
4   0.087092
5   0.100009
6   0.126345
7   -0.655596
8   -0.656867
9   -0.658606
10   -0.672683
11   -0.645703
12   0.179998
13   0.160218
14   0.135244
15   0.139011
16   0.154768
17   0.144613
18   0.142364
19   0.127105
20   0.137875
21   0.428104
22   0.400881
23   0.41286
24   0.422908
25   0.409889

>  <lowdin_charges>  (618) 
25
1   -0.466651
2   -0.154985
3   -0.011207
4   -0.038639
5   -0.028283
6   -0.027435
7   -0.48655
8   -0.477896
9   -0.475442
10   -0.466765
11   -0.463499
12   0.171357
13   0.15654
14   0.148771
15   0.142401
16   0.153147
17   0.145449
18   0.151109
19   0.13378
20   0.146277
21   0.347424
22   0.35102
23   0.348835
24   0.353153
25   0.348089

$$$$
PCCDB-ID:  3438
     RDKit          3D

 14 14  0  0  0  0  0  0  0  0999 V2000
   -1.2564    0.1513    0.0671 C   0  0  0  0  0  0  0  0  0  0  0  0
   -0.5621   -1.1036    0.0715 C   0  0  0  0  0  0  0  0  0  0  0  0
   -0.2921    1.1084   -0.0081 C   0  0  0  0  0  0  0  0  0  0  0  0
    1.9929   -1.6718   -0.0444 C   0  0  0  0  0  0  0  0  0  0  0  0
    0.7708   -0.8162   -0.0000 C   0  0  0  0  0  0  0  0  0  0  0  0
    2.6674   -1.5872   -1.3491 N   0  0  0  0  0  0  0  0  0  0  0  0
    0.9454    0.5406   -0.0490 O   0  0  0  0  0  0  0  0  0  0  0  0
   -2.3244    0.3133    0.1111 H   0  0  0  0  0  0  0  0  0  0  0  0
   -0.9978   -2.0923    0.1235 H   0  0  0  0  0  0  0  0  0  0  0  0
   -0.3134    2.1873   -0.0407 H   0  0  0  0  0  0  0  0  0  0  0  0
    1.6835   -2.6904    0.2488 H   0  0  0  0  0  0  0  0  0  0  0  0
    2.7073   -1.3271    0.7142 H   0  0  0  0  0  0  0  0  0  0  0  0
    2.0613   -1.9800   -2.0682 H   0  0  0  0  0  0  0  0  0  0  0  0
    3.5087   -2.1623   -1.3324 H   0  0  0  0  0  0  0  0  0  0  0  0
  1  2  1  0
  1  8  1  0
  2  9  1  0
  3  1  2  0
  4  5  1  0
  4 11  1  0
  4 12  1  0
  5  2  2  0
  6 14  1  0
  6  4  1  0
  7  3  1  0
  7  5  1  0
 10  3  1  0
 13  6  1  0
M  END
>  <HBA>  (619) 
2

>  <HBD>  (619) 
1

>  <TPSA>  (619) 
39.16

>  <cid>  (619) 
3438

>  <dipole>  (619) 
1.78

>  <excitation_energy_1>  (619) 
5.391

>  <excitation_energy_2>  (619) 
5.51

>  <excitation_energy_3>  (619) 
5.767

>  <excitation_energy_4>  (619) 
6.029

>  <homo_energy>  (619) 
-5.899

>  <homo_lumo_gap>  (619) 
6.365

>  <logP>  (619) 
1.439

>  <lumo_energy>  (619) 
0.465

>  <melting_point>  (619) 
60.63

>  <molecular_refractivity>  (619) 
26.38

>  <oscillator_strength_1>  (619) 
0.1045

>  <oscillator_strength_2>  (619) 
0.0037

>  <oscillator_strength_3>  (619) 
0.0878

>  <oscillator_strength_4>  (619) 
0.0605

>  <open_babel_can_smiles>  (619) 
NCc1ccco1

>  <mulliken_charges>  (619) 
14
1   -0.182211
2   -0.208363
3   0.083999
4   -0.225226
5   0.348786
6   -0.70007
7   -0.420069
8   0.137362
9   0.132753
10   0.151311
11   0.129003
12   0.160691
13   0.295678
14   0.296356

>  <lowdin_charges>  (619) 
14
1   -0.207394
2   -0.219691
3   -0.077385
4   -0.204966
5   0.058599
6   -0.554522
7   -0.093063
8   0.165576
9   0.164485
10   0.167214
11   0.131651
12   0.158895
13   0.255605
14   0.254997

$$$$
PCCDB-ID:  3445
     RDKit          3D

 19 19  0  0  1  0  0  0  0  0999 V2000
   -0.3565    1.3666   -0.0873 C   0  0  0  0  0  0  0  0  0  0  0  0
    1.0264    0.9323    0.0702 C   0  0  0  0  0  0  0  0  0  0  0  0
   -1.3658    0.4761   -0.1147 C   0  0  0  0  0  0  0  0  0  0  0  0
    0.3105   -1.3856   -0.4241 C   0  0  0  0  0  0  0  0  0  0  0  0
    1.3639   -0.3725   -0.0476 C   0  0  0  0  0  0  0  0  0  0  0  0
   -1.1086   -1.0057    0.0632 C   0  0  1  0  0  0  0  0  0  0  0  0
    2.7466   -0.8552    0.1281 C   0  0  0  0  0  0  0  0  0  0  0  0
   -1.4326   -1.3259    1.4618 N   0  0  0  0  0  0  0  0  0  0  0  0
    3.6472    0.1320    0.3934 O   0  0  0  0  0  0  0  0  0  0  0  0
    3.0860   -2.0226    0.0490 O   0  0  0  0  0  0  0  0  0  0  0  0
   -0.5573    2.4341   -0.1335 H   0  0  0  0  0  0  0  0  0  0  0  0
    1.7866    1.6747    0.2925 H   0  0  0  0  0  0  0  0  0  0  0  0
   -2.4011    0.8041   -0.1502 H   0  0  0  0  0  0  0  0  0  0  0  0
    0.5887   -2.3778   -0.0535 H   0  0  0  0  0  0  0  0  0  0  0  0
    0.2937   -1.4676   -1.5230 H   0  0  0  0  0  0  0  0  0  0  0  0
   -1.8267   -1.5656   -0.5486 H   0  0  0  0  0  0  0  0  0  0  0  0
   -0.7578   -0.8746    2.0784 H   0  0  0  0  0  0  0  0  0  0  0  0
   -1.3453   -2.3303    1.6163 H   0  0  0  0  0  0  0  0  0  0  0  0
    4.5051   -0.3213    0.4846 H   0  0  0  0  0  0  0  0  0  0  0  0
  1  2  1  0
  2 12  1  0
  3  1  2  0
  3  6  1  0
  4 14  1  0
  4  5  1  0
  4  6  1  0
  5  2  2  0
  5  7  1  0
  6 16  1  6
  6  8  1  0
  7  9  1  0
  8 18  1  0
  8 17  1  0
  9 19  1  0
 10  7  2  0
 11  1  1  0
 13  3  1  0
 15  4  1  0
M  END
>  <HBA>  (620) 
3

>  <HBD>  (620) 
2

>  <TPSA>  (620) 
63.32

>  <cid>  (620) 
3445

>  <dipole>  (620) 
1.16

>  <excitation_energy_1>  (620) 
3.916

>  <excitation_energy_2>  (620) 
4.276

>  <excitation_energy_3>  (620) 
4.494

>  <excitation_energy_4>  (620) 
5.663

>  <homo_energy>  (620) 
-6.31

>  <homo_lumo_gap>  (620) 
4.563

>  <logP>  (620) 
0.985

>  <lumo_energy>  (620) 
-1.747

>  <melting_point>  (620) 
149.76

>  <molecular_refractivity>  (620) 
37.18

>  <oscillator_strength_1>  (620) 
0.0138

>  <oscillator_strength_2>  (620) 
0.2669

>  <oscillator_strength_3>  (620) 
0.004

>  <oscillator_strength_4>  (620) 
0.0135

>  <open_babel_can_smiles>  (620) 
N[C@H]1C=CC=C(C1)C(=O)O

>  <mulliken_charges>  (620) 
19
1   -0.121586
2   -0.159382
3   -0.09577
4   -0.342688
5   0.069926
6   -0.039786
7   0.534276
8   -0.703601
9   -0.58681
10   -0.481824
11   0.136686
12   0.164197
13   0.147794
14   0.165675
15   0.159628
16   0.143728
17   0.302001
18   0.29824
19   0.409295

>  <lowdin_charges>  (620) 
19
1   -0.173659
2   -0.132396
3   -0.131015
4   -0.28733
5   -0.054269
6   -0.068409
7   0.184973
8   -0.544566
9   -0.367336
10   -0.279275
11   0.159745
12   0.175406
13   0.16453
14   0.165658
15   0.160255
16   0.153352
17   0.259001
18   0.253583
19   0.361752

$$$$
PCCDB-ID:  3446
     RDKit          3D

 29 29  0  0  0  0  0  0  0  0999 V2000
    0.6992    1.3858   -0.4113 C   0  0  0  0  0  0  0  0  0  0  0  0
    1.5024    0.1294   -0.0457 C   0  0  0  0  0  0  0  0  0  0  0  0
   -0.6438    1.4261    0.3323 C   0  0  0  0  0  0  0  0  0  0  0  0
    0.6738   -1.1493   -0.2599 C   0  0  0  0  0  0  0  0  0  0  0  0
   -1.4608    0.1456    0.0924 C   0  0  0  0  0  0  0  0  0  0  0  0
   -1.4916   -2.4056   -0.0612 C   0  0  0  0  0  0  0  0  0  0  0  0
   -0.4418   -1.2751    1.9825 C   0  0  0  0  0  0  0  0  0  0  0  0
   -3.0293   -2.4010   -0.0195 C   0  0  0  0  0  0  0  0  0  0  0  0
   -0.7060   -1.1591    0.4602 C   0  0  0  0  0  0  0  0  0  0  0  0
   -1.6773   -1.2479    2.7952 N   0  0  0  0  0  0  0  0  0  0  0  0
   -3.6839   -2.6097   -1.0187 O   0  0  0  0  0  0  0  0  0  0  0  0
   -3.6146   -2.1989    1.1684 O   0  0  0  0  0  0  0  0  0  0  0  0
    0.5075    1.3883   -1.4943 H   0  0  0  0  0  0  0  0  0  0  0  0
    1.2837    2.2889   -0.1951 H   0  0  0  0  0  0  0  0  0  0  0  0
    1.8429    0.2019    0.9963 H   0  0  0  0  0  0  0  0  0  0  0  0
    2.4129    0.0716   -0.6555 H   0  0  0  0  0  0  0  0  0  0  0  0
   -1.2300    2.2960    0.0111 H   0  0  0  0  0  0  0  0  0  0  0  0
   -0.4595    1.5659    1.4083 H   0  0  0  0  0  0  0  0  0  0  0  0
    1.2534   -2.0340    0.0398 H   0  0  0  0  0  0  0  0  0  0  0  0
    0.4885   -1.2582   -1.3371 H   0  0  0  0  0  0  0  0  0  0  0  0
   -1.7246    0.0896   -0.9730 H   0  0  0  0  0  0  0  0  0  0  0  0
   -2.4173    0.1937    0.6269 H   0  0  0  0  0  0  0  0  0  0  0  0
   -1.2525   -2.5582   -1.1164 H   0  0  0  0  0  0  0  0  0  0  0  0
   -1.1426   -3.3007    0.4744 H   0  0  0  0  0  0  0  0  0  0  0  0
    0.2627   -0.4990    2.3071 H   0  0  0  0  0  0  0  0  0  0  0  0
    0.0451   -2.2390    2.1711 H   0  0  0  0  0  0  0  0  0  0  0  0
   -2.0035   -0.2899    2.9144 H   0  0  0  0  0  0  0  0  0  0  0  0
   -1.4943   -1.6072    3.7302 H   0  0  0  0  0  0  0  0  0  0  0  0
   -2.9238   -1.9797    1.8643 H   0  0  0  0  0  0  0  0  0  0  0  0
  1 14  1  0
  1  2  1  0
  1  3  1  0
  2 15  1  0
  3 18  1  0
  4  2  1  0
  4 19  1  0
  4  9  1  0
  5  3  1  0
  5  9  1  0
  5 22  1  0
  6  8  1  0
  6  9  1  0
  6 24  1  0
  7 26  1  0
  7 25  1  0
  7 10  1  0
  8 12  1  0
  9  7  1  0
 10 27  1  0
 10 28  1  0
 11  8  2  0
 12 29  1  0
 13  1  1  0
 16  2  1  0
 17  3  1  0
 20  4  1  0
 21  5  1  0
 23  6  1  0
M  END
>  <HBA>  (621) 
3

>  <HBD>  (621) 
2

>  <TPSA>  (621) 
63.32

>  <cid>  (621) 
3446

>  <dipole>  (621) 
7.05

>  <excitation_energy_1>  (621) 
5.464

>  <excitation_energy_2>  (621) 
5.651

>  <excitation_energy_3>  (621) 
6.314

>  <excitation_energy_4>  (621) 
6.363

>  <homo_energy>  (621) 
-6.359

>  <homo_lumo_gap>  (621) 
7.328

>  <logP>  (621) 
2.071

>  <lumo_energy>  (621) 
0.969

>  <melting_point>  (621) 
144.12

>  <molecular_refractivity>  (621) 
47.48

>  <oscillator_strength_1>  (621) 
0.0016

>  <oscillator_strength_2>  (621) 
0.0039

>  <oscillator_strength_3>  (621) 
0.009

>  <oscillator_strength_4>  (621) 
0.005

>  <open_babel_can_smiles>  (621) 
NCC1(CCCCC1)CC(=O)O

>  <mulliken_charges>  (621) 
29
1   -0.254437
2   -0.269485
3   -0.26907
4   -0.273026
5   -0.296311
6   -0.393135
7   -0.154626
8   0.578357
9   0.094041
10   -0.778195
11   -0.467086
12   -0.609443
13   0.135407
14   0.133522
15   0.130081
16   0.138303
17   0.14188
18   0.119061
19   0.129825
20   0.140966
21   0.153629
22   0.142597
23   0.169459
24   0.149959
25   0.143229
26   0.148458
27   0.331248
28   0.327463
29   0.457327

>  <lowdin_charges>  (621) 
29
1   -0.275868
2   -0.280317
3   -0.27915
4   -0.276699
5   -0.287312
6   -0.319808
7   -0.214994
8   0.183344
9   -0.002414
10   -0.525786
11   -0.273107
12   -0.390702
13   0.139532
14   0.145574
15   0.135096
16   0.148568
17   0.150442
18   0.129653
19   0.143281
20   0.145486
21   0.152817
22   0.147838
23   0.168347
24   0.158374
25   0.137808
26   0.148465
27   0.270073
28   0.272134
29   0.349327

$$$$
PCCDB-ID:  3448
     RDKit          3D

 18 19  0  0  0  0  0  0  0  0999 V2000
   -0.6830    1.7419   -0.0874 C   0  0  0  0  0  0  0  0  0  0  0  0
   -2.0017    1.0232    0.3090 C   0  0  0  0  0  0  0  0  0  0  0  0
   -1.1481   -1.2614    0.0370 C   0  0  0  0  0  0  0  0  0  0  0  0
    0.4261    0.7308   -0.0486 C   0  0  0  0  0  0  0  0  0  0  0  0
    0.2011   -0.6086    0.0015 C   0  0  0  0  0  0  0  0  0  0  0  0
    1.8548    0.8057   -0.0375 C   0  0  0  0  0  0  0  0  0  0  0  0
   -2.1974   -0.2919   -0.3129 N   0  0  0  0  0  0  0  0  0  0  0  0
    2.4330   -0.3736    0.0227 N   0  0  0  0  0  0  0  0  0  0  0  0
    2.6337    1.9113   -0.0731 O   0  0  0  0  0  0  0  0  0  0  0  0
    1.3558   -1.2928    0.0489 O   0  0  0  0  0  0  0  0  0  0  0  0
   -0.5017    2.5782    0.6036 H   0  0  0  0  0  0  0  0  0  0  0  0
   -0.7838    2.1838   -1.0906 H   0  0  0  0  0  0  0  0  0  0  0  0
   -2.8630    1.6511    0.0579 H   0  0  0  0  0  0  0  0  0  0  0  0
   -2.0133    0.8752    1.3960 H   0  0  0  0  0  0  0  0  0  0  0  0
   -1.3483   -1.6596    1.0420 H   0  0  0  0  0  0  0  0  0  0  0  0
   -1.1998   -2.1113   -0.6523 H   0  0  0  0  0  0  0  0  0  0  0  0
   -2.2166   -0.1813   -1.3258 H   0  0  0  0  0  0  0  0  0  0  0  0
    2.0582    2.6898   -0.1159 H   0  0  0  0  0  0  0  0  0  0  0  0
  1  4  1  0
  1  2  1  0
  1 11  1  0
  2 14  1  0
  3 15  1  0
  4  6  1  0
  4  5  2  0
  5  3  1  0
  5 10  1  0
  6  8  2  0
  7  3  1  0
  7  2  1  0
  8 10  1  0
  9  6  1  0
 12  1  1  0
 13  2  1  0
 16  3  1  0
 17  7  1  0
 18  9  1  0
M  END
>  <HBA>  (622) 
3

>  <HBD>  (622) 
2

>  <TPSA>  (622) 
58.03

>  <cid>  (622) 
3448

>  <dipole>  (622) 
4.78

>  <excitation_energy_1>  (622) 
5.429

>  <excitation_energy_2>  (622) 
5.496

>  <excitation_energy_3>  (622) 
5.629

>  <excitation_energy_4>  (622) 
5.806

>  <homo_energy>  (622) 
-6.514

>  <homo_lumo_gap>  (622) 
6.485

>  <logP>  (622) 
-0.058

>  <lumo_energy>  (622) 
-0.03

>  <melting_point>  (622) 
143.03

>  <molecular_refractivity>  (622) 
38.67

>  <oscillator_strength_1>  (622) 
0.0091

>  <oscillator_strength_2>  (622) 
0.0074

>  <oscillator_strength_3>  (622) 
0.0067

>  <oscillator_strength_4>  (622) 
0.0024

>  <open_babel_can_smiles>  (622) 
Oc1noc2c1CCNC2

>  <mulliken_charges>  (622) 
18
1   -0.362713
2   -0.157604
3   -0.224332
4   0.003736
5   0.365388
6   0.4564
7   -0.528028
8   -0.230787
9   -0.610288
10   -0.39356
11   0.143836
12   0.151057
13   0.152397
14   0.159209
15   0.179704
16   0.175248
17   0.302057
18   0.418281

>  <lowdin_charges>  (622) 
18
1   -0.292911
2   -0.200906
3   -0.203625
4   -0.13087
5   0.061586
6   0.093049
7   -0.347346
8   -0.1091
9   -0.351312
10   -0.075903
11   0.151367
12   0.148006
13   0.154043
14   0.148915
15   0.163458
16   0.168936
17   0.254814
18   0.367799

$$$$
PCCDB-ID:  3452
     RDKit          3D

 18 17  0  0  1  0  0  0  0  0999 V2000
    0.7721   -0.5889    0.3402 C   0  0  0  0  0  0  0  0  0  0  0  0
    1.9517   -0.4062    0.1543 C   0  0  0  0  0  0  0  0  0  0  0  0
    3.9627    0.6439    1.1761 C   0  0  0  0  0  0  0  0  0  0  0  0
    3.3169    2.0168    1.3813 C   0  0  0  0  0  0  0  0  0  0  0  0
    3.3916   -0.1605   -0.0232 C   0  0  1  0  0  0  0  0  0  0  0  0
    3.6627    3.0116    0.2781 C   0  0  0  0  0  0  0  0  0  0  0  0
    4.0829   -1.4333   -0.2758 N   0  0  0  0  0  0  0  0  0  0  0  0
    4.4779    2.8230   -0.5912 O   0  0  0  0  0  0  0  0  0  0  0  0
    2.9952    4.1959    0.3327 O   0  0  0  0  0  0  0  0  0  0  0  0
   -0.2689   -0.7752    0.4771 H   0  0  0  0  0  0  0  0  0  0  0  0
    3.8378    0.0473    2.0882 H   0  0  0  0  0  0  0  0  0  0  0  0
    5.0368    0.7781    1.0060 H   0  0  0  0  0  0  0  0  0  0  0  0
    3.6498    2.4549    2.3333 H   0  0  0  0  0  0  0  0  0  0  0  0
    2.2252    1.9142    1.4499 H   0  0  0  0  0  0  0  0  0  0  0  0
    3.5281    0.4528   -0.9225 H   0  0  0  0  0  0  0  0  0  0  0  0
    4.0452   -2.0149    0.5612 H   0  0  0  0  0  0  0  0  0  0  0  0
    5.0677   -1.2413   -0.4561 H   0  0  0  0  0  0  0  0  0  0  0  0
    2.3668    4.1900    1.0739 H   0  0  0  0  0  0  0  0  0  0  0  0
  1 10  1  0
  2  1  3  0
  3  4  1  0
  3 11  1  0
  4 14  1  0
  4 13  1  0
  5 15  1  6
  5  2  1  0
  5  3  1  0
  6  9  1  0
  6  4  1  0
  7  5  1  0
  7 16  1  0
  8  6  2  0
  9 18  1  0
 12  3  1  0
 17  7  1  0
M  END
>  <HBA>  (623) 
3

>  <HBD>  (623) 
2

>  <TPSA>  (623) 
63.32

>  <cid>  (623) 
3452

>  <dipole>  (623) 
4.48

>  <excitation_energy_1>  (623) 
5.685

>  <excitation_energy_2>  (623) 
5.752

>  <excitation_energy_3>  (623) 
5.831

>  <excitation_energy_4>  (623) 
5.939

>  <homo_energy>  (623) 
-6.566

>  <homo_lumo_gap>  (623) 
6.7

>  <logP>  (623) 
0.512

>  <lumo_energy>  (623) 
0.133

>  <melting_point>  (623) 
122.19

>  <molecular_refractivity>  (623) 
33.6

>  <oscillator_strength_1>  (623) 
0.0046

>  <oscillator_strength_2>  (623) 
0.0177

>  <oscillator_strength_3>  (623) 
0.0053

>  <oscillator_strength_4>  (623) 
0.0155

>  <open_babel_can_smiles>  (623) 
N[C@@H](C#C)CCC(=O)O

>  <mulliken_charges>  (623) 
18
1   -0.500442
2   0.360002
3   -0.257378
4   -0.415108
5   -0.1366
6   0.612373
7   -0.698588
8   -0.442327
9   -0.564574
10   0.190289
11   0.136298
12   0.157115
13   0.174424
14   0.175877
15   0.19556
16   0.297279
17   0.304987
18   0.410812

>  <lowdin_charges>  (623) 
18
1   -0.258542
2   -0.037645
3   -0.281504
4   -0.327229
5   -0.058768
6   0.196585
7   -0.531359
8   -0.242164
9   -0.354839
10   0.203823
11   0.149107
12   0.155801
13   0.170351
14   0.16706
15   0.176415
16   0.255624
17   0.257579
18   0.359706

$$$$
PCCDB-ID:  3470
     RDKit          3D

 39 39  0  0  1  0  0  0  0  0999 V2000
    1.1731    0.9055   -0.5598 C   0  0  0  0  0  0  0  0  0  0  0  0
    2.1265   -0.9809   -1.8416 C   0  0  0  0  0  0  0  0  0  0  0  0
    2.0525   -0.1501    4.7128 C   0  0  0  0  0  0  0  0  0  0  0  0
    5.3349    1.0207    3.5963 C   0  0  0  0  0  0  0  0  0  0  0  0
    2.5481    2.8468    4.1097 C   0  0  0  0  0  0  0  0  0  0  0  0
    1.5227    1.9663    3.4531 C   0  0  0  0  0  0  0  0  0  0  0  0
    3.7937    3.0294    3.1619 C   0  0  0  0  0  0  0  0  0  0  0  0
    0.6050   -0.1913    2.6122 C   0  0  0  0  0  0  0  0  0  0  0  0
    3.7634    1.1350    1.6104 C   0  0  0  0  0  0  0  0  0  0  0  0
    1.4310   -1.2515    1.8262 C   0  0  0  0  0  0  0  0  0  0  0  0
    3.8289   -0.2777    1.1084 C   0  0  0  0  0  0  0  0  0  0  0  0
    1.8594   -0.2442   -0.5480 C   0  0  0  0  0  0  0  0  0  0  0  0
    1.3915    0.6382    3.6045 C   0  0  0  0  0  0  0  0  0  0  0  0
    4.3272    1.6904    2.6954 C   0  0  0  0  0  0  0  0  0  0  0  0
    2.4530   -0.9124    0.6939 C   0  0  2  0  0  0  0  0  0  0  0  0
    0.7957    1.3208   -1.4917 H   0  0  0  0  0  0  0  0  0  0  0  0
    0.9650    1.4796    0.3350 H   0  0  0  0  0  0  0  0  0  0  0  0
    1.7372   -0.4408   -2.7104 H   0  0  0  0  0  0  0  0  0  0  0  0
    1.6696   -1.9804   -1.8273 H   0  0  0  0  0  0  0  0  0  0  0  0
    3.2044   -1.1350   -1.9920 H   0  0  0  0  0  0  0  0  0  0  0  0
    2.3948    0.4833    5.5348 H   0  0  0  0  0  0  0  0  0  0  0  0
    2.9207   -0.7168    4.3524 H   0  0  0  0  0  0  0  0  0  0  0  0
    1.3494   -0.8839    5.1299 H   0  0  0  0  0  0  0  0  0  0  0  0
    4.9856    0.9791    4.6371 H   0  0  0  0  0  0  0  0  0  0  0  0
    6.2740    1.5921    3.6089 H   0  0  0  0  0  0  0  0  0  0  0  0
    5.5775    0.0015    3.2820 H   0  0  0  0  0  0  0  0  0  0  0  0
    2.8867    2.4281    5.0634 H   0  0  0  0  0  0  0  0  0  0  0  0
    2.1409    3.8427    4.3285 H   0  0  0  0  0  0  0  0  0  0  0  0
    0.9832    2.4330    2.6263 H   0  0  0  0  0  0  0  0  0  0  0  0
    4.5548    3.6130    3.6970 H   0  0  0  0  0  0  0  0  0  0  0  0
    3.4783    3.6279    2.2986 H   0  0  0  0  0  0  0  0  0  0  0  0
   -0.1628   -0.7679    3.1521 H   0  0  0  0  0  0  0  0  0  0  0  0
    0.0630    0.4549    1.9152 H   0  0  0  0  0  0  0  0  0  0  0  0
    3.0949    1.7703    1.0329 H   0  0  0  0  0  0  0  0  0  0  0  0
    0.6935   -1.9176    1.3580 H   0  0  0  0  0  0  0  0  0  0  0  0
    1.9652   -1.8781    2.5535 H   0  0  0  0  0  0  0  0  0  0  0  0
    4.2923   -0.9398    1.8505 H   0  0  0  0  0  0  0  0  0  0  0  0
    4.4687   -0.3326    0.2130 H   0  0  0  0  0  0  0  0  0  0  0  0
    2.7509   -1.9164    0.3572 H   0  0  0  0  0  0  0  0  0  0  0  0
  1 12  2  3
  1 17  1  0
  2 19  1  0
  2 12  1  0
  3 23  1  0
  3 21  1  0
  4 25  1  0
  4 24  1  0
  5 28  1  0
  5 27  1  0
  6 13  2  0
  6  5  1  0
  7 30  1  0
  7  5  1  0
  8 32  1  0
  8 13  1  0
  9 14  2  0
 10 36  1  0
 10  8  1  0
 11  9  1  0
 11 37  1  0
 12 15  1  0
 13  3  1  0
 14  7  1  0
 14  4  1  0
 15 39  1  6
 15 11  1  0
 15 10  1  0
 16  1  1  0
 18  2  1  0
 20  2  1  0
 22  3  1  0
 26  4  1  0
 29  6  1  0
 31  7  1  0
 33  8  1  0
 34  9  1  0
 35 10  1  0
 38 11  1  0
M  END
>  <HBA>  (624) 
0

>  <HBD>  (624) 
0

>  <TPSA>  (624) 
0.0

>  <cid>  (624) 
3470

>  <dipole>  (624) 
0.86

>  <excitation_energy_1>  (624) 
5.144

>  <excitation_energy_2>  (624) 
5.248

>  <excitation_energy_3>  (624) 
5.323

>  <excitation_energy_4>  (624) 
5.348

>  <homo_energy>  (624) 
-5.627

>  <homo_lumo_gap>  (624) 
6.212

>  <logP>  (624) 
5.035

>  <lumo_energy>  (624) 
0.585

>  <melting_point>  (624) 
-0.72

>  <molecular_refractivity>  (624) 
70.68

>  <oscillator_strength_1>  (624) 
0.0011

>  <oscillator_strength_2>  (624) 
0.0058

>  <oscillator_strength_3>  (624) 
0.0331

>  <oscillator_strength_4>  (624) 
0.0072

>  <open_babel_can_smiles>  (624) 
C/C/1=C\CC/C(=C/C[C@@H](CC1)C(=C)C)/C

>  <mulliken_charges>  (624) 
39
1   -0.401773
2   -0.515815
3   -0.524798
4   -0.520327
5   -0.300455
6   -0.173772
7   -0.333244
8   -0.329397
9   -0.134608
10   -0.265213
11   -0.311815
12   0.219649
13   0.22052
14   0.182103
15   -0.154161
16   0.129606
17   0.14459
18   0.151017
19   0.153258
20   0.153663
21   0.152607
22   0.160347
23   0.145124
24   0.148395
25   0.151614
26   0.148796
27   0.136772
28   0.135527
29   0.108589
30   0.129458
31   0.141304
32   0.129585
33   0.14178
34   0.117568
35   0.134234
36   0.130723
37   0.132111
38   0.14017
39   0.126267

>  <lowdin_charges>  (624) 
39
1   -0.371776
2   -0.439367
3   -0.450435
4   -0.443465
5   -0.274931
6   -0.188797
7   -0.274671
8   -0.279208
9   -0.185854
10   -0.276428
11   -0.272561
12   0.007331
13   -0.00695
14   -0.019936
15   -0.123814
16   0.153442
17   0.156935
18   0.154837
19   0.153709
20   0.152335
21   0.155968
22   0.157653
23   0.153245
24   0.14978
25   0.155252
26   0.1517
27   0.144296
28   0.146687
29   0.142213
30   0.143641
31   0.148573
32   0.145476
33   0.151518
34   0.152944
35   0.14814
36   0.143362
37   0.144738
38   0.148846
39   0.145571

$$$$
PCCDB-ID:  3483
     RDKit          3D

 20 21  0  0  1  0  0  0  0  0999 V2000
   -1.5170   -1.0416   -0.1825 C   0  0  1  0  0  0  0  0  0  0  0  0
    1.4669    0.9407   -0.2012 C   0  0  1  0  0  0  0  0  0  0  0  0
   -0.0896   -0.8541   -0.7147 C   0  0  1  0  0  0  0  0  0  0  0  0
    0.0711    0.6821   -0.7590 C   0  0  1  0  0  0  0  0  0  0  0  0
   -1.6313    0.1406    0.7950 C   0  0  1  0  0  0  0  0  0  0  0  0
    1.8177   -0.3559    0.5380 C   0  0  0  0  0  0  0  0  0  0  0  0
   -2.4468   -0.9400   -1.2460 O   0  0  0  0  0  0  0  0  0  0  0  0
    2.3702    1.1042   -1.2856 O   0  0  0  0  0  0  0  0  0  0  0  0
   -1.1056   -0.1110    2.0639 O   0  0  0  0  0  0  0  0  0  0  0  0
    2.7787   -0.5663    1.2277 O   0  0  0  0  0  0  0  0  0  0  0  0
    0.8816   -1.3194    0.2606 O   0  0  0  0  0  0  0  0  0  0  0  0
   -0.9628    1.2024    0.0892 O   0  0  0  0  0  0  0  0  0  0  0  0
   -1.6720   -2.0102    0.2971 H   0  0  0  0  0  0  0  0  0  0  0  0
    1.4728    1.7939    0.4875 H   0  0  0  0  0  0  0  0  0  0  0  0
    0.0852   -1.3730   -1.6583 H   0  0  0  0  0  0  0  0  0  0  0  0
   -0.0329    1.1163   -1.7567 H   0  0  0  0  0  0  0  0  0  0  0  0
   -2.6585    0.4787    0.9433 H   0  0  0  0  0  0  0  0  0  0  0  0
   -2.5141   -0.0010   -1.4888 H   0  0  0  0  0  0  0  0  0  0  0  0
    3.2699    1.0890   -0.9180 H   0  0  0  0  0  0  0  0  0  0  0  0
   -0.3563   -0.7242    1.9853 H   0  0  0  0  0  0  0  0  0  0  0  0
  1 13  1  1
  1  5  1  0
  2 14  1  1
  2  6  1  0
  3 15  1  6
  3  1  1  0
  3 11  1  0
  4 16  1  6
  4  3  1  0
  4  2  1  0
  4 12  1  0
  5 17  1  1
  5  9  1  0
  6 10  2  0
  7  1  1  0
  8 19  1  0
  8  2  1  0
 11  6  1  0
 12  5  1  0
 18  7  1  0
 20  9  1  0
M  END
>  <HBA>  (625) 
6

>  <HBD>  (625) 
3

>  <TPSA>  (625) 
96.22

>  <cid>  (625) 
3483

>  <dipole>  (625) 
2.13

>  <excitation_energy_1>  (625) 
5.201

>  <excitation_energy_2>  (625) 
6.198

>  <excitation_energy_3>  (625) 
6.329

>  <excitation_energy_4>  (625) 
6.58

>  <homo_energy>  (625) 
-7.535

>  <homo_lumo_gap>  (625) 
6.817

>  <logP>  (625) 
-2.649

>  <lumo_energy>  (625) 
-0.718

>  <melting_point>  (625) 
77.94

>  <molecular_refractivity>  (625) 
32.58

>  <oscillator_strength_1>  (625) 
0.0009

>  <oscillator_strength_2>  (625) 
0.0062

>  <oscillator_strength_3>  (625) 
0.0041

>  <oscillator_strength_4>  (625) 
0.0008

>  <open_babel_can_smiles>  (625) 
O[C@@H]1[C@@H](O)O[C@@H]2[C@H]1OC(=O)[C@H]2O

>  <mulliken_charges>  (625) 
20
1   0.083275
2   0.041974
3   0.058563
4   0.102506
5   0.290038
6   0.587104
7   -0.620607
8   -0.621866
9   -0.609469
10   -0.443635
11   -0.482697
12   -0.503369
13   0.174727
14   0.183244
15   0.18551
16   0.173159
17   0.164319
18   0.407757
19   0.414572
20   0.414895

>  <lowdin_charges>  (625) 
20
1   -0.036249
2   -0.040857
3   -0.030874
4   -0.024729
5   0.069267
6   0.170025
7   -0.436712
8   -0.440606
9   -0.431149
10   -0.216962
11   -0.19498
12   -0.271774
13   0.166348
14   0.166992
15   0.171828
16   0.164254
17   0.157547
18   0.34949
19   0.359626
20   0.349514

$$$$
PCCDB-ID:  3484
     RDKit          3D

 21 20  0  0  1  0  0  0  0  0999 V2000
    1.2908   -0.0958    0.1198 C   0  0  0  0  0  0  0  0  0  0  0  0
    0.6361    1.2868    0.3475 C   0  0  0  0  0  0  0  0  0  0  0  0
    2.8266   -0.1324   -0.0383 C   0  0  1  0  0  0  0  0  0  0  0  0
    1.0586    1.9706    1.6186 C   0  0  0  0  0  0  0  0  0  0  0  0
    3.3193    0.8205   -1.1513 C   0  0  0  0  0  0  0  0  0  0  0  0
    3.6607    0.0934    1.1548 N   0  0  0  0  0  0  0  0  0  0  0  0
    0.5372    1.8463    2.7793 N   0  0  0  0  0  0  0  0  0  0  0  0
    2.1872    2.7562    1.5856 O   0  0  0  0  0  0  0  0  0  0  0  0
    2.6560    1.1188   -2.1195 O   0  0  0  0  0  0  0  0  0  0  0  0
    4.5630    1.2790   -0.9496 O   0  0  0  0  0  0  0  0  0  0  0  0
   -0.5329    0.9169    2.7433 O   0  0  0  0  0  0  0  0  0  0  0  0
    0.8570   -0.5091   -0.7966 H   0  0  0  0  0  0  0  0  0  0  0  0
    1.0105   -0.7638    0.9421 H   0  0  0  0  0  0  0  0  0  0  0  0
   -0.4471    1.1470    0.3862 H   0  0  0  0  0  0  0  0  0  0  0  0
    0.8570    1.9312   -0.5118 H   0  0  0  0  0  0  0  0  0  0  0  0
    3.0818   -1.1388   -0.3988 H   0  0  0  0  0  0  0  0  0  0  0  0
    3.3415    0.9081    1.6779 H   0  0  0  0  0  0  0  0  0  0  0  0
    3.6442   -0.7092    1.7784 H   0  0  0  0  0  0  0  0  0  0  0  0
    2.3183    3.0768    0.6784 H   0  0  0  0  0  0  0  0  0  0  0  0
    4.8307    0.8972   -0.0727 H   0  0  0  0  0  0  0  0  0  0  0  0
   -0.8733    0.9811    3.6486 H   0  0  0  0  0  0  0  0  0  0  0  0
  1  2  1  0
  1 13  1  0
  2 14  1  0
  2  4  1  0
  3 16  1  6
  3  1  1  0
  3  6  1  0
  4  7  2  0
  5 10  1  0
  5  3  1  0
  6 17  1  0
  6 18  1  0
  8  4  1  0
  9  5  2  0
 10 20  1  0
 11  7  1  0
 11 21  1  0
 12  1  1  0
 15  2  1  0
 19  8  1  0
M  END
>  <HBA>  (626) 
6

>  <HBD>  (626) 
4

>  <TPSA>  (626) 
112.65

>  <cid>  (626) 
3484

>  <dipole>  (626) 
3.55

>  <excitation_energy_1>  (626) 
5.408

>  <excitation_energy_2>  (626) 
5.602

>  <excitation_energy_3>  (626) 
5.884

>  <excitation_energy_4>  (626) 
6.065

>  <homo_energy>  (626) 
-6.555

>  <homo_lumo_gap>  (626) 
6.615

>  <logP>  (626) 
-0.225

>  <lumo_energy>  (626) 
0.06

>  <melting_point>  (626) 
207.98

>  <molecular_refractivity>  (626) 
34.36

>  <oscillator_strength_1>  (626) 
0.002

>  <oscillator_strength_2>  (626) 
0.0021

>  <oscillator_strength_3>  (626) 
0.0028

>  <oscillator_strength_4>  (626) 
0.0023

>  <open_babel_can_smiles>  (626) 
O/N=C(\CC[C@@H](C(=O)O)N)/O

>  <mulliken_charges>  (626) 
21
1   -0.255606
2   -0.352611
3   -0.103412
4   0.480163
5   0.5996
6   -0.793635
7   -0.231226
8   -0.60092
9   -0.471809
10   -0.580488
11   -0.522296
12   0.169826
13   0.158979
14   0.190107
15   0.170362
16   0.181103
17   0.357985
18   0.323923
19   0.424064
20   0.434148
21   0.421746

>  <lowdin_charges>  (626) 
21
1   -0.277257
2   -0.307341
3   -0.113591
4   0.089381
5   0.169285
6   -0.558615
7   -0.093824
8   -0.376776
9   -0.264965
10   -0.354831
11   -0.390691
12   0.168416
13   0.157886
14   0.179238
15   0.166921
16   0.171017
17   0.278846
18   0.273639
19   0.364338
20   0.361672
21   0.357253

$$$$
PCCDB-ID:  3485
     RDKit          3D

 15 14  0  0  0  0  0  0  0  0999 V2000
    1.4150   -0.8052    0.4151 C   0  0  0  0  0  0  0  0  0  0  0  0
    0.8776   -1.7318    1.5077 C   0  0  0  0  0  0  0  0  0  0  0  0
    2.9400   -0.8312    0.2824 C   0  0  0  0  0  0  0  0  0  0  0  0
   -0.6163   -1.6295    1.7076 C   0  0  0  0  0  0  0  0  0  0  0  0
    3.5203   -2.1291   -0.2339 C   0  0  0  0  0  0  0  0  0  0  0  0
   -1.3476   -0.8864    1.0899 O   0  0  0  0  0  0  0  0  0  0  0  0
    2.8763   -3.1138   -0.5262 O   0  0  0  0  0  0  0  0  0  0  0  0
    1.0882    0.2199    0.6198 H   0  0  0  0  0  0  0  0  0  0  0  0
    0.9625   -1.0854   -0.5419 H   0  0  0  0  0  0  0  0  0  0  0  0
    1.3507   -1.5280    2.4827 H   0  0  0  0  0  0  0  0  0  0  0  0
    1.1139   -2.7809    1.2830 H   0  0  0  0  0  0  0  0  0  0  0  0
    3.4377   -0.6084    1.2403 H   0  0  0  0  0  0  0  0  0  0  0  0
    3.2864   -0.0397   -0.4007 H   0  0  0  0  0  0  0  0  0  0  0  0
   -1.0291   -2.3054    2.4911 H   0  0  0  0  0  0  0  0  0  0  0  0
    4.6289   -2.1300   -0.3441 H   0  0  0  0  0  0  0  0  0  0  0  0
  1  8  1  0
  1  2  1  0
  2  4  1  0
  2 10  1  0
  3  1  1  0
  3 12  1  0
  4 14  1  0
  5  3  1  0
  6  4  2  0
  7  5  2  0
  9  1  1  0
 11  2  1  0
 13  3  1  0
 15  5  1  0
M  END
>  <HBA>  (627) 
2

>  <HBD>  (627) 
0

>  <TPSA>  (627) 
34.14

>  <cid>  (627) 
3485

>  <dipole>  (627) 
3.38

>  <excitation_energy_1>  (627) 
4.316

>  <excitation_energy_2>  (627) 
4.358

>  <excitation_energy_3>  (627) 
5.418

>  <excitation_energy_4>  (627) 
5.834

>  <homo_energy>  (627) 
-6.893

>  <homo_lumo_gap>  (627) 
6.109

>  <logP>  (627) 
0.554

>  <lumo_energy>  (627) 
-0.784

>  <melting_point>  (627) 
37.55

>  <molecular_refractivity>  (627) 
26.55

>  <oscillator_strength_1>  (627) 
0.0002

>  <oscillator_strength_2>  (627) 
0.0002

>  <oscillator_strength_3>  (627) 
0.0008

>  <oscillator_strength_4>  (627) 
0.0044

>  <open_babel_can_smiles>  (627) 
O=CCCCC=O

>  <mulliken_charges>  (627) 
15
1   -0.246232
2   -0.356174
3   -0.358439
4   0.252873
5   0.255712
6   -0.383982
7   -0.382636
8   0.156139
9   0.169408
10   0.153557
11   0.193255
12   0.161415
13   0.169928
14   0.106
15   0.109176

>  <lowdin_charges>  (627) 
15
1   -0.268126
2   -0.316877
3   -0.316187
4   0.058083
5   0.06158
6   -0.221385
7   -0.221946
8   0.156966
9   0.163344
10   0.159316
11   0.177544
12   0.163593
13   0.171239
14   0.117283
15   0.115573

$$$$
PCCDB-ID:  3496
     RDKit          3D

 18 17  0  0  0  0  0  0  0  0999 V2000
    1.1075   -0.1712    0.4757 C   0  0  0  0  0  0  0  0  0  0  0  0
    2.9899   -1.0562   -0.8460 C   0  0  0  0  0  0  0  0  0  0  0  0
    0.8129    0.8633    1.5728 C   0  0  0  0  0  0  0  0  0  0  0  0
    2.5412   -0.4732    0.4161 N   0  0  0  0  0  0  0  0  0  0  0  0
   -0.2920    1.0441    2.0215 O   0  0  0  0  0  0  0  0  0  0  0  0
    1.8923    1.5657    1.9572 O   0  0  0  0  0  0  0  0  0  0  0  0
    5.0097   -2.1084    0.5035 O   0  0  0  0  0  0  0  0  0  0  0  0
    4.9610   -2.3089   -2.0871 O   0  0  0  0  0  0  0  0  0  0  0  0
    5.6907   -0.0610   -0.9763 O   0  0  0  0  0  0  0  0  0  0  0  0
    4.8060   -1.2470   -0.8640 P   0  0  0  0  0  0  0  0  0  0  0  0
    0.8068    0.2798   -0.4780 H   0  0  0  0  0  0  0  0  0  0  0  0
    0.4615   -1.0444    0.6373 H   0  0  0  0  0  0  0  0  0  0  0  0
    2.7380   -0.3793   -1.6698 H   0  0  0  0  0  0  0  0  0  0  0  0
    2.5405   -2.0362   -1.0751 H   0  0  0  0  0  0  0  0  0  0  0  0
    2.7939   -1.1043    1.1751 H   0  0  0  0  0  0  0  0  0  0  0  0
    2.6476    1.2129    1.4295 H   0  0  0  0  0  0  0  0  0  0  0  0
    5.8757   -1.9195    0.9037 H   0  0  0  0  0  0  0  0  0  0  0  0
    5.7670   -2.1055   -2.5917 H   0  0  0  0  0  0  0  0  0  0  0  0
  1 12  1  0
  1  3  1  0
  2  4  1  0
  3  6  1  0
  3  5  2  0
  4  1  1  0
  4 15  1  0
  7 17  1  0
  8 10  1  0
  9 10  2  0
 10  2  1  0
 10  7  1  0
 11  1  1  0
 13  2  1  0
 14  2  1  0
 16  6  1  0
 18  8  1  0
M  END
>  <HBA>  (628) 
6

>  <HBD>  (628) 
4

>  <TPSA>  (628) 
116.67

>  <cid>  (628) 
3496

>  <dipole>  (628) 
5.81

>  <excitation_energy_1>  (628) 
5.605

>  <excitation_energy_2>  (628) 
5.961

>  <excitation_energy_3>  (628) 
6.386

>  <excitation_energy_4>  (628) 
6.528

>  <homo_energy>  (628) 
-7.108

>  <homo_lumo_gap>  (628) 
7.38

>  <logP>  (628) 
-0.813

>  <lumo_energy>  (628) 
0.272

>  <melting_point>  (628) 
166.1

>  <molecular_refractivity>  (628) 
32.1

>  <oscillator_strength_1>  (628) 
0.0007

>  <oscillator_strength_2>  (628) 
0.0036

>  <oscillator_strength_3>  (628) 
0.0139

>  <oscillator_strength_4>  (628) 
0.0007

>  <open_babel_can_smiles>  (628) 
OC(=O)CNCP(=O)(O)O

>  <mulliken_charges>  (628) 
18
1   -0.234366
2   -0.325308
3   0.588177
4   -0.614973
5   -0.451943
6   -0.56898
7   -0.66263
8   -0.647621
9   -0.540367
10   1.046151
11   0.1894
12   0.177476
13   0.199482
14   0.187377
15   0.339224
16   0.430146
17   0.44469
18   0.444064

>  <lowdin_charges>  (628) 
18
1   -0.246838
2   -0.373913
3   0.176654
4   -0.357963
5   -0.246936
6   -0.353233
7   -0.580603
8   -0.57454
9   -0.590757
10   1.04813
11   0.175351
12   0.162497
13   0.185885
14   0.169065
15   0.276201
16   0.359321
17   0.385782
18   0.385896

$$$$
PCCDB-ID:  3508
     RDKit          3D

 28 28  0  0  1  0  0  0  0  0999 V2000
    1.8019    0.0979    3.0208 C   0  0  0  0  0  0  0  0  0  0  0  0
    2.5439   -0.3090    1.9901 C   0  0  0  0  0  0  0  0  0  0  0  0
    6.9779    2.9166    2.4758 C   0  0  0  0  0  0  0  0  0  0  0  0
    3.1469    0.5903    0.9463 C   0  0  0  0  0  0  0  0  0  0  0  0
    5.4850    2.5940    2.2382 C   0  0  0  0  0  0  0  0  0  0  0  0
    7.5287    1.6447    3.1406 C   0  0  0  0  0  0  0  0  0  0  0  0
    5.1571    1.0772   -0.4554 C   0  0  0  0  0  0  0  0  0  0  0  0
    4.6970    0.4862    0.8657 C   0  0  1  0  0  0  0  0  0  0  0  0
    5.3977    1.0342    2.1278 C   0  0  1  0  0  0  0  0  0  0  0  0
    6.8465    0.4978    2.3715 C   0  0  1  0  0  0  0  0  0  0  0  0
    6.1756    1.7096   -0.6567 O   0  0  0  0  0  0  0  0  0  0  0  0
    7.5471    0.1378    1.1886 O   0  0  0  0  0  0  0  0  0  0  0  0
    1.3843   -0.6040    3.7375 H   0  0  0  0  0  0  0  0  0  0  0  0
    1.5779    1.1504    3.1830 H   0  0  0  0  0  0  0  0  0  0  0  0
    2.7440   -1.3751    1.8662 H   0  0  0  0  0  0  0  0  0  0  0  0
    7.1251    3.8177    3.0803 H   0  0  0  0  0  0  0  0  0  0  0  0
    7.4797    3.0843    1.5152 H   0  0  0  0  0  0  0  0  0  0  0  0
    2.8558    1.6312    1.1370 H   0  0  0  0  0  0  0  0  0  0  0  0
    2.7276    0.3218   -0.0358 H   0  0  0  0  0  0  0  0  0  0  0  0
    5.0985    3.1071    1.3525 H   0  0  0  0  0  0  0  0  0  0  0  0
    4.8850    2.9369    3.0892 H   0  0  0  0  0  0  0  0  0  0  0  0
    7.2242    1.6136    4.1963 H   0  0  0  0  0  0  0  0  0  0  0  0
    8.6186    1.5533    3.1014 H   0  0  0  0  0  0  0  0  0  0  0  0
    4.4678    0.8788   -1.3066 H   0  0  0  0  0  0  0  0  0  0  0  0
    4.9468   -0.5858    0.7693 H   0  0  0  0  0  0  0  0  0  0  0  0
    4.7958    0.6727    2.9693 H   0  0  0  0  0  0  0  0  0  0  0  0
    6.8189   -0.4242    2.9625 H   0  0  0  0  0  0  0  0  0  0  0  0
    7.4597    0.8749    0.5579 H   0  0  0  0  0  0  0  0  0  0  0  0
  1 14  1  0
  1 13  1  0
  2  1  2  3
  3 16  1  0
  3  6  1  0
  4 18  1  0
  4  2  1  0
  5  3  1  0
  5 21  1  0
  6 22  1  0
  7  8  1  0
  8 25  1  6
  8  4  1  0
  8  9  1  0
  9  5  1  0
  9 10  1  0
  9 26  1  1
 10 27  1  1
 10  6  1  0
 11  7  2  0
 12 10  1  0
 15  2  1  0
 17  3  1  0
 19  4  1  0
 20  5  1  0
 23  6  1  0
 24  7  1  0
 28 12  1  0
M  END
>  <HBA>  (629) 
2

>  <HBD>  (629) 
1

>  <TPSA>  (629) 
37.3

>  <cid>  (629) 
3508

>  <dipole>  (629) 
3.16

>  <excitation_energy_1>  (629) 
4.222

>  <excitation_energy_2>  (629) 
4.75

>  <excitation_energy_3>  (629) 
5.35

>  <excitation_energy_4>  (629) 
6.087

>  <homo_energy>  (629) 
-6.702

>  <homo_lumo_gap>  (629) 
5.63

>  <logP>  (629) 
1.539

>  <lumo_energy>  (629) 
-1.072

>  <melting_point>  (629) 
23.1

>  <molecular_refractivity>  (629) 
48.96

>  <oscillator_strength_1>  (629) 
0.0005

>  <oscillator_strength_2>  (629) 
0.0005

>  <oscillator_strength_3>  (629) 
0.0041

>  <oscillator_strength_4>  (629) 
0.0033

>  <open_babel_can_smiles>  (629) 
C=CC[C@H]([C@@H]1CCC[C@@H]1O)C=O

>  <mulliken_charges>  (629) 
28
1   -0.338827
2   -0.041143
3   -0.284589
4   -0.32817
5   -0.280164
6   -0.280346
7   0.263646
8   -0.179331
9   -0.124849
10   0.136599
11   -0.411519
12   -0.660218
13   0.145897
14   0.141025
15   0.131442
16   0.134351
17   0.148599
18   0.155232
19   0.149254
20   0.137876
21   0.133447
22   0.125773
23   0.147659
24   0.116779
25   0.176927
26   0.144525
27   0.124529
28   0.415597

>  <lowdin_charges>  (629) 
28
1   -0.336607
2   -0.144815
3   -0.285567
4   -0.271519
5   -0.292821
6   -0.294215
7   0.06715
8   -0.159012
9   -0.156115
10   -0.006498
11   -0.226219
12   -0.479309
13   0.163243
14   0.155515
15   0.150396
16   0.146035
17   0.14639
18   0.152265
19   0.151879
20   0.146412
21   0.14336
22   0.139961
23   0.15147
24   0.126834
25   0.173295
26   0.158158
27   0.139037
28   0.341297

$$$$
PCCDB-ID:  3515
     RDKit          3D

 33 34  0  0  0  0  0  0  0  0999 V2000
    2.9003    0.4096   -1.3410 C   0  0  0  0  0  0  0  0  0  0  0  0
    0.9782   -0.6441   -0.0567 C   0  0  0  0  0  0  0  0  0  0  0  0
    6.2086   -1.5032    4.6052 C   0  0  0  0  0  0  0  0  0  0  0  0
    4.5176   -4.6262   -0.5957 C   0  0  0  0  0  0  0  0  0  0  0  0
    4.5892   -0.2894    3.1627 C   0  0  0  0  0  0  0  0  0  0  0  0
    5.9209   -4.5781    1.5738 C   0  0  0  0  0  0  0  0  0  0  0  0
    3.7095    0.0762    2.1328 C   0  0  0  0  0  0  0  0  0  0  0  0
    6.1578   -3.7136    2.6643 C   0  0  0  0  0  0  0  0  0  0  0  0
    3.7636   -1.8647    0.5841 C   0  0  0  0  0  0  0  0  0  0  0  0
    2.3107    0.1216    0.0531 C   0  0  0  0  0  0  0  0  0  0  0  0
    5.3543   -1.4439    3.3542 C   0  0  0  0  0  0  0  0  0  0  0  0
    5.0144   -4.0056    0.6788 C   0  0  0  0  0  0  0  0  0  0  0  0
    3.3117   -0.5877    0.9716 C   0  0  0  0  0  0  0  0  0  0  0  0
    5.3984   -2.5527    2.4887 C   0  0  0  0  0  0  0  0  0  0  0  0
    4.6505   -2.7320    1.2001 C   0  0  0  0  0  0  0  0  0  0  0  0
    2.1871    0.9779   -1.9502 H   0  0  0  0  0  0  0  0  0  0  0  0
    3.1297   -0.5167   -1.8813 H   0  0  0  0  0  0  0  0  0  0  0  0
    3.8264    0.9900   -1.2673 H   0  0  0  0  0  0  0  0  0  0  0  0
    0.2607   -0.0829   -0.6674 H   0  0  0  0  0  0  0  0  0  0  0  0
    0.5330   -0.8069    0.9309 H   0  0  0  0  0  0  0  0  0  0  0  0
    1.1148   -1.6256   -0.5261 H   0  0  0  0  0  0  0  0  0  0  0  0
    6.0986   -0.5999    5.2110 H   0  0  0  0  0  0  0  0  0  0  0  0
    7.2694   -1.6164    4.3510 H   0  0  0  0  0  0  0  0  0  0  0  0
    5.9364   -2.3655    5.2255 H   0  0  0  0  0  0  0  0  0  0  0  0
    3.4263   -4.7528   -0.6009 H   0  0  0  0  0  0  0  0  0  0  0  0
    4.9594   -5.6180   -0.7373 H   0  0  0  0  0  0  0  0  0  0  0  0
    4.7737   -4.0270   -1.4802 H   0  0  0  0  0  0  0  0  0  0  0  0
    4.6888    0.4605    3.9449 H   0  0  0  0  0  0  0  0  0  0  0  0
    6.3784   -5.5547    1.4448 H   0  0  0  0  0  0  0  0  0  0  0  0
    3.2593    1.0588    2.2730 H   0  0  0  0  0  0  0  0  0  0  0  0
    6.8202   -3.9215    3.4944 H   0  0  0  0  0  0  0  0  0  0  0  0
    3.3517   -2.2368   -0.3533 H   0  0  0  0  0  0  0  0  0  0  0  0
    2.0872    1.0927    0.5140 H   0  0  0  0  0  0  0  0  0  0  0  0
  1 18  1  0
  1 10  1  0
  2 10  1  0
  2 20  1  0
  3 22  1  0
  3 24  1  0
  4 12  1  0
  5 11  2  0
  5 28  1  0
  6  8  1  0
  7 30  1  0
  7  5  1  0
  8 31  1  0
  9 13  1  0
  9 15  2  0
 10 33  1  0
 10 13  1  0
 11  3  1  0
 12 15  1  0
 12  6  2  0
 13  7  2  0
 14  8  2  0
 14 11  1  0
 15 14  1  0
 16  1  1  0
 17  1  1  0
 19  2  1  0
 21  2  1  0
 23  3  1  0
 25  4  1  0
 26  4  1  0
 27  4  1  0
 29  6  1  0
 32  9  1  0
M  END
>  <HBA>  (630) 
0

>  <HBD>  (630) 
0

>  <TPSA>  (630) 
0.0

>  <cid>  (630) 
3515

>  <dipole>  (630) 
1.13

>  <excitation_energy_1>  (630) 
2.275

>  <excitation_energy_2>  (630) 
3.473

>  <excitation_energy_3>  (630) 
4.469

>  <excitation_energy_4>  (630) 
4.494

>  <homo_energy>  (630) 
-4.838

>  <homo_lumo_gap>  (630) 
3.197

>  <logP>  (630) 
4.532

>  <lumo_energy>  (630) 
-1.641

>  <melting_point>  (630) 
53.01

>  <molecular_refractivity>  (630) 
67.58

>  <oscillator_strength_1>  (630) 
0.0126

>  <oscillator_strength_2>  (630) 
0.0242

>  <oscillator_strength_3>  (630) 
0.1669

>  <oscillator_strength_4>  (630) 
0.0011

>  <open_babel_can_smiles>  (630) 
CC(c1ccc(c2c(c1)c(C)cc2)C)C

>  <mulliken_charges>  (630) 
33
1   -0.439986
2   -0.439667
3   -0.532698
4   -0.532405
5   -0.213834
6   -0.191267
7   -0.185172
8   -0.210761
9   -0.256981
10   -0.161434
11   0.156125
12   0.106912
13   0.193753
14   0.048567
15   0.084841
16   0.142279
17   0.144465
18   0.150389
19   0.142226
20   0.150284
21   0.144557
22   0.155607
23   0.16986
24   0.169847
25   0.153689
26   0.153646
27   0.15386
28   0.120013
29   0.117949
30   0.126366
31   0.116459
32   0.132462
33   0.13005

>  <lowdin_charges>  (630) 
33
1   -0.445264
2   -0.44411
3   -0.441013
4   -0.441499
5   -0.191158
6   -0.15446
7   -0.139721
8   -0.218217
9   -0.122542
10   -0.118452
11   0.038195
12   -0.049221
13   -0.019885
14   -0.018907
15   -0.007575
16   0.150586
17   0.1476
18   0.153166
19   0.15047
20   0.152759
21   0.147083
22   0.156464
23   0.163765
24   0.165737
25   0.152235
26   0.158205
27   0.154588
28   0.156299
29   0.151549
30   0.156089
31   0.155629
32   0.15972
33   0.141883

$$$$
PCCDB-ID:  3516
     RDKit          3D

 28 28  0  0  1  0  0  0  0  0999 V2000
    1.9754   -2.2278   -2.2120 C   0  0  0  0  0  0  0  0  0  0  0  0
    5.2453    0.3578   -2.9825 C   0  0  0  0  0  0  0  0  0  0  0  0
    5.4316    1.4649   -2.1607 C   0  0  0  0  0  0  0  0  0  0  0  0
    4.1916   -0.5330   -2.7485 C   0  0  0  0  0  0  0  0  0  0  0  0
    4.5598    1.6776   -1.0890 C   0  0  0  0  0  0  0  0  0  0  0  0
    1.7659    0.0847    3.6971 C   0  0  0  0  0  0  0  0  0  0  0  0
    2.6918    0.2084    1.3275 C   0  0  0  0  0  0  0  0  0  0  0  0
    1.7496    0.8137    2.3569 C   0  0  2  0  0  0  0  0  0  0  0  0
    3.3112   -0.3176   -1.6838 C   0  0  0  0  0  0  0  0  0  0  0  0
    3.5082    0.8016   -0.8441 C   0  0  0  0  0  0  0  0  0  0  0  0
    0.9060    0.7195    4.6252 O   0  0  0  0  0  0  0  0  0  0  0  0
    2.1310    2.1591    2.6458 O   0  0  0  0  0  0  0  0  0  0  0  0
    2.2441   -1.1125   -1.3758 O   0  0  0  0  0  0  0  0  0  0  0  0
    2.6302    1.0780    0.1819 O   0  0  0  0  0  0  0  0  0  0  0  0
    1.0818   -2.7000   -1.8002 H   0  0  0  0  0  0  0  0  0  0  0  0
    2.8041   -2.9481   -2.2037 H   0  0  0  0  0  0  0  0  0  0  0  0
    1.7782   -1.9162   -3.2458 H   0  0  0  0  0  0  0  0  0  0  0  0
    5.9165    0.1759   -3.8174 H   0  0  0  0  0  0  0  0  0  0  0  0
    6.2473    2.1584   -2.3428 H   0  0  0  0  0  0  0  0  0  0  0  0
    4.0590   -1.3857   -3.4049 H   0  0  0  0  0  0  0  0  0  0  0  0
    4.6755    2.5320   -0.4284 H   0  0  0  0  0  0  0  0  0  0  0  0
    2.8027    0.0456    4.0717 H   0  0  0  0  0  0  0  0  0  0  0  0
    1.4073   -0.9431    3.5764 H   0  0  0  0  0  0  0  0  0  0  0  0
    2.3844   -0.8062    1.0518 H   0  0  0  0  0  0  0  0  0  0  0  0
    3.7202    0.1882    1.7130 H   0  0  0  0  0  0  0  0  0  0  0  0
    0.7250    0.7923    1.9537 H   0  0  0  0  0  0  0  0  0  0  0  0
    1.1263    1.6652    4.5733 H   0  0  0  0  0  0  0  0  0  0  0  0
    2.2018    2.6094    1.7881 H   0  0  0  0  0  0  0  0  0  0  0  0
  1 16  1  0
  1 15  1  0
  1 13  1  0
  2  4  2  0
  2  3  1  0
  3  5  2  0
  4  9  1  0
  5 10  1  0
  5 21  1  0
  6 22  1  0
  6 11  1  0
  7 25  1  0
  7  8  1  0
  8 26  1  6
  8 12  1  0
  8  6  1  0
  9 13  1  0
  9 10  2  0
 10 14  1  0
 14  7  1  0
 17  1  1  0
 18  2  1  0
 19  3  1  0
 20  4  1  0
 23  6  1  0
 24  7  1  0
 27 11  1  0
 28 12  1  0
M  END
>  <HBA>  (631) 
4

>  <HBD>  (631) 
2

>  <TPSA>  (631) 
58.92

>  <cid>  (631) 
3516

>  <dipole>  (631) 
4.18

>  <excitation_energy_1>  (631) 
5.033

>  <excitation_energy_2>  (631) 
5.517

>  <excitation_energy_3>  (631) 
5.644

>  <excitation_energy_4>  (631) 
5.795

>  <homo_energy>  (631) 
-6.014

>  <homo_lumo_gap>  (631) 
5.957

>  <logP>  (631) 
0.427

>  <lumo_energy>  (631) 
-0.057

>  <melting_point>  (631) 
50.44

>  <molecular_refractivity>  (631) 
51.36

>  <oscillator_strength_1>  (631) 
0.0441

>  <oscillator_strength_2>  (631) 
0.0057

>  <oscillator_strength_3>  (631) 
0.0659

>  <oscillator_strength_4>  (631) 
0.0046

>  <open_babel_can_smiles>  (631) 
OC[C@H](COc1ccccc1OC)O

>  <mulliken_charges>  (631) 
28
1   -0.217245
2   -0.132764
3   -0.141759
4   -0.206871
5   -0.171807
6   -0.018153
7   -0.038079
8   0.089404
9   0.34835
10   0.317134
11   -0.627
12   -0.655241
13   -0.508559
14   -0.560643
15   0.173045
16   0.153741
17   0.15667
18   0.130735
19   0.130954
20   0.135671
21   0.134304
22   0.12281
23   0.139695
24   0.152577
25   0.137064
26   0.137903
27   0.407732
28   0.410334

>  <lowdin_charges>  (631) 
28
1   -0.276468
2   -0.154552
3   -0.171163
4   -0.209796
5   -0.170432
6   -0.136082
7   -0.139277
8   -0.026646
9   0.079708
10   0.068369
11   -0.4631
12   -0.4765
13   -0.195218
14   -0.234592
15   0.165134
16   0.146499
17   0.146849
18   0.159703
19   0.160355
20   0.164132
21   0.165339
22   0.127992
23   0.146434
24   0.149132
25   0.139268
26   0.137619
27   0.347176
28   0.350117

$$$$
PCCDB-ID:  3532
     RDKit          3D

 18 18  0  0  0  0  0  0  0  0999 V2000
   -0.9952    1.1512    0.0215 C   0  0  0  0  0  0  0  0  0  0  0  0
   -1.3894   -0.3024    0.0169 C   0  0  0  0  0  0  0  0  0  0  0  0
    0.5171    1.3252   -0.2158 C   0  0  0  0  0  0  0  0  0  0  0  0
    1.0002   -1.0209    0.1452 C   0  0  0  0  0  0  0  0  0  0  0  0
   -0.4908   -1.3009    0.0419 C   0  0  0  0  0  0  0  0  0  0  0  0
   -0.8863   -2.7442    0.0660 C   0  0  0  0  0  0  0  0  0  0  0  0
    1.3380    0.3542    0.5097 N   0  0  0  0  0  0  0  0  0  0  0  0
   -0.1894   -3.6080    0.5476 O   0  0  0  0  0  0  0  0  0  0  0  0
   -2.0898   -3.0697   -0.4826 O   0  0  0  0  0  0  0  0  0  0  0  0
   -1.2907    1.6000    0.9832 H   0  0  0  0  0  0  0  0  0  0  0  0
   -1.5710    1.6935   -0.7424 H   0  0  0  0  0  0  0  0  0  0  0  0
   -2.4588   -0.5174    0.0390 H   0  0  0  0  0  0  0  0  0  0  0  0
    0.8356    2.3361    0.0607 H   0  0  0  0  0  0  0  0  0  0  0  0
    0.7340    1.2027   -1.2851 H   0  0  0  0  0  0  0  0  0  0  0  0
    1.4792   -1.2591   -0.8166 H   0  0  0  0  0  0  0  0  0  0  0  0
    1.4363   -1.7098    0.8746 H   0  0  0  0  0  0  0  0  0  0  0  0
    1.1884    0.4755    1.5108 H   0  0  0  0  0  0  0  0  0  0  0  0
   -2.4431   -2.3004   -0.9584 H   0  0  0  0  0  0  0  0  0  0  0  0
  1 10  1  0
  2  1  1  0
  2 12  1  0
  2  5  2  0
  3  1  1  0
  3 13  1  0
  3  7  1  0
  4  7  1  0
  4 16  1  0
  5  6  1  0
  5  4  1  0
  6  8  2  0
  7 17  1  0
  9  6  1  0
 11  1  1  0
 14  3  1  0
 15  4  1  0
 18  9  1  0
M  END
>  <HBA>  (632) 
3

>  <HBD>  (632) 
2

>  <TPSA>  (632) 
49.33

>  <cid>  (632) 
3532

>  <dipole>  (632) 
4.87

>  <excitation_energy_1>  (632) 
4.026

>  <excitation_energy_2>  (632) 
4.799

>  <excitation_energy_3>  (632) 
5.372

>  <excitation_energy_4>  (632) 
5.785

>  <homo_energy>  (632) 
-6.253

>  <homo_lumo_gap>  (632) 
5.086

>  <logP>  (632) 
0.32

>  <lumo_energy>  (632) 
-1.167

>  <melting_point>  (632) 
113.56

>  <molecular_refractivity>  (632) 
36.86

>  <oscillator_strength_1>  (632) 
0.0004

>  <oscillator_strength_2>  (632) 
0.0034

>  <oscillator_strength_3>  (632) 
0.0056

>  <oscillator_strength_4>  (632) 
0.2281

>  <open_babel_can_smiles>  (632) 
OC(=O)C1=CCCNC1

>  <mulliken_charges>  (632) 
18
1   -0.314673
2   -0.175912
3   -0.153477
4   -0.21163
5   0.052561
6   0.556005
7   -0.526787
8   -0.448514
9   -0.572228
10   0.156144
11   0.152129
12   0.132053
13   0.148584
14   0.150875
15   0.164254
16   0.186975
17   0.297279
18   0.406364

>  <lowdin_charges>  (632) 
18
1   -0.296311
2   -0.160468
3   -0.203757
4   -0.207923
5   -0.077219
6   0.194151
7   -0.349422
8   -0.24189
9   -0.3597
10   0.155624
11   0.15928
12   0.15125
13   0.150408
14   0.145272
15   0.155692
16   0.17574
17   0.252801
18   0.356474

$$$$
PCCDB-ID:  3590
     RDKit          3D

 29 28  0  0  1  0  0  0  0  0999 V2000
    3.1695   -1.4825   -0.4899 C   0  0  0  0  0  0  0  0  0  0  0  0
    1.1506    3.6513    3.7180 C   0  0  0  0  0  0  0  0  0  0  0  0
    3.3398    3.8075    4.9618 C   0  0  0  0  0  0  0  0  0  0  0  0
    2.5623    1.6864    1.7488 C   0  0  0  0  0  0  0  0  0  0  0  0
    3.1501    0.3574    1.2578 C   0  0  0  0  0  0  0  0  0  0  0  0
    3.0985    2.1006    3.1260 C   0  0  0  0  0  0  0  0  0  0  0  0
    2.6190   -0.1023   -0.1184 C   0  0  1  0  0  0  0  0  0  0  0  0
    2.6764    3.5016    3.6098 C   0  0  0  0  0  0  0  0  0  0  0  0
    2.8885    0.8220   -1.2324 N   0  0  0  0  0  0  0  0  0  0  0  0
    3.1824    4.4123    2.6156 O   0  0  0  0  0  0  0  0  0  0  0  0
    2.9173   -2.2293    0.2714 H   0  0  0  0  0  0  0  0  0  0  0  0
    4.2643   -1.4539   -0.5772 H   0  0  0  0  0  0  0  0  0  0  0  0
    2.7638   -1.8083   -1.4524 H   0  0  0  0  0  0  0  0  0  0  0  0
    0.7242    2.9203    4.4150 H   0  0  0  0  0  0  0  0  0  0  0  0
    0.6734    3.5203    2.7428 H   0  0  0  0  0  0  0  0  0  0  0  0
    0.8900    4.6513    4.0894 H   0  0  0  0  0  0  0  0  0  0  0  0
    3.0100    3.1086    5.7394 H   0  0  0  0  0  0  0  0  0  0  0  0
    3.0856    4.8214    5.2983 H   0  0  0  0  0  0  0  0  0  0  0  0
    4.4293    3.7416    4.8742 H   0  0  0  0  0  0  0  0  0  0  0  0
    1.4672    1.5980    1.7822 H   0  0  0  0  0  0  0  0  0  0  0  0
    2.7923    2.4869    1.0362 H   0  0  0  0  0  0  0  0  0  0  0  0
    2.9379   -0.4280    1.9989 H   0  0  0  0  0  0  0  0  0  0  0  0
    4.2475    0.4373    1.2035 H   0  0  0  0  0  0  0  0  0  0  0  0
    4.1964    2.0845    3.0987 H   0  0  0  0  0  0  0  0  0  0  0  0
    2.7938    1.3649    3.8832 H   0  0  0  0  0  0  0  0  0  0  0  0
    1.5238   -0.1808   -0.0473 H   0  0  0  0  0  0  0  0  0  0  0  0
    3.8965    0.9682   -1.3091 H   0  0  0  0  0  0  0  0  0  0  0  0
    2.4906    1.7379   -1.0294 H   0  0  0  0  0  0  0  0  0  0  0  0
    2.9264    5.3082    2.8871 H   0  0  0  0  0  0  0  0  0  0  0  0
  1  7  1  0
  1 11  1  0
  2 16  1  0
  2 14  1  0
  3 18  1  0
  3 17  1  0
  4 20  1  0
  4  6  1  0
  5  4  1  0
  5 22  1  0
  6  8  1  0
  6 25  1  0
  7 26  1  1
  7  5  1  0
  8  2  1  0
  8  3  1  0
  9 28  1  0
  9  7  1  0
 10 29  1  0
 10  8  1  0
 12  1  1  0
 13  1  1  0
 15  2  1  0
 19  3  1  0
 21  4  1  0
 23  5  1  0
 24  6  1  0
 27  9  1  0
M  END
>  <HBA>  (633) 
2

>  <HBD>  (633) 
2

>  <TPSA>  (633) 
46.25

>  <cid>  (633) 
3590

>  <dipole>  (633) 
2.62

>  <excitation_energy_1>  (633) 
5.739

>  <excitation_energy_2>  (633) 
5.983

>  <excitation_energy_3>  (633) 
6.255

>  <excitation_energy_4>  (633) 
6.338

>  <homo_energy>  (633) 
-6.109

>  <homo_lumo_gap>  (633) 
7.818

>  <logP>  (633) 
1.975

>  <lumo_energy>  (633) 
1.709

>  <melting_point>  (633) 
56.0

>  <molecular_refractivity>  (633) 
44.48

>  <oscillator_strength_1>  (633) 
0.0335

>  <oscillator_strength_2>  (633) 
0.0099

>  <oscillator_strength_3>  (633) 
0.0082

>  <oscillator_strength_4>  (633) 
0.0034

>  <open_babel_can_smiles>  (633) 
C[C@@H](CCCC(O)(C)C)N

>  <mulliken_charges>  (633) 
29
1   -0.435064
2   -0.462061
3   -0.453582
4   -0.271976
5   -0.252807
6   -0.253444
7   0.025114
8   0.306061
9   -0.71018
10   -0.638437
11   0.136891
12   0.131455
13   0.157728
14   0.142221
15   0.159393
16   0.12863
17   0.140876
18   0.127747
19   0.153866
20   0.126133
21   0.14684
22   0.121503
23   0.118615
24   0.136755
25   0.124952
26   0.125484
27   0.285671
28   0.298533
29   0.383083

>  <lowdin_charges>  (633) 
29
1   -0.445362
2   -0.460595
3   -0.454462
4   -0.28162
5   -0.290397
6   -0.275773
7   -0.060824
8   0.124347
9   -0.550159
10   -0.465649
11   0.148449
12   0.14068
13   0.157984
14   0.153601
15   0.156962
16   0.143107
17   0.15228
18   0.142162
19   0.153871
20   0.134865
21   0.147809
22   0.139133
23   0.132114
24   0.145108
25   0.142402
26   0.132898
27   0.246615
28   0.252486
29   0.337971

$$$$
PCCDB-ID:  3608
     RDKit          3D

 33 34  0  0  1  0  0  0  0  0999 V2000
    0.9861    0.4081    0.1896 C   0  0  0  0  0  0  0  0  0  0  0  0
    4.3613    2.0207   -2.6652 C   0  0  0  0  0  0  0  0  0  0  0  0
    4.1793   -0.3131    4.1672 C   0  0  0  0  0  0  0  0  0  0  0  0
    4.8868   -1.0494    3.0223 C   0  0  0  0  0  0  0  0  0  0  0  0
    3.7293    1.0749    3.7014 C   0  0  0  0  0  0  0  0  0  0  0  0
    4.1661   -0.9003    1.7057 C   0  0  0  0  0  0  0  0  0  0  0  0
    2.7368    0.9775    2.5332 C   0  0  0  0  0  0  0  0  0  0  0  0
    3.1797   -0.0162    1.4739 C   0  0  0  0  0  0  0  0  0  0  0  0
    2.6232   -1.2372   -0.6741 C   0  0  0  0  0  0  0  0  0  0  0  0
    3.1592    1.2303   -0.6959 C   0  0  0  0  0  0  0  0  0  0  0  0
    3.6227   -0.3361   -2.5609 C   0  0  0  0  0  0  0  0  0  0  0  0
    2.5046    0.0753    0.0845 C   0  0  1  0  0  0  0  0  0  0  0  0
    3.0774   -1.4099   -1.8559 N   0  0  0  0  0  0  0  0  0  0  0  0
    3.7305    0.9274   -1.9143 N   0  0  0  0  0  0  0  0  0  0  0  0
    2.1288   -2.3249   -0.0573 O   0  0  0  0  0  0  0  0  0  0  0  0
    3.1540    2.3684   -0.2494 O   0  0  0  0  0  0  0  0  0  0  0  0
    4.0253   -0.4606   -3.6988 O   0  0  0  0  0  0  0  0  0  0  0  0
    0.4603   -0.3256    0.8082 H   0  0  0  0  0  0  0  0  0  0  0  0
    0.5287    0.4037   -0.8050 H   0  0  0  0  0  0  0  0  0  0  0  0
    0.8534    1.3999    0.6239 H   0  0  0  0  0  0  0  0  0  0  0  0
    4.8054    2.7161   -1.9543 H   0  0  0  0  0  0  0  0  0  0  0  0
    3.6186    2.5531   -3.2682 H   0  0  0  0  0  0  0  0  0  0  0  0
    5.1126    1.5918   -3.3251 H   0  0  0  0  0  0  0  0  0  0  0  0
    4.8440   -0.2383    5.0356 H   0  0  0  0  0  0  0  0  0  0  0  0
    3.3024   -0.8922    4.4890 H   0  0  0  0  0  0  0  0  0  0  0  0
    4.9978   -2.1168    3.2571 H   0  0  0  0  0  0  0  0  0  0  0  0
    5.9132   -0.6680    2.9048 H   0  0  0  0  0  0  0  0  0  0  0  0
    4.6081    1.6492    3.3779 H   0  0  0  0  0  0  0  0  0  0  0  0
    3.2724    1.6352    4.5255 H   0  0  0  0  0  0  0  0  0  0  0  0
    4.5031   -1.5613    0.9078 H   0  0  0  0  0  0  0  0  0  0  0  0
    2.6212    1.9592    2.0633 H   0  0  0  0  0  0  0  0  0  0  0  0
    1.7426    0.6965    2.9132 H   0  0  0  0  0  0  0  0  0  0  0  0
    2.0046   -2.1140    0.8854 H   0  0  0  0  0  0  0  0  0  0  0  0
  1 20  1  0
  1 18  1  0
  2 21  1  0
  2 14  1  0
  3 25  1  0
  3 24  1  0
  4 26  1  0
  4  3  1  0
  5  3  1  0
  5 29  1  0
  6  4  1  0
  7 32  1  0
  7  5  1  0
  8  6  2  0
  8  7  1  0
  9 15  1  0
  9 12  1  0
 10 16  2  0
 10 12  1  0
 11 14  1  0
 11 13  1  0
 12  1  1  1
 12  8  1  0
 13  9  2  0
 14 10  1  0
 15 33  1  0
 17 11  2  0
 19  1  1  0
 22  2  1  0
 23  2  1  0
 27  4  1  0
 28  5  1  0
 30  6  1  0
 31  7  1  0
M  END
>  <HBA>  (634) 
5

>  <HBD>  (634) 
1

>  <TPSA>  (634) 
66.48

>  <cid>  (634) 
3608

>  <dipole>  (634) 
5.51

>  <excitation_energy_1>  (634) 
4.409

>  <excitation_energy_2>  (634) 
4.657

>  <excitation_energy_3>  (634) 
4.886

>  <excitation_energy_4>  (634) 
5.154

>  <homo_energy>  (634) 
-6.92

>  <homo_lumo_gap>  (634) 
5.51

>  <logP>  (634) 
1.468

>  <lumo_energy>  (634) 
-1.41

>  <melting_point>  (634) 
150.83

>  <molecular_refractivity>  (634) 
69.35

>  <oscillator_strength_1>  (634) 
0.0036

>  <oscillator_strength_2>  (634) 
0.0015

>  <oscillator_strength_3>  (634) 
0.0044

>  <oscillator_strength_4>  (634) 
0.0184

>  <open_babel_can_smiles>  (634) 
O=C1N=C(O)[C@@](C(=O)N1C)(C)C1=CCCCC1

>  <mulliken_charges>  (634) 
33
1   -0.458791
2   -0.316315
3   -0.265346
4   -0.299899
5   -0.271146
6   -0.17984
7   -0.340983
8   0.116185
9   0.536943
10   0.655275
11   0.700032
12   -0.176411
13   -0.497006
14   -0.511443
15   -0.568754
16   -0.509207
17   -0.464641
18   0.153307
19   0.174045
20   0.194901
21   0.185957
22   0.17524
23   0.194459
24   0.140714
25   0.133545
26   0.150316
27   0.158063
28   0.147714
29   0.13897
30   0.15364
31   0.193322
32   0.140763
33   0.41639

>  <lowdin_charges>  (634) 
33
1   -0.433015
2   -0.353361
3   -0.277025
4   -0.2729
5   -0.275451
6   -0.183845
7   -0.284897
8   -0.030034
9   0.15826
10   0.169123
11   0.182157
12   -0.045503
13   -0.183269
14   -0.089169
15   -0.318329
16   -0.281343
17   -0.243582
18   0.156052
19   0.166446
20   0.176961
21   0.175601
22   0.164938
23   0.180763
24   0.149684
25   0.141134
26   0.153365
27   0.155803
28   0.148238
29   0.149956
30   0.163521
31   0.174224
32   0.1462
33   0.359296

$$$$
PCCDB-ID:  3610
     RDKit          3D

 32 32  0  0  0  0  0  0  0  0999 V2000
    5.5306   -4.3585    3.9697 C   0  0  0  0  0  0  0  0  0  0  0  0
    6.6811   -3.5538    3.3531 C   0  0  0  0  0  0  0  0  0  0  0  0
    6.3938   -3.0189    1.9388 C   0  0  0  0  0  0  0  0  0  0  0  0
    5.2157   -2.0342    1.8147 C   0  0  0  0  0  0  0  0  0  0  0  0
    5.3419   -0.7301    2.6205 C   0  0  0  0  0  0  0  0  0  0  0  0
    6.4859    0.2136    2.1799 C   0  0  0  0  0  0  0  0  0  0  0  0
    7.0931    0.3018   -0.2959 C   0  0  0  0  0  0  0  0  0  0  0  0
    6.9600    0.8105   -1.5903 C   0  0  0  0  0  0  0  0  0  0  0  0
    5.2656    2.3313   -0.7744 C   0  0  0  0  0  0  0  0  0  0  0  0
    6.3372    0.7706    0.7804 C   0  0  0  0  0  0  0  0  0  0  0  0
    6.0383    1.8314   -1.8262 C   0  0  0  0  0  0  0  0  0  0  0  0
    5.4177    1.8037    0.5073 C   0  0  0  0  0  0  0  0  0  0  0  0
    5.8438    2.3896   -3.0612 O   0  0  0  0  0  0  0  0  0  0  0  0
    4.6812    2.2759    1.5635 O   0  0  0  0  0  0  0  0  0  0  0  0
    5.8178   -4.7749    4.9422 H   0  0  0  0  0  0  0  0  0  0  0  0
    5.2433   -5.1954    3.3208 H   0  0  0  0  0  0  0  0  0  0  0  0
    4.6388   -3.7415    4.1279 H   0  0  0  0  0  0  0  0  0  0  0  0
    7.5747   -4.1911    3.3042 H   0  0  0  0  0  0  0  0  0  0  0  0
    6.9441   -2.7236    4.0222 H   0  0  0  0  0  0  0  0  0  0  0  0
    6.1980   -3.8736    1.2751 H   0  0  0  0  0  0  0  0  0  0  0  0
    7.3075   -2.5469    1.5519 H   0  0  0  0  0  0  0  0  0  0  0  0
    4.2896   -2.5405    2.1181 H   0  0  0  0  0  0  0  0  0  0  0  0
    5.0850   -1.7839    0.7536 H   0  0  0  0  0  0  0  0  0  0  0  0
    5.4815   -0.9624    3.6851 H   0  0  0  0  0  0  0  0  0  0  0  0
    4.3969   -0.1784    2.5527 H   0  0  0  0  0  0  0  0  0  0  0  0
    7.4485   -0.3076    2.2521 H   0  0  0  0  0  0  0  0  0  0  0  0
    6.5295    1.0441    2.8949 H   0  0  0  0  0  0  0  0  0  0  0  0
    7.8201   -0.4871   -0.1167 H   0  0  0  0  0  0  0  0  0  0  0  0
    7.5689    0.4189   -2.4025 H   0  0  0  0  0  0  0  0  0  0  0  0
    4.5555    3.1302   -0.9740 H   0  0  0  0  0  0  0  0  0  0  0  0
    6.4371    1.9558   -3.6937 H   0  0  0  0  0  0  0  0  0  0  0  0
    4.1026    2.9875    1.2482 H   0  0  0  0  0  0  0  0  0  0  0  0
  1 17  1  0
  1 15  1  0
  2  1  1  0
  2 19  1  0
  3  2  1  0
  4  3  1  0
  4 22  1  0
  4  5  1  0
  5 24  1  0
  6 26  1  0
  6  5  1  0
  6 27  1  0
  7 28  1  0
  7 10  2  0
  8  7  1  0
  9 12  2  0
 10  6  1  0
 11  8  2  0
 11  9  1  0
 12 10  1  0
 12 14  1  0
 13 11  1  0
 16  1  1  0
 18  2  1  0
 20  3  1  0
 21  3  1  0
 23  4  1  0
 25  5  1  0
 29  8  1  0
 30  9  1  0
 31 13  1  0
 32 14  1  0
M  END
>  <HBA>  (635) 
2

>  <HBD>  (635) 
2

>  <TPSA>  (635) 
40.46

>  <cid>  (635) 
3610

>  <dipole>  (635) 
1.14

>  <excitation_energy_1>  (635) 
4.879

>  <excitation_energy_2>  (635) 
4.925

>  <excitation_energy_3>  (635) 
5.079

>  <excitation_energy_4>  (635) 
5.493

>  <homo_energy>  (635) 
-5.595

>  <homo_lumo_gap>  (635) 
5.834

>  <logP>  (635) 
3.221

>  <lumo_energy>  (635) 
0.239

>  <melting_point>  (635) 
85.78

>  <molecular_refractivity>  (635) 
59.49

>  <oscillator_strength_1>  (635) 
0.0434

>  <oscillator_strength_2>  (635) 
0.0046

>  <oscillator_strength_3>  (635) 
0.0008

>  <oscillator_strength_4>  (635) 
0.0148

>  <open_babel_can_smiles>  (635) 
CCCCCCc1ccc(cc1O)O

>  <mulliken_charges>  (635) 
32
1   -0.443348
2   -0.250183
3   -0.254344
4   -0.26113
5   -0.261182
6   -0.339199
7   -0.207798
8   -0.197851
9   -0.234871
10   0.142895
11   0.349773
12   0.299562
13   -0.648236
14   -0.647606
15   0.140044
16   0.139574
17   0.147187
18   0.128088
19   0.134067
20   0.12473
21   0.125628
22   0.129217
23   0.137732
24   0.128898
25   0.148939
26   0.135357
27   0.150888
28   0.127785
29   0.11297
30   0.125529
31   0.407654
32   0.40923

>  <lowdin_charges>  (635) 
32
1   -0.448136
2   -0.277646
3   -0.280609
4   -0.282324
5   -0.276345
6   -0.273163
7   -0.147067
8   -0.240316
9   -0.244694
10   -0.049844
11   0.110107
12   0.104996
13   -0.383566
14   -0.379464
15   0.148489
16   0.146097
17   0.147843
18   0.140951
19   0.139971
20   0.139978
21   0.136787
22   0.141039
23   0.144761
24   0.137665
25   0.150611
26   0.144914
27   0.157387
28   0.157264
29   0.153193
30   0.162076
31   0.359528
32   0.359518

$$$$
PCCDB-ID:  3614
     RDKit          3D

 20 20  0  0  0  0  0  0  0  0999 V2000
    0.7267    0.2101   -0.0704 C   0  0  0  0  0  0  0  0  0  0  0  0
    5.6000   -1.1162   -0.0153 C   0  0  0  0  0  0  0  0  0  0  0  0
    6.4481   -0.7246   -1.2350 C   0  0  0  0  0  0  0  0  0  0  0  0
    3.0229   -0.8614   -0.1244 C   0  0  0  0  0  0  0  0  0  0  0  0
    2.9753    1.3007    0.2646 C   0  0  0  0  0  0  0  0  0  0  0  0
    4.2981   -0.3763    0.0523 C   0  0  0  0  0  0  0  0  0  0  0  0
    7.7095   -1.4782   -1.2368 N   0  0  0  0  0  0  0  0  0  0  0  0
    4.2512    0.9844    0.2949 N   0  0  0  0  0  0  0  0  0  0  0  0
    2.1752    0.2220    0.0132 N   0  0  0  0  0  0  0  0  0  0  0  0
    0.2950   -0.4304    0.7063 H   0  0  0  0  0  0  0  0  0  0  0  0
    0.3960   -0.1493   -1.0507 H   0  0  0  0  0  0  0  0  0  0  0  0
    0.3560    1.2281    0.0705 H   0  0  0  0  0  0  0  0  0  0  0  0
    6.1790   -0.9057    0.8957 H   0  0  0  0  0  0  0  0  0  0  0  0
    5.4251   -2.1977   -0.0381 H   0  0  0  0  0  0  0  0  0  0  0  0
    6.5716    0.3712   -1.2375 H   0  0  0  0  0  0  0  0  0  0  0  0
    5.9001   -0.9852   -2.1491 H   0  0  0  0  0  0  0  0  0  0  0  0
    2.6471   -1.8537   -0.3282 H   0  0  0  0  0  0  0  0  0  0  0  0
    2.5623    2.2900    0.4189 H   0  0  0  0  0  0  0  0  0  0  0  0
    8.2796   -1.1770   -0.4461 H   0  0  0  0  0  0  0  0  0  0  0  0
    8.2472   -1.2401   -2.0692 H   0  0  0  0  0  0  0  0  0  0  0  0
  1  9  1  0
  1 12  1  0
  1 10  1  0
  2  6  1  0
  2 13  1  0
  3  2  1  0
  4  9  1  0
  4  6  2  0
  5  8  2  0
  5 18  1  0
  6  8  1  0
  7  3  1  0
  7 19  1  0
  9  5  1  0
 11  1  1  0
 14  2  1  0
 15  3  1  0
 16  3  1  0
 17  4  1  0
 20  7  1  0
M  END
>  <HBA>  (636) 
3

>  <HBD>  (636) 
1

>  <TPSA>  (636) 
43.84

>  <cid>  (636) 
3614

>  <dipole>  (636) 
3.22

>  <excitation_energy_1>  (636) 
5.248

>  <excitation_energy_2>  (636) 
5.561

>  <excitation_energy_3>  (636) 
5.633

>  <excitation_energy_4>  (636) 
5.819

>  <homo_energy>  (636) 
-5.769

>  <homo_lumo_gap>  (636) 
6.71

>  <logP>  (636) 
0.622

>  <lumo_energy>  (636) 
0.942

>  <melting_point>  (636) 
79.41

>  <molecular_refractivity>  (636) 
35.97

>  <oscillator_strength_1>  (636) 
0.0026

>  <oscillator_strength_2>  (636) 
0.0369

>  <oscillator_strength_3>  (636) 
0.0604

>  <oscillator_strength_4>  (636) 
0.013

>  <open_babel_can_smiles>  (636) 
Cn1cc(nc1)CCN

>  <mulliken_charges>  (636) 
20
1   -0.322826
2   -0.324162
3   -0.134428
4   -0.029714
5   0.197442
6   0.224695
7   -0.720061
8   -0.481604
9   -0.367278
10   0.176303
11   0.1758
12   0.173148
13   0.142187
14   0.145504
15   0.137973
16   0.134431
17   0.143154
18   0.145711
19   0.290745
20   0.29298

>  <lowdin_charges>  (636) 
20
1   -0.344793
2   -0.272569
3   -0.201178
4   -0.194073
5   -0.104632
6   -0.001161
7   -0.564682
8   -0.20268
9   -0.008531
10   0.163463
11   0.162156
12   0.167168
13   0.15072
14   0.151387
15   0.127251
16   0.140022
17   0.165466
18   0.161525
19   0.25125
20   0.25389

$$$$
PCCDB-ID:  3615
     RDKit          3D

 20 20  0  0  1  0  0  0  0  0999 V2000
    2.7561   -1.3089    1.8148 C   0  0  0  0  0  0  0  0  0  0  0  0
    2.4726   -1.1079   -0.7323 C   0  0  0  0  0  0  0  0  0  0  0  0
    1.0546   -3.1534   -1.5845 C   0  0  0  0  0  0  0  0  0  0  0  0
    2.3651   -4.7567   -1.0614 C   0  0  0  0  0  0  0  0  0  0  0  0
    2.0226   -0.5985    0.6734 C   0  0  1  0  0  0  0  0  0  0  0  0
    2.1526   -2.5420   -1.0191 C   0  0  0  0  0  0  0  0  0  0  0  0
    0.5791   -0.6788    0.9124 N   0  0  0  0  0  0  0  0  0  0  0  0
    1.1934   -4.5245   -1.6089 N   0  0  0  0  0  0  0  0  0  0  0  0
    2.9865   -3.5978   -0.6842 N   0  0  0  0  0  0  0  0  0  0  0  0
    3.8441   -1.2143    1.7093 H   0  0  0  0  0  0  0  0  0  0  0  0
    2.5066   -2.3768    1.8394 H   0  0  0  0  0  0  0  0  0  0  0  0
    2.4610   -0.8758    2.7746 H   0  0  0  0  0  0  0  0  0  0  0  0
    3.5514   -0.9295   -0.8519 H   0  0  0  0  0  0  0  0  0  0  0  0
    1.9778   -0.4888   -1.4912 H   0  0  0  0  0  0  0  0  0  0  0  0
    0.1755   -2.6732   -1.9952 H   0  0  0  0  0  0  0  0  0  0  0  0
    2.8163   -5.7293   -0.9146 H   0  0  0  0  0  0  0  0  0  0  0  0
    2.2883    0.4667    0.7118 H   0  0  0  0  0  0  0  0  0  0  0  0
    0.2742   -1.6463    0.7940 H   0  0  0  0  0  0  0  0  0  0  0  0
    0.0807   -0.1422    0.2025 H   0  0  0  0  0  0  0  0  0  0  0  0
    3.8937   -3.5167   -0.2477 H   0  0  0  0  0  0  0  0  0  0  0  0
  1 11  1  0
  1 12  1  0
  2  5  1  0
  3  6  2  0
  4 16  1  0
  4  9  1  0
  5 17  1  6
  5  7  1  0
  5  1  1  0
  6  2  1  0
  6  9  1  0
  8  3  1  0
  8  4  2  0
  9 20  1  0
 10  1  1  0
 13  2  1  0
 14  2  1  0
 15  3  1  0
 18  7  1  0
 19  7  1  0
M  END
>  <HBA>  (637) 
2

>  <HBD>  (637) 
2

>  <TPSA>  (637) 
54.7

>  <cid>  (637) 
3615

>  <dipole>  (637) 
3.38

>  <excitation_energy_1>  (637) 
5.144

>  <excitation_energy_2>  (637) 
5.572

>  <excitation_energy_3>  (637) 
5.743

>  <excitation_energy_4>  (637) 
5.954

>  <homo_energy>  (637) 
-5.948

>  <homo_lumo_gap>  (637) 
6.675

>  <logP>  (637) 
1.0

>  <lumo_energy>  (637) 
0.727

>  <melting_point>  (637) 
122.85

>  <molecular_refractivity>  (637) 
35.88

>  <oscillator_strength_1>  (637) 
0.0169

>  <oscillator_strength_2>  (637) 
0.0202

>  <oscillator_strength_3>  (637) 
0.0427

>  <oscillator_strength_4>  (637) 
0.0231

>  <open_babel_can_smiles>  (637) 
C[C@@H](Cc1cnc[nH]1)N

>  <mulliken_charges>  (637) 
20
1   -0.447866
2   -0.358865
3   -0.09127
4   0.2041
5   0.036364
6   0.325182
7   -0.706603
8   -0.422462
9   -0.601506
10   0.127978
11   0.145298
12   0.167874
13   0.134502
14   0.150902
15   0.127494
16   0.153752
17   0.133258
18   0.300116
19   0.290988
20   0.330766

>  <lowdin_charges>  (637) 
20
1   -0.4496
2   -0.296326
3   -0.182628
4   -0.098505
5   -0.059414
6   -0.01401
7   -0.549965
8   -0.185932
9   -0.182861
10   0.140381
11   0.147097
12   0.163828
13   0.146997
14   0.158953
15   0.158363
16   0.166058
17   0.138692
18   0.254489
19   0.25299
20   0.291395

$$$$
PCCDB-ID:  3616
     RDKit          3D

 34 33  0  0  0  0  0  0  0  0999 V2000
    1.0612    1.8619   -3.9468 C   0  0  0  0  0  0  0  0  0  0  0  0
    6.6001    7.8483    4.4377 C   0  0  0  0  0  0  0  0  0  0  0  0
    3.4106    4.9067   -0.3847 C   0  0  0  0  0  0  0  0  0  0  0  0
    4.2734    4.7702    0.8769 C   0  0  0  0  0  0  0  0  0  0  0  0
    2.3380    3.8184   -0.5062 C   0  0  0  0  0  0  0  0  0  0  0  0
    5.3456    5.8590    1.0004 C   0  0  0  0  0  0  0  0  0  0  0  0
    1.4853    3.9550   -1.7766 C   0  0  0  0  0  0  0  0  0  0  0  0
    6.2039    5.7149    2.2657 C   0  0  0  0  0  0  0  0  0  0  0  0
    0.2603    2.1190   -2.6848 C   0  0  0  0  0  0  0  0  0  0  0  0
    7.4001    7.5701    3.1911 C   0  0  0  0  0  0  0  0  0  0  0  0
    0.4125    2.9839   -1.7761 N   0  0  0  0  0  0  0  0  0  0  0  0
    7.2714    6.6967    2.2786 N   0  0  0  0  0  0  0  0  0  0  0  0
   -0.8035    1.2632   -2.5286 O   0  0  0  0  0  0  0  0  0  0  0  0
    8.4356    8.4536    3.0979 O   0  0  0  0  0  0  0  0  0  0  0  0
    0.4259    1.9936   -4.8318 H   0  0  0  0  0  0  0  0  0  0  0  0
    1.4342    0.8297   -3.9542 H   0  0  0  0  0  0  0  0  0  0  0  0
    1.9175    2.5300   -4.0445 H   0  0  0  0  0  0  0  0  0  0  0  0
    5.7311    7.1963    4.5319 H   0  0  0  0  0  0  0  0  0  0  0  0
    6.2659    8.8911    4.4305 H   0  0  0  0  0  0  0  0  0  0  0  0
    7.2380    7.7186    5.3188 H   0  0  0  0  0  0  0  0  0  0  0  0
    4.0619    4.8853   -1.2713 H   0  0  0  0  0  0  0  0  0  0  0  0
    2.9281    5.8954   -0.3872 H   0  0  0  0  0  0  0  0  0  0  0  0
    4.7556    3.7813    0.8807 H   0  0  0  0  0  0  0  0  0  0  0  0
    3.6218    4.7925    1.7630 H   0  0  0  0  0  0  0  0  0  0  0  0
    1.6686    3.8462    0.3630 H   0  0  0  0  0  0  0  0  0  0  0  0
    2.8098    2.8257   -0.5004 H   0  0  0  0  0  0  0  0  0  0  0  0
    4.8723    6.8510    1.0040 H   0  0  0  0  0  0  0  0  0  0  0  0
    6.0090    5.8370    0.1259 H   0  0  0  0  0  0  0  0  0  0  0  0
    2.1446    3.9089   -2.6601 H   0  0  0  0  0  0  0  0  0  0  0  0
    1.0270    4.9546   -1.7843 H   0  0  0  0  0  0  0  0  0  0  0  0
    6.6679    4.7180    2.2647 H   0  0  0  0  0  0  0  0  0  0  0  0
    5.5513    5.7535    3.1527 H   0  0  0  0  0  0  0  0  0  0  0  0
   -0.8239    0.6436   -3.2736 H   0  0  0  0  0  0  0  0  0  0  0  0
    8.9033    8.2079    2.2775 H   0  0  0  0  0  0  0  0  0  0  0  0
  1  9  1  0
  2 18  1  0
  2 20  1  0
  3  4  1  0
  4 23  1  0
  4  6  1  0
  4 24  1  0
  5 26  1  0
  5  3  1  0
  5 25  1  0
  6 27  1  0
  6  8  1  0
  7 11  1  0
  7  5  1  0
  8 12  1  0
  8 32  1  0
  9 13  1  0
  9 11  2  0
 10  2  1  0
 12 10  2  0
 14 10  1  0
 15  1  1  0
 16  1  1  0
 17  1  1  0
 19  2  1  0
 21  3  1  0
 22  3  1  0
 28  6  1  0
 29  7  1  0
 30  7  1  0
 31  8  1  0
 33 13  1  0
 34 14  1  0
M  END
>  <HBA>  (638) 
4

>  <HBD>  (638) 
2

>  <TPSA>  (638) 
58.2

>  <cid>  (638) 
3616

>  <dipole>  (638) 
2.77

>  <excitation_energy_1>  (638) 
5.722

>  <excitation_energy_2>  (638) 
5.782

>  <excitation_energy_3>  (638) 
5.85

>  <excitation_energy_4>  (638) 
5.994

>  <homo_energy>  (638) 
-6.523

>  <homo_lumo_gap>  (638) 
7.339

>  <logP>  (638) 
1.601

>  <lumo_energy>  (638) 
0.816

>  <melting_point>  (638) 
67.92

>  <molecular_refractivity>  (638) 
56.19

>  <oscillator_strength_1>  (638) 
0.0013

>  <oscillator_strength_2>  (638) 
0.0034

>  <oscillator_strength_3>  (638) 
0.0045

>  <oscillator_strength_4>  (638) 
0.0021

>  <open_babel_can_smiles>  (638) 
C/C(=N\CCCCCC/N=C(/O)\C)/O

>  <mulliken_charges>  (638) 
34
1   -0.558223
2   -0.510465
3   -0.256701
4   -0.256517
5   -0.24799
6   -0.248372
7   -0.149007
8   -0.148129
9   0.486237
10   0.498706
11   -0.402671
12   -0.460958
13   -0.579966
14   -0.59326
15   0.173446
16   0.170221
17   0.182495
18   0.168619
19   0.180999
20   0.181431
21   0.125956
22   0.129413
23   0.128605
24   0.129263
25   0.148401
26   0.12825
27   0.12993
28   0.141277
29   0.107439
30   0.14281
31   0.140625
32   0.116586
33   0.400686
34   0.400865

>  <lowdin_charges>  (638) 
34
1   -0.484729
2   -0.46349
3   -0.274172
4   -0.274084
5   -0.277051
6   -0.277513
7   -0.197652
8   -0.19772
9   0.12734
10   0.13494
11   -0.199047
12   -0.240196
13   -0.377398
14   -0.381209
15   0.168367
16   0.165365
17   0.172822
18   0.165448
19   0.174842
20   0.176519
21   0.136789
22   0.138146
23   0.137785
24   0.138594
25   0.150088
26   0.138543
27   0.139238
28   0.14629
29   0.117718
30   0.144213
31   0.142975
32   0.123445
33   0.3513
34   0.353494

$$$$
PCCDB-ID:  3637
     RDKit          3D

 20 21  0  0  1  0  0  0  0  0999 V2000
   -2.4122   -0.7656    0.0080 C   0  0  0  0  0  0  0  0  0  0  0  0
   -2.4418    0.6376   -0.0207 C   0  0  0  0  0  0  0  0  0  0  0  0
   -1.1968   -1.4362    0.0252 C   0  0  0  0  0  0  0  0  0  0  0  0
   -1.2583    1.3659   -0.0309 C   0  0  0  0  0  0  0  0  0  0  0  0
    1.3040   -1.3651    0.0080 C   0  0  0  0  0  0  0  0  0  0  0  0
    0.0097   -0.7140    0.0130 C   0  0  0  0  0  3  0  0  0  0  0  0
   -0.0272    0.6971   -0.0151 C   0  0  0  0  0  0  0  0  0  0  0  0
    1.2491    1.4215   -0.0282 C   0  0  0  0  0  0  0  0  0  0  0  0
    2.6583    3.2000   -0.0605 N   0  0  0  0  0  0  0  0  0  0  0  0
    2.4352   -0.7335   -0.0044 N   0  0  0  0  0  0  0  0  0  0  0  0
    1.2932    2.7160   -0.0732 N   0  0  0  0  0  2  0  0  0  0  0  0
    2.3810    0.6201    0.0270 N   0  0  0  0  0  0  0  0  0  0  0  0
   -3.3418   -1.3279    0.0180 H   0  0  0  0  0  0  0  0  0  0  0  0
   -3.3955    1.1577   -0.0331 H   0  0  0  0  0  0  0  0  0  0  0  0
   -1.1660   -2.5228    0.0479 H   0  0  0  0  0  0  0  0  0  0  0  0
   -1.2594    2.4503   -0.0468 H   0  0  0  0  0  0  0  0  0  0  0  0
    1.3697   -2.4502    0.0032 H   0  0  0  0  0  0  0  0  0  0  0  0
    2.5965    4.1498   -0.4226 H   0  0  0  0  0  0  0  0  0  0  0  0
    2.9257    3.3141    0.9229 H   0  0  0  0  0  0  0  0  0  0  0  0
    3.2634    1.0975   -0.1176 H   0  0  0  0  0  0  0  0  0  0  0  0
  1 13  1  0
  1  3  2  0
  2  1  1  0
  3 15  1  0
  4  2  2  0
  4  7  1  0
  5  6  1  0
  6  7  1  0
  6  3  1  0
  8  7  2  0
  8 12  1  0
  9 19  1  0
 10  5  2  0
 10 12  1  0
 11  9  1  0
 11  8  1  0
 14  2  1  0
 16  4  1  0
 17  5  1  0
 18  9  1  0
 20 12  1  0
M  RAD  2   6   2  11   2
M  END
>  <HBA>  (639) 
4

>  <HBD>  (639) 
2

>  <TPSA>  (639) 
63.83

>  <cid>  (639) 
3637

>  <dipole>  (639) 
1.42

>  <excitation_energy_1>  (639) 
3.344

>  <excitation_energy_2>  (639) 
3.787

>  <excitation_energy_3>  (639) 
4.359

>  <excitation_energy_4>  (639) 
4.509

>  <homo_energy>  (639) 
-5.271

>  <homo_lumo_gap>  (639) 
4.057

>  <logP>  (639) 
1.689

>  <lumo_energy>  (639) 
-1.214

>  <melting_point>  (639) 
169.13

>  <molecular_refractivity>  (639) 
46.74

>  <oscillator_strength_1>  (639) 
0.0265

>  <oscillator_strength_2>  (639) 
0.0875

>  <oscillator_strength_3>  (639) 
0.0321

>  <oscillator_strength_4>  (639) 
0.0119

>  <open_babel_can_smiles>  (639) 
N[N]C1=C2C=CC=C[C]2C=NN1

>  <mulliken_charges>  (639) 
20
1   -0.123604
2   -0.131998
3   -0.206548
4   -0.175069
5   -0.02733
6   0.132238
7   0.0774
8   0.560098
9   -0.622963
10   -0.225506
11   -0.462189
12   -0.52954
13   0.13813
14   0.139347
15   0.139243
16   0.167299
17   0.151957
18   0.325002
19   0.30981
20   0.364224

>  <lowdin_charges>  (639) 
20
1   -0.147981
2   -0.146489
3   -0.149453
4   -0.133256
5   -0.136837
6   -0.01742
7   -0.00728
8   0.063264
9   -0.479591
10   -0.082835
11   -0.22733
12   -0.179814
13   0.16272
14   0.162951
15   0.160088
16   0.177442
17   0.163288
18   0.264711
19   0.253683
20   0.30014

$$$$
PCCDB-ID:  3638
     RDKit          3D

 28 30  0  0  1  0  0  0  0  0999 V2000
    0.9681   -0.2355   -0.0216 C   0  0  0  0  0  0  0  0  0  0  0  0
    4.5119   -1.2438    0.6593 C   0  0  0  0  0  0  0  0  0  0  0  0
    3.0067   -1.2007    0.9176 C   0  0  0  0  0  0  0  0  0  0  0  0
    6.5321    0.2352    1.0441 C   0  0  0  0  0  0  0  0  0  0  0  0
    4.9118    2.5618    0.8691 C   0  0  0  0  0  0  0  0  0  0  0  0
    8.3869    3.2925    1.4286 C   0  0  0  0  0  0  0  0  0  0  0  0
    5.1411    0.1233    0.8203 C   0  0  0  0  0  0  0  0  0  0  0  0
    4.3465    1.2731    0.7260 C   0  0  0  0  0  0  0  0  0  0  0  0
    7.0636    1.5000    1.1652 C   0  0  0  0  0  0  0  0  0  0  0  0
    6.2683    2.6421    1.0807 C   0  0  0  0  0  0  0  0  0  0  0  0
    2.8439    1.1936    0.5188 C   0  0  1  0  0  0  0  0  0  0  0  0
    2.4149   -0.1293    0.1214 N   0  0  0  0  0  0  0  0  0  0  0  0
    2.1636    1.7246    1.6793 O   0  0  0  0  0  0  0  0  0  0  0  0
    8.3704    1.8596    1.3874 O   0  0  0  0  0  0  0  0  0  0  0  0
    7.0477    3.7637    1.2473 O   0  0  0  0  0  0  0  0  0  0  0  0
    0.7216   -1.1916   -0.4963 H   0  0  0  0  0  0  0  0  0  0  0  0
    0.6076    0.5705   -0.6702 H   0  0  0  0  0  0  0  0  0  0  0  0
    0.4271   -0.1632    0.9352 H   0  0  0  0  0  0  0  0  0  0  0  0
    4.6779   -1.6055   -0.3653 H   0  0  0  0  0  0  0  0  0  0  0  0
    4.9916   -1.9650    1.3331 H   0  0  0  0  0  0  0  0  0  0  0  0
    2.8034   -1.0864    2.0011 H   0  0  0  0  0  0  0  0  0  0  0  0
    2.5477   -2.1474    0.6129 H   0  0  0  0  0  0  0  0  0  0  0  0
    7.1599   -0.6471    1.1209 H   0  0  0  0  0  0  0  0  0  0  0  0
    4.2898    3.4494    0.8230 H   0  0  0  0  0  0  0  0  0  0  0  0
    9.0220    3.6725    0.6190 H   0  0  0  0  0  0  0  0  0  0  0  0
    8.7629    3.6235    2.4041 H   0  0  0  0  0  0  0  0  0  0  0  0
    2.5368    1.8831   -0.2757 H   0  0  0  0  0  0  0  0  0  0  0  0
    2.6020    1.3579    2.4642 H   0  0  0  0  0  0  0  0  0  0  0  0
  1 12  1  0
  1 18  1  0
  2  7  1  0
  2  3  1  0
  2 20  1  0
  3 21  1  0
  4 23  1  0
  4  9  2  0
  5 10  2  0
  6 26  1  0
  7  4  1  0
  8  7  2  0
  8  5  1  0
  9 14  1  0
 10  9  1  0
 10 15  1  0
 11 27  1  6
 11  8  1  0
 11 13  1  0
 12 11  1  0
 12  3  1  0
 13 28  1  0
 14  6  1  0
 15  6  1  0
 16  1  1  0
 17  1  1  0
 19  2  1  0
 22  3  1  0
 24  5  1  0
 25  6  1  0
M  END
>  <HBA>  (640) 
4

>  <HBD>  (640) 
1

>  <TPSA>  (640) 
41.93

>  <cid>  (640) 
3638

>  <dipole>  (640) 
1.72

>  <excitation_energy_1>  (640) 
4.598

>  <excitation_energy_2>  (640) 
4.949

>  <excitation_energy_3>  (640) 
5.082

>  <excitation_energy_4>  (640) 
5.175

>  <homo_energy>  (640) 
-5.516

>  <homo_lumo_gap>  (640) 
5.421

>  <logP>  (640) 
0.832

>  <lumo_energy>  (640) 
-0.095

>  <melting_point>  (640) 
89.95

>  <molecular_refractivity>  (640) 
57.91

>  <oscillator_strength_1>  (640) 
0.1127

>  <oscillator_strength_2>  (640) 
0.0002

>  <oscillator_strength_3>  (640) 
0.0173

>  <oscillator_strength_4>  (640) 
0.0111

>  <open_babel_can_smiles>  (640) 
CN1CCc2c([C@@H]1O)cc1c(c2)OCO1

>  <mulliken_charges>  (640) 
28
1   -0.289222
2   -0.328198
3   -0.145591
4   -0.253774
5   -0.227467
6   0.19457
7   0.111475
8   0.033375
9   0.345428
10   0.335667
11   0.189195
12   -0.395983
13   -0.624197
14   -0.535626
15   -0.535654
16   0.14294
17   0.148743
18   0.140244
19   0.16274
20   0.141065
21   0.109942
22   0.140502
23   0.137767
24   0.152256
25   0.159663
26   0.159898
27   0.146249
28   0.383991

>  <lowdin_charges>  (640) 
28
1   -0.355243
2   -0.276544
3   -0.197524
4   -0.196105
5   -0.180953
6   0.019818
7   -0.013315
8   -0.046605
9   0.076069
10   0.066884
11   0.042135
12   -0.183309
13   -0.478292
14   -0.207542
15   -0.206816
16   0.146684
17   0.153416
18   0.134603
19   0.158386
20   0.152392
21   0.112123
22   0.149536
23   0.16823
24   0.176034
25   0.148931
26   0.148161
27   0.150418
28   0.338429

$$$$
PCCDB-ID:  3651
     RDKit          3D

 24 24  0  0  1  0  0  0  0  0999 V2000
    0.8868    0.3500   -0.3338 C   0  0  0  0  0  0  0  0  0  0  0  0
    2.6012   -1.8426    2.5867 C   0  0  0  0  0  0  0  0  0  0  0  0
    1.1793   -2.9397    0.9997 C   0  0  0  0  0  0  0  0  0  0  0  0
    1.9965   -2.5484    3.6264 C   0  0  0  0  0  0  0  0  0  0  0  0
    0.5644   -3.6546    2.0244 C   0  0  0  0  0  0  0  0  0  0  0  0
    2.8549   -1.2223    0.1422 C   0  0  0  0  0  0  0  0  0  0  0  0
    2.3715    0.2510    0.0194 C   0  0  1  0  0  0  0  0  0  0  0  0
    2.2069   -2.0192    1.2539 C   0  0  0  0  0  0  0  0  0  0  0  0
    0.9719   -3.4581    3.3470 C   0  0  0  0  0  0  0  0  0  0  0  0
    3.1416    1.0361   -0.9560 N   0  0  0  0  0  0  0  0  0  0  0  0
    0.3391   -4.1846    4.3202 O   0  0  0  0  0  0  0  0  0  0  0  0
    0.2667   -0.1686    0.4033 H   0  0  0  0  0  0  0  0  0  0  0  0
    0.6907   -0.1035   -1.3156 H   0  0  0  0  0  0  0  0  0  0  0  0
    0.5803    1.3992   -0.3811 H   0  0  0  0  0  0  0  0  0  0  0  0
    3.4019   -1.1443    2.8214 H   0  0  0  0  0  0  0  0  0  0  0  0
    0.8552   -3.1052   -0.0254 H   0  0  0  0  0  0  0  0  0  0  0  0
    2.3239   -2.3950    4.6536 H   0  0  0  0  0  0  0  0  0  0  0  0
   -0.2271   -4.3683    1.8180 H   0  0  0  0  0  0  0  0  0  0  0  0
    3.9436   -1.2029    0.2950 H   0  0  0  0  0  0  0  0  0  0  0  0
    2.6865   -1.7221   -0.8225 H   0  0  0  0  0  0  0  0  0  0  0  0
    2.5245    0.7317    0.9960 H   0  0  0  0  0  0  0  0  0  0  0  0
    3.0294    0.6232   -1.8833 H   0  0  0  0  0  0  0  0  0  0  0  0
    4.1371    0.9704   -0.7425 H   0  0  0  0  0  0  0  0  0  0  0  0
    0.7198   -3.9529    5.1814 H   0  0  0  0  0  0  0  0  0  0  0  0
  1  7  1  0
  1 12  1  0
  2 15  1  0
  2  4  2  0
  3  8  2  0
  3  5  1  0
  4 17  1  0
  5  9  2  0
  6 19  1  0
  6  8  1  0
  7  6  1  0
  7 21  1  1
  8  2  1  0
  9  4  1  0
  9 11  1  0
 10 23  1  0
 10  7  1  0
 11 24  1  0
 13  1  1  0
 14  1  1  0
 16  3  1  0
 18  5  1  0
 20  6  1  0
 22 10  1  0
M  END
>  <HBA>  (641) 
2

>  <HBD>  (641) 
2

>  <TPSA>  (641) 
46.25

>  <cid>  (641) 
3651

>  <dipole>  (641) 
1.64

>  <excitation_energy_1>  (641) 
4.86

>  <excitation_energy_2>  (641) 
5.051

>  <excitation_energy_3>  (641) 
5.236

>  <excitation_energy_4>  (641) 
5.571

>  <homo_energy>  (641) 
-5.709

>  <homo_lumo_gap>  (641) 
5.685

>  <logP>  (641) 
1.982

>  <lumo_energy>  (641) 
-0.024

>  <melting_point>  (641) 
101.05

>  <molecular_refractivity>  (641) 
45.75

>  <oscillator_strength_1>  (641) 
0.0303

>  <oscillator_strength_2>  (641) 
0.0012

>  <oscillator_strength_3>  (641) 
0.0568

>  <oscillator_strength_4>  (641) 
0.0975

>  <open_babel_can_smiles>  (641) 
C[C@@H](Cc1ccc(cc1)O)N

>  <mulliken_charges>  (641) 
24
1   -0.441744
2   -0.189512
3   -0.191948
4   -0.192398
5   -0.157443
6   -0.356427
7   0.03192
8   0.176593
9   0.34745
10   -0.702536
11   -0.643987
12   0.156336
13   0.127393
14   0.159272
15   0.123639
16   0.125228
17   0.116986
18   0.138502
19   0.12989
20   0.127421
21   0.132509
22   0.286741
23   0.289841
24   0.406271

>  <lowdin_charges>  (641) 
24
1   -0.449871
2   -0.156099
3   -0.154721
4   -0.212686
5   -0.185275
6   -0.29041
7   -0.06206
8   -0.023748
9   0.099052
10   -0.545754
11   -0.380461
12   0.159473
13   0.140433
14   0.158074
15   0.155218
16   0.154989
17   0.151289
18   0.167214
19   0.141701
20   0.142002
21   0.138026
22   0.248555
23   0.248085
24   0.356971

$$$$
PCCDB-ID:  3657
     RDKit          3D

  9  8  0  0  0  0  0  0  0  0999 V2000
    0.9140   -0.1574    0.0888 C   0  0  0  0  0  0  0  0  0  0  0  0
    0.3990   -0.7388    1.1002 N   0  0  0  0  0  0  0  0  0  0  0  0
    0.2470    0.5808   -0.9010 N   0  0  0  0  0  0  0  0  0  0  0  0
    2.2176   -0.3162   -0.2136 O   0  0  0  0  0  0  0  0  0  0  0  0
    1.0137    1.6320   -1.4782 O   0  0  0  0  0  0  0  0  0  0  0  0
   -0.5882   -0.5114    1.2210 H   0  0  0  0  0  0  0  0  0  0  0  0
   -0.6042    1.0069   -0.5479 H   0  0  0  0  0  0  0  0  0  0  0  0
    2.5683   -0.8891    0.4914 H   0  0  0  0  0  0  0  0  0  0  0  0
    1.2764    1.2638   -2.3377 H   0  0  0  0  0  0  0  0  0  0  0  0
  1  2  2  0
  2  6  1  0
  3  7  1  0
  3  1  1  0
  4  1  1  0
  4  8  1  0
  5  3  1  0
  9  5  1  0
M  END
>  <HBA>  (642) 
4

>  <HBD>  (642) 
3

>  <TPSA>  (642) 
75.35

>  <cid>  (642) 
3657

>  <dipole>  (642) 
1.41

>  <excitation_energy_1>  (642) 
5.808

>  <excitation_energy_2>  (642) 
6.103

>  <excitation_energy_3>  (642) 
6.742

>  <excitation_energy_4>  (642) 
6.768

>  <homo_energy>  (642) 
-6.642

>  <homo_lumo_gap>  (642) 
7.472

>  <logP>  (642) 
0.135

>  <lumo_energy>  (642) 
0.83

>  <melting_point>  (642) 
143.82

>  <molecular_refractivity>  (642) 
13.75

>  <oscillator_strength_1>  (642) 
0.0117

>  <oscillator_strength_2>  (642) 
0.0302

>  <oscillator_strength_3>  (642) 
0.0105

>  <oscillator_strength_4>  (642) 
0.0099

>  <open_babel_can_smiles>  (642) 
ONC(=N)O

>  <mulliken_charges>  (642) 
9
1   0.643763
2   -0.639152
3   -0.391598
4   -0.57557
5   -0.500662
6   0.280401
7   0.335235
8   0.424156
9   0.423427

>  <lowdin_charges>  (642) 
9
1   0.150665
2   -0.467037
3   -0.20191
4   -0.358746
5   -0.391535
6   0.257193
7   0.279997
8   0.372211
9   0.359162

$$$$
PCCDB-ID:  3671
     RDKit          3D

 35 36  0  0  0  0  0  0  0  0999 V2000
    1.2379   -0.3736   -0.2746 C   0  0  0  0  0  0  0  0  0  0  0  0
    2.9370    0.5518    1.3732 C   0  0  0  0  0  0  0  0  0  0  0  0
    1.9324    6.3687    0.2978 C   0  0  0  0  0  0  0  0  0  0  0  0
    4.4127    5.8596    0.1455 C   0  0  0  0  0  0  0  0  0  0  0  0
    5.0479    3.6901   -4.1955 C   0  0  0  0  0  0  0  0  0  0  0  0
    4.9975    2.3556   -4.6735 C   0  0  0  0  0  0  0  0  0  0  0  0
    4.4560    4.0339   -3.0005 C   0  0  0  0  0  0  0  0  0  0  0  0
    4.3570    1.4019   -3.9301 C   0  0  0  0  0  0  0  0  0  0  0  0
    1.9728    0.8836    0.2146 C   0  0  0  0  0  0  0  0  0  0  0  0
    3.0014    5.4799   -0.3517 C   0  0  0  0  0  0  0  0  0  0  0  0
    3.7820    3.0506   -2.2331 C   0  0  0  0  0  0  0  0  0  0  0  0
    3.0828    2.9589   -1.0043 C   0  0  0  0  0  0  0  0  0  0  0  0
    2.7203    1.5766   -0.8996 C   0  0  0  0  0  0  0  0  0  0  0  0
    2.7413    3.9998   -0.0280 C   0  0  0  0  0  0  0  0  0  0  0  0
    3.1308    0.8667   -1.9502 N   0  0  0  0  0  0  0  0  0  0  0  0
    3.7779    1.7562   -2.7489 N   0  0  0  0  0  0  0  0  0  0  0  0
    2.2528    3.7077    1.0632 O   0  0  0  0  0  0  0  0  0  0  0  0
    0.6682   -0.8140    0.5516 H   0  0  0  0  0  0  0  0  0  0  0  0
    1.9396   -1.1263   -0.6474 H   0  0  0  0  0  0  0  0  0  0  0  0
    0.5397   -0.1407   -1.0857 H   0  0  0  0  0  0  0  0  0  0  0  0
    2.3863    0.0787    2.1947 H   0  0  0  0  0  0  0  0  0  0  0  0
    3.4071    1.4602    1.7585 H   0  0  0  0  0  0  0  0  0  0  0  0
    3.7187   -0.1421    1.0420 H   0  0  0  0  0  0  0  0  0  0  0  0
    1.9138    6.2150    1.3798 H   0  0  0  0  0  0  0  0  0  0  0  0
    0.9341    6.1355   -0.0882 H   0  0  0  0  0  0  0  0  0  0  0  0
    2.1403    7.4251    0.0934 H   0  0  0  0  0  0  0  0  0  0  0  0
    4.6295    6.9108   -0.0768 H   0  0  0  0  0  0  0  0  0  0  0  0
    5.1955    5.2462   -0.3153 H   0  0  0  0  0  0  0  0  0  0  0  0
    4.4754    5.7204    1.2304 H   0  0  0  0  0  0  0  0  0  0  0  0
    5.5627    4.4489   -4.7767 H   0  0  0  0  0  0  0  0  0  0  0  0
    5.4609    2.0785   -5.6133 H   0  0  0  0  0  0  0  0  0  0  0  0
    4.5107    5.0520   -2.6392 H   0  0  0  0  0  0  0  0  0  0  0  0
    4.2611    0.3557   -4.1909 H   0  0  0  0  0  0  0  0  0  0  0  0
    1.2435    1.6010    0.6031 H   0  0  0  0  0  0  0  0  0  0  0  0
    2.9549    5.6222   -1.4377 H   0  0  0  0  0  0  0  0  0  0  0  0
  1  9  1  0
  1 18  1  0
  2 22  1  0
  2 21  1  0
  3 24  1  0
  4 29  1  0
  5  7  2  0
  6  5  1  0
  6  8  2  0
  7 32  1  0
  7 11  1  0
  8 16  1  0
  9 34  1  0
  9  2  1  0
 10 14  1  0
 10  4  1  0
 10  3  1  0
 11 12  2  0
 12 13  1  0
 12 14  1  0
 13  9  1  0
 14 17  2  0
 15 13  2  0
 16 11  1  0
 16 15  1  0
 19  1  1  0
 20  1  1  0
 23  2  1  0
 25  3  1  0
 26  3  1  0
 27  4  1  0
 28  4  1  0
 30  5  1  0
 31  6  1  0
 33  8  1  0
 35 10  1  0
M  END
>  <HBA>  (643) 
3

>  <HBD>  (643) 
0

>  <TPSA>  (643) 
34.37

>  <cid>  (643) 
3671

>  <dipole>  (643) 
4.7

>  <excitation_energy_1>  (643) 
3.827

>  <excitation_energy_2>  (643) 
3.982

>  <excitation_energy_3>  (643) 
4.51

>  <excitation_energy_4>  (643) 
4.639

>  <homo_energy>  (643) 
-5.94

>  <homo_lumo_gap>  (643) 
4.555

>  <logP>  (643) 
3.296

>  <lumo_energy>  (643) 
-1.385

>  <melting_point>  (643) 
94.46

>  <molecular_refractivity>  (643) 
69.58

>  <oscillator_strength_1>  (643) 
0.0013

>  <oscillator_strength_2>  (643) 
0.1116

>  <oscillator_strength_3>  (643) 
0.088

>  <oscillator_strength_4>  (643) 
0.014

>  <open_babel_can_smiles>  (643) 
CC(C(=O)c1c(nn2c1cccc2)C(C)C)C

>  <mulliken_charges>  (643) 
35
1   -0.441118
2   -0.444972
3   -0.439195
4   -0.453431
5   -0.109573
6   -0.190154
7   -0.209205
8   0.102751
9   -0.127746
10   -0.167877
11   0.40234
12   -0.137047
13   0.330318
14   0.402372
15   -0.387649
16   -0.367048
17   -0.505009
18   0.135977
19   0.155676
20   0.142984
21   0.141064
22   0.167489
23   0.140112
24   0.170552
25   0.14663
26   0.133116
27   0.147653
28   0.147663
29   0.165714
30   0.149308
31   0.153546
32   0.163319
33   0.188456
34   0.164443
35   0.128541

>  <lowdin_charges>  (643) 
35
1   -0.444072
2   -0.440881
3   -0.435895
4   -0.441024
5   -0.144071
6   -0.184091
7   -0.172804
8   -0.079675
9   -0.12642
10   -0.149404
11   0.043921
12   -0.140957
13   0.056371
14   0.155656
15   -0.171924
16   0.104577
17   -0.271733
18   0.148237
19   0.155493
20   0.150907
21   0.150159
22   0.161904
23   0.146605
24   0.161261
25   0.15186
26   0.14452
27   0.150541
28   0.150734
29   0.158761
30   0.170047
31   0.174016
32   0.175864
33   0.185462
34   0.166796
35   0.13926

$$$$
PCCDB-ID:  3672
     RDKit          3D

 33 33  0  0  1  0  0  0  0  0999 V2000
    1.1394   -1.0487    0.6143 C   0  0  0  0  0  0  0  0  0  0  0  0
    2.8112   -0.0503   -0.9995 C   0  0  0  0  0  0  0  0  0  0  0  0
   10.0469   -1.2862    1.8006 C   0  0  0  0  0  0  0  0  0  0  0  0
    5.6455   -1.7947    1.2377 C   0  0  0  0  0  0  0  0  0  0  0  0
    5.7224    0.5872    0.9617 C   0  0  0  0  0  0  0  0  0  0  0  0
    7.0189   -1.8696    1.0262 C   0  0  0  0  0  0  0  0  0  0  0  0
    7.1011    0.5162    0.7478 C   0  0  0  0  0  0  0  0  0  0  0  0
    3.4720   -0.5042    1.4307 C   0  0  0  0  0  0  0  0  0  0  0  0
    2.6204   -0.9631    0.2191 C   0  0  0  0  0  0  0  0  0  0  0  0
    9.2810   -0.7865    0.5663 C   0  0  2  0  0  0  0  0  0  0  0  0
    4.9683   -0.5648    1.2101 C   0  0  0  0  0  0  0  0  0  0  0  0
    7.7750   -0.7109    0.7792 C   0  0  0  0  0  0  0  0  0  0  0  0
    9.6649   -1.6127   -0.6785 C   0  0  0  0  0  0  0  0  0  0  0  0
   10.6595   -2.2902   -0.7566 O   0  0  0  0  0  0  0  0  0  0  0  0
    8.8320   -1.4918   -1.7429 O   0  0  0  0  0  0  0  0  0  0  0  0
    0.5263   -1.3931   -0.2266 H   0  0  0  0  0  0  0  0  0  0  0  0
    0.7579   -0.0664    0.9221 H   0  0  0  0  0  0  0  0  0  0  0  0
    0.9856   -1.7426    1.4493 H   0  0  0  0  0  0  0  0  0  0  0  0
    2.2325   -0.4160   -1.8556 H   0  0  0  0  0  0  0  0  0  0  0  0
    3.8616    0.0064   -1.3037 H   0  0  0  0  0  0  0  0  0  0  0  0
    2.4695    0.9701   -0.7802 H   0  0  0  0  0  0  0  0  0  0  0  0
    9.8571   -0.6291    2.6548 H   0  0  0  0  0  0  0  0  0  0  0  0
   11.1196   -1.3100    1.5948 H   0  0  0  0  0  0  0  0  0  0  0  0
    9.7382   -2.3006    2.0721 H   0  0  0  0  0  0  0  0  0  0  0  0
    5.0868   -2.7073    1.4335 H   0  0  0  0  0  0  0  0  0  0  0  0
    5.2282    1.5558    0.9406 H   0  0  0  0  0  0  0  0  0  0  0  0
    7.5115   -2.8388    1.0555 H   0  0  0  0  0  0  0  0  0  0  0  0
    7.6616    1.4310    0.5662 H   0  0  0  0  0  0  0  0  0  0  0  0
    3.2120   -1.1344    2.2919 H   0  0  0  0  0  0  0  0  0  0  0  0
    3.1804    0.5208    1.6975 H   0  0  0  0  0  0  0  0  0  0  0  0
    2.9575   -1.9733   -0.0571 H   0  0  0  0  0  0  0  0  0  0  0  0
    9.6318    0.2319    0.3392 H   0  0  0  0  0  0  0  0  0  0  0  0
    8.0488   -0.9765   -1.4777 H   0  0  0  0  0  0  0  0  0  0  0  0
  1 17  1  0
  1 18  1  0
  2 21  1  0
  2  9  1  0
  3 24  1  0
  3 22  1  0
  4 25  1  0
  5 11  2  0
  6 27  1  0
  6  4  2  0
  7 12  2  0
  7  5  1  0
  8 30  1  0
  8 29  1  0
  9  1  1  0
  9  8  1  0
 10 32  1  6
 10 12  1  0
 10  3  1  0
 11  4  1  0
 11  8  1  0
 12  6  1  0
 13 10  1  0
 14 13  2  0
 15 33  1  0
 15 13  1  0
 16  1  1  0
 19  2  1  0
 20  2  1  0
 23  3  1  0
 26  5  1  0
 28  7  1  0
 31  9  1  0
M  END
>  <HBA>  (644) 
2

>  <HBD>  (644) 
1

>  <TPSA>  (644) 
37.3

>  <cid>  (644) 
3672

>  <dipole>  (644) 
4.92

>  <excitation_energy_1>  (644) 
5.132

>  <excitation_energy_2>  (644) 
5.454

>  <excitation_energy_3>  (644) 
5.619

>  <excitation_energy_4>  (644) 
5.933

>  <homo_energy>  (644) 
-6.659

>  <homo_lumo_gap>  (644) 
6.153

>  <logP>  (644) 
3.073

>  <lumo_energy>  (644) 
-0.506

>  <melting_point>  (644) 
85.83

>  <molecular_refractivity>  (644) 
62.18

>  <oscillator_strength_1>  (644) 
0.0016

>  <oscillator_strength_2>  (644) 
0.0257

>  <oscillator_strength_3>  (644) 
0.1466

>  <oscillator_strength_4>  (644) 
0.0056

>  <open_babel_can_smiles>  (644) 
CC(Cc1ccc(cc1)[C@H](C(=O)O)C)C

>  <mulliken_charges>  (644) 
33
1   -0.441469
2   -0.444907
3   -0.433121
4   -0.180272
5   -0.180423
6   -0.168977
7   -0.194899
8   -0.345686
9   -0.066807
10   -0.277846
11   0.176572
12   0.099027
13   0.605475
14   -0.4484
15   -0.571051
16   0.145378
17   0.141049
18   0.141203
19   0.144894
20   0.148724
21   0.136631
22   0.147508
23   0.175354
24   0.157285
25   0.132777
26   0.131524
27   0.144934
28   0.133044
29   0.144567
30   0.13796
31   0.128923
32   0.16825
33   0.41278

>  <lowdin_charges>  (644) 
33
1   -0.445687
2   -0.446436
3   -0.432912
4   -0.16006
5   -0.165305
6   -0.160384
7   -0.17401
8   -0.274972
9   -0.116357
10   -0.162044
11   0.004441
12   -0.032507
13   0.186634
14   -0.239705
15   -0.355234
16   0.151996
17   0.146488
18   0.148605
19   0.151722
20   0.15129
21   0.143651
22   0.154546
23   0.166876
24   0.155866
25   0.159522
26   0.158597
27   0.16343
28   0.158351
29   0.152977
30   0.14646
31   0.137506
32   0.166204
33   0.360453

$$$$
PCCDB-ID:  3675
     RDKit          3D

 22 22  0  0  0  0  0  0  0  0999 V2000
   -1.4772   -0.5810    0.1923 C   0  0  0  0  0  0  0  0  0  0  0  0
   -0.6894   -0.4530    1.3376 C   0  0  0  0  0  0  0  0  0  0  0  0
   -0.8797   -0.4997   -1.0668 C   0  0  0  0  0  0  0  0  0  0  0  0
    0.6860   -0.2473    1.2218 C   0  0  0  0  0  0  0  0  0  0  0  0
    0.4961   -0.2940   -1.1767 C   0  0  0  0  0  0  0  0  0  0  0  0
    2.7963    0.0222   -0.1604 C   0  0  0  0  0  0  0  0  0  0  0  0
    3.5538   -1.3144   -0.1997 C   0  0  0  0  0  0  0  0  0  0  0  0
    1.2992   -0.1645   -0.0355 C   0  0  0  0  0  0  0  0  0  0  0  0
    5.6888   -2.3709   -0.2558 N   0  0  0  0  0  0  0  0  0  0  0  0
    4.9841   -1.0774   -0.4168 N   0  0  0  0  0  0  0  0  0  0  0  0
   -2.5487   -0.7396    0.2802 H   0  0  0  0  0  0  0  0  0  0  0  0
   -1.1457   -0.5107    2.3225 H   0  0  0  0  0  0  0  0  0  0  0  0
   -1.4851   -0.5931   -1.9648 H   0  0  0  0  0  0  0  0  0  0  0  0
    1.2929   -0.1437    2.1190 H   0  0  0  0  0  0  0  0  0  0  0  0
    0.9545   -0.2254   -2.1612 H   0  0  0  0  0  0  0  0  0  0  0  0
    3.0387    0.5830   -1.0706 H   0  0  0  0  0  0  0  0  0  0  0  0
    3.1655    0.6170    0.6866 H   0  0  0  0  0  0  0  0  0  0  0  0
    3.1797   -1.9136   -1.0418 H   0  0  0  0  0  0  0  0  0  0  0  0
    3.3583   -1.8963    0.7170 H   0  0  0  0  0  0  0  0  0  0  0  0
    6.6414   -2.1635   -0.5685 H   0  0  0  0  0  0  0  0  0  0  0  0
    5.3207   -2.9420   -1.0222 H   0  0  0  0  0  0  0  0  0  0  0  0
    5.3071   -0.5455    0.3950 H   0  0  0  0  0  0  0  0  0  0  0  0
  1 11  1  0
  1  2  2  0
  2 12  1  0
  3  1  1  0
  4  2  1  0
  4 14  1  0
  5  3  2  0
  5  8  1  0
  6  8  1  0
  6 17  1  0
  7  6  1  0
  7 19  1  0
  8  4  2  0
 10  9  1  0
 10  7  1  0
 10 22  1  0
 13  3  1  0
 15  5  1  0
 16  6  1  0
 18  7  1  0
 20  9  1  0
 21  9  1  0
M  END
>  <HBA>  (645) 
2

>  <HBD>  (645) 
2

>  <TPSA>  (645) 
38.05

>  <cid>  (645) 
3675

>  <dipole>  (645) 
0.38

>  <excitation_energy_1>  (645) 
4.72

>  <excitation_energy_2>  (645) 
4.851

>  <excitation_energy_3>  (645) 
4.867

>  <excitation_energy_4>  (645) 
5.27

>  <homo_energy>  (645) 
-5.331

>  <homo_lumo_gap>  (645) 
5.407

>  <logP>  (645) 
1.784

>  <lumo_energy>  (645) 
0.076

>  <melting_point>  (645) 
87.91

>  <molecular_refractivity>  (645) 
41.72

>  <oscillator_strength_1>  (645) 
0.001

>  <oscillator_strength_2>  (645) 
0.0051

>  <oscillator_strength_3>  (645) 
0.0026

>  <oscillator_strength_4>  (645) 
0.0078

>  <open_babel_can_smiles>  (645) 
NNCCc1ccccc1

>  <mulliken_charges>  (645) 
22
1   -0.130911
2   -0.127892
3   -0.128263
4   -0.178677
5   -0.180412
6   -0.361829
7   -0.109187
8   0.168791
9   -0.595105
10   -0.469391
11   0.127699
12   0.128395
13   0.128203
14   0.122381
15   0.124439
16   0.157499
17   0.138167
18   0.138124
19   0.135749
20   0.304249
21   0.302787
22   0.305184

>  <lowdin_charges>  (645) 
22
1   -0.158349
2   -0.154992
3   -0.156315
4   -0.168114
5   -0.166984
6   -0.277639
7   -0.208479
8   0.000654
9   -0.496682
10   -0.324306
11   0.155036
12   0.156687
13   0.157452
14   0.154608
15   0.154558
16   0.157111
17   0.147004
18   0.14022
19   0.130767
20   0.253032
21   0.253126
22   0.251606

$$$$
PCCDB-ID:  3676
     RDKit          3D

 39 39  0  0  0  0  0  0  0  0999 V2000
    7.6738   -2.4033    0.9478 C   0  0  0  0  0  0  0  0  0  0  0  0
    6.4047   -6.5055    1.0023 C   0  0  0  0  0  0  0  0  0  0  0  0
    1.0231   -4.6913    1.8569 C   0  0  0  0  0  0  0  0  0  0  0  0
    2.6278   -0.0859    0.4843 C   0  0  0  0  0  0  0  0  0  0  0  0
    7.0551   -3.5227    1.7851 C   0  0  0  0  0  0  0  0  0  0  0  0
    5.5196   -5.4427    1.6521 C   0  0  0  0  0  0  0  0  0  0  0  0
    0.4046   -1.2388    3.3664 C   0  0  0  0  0  0  0  0  0  0  0  0
    0.3750   -2.6163    3.1547 C   0  0  0  0  0  0  0  0  0  0  0  0
    1.1404   -0.4292    2.5028 C   0  0  0  0  0  0  0  0  0  0  0  0
    4.6593   -3.1870    1.3768 C   0  0  0  0  0  0  0  0  0  0  0  0
    1.0813   -3.2024    2.0998 C   0  0  0  0  0  0  0  0  0  0  0  0
    1.8635   -0.9743    1.4370 C   0  0  0  0  0  0  0  0  0  0  0  0
    3.7089   -3.2998    0.1752 C   0  0  0  0  0  0  0  0  0  0  0  0
    1.8484   -2.3744    1.2505 C   0  0  0  0  0  0  0  0  0  0  0  0
    2.4918   -2.9396    0.1285 N   0  0  0  0  0  0  0  0  0  0  0  0
    5.8198   -4.0696    1.1940 N   0  0  0  0  0  0  0  0  0  0  0  0
    4.2967   -3.8169   -0.9183 O   0  0  0  0  0  0  0  0  0  0  0  0
    8.6003   -2.0526    1.4156 H   0  0  0  0  0  0  0  0  0  0  0  0
    7.0086   -1.5384    0.8503 H   0  0  0  0  0  0  0  0  0  0  0  0
    7.9100   -2.7623   -0.0594 H   0  0  0  0  0  0  0  0  0  0  0  0
    6.1083   -7.5005    1.3519 H   0  0  0  0  0  0  0  0  0  0  0  0
    7.4648   -6.3756    1.2445 H   0  0  0  0  0  0  0  0  0  0  0  0
    6.2996   -6.4807   -0.0876 H   0  0  0  0  0  0  0  0  0  0  0  0
    0.8063   -4.9088    0.8049 H   0  0  0  0  0  0  0  0  0  0  0  0
    0.2530   -5.1595    2.4783 H   0  0  0  0  0  0  0  0  0  0  0  0
    1.9763   -5.1875    2.0874 H   0  0  0  0  0  0  0  0  0  0  0  0
    2.3779    0.9673    0.6476 H   0  0  0  0  0  0  0  0  0  0  0  0
    2.4031   -0.3410   -0.5574 H   0  0  0  0  0  0  0  0  0  0  0  0
    3.7162   -0.1834    0.6015 H   0  0  0  0  0  0  0  0  0  0  0  0
    6.8716   -3.1752    2.8170 H   0  0  0  0  0  0  0  0  0  0  0  0
    7.7761   -4.3417    1.8579 H   0  0  0  0  0  0  0  0  0  0  0  0
    5.5848   -5.5057    2.7529 H   0  0  0  0  0  0  0  0  0  0  0  0
    4.4771   -5.6507    1.3879 H   0  0  0  0  0  0  0  0  0  0  0  0
   -0.1561   -0.7981    4.1863 H   0  0  0  0  0  0  0  0  0  0  0  0
   -0.2137   -3.2536    3.8112 H   0  0  0  0  0  0  0  0  0  0  0  0
    1.1516    0.6490    2.6479 H   0  0  0  0  0  0  0  0  0  0  0  0
    4.1095   -3.3880    2.3071 H   0  0  0  0  0  0  0  0  0  0  0  0
    5.0019   -2.1486    1.4338 H   0  0  0  0  0  0  0  0  0  0  0  0
    5.2106   -4.0435   -0.6145 H   0  0  0  0  0  0  0  0  0  0  0  0
  1 18  1  0
  1  5  1  0
  2 22  1  0
  2 21  1  0
  2  6  1  0
  3 26  1  0
  3 11  1  0
  3 25  1  0
  4 29  1  0
  4 27  1  0
  4 12  1  0
  5 31  1  0
  5 30  1  0
  6 32  1  0
  7 34  1  0
  8  7  2  0
  8 35  1  0
  9 36  1  0
  9  7  1  0
 10 38  1  0
 10 37  1  0
 11  8  1  0
 12  9  2  0
 13 10  1  0
 14 12  1  0
 14 11  2  0
 15 13  2  0
 15 14  1  0
 16 10  1  0
 16  6  1  0
 16  5  1  0
 17 39  1  0
 17 13  1  0
 19  1  1  0
 20  1  1  0
 23  2  1  0
 24  3  1  0
 28  4  1  0
 33  6  1  0
M  END
>  <HBA>  (646) 
3

>  <HBD>  (646) 
1

>  <TPSA>  (646) 
32.34

>  <cid>  (646) 
3676

>  <dipole>  (646) 
5.09

>  <excitation_energy_1>  (646) 
4.738

>  <excitation_energy_2>  (646) 
4.906

>  <excitation_energy_3>  (646) 
4.98

>  <excitation_energy_4>  (646) 
5.283

>  <homo_energy>  (646) 
-5.404

>  <homo_lumo_gap>  (646) 
5.872

>  <logP>  (646) 
2.657

>  <lumo_energy>  (646) 
0.468

>  <melting_point>  (646) 
68.25

>  <molecular_refractivity>  (646) 
72.81

>  <oscillator_strength_1>  (646) 
0.0075

>  <oscillator_strength_2>  (646) 
0.0235

>  <oscillator_strength_3>  (646) 
0.0126

>  <oscillator_strength_4>  (646) 
0.0315

>  <open_babel_can_smiles>  (646) 
CCN(C/C(=N\c1c(C)cccc1C)/O)CC

>  <mulliken_charges>  (646) 
39
1   -0.450815
2   -0.450955
3   -0.532932
4   -0.53272
5   -0.125526
6   -0.135726
7   -0.120484
8   -0.208165
9   -0.207446
10   -0.229694
11   0.174444
12   0.17582
13   0.494369
14   0.090131
15   -0.482765
16   -0.441966
17   -0.592416
18   0.153071
19   0.153918
20   0.158401
21   0.155228
22   0.152659
23   0.160022
24   0.178104
25   0.146853
26   0.143165
27   0.147987
28   0.178848
29   0.140969
30   0.133129
31   0.149552
32   0.13472
33   0.165824
34   0.117336
35   0.114282
36   0.114289
37   0.174581
38   0.183431
39   0.420475

>  <lowdin_charges>  (646) 
39
1   -0.450564
2   -0.446403
3   -0.442075
4   -0.437371
5   -0.197664
6   -0.197633
7   -0.175835
8   -0.172872
9   -0.169014
10   -0.239486
11   -0.025133
12   -0.025344
13   0.125734
14   0.027692
15   -0.181985
16   -0.193752
17   -0.359169
18   0.158307
19   0.151638
20   0.155358
21   0.159007
22   0.149275
23   0.154479
24   0.16713
25   0.154175
26   0.147016
27   0.152215
28   0.167322
29   0.1448
30   0.129601
31   0.152005
32   0.13012
33   0.154017
34   0.154015
35   0.152322
36   0.148895
37   0.161497
38   0.16941
39   0.348272

$$$$
PCCDB-ID:  3677
     RDKit          3D

 29 29  0  0  0  0  0  0  0  0999 V2000
    0.9790    0.3796   -0.0424 C   0  0  0  0  0  0  0  0  0  0  0  0
    3.0295    0.5404    1.3981 C   0  0  0  0  0  0  0  0  0  0  0  0
    2.8697    0.8545   -2.3711 C   0  0  0  0  0  0  0  0  0  0  0  0
    1.1415   -4.3020    2.4787 C   0  0  0  0  0  0  0  0  0  0  0  0
    0.4308   -3.9085    1.3435 C   0  0  0  0  0  0  0  0  0  0  0  0
    2.4005   -3.7517    2.7240 C   0  0  0  0  0  0  0  0  0  0  0  0
    0.9757   -2.9699    0.4662 C   0  0  0  0  0  0  0  0  0  0  0  0
    2.9393   -2.8130    1.8432 C   0  0  0  0  0  0  0  0  0  0  0  0
    2.8271   -1.3831   -0.2536 C   0  0  0  0  0  0  0  0  0  0  0  0
    2.2342   -2.3971    0.7037 C   0  0  0  0  0  0  0  0  0  0  0  0
    2.4990    0.1190    0.0186 C   0  0  0  0  0  0  0  0  0  0  0  0
    3.2692    0.9150   -0.9673 N   0  0  0  0  0  0  0  0  0  0  0  0
    0.4508   -0.1666    0.7457 H   0  0  0  0  0  0  0  0  0  0  0  0
    0.5487    0.0723   -1.0024 H   0  0  0  0  0  0  0  0  0  0  0  0
    0.7707    1.4486    0.0916 H   0  0  0  0  0  0  0  0  0  0  0  0
    2.5672   -0.0429    2.1992 H   0  0  0  0  0  0  0  0  0  0  0  0
    2.8074    1.5992    1.5863 H   0  0  0  0  0  0  0  0  0  0  0  0
    4.1160    0.4100    1.4468 H   0  0  0  0  0  0  0  0  0  0  0  0
    3.5101    1.5379   -2.9391 H   0  0  0  0  0  0  0  0  0  0  0  0
    1.8202    1.1264   -2.5796 H   0  0  0  0  0  0  0  0  0  0  0  0
    3.0392   -0.1497   -2.7727 H   0  0  0  0  0  0  0  0  0  0  0  0
    0.7223   -5.0373    3.1603 H   0  0  0  0  0  0  0  0  0  0  0  0
   -0.5456   -4.3385    1.1351 H   0  0  0  0  0  0  0  0  0  0  0  0
    2.9688   -4.0589    3.5984 H   0  0  0  0  0  0  0  0  0  0  0  0
    0.4185   -2.6800   -0.4218 H   0  0  0  0  0  0  0  0  0  0  0  0
    3.9262   -2.3995    2.0374 H   0  0  0  0  0  0  0  0  0  0  0  0
    2.4915   -1.6293   -1.2679 H   0  0  0  0  0  0  0  0  0  0  0  0
    3.9197   -1.4694   -0.2554 H   0  0  0  0  0  0  0  0  0  0  0  0
    3.2461    1.8881   -0.6670 H   0  0  0  0  0  0  0  0  0  0  0  0
  1 11  1  0
  1 15  1  0
  1 13  1  0
  2 18  1  0
  2 17  1  0
  2 16  1  0
  3 12  1  0
  4  6  2  0
  4 22  1  0
  5  4  1  0
  6 24  1  0
  7 10  1  0
  7  5  2  0
  8 26  1  0
  8  6  1  0
  9 11  1  0
  9 10  1  0
 10  8  2  0
 11  2  1  0
 12 29  1  0
 12 11  1  0
 14  1  1  0
 19  3  1  0
 20  3  1  0
 21  3  1  0
 23  5  1  0
 25  7  1  0
 27  9  1  0
 28  9  1  0
M  END
>  <HBA>  (647) 
1

>  <HBD>  (647) 
1

>  <TPSA>  (647) 
12.03

>  <cid>  (647) 
3677

>  <dipole>  (647) 
0.91

>  <excitation_energy_1>  (647) 
5.108

>  <excitation_energy_2>  (647) 
5.163

>  <excitation_energy_3>  (647) 
5.29

>  <excitation_energy_4>  (647) 
5.364

>  <homo_energy>  (647) 
-5.774

>  <homo_lumo_gap>  (647) 
5.875

>  <logP>  (647) 
2.618

>  <lumo_energy>  (647) 
0.101

>  <melting_point>  (647) 
42.7

>  <molecular_refractivity>  (647) 
53.48

>  <oscillator_strength_1>  (647) 
0.0123

>  <oscillator_strength_2>  (647) 
0.0009

>  <oscillator_strength_3>  (647) 
0.0043

>  <oscillator_strength_4>  (647) 
0.0004

>  <open_babel_can_smiles>  (647) 
CNC(Cc1ccccc1)(C)C

>  <mulliken_charges>  (647) 
29
1   -0.457619
2   -0.463728
3   -0.308094
4   -0.131962
5   -0.129436
6   -0.12931
7   -0.182831
8   -0.183944
9   -0.353193
10   0.172663
11   0.218192
12   -0.549884
13   0.155443
14   0.138883
15   0.131253
16   0.15734
17   0.130556
18   0.151039
19   0.147338
20   0.123702
21   0.153553
22   0.126745
23   0.127017
24   0.127399
25   0.123056
26   0.126599
27   0.138522
28   0.152405
29   0.288299

>  <lowdin_charges>  (647) 
29
1   -0.461755
2   -0.447565
3   -0.36415
4   -0.162994
5   -0.156658
6   -0.157805
7   -0.168925
8   -0.166603
9   -0.277003
10   -0.000813
11   0.070575
12   -0.363555
13   0.159288
14   0.146399
15   0.143566
16   0.15955
17   0.142353
18   0.151688
19   0.152954
20   0.121359
21   0.147032
22   0.157466
23   0.155782
24   0.157041
25   0.154371
26   0.155022
27   0.148493
28   0.155599
29   0.24929

$$$$
PCCDB-ID:  3704
     RDKit          3D

 34 36  0  0  1  0  0  0  0  0999 V2000
   -2.4662   -0.9499    1.8988 C   0  0  0  0  0  0  0  0  0  0  0  0
    0.9807    0.1397   -1.0328 C   0  0  0  0  0  0  0  0  0  0  0  0
   -2.0991    0.1575    1.2250 C   0  0  0  0  0  0  0  0  0  0  0  0
   -0.1375    0.6971   -0.4135 C   0  0  0  0  0  0  0  0  0  0  0  0
   -1.5138   -2.0890    1.6151 C   0  0  0  0  0  0  0  0  0  0  0  0
    1.3511   -1.1942   -0.8185 C   0  0  0  0  0  0  0  0  0  0  0  0
    3.5845   -7.4739    1.3457 C   0  0  0  0  0  0  0  0  0  0  0  0
    3.3463   -7.3202   -0.1541 C   0  0  0  0  0  0  0  0  0  0  0  0
    2.2769   -5.4825    1.7133 C   0  0  0  0  0  0  0  0  0  0  0  0
    1.9989   -3.9221   -0.2875 C   0  0  0  0  0  0  0  0  0  0  0  0
   -0.8908   -0.1177    0.4377 C   0  0  0  0  0  0  0  0  0  0  0  0
    2.0654   -5.3634    0.2021 C   0  0  1  0  0  0  0  0  0  0  0  0
   -0.5299   -1.4579    0.6627 C   0  0  0  0  0  0  0  0  0  0  0  0
    0.5901   -2.0046    0.0387 C   0  0  0  0  0  0  0  0  0  0  0  0
    2.4376   -6.8983    2.0492 N   0  0  0  0  0  0  0  0  0  0  0  0
    3.1572   -5.9516   -0.5039 O   0  0  0  0  0  0  0  0  0  0  0  0
    0.8623   -3.3176    0.3179 O   0  0  0  0  0  0  0  0  0  0  0  0
   -3.3212   -1.0414    2.5598 H   0  0  0  0  0  0  0  0  0  0  0  0
    1.5858    0.7475   -1.7007 H   0  0  0  0  0  0  0  0  0  0  0  0
   -2.6053    1.1173    1.2458 H   0  0  0  0  0  0  0  0  0  0  0  0
   -0.4125    1.7331   -0.5907 H   0  0  0  0  0  0  0  0  0  0  0  0
   -2.0241   -2.9572    1.1725 H   0  0  0  0  0  0  0  0  0  0  0  0
   -1.0290   -2.4621    2.5294 H   0  0  0  0  0  0  0  0  0  0  0  0
    2.2277   -1.5889   -1.3193 H   0  0  0  0  0  0  0  0  0  0  0  0
    4.5421   -6.9824    1.6035 H   0  0  0  0  0  0  0  0  0  0  0  0
    3.6685   -8.5372    1.6001 H   0  0  0  0  0  0  0  0  0  0  0  0
    2.4620   -7.9081   -0.4465 H   0  0  0  0  0  0  0  0  0  0  0  0
    4.2097   -7.6654   -0.7305 H   0  0  0  0  0  0  0  0  0  0  0  0
    1.4055   -5.0793    2.2380 H   0  0  0  0  0  0  0  0  0  0  0  0
    3.1586   -4.8703    1.9875 H   0  0  0  0  0  0  0  0  0  0  0  0
    1.9126   -3.9137   -1.3818 H   0  0  0  0  0  0  0  0  0  0  0  0
    2.9184   -3.3886   -0.0096 H   0  0  0  0  0  0  0  0  0  0  0  0
    1.1295   -5.8822   -0.0611 H   0  0  0  0  0  0  0  0  0  0  0  0
    2.5480   -7.0074    3.0544 H   0  0  0  0  0  0  0  0  0  0  0  0
  1 18  1  0
  2  6  2  0
  2  4  1  0
  3 20  1  0
  3  1  2  0
  4 11  2  0
  5  1  1  0
  5 23  1  0
  6 14  1  0
  7 26  1  0
  7 25  1  0
  7 15  1  0
  8  7  1  0
  9 30  1  0
  9 15  1  0
  9 29  1  0
 10 32  1  0
 10 12  1  0
 10 17  1  0
 11 13  1  0
 11  3  1  0
 12 33  1  6
 12  9  1  0
 13  5  1  0
 14 17  1  0
 14 13  2  0
 15 34  1  0
 16  8  1  0
 16 12  1  0
 19  2  1  0
 21  4  1  0
 22  5  1  0
 24  6  1  0
 27  8  1  0
 28  8  1  0
 31 10  1  0
M  END
>  <HBA>  (648) 
3

>  <HBD>  (648) 
1

>  <TPSA>  (648) 
30.49

>  <cid>  (648) 
3704

>  <dipole>  (648) 
1.83

>  <excitation_energy_1>  (648) 
4.529

>  <excitation_energy_2>  (648) 
4.864

>  <excitation_energy_3>  (648) 
5.258

>  <excitation_energy_4>  (648) 
5.43

>  <homo_energy>  (648) 
-5.674

>  <homo_lumo_gap>  (648) 
5.246

>  <logP>  (648) 
1.952

>  <lumo_energy>  (648) 
-0.427

>  <melting_point>  (648) 
98.52

>  <molecular_refractivity>  (648) 
70.79

>  <oscillator_strength_1>  (648) 
0.0338

>  <oscillator_strength_2>  (648) 
0.1422

>  <oscillator_strength_3>  (648) 
0.0002

>  <oscillator_strength_4>  (648) 
0.0021

>  <open_babel_can_smiles>  (648) 
C1CO[C@@H](CN1)COc1cccc2c1CC=C2

>  <mulliken_charges>  (648) 
34
1   -0.139467
2   -0.138724
3   -0.147269
4   -0.203847
5   -0.370747
6   -0.205712
7   -0.144081
8   -0.019456
9   -0.139242
10   -0.04815
11   0.125372
12   0.132298
13   0.033455
14   0.332108
15   -0.561198
16   -0.500258
17   -0.539488
18   0.130561
19   0.125842
20   0.128944
21   0.122024
22   0.173156
23   0.169742
24   0.135373
25   0.121581
26   0.139476
27   0.133146
28   0.144273
29   0.157062
30   0.114576
31   0.155216
32   0.146797
33   0.135152
34   0.301484

>  <lowdin_charges>  (648) 
34
1   -0.163355
2   -0.149712
3   -0.166846
4   -0.187293
5   -0.268742
6   -0.219445
7   -0.21794
8   -0.134726
9   -0.221725
10   -0.129745
11   -0.001577
12   -0.008067
13   -0.036867
14   0.097595
15   -0.364874
16   -0.276926
17   -0.205429
18   0.158418
19   0.157827
20   0.158013
21   0.154675
22   0.172084
23   0.169881
24   0.163432
25   0.122322
26   0.148326
27   0.135357
28   0.151561
29   0.158787
30   0.121694
31   0.146904
32   0.143383
33   0.137495
34   0.255513

$$$$
PCCDB-ID:  3712
     RDKit          3D

 20 21  0  0  0  0  0  0  0  0999 V2000
    2.0972   -0.6805   -0.1097 C   0  0  0  0  0  0  0  0  0  0  0  0
    2.1061    0.7289   -0.0545 C   0  0  0  0  0  0  0  0  0  0  0  0
    0.9044   -1.3924   -0.1021 C   0  0  0  0  0  0  0  0  0  0  0  0
    0.9230    1.4564    0.0070 C   0  0  0  0  0  0  0  0  0  0  0  0
   -2.4307    0.0780    0.0556 C   0  0  0  0  0  0  0  0  0  0  0  0
   -2.2289   -2.4806    0.0016 C   0  0  0  0  0  0  0  0  0  0  0  0
   -1.6967   -1.0812    0.0021 C   0  0  0  0  0  0  0  0  0  0  0  0
   -0.3080   -0.6846   -0.0294 C   0  0  0  0  0  0  0  0  0  0  0  0
   -0.2757    0.7352    0.0181 C   0  0  0  0  0  0  0  0  0  0  0  0
   -1.5864    1.1712    0.0730 N   0  0  0  0  0  0  0  0  0  0  0  0
   -1.7171   -3.2781   -1.0700 O   0  0  0  0  0  0  0  0  0  0  0  0
    3.0417   -1.2149   -0.1648 H   0  0  0  0  0  0  0  0  0  0  0  0
    3.0556    1.2574   -0.0634 H   0  0  0  0  0  0  0  0  0  0  0  0
    0.8960   -2.4761   -0.1664 H   0  0  0  0  0  0  0  0  0  0  0  0
    0.9314    2.5428    0.0444 H   0  0  0  0  0  0  0  0  0  0  0  0
   -3.5036    0.2124    0.0939 H   0  0  0  0  0  0  0  0  0  0  0  0
   -3.3311   -2.4587   -0.0084 H   0  0  0  0  0  0  0  0  0  0  0  0
   -1.9261   -3.0172    0.9085 H   0  0  0  0  0  0  0  0  0  0  0  0
   -1.8815    2.1344    0.1054 H   0  0  0  0  0  0  0  0  0  0  0  0
   -1.8219   -2.7576   -1.8822 H   0  0  0  0  0  0  0  0  0  0  0  0
  1  3  2  0
  1  2  1  0
  2  4  2  0
  3  8  1  0
  4  9  1  0
  4 15  1  0
  5 10  1  0
  5 16  1  0
  6  7  1  0
  6 18  1  0
  7  5  2  0
  8  7  1  0
  8  9  2  0
  9 10  1  0
 10 19  1  0
 11  6  1  0
 12  1  1  0
 13  2  1  0
 14  3  1  0
 17  6  1  0
 20 11  1  0
M  END
>  <HBA>  (649) 
1

>  <HBD>  (649) 
2

>  <TPSA>  (649) 
36.02

>  <cid>  (649) 
3712

>  <dipole>  (649) 
3.64

>  <excitation_energy_1>  (649) 
4.69

>  <excitation_energy_2>  (649) 
4.827

>  <excitation_energy_3>  (649) 
4.875

>  <excitation_energy_4>  (649) 
5.307

>  <homo_energy>  (649) 
-5.483

>  <homo_lumo_gap>  (649) 
5.317

>  <logP>  (649) 
1.66

>  <lumo_energy>  (649) 
-0.166

>  <melting_point>  (649) 
118.38

>  <molecular_refractivity>  (649) 
44.43

>  <oscillator_strength_1>  (649) 
0.0672

>  <oscillator_strength_2>  (649) 
0.0028

>  <oscillator_strength_3>  (649) 
0.0357

>  <oscillator_strength_4>  (649) 
0.0033

>  <open_babel_can_smiles>  (649) 
OCc1c[nH]c2c1cccc2

>  <mulliken_charges>  (649) 
20
1   -0.141362
2   -0.149753
3   -0.206773
4   -0.163962
5   0.000765
6   -0.093651
7   0.017528
8   0.082914
9   0.31055
10   -0.688671
11   -0.612011
12   0.121686
13   0.122717
14   0.144603
15   0.120042
16   0.148947
17   0.119892
18   0.153696
19   0.327226
20   0.385616

>  <lowdin_charges>  (649) 
20
1   -0.176105
2   -0.163167
3   -0.155976
4   -0.186281
5   -0.131951
6   -0.124643
7   -0.09076
8   -0.033186
9   0.030111
10   -0.198491
11   -0.471169
12   0.155254
13   0.155628
14   0.164181
15   0.15266
16   0.162769
17   0.127654
18   0.152527
19   0.29006
20   0.340885

$$$$
PCCDB-ID:  3721
     RDKit          3D

 28 29  0  0  1  0  0  0  0  0999 V2000
    1.6011    1.3833   -0.4373 C   0  0  0  0  0  0  0  0  0  0  0  0
    0.3086    0.7351    0.0739 C   0  0  1  0  0  0  0  0  0  0  0  0
   -0.9945    1.5363   -0.0350 C   0  0  1  0  0  0  0  0  0  0  0  0
   -2.1649    0.6805    0.5150 C   0  0  1  0  0  0  0  0  0  0  0  0
   -2.2252   -0.7422   -0.0731 C   0  0  2  0  0  0  0  0  0  0  0  0
   -0.8679   -1.5028   -0.0771 C   0  0  2  0  0  0  0  0  0  0  0  0
    0.2013   -0.5969   -0.6890 C   0  0  2  0  0  0  0  0  0  0  0  0
   -0.9377    2.7711    0.6475 O   0  0  0  0  0  0  0  0  0  0  0  0
   -2.0946    0.6619    1.9469 O   0  0  0  0  0  0  0  0  0  0  0  0
   -2.7622   -0.7410   -1.4037 O   0  0  0  0  0  0  0  0  0  0  0  0
   -1.0172   -2.7343   -0.7417 O   0  0  0  0  0  0  0  0  0  0  0  0
    3.3870   -0.2786    0.8091 O   0  0  0  0  0  0  0  0  0  0  0  0
    3.6680   -0.1153   -1.7747 O   0  0  0  0  0  0  0  0  0  0  0  0
    1.5074   -1.1991   -0.6691 O   0  0  0  0  0  0  0  0  0  0  0  0
    2.7010   -0.0698   -0.6524 P   0  0  2  0  0  0  0  0  0  0  0  0
    2.0231    2.1221    0.2458 H   0  0  0  0  0  0  0  0  0  0  0  0
    1.4589    1.8545   -1.4173 H   0  0  0  0  0  0  0  0  0  0  0  0
    0.4647    0.4899    1.1360 H   0  0  0  0  0  0  0  0  0  0  0  0
   -1.1789    1.7795   -1.0924 H   0  0  0  0  0  0  0  0  0  0  0  0
   -3.1095    1.1856    0.2925 H   0  0  0  0  0  0  0  0  0  0  0  0
   -2.9426   -1.3261    0.5105 H   0  0  0  0  0  0  0  0  0  0  0  0
   -0.5628   -1.7404    0.9517 H   0  0  0  0  0  0  0  0  0  0  0  0
   -0.0602   -0.4069   -1.7431 H   0  0  0  0  0  0  0  0  0  0  0  0
   -1.1776    2.5652    1.5701 H   0  0  0  0  0  0  0  0  0  0  0  0
   -1.4221    0.0194    2.2243 H   0  0  0  0  0  0  0  0  0  0  0  0
   -2.3149   -0.0595   -1.9302 H   0  0  0  0  0  0  0  0  0  0  0  0
   -1.6218   -2.5600   -1.4862 H   0  0  0  0  0  0  0  0  0  0  0  0
    4.3095   -0.5646    0.6974 H   0  0  0  0  0  0  0  0  0  0  0  0
  1  2  1  0
  1 16  1  0
  2 18  1  1
  3 19  1  6
  3  2  1  0
  3  4  1  0
  3  8  1  0
  4 20  1  1
  4  9  1  0
  5 21  1  1
  5  4  1  0
  6  5  1  0
  6 22  1  1
  7 23  1  6
  7 14  1  0
  7  6  1  0
  7  2  1  0
  8 24  1  0
  9 25  1  0
 10  5  1  0
 11  6  1  0
 14 15  1  0
 15 13  2  0
 15  1  1  0
 15 12  1  0
 17  1  1  0
 26 10  1  0
 27 11  1  0
 28 12  1  0
M  END
>  <HBA>  (650) 
7

>  <HBD>  (650) 
5

>  <TPSA>  (650) 
137.26

>  <cid>  (650) 
3721

>  <dipole>  (650) 
3.14

>  <excitation_energy_1>  (650) 
6.143

>  <excitation_energy_2>  (650) 
6.3

>  <excitation_energy_3>  (650) 
6.547

>  <excitation_energy_4>  (650) 
6.663

>  <homo_energy>  (650) 
-7.429

>  <homo_lumo_gap>  (650) 
7.758

>  <logP>  (650) 
-2.356

>  <lumo_energy>  (650) 
0.329

>  <melting_point>  (650) 
134.33

>  <molecular_refractivity>  (650) 
47.09

>  <oscillator_strength_1>  (650) 
0.0057

>  <oscillator_strength_2>  (650) 
0.0007

>  <oscillator_strength_3>  (650) 
0.0038

>  <oscillator_strength_4>  (650) 
0.0012

>  <open_babel_can_smiles>  (650) 
O[C@H]1[C@@H]2C[P@](=O)(O[C@H]2[C@@H]([C@@H]([C@H]1O)O)O)O

>  <mulliken_charges>  (650) 
28
1   -0.50519
2   -0.16968
3   0.131858
4   0.070784
5   0.058369
6   0.119855
7   0.133288
8   -0.631945
9   -0.636483
10   -0.635401
11   -0.620479
12   -0.659253
13   -0.524676
14   -0.542242
15   1.089343
16   0.206708
17   0.190578
18   0.137241
19   0.120308
20   0.17131
21   0.174662
22   0.132968
23   0.119941
24   0.406944
25   0.406803
26   0.405078
27   0.405716
28   0.443597

>  <lowdin_charges>  (650) 
28
1   -0.451116
2   -0.161076
3   -0.026644
4   -0.036877
5   -0.037932
6   -0.033302
7   -0.013697
8   -0.448325
9   -0.453003
10   -0.453573
11   -0.439047
12   -0.579115
13   -0.577867
14   -0.384243
15   1.055598
16   0.194243
17   0.183389
18   0.145363
19   0.135451
20   0.164578
21   0.168131
22   0.144756
23   0.132549
24   0.346504
25   0.346721
26   0.345757
27   0.347416
28   0.385362

$$$$
PCCDB-ID:  3759
     RDKit          3D

 30 31  0  0  0  0  0  0  0  0999 V2000
    3.5734    4.4969    4.2723 C   0  0  0  0  0  0  0  0  0  0  0  0
   10.4618   -3.6110   -1.7590 C   0  0  0  0  0  0  0  0  0  0  0  0
    9.4195   -3.9712   -0.9050 C   0  0  0  0  0  0  0  0  0  0  0  0
   10.9810   -2.3141   -1.7097 C   0  0  0  0  0  0  0  0  0  0  0  0
    8.8991   -3.0377   -0.0054 C   0  0  0  0  0  0  0  0  0  0  0  0
   10.4624   -1.3863   -0.8083 C   0  0  0  0  0  0  0  0  0  0  0  0
    4.5877    2.4870    2.9198 C   0  0  0  0  0  0  0  0  0  0  0  0
    8.8554   -0.7295    1.0324 C   0  0  0  0  0  0  0  0  0  0  0  0
    4.5809    3.7211    3.4971 C   0  0  0  0  0  0  0  0  0  0  0  0
    9.4178   -1.7399    0.0581 C   0  0  0  0  0  0  0  0  0  0  0  0
    5.8799    2.3934    2.3360 C   0  0  0  0  0  0  0  0  0  0  0  0
    6.4191    1.2296    1.5659 C   0  0  0  0  0  0  0  0  0  0  0  0
    8.3116    0.4330    0.2892 N   0  0  0  0  0  0  0  0  0  0  0  0
    7.7104    1.3646    1.1550 N   0  0  0  0  0  0  0  0  0  0  0  0
    6.5955    3.4794    2.5400 N   0  0  0  0  0  0  0  0  0  0  0  0
    5.7268    0.2447    1.3262 O   0  0  0  0  0  0  0  0  0  0  0  0
    5.7761    4.3268    3.2766 O   0  0  0  0  0  0  0  0  0  0  0  0
    2.6665    3.9028    4.4073 H   0  0  0  0  0  0  0  0  0  0  0  0
    3.3083    5.4246    3.7525 H   0  0  0  0  0  0  0  0  0  0  0  0
    3.9630    4.7695    5.2595 H   0  0  0  0  0  0  0  0  0  0  0  0
   10.8674   -4.3345   -2.4612 H   0  0  0  0  0  0  0  0  0  0  0  0
    9.0075   -4.9763   -0.9396 H   0  0  0  0  0  0  0  0  0  0  0  0
   11.7918   -2.0274   -2.3745 H   0  0  0  0  0  0  0  0  0  0  0  0
    8.0829   -3.3195    0.6559 H   0  0  0  0  0  0  0  0  0  0  0  0
   10.8595   -0.3754   -0.7750 H   0  0  0  0  0  0  0  0  0  0  0  0
    3.8089    1.7411    2.8996 H   0  0  0  0  0  0  0  0  0  0  0  0
    9.6453   -0.3427    1.6875 H   0  0  0  0  0  0  0  0  0  0  0  0
    8.0932   -1.1982    1.6691 H   0  0  0  0  0  0  0  0  0  0  0  0
    7.5722    0.0924   -0.3278 H   0  0  0  0  0  0  0  0  0  0  0  0
    8.1758    2.2592    1.2455 H   0  0  0  0  0  0  0  0  0  0  0  0
  1 18  1  0
  1 20  1  0
  2  4  2  0
  2  3  1  0
  3  5  2  0
  4  6  1  0
  5 10  1  0
  5 24  1  0
  6 25  1  0
  6 10  2  0
  7  9  2  0
  8 28  1  0
  8 27  1  0
  9  1  1  0
 10  8  1  0
 11 15  2  0
 11  7  1  0
 12 11  1  0
 13  8  1  0
 13 14  1  0
 14 30  1  0
 14 12  1  0
 15 17  1  0
 16 12  2  0
 17  9  1  0
 19  1  1  0
 21  2  1  0
 22  3  1  0
 23  4  1  0
 26  7  1  0
 29 13  1  0
M  END
>  <HBA>  (651) 
5

>  <HBD>  (651) 
2

>  <TPSA>  (651) 
67.16

>  <cid>  (651) 
3759

>  <dipole>  (651) 
2.06

>  <excitation_energy_1>  (651) 
4.481

>  <excitation_energy_2>  (651) 
4.792

>  <excitation_energy_3>  (651) 
4.84

>  <excitation_energy_4>  (651) 
5.0

>  <homo_energy>  (651) 
-6.487

>  <homo_lumo_gap>  (651) 
5.271

>  <logP>  (651) 
2.199

>  <lumo_energy>  (651) 
-1.216

>  <melting_point>  (651) 
142.54

>  <molecular_refractivity>  (651) 
61.75

>  <oscillator_strength_1>  (651) 
0.0192

>  <oscillator_strength_2>  (651) 
0.0205

>  <oscillator_strength_3>  (651) 
0.0

>  <oscillator_strength_4>  (651) 
0.0016

>  <open_babel_can_smiles>  (651) 
Cc1onc(c1)C(=O)NNCc1ccccc1

>  <mulliken_charges>  (651) 
30
1   -0.528521
2   -0.127856
3   -0.128984
4   -0.130666
5   -0.182455
6   -0.157734
7   -0.279748
8   -0.193464
9   0.418094
10   0.129457
11   0.269766
12   0.591154
13   -0.42041
14   -0.501293
15   -0.252387
16   -0.531234
17   -0.36048
18   0.179405
19   0.188085
20   0.187687
21   0.129131
22   0.130136
23   0.129767
24   0.133328
25   0.137004
26   0.171799
27   0.156457
28   0.157207
29   0.325954
30   0.360802

>  <lowdin_charges>  (651) 
30
1   -0.441231
2   -0.157678
3   -0.156066
4   -0.156035
5   -0.163487
6   -0.153101
7   -0.22563
8   -0.205096
9   0.1003
10   -0.017092
11   -0.008549
12   0.149694
13   -0.280391
14   -0.209453
15   -0.088419
16   -0.307311
17   -0.064757
18   0.176127
19   0.178142
20   0.17746
21   0.158626
22   0.157166
23   0.158102
24   0.159403
25   0.161609
26   0.191263
27   0.1537
28   0.147104
29   0.267988
30   0.297614

$$$$
PCCDB-ID:  3762
     RDKit          3D

 38 38  0  0  1  0  0  0  0  0999 V2000
    0.5741   -0.6792    1.8337 C   0  0  0  0  0  0  0  0  0  0  0  0
    0.7265   -3.1487   -3.9464 C   0  0  0  0  0  0  0  0  0  0  0  0
    2.2865   -1.3226   -3.1720 C   0  0  0  0  0  0  0  0  0  0  0  0
    0.1063   -1.1334    0.4454 C   0  0  0  0  0  0  0  0  0  0  0  0
    1.5520   -4.2880    2.6972 C   0  0  0  0  0  0  0  0  0  0  0  0
    2.3401   -4.3808    3.8500 C   0  0  0  0  0  0  0  0  0  0  0  0
    3.3044   -3.0443    1.6264 C   0  0  0  0  0  0  0  0  0  0  0  0
    1.4812   -2.5591   -2.7513 C   0  0  0  0  0  0  0  0  0  0  0  0
    2.0163   -3.6043    1.5742 C   0  0  0  0  0  0  0  0  0  0  0  0
    1.0303   -2.0952   -0.3343 C   0  0  1  0  0  0  0  0  0  0  0  0
    3.6080   -3.8111    3.9030 C   0  0  0  0  0  0  0  0  0  0  0  0
    4.0985   -3.1378    2.7654 C   0  0  0  0  0  0  0  0  0  0  0  0
    1.1870   -3.5163    0.2963 C   0  0  2  0  0  0  0  0  0  0  0  0
    0.5100   -2.2011   -1.7069 N   0  0  0  0  0  0  0  0  0  0  0  0
    4.4254   -3.8687    4.9970 O   0  0  0  0  0  0  0  0  0  0  0  0
    5.3541   -2.6056    2.8528 O   0  0  0  0  0  0  0  0  0  0  0  0
   -0.0980   -4.1289    0.4316 O   0  0  0  0  0  0  0  0  0  0  0  0
   -0.0975    0.0959    2.2212 H   0  0  0  0  0  0  0  0  0  0  0  0
    1.5831   -0.2521    1.7934 H   0  0  0  0  0  0  0  0  0  0  0  0
    0.5983   -1.4945    2.5624 H   0  0  0  0  0  0  0  0  0  0  0  0
    1.4138   -3.3854   -4.7655 H   0  0  0  0  0  0  0  0  0  0  0  0
   -0.0172   -2.4329   -4.3162 H   0  0  0  0  0  0  0  0  0  0  0  0
    0.2031   -4.0720   -3.6686 H   0  0  0  0  0  0  0  0  0  0  0  0
    3.0367   -1.5866   -3.9267 H   0  0  0  0  0  0  0  0  0  0  0  0
    2.8146   -0.8726   -2.3236 H   0  0  0  0  0  0  0  0  0  0  0  0
    1.6177   -0.5621   -3.5901 H   0  0  0  0  0  0  0  0  0  0  0  0
   -0.0186   -0.2590   -0.2018 H   0  0  0  0  0  0  0  0  0  0  0  0
   -0.8974   -1.5798    0.5144 H   0  0  0  0  0  0  0  0  0  0  0  0
    0.5845   -4.7765    2.6697 H   0  0  0  0  0  0  0  0  0  0  0  0
    1.9637   -4.9161    4.7206 H   0  0  0  0  0  0  0  0  0  0  0  0
    3.7097   -2.5251    0.7589 H   0  0  0  0  0  0  0  0  0  0  0  0
    2.1989   -3.3264   -2.3986 H   0  0  0  0  0  0  0  0  0  0  0  0
    2.0228   -1.6332   -0.3890 H   0  0  0  0  0  0  0  0  0  0  0  0
    1.6854   -4.1355   -0.4603 H   0  0  0  0  0  0  0  0  0  0  0  0
   -0.2378   -2.8943   -1.6897 H   0  0  0  0  0  0  0  0  0  0  0  0
    3.9684   -4.3658    5.6930 H   0  0  0  0  0  0  0  0  0  0  0  0
    5.5676   -2.1820    2.0070 H   0  0  0  0  0  0  0  0  0  0  0  0
   -0.5951   -3.6182    1.0914 H   0  0  0  0  0  0  0  0  0  0  0  0
  1 18  1  0
  1 20  1  0
  2 23  1  0
  2  8  1  0
  3  8  1  0
  3 25  1  0
  4 28  1  0
  4  1  1  0
  5  6  2  0
  6 11  1  0
  6 30  1  0
  7 12  1  0
  8 32  1  0
  8 14  1  0
  9  7  2  0
  9  5  1  0
 10 33  1  6
 10 13  1  0
 10  4  1  0
 11 15  1  0
 12 16  1  0
 12 11  2  0
 13 34  1  6
 13 17  1  0
 13  9  1  0
 14 35  1  0
 14 10  1  0
 15 36  1  0
 17 38  1  0
 19  1  1  0
 21  2  1  0
 22  2  1  0
 24  3  1  0
 26  3  1  0
 27  4  1  0
 29  5  1  0
 31  7  1  0
 37 16  1  0
M  END
>  <HBA>  (652) 
4

>  <HBD>  (652) 
4

>  <TPSA>  (652) 
72.72

>  <cid>  (652) 
3762

>  <dipole>  (652) 
0.49

>  <excitation_energy_1>  (652) 
4.694

>  <excitation_energy_2>  (652) 
4.759

>  <excitation_energy_3>  (652) 
4.972

>  <excitation_energy_4>  (652) 
5.043

>  <homo_energy>  (652) 
-5.505

>  <homo_lumo_gap>  (652) 
5.54

>  <logP>  (652) 
2.299

>  <lumo_energy>  (652) 
0.035

>  <melting_point>  (652) 
130.91

>  <molecular_refractivity>  (652) 
68.26

>  <oscillator_strength_1>  (652) 
0.0764

>  <oscillator_strength_2>  (652) 
0.003

>  <oscillator_strength_3>  (652) 
0.0001

>  <oscillator_strength_4>  (652) 
0.003

>  <open_babel_can_smiles>  (652) 
CC[C@@H]([C@@H](c1ccc(c(c1)O)O)O)NC(C)C

>  <mulliken_charges>  (652) 
38
1   -0.452217
2   -0.463562
3   -0.428965
4   -0.26476
5   -0.207951
6   -0.197212
7   -0.259667
8   0.06554
9   0.135902
10   0.016667
11   0.320741
12   0.325914
13   0.042277
14   -0.566516
15   -0.632861
16   -0.633016
17   -0.631725
18   0.1416
19   0.143224
20   0.152552
21   0.144897
22   0.154188
23   0.144322
24   0.134419
25   0.135089
26   0.150994
27   0.155572
28   0.116235
29   0.128843
30   0.118959
31   0.113865
32   0.10217
33   0.125357
34   0.157729
35   0.302538
36   0.40722
37   0.407135
38   0.394501

>  <lowdin_charges>  (652) 
38
1   -0.454273
2   -0.450719
3   -0.451731
4   -0.283024
5   -0.185697
6   -0.204972
7   -0.220103
8   -0.057383
9   -0.030317
10   -0.082798
11   0.074566
12   0.082949
13   -0.01726
14   -0.360433
15   -0.370825
16   -0.368965
17   -0.456418
18   0.150909
19   0.147599
20   0.152933
21   0.153599
22   0.154527
23   0.149395
24   0.147225
25   0.145018
26   0.154317
27   0.157824
28   0.131935
29   0.160189
30   0.154611
31   0.151217
32   0.112797
33   0.139869
34   0.156376
35   0.256887
36   0.359964
37   0.357635
38   0.342579

$$$$
PCCDB-ID:  3765
     RDKit          3D

 18 18  0  0  0  0  0  0  0  0999 V2000
   -0.3784   -1.3569   -0.0487 C   0  0  0  0  0  0  0  0  0  0  0  0
   -1.0240    1.0469    0.0409 C   0  0  0  0  0  0  0  0  0  0  0  0
    1.0852   -1.0149   -0.0095 C   0  0  0  0  0  0  0  0  0  0  0  0
    0.4316    1.2920   -0.3626 C   0  0  0  0  0  0  0  0  0  0  0  0
   -1.3478   -0.4287    0.0051 C   0  0  0  0  0  0  0  0  0  0  0  0
   -2.7993   -0.7892   -0.0841 C   0  0  0  0  0  0  0  0  0  0  0  0
    1.2920    0.3733    0.3871 N   0  0  0  0  0  0  0  0  0  0  0  0
   -3.6388   -0.0443   -0.5343 O   0  0  0  0  0  0  0  0  0  0  0  0
   -3.1566   -2.0257    0.3635 O   0  0  0  0  0  0  0  0  0  0  0  0
   -0.6146   -2.4124   -0.1806 H   0  0  0  0  0  0  0  0  0  0  0  0
   -1.7136    1.5729   -0.6279 H   0  0  0  0  0  0  0  0  0  0  0  0
   -1.2036    1.4379    1.0514 H   0  0  0  0  0  0  0  0  0  0  0  0
    1.5149   -1.2644   -1.0030 H   0  0  0  0  0  0  0  0  0  0  0  0
    1.5911   -1.6712    0.7128 H   0  0  0  0  0  0  0  0  0  0  0  0
    0.7245    2.3189   -0.1213 H   0  0  0  0  0  0  0  0  0  0  0  0
    0.5279    1.1694   -1.4587 H   0  0  0  0  0  0  0  0  0  0  0  0
    2.2701    0.6217    0.2630 H   0  0  0  0  0  0  0  0  0  0  0  0
   -2.4089   -2.4190    0.8425 H   0  0  0  0  0  0  0  0  0  0  0  0
  1  3  1  0
  1  5  2  0
  2 12  1  0
  3  7  1  0
  3 14  1  0
  4 15  1  0
  4  2  1  0
  4  7  1  0
  5  2  1  0
  6  5  1  0
  6  9  1  0
  8  6  2  0
  9 18  1  0
 10  1  1  0
 11  2  1  0
 13  3  1  0
 16  4  1  0
 17  7  1  0
M  END
>  <HBA>  (653) 
3

>  <HBD>  (653) 
2

>  <TPSA>  (653) 
49.33

>  <cid>  (653) 
3765

>  <dipole>  (653) 
4.96

>  <excitation_energy_1>  (653) 
4.359

>  <excitation_energy_2>  (653) 
4.811

>  <excitation_energy_3>  (653) 
5.384

>  <excitation_energy_4>  (653) 
5.795

>  <homo_energy>  (653) 
-6.348

>  <homo_lumo_gap>  (653) 
5.293

>  <logP>  (653) 
0.32

>  <lumo_energy>  (653) 
-1.056

>  <melting_point>  (653) 
113.56

>  <molecular_refractivity>  (653) 
36.86

>  <oscillator_strength_1>  (653) 
0.0181

>  <oscillator_strength_2>  (653) 
0.0011

>  <oscillator_strength_3>  (653) 
0.0026

>  <oscillator_strength_4>  (653) 
0.1869

>  <open_babel_can_smiles>  (653) 
OC(=O)C1=CCNCC1

>  <mulliken_charges>  (653) 
18
1   -0.188885
2   -0.306709
3   -0.154686
4   -0.155463
5   0.073531
6   0.551536
7   -0.552209
8   -0.447584
9   -0.572527
10   0.135676
11   0.179058
12   0.165134
13   0.136886
14   0.15801
15   0.144603
16   0.123771
17   0.303623
18   0.406235

>  <lowdin_charges>  (653) 
18
1   -0.165291
2   -0.275616
3   -0.200605
4   -0.198564
5   -0.055997
6   0.194945
7   -0.36251
8   -0.241456
9   -0.361361
10   0.155258
11   0.173657
12   0.161404
13   0.133319
14   0.158814
15   0.149675
16   0.119458
17   0.257912
18   0.356956

$$$$
PCCDB-ID:  3767
     RDKit          3D

 17 17  0  0  0  0  0  0  0  0999 V2000
   -1.0159    0.6198    0.0113 C   0  0  0  0  0  0  0  0  0  0  0  0
    0.9784   -0.7103    0.0391 C   0  0  0  0  0  0  0  0  0  0  0  0
   -1.7418   -0.5679    0.0782 C   0  0  0  0  0  0  0  0  0  0  0  0
    0.1568   -1.8365    0.1104 C   0  0  0  0  0  0  0  0  0  0  0  0
    0.3799    0.5530   -0.0217 C   0  0  0  0  0  0  0  0  0  0  0  0
    1.1497    1.8421   -0.0966 C   0  0  0  0  0  0  0  0  0  0  0  0
    3.1854    2.9139   -0.8318 N   0  0  0  0  0  0  0  0  0  0  0  0
   -1.1800   -1.7839    0.1236 N   0  0  0  0  0  0  0  0  0  0  0  0
    2.4349    1.7455   -0.5709 N   0  0  0  0  0  0  0  0  0  0  0  0
    0.6644    2.9165    0.2411 O   0  0  0  0  0  0  0  0  0  0  0  0
   -1.5075    1.5862   -0.0133 H   0  0  0  0  0  0  0  0  0  0  0  0
    2.0577   -0.8280    0.0650 H   0  0  0  0  0  0  0  0  0  0  0  0
   -2.8299   -0.5444    0.0963 H   0  0  0  0  0  0  0  0  0  0  0  0
    0.5975   -2.8306    0.1636 H   0  0  0  0  0  0  0  0  0  0  0  0
    3.5916    3.2124    0.0559 H   0  0  0  0  0  0  0  0  0  0  0  0
    2.5105    3.6435   -1.0742 H   0  0  0  0  0  0  0  0  0  0  0  0
    2.6881    0.9634   -1.1595 H   0  0  0  0  0  0  0  0  0  0  0  0
  1  3  2  0
  2 12  1  0
  2  4  1  0
  3 13  1  0
  3  8  1  0
  4  8  2  0
  4 14  1  0
  5  1  1  0
  5  2  2  0
  6  5  1  0
  6 10  2  0
  7  9  1  0
  7 15  1  0
  9  6  1  0
 11  1  1  0
 16  7  1  0
 17  9  1  0
M  END
>  <HBA>  (654) 
4

>  <HBD>  (654) 
2

>  <TPSA>  (654) 
68.01

>  <cid>  (654) 
3767

>  <dipole>  (654) 
1.87

>  <excitation_energy_1>  (654) 
4.289

>  <excitation_energy_2>  (654) 
4.604

>  <excitation_energy_3>  (654) 
4.908

>  <excitation_energy_4>  (654) 
5.05

>  <homo_energy>  (654) 
-7.129

>  <homo_lumo_gap>  (654) 
5.494

>  <logP>  (654) 
0.776

>  <lumo_energy>  (654) 
-1.635

>  <melting_point>  (654) 
135.81

>  <molecular_refractivity>  (654) 
35.13

>  <oscillator_strength_1>  (654) 
0.0028

>  <oscillator_strength_2>  (654) 
0.0022

>  <oscillator_strength_3>  (654) 
0.0117

>  <oscillator_strength_4>  (654) 
0.0721

>  <open_babel_can_smiles>  (654) 
NNC(=O)c1ccncc1

>  <mulliken_charges>  (654) 
17
1   -0.163071
2   -0.191053
3   0.035857
4   0.038735
5   0.089924
6   0.545261
7   -0.561209
8   -0.398781
9   -0.503127
10   -0.507853
11   0.170332
12   0.144043
13   0.150669
14   0.148391
15   0.329326
16   0.329045
17   0.343512

>  <lowdin_charges>  (654) 
17
1   -0.151378
2   -0.177026
3   -0.082353
4   -0.086636
5   -0.017881
6   0.150105
7   -0.455926
8   -0.138467
9   -0.232703
10   -0.29951
11   0.182563
12   0.163975
13   0.159305
14   0.160227
15   0.268262
16   0.26876
17   0.288682

$$$$
PCCDB-ID:  3772
     RDKit          3D

 21 21  0  0  0  0  0  0  0  0999 V2000
    0.7268    1.1836   -0.3845 C   0  0  0  0  0  0  0  0  0  0  0  0
   -1.4478   -0.0838   -0.1282 C   0  0  0  0  0  0  0  0  0  0  0  0
    1.4471   -0.0394    0.1927 C   0  0  0  0  0  0  0  0  0  0  0  0
   -0.6376   -1.2544    0.4387 C   0  0  0  0  0  0  0  0  0  0  0  0
   -0.7274    1.2572    0.1305 C   0  0  0  0  0  0  0  0  0  0  0  0
   -1.4839    2.4358   -0.4847 C   0  0  0  0  0  0  0  0  0  0  0  0
   -1.7460    2.6194   -1.7136 N   0  0  0  0  0  0  0  0  0  0  0  0
    0.7026   -1.2512   -0.1468 N   0  0  0  0  0  0  0  0  0  0  0  0
   -1.9189    3.3919    0.3869 O   0  0  0  0  0  0  0  0  0  0  0  0
    0.7199    1.1067   -1.4782 H   0  0  0  0  0  0  0  0  0  0  0  0
    1.2683    2.1008   -0.1229 H   0  0  0  0  0  0  0  0  0  0  0  0
   -2.4506   -0.0668    0.3155 H   0  0  0  0  0  0  0  0  0  0  0  0
   -1.5685   -0.2283   -1.2084 H   0  0  0  0  0  0  0  0  0  0  0  0
    1.5665    0.0972    1.2874 H   0  0  0  0  0  0  0  0  0  0  0  0
    2.4534   -0.1155   -0.2345 H   0  0  0  0  0  0  0  0  0  0  0  0
   -1.1268   -2.2024    0.1876 H   0  0  0  0  0  0  0  0  0  0  0  0
   -0.6216   -1.1784    1.5455 H   0  0  0  0  0  0  0  0  0  0  0  0
   -0.6794    1.3955    1.2234 H   0  0  0  0  0  0  0  0  0  0  0  0
   -1.3744    1.8473   -2.2701 H   0  0  0  0  0  0  0  0  0  0  0  0
    1.2178   -2.0729    0.1608 H   0  0  0  0  0  0  0  0  0  0  0  0
   -1.6614    3.1439    1.2867 H   0  0  0  0  0  0  0  0  0  0  0  0
  1 11  1  0
  1  5  1  0
  1  3  1  0
  2  5  1  0
  2 12  1  0
  2  4  1  0
  3 14  1  0
  4 17  1  0
  5 18  1  0
  6  5  1  0
  6  9  1  0
  7  6  2  0
  8 20  1  0
  8  3  1  0
  8  4  1  0
  9 21  1  0
 10  1  1  0
 13  2  1  0
 15  3  1  0
 16  4  1  0
 19  7  1  0
M  END
>  <HBA>  (655) 
3

>  <HBD>  (655) 
2

>  <TPSA>  (655) 
55.12

>  <cid>  (655) 
3772

>  <dipole>  (655) 
5.16

>  <excitation_energy_1>  (655) 
5.386

>  <excitation_energy_2>  (655) 
5.746

>  <excitation_energy_3>  (655) 
6.135

>  <excitation_energy_4>  (655) 
6.183

>  <homo_energy>  (655) 
-6.291

>  <homo_lumo_gap>  (655) 
7.11

>  <logP>  (655) 
0.5

>  <lumo_energy>  (655) 
0.819

>  <melting_point>  (655) 
98.83

>  <molecular_refractivity>  (655) 
38.47

>  <oscillator_strength_1>  (655) 
0.0096

>  <oscillator_strength_2>  (655) 
0.0265

>  <oscillator_strength_3>  (655) 
0.0004

>  <oscillator_strength_4>  (655) 
0.003

>  <open_babel_can_smiles>  (655) 
OC(=N)C1CCNCC1

>  <mulliken_charges>  (655) 
21
1   -0.248102
2   -0.248271
3   -0.135611
4   -0.135959
5   -0.202078
6   0.488187
7   -0.588186
8   -0.545343
9   -0.57699
10   0.150536
11   0.143576
12   0.143817
13   0.150126
14   0.109408
15   0.144674
16   0.144694
17   0.109556
18   0.106521
19   0.285664
20   0.300262
21   0.403518

>  <lowdin_charges>  (655) 
21
1   -0.276079
2   -0.275088
3   -0.201232
4   -0.201042
5   -0.160944
6   0.125094
7   -0.400342
8   -0.367454
9   -0.362059
10   0.149298
11   0.151616
12   0.150713
13   0.149335
14   0.111915
15   0.149133
16   0.149956
17   0.11161
18   0.130372
19   0.255892
20   0.258392
21   0.350913

$$$$
PCCDB-ID:  3773
     RDKit          3D

 20 20  0  0  0  0  0  0  0  0999 V2000
    0.6860    1.2623   -0.1567 C   0  0  0  0  0  0  0  0  0  0  0  0
   -1.4367   -0.1121   -0.2815 C   0  0  0  0  0  0  0  0  0  0  0  0
    1.4031    0.0095    0.3589 C   0  0  0  0  0  0  0  0  0  0  0  0
   -0.6288   -1.3070    0.2334 C   0  0  0  0  0  0  0  0  0  0  0  0
   -0.8209    1.2095    0.2005 C   0  0  0  0  0  0  0  0  0  0  0  0
   -1.5670    2.4144   -0.3699 C   0  0  0  0  0  0  0  0  0  0  0  0
    0.7653   -1.1818   -0.1943 N   0  0  0  0  0  0  0  0  0  0  0  0
   -2.4070    2.3616   -1.2325 O   0  0  0  0  0  0  0  0  0  0  0  0
   -1.2123    3.6239    0.1536 O   0  0  0  0  0  0  0  0  0  0  0  0
    0.7956    1.3149   -1.2463 H   0  0  0  0  0  0  0  0  0  0  0  0
    1.1639    2.1564    0.2656 H   0  0  0  0  0  0  0  0  0  0  0  0
   -2.4777   -0.1847    0.0519 H   0  0  0  0  0  0  0  0  0  0  0  0
   -1.4468   -0.1205   -1.3760 H   0  0  0  0  0  0  0  0  0  0  0  0
    1.3943    0.0267    1.4689 H   0  0  0  0  0  0  0  0  0  0  0  0
    2.4523    0.0258    0.0429 H   0  0  0  0  0  0  0  0  0  0  0  0
   -1.0368   -2.2365   -0.1790 H   0  0  0  0  0  0  0  0  0  0  0  0
   -0.7305   -1.3670    1.3366 H   0  0  0  0  0  0  0  0  0  0  0  0
   -0.9056    1.2599    1.2992 H   0  0  0  0  0  0  0  0  0  0  0  0
    1.2887   -2.0117    0.0746 H   0  0  0  0  0  0  0  0  0  0  0  0
   -0.5366    3.5016    0.8409 H   0  0  0  0  0  0  0  0  0  0  0  0
  1  5  1  0
  1 11  1  0
  1  3  1  0
  2 12  1  0
  2  5  1  0
  2  4  1  0
  3 14  1  0
  4 17  1  0
  5 18  1  0
  6  9  1  0
  6  5  1  0
  7 19  1  0
  7  4  1  0
  7  3  1  0
  8  6  2  0
  9 20  1  0
 10  1  1  0
 13  2  1  0
 15  3  1  0
 16  4  1  0
M  END
>  <HBA>  (656) 
3

>  <HBD>  (656) 
2

>  <TPSA>  (656) 
49.33

>  <cid>  (656) 
3773

>  <dipole>  (656) 
4.99

>  <excitation_energy_1>  (656) 
5.33

>  <excitation_energy_2>  (656) 
5.555

>  <excitation_energy_3>  (656) 
5.632

>  <excitation_energy_4>  (656) 
5.832

>  <homo_energy>  (656) 
-6.248

>  <homo_lumo_gap>  (656) 
6.574

>  <logP>  (656) 
0.399

>  <lumo_energy>  (656) 
0.327

>  <melting_point>  (656) 
100.35

>  <molecular_refractivity>  (656) 
37.33

>  <oscillator_strength_1>  (656) 
0.0144

>  <oscillator_strength_2>  (656) 
0.0128

>  <oscillator_strength_3>  (656) 
0.0011

>  <oscillator_strength_4>  (656) 
0.0015

>  <open_babel_can_smiles>  (656) 
OC(=O)C1CCNCC1

>  <mulliken_charges>  (656) 
20
1   -0.262761
2   -0.243529
3   -0.127665
4   -0.142666
5   -0.23315
6   0.615485
7   -0.543193
8   -0.442027
9   -0.575579
10   0.168537
11   0.121038
12   0.147314
13   0.16886
14   0.107579
15   0.14495
16   0.144896
17   0.107651
18   0.136029
19   0.299957
20   0.408272

>  <lowdin_charges>  (656) 
20
1   -0.278724
2   -0.271676
3   -0.197973
4   -0.20173
5   -0.171017
6   0.192717
7   -0.366271
8   -0.234799
9   -0.360185
10   0.157755
11   0.138891
12   0.154323
13   0.160426
14   0.110563
15   0.148388
16   0.150353
17   0.110973
18   0.143326
19   0.258298
20   0.356361

$$$$
PCCDB-ID:  3774
     RDKit          3D

 32 33  0  0  1  0  0  0  0  0999 V2000
    5.5594   -2.4793    0.2914 C   0  0  0  0  0  0  0  0  0  0  0  0
    1.1489    1.7298    1.9145 C   0  0  0  0  0  0  0  0  0  0  0  0
    4.1664   -1.8733    0.0866 C   0  0  0  0  0  0  0  0  0  0  0  0
    3.8460    3.2075   -0.0234 C   0  0  0  0  0  0  0  0  0  0  0  0
    3.5925    2.0196   -0.7642 C   0  0  0  0  0  0  0  0  0  0  0  0
    2.9705    3.2165    1.0374 C   0  0  0  0  0  0  0  0  0  0  0  0
    1.8631    0.0547   -0.4855 C   0  0  0  0  0  0  0  0  0  0  0  0
    1.6925   -1.9491   -2.0598 C   0  0  0  0  0  0  0  0  0  0  0  0
    2.5285   -0.7354   -1.6173 C   0  0  2  0  0  0  0  0  0  0  0  0
    2.5688    1.3340   -0.1341 C   0  0  0  0  0  0  0  0  0  0  0  0
    3.9123   -1.3808   -1.3588 C   0  0  2  0  0  0  0  0  0  0  0  0
    3.8996   -2.5596   -2.3360 C   0  0  0  0  0  0  0  0  0  0  0  0
    2.1935    2.0798    0.9712 N   0  0  0  0  0  0  0  0  0  0  0  0
    4.8319   -3.1999   -2.7500 O   0  0  0  0  0  0  0  0  0  0  0  0
    2.6134   -2.8480   -2.7004 O   0  0  0  0  0  0  0  0  0  0  0  0
    5.6841   -2.8086    1.3290 H   0  0  0  0  0  0  0  0  0  0  0  0
    6.3404   -1.7398    0.0783 H   0  0  0  0  0  0  0  0  0  0  0  0
    5.7269   -3.3355   -0.3672 H   0  0  0  0  0  0  0  0  0  0  0  0
    1.0661    2.5245    2.6587 H   0  0  0  0  0  0  0  0  0  0  0  0
    1.3766    0.7922    2.4353 H   0  0  0  0  0  0  0  0  0  0  0  0
    0.1796    1.6235    1.4141 H   0  0  0  0  0  0  0  0  0  0  0  0
    4.0461   -1.0130    0.7555 H   0  0  0  0  0  0  0  0  0  0  0  0
    3.3983   -2.6060    0.3720 H   0  0  0  0  0  0  0  0  0  0  0  0
    4.5883    3.9630   -0.2417 H   0  0  0  0  0  0  0  0  0  0  0  0
    4.1000    1.7077   -1.6669 H   0  0  0  0  0  0  0  0  0  0  0  0
    2.8320    3.9280    1.8396 H   0  0  0  0  0  0  0  0  0  0  0  0
    1.7744   -0.5905    0.4001 H   0  0  0  0  0  0  0  0  0  0  0  0
    0.8254    0.2701   -0.7913 H   0  0  0  0  0  0  0  0  0  0  0  0
    0.9101   -1.7008   -2.7817 H   0  0  0  0  0  0  0  0  0  0  0  0
    1.2312   -2.4659   -1.2075 H   0  0  0  0  0  0  0  0  0  0  0  0
    2.6299   -0.0723   -2.4860 H   0  0  0  0  0  0  0  0  0  0  0  0
    4.7333   -0.7141   -1.6377 H   0  0  0  0  0  0  0  0  0  0  0  0
  1 16  1  0
  2 20  1  0
  2 19  1  0
  3  1  1  0
  3 23  1  0
  3 22  1  0
  4  6  2  0
  5 10  2  0
  5  4  1  0
  6 26  1  0
  7 10  1  0
  7 27  1  0
  8  9  1  0
  8 30  1  0
  9 31  1  6
  9 11  1  0
  9  7  1  0
 10 13  1  0
 11 32  1  6
 11  3  1  0
 12 11  1  0
 13  6  1  0
 13  2  1  0
 14 12  2  0
 15 12  1  0
 15  8  1  0
 17  1  1  0
 18  1  1  0
 21  2  1  0
 24  4  1  0
 25  5  1  0
 28  7  1  0
 29  8  1  0
M  END
>  <HBA>  (657) 
3

>  <HBD>  (657) 
0

>  <TPSA>  (657) 
31.23

>  <cid>  (657) 
3774

>  <dipole>  (657) 
5.91

>  <excitation_energy_1>  (657) 
4.717

>  <excitation_energy_2>  (657) 
5.205

>  <excitation_energy_3>  (657) 
5.286

>  <excitation_energy_4>  (657) 
5.317

>  <homo_energy>  (657) 
-5.557

>  <homo_lumo_gap>  (657) 
5.899

>  <logP>  (657) 
1.767

>  <lumo_energy>  (657) 
0.343

>  <melting_point>  (657) 
41.35

>  <molecular_refractivity>  (657) 
58.67

>  <oscillator_strength_1>  (657) 
0.0038

>  <oscillator_strength_2>  (657) 
0.0047

>  <oscillator_strength_3>  (657) 
0.005

>  <oscillator_strength_4>  (657) 
0.006

>  <open_babel_can_smiles>  (657) 
CC[C@H]1C(=O)OC[C@H]1Cc1cccn1C

>  <mulliken_charges>  (657) 
32
1   -0.451784
2   -0.319248
3   -0.274168
4   -0.194886
5   -0.227841
6   0.02419
7   -0.362415
8   -0.036393
9   -0.142373
10   0.327431
11   -0.194882
12   0.61811
13   -0.433851
14   -0.463547
15   -0.452047
16   0.140525
17   0.148311
18   0.180549
19   0.172476
20   0.169074
21   0.168874
22   0.156927
23   0.135657
24   0.124127
25   0.120237
26   0.137747
27   0.147414
28   0.149636
29   0.160804
30   0.147242
31   0.155575
32   0.168528

>  <lowdin_charges>  (657) 
32
1   -0.447733
2   -0.347013
3   -0.271322
4   -0.215519
5   -0.230878
6   -0.162043
7   -0.274263
8   -0.134812
9   -0.138317
10   -0.014666
11   -0.166966
12   0.196029
13   -0.01055
14   -0.239462
15   -0.190956
16   0.148927
17   0.151925
18   0.166291
19   0.1689
20   0.157053
21   0.157461
22   0.15414
23   0.141019
24   0.160816
25   0.157042
26   0.160315
27   0.150375
28   0.150433
29   0.157368
30   0.143324
31   0.154905
32   0.168179

$$$$
PCCDB-ID:  3776
     RDKit          3D

 12 11  0  0  0  0  0  0  0  0999 V2000
    1.0442    0.0706   -0.0445 C   0  0  0  0  0  0  0  0  0  0  0  0
    3.1238   -0.8153    1.1294 C   0  0  0  0  0  0  0  0  0  0  0  0
    2.5738    0.0308   -0.0210 C   0  0  0  0  0  0  0  0  0  0  0  0
    3.0964   -0.4077   -1.2785 O   0  0  0  0  0  0  0  0  0  0  0  0
    0.6402    0.4956    0.8819 H   0  0  0  0  0  0  0  0  0  0  0  0
    0.6316   -0.9422   -0.1528 H   0  0  0  0  0  0  0  0  0  0  0  0
    0.6922    0.6739   -0.8873 H   0  0  0  0  0  0  0  0  0  0  0  0
    2.8048   -0.4235    2.1024 H   0  0  0  0  0  0  0  0  0  0  0  0
    4.2179   -0.8301    1.1014 H   0  0  0  0  0  0  0  0  0  0  0  0
    2.7653   -1.8515    1.0549 H   0  0  0  0  0  0  0  0  0  0  0  0
    2.9534    1.0548    0.0795 H   0  0  0  0  0  0  0  0  0  0  0  0
    2.7839   -1.3169   -1.4160 H   0  0  0  0  0  0  0  0  0  0  0  0
  1  3  1  0
  1  5  1  0
  2  8  1  0
  3 11  1  0
  3  2  1  0
  4  3  1  0
  6  1  1  0
  7  1  1  0
  9  2  1  0
 10  2  1  0
 12  4  1  0
M  END
>  <HBA>  (658) 
1

>  <HBD>  (658) 
1

>  <TPSA>  (658) 
20.23

>  <cid>  (658) 
3776

>  <dipole>  (658) 
1.62

>  <excitation_energy_1>  (658) 
6.661

>  <excitation_energy_2>  (658) 
7.282

>  <excitation_energy_3>  (658) 
7.679

>  <excitation_energy_4>  (658) 
7.687

>  <homo_energy>  (658) 
-7.105

>  <homo_lumo_gap>  (658) 
9.108

>  <logP>  (658) 
0.387

>  <lumo_energy>  (658) 
2.003

>  <melting_point>  (658) 
-5.95

>  <molecular_refractivity>  (658) 
17.7

>  <oscillator_strength_1>  (658) 
0.0304

>  <oscillator_strength_2>  (658) 
0.0048

>  <oscillator_strength_3>  (658) 
0.0069

>  <oscillator_strength_4>  (658) 
0.0037

>  <open_babel_can_smiles>  (658) 
CC(O)C

>  <mulliken_charges>  (658) 
12
1   -0.451294
2   -0.451172
3   0.140985
4   -0.616483
5   0.142047
6   0.129889
7   0.158406
8   0.141984
9   0.158405
10   0.129897
11   0.138224
12   0.379112

>  <lowdin_charges>  (658) 
12
1   -0.46188
2   -0.457745
3   0.006617
4   -0.466277
5   0.152765
6   0.141688
7   0.158804
8   0.152193
9   0.156006
10   0.141279
11   0.141576
12   0.334976

$$$$
PCCDB-ID:  3778
     RDKit          3D

 35 36  0  0  0  0  0  0  0  0999 V2000
    3.1937   -0.9652   -0.5532 C   0  0  0  0  0  0  0  0  0  0  0  0
    0.8497   -0.7185    0.3969 C   0  0  0  0  0  0  0  0  0  0  0  0
    2.6948    3.1968    0.6089 C   0  0  0  0  0  0  0  0  0  0  0  0
    3.0712    3.2993    3.5837 C   0  0  0  0  0  0  0  0  0  0  0  0
    6.4238    0.3176    6.4594 C   0  0  0  0  0  0  0  0  0  0  0  0
    6.6039    1.3734    5.5657 C   0  0  0  0  0  0  0  0  0  0  0  0
    5.3188   -0.5239    6.3113 C   0  0  0  0  0  0  0  0  0  0  0  0
    5.6933    1.5872    4.5322 C   0  0  0  0  0  0  0  0  0  0  0  0
    4.3883   -0.3131    5.2946 C   0  0  0  0  0  0  0  0  0  0  0  0
    2.1673    0.0083    0.0608 C   0  0  0  0  0  0  0  0  0  0  0  0
    2.9830    2.0179    1.4856 C   0  0  0  0  0  0  0  0  0  0  0  0
    4.5776    0.7487    4.3980 C   0  0  0  0  0  0  0  0  0  0  0  0
    2.7300    0.6982    1.2784 C   0  0  0  0  0  0  0  0  0  0  0  0
    3.1552   -0.0254    2.4797 C   0  0  0  0  0  0  0  0  0  0  0  0
    3.6065    2.2319    2.7242 N   0  0  0  0  0  0  0  0  0  0  0  0
    3.6329    0.9710    3.3636 N   0  0  0  0  0  0  0  0  0  0  0  0
    3.1563   -1.2274    2.7249 O   0  0  0  0  0  0  0  0  0  0  0  0
    2.7744   -1.4544   -1.4404 H   0  0  0  0  0  0  0  0  0  0  0  0
    3.4675   -1.7380    0.1715 H   0  0  0  0  0  0  0  0  0  0  0  0
    4.1068   -0.4387   -0.8535 H   0  0  0  0  0  0  0  0  0  0  0  0
    0.4432   -1.2071   -0.4966 H   0  0  0  0  0  0  0  0  0  0  0  0
    0.0957   -0.0188    0.7755 H   0  0  0  0  0  0  0  0  0  0  0  0
    1.0220   -1.4826    1.1608 H   0  0  0  0  0  0  0  0  0  0  0  0
    2.4205    2.8641   -0.3942 H   0  0  0  0  0  0  0  0  0  0  0  0
    3.5710    3.8498    0.5249 H   0  0  0  0  0  0  0  0  0  0  0  0
    1.8649    3.8024    0.9952 H   0  0  0  0  0  0  0  0  0  0  0  0
    3.1533    4.2484    3.0502 H   0  0  0  0  0  0  0  0  0  0  0  0
    3.6756    3.3595    4.4899 H   0  0  0  0  0  0  0  0  0  0  0  0
    2.0232    3.1163    3.8585 H   0  0  0  0  0  0  0  0  0  0  0  0
    7.1381    0.1507    7.2607 H   0  0  0  0  0  0  0  0  0  0  0  0
    7.4641    2.0311    5.6601 H   0  0  0  0  0  0  0  0  0  0  0  0
    5.1710   -1.3515    7.0000 H   0  0  0  0  0  0  0  0  0  0  0  0
    5.8491    2.3848    3.8141 H   0  0  0  0  0  0  0  0  0  0  0  0
    3.5332   -0.9660    5.1764 H   0  0  0  0  0  0  0  0  0  0  0  0
    1.9426    0.7778   -0.6906 H   0  0  0  0  0  0  0  0  0  0  0  0
  1 10  1  0
  1 19  1  0
  2 22  1  0
  2 23  1  0
  3 26  1  0
  3 11  1  0
  4 29  1  0
  4 28  1  0
  5 30  1  0
  6 31  1  0
  6  5  2  0
  7  5  1  0
  7 32  1  0
  8  6  1  0
  9  7  2  0
 10  2  1  0
 10 13  1  0
 11 15  1  0
 12  8  2  0
 12  9  1  0
 13 11  2  0
 13 14  1  0
 14 17  2  0
 14 16  1  0
 15 16  1  0
 15  4  1  0
 16 12  1  0
 18  1  1  0
 20  1  1  0
 21  2  1  0
 24  3  1  0
 25  3  1  0
 27  4  1  0
 33  8  1  0
 34  9  1  0
 35 10  1  0
M  END
>  <HBA>  (659) 
3

>  <HBD>  (659) 
0

>  <TPSA>  (659) 
26.93

>  <cid>  (659) 
3778

>  <dipole>  (659) 
4.66

>  <excitation_energy_1>  (659) 
4.473

>  <excitation_energy_2>  (659) 
4.687

>  <excitation_energy_3>  (659) 
4.747

>  <excitation_energy_4>  (659) 
4.894

>  <homo_energy>  (659) 
-5.587

>  <homo_lumo_gap>  (659) 
5.053

>  <logP>  (659) 
2.608

>  <lumo_energy>  (659) 
-0.533

>  <melting_point>  (659) 
84.69

>  <molecular_refractivity>  (659) 
70.84

>  <oscillator_strength_1>  (659) 
0.1856

>  <oscillator_strength_2>  (659) 
0.0478

>  <oscillator_strength_3>  (659) 
0.0077

>  <oscillator_strength_4>  (659) 
0.0206

>  <open_babel_can_smiles>  (659) 
CC(c1c(C)n(n(c1=O)c1ccccc1)C)C

>  <mulliken_charges>  (659) 
35
1   -0.450088
2   -0.449822
3   -0.537137
4   -0.315938
5   -0.123736
6   -0.142481
7   -0.146339
8   -0.162943
9   -0.141757
10   -0.151478
11   0.299312
12   0.285269
13   -0.00481
14   0.574686
15   -0.32986
16   -0.430357
17   -0.545255
18   0.135467
19   0.182677
20   0.13664
21   0.136908
22   0.134372
23   0.180293
24   0.181346
25   0.17528
26   0.172913
27   0.168991
28   0.183298
29   0.163358
30   0.127523
31   0.129362
32   0.133699
33   0.144918
34   0.166756
35   0.118934

>  <lowdin_charges>  (659) 
35
1   -0.448254
2   -0.447908
3   -0.44695
4   -0.355408
5   -0.167488
6   -0.153562
7   -0.149598
8   -0.187548
9   -0.162502
10   -0.11071
11   0.04163
12   0.049125
13   -0.08895
14   0.14318
15   -0.049436
16   -0.030241
17   -0.31314
18   0.1466
19   0.168179
20   0.146855
21   0.147267
22   0.146302
23   0.166835
24   0.173179
25   0.169181
26   0.167756
27   0.163542
28   0.170689
29   0.148606
30   0.158182
31   0.158142
32   0.160545
33   0.166475
34   0.180772
35   0.138652

$$$$
PCCDB-ID:  3779
     RDKit          3D

 32 32  0  0  1  0  0  0  0  0999 V2000
    2.8129   -0.4162    0.4742 C   0  0  0  0  0  0  0  0  0  0  0  0
    5.0550   -0.2897    1.6243 C   0  0  0  0  0  0  0  0  0  0  0  0
    4.3037   -1.8565   -5.1529 C   0  0  0  0  0  0  0  0  0  0  0  0
    4.1534   -1.6240   -6.5226 C   0  0  0  0  0  0  0  0  0  0  0  0
    2.4325   -0.4058   -4.7284 C   0  0  0  0  0  0  0  0  0  0  0  0
    4.5054   -0.3165   -2.1420 C   0  0  0  0  0  0  0  0  0  0  0  0
    4.2767    0.0144    0.3411 C   0  0  0  0  0  0  0  0  0  0  0  0
    3.4428   -1.2471   -4.2406 C   0  0  0  0  0  0  0  0  0  0  0  0
    3.1540   -0.7820   -7.0061 C   0  0  0  0  0  0  0  0  0  0  0  0
    2.2795   -0.1640   -6.0915 C   0  0  0  0  0  0  0  0  0  0  0  0
    3.6170   -1.4365   -2.7488 C   0  0  1  0  0  0  0  0  0  0  0  0
    4.9393   -0.6748   -0.7816 N   0  0  0  0  0  0  0  0  0  0  0  0
    2.9588   -0.5209   -8.3351 O   0  0  0  0  0  0  0  0  0  0  0  0
    1.3057    0.6472   -6.6077 O   0  0  0  0  0  0  0  0  0  0  0  0
    4.2289   -2.6839   -2.4775 O   0  0  0  0  0  0  0  0  0  0  0  0
    2.3499    0.0790    1.3353 H   0  0  0  0  0  0  0  0  0  0  0  0
    2.7435   -1.5007    0.6176 H   0  0  0  0  0  0  0  0  0  0  0  0
    2.2273   -0.1517   -0.4119 H   0  0  0  0  0  0  0  0  0  0  0  0
    4.6046    0.2218    2.4814 H   0  0  0  0  0  0  0  0  0  0  0  0
    6.0978    0.0440    1.5485 H   0  0  0  0  0  0  0  0  0  0  0  0
    5.0564   -1.3671    1.8256 H   0  0  0  0  0  0  0  0  0  0  0  0
    5.0725   -2.5287   -4.7894 H   0  0  0  0  0  0  0  0  0  0  0  0
    4.8221   -2.1096   -7.2323 H   0  0  0  0  0  0  0  0  0  0  0  0
    1.7375    0.0651   -4.0324 H   0  0  0  0  0  0  0  0  0  0  0  0
    3.9819    0.6513   -2.1747 H   0  0  0  0  0  0  0  0  0  0  0  0
    5.3934   -0.2283   -2.7775 H   0  0  0  0  0  0  0  0  0  0  0  0
    4.2931    1.1088    0.1779 H   0  0  0  0  0  0  0  0  0  0  0  0
    2.6222   -1.3937   -2.2732 H   0  0  0  0  0  0  0  0  0  0  0  0
    5.9398   -0.5157   -0.7020 H   0  0  0  0  0  0  0  0  0  0  0  0
    3.6149   -1.0239   -8.8418 H   0  0  0  0  0  0  0  0  0  0  0  0
    0.7741    0.9891   -5.8724 H   0  0  0  0  0  0  0  0  0  0  0  0
    4.6120   -2.5550   -1.5846 H   0  0  0  0  0  0  0  0  0  0  0  0
  1 17  1  0
  1 16  1  0
  2 21  1  0
  2 19  1  0
  3 22  1  0
  3  8  2  0
  4  3  1  0
  5  8  1  0
  5 24  1  0
  6 12  1  0
  7  1  1  0
  7  2  1  0
  8 11  1  0
  9  4  2  0
  9 10  1  0
 10  5  2  0
 11 15  1  0
 11 28  1  1
 11  6  1  0
 12 29  1  0
 12  7  1  0
 13  9  1  0
 14 10  1  0
 14 31  1  0
 15 32  1  0
 18  1  1  0
 20  2  1  0
 23  4  1  0
 25  6  1  0
 26  6  1  0
 27  7  1  0
 30 13  1  0
M  END
>  <HBA>  (660) 
4

>  <HBD>  (660) 
4

>  <TPSA>  (660) 
72.72

>  <cid>  (660) 
3779

>  <dipole>  (660) 
3.5

>  <excitation_energy_1>  (660) 
4.713

>  <excitation_energy_2>  (660) 
4.78

>  <excitation_energy_3>  (660) 
4.933

>  <excitation_energy_4>  (660) 
5.13

>  <homo_energy>  (660) 
-5.336

>  <homo_lumo_gap>  (660) 
5.655

>  <logP>  (660) 
1.52

>  <lumo_energy>  (660) 
0.318

>  <melting_point>  (660) 
132.24

>  <molecular_refractivity>  (660) 
58.65

>  <oscillator_strength_1>  (660) 
0.0012

>  <oscillator_strength_2>  (660) 
0.068

>  <oscillator_strength_3>  (660) 
0.0013

>  <oscillator_strength_4>  (660) 
0.0034

>  <open_babel_can_smiles>  (660) 
CC(NC[C@@H](c1ccc(c(c1)O)O)O)C

>  <mulliken_charges>  (660) 
32
1   -0.440663
2   -0.457888
3   -0.185176
4   -0.200601
5   -0.260973
6   -0.159694
7   0.060922
8   0.13749
9   0.318384
10   0.324944
11   0.094808
12   -0.586685
13   -0.635081
14   -0.636535
15   -0.652919
16   0.143621
17   0.154802
18   0.147572
19   0.150179
20   0.138525
21   0.156681
22   0.145005
23   0.115963
24   0.106044
25   0.130377
26   0.146319
27   0.113425
28   0.114451
29   0.30715
30   0.405736
31   0.405169
32   0.398648

>  <lowdin_charges>  (660) 
32
1   -0.450726
2   -0.446881
3   -0.170545
4   -0.206953
5   -0.219936
6   -0.226435
7   -0.05094
8   -0.020776
9   0.074679
10   0.07834
11   -0.005571
12   -0.362506
13   -0.375519
14   -0.373224
15   -0.469427
16   0.153371
17   0.153099
18   0.150443
19   0.15643
20   0.14543
21   0.153552
22   0.169648
23   0.153756
24   0.149345
25   0.136442
26   0.152143
27   0.117388
28   0.125073
29   0.259094
30   0.358731
31   0.357491
32   0.334986

$$$$
PCCDB-ID:  3780
     RDKit          3D

 24 25  0  0  1  0  0  0  0  0999 V2000
   -1.5751    0.4352    1.3142 C   0  0  0  0  0  0  0  0  0  0  0  0
    1.5581   -0.6653    1.2264 C   0  0  0  0  0  0  0  0  0  0  0  0
   -1.6486   -0.6211    0.2157 C   0  0  2  0  0  0  0  0  0  0  0  0
    1.6735    0.6552    0.4699 C   0  0  2  0  0  0  0  0  0  0  0  0
   -0.2107   -0.6286   -0.3244 C   0  0  1  0  0  0  0  0  0  0  0  0
    0.2598    0.8226   -0.1072 C   0  0  1  0  0  0  0  0  0  0  0  0
   -3.8611   -0.3341   -0.7058 N   0  0  0  0  0  0  0  0  0  0  0  0
    3.9240    0.6265   -0.3998 N   0  0  0  0  0  0  0  0  0  0  0  0
   -4.2323   -0.7912    0.3565 O   0  0  0  0  0  0  0  0  0  0  0  0
   -4.5007    0.0286   -1.6589 O   0  0  0  0  0  0  0  0  0  0  0  0
    4.2460    0.7629    0.7634 O   0  0  0  0  0  0  0  0  0  0  0  0
    4.6064    0.5454   -1.3882 O   0  0  0  0  0  0  0  0  0  0  0  0
   -0.5965    1.3894    0.8838 O   0  0  0  0  0  0  0  0  0  0  0  0
    0.6071   -1.4552    0.5026 O   0  0  0  0  0  0  0  0  0  0  0  0
   -2.4578   -0.1902   -0.9047 O   0  0  0  0  0  0  0  0  0  0  0  0
    2.5321    0.5482   -0.6907 O   0  0  0  0  0  0  0  0  0  0  0  0
   -1.2702   -0.0366    2.2589 H   0  0  0  0  0  0  0  0  0  0  0  0
   -2.5202    0.9580    1.4740 H   0  0  0  0  0  0  0  0  0  0  0  0
    1.2071   -0.4730    2.2500 H   0  0  0  0  0  0  0  0  0  0  0  0
    2.4977   -1.2192    1.2781 H   0  0  0  0  0  0  0  0  0  0  0  0
   -1.9731   -1.6039    0.5574 H   0  0  0  0  0  0  0  0  0  0  0  0
    1.9794    1.5007    1.0861 H   0  0  0  0  0  0  0  0  0  0  0  0
   -0.1562   -0.9752   -1.3601 H   0  0  0  0  0  0  0  0  0  0  0  0
    0.2464    1.4454   -1.0059 H   0  0  0  0  0  0  0  0  0  0  0  0
  1 18  1  0
  1 17  1  0
  2 20  1  0
  2 19  1  0
  3 21  1  1
  3  1  1  0
  4 22  1  1
  4  2  1  0
  5 23  1  6
  5  6  1  0
  5  3  1  0
  5 14  1  0
  6 24  1  6
  6  4  1  0
  6 13  1  0
  7  9  1  0
  8 11  1  0
 10  7  2  0
 12  8  2  0
 13  1  1  0
 14  2  1  0
 15  7  1  0
 15  3  1  0
 16  8  1  0
 16  4  1  0
M  CHG  4   7   1   8   1   9  -1  11  -1
M  END
>  <HBA>  (661) 
2

>  <HBD>  (661) 
0

>  <TPSA>  (661) 
128.56

>  <cid>  (661) 
3780

>  <dipole>  (661) 
2.05

>  <excitation_energy_1>  (661) 
4.669

>  <excitation_energy_2>  (661) 
4.67

>  <excitation_energy_3>  (661) 
4.843

>  <excitation_energy_4>  (661) 
4.844

>  <homo_energy>  (661) 
-7.818

>  <homo_lumo_gap>  (661) 
5.663

>  <logP>  (661) 
-0.016

>  <lumo_energy>  (661) 
-2.155

>  <melting_point>  (661) 
49.0

>  <molecular_refractivity>  (661) 
47.28

>  <oscillator_strength_1>  (661) 
0.0005

>  <oscillator_strength_2>  (661) 
0.0003

>  <oscillator_strength_3>  (661) 
0.0062

>  <oscillator_strength_4>  (661) 
0.0027

>  <open_babel_can_smiles>  (661) 
O=N(=O)O[C@@H]1CO[C@@H]2[C@H]1OC[C@H]2ON(=O)=O

>  <mulliken_charges>  (661) 
24
1   -0.034637
2   -0.034995
3   0.077497
4   0.077329
5   0.103448
6   0.103212
7   0.755845
8   0.756095
9   -0.363899
10   -0.344013
11   -0.36405
12   -0.344255
13   -0.502462
14   -0.502292
15   -0.401378
16   -0.400983
17   0.155432
18   0.178333
19   0.155342
20   0.178537
21   0.196677
22   0.196707
23   0.17927
24   0.179241

>  <lowdin_charges>  (661) 
24
1   -0.141459
2   -0.140153
3   -0.034986
4   -0.036463
5   -0.015627
6   -0.017049
7   0.380499
8   0.378096
9   -0.215982
10   -0.180517
11   -0.214297
12   -0.180067
13   -0.266
14   -0.265295
15   -0.184693
16   -0.184467
17   0.14994
18   0.167282
19   0.148708
20   0.167332
21   0.175446
22   0.17675
23   0.16572
24   0.167285

$$$$
PCCDB-ID:  3786
     RDKit          3D

 27 28  0  0  0  0  0  0  0  0999 V2000
   -2.2989    0.3566    0.0477 C   0  0  0  0  0  0  0  0  0  0  0  0
   -1.5398   -0.5072    0.8387 C   0  0  0  0  0  0  0  0  0  0  0  0
   -1.6560    1.2222   -0.8395 C   0  0  0  0  0  0  0  0  0  0  0  0
   -0.1484   -0.5075    0.7474 C   0  0  0  0  0  0  0  0  0  0  0  0
   -0.2665    1.2183   -0.9410 C   0  0  0  0  0  0  0  0  0  0  0  0
    4.2324   -0.2613   -0.4755 C   0  0  0  0  0  0  0  0  0  0  0  0
    4.3714    1.0961   -0.4651 C   0  0  0  0  0  0  0  0  0  0  0  0
    2.4908   -2.1622   -0.4193 C   0  0  0  0  0  0  0  0  0  0  0  0
    0.5105    0.3505   -0.1521 C   0  0  0  0  0  0  0  0  0  0  0  0
    2.8706   -0.7009   -0.3637 C   0  0  0  0  0  0  0  0  0  0  0  0
    2.7157   -2.9037    0.8876 C   0  0  0  0  0  0  0  0  0  0  0  0
    1.9824    0.3569   -0.2591 C   0  0  0  0  0  0  0  0  0  0  0  0
    2.8681   -4.1670    1.0171 N   0  0  0  0  0  0  0  0  0  0  0  0
    2.7090   -2.1886    2.0462 O   0  0  0  0  0  0  0  0  0  0  0  0
    2.7696   -4.8042   -0.2510 O   0  0  0  0  0  0  0  0  0  0  0  0
    2.8386    1.8872   -0.3094 S   0  0  0  0  0  0  0  0  0  0  0  0
   -3.3826    0.3581    0.1244 H   0  0  0  0  0  0  0  0  0  0  0  0
   -2.0287   -1.1765    1.5412 H   0  0  0  0  0  0  0  0  0  0  0  0
   -2.2376    1.8978   -1.4608 H   0  0  0  0  0  0  0  0  0  0  0  0
    0.4315   -1.1579    1.3948 H   0  0  0  0  0  0  0  0  0  0  0  0
    0.2253    1.8784   -1.6500 H   0  0  0  0  0  0  0  0  0  0  0  0
    5.0670   -0.9483   -0.5734 H   0  0  0  0  0  0  0  0  0  0  0  0
    5.2807    1.6777   -0.5367 H   0  0  0  0  0  0  0  0  0  0  0  0
    3.0664   -2.6784   -1.1937 H   0  0  0  0  0  0  0  0  0  0  0  0
    1.4362   -2.2744   -0.6982 H   0  0  0  0  0  0  0  0  0  0  0  0
    2.8183   -1.2501    1.8110 H   0  0  0  0  0  0  0  0  0  0  0  0
    2.9532   -5.7253   -0.0133 H   0  0  0  0  0  0  0  0  0  0  0  0
  1 17  1  0
  1  2  2  0
  2 18  1  0
  3  1  1  0
  4  2  1  0
  4 20  1  0
  5  3  2  0
  5  9  1  0
  6  7  2  0
  6 10  1  0
  7 16  1  0
  8 10  1  0
  8 11  1  0
  9  4  2  0
 10 12  2  0
 11 13  2  0
 11 14  1  0
 12  9  1  0
 15 27  1  0
 15 13  1  0
 16 12  1  0
 19  3  1  0
 21  5  1  0
 22  6  1  0
 23  7  1  0
 24  8  1  0
 25  8  1  0
 26 14  1  0
M  END
>  <HBA>  (662) 
4

>  <HBD>  (662) 
2

>  <TPSA>  (662) 
77.57

>  <cid>  (662) 
3786

>  <dipole>  (662) 
2.41

>  <excitation_energy_1>  (662) 
4.4

>  <excitation_energy_2>  (662) 
4.555

>  <excitation_energy_3>  (662) 
4.807

>  <excitation_energy_4>  (662) 
5.12

>  <homo_energy>  (662) 
-6.057

>  <homo_lumo_gap>  (662) 
4.901

>  <logP>  (662) 
2.854

>  <lumo_energy>  (662) 
-1.156

>  <melting_point>  (662) 
146.47

>  <molecular_refractivity>  (662) 
63.26

>  <oscillator_strength_1>  (662) 
0.0006

>  <oscillator_strength_2>  (662) 
0.3501

>  <oscillator_strength_3>  (662) 
0.0019

>  <oscillator_strength_4>  (662) 
0.0537

>  <open_babel_can_smiles>  (662) 
O/N=C(\Cc1ccsc1c1ccccc1)/O

>  <mulliken_charges>  (662) 
27
1   -0.123546
2   -0.13672
3   -0.131818
4   -0.184489
5   -0.177536
6   -0.118163
7   -0.341783
8   -0.406356
9   0.142519
10   0.080524
11   0.512801
12   -0.285595
13   -0.249453
14   -0.594261
15   -0.526744
16   0.263091
17   0.135955
18   0.141247
19   0.136681
20   0.150126
21   0.146352
22   0.153052
23   0.1793
24   0.196853
25   0.196583
26   0.423327
27   0.418054

>  <lowdin_charges>  (662) 
27
1   -0.149678
2   -0.151339
3   -0.153117
4   -0.164514
5   -0.159357
6   -0.188902
7   -0.317629
8   -0.299065
9   -0.009115
10   -0.057569
11   0.093946
12   -0.164086
13   -0.104258
14   -0.362678
15   -0.395947
16   0.322289
17   0.159101
18   0.164624
19   0.162764
20   0.167789
21   0.167003
22   0.171305
23   0.186676
24   0.185265
25   0.182735
26   0.359022
27   0.354735

$$$$
PCCDB-ID:  3806
     RDKit          3D

 19 20  0  0  0  0  0  0  0  0999 V2000
    2.4316    0.7326    0.0259 C   0  0  0  0  0  0  0  0  0  0  0  0
    1.2129    1.4066   -0.0337 C   0  0  0  0  0  0  0  0  0  0  0  0
    2.4614   -0.6567    0.0147 C   0  0  0  0  0  0  0  0  0  0  0  0
   -2.5138    0.6754   -0.2476 C   0  0  0  0  0  0  0  0  0  0  0  0
   -2.5093   -0.6661   -0.2603 C   0  0  0  0  0  0  0  0  0  0  0  0
    0.0267    0.6778   -0.1046 C   0  0  0  0  0  0  0  0  0  0  0  0
   -1.2568    1.4478   -0.1682 C   0  0  0  0  0  0  0  0  0  0  0  0
    1.2743   -1.4038   -0.0557 C   0  0  0  0  0  0  0  0  0  0  0  0
   -1.2622   -1.4784   -0.2003 C   0  0  0  0  0  0  0  0  0  0  0  0
    0.0279   -0.7386   -0.1183 C   0  0  0  0  0  0  0  0  0  0  0  0
   -1.2752    2.6739   -0.1563 O   0  0  0  0  0  0  0  0  0  0  0  0
    1.3101   -2.7574   -0.0642 O   0  0  0  0  0  0  0  0  0  0  0  0
   -1.3522   -2.7000   -0.2229 O   0  0  0  0  0  0  0  0  0  0  0  0
    3.3632    1.2886    0.0806 H   0  0  0  0  0  0  0  0  0  0  0  0
    1.1570    2.4892   -0.0256 H   0  0  0  0  0  0  0  0  0  0  0  0
    3.4130   -1.1837    0.0607 H   0  0  0  0  0  0  0  0  0  0  0  0
   -3.4282    1.2604   -0.2935 H   0  0  0  0  0  0  0  0  0  0  0  0
   -3.4232   -1.2511   -0.3177 H   0  0  0  0  0  0  0  0  0  0  0  0
    2.2369   -3.0430   -0.0138 H   0  0  0  0  0  0  0  0  0  0  0  0
  1 14  1  0
  2 15  1  0
  2  1  2  0
  3  1  1  0
  3 16  1  0
  4  7  1  0
  5  4  2  0
  5  9  1  0
  6  2  1  0
  7 11  2  0
  7  6  1  0
  8  3  2  0
  9 10  1  0
 10  6  2  0
 10  8  1  0
 12  8  1  0
 12 19  1  0
 13  9  2  0
 17  4  1  0
 18  5  1  0
M  END
>  <HBA>  (663) 
3

>  <HBD>  (663) 
1

>  <TPSA>  (663) 
54.37

>  <cid>  (663) 
3806

>  <dipole>  (663) 
3.08

>  <excitation_energy_1>  (663) 
2.612

>  <excitation_energy_2>  (663) 
2.931

>  <excitation_energy_3>  (663) 
3.094

>  <excitation_energy_4>  (663) 
3.745

>  <homo_energy>  (663) 
-6.637

>  <homo_lumo_gap>  (663) 
3.646

>  <logP>  (663) 
1.327

>  <lumo_energy>  (663) 
-2.991

>  <melting_point>  (663) 
147.45

>  <molecular_refractivity>  (663) 
46.27

>  <oscillator_strength_1>  (663) 
0.0

>  <oscillator_strength_2>  (663) 
0.0

>  <oscillator_strength_3>  (663) 
0.072

>  <oscillator_strength_4>  (663) 
0.0099

>  <open_babel_can_smiles>  (663) 
O=C1C=CC(=O)c2c1c(O)ccc2

>  <mulliken_charges>  (663) 
19
1   -0.127663
2   -0.174556
3   -0.18139
4   -0.159178
5   -0.157423
6   0.016107
7   0.393739
8   0.303319
9   0.398752
10   0.018511
11   -0.47053
12   -0.596917
13   -0.453205
14   0.149229
15   0.168894
16   0.131725
17   0.163704
18   0.165336
19   0.411545

>  <lowdin_charges>  (663) 
19
1   -0.127937
2   -0.145739
3   -0.197894
4   -0.156068
5   -0.142339
6   -0.026702
7   0.147217
8   0.127492
9   0.142509
10   -0.070894
11   -0.228281
12   -0.333389
13   -0.212957
14   0.168133
15   0.179002
16   0.160166
17   0.179191
18   0.180052
19   0.358439

$$$$
PCCDB-ID:  3816
     RDKit          3D

 30 30  0  0  1  0  0  0  0  0999 V2000
    3.5964    0.4085   -1.3289 C   0  0  0  0  0  0  0  0  0  0  0  0
    1.1769    0.5661   -0.8221 C   0  0  0  0  0  0  0  0  0  0  0  0
    1.2886   -2.7081   -0.0004 C   0  0  0  0  0  0  0  0  0  0  0  0
    4.1714   -0.5968    1.4228 C   0  0  0  0  0  0  0  0  0  0  0  0
    2.5829    0.1037   -0.5112 C   0  0  0  0  0  0  0  0  0  0  0  0
    2.5155   -2.1914    0.7705 C   0  0  2  0  0  0  0  0  0  0  0  0
    2.7586   -0.6468    0.8063 C   0  0  1  0  0  0  0  0  0  0  0  0
    0.9988   -4.1729    0.3520 C   0  0  0  0  0  0  0  0  0  0  0  0
    3.9078   -2.7728    0.3886 C   0  0  1  0  0  0  0  0  0  0  0  0
    4.1847   -3.0167   -1.1147 C   0  0  0  0  0  0  0  0  0  0  0  0
    4.8910   -1.7888    0.8960 N   0  0  0  0  0  0  0  0  0  0  0  0
    0.2318   -4.4779    1.2376 O   0  0  0  0  0  0  0  0  0  0  0  0
    1.6841   -5.1000   -0.3360 O   0  0  0  0  0  0  0  0  0  0  0  0
    3.4966   -3.7348   -1.8239 O   0  0  0  0  0  0  0  0  0  0  0  0
    5.2881   -2.4350   -1.5590 O   0  0  0  0  0  0  0  0  0  0  0  0
    3.4291    0.9586   -2.2508 H   0  0  0  0  0  0  0  0  0  0  0  0
    4.6241    0.1284   -1.1260 H   0  0  0  0  0  0  0  0  0  0  0  0
    1.1403    1.1152   -1.7674 H   0  0  0  0  0  0  0  0  0  0  0  0
    0.8042    1.2299   -0.0296 H   0  0  0  0  0  0  0  0  0  0  0  0
    0.4679   -0.2661   -0.8908 H   0  0  0  0  0  0  0  0  0  0  0  0
    1.4138   -2.5705   -1.0779 H   0  0  0  0  0  0  0  0  0  0  0  0
    0.4115   -2.1454    0.3274 H   0  0  0  0  0  0  0  0  0  0  0  0
    4.0926   -0.6492    2.5165 H   0  0  0  0  0  0  0  0  0  0  0  0
    4.7106    0.3193    1.1681 H   0  0  0  0  0  0  0  0  0  0  0  0
    2.3635   -2.4823    1.8186 H   0  0  0  0  0  0  0  0  0  0  0  0
    2.0471   -0.2137    1.5204 H   0  0  0  0  0  0  0  0  0  0  0  0
    4.0390   -3.7535    0.8616 H   0  0  0  0  0  0  0  0  0  0  0  0
    5.4972   -2.1945    1.6025 H   0  0  0  0  0  0  0  0  0  0  0  0
    2.2812   -4.6665   -0.9967 H   0  0  0  0  0  0  0  0  0  0  0  0
    5.6061   -1.9102   -0.7679 H   0  0  0  0  0  0  0  0  0  0  0  0
  1 17  1  0
  1  5  2  3
  2  5  1  0
  2 19  1  0
  3 22  1  0
  3  8  1  0
  3  6  1  0
  4 23  1  0
  5  7  1  0
  6  7  1  0
  6 25  1  1
  7  4  1  0
  7 26  1  1
  8 12  2  0
  9  6  1  0
  9 27  1  1
  9 11  1  0
 10  9  1  0
 11  4  1  0
 11 28  1  0
 13  8  1  0
 14 10  2  0
 15 10  1  0
 15 30  1  0
 16  1  1  0
 18  2  1  0
 20  2  1  0
 21  3  1  0
 24  4  1  0
 29 13  1  0
M  END
>  <HBA>  (664) 
5

>  <HBD>  (664) 
3

>  <TPSA>  (664) 
86.63

>  <cid>  (664) 
3816

>  <dipole>  (664) 
6.93

>  <excitation_energy_1>  (664) 
5.375

>  <excitation_energy_2>  (664) 
5.554

>  <excitation_energy_3>  (664) 
5.594

>  <excitation_energy_4>  (664) 
5.751

>  <homo_energy>  (664) 
-6.863

>  <homo_lumo_gap>  (664) 
6.485

>  <logP>  (664) 
0.655

>  <lumo_energy>  (664) 
-0.378

>  <melting_point>  (664) 
157.68

>  <molecular_refractivity>  (664) 
57.86

>  <oscillator_strength_1>  (664) 
0.0006

>  <oscillator_strength_2>  (664) 
0.003

>  <oscillator_strength_3>  (664) 
0.0015

>  <oscillator_strength_4>  (664) 
0.0138

>  <open_babel_can_smiles>  (664) 
OC(=O)C[C@@H]1[C@@H](CN[C@@H]1C(=O)O)C(=C)C

>  <mulliken_charges>  (664) 
30
1   -0.395745
2   -0.521851
3   -0.384687
4   -0.134071
5   0.22094
6   -0.100791
7   -0.196027
8   0.57064
9   -0.103886
10   0.650178
11   -0.64544
12   -0.460366
13   -0.597596
14   -0.501467
15   -0.563097
16   0.146265
17   0.134286
18   0.161631
19   0.157448
20   0.168318
21   0.178464
22   0.174286
23   0.148409
24   0.16666
25   0.162789
26   0.149931
27   0.193547
28   0.329721
29   0.451182
30   0.440327

>  <lowdin_charges>  (664) 
30
1   -0.3517
2   -0.44502
3   -0.320213
4   -0.200529
5   -0.003156
6   -0.116177
7   -0.13967
8   0.182012
9   -0.118515
10   0.192801
11   -0.368053
12   -0.265218
13   -0.369022
14   -0.278787
15   -0.327161
16   0.162825
17   0.154552
18   0.161466
19   0.158425
20   0.162006
21   0.166276
22   0.172745
23   0.142621
24   0.157702
25   0.157813
26   0.159392
27   0.176606
28   0.27515
29   0.361938
30   0.358889

$$$$
PCCDB-ID:  3830
     RDKit          3D

 25 27  0  0  0  0  0  0  0  0999 V2000
    0.4923    0.0892   -1.1479 C   0  0  0  0  0  0  0  0  0  0  0  0
    1.8861   -0.2368   -1.0565 C   0  0  0  0  0  0  0  0  0  0  0  0
   -0.0716   -0.3402    0.0133 C   0  0  0  0  0  0  0  0  0  0  0  0
    3.2497   -1.4333    0.8470 C   0  0  0  0  0  0  0  0  0  0  0  0
    3.1644   -7.0992    0.1099 C   0  0  0  0  0  0  0  0  0  0  0  0
    5.2635   -3.8441   -1.8807 C   0  0  0  0  0  0  0  0  0  0  0  0
    2.0674   -0.8362    0.1546 C   0  0  0  0  0  0  0  0  0  0  0  0
    3.6477   -5.0653   -0.0912 C   0  0  0  0  0  0  0  0  0  0  0  0
    3.8399   -3.6773   -0.0667 C   0  0  0  0  0  0  0  0  0  0  0  0
    4.3178   -5.8344   -1.0730 C   0  0  0  0  0  0  0  0  0  0  0  0
    3.2512   -2.8958    0.8665 N   0  0  0  0  0  0  0  0  0  0  0  0
    2.8968   -5.9151    0.6743 N   0  0  0  0  0  0  0  0  0  0  0  0
    4.0238   -7.1268   -0.9619 N   0  0  0  0  0  0  0  0  0  0  0  0
    4.6641   -3.0917   -0.9913 N   0  0  0  0  0  0  0  0  0  0  0  0
    5.1350   -5.1904   -1.9727 N   0  0  0  0  0  0  0  0  0  0  0  0
    0.8712   -0.9048    0.8219 O   0  0  0  0  0  0  0  0  0  0  0  0
   -0.0150    0.5775   -1.9683 H   0  0  0  0  0  0  0  0  0  0  0  0
    2.6531   -0.0581   -1.7972 H   0  0  0  0  0  0  0  0  0  0  0  0
   -1.0753   -0.3180    0.4094 H   0  0  0  0  0  0  0  0  0  0  0  0
    3.2916   -1.0872    1.8860 H   0  0  0  0  0  0  0  0  0  0  0  0
    4.1607   -1.1115    0.3418 H   0  0  0  0  0  0  0  0  0  0  0  0
    2.7221   -8.0180    0.4788 H   0  0  0  0  0  0  0  0  0  0  0  0
    5.9179   -3.3760   -2.6104 H   0  0  0  0  0  0  0  0  0  0  0  0
    2.5786   -3.3702    1.4568 H   0  0  0  0  0  0  0  0  0  0  0  0
    5.6258   -5.7173   -2.6866 H   0  0  0  0  0  0  0  0  0  0  0  0
  1  2  1  0
  1  3  2  0
  2  7  2  0
  3 19  1  0
  3 16  1  0
  4 11  1  0
  4 20  1  0
  5 22  1  0
  5 12  2  0
  6 14  2  0
  7 16  1  0
  7  4  1  0
  8  9  2  0
  8 12  1  0
  9 11  1  0
 10 13  2  0
 10  8  1  0
 11 24  1  0
 13  5  1  0
 14  9  1  0
 15  6  1  0
 15 10  1  0
 17  1  1  0
 18  2  1  0
 21  4  1  0
 23  6  1  0
 25 15  1  0
M  END
>  <HBA>  (665) 
5

>  <HBD>  (665) 
2

>  <TPSA>  (665) 
79.63

>  <cid>  (665) 
3830

>  <dipole>  (665) 
4.69

>  <excitation_energy_1>  (665) 
4.202

>  <excitation_energy_2>  (665) 
4.406

>  <excitation_energy_3>  (665) 
4.586

>  <excitation_energy_4>  (665) 
4.688

>  <homo_energy>  (665) 
-5.693

>  <homo_lumo_gap>  (665) 
4.563

>  <logP>  (665) 
1.631

>  <lumo_energy>  (665) 
-1.129

>  <melting_point>  (665) 
206.62

>  <molecular_refractivity>  (665) 
57.74

>  <oscillator_strength_1>  (665) 
0.1853

>  <oscillator_strength_2>  (665) 
0.0058

>  <oscillator_strength_3>  (665) 
0.0886

>  <oscillator_strength_4>  (665) 
0.0005

>  <open_babel_can_smiles>  (665) 
c1coc(c1)CNc1nc[nH]c2c1ncn2

>  <mulliken_charges>  (665) 
25
1   -0.181925
2   -0.196091
3   0.086283
4   -0.231217
5   0.163074
6   0.234098
7   0.34685
8   0.209768
9   0.522992
10   0.487417
11   -0.621158
12   -0.53385
13   -0.514808
14   -0.526494
15   -0.643628
16   -0.439642
17   0.143372
18   0.14498
19   0.157442
20   0.172743
21   0.201586
22   0.133805
23   0.171912
24   0.359341
25   0.353152

>  <lowdin_charges>  (665) 
25
1   -0.205143
2   -0.208413
3   -0.077129
4   -0.195168
5   -0.06706
6   -0.022667
7   0.049606
8   -0.062642
9   0.120316
10   0.035639
11   -0.237402
12   -0.233457
13   -0.242916
14   -0.205669
15   -0.151517
16   -0.105029
17   0.171251
18   0.172417
19   0.171532
20   0.165251
21   0.185866
22   0.156179
23   0.173065
24   0.304048
25   0.309042

$$$$
PCCDB-ID:  3840
     RDKit          3D

 16 16  0  0  0  0  0  0  0  0999 V2000
   -0.6937    1.2785    0.0628 C   0  0  0  0  0  0  0  0  0  0  0  0
   -2.8274   -0.0954   -0.1497 C   0  0  0  0  0  0  0  0  0  0  0  0
    0.7013   -1.0596   -0.1549 C   0  0  0  0  0  0  0  0  0  0  0  0
   -1.3357    0.0941   -0.0683 C   0  0  0  0  0  0  0  0  0  0  0  0
    0.7642    1.3855    0.1058 C   0  0  0  0  0  0  0  0  0  0  0  0
    1.4337    0.0711   -0.0253 C   0  0  0  0  0  0  0  0  0  0  0  0
   -3.2494   -0.6000   -1.4089 O   0  0  0  0  0  0  0  0  0  0  0  0
    1.3788    2.4397    0.2314 O   0  0  0  0  0  0  0  0  0  0  0  0
    2.7901    0.1043   -0.0054 O   0  0  0  0  0  0  0  0  0  0  0  0
   -0.6625   -1.0780   -0.1735 O   0  0  0  0  0  0  0  0  0  0  0  0
   -1.2635    2.1979    0.1441 H   0  0  0  0  0  0  0  0  0  0  0  0
   -3.3140    0.8573    0.1026 H   0  0  0  0  0  0  0  0  0  0  0  0
   -3.1442   -0.8424    0.5851 H   0  0  0  0  0  0  0  0  0  0  0  0
    1.1107   -2.0591   -0.2556 H   0  0  0  0  0  0  0  0  0  0  0  0
   -3.0253    0.0627   -2.0817 H   0  0  0  0  0  0  0  0  0  0  0  0
    3.1413   -0.7964   -0.0972 H   0  0  0  0  0  0  0  0  0  0  0  0
  1  5  1  0
  1 11  1  0
  2  4  1  0
  2 12  1  0
  2 13  1  0
  3  6  2  0
  4  1  2  0
  5  8  2  0
  6  9  1  0
  6  5  1  0
  7  2  1  0
 10  3  1  0
 10  4  1  0
 14  3  1  0
 15  7  1  0
 16  9  1  0
M  END
>  <HBA>  (666) 
4

>  <HBD>  (666) 
2

>  <TPSA>  (666) 
70.67

>  <cid>  (666) 
3840

>  <dipole>  (666) 
3.31

>  <excitation_energy_1>  (666) 
3.88

>  <excitation_energy_2>  (666) 
4.801

>  <excitation_energy_3>  (666) 
5.141

>  <excitation_energy_4>  (666) 
5.335

>  <homo_energy>  (666) 
-6.376

>  <homo_lumo_gap>  (666) 
5.154

>  <logP>  (666) 
-0.162

>  <lumo_energy>  (666) 
-1.222

>  <melting_point>  (666) 
101.42

>  <molecular_refractivity>  (666) 
33.13

>  <oscillator_strength_1>  (666) 
0.0

>  <oscillator_strength_2>  (666) 
0.1048

>  <oscillator_strength_3>  (666) 
0.0003

>  <oscillator_strength_4>  (666) 
0.0009

>  <open_babel_can_smiles>  (666) 
OCc1occ(c(=O)c1)O

>  <mulliken_charges>  (666) 
16
1   -0.271386
2   -0.09619
3   0.022523
4   0.340182
5   0.448044
6   0.260992
7   -0.594544
8   -0.503175
9   -0.607391
10   -0.44455
11   0.157718
12   0.149112
13   0.174502
14   0.160094
15   0.394675
16   0.409395

>  <lowdin_charges>  (666) 
16
1   -0.235424
2   -0.134688
3   -0.103838
4   0.084293
5   0.123308
6   0.047105
7   -0.451656
8   -0.267533
9   -0.343962
10   -0.090738
11   0.181143
12   0.145993
13   0.1682
14   0.169728
15   0.347848
16   0.36022

$$$$
PCCDB-ID:  3841
     RDKit          3D

 17 17  0  0  0  0  0  0  0  0999 V2000
   -0.6594    1.3258    0.0016 C   0  0  0  0  0  0  0  0  0  0  0  0
   -2.8372    0.0163   -0.1284 C   0  0  0  0  0  0  0  0  0  0  0  0
    0.6604   -1.0589   -0.1256 C   0  0  0  0  0  0  0  0  0  0  0  0
   -1.3399    0.1583   -0.0790 C   0  0  0  0  0  0  0  0  0  0  0  0
    0.8002    1.3907    0.0263 C   0  0  0  0  0  0  0  0  0  0  0  0
    1.4285    0.0525   -0.0495 C   0  0  0  0  0  0  0  0  0  0  0  0
   -3.2674   -0.5022   -1.4318 N   0  0  0  0  0  0  0  0  0  0  0  0
    1.4484    2.4306    0.0978 O   0  0  0  0  0  0  0  0  0  0  0  0
    2.7866    0.0424   -0.0368 O   0  0  0  0  0  0  0  0  0  0  0  0
   -0.7024   -1.0361   -0.1371 O   0  0  0  0  0  0  0  0  0  0  0  0
   -1.2008    2.2645    0.0468 H   0  0  0  0  0  0  0  0  0  0  0  0
   -3.2733    0.9879    0.1557 H   0  0  0  0  0  0  0  0  0  0  0  0
   -3.1414   -0.7115    0.6337 H   0  0  0  0  0  0  0  0  0  0  0  0
    1.0385   -2.0741   -0.1842 H   0  0  0  0  0  0  0  0  0  0  0  0
   -3.1568    0.2190   -2.1427 H   0  0  0  0  0  0  0  0  0  0  0  0
   -4.2593   -0.7287   -1.3973 H   0  0  0  0  0  0  0  0  0  0  0  0
    3.1061   -0.8726   -0.0942 H   0  0  0  0  0  0  0  0  0  0  0  0
  1  5  1  0
  1 11  1  0
  2  4  1  0
  2 12  1  0
  2 13  1  0
  3  6  2  0
  4  1  2  0
  5  8  2  0
  6  9  1  0
  6  5  1  0
  7 16  1  0
  7  2  1  0
 10  3  1  0
 10  4  1  0
 14  3  1  0
 15  7  1  0
 17  9  1  0
M  END
>  <HBA>  (667) 
4

>  <HBD>  (667) 
2

>  <TPSA>  (667) 
76.46

>  <cid>  (667) 
3841

>  <dipole>  (667) 
4.79

>  <excitation_energy_1>  (667) 
3.932

>  <excitation_energy_2>  (667) 
4.829

>  <excitation_energy_3>  (667) 
5.045

>  <excitation_energy_4>  (667) 
5.181

>  <homo_energy>  (667) 
-6.177

>  <homo_lumo_gap>  (667) 
5.206

>  <logP>  (667) 
0.504

>  <lumo_energy>  (667) 
-0.971

>  <melting_point>  (667) 
137.05

>  <molecular_refractivity>  (667) 
34.67

>  <oscillator_strength_1>  (667) 
0.0

>  <oscillator_strength_2>  (667) 
0.089

>  <oscillator_strength_3>  (667) 
0.0188

>  <oscillator_strength_4>  (667) 
0.0004

>  <open_babel_can_smiles>  (667) 
NCc1cc(=O)c(co1)O

>  <mulliken_charges>  (667) 
17
1   -0.27302
2   -0.220752
3   0.022667
4   0.386616
5   0.446833
6   0.259641
7   -0.702963
8   -0.508556
9   -0.60951
10   -0.441287
11   0.152967
12   0.143895
13   0.168777
14   0.156516
15   0.304003
16   0.306385
17   0.407788

>  <lowdin_charges>  (667) 
17
1   -0.238814
2   -0.20554
3   -0.103819
4   0.105886
5   0.123409
6   0.045699
7   -0.546656
8   -0.273271
9   -0.346159
10   -0.087289
11   0.179051
12   0.13803
13   0.164165
14   0.167795
15   0.259554
16   0.259167
17   0.358792

$$$$
PCCDB-ID:  3848
     RDKit          3D

 22 22  0  0  1  0  0  0  0  0999 V2000
   -2.2187   -1.8405    0.4592 C   0  0  0  0  0  0  0  0  0  0  0  0
   -1.8012   -1.0507   -0.6114 C   0  0  0  0  0  0  0  0  0  0  0  0
   -1.2780   -2.3134    1.3783 C   0  0  0  0  0  0  0  0  0  0  0  0
   -0.4476   -0.7352   -0.7601 C   0  0  0  0  0  0  0  0  0  0  0  0
    0.0728   -2.0020    1.2280 C   0  0  0  0  0  0  0  0  0  0  0  0
    1.9770   -0.8974   -0.0440 C   0  0  0  0  0  0  0  0  0  0  0  0
    0.5068   -1.2050    0.1562 C   0  0  0  0  0  0  0  0  0  0  0  0
    2.7129   -1.9973   -0.8347 C   0  0  1  0  0  0  0  0  0  0  0  0
    2.9233   -3.2741    0.0086 C   0  0  0  0  0  0  0  0  0  0  0  0
    2.0789   -2.3234   -2.0759 O   0  0  0  0  0  0  0  0  0  0  0  0
    3.2677   -3.2530    1.1674 O   0  0  0  0  0  0  0  0  0  0  0  0
    2.7302   -4.4112   -0.6780 O   0  0  0  0  0  0  0  0  0  0  0  0
   -3.2707   -2.0833    0.5812 H   0  0  0  0  0  0  0  0  0  0  0  0
   -2.5259   -0.6710   -1.3267 H   0  0  0  0  0  0  0  0  0  0  0  0
   -1.5978   -2.9258    2.2170 H   0  0  0  0  0  0  0  0  0  0  0  0
   -0.1305   -0.0956   -1.5819 H   0  0  0  0  0  0  0  0  0  0  0  0
    0.8021   -2.3788    1.9393 H   0  0  0  0  0  0  0  0  0  0  0  0
    2.4881   -0.7950    0.9175 H   0  0  0  0  0  0  0  0  0  0  0  0
    2.0908    0.0463   -0.5884 H   0  0  0  0  0  0  0  0  0  0  0  0
    3.7138   -1.6344   -1.0978 H   0  0  0  0  0  0  0  0  0  0  0  0
    1.1167   -2.2477   -1.9339 H   0  0  0  0  0  0  0  0  0  0  0  0
    2.4477   -4.1321   -1.5771 H   0  0  0  0  0  0  0  0  0  0  0  0
  1 13  1  0
  1  3  2  0
  2  1  1  0
  3 15  1  0
  4  2  2  0
  4  7  1  0
  5  3  1  0
  5 17  1  0
  6  7  1  0
  6 18  1  0
  7  5  2  0
  8 20  1  6
  8  6  1  0
  8  9  1  0
  9 11  2  0
 10 21  1  0
 10  8  1  0
 12  9  1  0
 14  2  1  0
 16  4  1  0
 19  6  1  0
 22 12  1  0
M  END
>  <HBA>  (668) 
3

>  <HBD>  (668) 
2

>  <TPSA>  (668) 
57.53

>  <cid>  (668) 
3848

>  <dipole>  (668) 
3.87

>  <excitation_energy_1>  (668) 
5.289

>  <excitation_energy_2>  (668) 
5.447

>  <excitation_energy_3>  (668) 
5.836

>  <excitation_energy_4>  (668) 
5.985

>  <homo_energy>  (668) 
-6.961

>  <homo_lumo_gap>  (668) 
6.465

>  <logP>  (668) 
0.675

>  <lumo_energy>  (668) 
-0.495

>  <melting_point>  (668) 
101.6

>  <molecular_refractivity>  (668) 
43.96

>  <oscillator_strength_1>  (668) 
0.0003

>  <oscillator_strength_2>  (668) 
0.0014

>  <oscillator_strength_3>  (668) 
0.0227

>  <oscillator_strength_4>  (668) 
0.0017

>  <open_babel_can_smiles>  (668) 
O[C@H](C(=O)O)Cc1ccccc1

>  <mulliken_charges>  (668) 
22
1   -0.127629
2   -0.124163
3   -0.1282
4   -0.210618
5   -0.17951
6   -0.366962
7   0.114679
8   0.029014
9   0.594357
10   -0.650753
11   -0.465793
12   -0.573292
13   0.136966
14   0.137194
15   0.141527
16   0.137491
17   0.166681
18   0.188735
19   0.158816
20   0.184473
21   0.409674
22   0.427314

>  <lowdin_charges>  (668) 
22
1   -0.152508
2   -0.155477
3   -0.147246
4   -0.1861
5   -0.162925
6   -0.284665
7   -0.020712
8   -0.040574
9   0.166009
10   -0.45775
11   -0.256994
12   -0.3421
13   0.159897
14   0.162411
15   0.163909
16   0.159056
17   0.175557
18   0.179252
19   0.159645
20   0.170886
21   0.348272
22   0.362159

$$$$
PCCDB-ID:  3857
     RDKit          3D

 18 17  0  0  1  0  0  0  0  0999 V2000
    1.5191   -0.9514    0.3832 C   0  0  0  0  0  0  0  0  0  0  0  0
    0.7045   -1.3126   -0.8716 C   0  0  1  0  0  0  0  0  0  0  0  0
   -0.0815   -2.6234   -0.6302 C   0  0  0  0  0  0  0  0  0  0  0  0
   -0.2128   -0.2770   -1.3739 N   0  0  0  0  0  0  0  0  0  0  0  0
    0.3599   -3.5440    0.0173 O   0  0  0  0  0  0  0  0  0  0  0  0
   -1.2742   -2.6472   -1.2377 O   0  0  0  0  0  0  0  0  0  0  0  0
    1.5179    1.6887    0.6100 O   0  0  0  0  0  0  0  0  0  0  0  0
    3.6663    0.5275    1.2878 O   0  0  0  0  0  0  0  0  0  0  0  0
    3.1068    0.6816   -1.2548 O   0  0  0  0  0  0  0  0  0  0  0  0
    2.5395    0.5249    0.1112 P   0  0  0  0  0  0  0  0  0  0  0  0
    2.1718   -1.7912    0.6381 H   0  0  0  0  0  0  0  0  0  0  0  0
    0.8670   -0.7824    1.2478 H   0  0  0  0  0  0  0  0  0  0  0  0
    1.4093   -1.5315   -1.6824 H   0  0  0  0  0  0  0  0  0  0  0  0
   -0.5762    0.2924   -0.6106 H   0  0  0  0  0  0  0  0  0  0  0  0
    0.2749    0.3543   -2.0055 H   0  0  0  0  0  0  0  0  0  0  0  0
   -1.3655   -1.7505   -1.6506 H   0  0  0  0  0  0  0  0  0  0  0  0
    1.9022    2.5741    0.4872 H   0  0  0  0  0  0  0  0  0  0  0  0
    4.5470    0.3962    0.8977 H   0  0  0  0  0  0  0  0  0  0  0  0
  1 11  1  0
  1 12  1  0
  2 13  1  6
  2  3  1  0
  2  1  1  0
  3  5  2  0
  4  2  1  0
  4 14  1  0
  6  3  1  0
  9 10  2  0
 10  1  1  0
 10  7  1  0
 10  8  1  0
 15  4  1  0
 16  6  1  0
 17  7  1  0
 18  8  1  0
M  END
>  <HBA>  (669) 
6

>  <HBD>  (669) 
4

>  <TPSA>  (669) 
130.66

>  <cid>  (669) 
3857

>  <dipole>  (669) 
4.98

>  <excitation_energy_1>  (669) 
5.477

>  <excitation_energy_2>  (669) 
6.084

>  <excitation_energy_3>  (669) 
6.572

>  <excitation_energy_4>  (669) 
6.806

>  <homo_energy>  (669) 
-7.026

>  <homo_lumo_gap>  (669) 
7.246

>  <logP>  (669) 
-0.724

>  <lumo_energy>  (669) 
0.22

>  <melting_point>  (669) 
193.17

>  <molecular_refractivity>  (669) 
32.0

>  <oscillator_strength_1>  (669) 
0.0022

>  <oscillator_strength_2>  (669) 
0.0059

>  <oscillator_strength_3>  (669) 
0.0002

>  <oscillator_strength_4>  (669) 
0.0377

>  <open_babel_can_smiles>  (669) 
OC(=O)[C@H](CP(=O)(O)O)N

>  <mulliken_charges>  (669) 
18
1   -0.495455
2   -0.099762
3   0.612
4   -0.773435
5   -0.464574
6   -0.578079
7   -0.657564
8   -0.645584
9   -0.566149
10   1.044302
11   0.221421
12   0.200053
13   0.20803
14   0.330998
15   0.346168
16   0.434294
17   0.441155
18   0.442177

>  <lowdin_charges>  (669) 
18
1   -0.460943
2   -0.10719
3   0.174871
4   -0.545277
5   -0.258534
6   -0.349175
7   -0.57508
8   -0.575079
9   -0.606617
10   1.037068
11   0.203694
12   0.189941
13   0.184268
14   0.273985
15   0.285249
16   0.360479
17   0.382465
18   0.385875

$$$$
PCCDB-ID:  3858
     RDKit          3D

 27 27  0  0  1  0  0  0  0  0999 V2000
   -1.4822    0.2780    0.7190 C   0  0  0  0  0  0  0  0  0  0  0  0
   -0.7753    1.0078   -0.2365 C   0  0  0  0  0  0  0  0  0  0  0  0
   -0.7963   -0.6022    1.5597 C   0  0  0  0  0  0  0  0  0  0  0  0
    0.6082    0.8543   -0.3528 C   0  0  0  0  0  0  0  0  0  0  0  0
    0.5850   -0.7512    1.4414 C   0  0  0  0  0  0  0  0  0  0  0  0
    2.8067   -0.2066    0.3449 C   0  0  0  0  0  0  0  0  0  0  0  0
    2.5842   -1.9181   -1.6014 C   0  0  0  0  0  0  0  0  0  0  0  0
    1.3081   -0.0276    0.4808 C   0  0  0  0  0  0  0  0  0  0  0  0
    3.2140   -1.5948   -0.2266 C   0  0  1  0  0  0  0  0  0  0  0  0
    2.7764   -0.9000   -2.7016 C   0  0  0  0  0  0  0  0  0  0  0  0
    4.7415   -1.7752   -0.1480 C   0  0  0  0  0  0  0  0  0  0  0  0
    3.6715   -0.0705   -2.7759 O   0  0  0  0  0  0  0  0  0  0  0  0
    1.8400   -1.0059   -3.6572 O   0  0  0  0  0  0  0  0  0  0  0  0
    5.2498   -2.5131    0.6648 O   0  0  0  0  0  0  0  0  0  0  0  0
    5.4944   -1.0424   -0.9874 O   0  0  0  0  0  0  0  0  0  0  0  0
   -2.5580    0.3977    0.8136 H   0  0  0  0  0  0  0  0  0  0  0  0
   -1.2978    1.7019   -0.8895 H   0  0  0  0  0  0  0  0  0  0  0  0
   -1.3374   -1.1694    2.3125 H   0  0  0  0  0  0  0  0  0  0  0  0
    1.1540    1.4349   -1.0937 H   0  0  0  0  0  0  0  0  0  0  0  0
    1.1109   -1.4305    2.1093 H   0  0  0  0  0  0  0  0  0  0  0  0
    3.2830   -0.1095    1.3284 H   0  0  0  0  0  0  0  0  0  0  0  0
    3.2182    0.5890   -0.2839 H   0  0  0  0  0  0  0  0  0  0  0  0
    1.5071   -2.0664   -1.4803 H   0  0  0  0  0  0  0  0  0  0  0  0
    2.9790   -2.8717   -1.9797 H   0  0  0  0  0  0  0  0  0  0  0  0
    2.8317   -2.3581    0.4567 H   0  0  0  0  0  0  0  0  0  0  0  0
    2.0589   -0.3468   -4.3442 H   0  0  0  0  0  0  0  0  0  0  0  0
    4.9292   -0.5330   -1.6134 H   0  0  0  0  0  0  0  0  0  0  0  0
  1 16  1  0
  1  3  2  0
  2  1  1  0
  3 18  1  0
  4  2  2  0
  4  8  1  0
  5  3  1  0
  5 20  1  0
  6  8  1  0
  6 21  1  0
  7 23  1  0
  7  9  1  0
  8  5  2  0
  9 11  1  0
  9  6  1  0
  9 25  1  1
 10  7  1  0
 11 14  2  0
 12 10  2  0
 13 10  1  0
 15 11  1  0
 17  2  1  0
 19  4  1  0
 22  6  1  0
 24  7  1  0
 26 13  1  0
 27 15  1  0
M  END
>  <HBA>  (670) 
4

>  <HBD>  (670) 
2

>  <TPSA>  (670) 
74.6

>  <cid>  (670) 
3858

>  <dipole>  (670) 
5.93

>  <excitation_energy_1>  (670) 
5.118

>  <excitation_energy_2>  (670) 
5.347

>  <excitation_energy_3>  (670) 
5.454

>  <excitation_energy_4>  (670) 
5.493

>  <homo_energy>  (670) 
-6.754

>  <homo_lumo_gap>  (670) 
5.94

>  <logP>  (670) 
1.405

>  <lumo_energy>  (670) 
-0.814

>  <melting_point>  (670) 
158.81

>  <molecular_refractivity>  (670) 
54.18

>  <oscillator_strength_1>  (670) 
0.0051

>  <oscillator_strength_2>  (670) 
0.0007

>  <oscillator_strength_3>  (670) 
0.0002

>  <oscillator_strength_4>  (670) 
0.0276

>  <open_babel_can_smiles>  (670) 
OC(=O)[C@@H](Cc1ccccc1)CC(=O)O

>  <mulliken_charges>  (670) 
27
1   -0.13
2   -0.125119
3   -0.127978
4   -0.19624
5   -0.18454
6   -0.377323
7   -0.386882
8   0.168677
9   -0.194625
10   0.608966
11   0.580688
12   -0.494061
13   -0.545155
14   -0.454216
15   -0.597922
16   0.133459
17   0.132473
18   0.135259
19   0.128575
20   0.13565
21   0.174977
22   0.162509
23   0.204603
24   0.205995
25   0.174056
26   0.420739
27   0.447435

>  <lowdin_charges>  (670) 
27
1   -0.155694
2   -0.154134
3   -0.152449
4   -0.174665
5   -0.168048
6   -0.279826
7   -0.307524
8   -0.008652
9   -0.161138
10   0.213306
11   0.18243
12   -0.284868
13   -0.328528
14   -0.256735
15   -0.366767
16   0.157811
17   0.160372
18   0.161464
19   0.156859
20   0.160247
21   0.167548
22   0.158722
23   0.186607
24   0.188836
25   0.17392
26   0.369988
27   0.360918

$$$$
PCCDB-ID:  3861
     RDKit          3D

 23 22  0  0  1  0  0  0  0  0999 V2000
    1.0199    0.2339   -0.1627 C   0  0  0  0  0  0  0  0  0  0  0  0
    3.0657    0.0903   -1.6394 C   0  0  0  0  0  0  0  0  0  0  0  0
    3.2280    1.0856    0.7100 C   0  0  0  0  0  0  0  0  0  0  0  0
    5.2908    2.0855    1.7497 C   0  0  0  0  0  0  0  0  0  0  0  0
    2.5434    0.0428   -0.1963 C   0  0  0  0  0  0  0  0  0  0  0  0
    4.7524    0.9353    0.8684 C   0  0  1  0  0  0  0  0  0  0  0  0
    5.0775   -0.4086    1.3460 N   0  0  0  0  0  0  0  0  0  0  0  0
    7.1191    2.0793    1.9978 S   0  0  0  0  0  0  0  0  0  0  0  0
    0.5128   -0.5330   -0.7601 H   0  0  0  0  0  0  0  0  0  0  0  0
    0.7341    1.2133   -0.5699 H   0  0  0  0  0  0  0  0  0  0  0  0
    0.6282    0.1735    0.8602 H   0  0  0  0  0  0  0  0  0  0  0  0
    2.5309   -0.6305   -2.2691 H   0  0  0  0  0  0  0  0  0  0  0  0
    4.1312   -0.1558   -1.6928 H   0  0  0  0  0  0  0  0  0  0  0  0
    2.9216    1.0858   -2.0813 H   0  0  0  0  0  0  0  0  0  0  0  0
    2.7706    1.0366    1.7110 H   0  0  0  0  0  0  0  0  0  0  0  0
    3.0109    2.0943    0.3280 H   0  0  0  0  0  0  0  0  0  0  0  0
    4.8791    2.0089    2.7631 H   0  0  0  0  0  0  0  0  0  0  0  0
    4.9934    3.0614    1.3510 H   0  0  0  0  0  0  0  0  0  0  0  0
    2.7787   -0.9487    0.2104 H   0  0  0  0  0  0  0  0  0  0  0  0
    5.2191    1.0383   -0.1208 H   0  0  0  0  0  0  0  0  0  0  0  0
    4.6614   -0.5504    2.2677 H   0  0  0  0  0  0  0  0  0  0  0  0
    6.0864   -0.4820    1.4777 H   0  0  0  0  0  0  0  0  0  0  0  0
    7.4540    2.3481    0.7162 H   0  0  0  0  0  0  0  0  0  0  0  0
  1 11  1  0
  2  5  1  0
  3  6  1  0
  3 15  1  0
  4  8  1  0
  4 17  1  0
  5  1  1  0
  5 19  1  0
  5  3  1  0
  6 20  1  6
  6  7  1  0
  6  4  1  0
  7 22  1  0
  7 21  1  0
  9  1  1  0
 10  1  1  0
 12  2  1  0
 13  2  1  0
 14  2  1  0
 16  3  1  0
 18  4  1  0
 23  8  1  0
M  END
>  <HBA>  (671) 
2

>  <HBD>  (671) 
2

>  <TPSA>  (671) 
64.82

>  <cid>  (671) 
3861

>  <dipole>  (671) 
1.08

>  <excitation_energy_1>  (671) 
5.337

>  <excitation_energy_2>  (671) 
5.748

>  <excitation_energy_3>  (671) 
5.916

>  <excitation_energy_4>  (671) 
6.129

>  <homo_energy>  (671) 
-6.392

>  <homo_lumo_gap>  (671) 
7.08

>  <logP>  (671) 
1.99

>  <lumo_energy>  (671) 
0.688

>  <melting_point>  (671) 
47.95

>  <molecular_refractivity>  (671) 
41.59

>  <oscillator_strength_1>  (671) 
0.004

>  <oscillator_strength_2>  (671) 
0.0353

>  <oscillator_strength_3>  (671) 
0.0375

>  <oscillator_strength_4>  (671) 
0.0177

>  <open_babel_can_smiles>  (671) 
SC[C@H](CC(C)C)N

>  <mulliken_charges>  (671) 
23
1   -0.44415
2   -0.450726
3   -0.257743
4   -0.419698
5   -0.05522
6   0.030053
7   -0.709895
8   -0.101246
9   0.141044
10   0.135206
11   0.136346
12   0.140179
13   0.154026
14   0.130688
15   0.119208
16   0.125319
17   0.168469
18   0.173133
19   0.147894
20   0.134597
21   0.287106
22   0.317963
23   0.097444

>  <lowdin_charges>  (671) 
23
1   -0.444901
2   -0.445808
3   -0.277991
4   -0.388715
5   -0.119703
6   -0.074401
7   -0.543411
8   -0.092675
9   0.149703
10   0.142802
11   0.144511
12   0.150428
13   0.151523
14   0.140487
15   0.136026
16   0.139599
17   0.161821
18   0.160577
19   0.149004
20   0.139315
21   0.248962
22   0.261007
23   0.11184

$$$$
PCCDB-ID:  3862
     RDKit          3D

 24 24  0  0  1  0  0  0  0  0999 V2000
    0.0554    1.1895   -1.3826 C   0  0  0  0  0  0  0  0  0  0  0  0
   -0.3786   -0.1002   -1.3311 C   0  0  0  0  0  0  0  0  0  0  0  0
   -1.7303   -1.9082   -0.3426 C   0  0  0  0  0  0  0  0  0  0  0  0
   -1.5344    0.3175    0.7043 C   0  0  0  0  0  0  0  0  0  0  0  0
   -3.1426   -1.9761   -0.9685 C   0  0  1  0  0  0  0  0  0  0  0  0
   -0.2904    2.1785   -0.3700 C   0  0  0  0  0  0  0  0  0  0  0  0
   -1.1328    1.6197    0.7111 C   0  0  0  0  0  0  0  0  0  0  0  0
   -4.1858   -1.3999    0.0250 C   0  0  0  0  0  0  0  0  0  0  0  0
   -3.1309   -1.4340   -2.3145 N   0  0  0  0  0  0  0  0  0  0  0  0
   -1.1707   -0.5588   -0.3112 N   0  0  0  0  0  0  0  0  0  0  0  0
    0.0727    3.3553   -0.3894 O   0  0  0  0  0  0  0  0  0  0  0  0
   -1.4611    2.4968    1.6951 O   0  0  0  0  0  0  0  0  0  0  0  0
   -4.2068   -1.7161    1.1918 O   0  0  0  0  0  0  0  0  0  0  0  0
   -5.0857   -0.5429   -0.4920 O   0  0  0  0  0  0  0  0  0  0  0  0
    0.6927    1.5127   -2.1982 H   0  0  0  0  0  0  0  0  0  0  0  0
   -0.1258   -0.8355   -2.0874 H   0  0  0  0  0  0  0  0  0  0  0  0
   -1.0591   -2.5356   -0.9325 H   0  0  0  0  0  0  0  0  0  0  0  0
   -1.7764   -2.3007    0.6755 H   0  0  0  0  0  0  0  0  0  0  0  0
   -2.1554   -0.1088    1.4855 H   0  0  0  0  0  0  0  0  0  0  0  0
   -3.3880   -3.0435   -1.0425 H   0  0  0  0  0  0  0  0  0  0  0  0
   -2.8975   -0.4497   -2.3895 H   0  0  0  0  0  0  0  0  0  0  0  0
   -3.9083   -1.6968   -2.9079 H   0  0  0  0  0  0  0  0  0  0  0  0
   -2.0176    2.0507    2.3540 H   0  0  0  0  0  0  0  0  0  0  0  0
   -4.8590   -0.4081   -1.4318 H   0  0  0  0  0  0  0  0  0  0  0  0
  1  2  2  0
  1  6  1  0
  2 10  1  0
  3 10  1  0
  3 18  1  0
  4  7  2  0
  4 19  1  0
  5 20  1  6
  5  3  1  0
  5  8  1  0
  6  7  1  0
  7 12  1  0
  8 13  2  0
  9  5  1  0
 10  4  1  0
 11  6  2  0
 12 23  1  0
 14  8  1  0
 15  1  1  0
 16  2  1  0
 17  3  1  0
 21  9  1  0
 22  9  1  0
 24 14  1  0
M  END
>  <HBA>  (672) 
6

>  <HBD>  (672) 
3

>  <TPSA>  (672) 
105.55

>  <cid>  (672) 
3862

>  <dipole>  (672) 
7.6

>  <excitation_energy_1>  (672) 
3.996

>  <excitation_energy_2>  (672) 
4.157

>  <excitation_energy_3>  (672) 
4.418

>  <excitation_energy_4>  (672) 
4.683

>  <homo_energy>  (672) 
-5.543

>  <homo_lumo_gap>  (672) 
4.882

>  <logP>  (672) 
-0.334

>  <lumo_energy>  (672) 
-0.661

>  <melting_point>  (672) 
211.98

>  <molecular_refractivity>  (672) 
48.08

>  <oscillator_strength_1>  (672) 
0.0

>  <oscillator_strength_2>  (672) 
0.0144

>  <oscillator_strength_3>  (672) 
0.0279

>  <oscillator_strength_4>  (672) 
0.1164

>  <open_babel_can_smiles>  (672) 
OC(=O)[C@H](Cn1ccc(=O)c(c1)O)N

>  <mulliken_charges>  (672) 
24
1   -0.2567
2   0.058914
3   -0.163875
4   -0.039449
5   -0.070657
6   0.436469
7   0.246981
8   0.591444
9   -0.758325
10   -0.423725
11   -0.527904
12   -0.6096
13   -0.459491
14   -0.552331
15   0.147412
16   0.167697
17   0.177807
18   0.198186
19   0.17872
20   0.190717
21   0.337025
22   0.328095
23   0.407572
24   0.395017

>  <lowdin_charges>  (672) 
24
1   -0.233093
2   -0.108524
3   -0.190916
4   -0.187634
5   -0.113056
6   0.104962
7   0.055301
8   0.167439
9   -0.553813
10   -0.017355
11   -0.296947
12   -0.347559
13   -0.255032
14   -0.334643
15   0.176565
16   0.172217
17   0.170537
18   0.176298
19   0.177138
20   0.17782
21   0.275518
22   0.27604
23   0.360963
24   0.347775

$$$$
PCCDB-ID:  3864
     RDKit          3D

 31 30  0  0  1  0  0  0  0  0999 V2000
    4.6175   -5.2923   -5.0761 C   0  0  0  0  0  0  0  0  0  0  0  0
    3.8038   -3.2717   -1.3484 C   0  0  0  0  0  0  0  0  0  0  0  0
    2.4716   -2.8585   -1.9971 C   0  0  0  0  0  0  0  0  0  0  0  0
    3.6982   -4.5183   -0.4513 C   0  0  0  0  0  0  0  0  0  0  0  0
    1.8589   -3.8525   -3.0249 C   0  0  2  0  0  0  0  0  0  0  0  0
    2.8175   -4.0295   -4.1978 C   0  0  0  0  0  0  0  0  0  0  0  0
    5.8898   -5.6126   -0.6725 C   0  0  0  0  0  0  0  0  0  0  0  0
    0.5763   -3.4228   -3.5817 N   0  0  0  0  0  0  0  0  0  0  0  0
    5.7962   -6.1284   -1.8405 N   0  0  0  0  0  0  0  0  0  0  0  0
    4.9703   -4.9636    0.1001 N   0  0  0  0  0  0  0  0  0  0  0  0
    7.1544   -5.8787   -0.0457 N   0  0  0  0  0  0  0  0  0  0  0  0
    7.8487   -5.0272    0.7937 N   0  0  0  0  0  0  0  0  0  0  0  0
    2.8701   -3.2788   -5.1473 O   0  0  0  0  0  0  0  0  0  0  0  0
    7.2135   -4.2063    1.4615 O   0  0  0  0  0  0  0  0  0  0  0  0
    9.0590   -5.2084    0.8400 O   0  0  0  0  0  0  0  0  0  0  0  0
    3.6366   -5.0914   -4.0340 O   0  0  0  0  0  0  0  0  0  0  0  0
    5.2776   -6.0760   -4.7067 H   0  0  0  0  0  0  0  0  0  0  0  0
    5.1735   -4.3702   -5.2570 H   0  0  0  0  0  0  0  0  0  0  0  0
    4.1198   -5.6003   -5.9989 H   0  0  0  0  0  0  0  0  0  0  0  0
    4.1763   -2.4375   -0.7403 H   0  0  0  0  0  0  0  0  0  0  0  0
    4.5610   -3.4523   -2.1196 H   0  0  0  0  0  0  0  0  0  0  0  0
    2.6022   -1.8956   -2.5070 H   0  0  0  0  0  0  0  0  0  0  0  0
    1.7168   -2.6978   -1.2135 H   0  0  0  0  0  0  0  0  0  0  0  0
    3.2553   -5.3577   -0.9977 H   0  0  0  0  0  0  0  0  0  0  0  0
    3.0326   -4.3177    0.3956 H   0  0  0  0  0  0  0  0  0  0  0  0
    1.7171   -4.8294   -2.5510 H   0  0  0  0  0  0  0  0  0  0  0  0
    0.7424   -2.6447   -4.2189 H   0  0  0  0  0  0  0  0  0  0  0  0
   -0.0291   -3.0837   -2.8364 H   0  0  0  0  0  0  0  0  0  0  0  0
    4.8712   -5.9967   -2.2472 H   0  0  0  0  0  0  0  0  0  0  0  0
    5.3460   -4.4785    0.9066 H   0  0  0  0  0  0  0  0  0  0  0  0
    7.7992   -6.3616   -0.6629 H   0  0  0  0  0  0  0  0  0  0  0  0
  1 17  1  0
  1 16  1  0
  2 20  1  0
  2  4  1  0
  3  2  1  0
  3 23  1  0
  4 10  1  0
  4 25  1  0
  5 26  1  1
  5  3  1  0
  6 16  1  0
  6  5  1  0
  7 11  1  0
  7 10  1  0
  8  5  1  0
  8 28  1  0
  9  7  2  0
 10 30  1  0
 11 12  1  0
 12 15  1  0
 12 14  2  0
 13  6  2  0
 18  1  1  0
 19  1  1  0
 21  2  1  0
 22  3  1  0
 24  4  1  0
 27  8  1  0
 29  9  1  0
 31 11  1  0
M  CHG  2  12   1  15  -1
M  END
>  <HBA>  (673) 
6

>  <HBD>  (673) 
3

>  <TPSA>  (673) 
148.55

>  <cid>  (673) 
3864

>  <dipole>  (673) 
2.56

>  <excitation_energy_1>  (673) 
3.911

>  <excitation_energy_2>  (673) 
4.297

>  <excitation_energy_3>  (673) 
4.53

>  <excitation_energy_4>  (673) 
5.033

>  <homo_energy>  (673) 
-6.637

>  <homo_lumo_gap>  (673) 
4.762

>  <logP>  (673) 
0.678

>  <lumo_energy>  (673) 
-1.875

>  <melting_point>  (673) 
169.51

>  <molecular_refractivity>  (673) 
57.05

>  <oscillator_strength_1>  (673) 
0.0092

>  <oscillator_strength_2>  (673) 
0.0002

>  <oscillator_strength_3>  (673) 
0.0009

>  <oscillator_strength_4>  (673) 
0.031

>  <open_babel_can_smiles>  (673) 
COC(=O)[C@@H](CCCNC(=N)NN(=O)=O)N

>  <mulliken_charges>  (673) 
31
1   -0.233083
2   -0.270846
3   -0.286899
4   -0.158928
5   -0.052322
6   0.641112
7   0.647075
8   -0.715363
9   -0.687042
10   -0.603265
11   -0.443201
12   0.627143
13   -0.480107
14   -0.427678
15   -0.389924
16   -0.46311
17   0.187944
18   0.177517
19   0.17589
20   0.147142
21   0.160084
22   0.154471
23   0.135378
24   0.165863
25   0.157573
26   0.15744
27   0.316617
28   0.297707
29   0.321641
30   0.367316
31   0.373853

>  <lowdin_charges>  (673) 
31
1   -0.282224
2   -0.29568
3   -0.290697
4   -0.202263
5   -0.092513
6   0.199254
7   0.132593
8   -0.54299
9   -0.469625
10   -0.292477
11   -0.209306
12   0.343099
13   -0.25825
14   -0.275752
15   -0.244104
16   -0.193086
17   0.172879
18   0.1646
19   0.163025
20   0.153161
21   0.154607
22   0.155374
23   0.144484
24   0.153837
25   0.157312
26   0.152988
27   0.266401
28   0.257274
29   0.264757
30   0.297929
31   0.315396

$$$$
PCCDB-ID:  3866
     RDKit          3D

 20 20  0  0  1  0  0  0  0  0999 V2000
   -1.6571   -0.1189   -0.1207 C   0  0  0  0  0  0  0  0  0  0  0  0
   -1.0089    1.1148   -0.0446 C   0  0  0  0  0  0  0  0  0  0  0  0
   -0.9061   -1.2956   -0.1584 C   0  0  0  0  0  0  0  0  0  0  0  0
    0.3851    1.1712   -0.0083 C   0  0  0  0  0  0  0  0  0  0  0  0
    0.4871   -1.2373   -0.1206 C   0  0  0  0  0  0  0  0  0  0  0  0
    1.1495   -0.0017   -0.0465 C   0  0  0  0  0  0  0  0  0  0  0  0
    2.6697    0.0631   -0.0522 C   0  0  1  0  0  0  0  0  0  0  0  0
    3.3133   -0.9031    0.9748 C   0  0  0  0  0  0  0  0  0  0  0  0
    3.2032   -0.1075   -1.4012 N   0  0  0  0  0  0  0  0  0  0  0  0
    4.3166   -1.5329    0.7447 O   0  0  0  0  0  0  0  0  0  0  0  0
    2.7320   -0.9492    2.1981 O   0  0  0  0  0  0  0  0  0  0  0  0
   -2.7422   -0.1644   -0.1479 H   0  0  0  0  0  0  0  0  0  0  0  0
   -1.5871    2.0342   -0.0159 H   0  0  0  0  0  0  0  0  0  0  0  0
   -1.4042   -2.2597   -0.2133 H   0  0  0  0  0  0  0  0  0  0  0  0
    0.8880    2.1340    0.0392 H   0  0  0  0  0  0  0  0  0  0  0  0
    1.0639   -2.1599   -0.1423 H   0  0  0  0  0  0  0  0  0  0  0  0
    2.9638    1.0663    0.2939 H   0  0  0  0  0  0  0  0  0  0  0  0
    2.7973   -0.9480   -1.8121 H   0  0  0  0  0  0  0  0  0  0  0  0
    4.2015   -0.3040   -1.3163 H   0  0  0  0  0  0  0  0  0  0  0  0
    1.8930   -0.4550    2.1723 H   0  0  0  0  0  0  0  0  0  0  0  0
  1  2  2  0
  2 13  1  0
  2  4  1  0
  3  1  1  0
  3  5  2  0
  4 15  1  0
  5  6  1  0
  6  4  2  0
  7  6  1  0
  7 17  1  1
  7  8  1  0
  8 11  1  0
  9 19  1  0
  9  7  1  0
 10  8  2  0
 12  1  1  0
 14  3  1  0
 16  5  1  0
 18  9  1  0
 20 11  1  0
M  END
>  <HBA>  (674) 
3

>  <HBD>  (674) 
2

>  <TPSA>  (674) 
63.32

>  <cid>  (674) 
3866

>  <dipole>  (674) 
3.91

>  <excitation_energy_1>  (674) 
5.185

>  <excitation_energy_2>  (674) 
5.32

>  <excitation_energy_3>  (674) 
5.428

>  <excitation_energy_4>  (674) 
5.474

>  <homo_energy>  (674) 
-6.705

>  <homo_lumo_gap>  (674) 
6.027

>  <logP>  (674) 
1.471

>  <lumo_energy>  (674) 
-0.678

>  <melting_point>  (674) 
137.89

>  <molecular_refractivity>  (674) 
40.69

>  <oscillator_strength_1>  (674) 
0.0014

>  <oscillator_strength_2>  (674) 
0.0007

>  <oscillator_strength_3>  (674) 
0.003

>  <oscillator_strength_4>  (674) 
0.0047

>  <open_babel_can_smiles>  (674) 
N[C@@H](c1ccccc1)C(=O)O

>  <mulliken_charges>  (674) 
20
1   -0.126129
2   -0.126957
3   -0.129012
4   -0.178281
5   -0.180186
6   0.107458
7   -0.154578
8   0.575947
9   -0.689844
10   -0.452506
11   -0.561313
12   0.139974
13   0.140483
14   0.142008
15   0.141443
16   0.147838
17   0.168751
18   0.302064
19   0.318077
20   0.414763

>  <lowdin_charges>  (674) 
20
1   -0.146356
2   -0.151577
3   -0.150177
4   -0.157868
5   -0.168613
6   -0.028419
7   -0.10677
8   0.168011
9   -0.529719
10   -0.242506
11   -0.350612
12   0.160801
13   0.163492
14   0.163586
15   0.163054
16   0.164214
17   0.163716
18   0.258833
19   0.265386
20   0.361524

$$$$
PCCDB-ID:  3868
     RDKit          3D

 20 20  0  0  1  0  0  0  0  0999 V2000
   -0.7898   -0.7827   -0.3816 C   0  0  0  0  0  0  0  0  0  0  0  0
    1.0052    0.8227   -0.3754 C   0  0  0  0  0  0  0  0  0  0  0  0
    0.7554   -0.6891   -0.3038 C   0  0  2  0  0  0  0  0  0  0  0  0
   -1.2323    0.4283    0.4564 C   0  0  1  0  0  0  0  0  0  0  0  0
    1.4544   -1.4664   -1.4119 C   0  0  0  0  0  0  0  0  0  0  0  0
   -1.4498    0.0308    1.9372 C   0  0  0  0  0  0  0  0  0  0  0  0
   -0.1369    1.4251    0.3587 N   0  0  0  0  0  0  0  0  0  0  0  0
    1.9832   -0.9638   -2.3718 O   0  0  0  0  0  0  0  0  0  0  0  0
    1.4211   -2.8180   -1.2800 O   0  0  0  0  0  0  0  0  0  0  0  0
   -2.1888   -0.8692    2.2644 O   0  0  0  0  0  0  0  0  0  0  0  0
   -0.7448    0.7719    2.7985 O   0  0  0  0  0  0  0  0  0  0  0  0
   -1.2083   -1.7122    0.0117 H   0  0  0  0  0  0  0  0  0  0  0  0
   -1.1138   -0.6683   -1.4220 H   0  0  0  0  0  0  0  0  0  0  0  0
    1.0325    1.1310   -1.4266 H   0  0  0  0  0  0  0  0  0  0  0  0
    1.9559    1.1092    0.0842 H   0  0  0  0  0  0  0  0  0  0  0  0
    1.0875   -1.0769    0.6700 H   0  0  0  0  0  0  0  0  0  0  0  0
   -2.1836    0.8374    0.0994 H   0  0  0  0  0  0  0  0  0  0  0  0
   -0.4471    2.2827   -0.0875 H   0  0  0  0  0  0  0  0  0  0  0  0
    0.9693   -3.0682   -0.4566 H   0  0  0  0  0  0  0  0  0  0  0  0
   -0.2132    1.3769    2.2126 H   0  0  0  0  0  0  0  0  0  0  0  0
  1  3  1  0
  1 12  1  0
  1  4  1  0
  2  3  1  0
  2 15  1  0
  2  7  1  0
  3 16  1  1
  4 17  1  6
  4  6  1  0
  5  9  1  0
  5  3  1  0
  6 10  2  0
  6 11  1  0
  7  4  1  0
  8  5  2  0
  9 19  1  0
 13  1  1  0
 14  2  1  0
 18  7  1  0
 20 11  1  0
M  END
>  <HBA>  (675) 
5

>  <HBD>  (675) 
3

>  <TPSA>  (675) 
86.63

>  <cid>  (675) 
3868

>  <dipole>  (675) 
2.36

>  <excitation_energy_1>  (675) 
5.318

>  <excitation_energy_2>  (675) 
5.633

>  <excitation_energy_3>  (675) 
5.864

>  <excitation_energy_4>  (675) 
5.952

>  <homo_energy>  (675) 
-6.934

>  <homo_lumo_gap>  (675) 
6.659

>  <logP>  (675) 
-0.537

>  <lumo_energy>  (675) 
-0.275

>  <melting_point>  (675) 
177.51

>  <molecular_refractivity>  (675) 
39.1

>  <oscillator_strength_1>  (675) 
0.001

>  <oscillator_strength_2>  (675) 
0.0005

>  <oscillator_strength_3>  (675) 
0.0009

>  <oscillator_strength_4>  (675) 
0.0005

>  <open_babel_can_smiles>  (675) 
OC(=O)[C@H]1NC[C@@H](C1)C(=O)O

>  <mulliken_charges>  (675) 
20
1   -0.293903
2   -0.116655
3   -0.264881
4   -0.073776
5   0.621371
6   0.598141
7   -0.639901
8   -0.439878
9   -0.565752
10   -0.467439
11   -0.575335
12   0.183629
13   0.167689
14   0.17682
15   0.167268
16   0.168923
17   0.179083
18   0.327008
19   0.417005
20   0.430584

>  <lowdin_charges>  (675) 
20
1   -0.27761
2   -0.199344
3   -0.180834
4   -0.107763
5   0.199167
6   0.164274
7   -0.370889
8   -0.234676
9   -0.349884
10   -0.262184
11   -0.352137
12   0.170728
13   0.159142
14   0.157169
15   0.158038
16   0.160695
17   0.171266
18   0.27367
19   0.362782
20   0.358389

$$$$
PCCDB-ID:  3893
     RDKit          3D

 38 37  0  0  0  0  0  0  0  0999 V2000
    2.9159    2.3344   -3.3886 C   0  0  0  0  0  0  0  0  0  0  0  0
    3.6494    1.7988   -2.1543 C   0  0  0  0  0  0  0  0  0  0  0  0
    3.2348    2.5105   -0.8585 C   0  0  0  0  0  0  0  0  0  0  0  0
    3.8831    1.9593    0.4233 C   0  0  0  0  0  0  0  0  0  0  0  0
    5.3993    2.1878    0.5213 C   0  0  0  0  0  0  0  0  0  0  0  0
    6.0492    1.6289    1.7992 C   0  0  0  0  0  0  0  0  0  0  0  0
    5.6287    2.3290    3.0995 C   0  0  0  0  0  0  0  0  0  0  0  0
    6.3609    1.7928    4.3369 C   0  0  0  0  0  0  0  0  0  0  0  0
    5.9487    2.4916    5.6387 C   0  0  0  0  0  0  0  0  0  0  0  0
    6.6815    1.9448    6.8707 C   0  0  0  0  0  0  0  0  0  0  0  0
    6.2695    2.6215    8.1826 C   0  0  0  0  0  0  0  0  0  0  0  0
    6.7728    4.0563    8.3137 C   0  0  0  0  0  0  0  0  0  0  0  0
    7.5739    4.5788    7.5805 O   0  0  0  0  0  0  0  0  0  0  0  0
    6.2711    4.7524    9.3735 O   0  0  0  0  0  0  0  0  0  0  0  0
    3.2285    1.8114   -4.2997 H   0  0  0  0  0  0  0  0  0  0  0  0
    3.1141    3.4036   -3.5342 H   0  0  0  0  0  0  0  0  0  0  0  0
    1.8301    2.2116   -3.2893 H   0  0  0  0  0  0  0  0  0  0  0  0
    4.7317    1.8981   -2.3088 H   0  0  0  0  0  0  0  0  0  0  0  0
    3.4533    0.7216   -2.0508 H   0  0  0  0  0  0  0  0  0  0  0  0
    2.1420    2.4403   -0.7576 H   0  0  0  0  0  0  0  0  0  0  0  0
    3.4606    3.5841   -0.9460 H   0  0  0  0  0  0  0  0  0  0  0  0
    3.6748    0.8810    0.4991 H   0  0  0  0  0  0  0  0  0  0  0  0
    3.3890    2.4245    1.2863 H   0  0  0  0  0  0  0  0  0  0  0  0
    5.6067    3.2664    0.4520 H   0  0  0  0  0  0  0  0  0  0  0  0
    5.8932    1.7281   -0.3446 H   0  0  0  0  0  0  0  0  0  0  0  0
    7.1413    1.7048    1.6992 H   0  0  0  0  0  0  0  0  0  0  0  0
    5.8273    0.5537    1.8769 H   0  0  0  0  0  0  0  0  0  0  0  0
    4.5459    2.2216    3.2519 H   0  0  0  0  0  0  0  0  0  0  0  0
    5.8188    3.4086    3.0058 H   0  0  0  0  0  0  0  0  0  0  0  0
    7.4456    1.9059    4.1944 H   0  0  0  0  0  0  0  0  0  0  0  0
    6.1765    0.7116    4.4280 H   0  0  0  0  0  0  0  0  0  0  0  0
    4.8628    2.3798    5.7819 H   0  0  0  0  0  0  0  0  0  0  0  0
    6.1464    3.5671    5.5530 H   0  0  0  0  0  0  0  0  0  0  0  0
    7.7627    2.0693    6.7391 H   0  0  0  0  0  0  0  0  0  0  0  0
    6.4918    0.8673    6.9627 H   0  0  0  0  0  0  0  0  0  0  0  0
    6.6646    2.0617    9.0435 H   0  0  0  0  0  0  0  0  0  0  0  0
    5.1748    2.6147    8.2921 H   0  0  0  0  0  0  0  0  0  0  0  0
    5.6406    4.1994    9.8640 H   0  0  0  0  0  0  0  0  0  0  0  0
  1 17  1  0
  1  2  1  0
  2 19  1  0
  2  3  1  0
  3 20  1  0
  3  4  1  0
  4 22  1  0
  4  5  1  0
  4 23  1  0
  5  6  1  0
  6 27  1  0
  6  7  1  0
  7 28  1  0
  7  8  1  0
  8 31  1  0
  8  9  1  0
  9 32  1  0
  9 10  1  0
 10 35  1  0
 10 11  1  0
 11 37  1  0
 11 12  1  0
 11 36  1  0
 12 14  1  0
 13 12  2  0
 14 38  1  0
 15  1  1  0
 16  1  1  0
 18  2  1  0
 21  3  1  0
 24  5  1  0
 25  5  1  0
 26  6  1  0
 29  7  1  0
 30  8  1  0
 33  9  1  0
 34 10  1  0
M  END
>  <HBA>  (676) 
2

>  <HBD>  (676) 
1

>  <TPSA>  (676) 
37.3

>  <cid>  (676) 
3893

>  <dipole>  (676) 
3.95

>  <excitation_energy_1>  (676) 
5.719

>  <excitation_energy_2>  (676) 
6.396

>  <excitation_energy_3>  (676) 
7.266

>  <excitation_energy_4>  (676) 
7.355

>  <homo_energy>  (676) 
-7.374

>  <homo_lumo_gap>  (676) 
7.663

>  <logP>  (676) 
3.992

>  <lumo_energy>  (676) 
0.288

>  <melting_point>  (676) 
46.61

>  <molecular_refractivity>  (676) 
61.57

>  <oscillator_strength_1>  (676) 
0.0005

>  <oscillator_strength_2>  (676) 
0.0142

>  <oscillator_strength_3>  (676) 
0.0149

>  <oscillator_strength_4>  (676) 
0.0008

>  <open_babel_can_smiles>  (676) 
CCCCCCCCCCCC(=O)O

>  <mulliken_charges>  (676) 
38
1   -0.441299
2   -0.248155
3   -0.247373
4   -0.256556
5   -0.256332
6   -0.255076
7   -0.255254
8   -0.254579
9   -0.261358
10   -0.247688
11   -0.405535
12   0.609189
13   -0.438391
14   -0.567037
15   0.140682
16   0.14143
17   0.140295
18   0.135785
19   0.128136
20   0.125007
21   0.126183
22   0.123652
23   0.131571
24   0.126421
25   0.131947
26   0.127945
27   0.124586
28   0.130333
29   0.131205
30   0.134251
31   0.123835
32   0.119278
33   0.158651
34   0.16057
35   0.130207
36   0.17181
37   0.153673
38   0.407991

>  <lowdin_charges>  (676) 
38
1   -0.440901
2   -0.270907
3   -0.271334
4   -0.27684
5   -0.276525
6   -0.270904
7   -0.272583
8   -0.268786
9   -0.274775
10   -0.266875
11   -0.322935
12   0.196904
13   -0.238744
14   -0.361539
15   0.148876
16   0.144672
17   0.143547
18   0.138157
19   0.135817
20   0.136963
21   0.135515
22   0.134154
23   0.141864
24   0.135616
25   0.142257
26   0.138464
27   0.134635
28   0.135858
29   0.137747
30   0.139049
31   0.133579
32   0.131078
33   0.151139
34   0.15559
35   0.141858
36   0.168385
37   0.153325
38   0.358597

$$$$
PCCDB-ID:  3913
     RDKit          3D

 26 28  0  0  1  0  0  0  0  0999 V2000
   -1.5316    0.4791    0.3467 C   0  0  0  0  0  0  0  0  0  0  0  0
   -1.1080    0.0689   -0.9189 C   0  0  0  0  0  0  0  0  0  0  0  0
   -0.5840    0.7913    1.3234 C   0  0  0  0  0  0  0  0  0  0  0  0
    0.2537   -0.0200   -1.2113 C   0  0  0  0  0  0  0  0  0  0  0  0
    0.7770    0.6950    1.0312 C   0  0  0  0  0  0  0  0  0  0  0  0
    4.8417    2.0861   -2.9638 C   0  0  0  0  0  0  0  0  0  0  0  0
    5.6729    1.1387   -3.8429 C   0  0  0  0  0  0  0  0  0  0  0  0
    3.2668    1.6567   -0.9745 C   0  0  0  0  0  0  0  0  0  0  0  0
    1.2099    0.2967   -0.2399 C   0  0  0  0  0  0  0  0  0  0  0  0
    2.6909    0.2613   -0.5564 C   0  0  1  0  0  0  0  0  0  0  0  0
    3.9375   -0.0145   -2.3376 C   0  0  0  0  0  3  0  0  0  0  0  0
    3.0435   -0.6425   -1.6782 N   0  0  0  0  0  2  0  0  0  0  0  0
    4.3400    1.2485   -1.8856 N   0  0  0  0  0  0  0  0  0  0  0  0
    4.7610   -0.4748   -3.8367 S   0  0  0  0  0  0  0  0  0  0  0  0
   -2.5924    0.5466    0.5736 H   0  0  0  0  0  0  0  0  0  0  0  0
   -1.8400   -0.1874   -1.6806 H   0  0  0  0  0  0  0  0  0  0  0  0
   -0.9035    1.1010    2.3152 H   0  0  0  0  0  0  0  0  0  0  0  0
    0.5900   -0.3561   -2.1871 H   0  0  0  0  0  0  0  0  0  0  0  0
    1.5111    0.9266    1.8009 H   0  0  0  0  0  0  0  0  0  0  0  0
    4.0163    2.5325   -3.5453 H   0  0  0  0  0  0  0  0  0  0  0  0
    5.4637    2.8978   -2.5715 H   0  0  0  0  0  0  0  0  0  0  0  0
    6.6706    0.9842   -3.4242 H   0  0  0  0  0  0  0  0  0  0  0  0
    5.7637    1.4982   -4.8696 H   0  0  0  0  0  0  0  0  0  0  0  0
    3.6443    2.2384   -0.1290 H   0  0  0  0  0  0  0  0  0  0  0  0
    2.5053    2.2519   -1.5052 H   0  0  0  0  0  0  0  0  0  0  0  0
    3.2318   -0.0857    0.3370 H   0  0  0  0  0  0  0  0  0  0  0  0
  1 15  1  0
  1  3  2  0
  2  1  1  0
  3 17  1  0
  4  2  2  0
  4  9  1  0
  5  3  1  0
  5 19  1  0
  6 21  1  0
  7 14  1  0
  7 22  1  0
  7  6  1  0
  8 10  1  0
  8 24  1  0
  9  5  2  0
 10  9  1  0
 10 26  1  1
 11 14  1  0
 11 13  1  0
 11 12  1  0
 12 10  1  0
 13  6  1  0
 13  8  1  0
 16  2  1  0
 18  4  1  0
 20  6  1  0
 23  7  1  0
 25  8  1  0
M  RAD  2  11   2  12   2
M  END
>  <HBA>  (677) 
3

>  <HBD>  (677) 
0

>  <TPSA>  (677) 
40.9

>  <cid>  (677) 
3913

>  <dipole>  (677) 
4.11

>  <excitation_energy_1>  (677) 
5.006

>  <excitation_energy_2>  (677) 
5.214

>  <excitation_energy_3>  (677) 
5.22

>  <excitation_energy_4>  (677) 
5.383

>  <homo_energy>  (677) 
-5.987

>  <homo_lumo_gap>  (677) 
6.09

>  <logP>  (677) 
1.52

>  <lumo_energy>  (677) 
0.103

>  <melting_point>  (677) 
79.12

>  <molecular_refractivity>  (677) 
67.82

>  <oscillator_strength_1>  (677) 
0.0017

>  <oscillator_strength_2>  (677) 
0.0057

>  <oscillator_strength_3>  (677) 
0.0017

>  <oscillator_strength_4>  (677) 
0.0064

>  <open_babel_can_smiles>  (677) 
C1S[C]2N(C1)C[C@H]([N]2)c1ccccc1

>  <mulliken_charges>  (677) 
26
1   -0.128
2   -0.133307
3   -0.131345
4   -0.172528
5   -0.18193
6   -0.123175
7   -0.441729
8   -0.137985
9   0.155962
10   -0.079872
11   0.297655
12   -0.472571
13   -0.415798
14   0.168069
15   0.12627
16   0.128395
17   0.12657
18   0.148628
19   0.118788
20   0.149758
21   0.163741
22   0.196714
23   0.186657
24   0.155018
25   0.144284
26   0.151732

>  <lowdin_charges>  (677) 
26
1   -0.158566
2   -0.156288
3   -0.156116
4   -0.157751
5   -0.170799
6   -0.197529
7   -0.367636
8   -0.208291
9   -0.008711
10   -0.056015
11   -0.030193
12   -0.238396
13   -0.150461
14   0.181227
15   0.1546
16   0.157926
17   0.155549
18   0.167877
19   0.153195
20   0.13976
21   0.158439
22   0.168363
23   0.172614
24   0.155119
25   0.14079
26   0.151291

$$$$
PCCDB-ID:  3966
     RDKit          3D

 43 46  0  0  1  0  0  0  0  0999 V2000
   -3.9862    0.2598    0.1156 C   0  0  0  0  0  0  0  0  0  0  0  0
    4.3002   -0.5099    0.3740 C   0  0  0  0  0  0  0  0  0  0  0  0
   -3.8444    1.7561    0.4144 C   0  0  0  0  0  0  0  0  0  0  0  0
    3.5728   -1.8159    0.7312 C   0  0  0  0  0  0  0  0  0  0  0  0
   -2.8332   -0.2032   -0.7809 C   0  0  0  0  0  0  0  0  0  0  0  0
    3.3857    0.4294   -0.4315 C   0  0  0  0  0  0  0  0  0  0  0  0
   -2.4516    2.0595    0.9701 C   0  0  0  0  0  0  0  0  0  0  0  0
    2.2240   -1.5084    1.4101 C   0  0  0  0  0  0  0  0  0  0  0  0
    0.4699    0.9463   -1.6471 C   0  0  0  0  0  0  0  0  0  0  0  0
    0.6755   -1.2503   -0.4813 C   0  0  0  0  0  0  0  0  0  0  0  0
   -0.0824    2.0403    0.5472 C   0  0  0  0  0  0  0  0  0  0  0  0
   -0.3093   -0.2800   -1.1538 C   0  0  1  0  0  0  0  0  0  0  0  0
    1.0743    1.6117   -0.4032 C   0  0  1  0  0  0  0  0  0  0  0  0
   -1.4594    0.1560   -0.1915 C   0  0  1  0  0  0  0  0  0  0  0  0
    2.0493    0.6506    0.3121 C   0  0  1  0  0  0  0  0  0  0  0  0
   -1.3970    1.6070    0.0647 N   0  0  0  0  0  0  0  0  0  0  0  0
    1.3612   -0.6106    0.6412 N   0  0  0  0  0  0  0  0  0  0  0  0
   -4.9535    0.0451   -0.3560 H   0  0  0  0  0  0  0  0  0  0  0  0
   -3.9625   -0.3034    1.0602 H   0  0  0  0  0  0  0  0  0  0  0  0
    5.2228   -0.7195   -0.1820 H   0  0  0  0  0  0  0  0  0  0  0  0
    4.6039   -0.0038    1.3030 H   0  0  0  0  0  0  0  0  0  0  0  0
   -4.6061    2.0877    1.1316 H   0  0  0  0  0  0  0  0  0  0  0  0
   -3.9913    2.3326   -0.5084 H   0  0  0  0  0  0  0  0  0  0  0  0
    4.1907   -2.4332    1.3966 H   0  0  0  0  0  0  0  0  0  0  0  0
    3.4048   -2.4076   -0.1792 H   0  0  0  0  0  0  0  0  0  0  0  0
   -2.9222    0.2697   -1.7692 H   0  0  0  0  0  0  0  0  0  0  0  0
   -2.8766   -1.2892   -0.9387 H   0  0  0  0  0  0  0  0  0  0  0  0
    3.2049   -0.0011   -1.4250 H   0  0  0  0  0  0  0  0  0  0  0  0
    3.8809    1.3962   -0.5943 H   0  0  0  0  0  0  0  0  0  0  0  0
   -2.3473    1.5919    1.9729 H   0  0  0  0  0  0  0  0  0  0  0  0
   -2.3317    3.1408    1.1148 H   0  0  0  0  0  0  0  0  0  0  0  0
    2.4183   -1.0314    2.3826 H   0  0  0  0  0  0  0  0  0  0  0  0
    1.6694   -2.4329    1.6127 H   0  0  0  0  0  0  0  0  0  0  0  0
   -0.1928    1.6449   -2.1659 H   0  0  0  0  0  0  0  0  0  0  0  0
    1.2511    0.6429   -2.3549 H   0  0  0  0  0  0  0  0  0  0  0  0
    1.3618   -1.6415   -1.2575 H   0  0  0  0  0  0  0  0  0  0  0  0
    0.1311   -2.1168   -0.0813 H   0  0  0  0  0  0  0  0  0  0  0  0
   -0.1164    3.1344    0.6228 H   0  0  0  0  0  0  0  0  0  0  0  0
    0.1140    1.6542    1.5657 H   0  0  0  0  0  0  0  0  0  0  0  0
   -0.7493   -0.8058   -2.0114 H   0  0  0  0  0  0  0  0  0  0  0  0
    1.6469    2.5011   -0.6947 H   0  0  0  0  0  0  0  0  0  0  0  0
   -1.3414   -0.3936    0.7643 H   0  0  0  0  0  0  0  0  0  0  0  0
    2.3042    1.1111    1.2811 H   0  0  0  0  0  0  0  0  0  0  0  0
  1  3  1  0
  1 19  1  0
  2  4  1  0
  2 21  1  0
  3  7  1  0
  3 22  1  0
  4 24  1  0
  4  8  1  0
  5 14  1  0
  5  1  1  0
  6 15  1  0
  6  2  1  0
  7 31  1  0
  7 30  1  0
  8 33  1  0
  8 32  1  0
  9 12  1  0
  9 13  1  0
 10 37  1  0
 11 38  1  0
 11 39  1  0
 12 40  1  6
 12 10  1  0
 12 14  1  0
 13 41  1  6
 13 15  1  0
 13 11  1  0
 14 16  1  0
 14 42  1  1
 15 17  1  0
 15 43  1  1
 16 11  1  0
 16  7  1  0
 17 10  1  0
 17  8  1  0
 18  1  1  0
 20  2  1  0
 23  3  1  0
 25  4  1  0
 26  5  1  0
 27  5  1  0
 28  6  1  0
 29  6  1  0
 34  9  1  0
 35  9  1  0
 36 10  1  0
M  END
>  <HBA>  (678) 
2

>  <HBD>  (678) 
0

>  <TPSA>  (678) 
6.48

>  <cid>  (678) 
3966

>  <dipole>  (678) 
0.77

>  <excitation_energy_1>  (678) 
4.756

>  <excitation_energy_2>  (678) 
5.007

>  <excitation_energy_3>  (678) 
5.043

>  <excitation_energy_4>  (678) 
5.153

>  <homo_energy>  (678) 
-5.252

>  <homo_lumo_gap>  (678) 
7.358

>  <logP>  (678) 
2.221

>  <lumo_energy>  (678) 
2.106

>  <melting_point>  (678) 
63.05

>  <molecular_refractivity>  (678) 
79.39

>  <oscillator_strength_1>  (678) 
0.013

>  <oscillator_strength_2>  (678) 
0.0003

>  <oscillator_strength_3>  (678) 
0.0159

>  <oscillator_strength_4>  (678) 
0.0171

>  <open_babel_can_smiles>  (678) 
C1CC[C@@H]2N(C1)C[C@@H]1C[C@H]2CN2[C@H]1CCCC2

>  <mulliken_charges>  (678) 
43
1   -0.266697
2   -0.263644
3   -0.259442
4   -0.265478
5   -0.274527
6   -0.269038
7   -0.110232
8   -0.133534
9   -0.263569
10   -0.12837
11   -0.106623
12   -0.134222
13   -0.120047
14   0.088929
15   0.029522
16   -0.428702
17   -0.392136
18   0.130251
19   0.127718
20   0.131241
21   0.126644
22   0.127394
23   0.136831
24   0.128771
25   0.133966
26   0.133747
27   0.125884
28   0.133834
29   0.127104
30   0.104017
31   0.130391
32   0.13147
33   0.132023
34   0.150232
35   0.125428
36   0.109267
37   0.131717
38   0.126703
39   0.122185
40   0.122448
41   0.120294
42   0.110299
43   0.117953

>  <lowdin_charges>  (678) 
43
1   -0.279427
2   -0.277891
3   -0.282207
4   -0.2967
5   -0.279529
6   -0.295333
7   -0.195101
8   -0.203512
9   -0.282136
10   -0.204635
11   -0.197591
12   -0.137943
13   -0.138816
14   -0.062198
15   -0.067058
16   -0.193363
17   -0.191741
18   0.142958
19   0.137609
20   0.143358
21   0.136715
22   0.144729
23   0.143617
24   0.146062
25   0.14006
26   0.140658
27   0.139738
28   0.139536
29   0.143331
30   0.111211
31   0.140177
32   0.137595
33   0.143395
34   0.155009
35   0.140861
36   0.116469
37   0.141003
38   0.137182
39   0.123359
40   0.144413
41   0.143067
42   0.119848
43   0.133219

$$$$
PCCDB-ID:  4025
     RDKit          3D

 33 33  0  0  1  0  0  0  0  0999 V2000
    0.3416    1.2488   -1.7781 C   0  0  0  0  0  0  0  0  0  0  0  0
    1.4011    0.7071   -0.8056 C   0  0  0  0  0  0  0  0  0  0  0  0
   -0.9783    1.5653   -1.0588 C   0  0  0  0  0  0  0  0  0  0  0  0
    1.8701   -1.0888    0.9860 C   0  0  0  0  0  0  0  0  0  0  0  0
   -2.7434    0.6951    0.5628 C   0  0  0  0  0  0  0  0  0  0  0  0
    2.0684   -0.3428    2.3162 C   0  0  0  0  0  0  0  0  0  0  0  0
   -3.3972   -0.5133    1.2367 C   0  0  0  0  0  0  0  0  0  0  0  0
    0.8417   -0.4747    0.0122 C   0  0  1  0  0  0  0  0  0  0  0  0
   -1.4613    0.3699   -0.2142 C   0  0  2  0  0  0  0  0  0  0  0  0
    1.1051   -0.8266    3.3141 N   0  0  0  0  0  0  0  0  0  0  0  0
   -4.6393   -0.1069    1.9118 N   0  0  0  0  0  0  0  0  0  0  0  0
   -0.4127   -0.1153    0.7077 N   0  0  0  0  0  0  0  0  0  0  0  0
    0.1537    0.4929   -2.5549 H   0  0  0  0  0  0  0  0  0  0  0  0
    0.7158    2.1397   -2.2981 H   0  0  0  0  0  0  0  0  0  0  0  0
    1.7213    1.5059   -0.1191 H   0  0  0  0  0  0  0  0  0  0  0  0
    2.2961    0.3916   -1.3587 H   0  0  0  0  0  0  0  0  0  0  0  0
   -1.7500    1.8512   -1.7861 H   0  0  0  0  0  0  0  0  0  0  0  0
   -0.8397    2.4313   -0.3926 H   0  0  0  0  0  0  0  0  0  0  0  0
    1.5696   -2.1131    1.2365 H   0  0  0  0  0  0  0  0  0  0  0  0
    2.8287   -1.1589    0.4563 H   0  0  0  0  0  0  0  0  0  0  0  0
   -2.5155    1.4607    1.3232 H   0  0  0  0  0  0  0  0  0  0  0  0
   -3.4745    1.1514   -0.1158 H   0  0  0  0  0  0  0  0  0  0  0  0
    2.0296    0.7502    2.1393 H   0  0  0  0  0  0  0  0  0  0  0  0
    3.0762   -0.5466    2.6993 H   0  0  0  0  0  0  0  0  0  0  0  0
   -2.6622   -1.0046    1.8938 H   0  0  0  0  0  0  0  0  0  0  0  0
   -3.6669   -1.2468    0.4653 H   0  0  0  0  0  0  0  0  0  0  0  0
    0.5693   -1.2643   -0.7041 H   0  0  0  0  0  0  0  0  0  0  0  0
   -1.6758   -0.4668   -0.8977 H   0  0  0  0  0  0  0  0  0  0  0  0
    0.1694   -0.8097    2.9115 H   0  0  0  0  0  0  0  0  0  0  0  0
    1.0998   -0.2180    4.1308 H   0  0  0  0  0  0  0  0  0  0  0  0
   -4.4113    0.4934    2.7047 H   0  0  0  0  0  0  0  0  0  0  0  0
   -5.0914   -0.9279    2.3123 H   0  0  0  0  0  0  0  0  0  0  0  0
   -0.2038    0.6534    1.3494 H   0  0  0  0  0  0  0  0  0  0  0  0
  1  3  1  0
  1  2  1  0
  2 15  1  0
  2  8  1  0
  3 18  1  0
  3  9  1  0
  4 19  1  0
  4  6  1  0
  5  7  1  0
  5 21  1  0
  6 24  1  0
  6 10  1  0
  7 25  1  0
  7 11  1  0
  8 27  1  6
  8 12  1  0
  8  4  1  0
  9 28  1  6
  9  5  1  0
  9 12  1  0
 10 30  1  0
 11 32  1  0
 11 31  1  0
 12 33  1  0
 13  1  1  0
 14  1  1  0
 16  2  1  0
 17  3  1  0
 20  4  1  0
 22  5  1  0
 23  6  1  0
 26  7  1  0
 29 10  1  0
M  END
>  <HBA>  (679) 
3

>  <HBD>  (679) 
3

>  <TPSA>  (679) 
64.07

>  <cid>  (679) 
4025

>  <dipole>  (679) 
1.5

>  <excitation_energy_1>  (679) 
5.163

>  <excitation_energy_2>  (679) 
5.41

>  <excitation_energy_3>  (679) 
5.449

>  <excitation_energy_4>  (679) 
5.515

>  <homo_energy>  (679) 
-5.78

>  <homo_lumo_gap>  (679) 
7.695

>  <logP>  (679) 
1.924

>  <lumo_energy>  (679) 
1.916

>  <melting_point>  (679) 
129.7

>  <molecular_refractivity>  (679) 
55.39

>  <oscillator_strength_1>  (679) 
0.0095

>  <oscillator_strength_2>  (679) 
0.0123

>  <oscillator_strength_3>  (679) 
0.0046

>  <oscillator_strength_4>  (679) 
0.0056

>  <open_babel_can_smiles>  (679) 
NCC[C@@H]1CCC[C@@H](N1)CCN

>  <mulliken_charges>  (679) 
33
1   -0.267157
2   -0.266521
3   -0.261556
4   -0.269898
5   -0.255166
6   -0.138285
7   -0.138335
8   0.032025
9   0.032146
10   -0.734392
11   -0.719145
12   -0.563115
13   0.129982
14   0.133734
15   0.12484
16   0.129662
17   0.132506
18   0.120316
19   0.157197
20   0.130244
21   0.111889
22   0.148584
23   0.104014
24   0.13991
25   0.135161
26   0.13446
27   0.126586
28   0.125781
29   0.312824
30   0.28652
31   0.287865
32   0.294541
33   0.282782

>  <lowdin_charges>  (679) 
33
1   -0.280432
2   -0.297201
3   -0.293415
4   -0.285117
5   -0.283026
6   -0.203547
7   -0.209609
8   -0.071058
9   -0.068392
10   -0.570734
11   -0.562216
12   -0.35997
13   0.139523
14   0.145507
15   0.136314
16   0.144523
17   0.146977
18   0.135425
19   0.156292
20   0.146377
21   0.132369
22   0.1543
23   0.107128
24   0.142352
25   0.12871
26   0.140757
27   0.13978
28   0.136948
29   0.254446
30   0.24993
31   0.249067
32   0.254409
33   0.243583

$$$$
PCCDB-ID:  4032
     RDKit          3D

 33 34  0  0  1  0  0  0  0  0999 V2000
    0.8977    0.3211   -0.0974 C   0  0  0  0  0  0  0  0  0  0  0  0
    2.8409    0.7305   -1.5426 C   0  0  0  0  0  0  0  0  0  0  0  0
    3.8128   -1.9300   -0.9798 C   0  0  0  0  0  0  0  0  0  0  0  0
    1.1081   -2.5782    1.5199 C   0  0  0  0  0  0  0  0  0  0  0  0
    4.6173    1.0494    0.9039 C   0  0  0  0  0  0  0  0  0  0  0  0
    5.0666   -0.4085    1.2395 C   0  0  0  0  0  0  0  0  0  0  0  0
    2.9367   -0.0229    2.1961 C   0  0  0  0  0  0  0  0  0  0  0  0
    3.0753    0.9733    1.0262 C   0  0  2  0  0  0  0  0  0  0  0  0
    3.7251   -1.1438    1.4815 C   0  0  1  0  0  0  0  0  0  0  0  0
    2.4336    0.1795   -0.1615 C   0  0  0  0  0  0  0  0  0  0  0  0
    2.9378   -1.3401    0.1454 C   0  0  1  0  0  0  0  0  0  0  0  0
    1.8872   -2.3696    0.3102 N   0  0  0  0  0  0  0  0  0  0  0  0
    0.6144    1.3571   -0.3205 H   0  0  0  0  0  0  0  0  0  0  0  0
    0.4774    0.0739    0.8795 H   0  0  0  0  0  0  0  0  0  0  0  0
    0.4025   -0.3130   -0.8425 H   0  0  0  0  0  0  0  0  0  0  0  0
    2.5226    1.7768   -1.6351 H   0  0  0  0  0  0  0  0  0  0  0  0
    2.3499    0.1716   -2.3485 H   0  0  0  0  0  0  0  0  0  0  0  0
    3.9148    0.7002   -1.7364 H   0  0  0  0  0  0  0  0  0  0  0  0
    4.6196   -1.2719   -1.3090 H   0  0  0  0  0  0  0  0  0  0  0  0
    3.1986   -2.1548   -1.8605 H   0  0  0  0  0  0  0  0  0  0  0  0
    4.2490   -2.8740   -0.6387 H   0  0  0  0  0  0  0  0  0  0  0  0
    0.5112   -3.4870    1.3782 H   0  0  0  0  0  0  0  0  0  0  0  0
    0.4103   -1.7720    1.8079 H   0  0  0  0  0  0  0  0  0  0  0  0
    1.7681   -2.7626    2.3721 H   0  0  0  0  0  0  0  0  0  0  0  0
    4.9621    1.3890   -0.0762 H   0  0  0  0  0  0  0  0  0  0  0  0
    5.0120    1.7607    1.6386 H   0  0  0  0  0  0  0  0  0  0  0  0
    5.6581   -0.4310    2.1620 H   0  0  0  0  0  0  0  0  0  0  0  0
    5.6829   -0.8627    0.4604 H   0  0  0  0  0  0  0  0  0  0  0  0
    1.9054   -0.2760    2.4465 H   0  0  0  0  0  0  0  0  0  0  0  0
    3.4340    0.3224    3.1107 H   0  0  0  0  0  0  0  0  0  0  0  0
    2.6056    1.9530    1.1719 H   0  0  0  0  0  0  0  0  0  0  0  0
    3.8525   -2.0848    2.0248 H   0  0  0  0  0  0  0  0  0  0  0  0
    1.2832   -2.3771   -0.5054 H   0  0  0  0  0  0  0  0  0  0  0  0
  1 14  1  0
  2 10  1  0
  3 21  1  0
  4 23  1  0
  4 24  1  0
  5  8  1  0
  5  6  1  0
  5 26  1  0
  6  9  1  0
  6 27  1  0
  7 29  1  0
  7 30  1  0
  8 31  1  1
  8  7  1  0
  9 32  1  1
  9  7  1  0
 10  1  1  0
 10 11  1  0
 10  8  1  0
 11  3  1  0
 11 12  1  1
 11  9  1  0
 12  4  1  0
 13  1  1  0
 15  1  1  0
 16  2  1  0
 17  2  1  0
 18  2  1  0
 19  3  1  0
 20  3  1  0
 22  4  1  0
 25  5  1  0
 28  6  1  0
 33 12  1  0
M  END
>  <HBA>  (680) 
1

>  <HBD>  (680) 
1

>  <TPSA>  (680) 
12.03

>  <cid>  (680) 
4032

>  <dipole>  (680) 
0.61

>  <excitation_energy_1>  (680) 
4.928

>  <excitation_energy_2>  (680) 
5.239

>  <excitation_energy_3>  (680) 
5.4

>  <excitation_energy_4>  (680) 
5.533

>  <homo_energy>  (680) 
-5.415

>  <homo_lumo_gap>  (680) 
7.344

>  <logP>  (680) 
2.812

>  <lumo_energy>  (680) 
1.929

>  <melting_point>  (680) 
72.16

>  <molecular_refractivity>  (680) 
53.34

>  <oscillator_strength_1>  (680) 
0.0005

>  <oscillator_strength_2>  (680) 
0.0086

>  <oscillator_strength_3>  (680) 
0.0122

>  <oscillator_strength_4>  (680) 
0.0394

>  <open_babel_can_smiles>  (680) 
CN[C@]1(C)[C@H]2CC[C@@H](C1(C)C)C2

>  <mulliken_charges>  (680) 
33
1   -0.4588
2   -0.461956
3   -0.446803
4   -0.29774
5   -0.279441
6   -0.281863
7   -0.289561
8   -0.099692
9   -0.119247
10   0.094559
11   0.229778
12   -0.579778
13   0.137536
14   0.14708
15   0.127173
16   0.136731
17   0.13537
18   0.144966
19   0.136101
20   0.128581
21   0.151135
22   0.143598
23   0.120762
24   0.155116
25   0.135131
26   0.132662
27   0.133502
28   0.139488
29   0.138831
30   0.128187
31   0.106855
32   0.121145
33   0.290591

>  <lowdin_charges>  (680) 
33
1   -0.444223
2   -0.444404
3   -0.446479
4   -0.362422
5   -0.29026
6   -0.287676
7   -0.288524
8   -0.132664
9   -0.135782
10   -0.008303
11   0.063629
12   -0.362107
13   0.145922
14   0.14878
15   0.14231
16   0.145965
17   0.146858
18   0.145774
19   0.144674
20   0.144656
21   0.155184
22   0.148911
23   0.118254
24   0.150414
25   0.143621
26   0.145131
27   0.144548
28   0.147948
29   0.145524
30   0.142409
31   0.135991
32   0.143185
33   0.253157

$$$$
PCCDB-ID:  4040
     RDKit          3D

 17 16  0  0  1  0  0  0  0  0999 V2000
    4.7376   -0.6955   -0.7125 C   0  0  0  0  0  0  0  0  0  0  0  0
    2.8943   -2.5071    2.7821 C   0  0  0  0  0  0  0  0  0  0  0  0
    2.2905   -2.5744    1.3515 C   0  0  2  0  0  0  0  0  0  0  0  0
    2.8936   -1.4124    0.5664 C   0  0  0  0  0  0  0  0  0  0  0  0
    0.8447   -2.4757    1.2471 N   0  0  0  0  0  0  0  0  0  0  0  0
    2.4106   -0.3015    0.5180 O   0  0  0  0  0  0  0  0  0  0  0  0
    4.0635   -1.7539   -0.0070 O   0  0  0  0  0  0  0  0  0  0  0  0
    2.3168   -3.8396    3.9129 S   0  0  0  0  0  0  0  0  0  0  0  0
    4.1143   -0.3277   -1.5313 H   0  0  0  0  0  0  0  0  0  0  0  0
    5.6554   -1.1401   -1.0974 H   0  0  0  0  0  0  0  0  0  0  0  0
    4.9634    0.1331   -0.0362 H   0  0  0  0  0  0  0  0  0  0  0  0
    2.6888   -1.5338    3.2387 H   0  0  0  0  0  0  0  0  0  0  0  0
    3.9811   -2.6300    2.7333 H   0  0  0  0  0  0  0  0  0  0  0  0
    2.6146   -3.5143    0.8937 H   0  0  0  0  0  0  0  0  0  0  0  0
    0.5418   -1.5447    1.5275 H   0  0  0  0  0  0  0  0  0  0  0  0
    0.4008   -3.1642    1.8503 H   0  0  0  0  0  0  0  0  0  0  0  0
    1.1161   -3.2981    4.2109 H   0  0  0  0  0  0  0  0  0  0  0  0
  1 11  1  0
  1  7  1  0
  2 12  1  0
  2  8  1  0
  3 14  1  6
  3  2  1  0
  4  3  1  0
  5  3  1  0
  5 15  1  0
  5 16  1  0
  6  4  2  0
  7  4  1  0
  8 17  1  0
  9  1  1  0
 10  1  1  0
 13  2  1  0
M  END
>  <HBA>  (681) 
4

>  <HBD>  (681) 
2

>  <TPSA>  (681) 
91.12

>  <cid>  (681) 
4040

>  <dipole>  (681) 
1.37

>  <excitation_energy_1>  (681) 
5.192

>  <excitation_energy_2>  (681) 
5.338

>  <excitation_energy_3>  (681) 
5.653

>  <excitation_energy_4>  (681) 
5.811

>  <homo_energy>  (681) 
-6.487

>  <homo_lumo_gap>  (681) 
6.319

>  <logP>  (681) 
0.117

>  <lumo_energy>  (681) 
-0.169

>  <melting_point>  (681) 
61.71

>  <molecular_refractivity>  (681) 
33.26

>  <oscillator_strength_1>  (681) 
0.0127

>  <oscillator_strength_2>  (681) 
0.0064

>  <oscillator_strength_3>  (681) 
0.0011

>  <oscillator_strength_4>  (681) 
0.003

>  <open_babel_can_smiles>  (681) 
COC(=O)[C@@H](CS)N

>  <mulliken_charges>  (681) 
17
1   -0.222982
2   -0.446971
3   -0.030198
4   0.629174
5   -0.712001
6   -0.48052
7   -0.449211
8   -0.06829
9   0.177634
10   0.168892
11   0.171629
12   0.188035
13   0.191855
14   0.172947
15   0.312285
16   0.303715
17   0.094009

>  <lowdin_charges>  (681) 
17
1   -0.280545
2   -0.389968
3   -0.092743
4   0.196706
5   -0.542157
6   -0.26264
7   -0.185481
8   -0.07533
9   0.164437
10   0.163396
11   0.161101
12   0.166793
13   0.173567
14   0.165215
15   0.264249
16   0.261623
17   0.111778

$$$$
PCCDB-ID:  4049
     RDKit          3D

 30 29  0  0  1  0  0  0  0  0999 V2000
    2.8321    1.4952    3.5938 C   0  0  0  0  0  0  0  0  0  0  0  0
    4.3500    1.6660    1.6676 C   0  0  0  0  0  0  0  0  0  0  0  0
    6.1425   -1.9494   -0.7526 C   0  0  0  0  0  0  0  0  0  0  0  0
    4.3595    1.3675    0.1634 C   0  0  1  0  0  0  0  0  0  0  0  0
    6.5300   -1.0707    0.4474 C   0  0  2  0  0  0  0  0  0  0  0  0
    5.7410    1.3058   -0.4918 C   0  0  1  0  0  0  0  0  0  0  0  0
    6.8170    0.4204    0.1689 C   0  0  2  0  0  0  0  0  0  0  0  0
    2.9669    1.5453    2.1378 N   0  0  0  0  0  0  0  0  0  0  0  0
    6.1652   -3.3121   -0.3698 O   0  0  0  0  0  0  0  0  0  0  0  0
    3.7062    0.1288   -0.0817 O   0  0  0  0  0  0  0  0  0  0  0  0
    7.7248   -1.6205    1.0252 O   0  0  0  0  0  0  0  0  0  0  0  0
    5.6043    0.9503   -1.8717 O   0  0  0  0  0  0  0  0  0  0  0  0
    8.0025    0.5139   -0.6323 O   0  0  0  0  0  0  0  0  0  0  0  0
    1.7711    1.4412    3.8564 H   0  0  0  0  0  0  0  0  0  0  0  0
    3.2761    2.3608    4.1143 H   0  0  0  0  0  0  0  0  0  0  0  0
    3.3186    0.5891    3.9702 H   0  0  0  0  0  0  0  0  0  0  0  0
    4.8068    2.6501    1.8741 H   0  0  0  0  0  0  0  0  0  0  0  0
    4.9403    0.9124    2.2006 H   0  0  0  0  0  0  0  0  0  0  0  0
    6.8355   -1.7612   -1.5908 H   0  0  0  0  0  0  0  0  0  0  0  0
    5.1256   -1.7267   -1.0837 H   0  0  0  0  0  0  0  0  0  0  0  0
    3.8106    2.1767   -0.3522 H   0  0  0  0  0  0  0  0  0  0  0  0
    5.7521   -1.1728    1.2098 H   0  0  0  0  0  0  0  0  0  0  0  0
    6.1598    2.3197   -0.4966 H   0  0  0  0  0  0  0  0  0  0  0  0
    7.0873    0.8646    1.1349 H   0  0  0  0  0  0  0  0  0  0  0  0
    2.4241    2.3301    1.7783 H   0  0  0  0  0  0  0  0  0  0  0  0
    6.9574   -3.3902    0.1927 H   0  0  0  0  0  0  0  0  0  0  0  0
    2.9825    0.0991    0.5773 H   0  0  0  0  0  0  0  0  0  0  0  0
    8.4477   -1.2496    0.4838 H   0  0  0  0  0  0  0  0  0  0  0  0
    4.9118    0.2679   -1.9107 H   0  0  0  0  0  0  0  0  0  0  0  0
    7.6862    0.4716   -1.5538 H   0  0  0  0  0  0  0  0  0  0  0  0
  1 14  1  0
  1 16  1  0
  1 15  1  0
  2 17  1  0
  2  8  1  0
  2 18  1  0
  3  9  1  0
  3  5  1  0
  4 21  1  6
  4  2  1  0
  5 11  1  0
  5 22  1  1
  6 23  1  6
  6  4  1  0
  6  7  1  0
  7  5  1  0
  7 24  1  1
  8  1  1  0
  9 26  1  0
 10  4  1  0
 10 27  1  0
 12  6  1  0
 13  7  1  0
 19  3  1  0
 20  3  1  0
 25  8  1  0
 28 11  1  0
 29 12  1  0
 30 13  1  0
M  END
>  <HBA>  (682) 
6

>  <HBD>  (682) 
6

>  <TPSA>  (682) 
113.18

>  <cid>  (682) 
4049

>  <dipole>  (682) 
5.34

>  <excitation_energy_1>  (682) 
5.817

>  <excitation_energy_2>  (682) 
6.148

>  <excitation_energy_3>  (682) 
6.334

>  <excitation_energy_4>  (682) 
6.499

>  <homo_energy>  (682) 
-6.569

>  <homo_lumo_gap>  (682) 
8.055

>  <logP>  (682) 
-2.967

>  <lumo_energy>  (682) 
1.486

>  <melting_point>  (682) 
93.04

>  <molecular_refractivity>  (682) 
44.37

>  <oscillator_strength_1>  (682) 
0.0014

>  <oscillator_strength_2>  (682) 
0.0009

>  <oscillator_strength_3>  (682) 
0.0029

>  <oscillator_strength_4>  (682) 
0.0196

>  <open_babel_can_smiles>  (682) 
CNC[C@@H]([C@@H]([C@@H]([C@@H](CO)O)O)O)O

>  <mulliken_charges>  (682) 
30
1   -0.303957
2   -0.159967
3   -0.035384
4   0.115207
5   0.101605
6   0.100257
7   0.086351
8   -0.576284
9   -0.635235
10   -0.658822
11   -0.652342
12   -0.656774
13   -0.657324
14   0.160071
15   0.135558
16   0.16652
17   0.131797
18   0.16429
19   0.100966
20   0.144285
21   0.123719
22   0.143953
23   0.147231
24   0.14174
25   0.307103
26   0.399476
27   0.417062
28   0.406984
29   0.426891
30   0.415019

>  <lowdin_charges>  (682) 
30
1   -0.358673
2   -0.226178
3   -0.160342
4   -0.023426
5   -0.039526
6   -0.025775
7   -0.037176
8   -0.362467
9   -0.473877
10   -0.476474
11   -0.471668
12   -0.463627
13   -0.466368
14   0.155599
15   0.132253
16   0.156957
17   0.133203
18   0.155508
19   0.118002
20   0.147684
21   0.132575
22   0.149587
23   0.153501
24   0.149425
25   0.259179
26   0.341219
27   0.349948
28   0.347174
29   0.355455
30   0.34831

$$$$
PCCDB-ID:  4055
     RDKit          3D

 21 22  0  0  0  0  0  0  0  0999 V2000
    1.0387   -0.0292    0.0849 C   0  0  0  0  0  0  0  0  0  0  0  0
    7.5927   -0.9815    0.0497 C   0  0  0  0  0  0  0  0  0  0  0  0
    6.9438   -2.2213    0.0662 C   0  0  0  0  0  0  0  0  0  0  0  0
    6.8495    0.1976    0.0411 C   0  0  0  0  0  0  0  0  0  0  0  0
    5.5516   -2.2833    0.0747 C   0  0  0  0  0  0  0  0  0  0  0  0
    3.1841    1.2802    0.0559 C   0  0  0  0  0  0  0  0  0  0  0  0
    2.5332    0.0986    0.0716 C   0  0  0  0  0  0  0  0  0  0  0  0
    5.4531    0.1420    0.0507 C   0  0  0  0  0  0  0  0  0  0  0  0
    4.7995   -1.1040    0.0676 C   0  0  0  0  0  0  0  0  0  0  0  0
    4.6581    1.4037    0.0409 C   0  0  0  0  0  0  0  0  0  0  0  0
    3.3106   -1.1824    0.0789 C   0  0  0  0  0  0  0  0  0  0  0  0
    5.1920    2.5081    0.0209 O   0  0  0  0  0  0  0  0  0  0  0  0
    2.7226   -2.2584    0.0939 O   0  0  0  0  0  0  0  0  0  0  0  0
    0.5566    0.9519    0.0828 H   0  0  0  0  0  0  0  0  0  0  0  0
    0.7083   -0.5895    0.9669 H   0  0  0  0  0  0  0  0  0  0  0  0
    0.6935   -0.6000   -0.7846 H   0  0  0  0  0  0  0  0  0  0  0  0
    8.6782   -0.9371    0.0425 H   0  0  0  0  0  0  0  0  0  0  0  0
    7.5258   -3.1387    0.0716 H   0  0  0  0  0  0  0  0  0  0  0  0
    7.3286    1.1713    0.0286 H   0  0  0  0  0  0  0  0  0  0  0  0
    5.0269   -3.2330    0.0876 H   0  0  0  0  0  0  0  0  0  0  0  0
    2.6459    2.2251    0.0506 H   0  0  0  0  0  0  0  0  0  0  0  0
  1 15  1  0
  2  3  2  0
  3 18  1  0
  3  5  1  0
  4  2  1  0
  4  8  2  0
  5 20  1  0
  6  7  2  0
  7 11  1  0
  7  1  1  0
  8  9  1  0
  9  5  2  0
  9 11  1  0
 10  8  1  0
 10  6  1  0
 11 13  2  0
 12 10  2  0
 14  1  1  0
 16  1  1  0
 17  2  1  0
 19  4  1  0
 21  6  1  0
M  END
>  <HBA>  (683) 
2

>  <HBD>  (683) 
0

>  <TPSA>  (683) 
34.14

>  <cid>  (683) 
4055

>  <dipole>  (683) 
1.07

>  <excitation_energy_1>  (683) 
2.74

>  <excitation_energy_2>  (683) 
3.01

>  <excitation_energy_3>  (683) 
3.484

>  <excitation_energy_4>  (683) 
3.631

>  <homo_energy>  (683) 
-7.048

>  <homo_lumo_gap>  (683) 
4.016

>  <logP>  (683) 
2.012

>  <lumo_energy>  (683) 
-3.031

>  <melting_point>  (683) 
109.23

>  <molecular_refractivity>  (683) 
49.05

>  <oscillator_strength_1>  (683) 
0.0

>  <oscillator_strength_2>  (683) 
0.0

>  <oscillator_strength_3>  (683) 
0.0017

>  <oscillator_strength_4>  (683) 
0.0578

>  <open_babel_can_smiles>  (683) 
O=C1C=C(C)C(=O)c2c1cccc2

>  <mulliken_charges>  (683) 
21
1   -0.512552
2   -0.123529
3   -0.125315
4   -0.173141
5   -0.172357
6   -0.247489
7   0.137087
8   0.04027
9   0.049262
10   0.406742
11   0.351256
12   -0.475233
13   -0.465852
14   0.159515
15   0.183148
16   0.183047
17   0.146538
18   0.146307
19   0.168775
20   0.168175
21   0.155347

>  <lowdin_charges>  (683) 
21
1   -0.436175
2   -0.135465
3   -0.140567
4   -0.127581
5   -0.127391
6   -0.172253
7   0.000629
8   -0.037654
9   -0.039067
10   0.149108
11   0.149648
12   -0.231355
13   -0.229676
14   0.160572
15   0.176778
16   0.176814
17   0.163902
18   0.166298
19   0.17938
20   0.1791
21   0.174955

$$$$
PCCDB-ID:  4060
     RDKit          3D

 30 31  0  0  1  0  0  0  0  0999 V2000
    2.5189    1.8056    0.0550 C   0  0  0  0  0  0  0  0  0  0  0  0
    1.8714   -3.8199    2.1433 C   0  0  0  0  0  0  0  0  0  0  0  0
    2.6765    0.2860   -0.0193 C   0  0  0  0  0  0  0  0  0  0  0  0
    6.9610    1.1529    2.6313 C   0  0  0  0  0  0  0  0  0  0  0  0
    5.8070    1.4511    3.3558 C   0  0  0  0  0  0  0  0  0  0  0  0
    6.8681    0.3509    1.4921 C   0  0  0  0  0  0  0  0  0  0  0  0
    4.5684    0.9540    2.9453 C   0  0  0  0  0  0  0  0  0  0  0  0
    5.6319   -0.1442    1.0774 C   0  0  0  0  0  0  0  0  0  0  0  0
    4.4674    0.1543    1.8008 C   0  0  0  0  0  0  0  0  0  0  0  0
    3.1552   -1.9064    1.1130 C   0  0  0  0  0  0  0  0  0  0  0  0
    1.6265   -1.3311    2.6389 C   0  0  0  0  0  0  0  0  0  0  0  0
    3.1078   -0.3691    1.3237 C   0  0  2  0  0  0  0  0  0  0  0  0
    2.0567   -0.1660    2.3404 N   0  0  0  0  0  0  0  0  0  0  0  0
    2.2035   -2.4147    1.9922 N   0  0  0  0  0  0  0  0  0  0  0  0
    3.8257   -2.5636    0.3421 O   0  0  0  0  0  0  0  0  0  0  0  0
    0.6539   -1.6159    3.5177 O   0  0  0  0  0  0  0  0  0  0  0  0
    2.1585    2.1954   -0.9035 H   0  0  0  0  0  0  0  0  0  0  0  0
    3.4710    2.2951    0.2828 H   0  0  0  0  0  0  0  0  0  0  0  0
    1.7994    2.0836    0.8312 H   0  0  0  0  0  0  0  0  0  0  0  0
    2.5274   -4.3708    1.4662 H   0  0  0  0  0  0  0  0  0  0  0  0
    0.8270   -4.0061    1.8752 H   0  0  0  0  0  0  0  0  0  0  0  0
    2.0415   -4.1512    3.1720 H   0  0  0  0  0  0  0  0  0  0  0  0
    3.4160    0.0080   -0.7790 H   0  0  0  0  0  0  0  0  0  0  0  0
    1.7249   -0.1705   -0.3223 H   0  0  0  0  0  0  0  0  0  0  0  0
    7.9249    1.5395    2.9520 H   0  0  0  0  0  0  0  0  0  0  0  0
    5.8671    2.0733    4.2453 H   0  0  0  0  0  0  0  0  0  0  0  0
    7.7613    0.1056    0.9232 H   0  0  0  0  0  0  0  0  0  0  0  0
    3.6701    1.1825    3.5075 H   0  0  0  0  0  0  0  0  0  0  0  0
    5.5721   -0.7867    0.2051 H   0  0  0  0  0  0  0  0  0  0  0  0
    0.3594   -0.7611    3.8805 H   0  0  0  0  0  0  0  0  0  0  0  0
  1 18  1  0
  1 19  1  0
  2 22  1  0
  3  1  1  0
  4 25  1  0
  4  5  2  0
  5 26  1  0
  6  4  1  0
  7  5  1  0
  7 28  1  0
  8  6  2  0
  8  9  1  0
  9  7  2  0
 10 12  1  0
 10 14  1  0
 11 16  1  0
 12  3  1  6
 12  9  1  0
 12 13  1  0
 13 11  2  0
 14  2  1  0
 14 11  1  0
 15 10  2  0
 16 30  1  0
 17  1  1  0
 20  2  1  0
 21  2  1  0
 23  3  1  0
 24  3  1  0
 27  6  1  0
 29  8  1  0
M  END
>  <HBA>  (684) 
4

>  <HBD>  (684) 
1

>  <TPSA>  (684) 
49.41

>  <cid>  (684) 
4060

>  <dipole>  (684) 
2.66

>  <excitation_energy_1>  (684) 
5.031

>  <excitation_energy_2>  (684) 
5.233

>  <excitation_energy_3>  (684) 
5.526

>  <excitation_energy_4>  (684) 
5.563

>  <homo_energy>  (684) 
-6.373

>  <homo_lumo_gap>  (684) 
6.117

>  <logP>  (684) 
1.74

>  <lumo_energy>  (684) 
-0.256

>  <melting_point>  (684) 
116.28

>  <molecular_refractivity>  (684) 
67.53

>  <oscillator_strength_1>  (684) 
0.033

>  <oscillator_strength_2>  (684) 
0.0013

>  <oscillator_strength_3>  (684) 
0.0215

>  <oscillator_strength_4>  (684) 
0.0195

>  <open_babel_can_smiles>  (684) 
CC[C@]1(N=C(N(C1=O)C)O)c1ccccc1

>  <mulliken_charges>  (684) 
30
1   -0.452181
2   -0.324926
3   -0.231671
4   -0.124576
5   -0.133878
6   -0.138378
7   -0.168345
8   -0.175252
9   0.133561
10   0.611843
11   0.704116
12   -0.019555
13   -0.506604
14   -0.483575
15   -0.506118
16   -0.607379
17   0.141353
18   0.158876
19   0.162506
20   0.199895
21   0.177056
22   0.179097
23   0.155956
24   0.135263
25   0.125992
26   0.125882
27   0.129105
28   0.144941
29   0.158795
30   0.428201

>  <lowdin_charges>  (684) 
30
1   -0.448171
2   -0.346314
3   -0.262655
4   -0.15926
5   -0.15752
6   -0.15713
7   -0.16528
8   -0.162894
9   -0.008614
10   0.164811
11   0.156083
12   0.043575
13   -0.26615
14   -0.080978
15   -0.270166
16   -0.345677
17   0.150952
18   0.156652
19   0.158345
20   0.184976
21   0.163417
22   0.165121
23   0.15667
24   0.145439
25   0.155925
26   0.155665
27   0.157825
28   0.167814
29   0.171008
30   0.37653

$$$$
PCCDB-ID:  4064
     RDKit          3D

 33 32  0  0  0  0  0  0  0  0999 V2000
    1.0986   -0.0792    0.0038 C   0  0  0  0  0  0  0  0  0  0  0  0
    5.3907   -0.5200    1.4704 C   0  0  0  0  0  0  0  0  0  0  0  0
    2.6320   -0.0832    0.0063 C   0  0  0  0  0  0  0  0  0  0  0  0
    3.2053    0.7765    1.1422 C   0  0  0  0  0  0  0  0  0  0  0  0
    5.3744    1.4492   -0.0325 C   0  0  0  0  0  0  0  0  0  0  0  0
    5.1303    1.7997    2.4073 C   0  0  0  0  0  0  0  0  0  0  0  0
    5.2148    3.3810   -1.3829 C   0  0  0  0  0  0  0  0  0  0  0  0
    4.8793    1.9086    4.7528 C   0  0  0  0  0  0  0  0  0  0  0  0
    4.7517    0.8655    1.2445 C   0  0  0  0  0  0  0  0  0  0  0  0
    6.1092    2.9147   -2.1604 N   0  0  0  0  0  0  0  0  0  0  0  0
    5.5537    2.9886    4.7808 N   0  0  0  0  0  0  0  0  0  0  0  0
    4.5311    4.5553   -1.4490 O   0  0  0  0  0  0  0  0  0  0  0  0
    4.3008    1.2195    5.7750 O   0  0  0  0  0  0  0  0  0  0  0  0
    4.7776    2.7336   -0.2980 O   0  0  0  0  0  0  0  0  0  0  0  0
    4.6189    1.2339    3.6299 O   0  0  0  0  0  0  0  0  0  0  0  0
    0.6994   -0.6965   -0.8092 H   0  0  0  0  0  0  0  0  0  0  0  0
    0.7061    0.9369   -0.1244 H   0  0  0  0  0  0  0  0  0  0  0  0
    0.6996   -0.4708    0.9475 H   0  0  0  0  0  0  0  0  0  0  0  0
    5.2001   -1.1938    0.6288 H   0  0  0  0  0  0  0  0  0  0  0  0
    4.9901   -0.9819    2.3771 H   0  0  0  0  0  0  0  0  0  0  0  0
    6.4781   -0.4364    1.5897 H   0  0  0  0  0  0  0  0  0  0  0  0
    2.9892    0.2838   -0.9649 H   0  0  0  0  0  0  0  0  0  0  0  0
    2.9853   -1.1186    0.0955 H   0  0  0  0  0  0  0  0  0  0  0  0
    2.8299    0.3977    2.1005 H   0  0  0  0  0  0  0  0  0  0  0  0
    2.8124    1.7960    1.0383 H   0  0  0  0  0  0  0  0  0  0  0  0
    5.2083    0.7964   -0.8941 H   0  0  0  0  0  0  0  0  0  0  0  0
    6.4573    1.5788    0.0741 H   0  0  0  0  0  0  0  0  0  0  0  0
    4.7100    2.8000    2.2741 H   0  0  0  0  0  0  0  0  0  0  0  0
    6.2181    1.9001    2.4961 H   0  0  0  0  0  0  0  0  0  0  0  0
    6.3153    3.5426   -2.9369 H   0  0  0  0  0  0  0  0  0  0  0  0
    5.6501    3.3619    5.7248 H   0  0  0  0  0  0  0  0  0  0  0  0
    4.8426    5.0453   -2.2251 H   0  0  0  0  0  0  0  0  0  0  0  0
    4.4817    1.6940    6.6006 H   0  0  0  0  0  0  0  0  0  0  0  0
  1  3  1  0
  1 18  1  0
  2 21  1  0
  2 20  1  0
  3 23  1  0
  3  4  1  0
  4  9  1  0
  4 24  1  0
  5 27  1  0
  5  9  1  0
  6 29  1  0
  6 15  1  0
  7 14  1  0
  8 11  2  0
  8 13  1  0
  9  2  1  0
  9  6  1  0
 10  7  2  0
 11 31  1  0
 12  7  1  0
 13 33  1  0
 14  5  1  0
 15  8  1  0
 16  1  1  0
 17  1  1  0
 19  2  1  0
 22  3  1  0
 25  4  1  0
 26  5  1  0
 28  6  1  0
 30 10  1  0
 32 12  1  0
M  END
>  <HBA>  (685) 
6

>  <HBD>  (685) 
2

>  <TPSA>  (685) 
104.64

>  <cid>  (685) 
4064

>  <dipole>  (685) 
1.23

>  <excitation_energy_1>  (685) 
5.883

>  <excitation_energy_2>  (685) 
5.933

>  <excitation_energy_3>  (685) 
6.383

>  <excitation_energy_4>  (685) 
6.432

>  <homo_energy>  (685) 
-7.004

>  <homo_lumo_gap>  (685) 
8.237

>  <logP>  (685) 
2.384

>  <lumo_energy>  (685) 
1.233

>  <melting_point>  (685) 
144.18

>  <molecular_refractivity>  (685) 
53.88

>  <oscillator_strength_1>  (685) 
0.0049

>  <oscillator_strength_2>  (685) 
0.0048

>  <oscillator_strength_3>  (685) 
0.0506

>  <oscillator_strength_4>  (685) 
0.0408

>  <open_babel_can_smiles>  (685) 
CCCC(COC(=N)O)(COC(=N)O)C

>  <mulliken_charges>  (685) 
33
1   -0.442361
2   -0.465766
3   -0.264004
4   -0.260118
5   -0.025531
6   -0.018616
7   0.647647
8   0.646057
9   0.014252
10   -0.627742
11   -0.626135
12   -0.57026
13   -0.572585
14   -0.456331
15   -0.455512
16   0.139858
17   0.144858
18   0.142906
19   0.148391
20   0.171277
21   0.14069
22   0.136869
23   0.133608
24   0.151228
25   0.146929
26   0.165189
27   0.158122
28   0.177667
29   0.152354
30   0.276514
31   0.274995
32   0.408322
33   0.407229

>  <lowdin_charges>  (685) 
33
1   -0.443185
2   -0.445396
3   -0.275123
4   -0.280798
5   -0.11927
6   -0.11791
7   0.189178
8   0.186806
9   -0.010029
10   -0.47086
11   -0.467964
12   -0.365577
13   -0.366767
14   -0.179374
15   -0.176844
16   0.14926
17   0.147187
18   0.147055
19   0.152115
20   0.164813
21   0.14751
22   0.14078
23   0.138828
24   0.151877
25   0.149423
26   0.157284
27   0.151634
28   0.161329
29   0.148953
30   0.257317
31   0.254475
32   0.362165
33   0.36111

$$$$
PCCDB-ID:  4065
     RDKit          3D

 38 38  0  0  0  0  0  0  0  0999 V2000
    1.5535   -0.3312    4.6097 C   0  0  0  0  0  0  0  0  0  0  0  0
    4.8339   -4.5462    3.7094 C   0  0  0  0  0  0  0  0  0  0  0  0
    4.6065   -4.5892    1.2099 C   0  0  0  0  0  0  0  0  0  0  0  0
    1.8812   -1.2625    3.4389 C   0  0  0  0  0  0  0  0  0  0  0  0
    5.8308    1.4592   -2.4541 C   0  0  0  0  0  0  0  0  0  0  0  0
    5.8754    0.0629   -2.4566 C   0  0  0  0  0  0  0  0  0  0  0  0
    5.8122    2.1568   -1.2434 C   0  0  0  0  0  0  0  0  0  0  0  0
    5.9006   -0.6386   -1.2525 C   0  0  0  0  0  0  0  0  0  0  0  0
    5.8379    1.4598   -0.0383 C   0  0  0  0  0  0  0  0  0  0  0  0
    3.2150   -1.9937    3.6182 C   0  0  0  0  0  0  0  0  0  0  0  0
    5.9580   -2.7868    2.3539 C   0  0  0  0  0  0  0  0  0  0  0  0
    5.8812    0.0586   -0.0363 C   0  0  0  0  0  0  0  0  0  0  0  0
    5.9104   -0.6330    1.2849 C   0  0  0  0  0  0  0  0  0  0  0  0
    4.6952   -3.6779    2.4469 C   0  0  0  0  0  0  0  0  0  0  0  0
    3.4396   -2.9109    2.4955 N   0  0  0  0  0  0  0  0  0  0  0  0
    5.9230   -0.0518    2.3535 O   0  0  0  0  0  0  0  0  0  0  0  0
    5.9222   -1.9819    1.1538 O   0  0  0  0  0  0  0  0  0  0  0  0
    2.3273    0.4349    4.7387 H   0  0  0  0  0  0  0  0  0  0  0  0
    1.4782   -0.8893    5.5512 H   0  0  0  0  0  0  0  0  0  0  0  0
    0.5987    0.1826    4.4518 H   0  0  0  0  0  0  0  0  0  0  0  0
    5.6869   -5.2276    3.6167 H   0  0  0  0  0  0  0  0  0  0  0  0
    3.9273   -5.1445    3.8450 H   0  0  0  0  0  0  0  0  0  0  0  0
    4.9853   -3.9452    4.6124 H   0  0  0  0  0  0  0  0  0  0  0  0
    5.5044   -5.2103    1.1114 H   0  0  0  0  0  0  0  0  0  0  0  0
    4.5065   -3.9975    0.2934 H   0  0  0  0  0  0  0  0  0  0  0  0
    3.7330   -5.2429    1.2920 H   0  0  0  0  0  0  0  0  0  0  0  0
    1.9147   -0.6780    2.5074 H   0  0  0  0  0  0  0  0  0  0  0  0
    1.0870   -2.0084    3.3102 H   0  0  0  0  0  0  0  0  0  0  0  0
    5.8114    2.0032   -3.3948 H   0  0  0  0  0  0  0  0  0  0  0  0
    5.8918   -0.4796   -3.3978 H   0  0  0  0  0  0  0  0  0  0  0  0
    5.7784    3.2427   -1.2405 H   0  0  0  0  0  0  0  0  0  0  0  0
    5.9383   -1.7220   -1.2479 H   0  0  0  0  0  0  0  0  0  0  0  0
    5.8259    1.9804    0.9135 H   0  0  0  0  0  0  0  0  0  0  0  0
    3.1712   -2.5818    4.5429 H   0  0  0  0  0  0  0  0  0  0  0  0
    4.0175   -1.2472    3.7480 H   0  0  0  0  0  0  0  0  0  0  0  0
    6.8597   -3.4036    2.2773 H   0  0  0  0  0  0  0  0  0  0  0  0
    6.0493   -2.1246    3.2158 H   0  0  0  0  0  0  0  0  0  0  0  0
    3.3554   -2.3876    1.6246 H   0  0  0  0  0  0  0  0  0  0  0  0
  1 18  1  0
  1 19  1  0
  2 22  1  0
  2 23  1  0
  3 26  1  0
  3 14  1  0
  4 10  1  0
  4  1  1  0
  5  7  2  0
  6  5  1  0
  6  8  2  0
  7 31  1  0
  7  9  1  0
  8 32  1  0
  8 12  1  0
  9 12  2  0
  9 33  1  0
 10 35  1  0
 10 34  1  0
 11 14  1  0
 11 37  1  0
 12 13  1  0
 13 16  2  0
 14 15  1  0
 14  2  1  0
 15 10  1  0
 17 13  1  0
 17 11  1  0
 20  1  1  0
 21  2  1  0
 24  3  1  0
 25  3  1  0
 27  4  1  0
 28  4  1  0
 29  5  1  0
 30  6  1  0
 36 11  1  0
 38 15  1  0
M  END
>  <HBA>  (686) 
3

>  <HBD>  (686) 
1

>  <TPSA>  (686) 
38.33

>  <cid>  (686) 
4065

>  <dipole>  (686) 
1.8

>  <excitation_energy_1>  (686) 
3.881

>  <excitation_energy_2>  (686) 
4.89

>  <excitation_energy_3>  (686) 
4.901

>  <excitation_energy_4>  (686) 
4.993

>  <homo_energy>  (686) 
-5.812

>  <homo_lumo_gap>  (686) 
4.553

>  <logP>  (686) 
3.013

>  <lumo_energy>  (686) 
-1.26

>  <melting_point>  (686) 
63.48

>  <molecular_refractivity>  (686) 
69.4

>  <oscillator_strength_1>  (686) 
0.0199

>  <oscillator_strength_2>  (686) 
0.0065

>  <oscillator_strength_3>  (686) 
0.0042

>  <oscillator_strength_4>  (686) 
0.0081

>  <open_babel_can_smiles>  (686) 
CCCNC(COC(=O)c1ccccc1)(C)C

>  <mulliken_charges>  (686) 
38
1   -0.44671
2   -0.458769
3   -0.450822
4   -0.261068
5   -0.116926
6   -0.136408
7   -0.13812
8   -0.162101
9   -0.151937
10   -0.125201
11   -0.057237
12   0.046878
13   0.592542
14   0.192673
15   -0.573929
16   -0.489438
17   -0.489712
18   0.149453
19   0.141137
20   0.142987
21   0.141521
22   0.162054
23   0.149145
24   0.134922
25   0.14808
26   0.157244
27   0.127602
28   0.143763
29   0.137783
30   0.137176
31   0.138712
32   0.157987
33   0.163875
34   0.134064
35   0.142034
36   0.143534
37   0.181268
38   0.291947

>  <lowdin_charges>  (686) 
38
1   -0.444831
2   -0.448182
3   -0.447428
4   -0.275369
5   -0.140112
6   -0.157318
7   -0.153027
8   -0.138176
9   -0.130821
10   -0.212963
11   -0.153944
12   -0.047194
13   0.199167
14   0.056675
15   -0.36155
16   -0.272993
17   -0.194799
18   0.150729
19   0.146067
20   0.150323
21   0.15194
22   0.162114
23   0.151956
24   0.147159
25   0.150861
26   0.158645
27   0.137
28   0.146468
29   0.161724
30   0.161471
31   0.159968
32   0.16965
33   0.177252
34   0.139298
35   0.131329
36   0.150569
37   0.166652
38   0.25169

$$$$
PCCDB-ID:  4075
     RDKit          3D

 18 18  0  0  0  0  0  0  0  0999 V2000
   -1.4091   -0.1236   -0.0757 C   0  0  0  0  0  0  0  0  0  0  0  0
   -0.7119    1.0381   -0.3920 C   0  0  0  0  0  0  0  0  0  0  0  0
    0.6758   -1.2962    0.1557 C   0  0  0  0  0  0  0  0  0  0  0  0
   -0.7221   -1.3164    0.2049 C   0  0  0  0  0  0  0  0  0  0  0  0
    1.3962   -0.1375   -0.1560 C   0  0  0  0  0  0  0  0  0  0  0  0
    0.6815    1.0412   -0.4327 C   0  0  0  0  0  0  0  0  0  0  0  0
    2.8992   -0.2732   -0.1675 C   0  0  0  0  0  0  0  0  0  0  0  0
   -1.4140   -2.4734    0.5834 N   0  0  0  0  0  0  0  0  0  0  0  0
    1.3870    2.1882   -0.7523 O   0  0  0  0  0  0  0  0  0  0  0  0
    3.4455   -1.3336    0.0474 O   0  0  0  0  0  0  0  0  0  0  0  0
    3.6333    0.8285   -0.4213 O   0  0  0  0  0  0  0  0  0  0  0  0
   -2.4956   -0.1026   -0.0399 H   0  0  0  0  0  0  0  0  0  0  0  0
   -1.2600    1.9526   -0.6120 H   0  0  0  0  0  0  0  0  0  0  0  0
    1.2536   -2.1911    0.3656 H   0  0  0  0  0  0  0  0  0  0  0  0
   -2.3517   -2.5484    0.2082 H   0  0  0  0  0  0  0  0  0  0  0  0
   -0.8973   -3.3333    0.4442 H   0  0  0  0  0  0  0  0  0  0  0  0
    0.7795    2.9354   -0.8597 H   0  0  0  0  0  0  0  0  0  0  0  0
    3.0525    1.5986   -0.5787 H   0  0  0  0  0  0  0  0  0  0  0  0
  1 12  1  0
  1  4  2  0
  2  1  1  0
  3  4  1  0
  3 14  1  0
  4  8  1  0
  5  3  2  0
  6  2  2  0
  6  5  1  0
  7  5  1  0
  7 10  2  0
  9  6  1  0
 11  7  1  0
 13  2  1  0
 15  8  1  0
 16  8  1  0
 17  9  1  0
 18 11  1  0
M  END
>  <HBA>  (687) 
4

>  <HBD>  (687) 
3

>  <TPSA>  (687) 
83.55

>  <cid>  (687) 
4075

>  <dipole>  (687) 
6.62

>  <excitation_energy_1>  (687) 
3.847

>  <excitation_energy_2>  (687) 
4.596

>  <excitation_energy_3>  (687) 
4.668

>  <excitation_energy_4>  (687) 
4.871

>  <homo_energy>  (687) 
-5.636

>  <homo_lumo_gap>  (687) 
4.498

>  <logP>  (687) 
1.254

>  <lumo_energy>  (687) 
-1.137

>  <melting_point>  (687) 
185.78

>  <molecular_refractivity>  (687) 
39.83

>  <oscillator_strength_1>  (687) 
0.062

>  <oscillator_strength_2>  (687) 
0.0001

>  <oscillator_strength_3>  (687) 
0.0002

>  <oscillator_strength_4>  (687) 
0.0062

>  <open_babel_can_smiles>  (687) 
Nc1ccc(c(c1)C(=O)O)O

>  <mulliken_charges>  (687) 
18
1   -0.168775
2   -0.188171
3   -0.233021
4   0.319625
5   0.017264
6   0.295056
7   0.574134
8   -0.79014
9   -0.694888
10   -0.464746
11   -0.601473
12   0.130976
13   0.125622
14   0.16576
15   0.31977
16   0.32665
17   0.424398
18   0.441958

>  <lowdin_charges>  (687) 
18
1   -0.169274
2   -0.196692
3   -0.160423
4   0.048313
5   -0.075934
6   0.082139
7   0.196964
8   -0.488557
9   -0.396827
10   -0.261044
11   -0.361217
12   0.158085
13   0.157799
14   0.180931
15   0.275017
16   0.279545
17   0.369545
18   0.361629

$$$$
PCCDB-ID:  4076
     RDKit          3D

 32 32  0  0  0  0  0  0  0  0999 V2000
    3.1470    1.2078   -0.7371 C   0  0  0  0  0  0  0  0  0  0  0  0
    7.4180   -3.8059   -1.0777 C   0  0  0  0  0  0  0  0  0  0  0  0
    6.1444    0.1425   -2.0399 C   0  0  0  0  0  0  0  0  0  0  0  0
    2.4730   -4.8106    0.1075 C   0  0  0  0  0  0  0  0  0  0  0  0
    1.8066   -5.3050   -1.1876 C   0  0  0  0  0  0  0  0  0  0  0  0
    2.7514   -2.3043    0.0210 C   0  0  0  0  0  0  0  0  0  0  0  0
    4.6628   -3.6810   -0.4757 C   0  0  0  0  0  0  0  0  0  0  0  0
    3.3137   -3.5697   -0.1030 C   0  0  0  0  0  0  0  0  0  0  0  0
    3.5007   -1.1426   -0.2245 C   0  0  0  0  0  0  0  0  0  0  0  0
    5.4250   -2.5367   -0.7080 C   0  0  0  0  0  0  0  0  0  0  0  0
    4.8515   -1.2481   -0.5956 C   0  0  0  0  0  0  0  0  0  0  0  0
    0.9714   -6.4799   -0.9148 N   0  0  0  0  0  0  0  0  0  0  0  0
    2.8280    0.0263   -0.0070 O   0  0  0  0  0  0  0  0  0  0  0  0
    6.7566   -2.5529   -1.0265 O   0  0  0  0  0  0  0  0  0  0  0  0
    5.6301   -0.1187   -0.7317 O   0  0  0  0  0  0  0  0  0  0  0  0
    2.2935    1.8755   -0.5916 H   0  0  0  0  0  0  0  0  0  0  0  0
    3.2553    0.9970   -1.8088 H   0  0  0  0  0  0  0  0  0  0  0  0
    4.0580    1.6828   -0.3674 H   0  0  0  0  0  0  0  0  0  0  0  0
    7.0015   -4.4539   -1.8605 H   0  0  0  0  0  0  0  0  0  0  0  0
    7.3654   -4.3276   -0.1134 H   0  0  0  0  0  0  0  0  0  0  0  0
    8.4609   -3.5830   -1.3118 H   0  0  0  0  0  0  0  0  0  0  0  0
    6.8269   -0.6470   -2.3647 H   0  0  0  0  0  0  0  0  0  0  0  0
    6.6857    1.0890   -1.9666 H   0  0  0  0  0  0  0  0  0  0  0  0
    5.3302    0.2466   -2.7703 H   0  0  0  0  0  0  0  0  0  0  0  0
    3.0983   -5.6182    0.5143 H   0  0  0  0  0  0  0  0  0  0  0  0
    1.6846   -4.6214    0.8444 H   0  0  0  0  0  0  0  0  0  0  0  0
    2.5889   -5.4704   -1.9509 H   0  0  0  0  0  0  0  0  0  0  0  0
    1.1563   -4.5120   -1.5760 H   0  0  0  0  0  0  0  0  0  0  0  0
    1.7123   -2.1782    0.3100 H   0  0  0  0  0  0  0  0  0  0  0  0
    5.1097   -4.6653   -0.5613 H   0  0  0  0  0  0  0  0  0  0  0  0
    1.5657   -7.2705   -0.6662 H   0  0  0  0  0  0  0  0  0  0  0  0
    0.4794   -6.7569   -1.7629 H   0  0  0  0  0  0  0  0  0  0  0  0
  1 16  1  0
  1 18  1  0
  1 13  1  0
  2 14  1  0
  2 20  1  0
  3 23  1  0
  3 15  1  0
  4 25  1  0
  4 26  1  0
  5 12  1  0
  5  4  1  0
  6 29  1  0
  7  8  1  0
  8  6  2  0
  8  4  1  0
  9 13  1  0
  9  6  1  0
 10 11  1  0
 10  7  2  0
 11  9  2  0
 12 31  1  0
 14 10  1  0
 15 11  1  0
 17  1  1  0
 19  2  1  0
 21  2  1  0
 22  3  1  0
 24  3  1  0
 27  5  1  0
 28  5  1  0
 30  7  1  0
 32 12  1  0
M  END
>  <HBA>  (688) 
4

>  <HBD>  (688) 
1

>  <TPSA>  (688) 
53.71

>  <cid>  (688) 
4076

>  <dipole>  (688) 
3.78

>  <excitation_energy_1>  (688) 
4.896

>  <excitation_energy_2>  (688) 
5.184

>  <excitation_energy_3>  (688) 
5.277

>  <excitation_energy_4>  (688) 
5.382

>  <homo_energy>  (688) 
-5.63

>  <homo_lumo_gap>  (688) 
5.989

>  <logP>  (688) 
1.914

>  <lumo_energy>  (688) 
0.359

>  <melting_point>  (688) 
79.06

>  <molecular_refractivity>  (688) 
58.4

>  <oscillator_strength_1>  (688) 
0.0032

>  <oscillator_strength_2>  (688) 
0.007

>  <oscillator_strength_3>  (688) 
0.0215

>  <oscillator_strength_4>  (688) 
0.0073

>  <open_babel_can_smiles>  (688) 
NCCc1cc(OC)c(c(c1)OC)OC

>  <mulliken_charges>  (688) 
32
1   -0.203134
2   -0.211691
3   -0.211358
4   -0.341071
5   -0.129845
6   -0.253795
7   -0.271287
8   0.174884
9   0.341968
10   0.352502
11   0.248566
12   -0.713995
13   -0.522982
14   -0.513365
15   -0.523363
16   0.154378
17   0.137967
18   0.170565
19   0.149727
20   0.155334
21   0.167964
22   0.16871
23   0.155247
24   0.132121
25   0.129914
26   0.159801
27   0.114176
28   0.145982
29   0.130207
30   0.11957
31   0.290446
32   0.295859

>  <lowdin_charges>  (688) 
32
1   -0.273266
2   -0.276568
3   -0.280066
4   -0.275815
5   -0.204598
6   -0.204073
7   -0.240291
8   0.00617
9   0.088881
10   0.087245
11   0.024376
12   -0.55998
13   -0.20675
14   -0.198106
15   -0.222761
16   0.153469
17   0.137665
18   0.155774
19   0.144665
20   0.147361
21   0.160249
22   0.154464
23   0.153733
24   0.133963
25   0.143365
26   0.159384
27   0.118085
28   0.146399
29   0.163269
30   0.157758
31   0.250864
32   0.255136

$$$$
PCCDB-ID:  4086
     RDKit          3D

 32 32  0  0  1  0  0  0  0  0999 V2000
    3.7235   -1.6423   -0.4395 C   0  0  0  0  0  0  0  0  0  0  0  0
    5.4882   -0.9506    1.2262 C   0  0  0  0  0  0  0  0  0  0  0  0
    8.1836    1.6714   -2.7221 C   0  0  0  0  0  0  0  0  0  0  0  0
    6.5630    3.4446   -2.4585 C   0  0  0  0  0  0  0  0  0  0  0  0
    8.9160    3.8882   -2.0379 C   0  0  0  0  0  0  0  0  0  0  0  0
    4.7607    0.9024   -1.9841 C   0  0  0  0  0  0  0  0  0  0  0  0
    4.5857   -0.4864    0.0796 C   0  0  0  0  0  0  0  0  0  0  0  0
    6.8617    2.1120   -2.7706 C   0  0  0  0  0  0  0  0  0  0  0  0
    9.2022    2.5622   -2.3574 C   0  0  0  0  0  0  0  0  0  0  0  0
    7.5901    4.3221   -2.0958 C   0  0  0  0  0  0  0  0  0  0  0  0
    5.7378    1.1469   -3.1570 C   0  0  1  0  0  0  0  0  0  0  0  0
    5.4350    0.0573   -0.9961 N   0  0  0  0  0  0  0  0  0  0  0  0
   10.5127    2.1757   -2.2977 O   0  0  0  0  0  0  0  0  0  0  0  0
    7.3541    5.6335   -1.7838 O   0  0  0  0  0  0  0  0  0  0  0  0
    6.2210   -0.1079   -3.6023 O   0  0  0  0  0  0  0  0  0  0  0  0
    3.0927   -2.0371    0.3649 H   0  0  0  0  0  0  0  0  0  0  0  0
    4.3602   -2.4525   -0.8127 H   0  0  0  0  0  0  0  0  0  0  0  0
    3.0603   -1.3307   -1.2532 H   0  0  0  0  0  0  0  0  0  0  0  0
    4.8930   -1.3724    2.0427 H   0  0  0  0  0  0  0  0  0  0  0  0
    6.0739   -0.1178    1.6350 H   0  0  0  0  0  0  0  0  0  0  0  0
    6.1868   -1.7193    0.8757 H   0  0  0  0  0  0  0  0  0  0  0  0
    8.4083    0.6460   -3.0010 H   0  0  0  0  0  0  0  0  0  0  0  0
    5.5363    3.8052   -2.5078 H   0  0  0  0  0  0  0  0  0  0  0  0
    9.7081    4.5741   -1.7606 H   0  0  0  0  0  0  0  0  0  0  0  0
    3.8948    0.3578   -2.3729 H   0  0  0  0  0  0  0  0  0  0  0  0
    4.3958    1.8563   -1.5680 H   0  0  0  0  0  0  0  0  0  0  0  0
    3.9114    0.2985    0.4713 H   0  0  0  0  0  0  0  0  0  0  0  0
    5.1751    1.5896   -3.9893 H   0  0  0  0  0  0  0  0  0  0  0  0
    6.1884    0.6026   -0.5771 H   0  0  0  0  0  0  0  0  0  0  0  0
   10.5732    1.2479   -2.5737 H   0  0  0  0  0  0  0  0  0  0  0  0
    6.4059    5.8112   -1.8814 H   0  0  0  0  0  0  0  0  0  0  0  0
    6.2455   -0.6487   -2.7853 H   0  0  0  0  0  0  0  0  0  0  0  0
  1  7  1  0
  1 16  1  0
  2 20  1  0
  2 19  1  0
  3  9  2  0
  4 10  1  0
  5 24  1  0
  6 26  1  0
  6 12  1  0
  7 27  1  0
  7  2  1  0
  8  3  1  0
  8  4  2  0
  9 13  1  0
  9  5  1  0
 10  5  2  0
 10 14  1  0
 11 28  1  6
 11  8  1  0
 11  6  1  0
 12 29  1  0
 12  7  1  0
 15 11  1  0
 15 32  1  0
 17  1  1  0
 18  1  1  0
 21  2  1  0
 22  3  1  0
 23  4  1  0
 25  6  1  0
 30 13  1  0
 31 14  1  0
M  END
>  <HBA>  (689) 
4

>  <HBD>  (689) 
4

>  <TPSA>  (689) 
72.72

>  <cid>  (689) 
4086

>  <dipole>  (689) 
3.38

>  <excitation_energy_1>  (689) 
4.943

>  <excitation_energy_2>  (689) 
5.007

>  <excitation_energy_3>  (689) 
5.322

>  <excitation_energy_4>  (689) 
5.394

>  <homo_energy>  (689) 
-5.796

>  <homo_lumo_gap>  (689) 
5.946

>  <logP>  (689) 
1.52

>  <lumo_energy>  (689) 
0.15

>  <melting_point>  (689) 
132.24

>  <molecular_refractivity>  (689) 
58.65

>  <oscillator_strength_1>  (689) 
0.017

>  <oscillator_strength_2>  (689) 
0.0039

>  <oscillator_strength_3>  (689) 
0.0006

>  <oscillator_strength_4>  (689) 
0.0096

>  <open_babel_can_smiles>  (689) 
O[C@H](c1cc(O)cc(c1)O)CNC(C)C

>  <mulliken_charges>  (689) 
32
1   -0.437783
2   -0.462145
3   -0.269528
4   -0.265327
5   -0.205552
6   -0.152433
7   0.070644
8   0.116585
9   0.366184
10   0.358574
11   0.073207
12   -0.59602
13   -0.646589
14   -0.646301
15   -0.643584
16   0.142969
17   0.151262
18   0.148049
19   0.150561
20   0.143771
21   0.154879
22   0.129262
23   0.105403
24   0.146361
25   0.155429
26   0.126526
27   0.111742
28   0.144571
29   0.311054
30   0.408986
31   0.406469
32   0.402774

>  <lowdin_charges>  (689) 
32
1   -0.451881
2   -0.451715
3   -0.245523
4   -0.254934
5   -0.223992
6   -0.221651
7   -0.055006
8   -0.006676
9   0.114364
10   0.115303
11   -0.006054
12   -0.365976
13   -0.376415
14   -0.377347
15   -0.463692
16   0.153007
17   0.154123
18   0.151561
19   0.157022
20   0.149959
21   0.155137
22   0.161478
23   0.146571
24   0.17682
25   0.151576
26   0.129147
27   0.121558
28   0.151745
29   0.262259
30   0.356757
31   0.354593
32   0.337884

$$$$
PCCDB-ID:  4087
     RDKit          3D

 25 25  0  0  1  0  0  0  0  0999 V2000
    3.1525    2.3283    0.3853 C   0  0  0  0  0  0  0  0  0  0  0  0
    6.5106    0.4546    2.8660 C   0  0  0  0  0  0  0  0  0  0  0  0
    5.2313    0.3329    2.3243 C   0  0  0  0  0  0  0  0  0  0  0  0
    7.6416    0.1910    2.0937 C   0  0  0  0  0  0  0  0  0  0  0  0
    6.2043   -0.3336    0.2145 C   0  0  0  0  0  0  0  0  0  0  0  0
    3.2537    1.0587   -0.4641 C   0  0  1  0  0  0  0  0  0  0  0  0
    5.0723   -0.0619    0.9880 C   0  0  0  0  0  0  0  0  0  0  0  0
    7.4839   -0.2035    0.7604 C   0  0  0  0  0  0  0  0  0  0  0  0
    3.6939   -0.1876    0.3588 C   0  0  1  0  0  0  0  0  0  0  0  0
    1.9788    0.8480   -1.1599 N   0  0  0  0  0  0  0  0  0  0  0  0
    8.5450   -0.4869   -0.0560 O   0  0  0  0  0  0  0  0  0  0  0  0
    2.6662   -0.4139    1.3235 O   0  0  0  0  0  0  0  0  0  0  0  0
    4.1133    2.5823    0.8428 H   0  0  0  0  0  0  0  0  0  0  0  0
    2.4174    2.1986    1.1871 H   0  0  0  0  0  0  0  0  0  0  0  0
    2.8288    3.1604   -0.2461 H   0  0  0  0  0  0  0  0  0  0  0  0
    6.6325    0.7592    3.9022 H   0  0  0  0  0  0  0  0  0  0  0  0
    4.3539    0.5423    2.9268 H   0  0  0  0  0  0  0  0  0  0  0  0
    8.6381    0.2856    2.5214 H   0  0  0  0  0  0  0  0  0  0  0  0
    6.1117   -0.6562   -0.8194 H   0  0  0  0  0  0  0  0  0  0  0  0
    4.0233    1.2097   -1.2324 H   0  0  0  0  0  0  0  0  0  0  0  0
    3.7239   -1.0311   -0.3531 H   0  0  0  0  0  0  0  0  0  0  0  0
    1.2800    0.5873   -0.4636 H   0  0  0  0  0  0  0  0  0  0  0  0
    2.0574    0.0447   -1.7844 H   0  0  0  0  0  0  0  0  0  0  0  0
    9.3671   -0.3607    0.4425 H   0  0  0  0  0  0  0  0  0  0  0  0
    2.9104   -1.2007    1.8354 H   0  0  0  0  0  0  0  0  0  0  0  0
  1 13  1  0
  1 14  1  0
  2 16  1  0
  3  2  2  0
  3 17  1  0
  4 18  1  0
  4  2  1  0
  5  8  1  0
  5  7  2  0
  6 20  1  6
  6  9  1  0
  6  1  1  0
  7  3  1  0
  8  4  2  0
  9 21  1  6
  9  7  1  0
  9 12  1  0
 10  6  1  0
 10 22  1  0
 11 24  1  0
 11  8  1  0
 12 25  1  0
 15  1  1  0
 19  5  1  0
 23 10  1  0
M  END
>  <HBA>  (690) 
3

>  <HBD>  (690) 
3

>  <TPSA>  (690) 
66.48

>  <cid>  (690) 
4087

>  <dipole>  (690) 
3.29

>  <excitation_energy_1>  (690) 
4.913

>  <excitation_energy_2>  (690) 
5.225

>  <excitation_energy_3>  (690) 
5.241

>  <excitation_energy_4>  (690) 
5.41

>  <homo_energy>  (690) 
-5.948

>  <homo_lumo_gap>  (690) 
5.763

>  <logP>  (690) 
1.473

>  <lumo_energy>  (690) 
-0.185

>  <melting_point>  (690) 
119.66

>  <molecular_refractivity>  (690) 
46.91

>  <oscillator_strength_1>  (690) 
0.064

>  <oscillator_strength_2>  (690) 
0.0008

>  <oscillator_strength_3>  (690) 
0.0629

>  <oscillator_strength_4>  (690) 
0.0081

>  <open_babel_can_smiles>  (690) 
C[C@@H]([C@@H](c1cccc(c1)O)O)N

>  <mulliken_charges>  (690) 
25
1   -0.447736
2   -0.134079
3   -0.189787
4   -0.19427
5   -0.21871
6   0.019979
7   0.112362
8   0.352445
9   0.068322
10   -0.706038
11   -0.643196
12   -0.636638
13   0.149392
14   0.153409
15   0.156651
16   0.132133
17   0.137091
18   0.117964
19   0.13314
20   0.133293
21   0.108269
22   0.306535
23   0.286894
24   0.407512
25   0.395065

>  <lowdin_charges>  (690) 
25
1   -0.452784
2   -0.141199
3   -0.194937
4   -0.217272
5   -0.196624
6   -0.07039
7   -0.016436
8   0.104345
9   -0.02013
10   -0.546132
11   -0.379002
12   -0.461084
13   0.154818
14   0.15437
15   0.159852
16   0.157734
17   0.163961
18   0.15264
19   0.162687
20   0.143634
21   0.1274
22   0.259511
23   0.249142
24   0.358172
25   0.347727

$$$$
PCCDB-ID:  4093
     RDKit          3D

 12 11  0  0  0  0  0  0  0  0999 V2000
    0.8507   -0.0414   -0.0265 C   0  0  0  0  0  0  0  0  0  0  0  0
    3.0634    0.3088    1.1057 C   0  0  0  0  0  0  0  0  0  0  0  0
    2.1893   -0.0948   -0.0507 C   0  0  0  0  0  0  0  0  0  0  0  0
    2.9262   -0.6730   -1.2299 C   0  0  0  0  0  0  0  0  0  0  0  0
    4.0005   -1.2159   -1.1255 O   0  0  0  0  0  0  0  0  0  0  0  0
    2.3253   -0.5718   -2.4462 O   0  0  0  0  0  0  0  0  0  0  0  0
    0.3155    0.3305    0.8427 H   0  0  0  0  0  0  0  0  0  0  0  0
    0.2319   -0.4066   -0.8430 H   0  0  0  0  0  0  0  0  0  0  0  0
    2.4651    0.6461    1.9564 H   0  0  0  0  0  0  0  0  0  0  0  0
    3.7509    1.1135    0.8183 H   0  0  0  0  0  0  0  0  0  0  0  0
    3.6861   -0.5371    1.4142 H   0  0  0  0  0  0  0  0  0  0  0  0
    1.5572    0.0186   -2.3776 H   0  0  0  0  0  0  0  0  0  0  0  0
  1  7  1  0
  2 11  1  0
  2  9  1  0
  3  1  2  3
  3  2  1  0
  4  5  2  0
  4  3  1  0
  6 12  1  0
  6  4  1  0
  8  1  1  0
 10  2  1  0
M  END
>  <HBA>  (691) 
2

>  <HBD>  (691) 
1

>  <TPSA>  (691) 
37.3

>  <cid>  (691) 
4093

>  <dipole>  (691) 
4.16

>  <excitation_energy_1>  (691) 
4.718

>  <excitation_energy_2>  (691) 
6.072

>  <excitation_energy_3>  (691) 
6.613

>  <excitation_energy_4>  (691) 
6.792

>  <homo_energy>  (691) 
-7.44

>  <homo_lumo_gap>  (691) 
6.196

>  <logP>  (691) 
0.647

>  <lumo_energy>  (691) 
-1.244

>  <melting_point>  (691) 
34.75

>  <molecular_refractivity>  (691) 
22.64

>  <oscillator_strength_1>  (691) 
0.0019

>  <oscillator_strength_2>  (691) 
0.2257

>  <oscillator_strength_3>  (691) 
0.0096

>  <oscillator_strength_4>  (691) 
0.0325

>  <open_babel_can_smiles>  (691) 
CC(=C)C(=O)O

>  <mulliken_charges>  (691) 
12
1   -0.399765
2   -0.503692
3   0.122034
4   0.552457
5   -0.439465
6   -0.56875
7   0.162305
8   0.150283
9   0.152748
10   0.170889
11   0.193373
12   0.407584

>  <lowdin_charges>  (691) 
12
1   -0.333665
2   -0.436573
3   -0.028306
4   0.187601
5   -0.23395
6   -0.354368
7   0.170974
8   0.161589
9   0.15886
10   0.168248
11   0.181032
12   0.358557

$$$$
PCCDB-ID:  4096
     RDKit          3D

 15 14  0  0  0  0  0  0  0  0999 V2000
    0.9300   -0.2137   -0.7148 C   0  0  0  0  0  0  0  0  0  0  0  0
    4.6388    1.0605   -3.7497 C   0  0  0  0  0  0  0  0  0  0  0  0
    3.8226    2.4955   -0.4978 N   0  0  0  0  0  0  0  0  0  0  0  0
    4.0678   -0.1197   -0.7592 O   0  0  0  0  0  0  0  0  0  0  0  0
    1.6825    1.0088   -0.5809 O   0  0  0  0  0  0  0  0  0  0  0  0
    3.2220    1.0528   -1.1020 P   0  0  1  0  0  0  0  0  0  0  0  0
    2.9300    1.4095   -3.1600 S   0  0  0  0  0  0  0  0  0  0  0  0
    0.7260   -0.4276   -1.7690 H   0  0  0  0  0  0  0  0  0  0  0  0
   -0.0097   -0.0514   -0.1843 H   0  0  0  0  0  0  0  0  0  0  0  0
    1.4769   -1.0482   -0.2681 H   0  0  0  0  0  0  0  0  0  0  0  0
    4.5918    1.0434   -4.8407 H   0  0  0  0  0  0  0  0  0  0  0  0
    4.9653    0.0900   -3.3738 H   0  0  0  0  0  0  0  0  0  0  0  0
    5.3256    1.8426   -3.4211 H   0  0  0  0  0  0  0  0  0  0  0  0
    4.1598    2.4292    0.4586 H   0  0  0  0  0  0  0  0  0  0  0  0
    3.2542    3.3226   -0.6497 H   0  0  0  0  0  0  0  0  0  0  0  0
  1  5  1  0
  1 10  1  0
  1  9  1  0
  2 13  1  0
  2 12  1  0
  2  7  1  0
  3 14  1  0
  6  4  2  0
  6  5  1  0
  6  3  1  0
  7  6  1  0
  8  1  1  0
 11  2  1  0
 15  3  1  0
M  END
>  <HBA>  (692) 
4

>  <HBD>  (692) 
1

>  <TPSA>  (692) 
87.43

>  <cid>  (692) 
4096

>  <dipole>  (692) 
1.94

>  <excitation_energy_1>  (692) 
5.449

>  <excitation_energy_2>  (692) 
5.95

>  <excitation_energy_3>  (692) 
6.579

>  <excitation_energy_4>  (692) 
6.611

>  <homo_energy>  (692) 
-6.746

>  <homo_lumo_gap>  (692) 
7.181

>  <logP>  (692) 
1.763

>  <lumo_energy>  (692) 
0.435

>  <melting_point>  (692) 
43.45

>  <molecular_refractivity>  (692) 
31.77

>  <oscillator_strength_1>  (692) 
0.0045

>  <oscillator_strength_2>  (692) 
0.0143

>  <oscillator_strength_3>  (692) 
0.0113

>  <oscillator_strength_4>  (692) 
0.004

>  <open_babel_can_smiles>  (692) 
CO[P@@](=O)(SC)N

>  <mulliken_charges>  (692) 
15
1   -0.222758
2   -0.599524
3   -0.815096
4   -0.554281
5   -0.52471
6   0.982754
7   -0.099891
8   0.171394
9   0.169678
10   0.183268
11   0.188904
12   0.219781
13   0.198774
14   0.353039
15   0.348667

>  <lowdin_charges>  (692) 
15
1   -0.271844
2   -0.53373
3   -0.690836
4   -0.594369
5   -0.411994
6   0.932693
7   -0.052451
8   0.156829
9   0.162152
10   0.167544
11   0.175571
12   0.186128
13   0.175454
14   0.299266
15   0.299586

$$$$
PCCDB-ID:  4099
     RDKit          3D

 28 28  0  0  0  0  0  0  0  0999 V2000
    1.2978    0.4114    0.6771 C   0  0  0  0  0  0  0  0  0  0  0  0
    4.8930    0.7323   -3.0827 C   0  0  0  0  0  0  0  0  0  0  0  0
    3.2362    4.5366   -0.7186 C   0  0  0  0  0  0  0  0  0  0  0  0
    2.5671   -0.1128   -0.0012 C   0  0  0  0  0  0  0  0  0  0  0  0
    4.3295    0.0523   -1.8309 C   0  0  0  0  0  0  0  0  0  0  0  0
    1.9663    0.8445   -2.2599 C   0  0  0  0  0  0  0  0  0  0  0  0
    3.4805    2.1072   -0.6954 C   0  0  0  0  0  0  0  0  0  0  0  0
    1.7760    3.1529   -2.1577 C   0  0  0  0  0  0  0  0  0  0  0  0
    3.0619    0.7271   -1.2211 C   0  0  0  0  0  0  0  0  0  0  0  0
    1.3964    1.9118   -2.6709 N   0  0  0  0  0  0  0  0  0  0  0  0
    2.8446    3.2131   -1.2187 N   0  0  0  0  0  0  0  0  0  0  0  0
    1.5315   -0.3039   -2.8150 O   0  0  0  0  0  0  0  0  0  0  0  0
    4.3529    2.1986    0.1562 O   0  0  0  0  0  0  0  0  0  0  0  0
    1.2232    4.1777   -2.4986 O   0  0  0  0  0  0  0  0  0  0  0  0
    1.0309   -0.2309    1.5226 H   0  0  0  0  0  0  0  0  0  0  0  0
    0.4437    0.4316   -0.0088 H   0  0  0  0  0  0  0  0  0  0  0  0
    1.4440    1.4241    1.0684 H   0  0  0  0  0  0  0  0  0  0  0  0
    5.7845    0.1998   -3.4296 H   0  0  0  0  0  0  0  0  0  0  0  0
    5.1879    1.7669   -2.8768 H   0  0  0  0  0  0  0  0  0  0  0  0
    4.1698    0.7424   -3.9059 H   0  0  0  0  0  0  0  0  0  0  0  0
    4.2899    4.5035   -0.4447 H   0  0  0  0  0  0  0  0  0  0  0  0
    2.6462    4.8046    0.1638 H   0  0  0  0  0  0  0  0  0  0  0  0
    3.0517    5.2680   -1.5030 H   0  0  0  0  0  0  0  0  0  0  0  0
    2.4119   -1.1516   -0.3250 H   0  0  0  0  0  0  0  0  0  0  0  0
    3.3946   -0.1302    0.7145 H   0  0  0  0  0  0  0  0  0  0  0  0
    5.0825    0.0448   -1.0370 H   0  0  0  0  0  0  0  0  0  0  0  0
    4.1020   -1.0004   -2.0516 H   0  0  0  0  0  0  0  0  0  0  0  0
    2.0192   -1.0560   -2.4426 H   0  0  0  0  0  0  0  0  0  0  0  0
  1 17  1  0
  1 15  1  0
  2 19  1  0
  2  5  1  0
  3 21  1  0
  3 22  1  0
  4  1  1  0
  4 25  1  0
  5  9  1  0
  5 26  1  0
  6  9  1  0
  7 13  2  0
  8 11  1  0
  9  7  1  0
  9  4  1  0
 10  6  2  0
 10  8  1  0
 11  3  1  0
 11  7  1  0
 12 28  1  0
 12  6  1  0
 14  8  2  0
 16  1  1  0
 18  2  1  0
 20  2  1  0
 23  3  1  0
 24  4  1  0
 27  5  1  0
M  END
>  <HBA>  (693) 
5

>  <HBD>  (693) 
1

>  <TPSA>  (693) 
66.48

>  <cid>  (693) 
4099

>  <dipole>  (693) 
4.95

>  <excitation_energy_1>  (693) 
4.508

>  <excitation_energy_2>  (693) 
4.832

>  <excitation_energy_3>  (693) 
5.084

>  <excitation_energy_4>  (693) 
5.328

>  <homo_energy>  (693) 
-7.238

>  <homo_lumo_gap>  (693) 
5.788

>  <logP>  (693) 
0.768

>  <lumo_energy>  (693) 
-1.45

>  <melting_point>  (693) 
117.03

>  <molecular_refractivity>  (693) 
57.52

>  <oscillator_strength_1>  (693) 
0.0005

>  <oscillator_strength_2>  (693) 
0.0003

>  <oscillator_strength_3>  (693) 
0.0116

>  <oscillator_strength_4>  (693) 
0.0389

>  <open_babel_can_smiles>  (693) 
CCC1(CC)C(=NC(=O)N(C1=O)C)O

>  <mulliken_charges>  (693) 
28
1   -0.470903
2   -0.469455
3   -0.31995
4   -0.26875
5   -0.272154
6   0.556499
7   0.647975
8   0.703661
9   -0.136232
10   -0.49473
11   -0.518279
12   -0.571411
13   -0.517523
14   -0.464338
15   0.161299
16   0.16893
17   0.167873
18   0.161178
19   0.167747
20   0.167901
21   0.187561
22   0.174832
23   0.195697
24   0.124084
25   0.185587
26   0.186373
27   0.123529
28   0.423001

>  <lowdin_charges>  (693) 
28
1   -0.45339
2   -0.45293
3   -0.350256
4   -0.264874
5   -0.265361
6   0.162881
7   0.161197
8   0.188138
9   -0.05678
10   -0.185828
11   -0.090334
12   -0.322593
13   -0.282816
14   -0.244571
15   0.162749
16   0.159657
17   0.15919
18   0.162476
19   0.159018
20   0.15926
21   0.173532
22   0.16372
23   0.180883
24   0.135851
25   0.171147
26   0.171752
27   0.135084
28   0.363197

$$$$
PCCDB-ID:  4101
     RDKit          3D

 22 24  0  0  1  0  0  0  0  0999 V2000
   -0.7342    0.9798    1.1598 C   0  0  0  0  0  0  0  0  0  0  0  0
   -0.9400    0.7185   -1.2020 C   0  0  0  0  0  0  0  0  0  0  0  0
   -1.1924   -1.1700    0.2336 C   0  0  0  0  0  0  0  0  0  0  0  0
    1.1927    1.1696   -0.2330 C   0  0  0  0  0  0  0  0  0  0  0  0
    0.9399   -0.7190    1.2019 C   0  0  0  0  0  0  0  0  0  0  0  0
    0.7340   -0.9794   -1.1603 C   0  0  0  0  0  0  0  0  0  0  0  0
   -1.4776    0.2724    0.0987 N   0  0  0  0  0  0  0  0  0  0  0  0
    0.7206    0.7371    1.0975 N   0  0  0  0  0  0  0  0  0  0  0  0
    0.5087    0.4690   -1.3379 N   0  0  0  0  0  0  0  0  0  0  0  0
    0.2483   -1.4781    0.1415 N   0  0  0  0  0  0  0  0  0  0  0  0
   -1.1080    0.6494    2.1357 H   0  0  0  0  0  0  0  0  0  0  0  0
   -0.9191    2.0561    1.0662 H   0  0  0  0  0  0  0  0  0  0  0  0
   -1.1272    1.7927   -1.3138 H   0  0  0  0  0  0  0  0  0  0  0  0
   -1.4681    0.1908   -2.0043 H   0  0  0  0  0  0  0  0  0  0  0  0
   -1.7226   -1.7120   -0.5579 H   0  0  0  0  0  0  0  0  0  0  0  0
   -1.5690   -1.5175    1.2025 H   0  0  0  0  0  0  0  0  0  0  0  0
    2.2699    0.9816   -0.3062 H   0  0  0  0  0  0  0  0  0  0  0  0
    1.0227    2.2474   -0.3368 H   0  0  0  0  0  0  0  0  0  0  0  0
    0.5797   -1.0638    2.1780 H   0  0  0  0  0  0  0  0  0  0  0  0
    2.0153   -0.9215    1.1402 H   0  0  0  0  0  0  0  0  0  0  0  0
    1.8077   -1.1843   -1.2408 H   0  0  0  0  0  0  0  0  0  0  0  0
    0.2184   -1.5199   -1.9622 H   0  0  0  0  0  0  0  0  0  0  0  0
  1 11  1  0
  3 16  1  0
  5 19  1  0
  7  2  1  0
  7  3  1  0
  7  1  1  0
  8  4  1  0
  8  1  1  0
  8  5  1  0
  9  2  1  0
  9  6  1  0
  9  4  1  0
 10  6  1  0
 10  3  1  0
 10  5  1  0
 12  1  1  0
 13  2  1  0
 14  2  1  0
 15  3  1  0
 17  4  1  0
 18  4  1  0
 20  5  1  0
 21  6  1  0
 22  6  1  0
M  END
>  <HBA>  (694) 
4

>  <HBD>  (694) 
0

>  <TPSA>  (694) 
12.96

>  <cid>  (694) 
4101

>  <dipole>  (694) 
0.0

>  <excitation_energy_1>  (694) 
5.42

>  <excitation_energy_2>  (694) 
5.421

>  <excitation_energy_3>  (694) 
5.423

>  <excitation_energy_4>  (694) 
5.943

>  <homo_energy>  (694) 
-5.891

>  <homo_lumo_gap>  (694) 
7.872

>  <logP>  (694) 
-1.268

>  <lumo_energy>  (694) 
1.981

>  <melting_point>  (694) 
51.72

>  <molecular_refractivity>  (694) 
51.86

>  <oscillator_strength_1>  (694) 
0.0

>  <oscillator_strength_2>  (694) 
0.0

>  <oscillator_strength_3>  (694) 
0.0

>  <oscillator_strength_4>  (694) 
0.0

>  <open_babel_can_smiles>  (694) 
C1N2CN3CN1CN(C2)C3

>  <mulliken_charges>  (694) 
22
1   -0.062016
2   -0.062313
3   -0.062262
4   -0.062177
5   -0.062317
6   -0.062368
7   -0.358685
8   -0.358699
9   -0.358608
10   -0.358303
11   0.150569
12   0.150608
13   0.150628
14   0.150675
15   0.150638
16   0.150661
17   0.15068
18   0.150668
19   0.15066
20   0.150643
21   0.150655
22   0.150662

>  <lowdin_charges>  (694) 
22
1   -0.153706
2   -0.154835
3   -0.155885
4   -0.152072
5   -0.153704
6   -0.15486
7   -0.211862
8   -0.211803
9   -0.211832
10   -0.211667
11   0.148114
12   0.146397
13   0.146463
14   0.149736
15   0.149756
16   0.148287
17   0.146344
18   0.146326
19   0.148128
20   0.146434
21   0.146495
22   0.149746

$$$$
PCCDB-ID:  4109
     RDKit          3D

 20 19  0  0  1  0  0  0  0  0999 V2000
    1.6129    1.9713    0.2731 C   0  0  0  0  0  0  0  0  0  0  0  0
    1.7709   -2.4239    2.7083 C   0  0  0  0  0  0  0  0  0  0  0  0
    4.1137   -1.2391   -0.8091 C   0  0  0  0  0  0  0  0  0  0  0  0
    2.4424    0.7150    0.2880 C   0  0  0  0  0  3  0  0  0  0  0  0
    2.1746   -0.2369    3.5769 C   0  0  0  0  0  0  0  0  0  0  0  0
    2.1162   -1.4835    3.7574 N   0  0  0  0  0  0  0  0  0  0  0  0
    2.6641   -0.0314    1.3093 N   0  0  0  0  0  2  0  0  0  0  0  0
    2.3678    0.6210    4.6055 O   0  0  0  0  0  0  0  0  0  0  0  0
    2.0136    0.5351    2.4535 O   0  0  0  0  0  0  0  0  0  0  0  0
    3.1745    0.2606   -1.2573 S   0  0  0  0  0  0  0  0  0  0  0  0
    2.0499    2.7111    0.9518 H   0  0  0  0  0  0  0  0  0  0  0  0
    0.6031    1.7543    0.6358 H   0  0  0  0  0  0  0  0  0  0  0  0
    1.5504    2.3978   -0.7308 H   0  0  0  0  0  0  0  0  0  0  0  0
    2.6753   -2.8288    2.2381 H   0  0  0  0  0  0  0  0  0  0  0  0
    1.1434   -1.9987    1.9155 H   0  0  0  0  0  0  0  0  0  0  0  0
    1.2335   -3.2621    3.1659 H   0  0  0  0  0  0  0  0  0  0  0  0
    4.6191   -1.5621   -1.7223 H   0  0  0  0  0  0  0  0  0  0  0  0
    3.4409   -2.0229   -0.4565 H   0  0  0  0  0  0  0  0  0  0  0  0
    4.8474   -1.0109   -0.0338 H   0  0  0  0  0  0  0  0  0  0  0  0
    2.3470    0.0617    5.4020 H   0  0  0  0  0  0  0  0  0  0  0  0
  1  4  1  0
  1 12  1  0
  1 11  1  0
  2 16  1  0
  2  6  1  0
  3 18  1  0
  3 19  1  0
  4 10  1  0
  4  7  1  0
  5  6  2  0
  5  8  1  0
  7  9  1  0
  8 20  1  0
  9  5  1  0
 10  3  1  0
 13  1  1  0
 14  2  1  0
 15  2  1  0
 17  3  1  0
M  RAD  2   4   2   7   2
M  END
>  <HBA>  (695) 
5

>  <HBD>  (695) 
1

>  <TPSA>  (695) 
75.99

>  <cid>  (695) 
4109

>  <dipole>  (695) 
1.43

>  <excitation_energy_1>  (695) 
5.068

>  <excitation_energy_2>  (695) 
5.411

>  <excitation_energy_3>  (695) 
5.661

>  <excitation_energy_4>  (695) 
5.686

>  <homo_energy>  (695) 
-6.196

>  <homo_lumo_gap>  (695) 
5.989

>  <logP>  (695) 
1.43

>  <lumo_energy>  (695) 
-0.207

>  <melting_point>  (695) 
53.24

>  <molecular_refractivity>  (695) 
41.9

>  <oscillator_strength_1>  (695) 
0.008

>  <oscillator_strength_2>  (695) 
0.2086

>  <oscillator_strength_3>  (695) 
0.0146

>  <oscillator_strength_4>  (695) 
0.0003

>  <open_babel_can_smiles>  (695) 
CS[C]([N]O/C(=N/C)/O)C

>  <mulliken_charges>  (695) 
20
1   -0.486609
2   -0.304964
3   -0.59015
4   0.112028
5   0.683369
6   -0.442807
7   -0.178672
8   -0.574744
9   -0.405455
10   0.162762
11   0.200245
12   0.193973
13   0.172097
14   0.155452
15   0.143539
16   0.148954
17   0.185028
18   0.202539
19   0.20594
20   0.417473

>  <lowdin_charges>  (695) 
20
1   -0.448284
2   -0.352821
3   -0.541191
4   -0.079649
5   0.179639
6   -0.251933
7   -0.080025
8   -0.355661
9   -0.147223
10   0.190495
11   0.185994
12   0.180853
13   0.170834
14   0.152469
15   0.14192
16   0.149343
17   0.178524
18   0.178156
19   0.180756
20   0.367805

$$$$
PCCDB-ID:  4113
     RDKit          3D

  8  7  0  0  0  0  0  0  0  0999 V2000
    1.0156   -0.0430   -0.0933 C   0  0  0  0  0  0  0  0  0  0  0  0
    2.8356    1.2258    0.5786 N   0  0  0  0  0  0  0  0  0  0  0  0
    2.3945   -0.1050    0.2308 O   0  0  0  0  0  0  0  0  0  0  0  0
    0.7301   -1.0683   -0.3496 H   0  0  0  0  0  0  0  0  0  0  0  0
    0.8284    0.6162   -0.9517 H   0  0  0  0  0  0  0  0  0  0  0  0
    0.4128    0.3047    0.7566 H   0  0  0  0  0  0  0  0  0  0  0  0
    3.6295    1.3769   -0.0487 H   0  0  0  0  0  0  0  0  0  0  0  0
    3.2506    1.0967    1.5046 H   0  0  0  0  0  0  0  0  0  0  0  0
  1  3  1  0
  1  6  1  0
  2  8  1  0
  3  2  1  0
  4  1  1  0
  5  1  1  0
  7  2  1  0
M  END
>  <HBA>  (696) 
2

>  <HBD>  (696) 
1

>  <TPSA>  (696) 
35.25

>  <cid>  (696) 
4113

>  <dipole>  (696) 
0.57

>  <excitation_energy_1>  (696) 
6.511

>  <excitation_energy_2>  (696) 
6.65

>  <excitation_energy_3>  (696) 
7.137

>  <excitation_energy_4>  (696) 
7.151

>  <homo_energy>  (696) 
-6.89

>  <homo_lumo_gap>  (696) 
9.132

>  <logP>  (696) 
0.207

>  <lumo_energy>  (696) 
2.242

>  <melting_point>  (696) 
24.4

>  <molecular_refractivity>  (696) 
10.71

>  <oscillator_strength_1>  (696) 
0.0313

>  <oscillator_strength_2>  (696) 
0.0094

>  <oscillator_strength_3>  (696) 
0.0407

>  <oscillator_strength_4>  (696) 
0.0024

>  <open_babel_can_smiles>  (696) 
CON

>  <mulliken_charges>  (696) 
8
1   -0.158708
2   -0.48015
3   -0.409449
4   0.147804
5   0.13605
6   0.135954
7   0.31425
8   0.314249

>  <lowdin_charges>  (696) 
8
1   -0.27985
2   -0.404853
3   -0.253842
4   0.149137
5   0.136949
6   0.137474
7   0.257862
8   0.257123

$$$$
PCCDB-ID:  4114
     RDKit          3D

 24 26  0  0  0  0  0  0  0  0999 V2000
    1.4927    0.2368   -1.2207 C   0  0  0  0  0  0  0  0  0  0  0  0
    2.5755    5.3674   -0.1673 C   0  0  0  0  0  0  0  0  0  0  0  0
    1.2455    5.4280   -0.4019 C   0  0  0  0  0  0  0  0  0  0  0  0
    6.5331    2.2344    0.6233 C   0  0  0  0  0  0  0  0  0  0  0  0
    6.4153    0.8859    0.6242 C   0  0  0  0  0  0  0  0  0  0  0  0
    4.6373    4.0165    0.2318 C   0  0  0  0  0  0  0  0  0  0  0  0
    3.2615    4.1070   -0.0244 C   0  0  0  0  0  0  0  0  0  0  0  0
    5.2078    2.7522    0.3684 C   0  0  0  0  0  0  0  0  0  0  0  0
    0.4375    4.2214   -0.5225 C   0  0  0  0  0  0  0  0  0  0  0  0
    4.3893    1.6093    0.2324 C   0  0  0  0  0  0  0  0  0  0  0  0
    2.4687    2.9339   -0.1407 C   0  0  0  0  0  0  0  0  0  0  0  0
    3.0173    1.6462   -0.0250 C   0  0  0  0  0  0  0  0  0  0  0  0
   -0.7493    4.1685   -0.7427 O   0  0  0  0  0  0  0  0  0  0  0  0
    2.3171    0.4826   -0.0702 O   0  0  0  0  0  0  0  0  0  0  0  0
    5.1244    0.4723    0.3866 O   0  0  0  0  0  0  0  0  0  0  0  0
    1.1205    3.0138   -0.3624 O   0  0  0  0  0  0  0  0  0  0  0  0
    1.2055   -0.8139   -1.1497 H   0  0  0  0  0  0  0  0  0  0  0  0
    2.0618    0.3970   -2.1446 H   0  0  0  0  0  0  0  0  0  0  0  0
    0.6032    0.8699   -1.2187 H   0  0  0  0  0  0  0  0  0  0  0  0
    3.1600    6.2806   -0.0799 H   0  0  0  0  0  0  0  0  0  0  0  0
    0.7126    6.3648   -0.5148 H   0  0  0  0  0  0  0  0  0  0  0  0
    7.4397    2.8006    0.7843 H   0  0  0  0  0  0  0  0  0  0  0  0
    7.1261    0.0869    0.7725 H   0  0  0  0  0  0  0  0  0  0  0  0
    5.2303    4.9219    0.3210 H   0  0  0  0  0  0  0  0  0  0  0  0
  1 19  1  0
  1 17  1  0
  1 14  1  0
  2 20  1  0
  2  7  1  0
  3  2  2  0
  4  5  2  0
  4 22  1  0
  5 23  1  0
  6 24  1  0
  6  8  1  0
  7  6  2  0
  8  4  1  0
  9  3  1  0
  9 16  1  0
 10  8  2  0
 10 15  1  0
 11 12  2  0
 11  7  1  0
 12 10  1  0
 13  9  2  0
 14 12  1  0
 15  5  1  0
 16 11  1  0
 18  1  1  0
 21  3  1  0
M  END
>  <HBA>  (697) 
4

>  <HBD>  (697) 
0

>  <TPSA>  (697) 
52.58

>  <cid>  (697) 
4114

>  <dipole>  (697) 
5.04

>  <excitation_energy_1>  (697) 
3.574

>  <excitation_energy_2>  (697) 
4.169

>  <excitation_energy_3>  (697) 
4.517

>  <excitation_energy_4>  (697) 
4.935

>  <homo_energy>  (697) 
-5.976

>  <homo_lumo_gap>  (697) 
4.191

>  <logP>  (697) 
2.548

>  <lumo_energy>  (697) 
-1.785

>  <melting_point>  (697) 
133.0

>  <molecular_refractivity>  (697) 
58.75

>  <oscillator_strength_1>  (697) 
0.0218

>  <oscillator_strength_2>  (697) 
0.2321

>  <oscillator_strength_3>  (697) 
0.0018

>  <oscillator_strength_4>  (697) 
0.1852

>  <open_babel_can_smiles>  (697) 
COc1c2oc(=O)ccc2cc2c1occ2

>  <mulliken_charges>  (697) 
24
1   -0.224833
2   -0.122536
3   -0.223178
4   -0.219698
5   0.087697
6   -0.29141
7   0.137448
8   0.146766
9   0.599408
10   0.279076
11   0.263139
12   0.266871
13   -0.467208
14   -0.52217
15   -0.468465
16   -0.527597
17   0.167562
18   0.14716
19   0.190367
20   0.154946
21   0.163947
22   0.153604
23   0.168122
24   0.140983

>  <lowdin_charges>  (697) 
24
1   -0.273557
2   -0.105244
3   -0.204977
4   -0.208748
5   -0.049185
6   -0.165042
7   -0.039552
8   -0.02875
9   0.192376
10   0.076377
11   0.080063
12   0.061098
13   -0.240081
14   -0.202465
15   -0.098648
16   -0.136506
17   0.160016
18   0.145244
19   0.16367
20   0.170438
21   0.182513
22   0.176512
23   0.178568
24   0.165879

$$$$
PCCDB-ID:  4133
     RDKit          3D

 19 19  0  0  0  0  0  0  0  0999 V2000
    3.1963   -0.2455    1.0923 C   0  0  0  0  0  0  0  0  0  0  0  0
    1.6099   -2.1803   -4.4550 C   0  0  0  0  0  0  0  0  0  0  0  0
    1.5260   -3.5528   -4.2074 C   0  0  0  0  0  0  0  0  0  0  0  0
    1.9589   -1.3282   -3.4155 C   0  0  0  0  0  0  0  0  0  0  0  0
    1.7894   -4.0495   -2.9360 C   0  0  0  0  0  0  0  0  0  0  0  0
    2.2301   -1.8010   -2.1202 C   0  0  0  0  0  0  0  0  0  0  0  0
    2.1413   -3.1914   -1.8828 C   0  0  0  0  0  0  0  0  0  0  0  0
    2.5906   -0.7554   -1.1170 C   0  0  0  0  0  0  0  0  0  0  0  0
    2.3944   -3.6939   -0.6442 O   0  0  0  0  0  0  0  0  0  0  0  0
    2.6498    0.4317   -1.3847 O   0  0  0  0  0  0  0  0  0  0  0  0
    2.8474   -1.2360    0.1148 O   0  0  0  0  0  0  0  0  0  0  0  0
    3.3548   -0.7981    2.0190 H   0  0  0  0  0  0  0  0  0  0  0  0
    2.3893    0.4827    1.2104 H   0  0  0  0  0  0  0  0  0  0  0  0
    4.1073    0.2830    0.7984 H   0  0  0  0  0  0  0  0  0  0  0  0
    1.4063   -1.7834   -5.4446 H   0  0  0  0  0  0  0  0  0  0  0  0
    1.2546   -4.2408   -5.0037 H   0  0  0  0  0  0  0  0  0  0  0  0
    2.0338   -0.2575   -3.5720 H   0  0  0  0  0  0  0  0  0  0  0  0
    1.7230   -5.1193   -2.7435 H   0  0  0  0  0  0  0  0  0  0  0  0
    2.2824   -4.6574   -0.6804 H   0  0  0  0  0  0  0  0  0  0  0  0
  1 13  1  0
  1 12  1  0
  2  3  2  0
  2  4  1  0
  3  5  1  0
  4  6  2  0
  5 18  1  0
  5  7  2  0
  6  7  1  0
  6  8  1  0
  7  9  1  0
  8 11  1  0
 10  8  2  0
 11  1  1  0
 14  1  1  0
 15  2  1  0
 16  3  1  0
 17  4  1  0
 19  9  1  0
M  END
>  <HBA>  (698) 
3

>  <HBD>  (698) 
1

>  <TPSA>  (698) 
46.53

>  <cid>  (698) 
4133

>  <dipole>  (698) 
3.19

>  <excitation_energy_1>  (698) 
4.521

>  <excitation_energy_2>  (698) 
4.901

>  <excitation_energy_3>  (698) 
5.41

>  <excitation_energy_4>  (698) 
5.422

>  <homo_energy>  (698) 
-6.27

>  <homo_lumo_gap>  (698) 
5.222

>  <logP>  (698) 
1.179

>  <lumo_energy>  (698) 
-1.048

>  <melting_point>  (698) 
70.24

>  <molecular_refractivity>  (698) 
39.74

>  <oscillator_strength_1>  (698) 
0.0841

>  <oscillator_strength_2>  (698) 
0.0001

>  <oscillator_strength_3>  (698) 
0.0

>  <oscillator_strength_4>  (698) 
0.1378

>  <open_babel_can_smiles>  (698) 
COC(=O)c1ccccc1O

>  <mulliken_charges>  (698) 
19
1   -0.215376
2   -0.139866
3   -0.122379
4   -0.167969
5   -0.197981
6   0.033559
7   0.302013
8   0.599173
9   -0.615592
10   -0.499492
11   -0.446537
12   0.162515
13   0.16856
14   0.16793
15   0.134903
16   0.137956
17   0.168553
18   0.121396
19   0.408635

>  <lowdin_charges>  (698) 
19
1   -0.279078
2   -0.17924
3   -0.131241
4   -0.116616
5   -0.214007
6   -0.077643
7   0.117874
8   0.195878
9   -0.351096
10   -0.280745
11   -0.17294
12   0.1594
13   0.159297
14   0.158442
15   0.161299
16   0.163321
17   0.178892
18   0.152878
19   0.355325

$$$$
PCCDB-ID:  4138
     RDKit          3D

 28 28  0  0  1  0  0  0  0  0999 V2000
    0.7349   -0.0679    0.3088 C   0  0  0  0  0  0  0  0  0  0  0  0
    3.3287   -2.5958   -1.9167 C   0  0  0  0  0  0  0  0  0  0  0  0
    2.9820   -3.7356   -2.6507 C   0  0  0  0  0  0  0  0  0  0  0  0
    1.3447   -1.4996   -2.7119 C   0  0  0  0  0  0  0  0  0  0  0  0
    2.8704   -0.2315   -1.1241 C   0  0  0  0  0  0  0  0  0  0  0  0
    2.5110   -1.4614   -1.9282 C   0  0  0  0  0  0  0  0  0  0  0  0
    1.8199   -3.7682   -3.4160 C   0  0  0  0  0  0  0  0  0  0  0  0
    0.9921   -2.6264   -3.4500 C   0  0  0  0  0  0  0  0  0  0  0  0
    2.8593    1.1248    0.9445 C   0  0  0  0  0  0  0  0  0  0  0  0
    2.2655   -0.1671    0.3179 C   0  0  1  0  0  0  0  0  0  0  0  0
    2.7700   -1.3154    1.1032 N   0  0  0  0  0  0  0  0  0  0  0  0
    1.4267   -4.8442   -4.1579 O   0  0  0  0  0  0  0  0  0  0  0  0
   -0.1277   -2.6970   -4.2261 O   0  0  0  0  0  0  0  0  0  0  0  0
    2.4459    2.2319    0.6849 O   0  0  0  0  0  0  0  0  0  0  0  0
    3.9053    0.9016    1.7544 O   0  0  0  0  0  0  0  0  0  0  0  0
    0.4120    0.8481   -0.1928 H   0  0  0  0  0  0  0  0  0  0  0  0
    0.3492   -0.0323    1.3352 H   0  0  0  0  0  0  0  0  0  0  0  0
    0.2930   -0.9330   -0.1950 H   0  0  0  0  0  0  0  0  0  0  0  0
    4.2593   -2.5887   -1.3545 H   0  0  0  0  0  0  0  0  0  0  0  0
    3.6319   -4.6089   -2.6366 H   0  0  0  0  0  0  0  0  0  0  0  0
    0.7013   -0.6223   -2.7606 H   0  0  0  0  0  0  0  0  0  0  0  0
    2.5488    0.6779   -1.6414 H   0  0  0  0  0  0  0  0  0  0  0  0
    3.9609   -0.1713   -1.0253 H   0  0  0  0  0  0  0  0  0  0  0  0
    2.8090   -2.1512    0.5211 H   0  0  0  0  0  0  0  0  0  0  0  0
    2.1312   -1.5229    1.8702 H   0  0  0  0  0  0  0  0  0  0  0  0
    2.0912   -5.5443   -4.0632 H   0  0  0  0  0  0  0  0  0  0  0  0
   -0.5934   -1.8477   -4.1755 H   0  0  0  0  0  0  0  0  0  0  0  0
    3.9827   -0.0880    1.7856 H   0  0  0  0  0  0  0  0  0  0  0  0
  1 10  1  0
  1 17  1  0
  2 19  1  0
  3 20  1  0
  3  2  2  0
  4  6  2  0
  5 23  1  0
  5 10  1  0
  6  2  1  0
  6  5  1  0
  7  3  1  0
  8  7  2  0
  8  4  1  0
  9 15  1  0
 10  9  1  1
 10 11  1  0
 11 25  1  0
 12 26  1  0
 12  7  1  0
 13 27  1  0
 13  8  1  0
 14  9  2  0
 15 28  1  0
 16  1  1  0
 18  1  1  0
 21  4  1  0
 22  5  1  0
 24 11  1  0
M  END
>  <HBA>  (699) 
5

>  <HBD>  (699) 
4

>  <TPSA>  (699) 
103.78

>  <cid>  (699) 
4138

>  <dipole>  (699) 
4.89

>  <excitation_energy_1>  (699) 
4.783

>  <excitation_energy_2>  (699) 
4.908

>  <excitation_energy_3>  (699) 
5.186

>  <excitation_energy_4>  (699) 
5.323

>  <homo_energy>  (699) 
-5.91

>  <homo_lumo_gap>  (699) 
5.616

>  <logP>  (699) 
1.143

>  <lumo_energy>  (699) 
-0.294

>  <melting_point>  (699) 
229.54

>  <molecular_refractivity>  (699) 
54.39

>  <oscillator_strength_1>  (699) 
0.0737

>  <oscillator_strength_2>  (699) 
0.0006

>  <oscillator_strength_3>  (699) 
0.0024

>  <oscillator_strength_4>  (699) 
0.0632

>  <open_babel_can_smiles>  (699) 
OC(=O)[C@@](Cc1ccc(c(c1)O)O)(N)C

>  <mulliken_charges>  (699) 
28
1   -0.466275
2   -0.218325
3   -0.196144
4   -0.26006
5   -0.374655
6   0.166084
7   0.319742
8   0.330831
9   0.620327
10   0.100418
11   -0.791898
12   -0.628149
13   -0.629635
14   -0.477879
15   -0.588379
16   0.177088
17   0.146216
18   0.152206
19   0.134332
20   0.124849
21   0.125411
22   0.176663
23   0.160598
24   0.326828
25   0.318721
26   0.409432
27   0.410556
28   0.431098

>  <lowdin_charges>  (699) 
28
1   -0.455286
2   -0.190511
3   -0.205965
4   -0.21588
5   -0.272925
6   -0.01875
7   0.078484
8   0.08336
9   0.174513
10   0.024989
11   -0.550076
12   -0.365716
13   -0.364197
14   -0.262525
15   -0.355887
16   0.170133
17   0.151837
18   0.15567
19   0.1591
20   0.157413
21   0.157335
22   0.170482
23   0.158358
24   0.271319
25   0.267417
26   0.360841
27   0.360087
28   0.356379

$$$$
PCCDB-ID:  4156
     RDKit          3D

 12 11  0  0  0  0  0  0  0  0999 V2000
    2.5072    0.8139   -0.5683 C   0  0  0  0  0  0  0  0  0  0  0  0
    2.4324   -2.8497    0.8877 C   0  0  0  0  0  0  0  0  0  0  0  0
    2.2872   -2.0739   -1.6661 O   0  0  0  0  0  1  0  0  0  0  0  0
    4.4262   -1.6160   -0.3957 O   0  0  0  0  0  1  0  0  0  0  0  0
    2.3007   -0.3816    0.2196 O   0  0  0  0  0  0  0  0  0  0  0  0
    2.9699   -1.7420   -0.4167 S   0  0  0  0  0  0  0  0  0  0  0  0
    2.0093    1.6092   -0.0131 H   0  0  0  0  0  0  0  0  0  0  0  0
    2.0530    0.7001   -1.5564 H   0  0  0  0  0  0  0  0  0  0  0  0
    3.5756    1.0280   -0.6599 H   0  0  0  0  0  0  0  0  0  0  0  0
    2.8022   -3.8429    0.6247 H   0  0  0  0  0  0  0  0  0  0  0  0
    1.3426   -2.8437    0.9272 H   0  0  0  0  0  0  0  0  0  0  0  0
    2.8648   -2.5167    1.8319 H   0  0  0  0  0  0  0  0  0  0  0  0
  1  7  1  0
  1  5  1  0
  2 11  1  0
  2 12  1  0
  3  6  1  0
  6  4  1  0
  6  5  1  0
  6  2  1  0
  8  1  1  0
  9  1  1  0
 10  2  1  0
M  RAD  2   3   2   4   2
M  END
>  <HBA>  (700) 
3

>  <HBD>  (700) 
0

>  <TPSA>  (700) 
51.75

>  <cid>  (700) 
4156

>  <dipole>  (700) 
2.98

>  <excitation_energy_1>  (700) 
7.044

>  <excitation_energy_2>  (700) 
7.543

>  <excitation_energy_3>  (700) 
7.792

>  <excitation_energy_4>  (700) 
7.832

>  <homo_energy>  (700) 
-7.913

>  <homo_lumo_gap>  (700) 
9.091

>  <logP>  (700) 
0.673

>  <lumo_energy>  (700) 
1.178

>  <melting_point>  (700) 
-0.87

>  <molecular_refractivity>  (700) 
21.78

>  <oscillator_strength_1>  (700) 
0.0014

>  <oscillator_strength_2>  (700) 
0.0133

>  <oscillator_strength_3>  (700) 
0.0008

>  <oscillator_strength_4>  (700) 
0.0077

>  <open_babel_can_smiles>  (700) 
COS([O])([O])C

>  <mulliken_charges>  (700) 
12
1   -0.236633
2   -0.636541
3   -0.507207
4   -0.507016
5   -0.527788
6   1.203537
7   0.181819
8   0.186287
9   0.186218
10   0.21945
11   0.218914
12   0.218961

>  <lowdin_charges>  (700) 
12
1   -0.279396
2   -0.581526
3   -0.577249
4   -0.57631
5   -0.422167
6   1.336449
7   0.172238
8   0.165447
9   0.164453
10   0.200108
11   0.197983
12   0.199971

$$$$
PCCDB-ID:  4158
     RDKit          3D

 36 37  0  0  1  0  0  0  0  0999 V2000
    4.5736    0.5349    0.9106 C   0  0  0  0  0  0  0  0  0  0  0  0
    3.4382    1.4422   -5.4386 C   0  0  0  0  0  0  0  0  0  0  0  0
    2.9702    0.2996   -4.7864 C   0  0  0  0  0  0  0  0  0  0  0  0
    3.4213    2.6686   -4.7738 C   0  0  0  0  0  0  0  0  0  0  0  0
   -1.6587    1.3592    0.2087 C   0  0  0  0  0  0  0  0  0  0  0  0
   -2.3838    2.2700   -0.7925 C   0  0  0  0  0  0  0  0  0  0  0  0
    2.4842    0.3826   -3.4818 C   0  0  0  0  0  0  0  0  0  0  0  0
    2.9349    2.7497   -3.4682 C   0  0  0  0  0  0  0  0  0  0  0  0
   -0.1374    1.5787    0.1605 C   0  0  0  0  0  0  0  0  0  0  0  0
   -1.7702    2.1188   -2.1942 C   0  0  0  0  0  0  0  0  0  0  0  0
    2.4535    1.6126   -2.8109 C   0  0  0  0  0  0  0  0  0  0  0  0
    0.3928    1.4427   -1.2840 C   0  0  2  0  0  0  0  0  0  0  0  0
    1.9137    1.7176   -1.3851 C   0  0  1  0  0  0  0  0  0  0  0  0
    2.6937    0.7586   -0.4926 C   0  0  0  0  0  0  0  0  0  0  0  0
   -0.3160    2.3102   -2.2335 N   0  0  0  0  0  0  0  0  0  0  0  0
    2.4519   -0.4233   -0.3550 O   0  0  0  0  0  0  0  0  0  0  0  0
    3.7291    1.3799    0.1106 O   0  0  0  0  0  0  0  0  0  0  0  0
    4.0035    0.0859    1.7284 H   0  0  0  0  0  0  0  0  0  0  0  0
    5.3551    1.1877    1.3002 H   0  0  0  0  0  0  0  0  0  0  0  0
    5.0057   -0.2623    0.3002 H   0  0  0  0  0  0  0  0  0  0  0  0
    3.8163    1.3759   -6.4553 H   0  0  0  0  0  0  0  0  0  0  0  0
    2.9858   -0.6617   -5.2935 H   0  0  0  0  0  0  0  0  0  0  0  0
    3.7860    3.5644   -5.2698 H   0  0  0  0  0  0  0  0  0  0  0  0
   -1.8752    0.3092   -0.0368 H   0  0  0  0  0  0  0  0  0  0  0  0
   -2.0338    1.5249    1.2263 H   0  0  0  0  0  0  0  0  0  0  0  0
   -2.2918    3.3183   -0.4704 H   0  0  0  0  0  0  0  0  0  0  0  0
   -3.4574    2.0403   -0.8198 H   0  0  0  0  0  0  0  0  0  0  0  0
    2.1388   -0.5131   -2.9739 H   0  0  0  0  0  0  0  0  0  0  0  0
    2.9277    3.7086   -2.9547 H   0  0  0  0  0  0  0  0  0  0  0  0
    0.3646    0.8619    0.8207 H   0  0  0  0  0  0  0  0  0  0  0  0
    0.1013    2.5878    0.5324 H   0  0  0  0  0  0  0  0  0  0  0  0
   -2.2249    2.8245   -2.8996 H   0  0  0  0  0  0  0  0  0  0  0  0
   -1.9790    1.1101   -2.5782 H   0  0  0  0  0  0  0  0  0  0  0  0
    0.2220    0.4086   -1.6119 H   0  0  0  0  0  0  0  0  0  0  0  0
    2.1109    2.7333   -1.0214 H   0  0  0  0  0  0  0  0  0  0  0  0
   -0.1069    3.2848   -2.0102 H   0  0  0  0  0  0  0  0  0  0  0  0
  1 19  1  0
  1 18  1  0
  2  3  2  0
  2  4  1  0
  3  7  1  0
  4  8  2  0
  5 25  1  0
  6 26  1  0
  6  5  1  0
  7 28  1  0
  7 11  2  0
  8 29  1  0
  8 11  1  0
  9  5  1  0
  9 31  1  0
  9 30  1  0
 10  6  1  0
 11 13  1  0
 12 34  1  6
 12  9  1  0
 13 12  1  0
 13 35  1  1
 13 14  1  0
 14 16  2  0
 14 17  1  0
 15 10  1  0
 15 36  1  0
 15 12  1  0
 17  1  1  0
 20  1  1  0
 21  2  1  0
 22  3  1  0
 23  4  1  0
 24  5  1  0
 27  6  1  0
 32 10  1  0
 33 10  1  0
M  END
>  <HBA>  (701) 
3

>  <HBD>  (701) 
1

>  <TPSA>  (701) 
38.33

>  <cid>  (701) 
4158

>  <dipole>  (701) 
1.89

>  <excitation_energy_1>  (701) 
4.719

>  <excitation_energy_2>  (701) 
4.959

>  <excitation_energy_3>  (701) 
5.209

>  <excitation_energy_4>  (701) 
5.281

>  <homo_energy>  (701) 
-5.733

>  <homo_lumo_gap>  (701) 
5.597

>  <logP>  (701) 
2.414

>  <lumo_energy>  (701) 
-0.136

>  <melting_point>  (701) 
64.7

>  <molecular_refractivity>  (701) 
70.94

>  <oscillator_strength_1>  (701) 
0.0056

>  <oscillator_strength_2>  (701) 
0.007

>  <oscillator_strength_3>  (701) 
0.0074

>  <oscillator_strength_4>  (701) 
0.0024

>  <open_babel_can_smiles>  (701) 
COC(=O)[C@@H](c1ccccc1)[C@H]1CCCCN1

>  <mulliken_charges>  (701) 
36
1   -0.220646
2   -0.127465
3   -0.132716
4   -0.129869
5   -0.264123
6   -0.26128
7   -0.175673
8   -0.181153
9   -0.273869
10   -0.1424
11   0.193725
12   0.047416
13   -0.286716
14   0.64341
15   -0.53837
16   -0.493264
17   -0.455436
18   0.169592
19   0.165267
20   0.173461
21   0.126383
22   0.128595
23   0.126295
24   0.134891
25   0.133575
26   0.122343
27   0.130211
28   0.150966
29   0.119199
30   0.147758
31   0.117429
32   0.138286
33   0.140528
34   0.149286
35   0.144054
36   0.280309

>  <lowdin_charges>  (701) 
36
1   -0.282754
2   -0.157036
3   -0.153482
4   -0.156506
5   -0.275728
6   -0.291914
7   -0.161251
8   -0.162734
9   -0.299588
10   -0.208263
11   0.011589
12   -0.06279
13   -0.14937
14   0.199602
15   -0.350999
16   -0.271377
17   -0.184121
18   0.16009
19   0.162262
20   0.162445
21   0.155222
22   0.156983
23   0.156953
24   0.139889
25   0.144013
26   0.133358
27   0.14317
28   0.167513
29   0.152198
30   0.154271
31   0.13252
32   0.147011
33   0.140899
34   0.148187
35   0.15584
36   0.243897

$$$$
PCCDB-ID:  4173
     RDKit          3D

 21 21  0  0  0  0  0  0  0  0999 V2000
    1.0022    0.0483   -0.0096 C   0  0  0  0  0  0  0  0  0  0  0  0
    2.9598    2.3996    0.0752 C   0  0  0  0  0  0  0  0  0  0  0  0
    2.9159    3.0026    1.4737 C   0  0  0  0  0  0  0  0  0  0  0  0
    4.4518   -0.9449    0.1312 C   0  0  0  0  0  0  0  0  0  0  0  0
    2.4883   -0.0798    0.0526 C   0  0  0  0  0  0  0  0  0  0  0  0
    4.6209    0.4254    0.1323 C   0  0  0  0  0  0  0  0  0  0  0  0
    3.1322   -1.2478    0.0833 N   0  0  0  0  0  0  0  0  0  0  0  0
    3.3459    0.9837    0.0743 N   0  0  0  0  0  0  0  0  0  0  0  0
    5.8386    1.1468    0.1883 N   0  0  0  0  0  0  0  0  0  0  0  0
    1.8824    2.3516    2.2026 O   0  0  0  0  0  0  0  0  0  0  0  0
    6.8800    0.4847    0.1782 O   0  0  0  0  0  0  0  0  0  0  0  0
    5.7995    2.3879    0.2507 O   0  0  0  0  0  0  0  0  0  0  0  0
    0.5764   -0.9551    0.0439 H   0  0  0  0  0  0  0  0  0  0  0  0
    0.6715    0.5124   -0.9477 H   0  0  0  0  0  0  0  0  0  0  0  0
    0.6236    0.6518    0.8207 H   0  0  0  0  0  0  0  0  0  0  0  0
    3.6691    2.9524   -0.5385 H   0  0  0  0  0  0  0  0  0  0  0  0
    1.9692    2.4623   -0.3810 H   0  0  0  0  0  0  0  0  0  0  0  0
    2.7195    4.0816    1.3706 H   0  0  0  0  0  0  0  0  0  0  0  0
    3.8963    2.8811    1.9508 H   0  0  0  0  0  0  0  0  0  0  0  0
    5.2281   -1.6956    0.1643 H   0  0  0  0  0  0  0  0  0  0  0  0
    1.9735    2.5857    3.1379 H   0  0  0  0  0  0  0  0  0  0  0  0
  1 13  1  0
  1  5  1  0
  1 15  1  0
  2  3  1  0
  3 19  1  0
  3 10  1  0
  4  6  2  0
  4 20  1  0
  5  8  1  0
  5  7  2  0
  6  9  1  0
  7  4  1  0
  8  2  1  0
  8  6  1  0
  9 12  1  0
 10 21  1  0
 11  9  2  0
 14  1  1  0
 16  2  1  0
 17  2  1  0
 18  3  1  0
M  CHG  2   9   1  12  -1
M  END
>  <HBA>  (702) 
3

>  <HBD>  (702) 
1

>  <TPSA>  (702) 
83.87

>  <cid>  (702) 
4173

>  <dipole>  (702) 
4.6

>  <excitation_energy_1>  (702) 
3.802

>  <excitation_energy_2>  (702) 
4.136

>  <excitation_energy_3>  (702) 
4.231

>  <excitation_energy_4>  (702) 
4.664

>  <homo_energy>  (702) 
-6.803

>  <homo_lumo_gap>  (702) 
4.553

>  <logP>  (702) 
0.615

>  <lumo_energy>  (702) 
-2.25

>  <melting_point>  (702) 
83.58

>  <molecular_refractivity>  (702) 
43.25

>  <oscillator_strength_1>  (702) 
0.001

>  <oscillator_strength_2>  (702) 
0.2289

>  <oscillator_strength_3>  (702) 
0.002

>  <oscillator_strength_4>  (702) 
0.003

>  <open_babel_can_smiles>  (702) 
OCCn1c(C)ncc1N(=O)=O

>  <mulliken_charges>  (702) 
21
1   -0.548745
2   -0.168064
3   -0.038109
4   0.010013
5   0.500743
6   0.484631
7   -0.468267
8   -0.472807
9   0.329744
10   -0.616041
11   -0.403051
12   -0.43643
13   0.194422
14   0.169278
15   0.206603
16   0.200426
17   0.174158
18   0.138243
19   0.16027
20   0.177775
21   0.405207

>  <lowdin_charges>  (702) 
21
1   -0.455684
2   -0.204135
3   -0.136531
4   -0.102388
5   0.088975
6   -0.016427
7   -0.185617
8   0.000359
9   0.307594
10   -0.470031
11   -0.253794
12   -0.282977
13   0.184448
14   0.167048
15   0.185152
16   0.18372
17   0.167064
18   0.137502
19   0.14752
20   0.185879
21   0.352324

$$$$
PCCDB-ID:  4176
     RDKit          3D

 30 29  0  0  0  0  0  0  0  0999 V2000
    3.3265    2.4755    3.9354 C   0  0  0  0  0  0  0  0  0  0  0  0
    3.7631    1.2490   -1.9131 C   0  0  0  0  0  0  0  0  0  0  0  0
    7.7045    1.8492   -3.4619 C   0  0  0  0  0  0  0  0  0  0  0  0
    7.5014   -2.4148   -2.6629 C   0  0  0  0  0  0  0  0  0  0  0  0
    3.0676    1.0442    3.4877 C   0  0  0  0  0  0  0  0  0  0  0  0
    4.7587    0.4477    0.2994 C   0  0  0  0  0  0  0  0  0  0  0  0
    4.7800    0.5873   -1.0407 C   0  0  0  0  0  0  0  0  0  0  0  0
    3.7006    0.9481    1.1893 C   0  0  0  0  0  0  0  0  0  0  0  0
    2.6867    1.5534    0.8821 O   0  0  0  0  0  0  0  0  0  0  0  0
    4.9621   -0.9174   -3.9021 O   0  0  0  0  0  0  0  0  0  0  0  0
    6.5555    1.1115   -3.9239 O   0  0  0  0  0  0  0  0  0  0  0  0
    7.4938   -1.0652   -3.1715 O   0  0  0  0  0  0  0  0  0  0  0  0
    4.0104    0.6294    2.4745 O   0  0  0  0  0  0  0  0  0  0  0  0
    5.9151    0.0720   -1.6526 O   0  0  0  0  0  0  0  0  0  0  0  0
    6.1083   -0.2637   -3.2478 P   0  0  0  0  0  0  0  0  0  0  0  0
    2.6495    2.7377    4.7568 H   0  0  0  0  0  0  0  0  0  0  0  0
    3.1519    3.1718    3.1106 H   0  0  0  0  0  0  0  0  0  0  0  0
    4.3566    2.5931    4.2879 H   0  0  0  0  0  0  0  0  0  0  0  0
    4.2392    2.0269   -2.5227 H   0  0  0  0  0  0  0  0  0  0  0  0
    2.9805    1.6877   -1.2960 H   0  0  0  0  0  0  0  0  0  0  0  0
    3.3305    0.5183   -2.6050 H   0  0  0  0  0  0  0  0  0  0  0  0
    7.7153    2.7773   -4.0345 H   0  0  0  0  0  0  0  0  0  0  0  0
    8.6179    1.2800   -3.6508 H   0  0  0  0  0  0  0  0  0  0  0  0
    7.6172    2.0716   -2.3942 H   0  0  0  0  0  0  0  0  0  0  0  0
    8.4960   -2.8114   -2.8696 H   0  0  0  0  0  0  0  0  0  0  0  0
    6.7443   -3.0178   -3.1711 H   0  0  0  0  0  0  0  0  0  0  0  0
    7.3180   -2.4097   -1.5842 H   0  0  0  0  0  0  0  0  0  0  0  0
    2.0536    0.9317    3.0961 H   0  0  0  0  0  0  0  0  0  0  0  0
    3.2212    0.3357    4.3059 H   0  0  0  0  0  0  0  0  0  0  0  0
    5.5844   -0.0666    0.7780 H   0  0  0  0  0  0  0  0  0  0  0  0
  1 18  1  0
  1 16  1  0
  2 20  1  0
  2  7  1  0
  3 24  1  0
  4 27  1  0
  5  1  1  0
  5 29  1  0
  6 30  1  0
  6  8  1  0
  7  6  2  0
  8 13  1  0
  9  8  2  0
 10 15  2  0
 11  3  1  0
 11 15  1  0
 12  4  1  0
 13  5  1  0
 14  7  1  0
 15 12  1  0
 15 14  1  0
 17  1  1  0
 19  2  1  0
 21  2  1  0
 22  3  1  0
 23  3  1  0
 25  4  1  0
 26  4  1  0
 28  5  1  0
M  END
>  <HBA>  (703) 
6

>  <HBD>  (703) 
0

>  <TPSA>  (703) 
80.87

>  <cid>  (703) 
4176

>  <dipole>  (703) 
4.31

>  <excitation_energy_1>  (703) 
4.898

>  <excitation_energy_2>  (703) 
5.534

>  <excitation_energy_3>  (703) 
6.208

>  <excitation_energy_4>  (703) 
6.377

>  <homo_energy>  (703) 
-6.817

>  <homo_lumo_gap>  (703) 
5.842

>  <logP>  (703) 
1.871

>  <lumo_energy>  (703) 
-0.974

>  <melting_point>  (703) 
-11.31

>  <molecular_refractivity>  (703) 
53.3

>  <oscillator_strength_1>  (703) 
0.0

>  <oscillator_strength_2>  (703) 
0.6172

>  <oscillator_strength_3>  (703) 
0.0019

>  <oscillator_strength_4>  (703) 
0.0475

>  <open_babel_can_smiles>  (703) 
CCOC(=O)/C=C(/OP(=O)(OC)OC)\C

>  <mulliken_charges>  (703) 
30
1   -0.461583
2   -0.573251
3   -0.227254
4   -0.224717
5   -0.039544
6   -0.282571
7   0.416711
8   0.627792
9   -0.510195
10   -0.5403
11   -0.507326
12   -0.521444
13   -0.477127
14   -0.583048
15   1.264263
16   0.148203
17   0.175747
18   0.15496
19   0.175858
20   0.221197
21   0.217397
22   0.178924
23   0.181187
24   0.171662
25   0.176503
26   0.188886
27   0.173779
28   0.169783
29   0.150047
30   0.15546

>  <lowdin_charges>  (703) 
30
1   -0.455597
2   -0.475586
3   -0.266613
4   -0.265693
5   -0.129213
6   -0.253373
7   0.162701
8   0.202658
9   -0.289369
10   -0.565285
11   -0.377812
12   -0.38825
13   -0.199245
14   -0.349974
15   1.131838
16   0.158295
17   0.165683
18   0.15392
19   0.174415
20   0.19758
21   0.195759
22   0.167393
23   0.16463
24   0.157591
25   0.16591
26   0.171173
27   0.15782
28   0.157504
29   0.151747
30   0.179393

$$$$
PCCDB-ID:  4197
     RDKit          3D

 25 26  0  0  0  0  0  0  0  0999 V2000
    1.0920    0.4143    0.4929 C   0  0  0  0  0  0  0  0  0  0  0  0
    1.1165   -2.5228   -0.7882 C   0  0  0  0  0  0  0  0  0  0  0  0
    2.6065   -3.4978    0.8047 C   0  0  0  0  0  0  0  0  0  0  0  0
    0.4079   -3.7237   -0.7751 C   0  0  0  0  0  0  0  0  0  0  0  0
    1.8293   -4.6539    0.7430 C   0  0  0  0  0  0  0  0  0  0  0  0
    4.4622   -1.2619   -0.1363 C   0  0  0  0  0  0  0  0  0  0  0  0
    6.6841   -0.1739   -0.3169 C   0  0  0  0  0  0  0  0  0  0  0  0
    2.5546    0.1486    0.2366 C   0  0  0  0  0  0  0  0  0  0  0  0
    2.2518   -2.3880    0.0237 C   0  0  0  0  0  0  0  0  0  0  0  0
    5.2707   -0.1223   -0.1358 C   0  0  0  0  0  0  0  0  0  0  0  0
    3.0808   -1.1535    0.0370 C   0  0  0  0  0  0  0  0  0  0  0  0
    4.6346    1.1311    0.0470 C   0  0  0  0  0  0  0  0  0  0  0  0
    7.8400   -0.1294   -0.4576 N   0  0  0  0  0  0  0  0  0  0  0  0
    0.7423   -4.7827   -0.0276 N   0  0  0  0  0  0  0  0  0  0  0  0
    3.3291    1.2428    0.2349 N   0  0  0  0  0  0  0  0  0  0  0  0
    5.3170    2.2912    0.0487 O   0  0  0  0  0  0  0  0  0  0  0  0
    0.5975   -0.4248    0.9878 H   0  0  0  0  0  0  0  0  0  0  0  0
    0.5614    0.6058   -0.4488 H   0  0  0  0  0  0  0  0  0  0  0  0
    0.9974    1.3143    1.1047 H   0  0  0  0  0  0  0  0  0  0  0  0
    0.7984   -1.7143   -1.4387 H   0  0  0  0  0  0  0  0  0  0  0  0
    3.4669   -3.4554    1.4665 H   0  0  0  0  0  0  0  0  0  0  0  0
   -0.4727   -3.8418   -1.4045 H   0  0  0  0  0  0  0  0  0  0  0  0
    2.0926   -5.5200    1.3479 H   0  0  0  0  0  0  0  0  0  0  0  0
    4.9173   -2.2355   -0.2892 H   0  0  0  0  0  0  0  0  0  0  0  0
    6.2649    2.1173   -0.0918 H   0  0  0  0  0  0  0  0  0  0  0  0
  1 17  1  0
  1 19  1  0
  2  4  2  0
  2  9  1  0
  3 21  1  0
  4 14  1  0
  5  3  1  0
  5 23  1  0
  6 10  2  0
  6 11  1  0
  7 10  1  0
  8  1  1  0
  9 11  1  0
  9  3  2  0
 10 12  1  0
 11  8  2  0
 12 16  1  0
 12 15  2  0
 13  7  3  0
 14  5  2  0
 15  8  1  0
 18  1  1  0
 20  2  1  0
 22  4  1  0
 24  6  1  0
 25 16  1  0
M  END
>  <HBA>  (704) 
3

>  <HBD>  (704) 
1

>  <TPSA>  (704) 
69.54

>  <cid>  (704) 
4197

>  <dipole>  (704) 
1.8

>  <excitation_energy_1>  (704) 
4.386

>  <excitation_energy_2>  (704) 
4.576

>  <excitation_energy_3>  (704) 
4.62

>  <excitation_energy_4>  (704) 
4.793

>  <homo_energy>  (704) 
-6.876

>  <homo_lumo_gap>  (704) 
4.966

>  <logP>  (704) 
1.617

>  <lumo_energy>  (704) 
-1.91

>  <melting_point>  (704) 
182.39

>  <molecular_refractivity>  (704) 
59.97

>  <oscillator_strength_1>  (704) 
0.1094

>  <oscillator_strength_2>  (704) 
0.0016

>  <oscillator_strength_3>  (704) 
0.0232

>  <oscillator_strength_4>  (704) 
0.0681

>  <open_babel_can_smiles>  (704) 
N#Cc1cc(c2ccncc2)c(nc1O)C

>  <mulliken_charges>  (704) 
25
1   -0.516053
2   -0.171765
3   -0.175346
4   0.037792
5   0.038493
6   -0.152231
7   0.203979
8   0.280841
9   0.078328
10   0.110683
11   0.02697
12   0.481353
13   -0.477941
14   -0.402883
15   -0.503965
16   -0.585519
17   0.172918
18   0.177046
19   0.188356
20   0.143247
21   0.143434
22   0.148308
23   0.148716
24   0.174667
25   0.430574

>  <lowdin_charges>  (704) 
25
1   -0.45045
2   -0.179274
3   -0.18083
4   -0.085659
5   -0.086263
6   -0.099315
7   -0.028096
8   0.088108
9   0.017723
10   -0.089155
11   -0.049764
12   0.153191
13   -0.114584
14   -0.144193
15   -0.153698
16   -0.326206
17   0.169495
18   0.171857
19   0.179054
20   0.167957
21   0.166812
22   0.160419
23   0.161436
24   0.181263
25   0.370173

$$$$
PCCDB-ID:  4198
     RDKit          3D

 28 29  0  0  0  0  0  0  0  0999 V2000
    0.9447    0.0126   -0.0518 C   0  0  0  0  0  0  0  0  0  0  0  0
    8.8467    1.4195    0.0771 C   0  0  0  0  0  0  0  0  0  0  0  0
    2.9830   -3.5837   -0.1934 C   0  0  0  0  0  0  0  0  0  0  0  0
    5.2748    2.5749    0.1299 C   0  0  0  0  0  0  0  0  0  0  0  0
    6.7098    0.2084   -0.0045 C   0  0  0  0  0  0  0  0  0  0  0  0
    2.4475    0.0431   -0.0389 C   0  0  0  0  0  0  0  0  0  0  0  0
    4.6093    1.3868    0.0546 C   0  0  0  0  0  0  0  0  0  0  0  0
    5.3357    0.1577   -0.0138 C   0  0  0  0  0  0  0  0  0  0  0  0
    6.7225    2.6472    0.1429 C   0  0  0  0  0  0  0  0  0  0  0  0
    3.1084    1.3565    0.0416 C   0  0  0  0  0  0  0  0  0  0  0  0
    4.6680   -1.1460   -0.0984 C   0  0  0  0  0  0  0  0  0  0  0  0
    3.1685   -1.1210   -0.1026 C   0  0  0  0  0  0  0  0  0  0  0  0
    7.3823    1.3770    0.0684 N   0  0  0  0  0  0  0  0  0  0  0  0
    7.3995    3.6661    0.2085 O   0  0  0  0  0  0  0  0  0  0  0  0
    2.4685    2.4036    0.0980 O   0  0  0  0  0  0  0  0  0  0  0  0
    5.3009   -2.2005   -0.1635 O   0  0  0  0  0  0  0  0  0  0  0  0
    2.4430   -2.2515   -0.1842 O   0  0  0  0  0  0  0  0  0  0  0  0
    0.5702   -0.4522   -0.9717 H   0  0  0  0  0  0  0  0  0  0  0  0
    0.5545    1.0284    0.0218 H   0  0  0  0  0  0  0  0  0  0  0  0
    0.5583   -0.5865    0.7811 H   0  0  0  0  0  0  0  0  0  0  0  0
    9.2323    0.4004    0.0281 H   0  0  0  0  0  0  0  0  0  0  0  0
    9.1942    1.9124    0.9880 H   0  0  0  0  0  0  0  0  0  0  0  0
    9.2030    2.0003   -0.7769 H   0  0  0  0  0  0  0  0  0  0  0  0
    2.0989   -4.2244   -0.2152 H   0  0  0  0  0  0  0  0  0  0  0  0
    3.5725   -3.7832    0.7029 H   0  0  0  0  0  0  0  0  0  0  0  0
    3.6004   -3.7588   -1.0755 H   0  0  0  0  0  0  0  0  0  0  0  0
    4.7309    3.5107    0.1812 H   0  0  0  0  0  0  0  0  0  0  0  0
    7.2945   -0.7038   -0.0560 H   0  0  0  0  0  0  0  0  0  0  0  0
  1  6  1  0
  1 19  1  0
  1 20  1  0
  2 22  1  0
  3 17  1  0
  3 25  1  0
  4  9  1  0
  4 27  1  0
  5 13  1  0
  6 10  1  0
  7  4  2  0
  8  5  2  0
  8  7  1  0
  9 14  2  0
 10  7  1  0
 10 15  2  0
 11  8  1  0
 12 11  1  0
 12  6  2  0
 13  2  1  0
 13  9  1  0
 16 11  2  0
 17 12  1  0
 18  1  1  0
 21  2  1  0
 23  2  1  0
 24  3  1  0
 26  3  1  0
 28  5  1  0
M  END
>  <HBA>  (705) 
5

>  <HBD>  (705) 
0

>  <TPSA>  (705) 
65.37

>  <cid>  (705) 
4198

>  <dipole>  (705) 
4.94

>  <excitation_energy_1>  (705) 
2.924

>  <excitation_energy_2>  (705) 
2.925

>  <excitation_energy_3>  (705) 
3.215

>  <excitation_energy_4>  (705) 
3.505

>  <homo_energy>  (705) 
-6.332

>  <homo_lumo_gap>  (705) 
3.461

>  <logP>  (705) 
0.685

>  <lumo_energy>  (705) 
-2.871

>  <melting_point>  (705) 
141.65

>  <molecular_refractivity>  (705) 
60.46

>  <oscillator_strength_1>  (705) 
0.0523

>  <oscillator_strength_2>  (705) 
0.0037

>  <oscillator_strength_3>  (705) 
0.0007

>  <oscillator_strength_4>  (705) 
0.2025

>  <open_babel_can_smiles>  (705) 
COC1=C(C)C(=O)c2c(C1=O)cn(c(=O)c2)C

>  <mulliken_charges>  (705) 
28
1   -0.516791
2   -0.316997
3   -0.199883
4   -0.30472
5   0.073739
6   0.024009
7   0.133081
8   -0.039284
9   0.620801
10   0.362165
11   0.36569
12   0.291212
13   -0.466897
14   -0.519467
15   -0.483654
16   -0.510602
17   -0.50022
18   0.16849
19   0.188884
20   0.167566
21   0.167265
22   0.199106
23   0.198541
24   0.1621
25   0.17337
26   0.17622
27   0.18718
28   0.199095

>  <lowdin_charges>  (705) 
28
1   -0.441178
2   -0.342795
3   -0.268976
4   -0.165958
5   -0.041292
6   -0.059006
7   -0.007598
8   -0.103221
9   0.15388
10   0.142646
11   0.136731
12   0.082133
13   -0.015463
14   -0.289907
15   -0.242803
16   -0.26267
17   -0.172561
18   0.167445
19   0.17615
20   0.16757
21   0.16311
22   0.179006
23   0.178933
24   0.157703
25   0.161218
26   0.162522
27   0.195928
28   0.188453

$$$$
PCCDB-ID:  4201
     RDKit          3D

 30 31  0  0  1  0  0  0  0  0999 V2000
    0.7789    1.3009   -0.2201 C   0  0  0  0  0  0  0  0  0  0  0  0
    1.5150   -0.0412   -0.1390 C   0  0  0  0  0  0  0  0  0  0  0  0
   -0.4608    1.2708    0.6808 C   0  0  0  0  0  0  0  0  0  0  0  0
    0.5796   -1.2219   -0.4420 C   0  0  0  0  0  0  0  0  0  0  0  0
   -1.3578    0.0761    0.3429 C   0  0  0  0  0  0  0  0  0  0  0  0
   -0.6374   -3.6116    0.7276 C   0  0  0  0  0  0  0  0  0  0  0  0
   -1.2843   -4.6941    1.3098 C   0  0  0  0  0  3  0  0  0  0  0  0
   -1.2208   -2.3225    0.8964 C   0  0  0  0  0  0  0  0  0  0  0  0
   -3.0200   -3.1835    2.1048 C   0  0  0  0  0  0  0  0  0  0  0  0
   -0.8442   -5.9893    1.2766 N   0  0  0  0  0  0  0  0  0  0  0  0
   -4.1493   -3.2359    2.7398 N   0  0  0  0  0  2  0  0  0  0  0  0
   -2.3753   -2.1345    1.5495 N   0  0  0  0  0  0  0  0  0  0  0  0
   -0.6118   -1.1873    0.4024 N   0  0  0  0  0  0  0  0  0  0  0  0
   -2.4103   -4.4546    2.0055 N   0  0  0  0  0  0  0  0  0  0  0  0
   -3.1251   -5.5179    2.5449 O   0  0  0  0  0  0  0  0  0  0  0  0
    0.4698    1.4861   -1.2596 H   0  0  0  0  0  0  0  0  0  0  0  0
    1.4483    2.1229    0.0614 H   0  0  0  0  0  0  0  0  0  0  0  0
    1.9284   -0.1730    0.8698 H   0  0  0  0  0  0  0  0  0  0  0  0
    2.3574   -0.0698   -0.8415 H   0  0  0  0  0  0  0  0  0  0  0  0
   -1.0437    2.1942    0.5732 H   0  0  0  0  0  0  0  0  0  0  0  0
   -0.1541    1.2011    1.7329 H   0  0  0  0  0  0  0  0  0  0  0  0
    1.1247   -2.1496   -0.2734 H   0  0  0  0  0  0  0  0  0  0  0  0
    0.2874   -1.1986   -1.5067 H   0  0  0  0  0  0  0  0  0  0  0  0
   -1.7694    0.2025   -0.6740 H   0  0  0  0  0  0  0  0  0  0  0  0
   -2.1957   -0.0035    1.0321 H   0  0  0  0  0  0  0  0  0  0  0  0
    0.2674   -3.7980    0.1693 H   0  0  0  0  0  0  0  0  0  0  0  0
   -0.1998   -6.2265    0.5370 H   0  0  0  0  0  0  0  0  0  0  0  0
   -1.5325   -6.6949    1.5039 H   0  0  0  0  0  0  0  0  0  0  0  0
   -4.5802   -2.3181    2.8041 H   0  0  0  0  0  0  0  0  0  0  0  0
   -3.9187   -4.9903    2.8793 H   0  0  0  0  0  0  0  0  0  0  0  0
  1  2  1  0
  1 17  1  0
  1  3  1  0
  2 18  1  0
  3 21  1  0
  4 22  1  0
  4  2  1  0
  4 13  1  0
  5 13  1  0
  5  3  1  0
  5 25  1  0
  6  8  2  0
  6  7  1  0
  7 10  1  0
  7 14  1  0
  8 12  1  0
  9 11  1  0
 10 28  1  0
 11 29  1  0
 12  9  2  0
 13  8  1  0
 14  9  1  0
 14 15  1  0
 15 30  1  0
 16  1  1  0
 19  2  1  0
 20  3  1  0
 23  4  1  0
 24  5  1  0
 26  6  1  0
 27 10  1  0
M  RAD  2   7   2  11   2
M  END
>  <HBA>  (706) 
6

>  <HBD>  (706) 
3

>  <TPSA>  (706) 
91.16

>  <cid>  (706) 
4201

>  <dipole>  (706) 
4.76

>  <excitation_energy_1>  (706) 
4.332

>  <excitation_energy_2>  (706) 
4.439

>  <excitation_energy_3>  (706) 
4.894

>  <excitation_energy_4>  (706) 
5.014

>  <homo_energy>  (706) 
-5.097

>  <homo_lumo_gap>  (706) 
5.148

>  <logP>  (706) 
0.918

>  <lumo_energy>  (706) 
0.052

>  <melting_point>  (706) 
199.43

>  <molecular_refractivity>  (706) 
60.15

>  <oscillator_strength_1>  (706) 
0.0575

>  <oscillator_strength_2>  (706) 
0.0272

>  <oscillator_strength_3>  (706) 
0.0198

>  <oscillator_strength_4>  (706) 
0.1246

>  <open_babel_can_smiles>  (706) 
N[C]1C=C(N=C(N1O)[NH])N1CCCCC1

>  <mulliken_charges>  (706) 
30
1   -0.265437
2   -0.26128
3   -0.263364
4   -0.129415
5   -0.136886
6   -0.314469
7   0.62646
8   0.572863
9   0.699616
10   -0.794984
11   -0.7922
12   -0.625394
13   -0.493145
14   -0.282652
15   -0.553924
16   0.129545
17   0.13818
18   0.144141
19   0.134908
20   0.13635
21   0.143949
22   0.154816
23   0.135603
24   0.128195
25   0.199653
26   0.120599
27   0.340179
28   0.366031
29   0.296114
30   0.445948

>  <lowdin_charges>  (706) 
30
1   -0.280464
2   -0.28207
3   -0.281416
4   -0.193238
5   -0.20008
6   -0.339916
7   0.137455
8   0.135334
9   0.116418
10   -0.457863
11   -0.51895
12   -0.272831
13   -0.103951
14   0.062275
15   -0.390958
16   0.137228
17   0.147816
18   0.146215
19   0.147993
20   0.148689
21   0.145396
22   0.156578
23   0.132419
24   0.131168
25   0.182507
26   0.163045
27   0.292334
28   0.302815
29   0.266523
30   0.369529

$$$$
PCCDB-ID:  4255
     RDKit          3D

 33 34  0  0  1  0  0  0  0  0999 V2000
    1.0404   -1.0525   -1.6930 C   0  0  0  0  0  0  0  0  0  0  0  0
    1.6062   -1.7646   -0.4716 C   0  0  0  0  0  0  0  0  0  0  0  0
    8.9387    2.8593    1.1364 C   0  0  0  0  0  0  0  0  0  0  0  0
    7.8718    3.9256    3.0571 C   0  0  0  0  0  0  0  0  0  0  0  0
    8.7239    4.1626    0.3615 C   0  0  0  0  0  0  0  0  0  0  0  0
    7.7233    5.1982    2.2178 C   0  0  0  0  0  0  0  0  0  0  0  0
    4.5560    1.9524    1.6547 C   0  0  0  0  0  0  0  0  0  0  0  0
    6.6085    1.0247    1.1407 C   0  0  0  0  0  3  0  0  0  0  0  0
    5.2341    0.7664    0.9701 C   0  0  0  0  0  0  0  0  0  0  0  0
    3.3668   -0.3806    0.3154 C   0  0  0  0  0  0  0  0  0  0  0  0
    5.6244    2.8202    2.1488 N   0  0  0  0  0  2  0  0  0  0  0  0
    4.7437   -0.2881    0.3694 N   0  0  0  0  0  0  0  0  0  0  0  0
    7.9508    2.7051    2.2294 N   0  0  0  0  0  0  0  0  0  0  0  0
    6.7144    2.2064    1.8161 N   0  0  0  0  0  0  0  0  0  0  0  0
    2.5367    0.4125    0.7581 O   0  0  0  0  0  0  0  0  0  0  0  0
    8.7558    5.2790    1.2365 O   0  0  0  0  0  0  0  0  0  0  0  0
    3.0174   -1.5241   -0.3235 O   0  0  0  0  0  0  0  0  0  0  0  0
   -0.0152   -1.3174   -1.8275 H   0  0  0  0  0  0  0  0  0  0  0  0
    1.5864   -1.3410   -2.5974 H   0  0  0  0  0  0  0  0  0  0  0  0
    1.1098    0.0318   -1.5681 H   0  0  0  0  0  0  0  0  0  0  0  0
    1.5259   -2.8504   -0.5754 H   0  0  0  0  0  0  0  0  0  0  0  0
    1.0889   -1.4493    0.4385 H   0  0  0  0  0  0  0  0  0  0  0  0
    9.9202    2.8755    1.6210 H   0  0  0  0  0  0  0  0  0  0  0  0
    8.9012    1.9913    0.4766 H   0  0  0  0  0  0  0  0  0  0  0  0
    7.0529    3.8155    3.7682 H   0  0  0  0  0  0  0  0  0  0  0  0
    8.8198    3.9570    3.6048 H   0  0  0  0  0  0  0  0  0  0  0  0
    7.7669    4.1260   -0.1856 H   0  0  0  0  0  0  0  0  0  0  0  0
    9.5292    4.3076   -0.3654 H   0  0  0  0  0  0  0  0  0  0  0  0
    7.8304    6.0832    2.8518 H   0  0  0  0  0  0  0  0  0  0  0  0
    6.7353    5.2226    1.7385 H   0  0  0  0  0  0  0  0  0  0  0  0
    3.9046    1.6369    2.4785 H   0  0  0  0  0  0  0  0  0  0  0  0
    3.9089    2.5154    0.9722 H   0  0  0  0  0  0  0  0  0  0  0  0
    7.4641    0.4127    0.9122 H   0  0  0  0  0  0  0  0  0  0  0  0
  1 20  1  0
  1  2  1  0
  2 17  1  0
  2 22  1  0
  3 23  1  0
  3 13  1  0
  4 26  1  0
  4 25  1  0
  5  3  1  0
  5 16  1  0
  6 29  1  0
  6  4  1  0
  7 11  1  0
  7 31  1  0
  8 14  1  0
  9  8  1  0
  9  7  1  0
 10 12  1  0
 10 15  2  0
 12  9  2  0
 13  4  1  0
 14 11  1  0
 14 13  1  0
 16  6  1  0
 17 10  1  0
 18  1  1  0
 19  1  1  0
 21  2  1  0
 24  3  1  0
 27  5  1  0
 28  5  1  0
 30  6  1  0
 32  7  1  0
 33  8  1  0
M  RAD  2   8   2  11   2
M  END
>  <HBA>  (707) 
6

>  <HBD>  (707) 
0

>  <TPSA>  (707) 
72.49

>  <cid>  (707) 
4255

>  <dipole>  (707) 
4.32

>  <excitation_energy_1>  (707) 
3.425

>  <excitation_energy_2>  (707) 
3.638

>  <excitation_energy_3>  (707) 
4.35

>  <excitation_energy_4>  (707) 
4.739

>  <homo_energy>  (707) 
-5.633

>  <homo_lumo_gap>  (707) 
3.834

>  <logP>  (707) 
-0.291

>  <lumo_energy>  (707) 
-1.799

>  <melting_point>  (707) 
39.51

>  <molecular_refractivity>  (707) 
70.34

>  <oscillator_strength_1>  (707) 
0.0002

>  <oscillator_strength_2>  (707) 
0.3994

>  <oscillator_strength_3>  (707) 
0.0389

>  <oscillator_strength_4>  (707) 
0.0058

>  <open_babel_can_smiles>  (707) 
CCOC(=O)/N=C/1\C[N]N([CH]1)N1CCOCC1

>  <mulliken_charges>  (707) 
33
1   -0.459906
2   -0.032648
3   -0.17724
4   -0.164393
5   -0.035885
6   -0.047085
7   -0.202458
8   -0.00341
9   0.287498
10   0.709793
11   -0.293631
12   -0.566464
13   -0.282825
14   -0.00454
15   -0.530843
16   -0.462006
17   -0.46345
18   0.140692
19   0.153979
20   0.171002
21   0.144087
22   0.160592
23   0.179604
24   0.174504
25   0.195945
26   0.170362
27   0.143873
28   0.16173
29   0.158003
30   0.162068
31   0.216472
32   0.215196
33   0.181385

>  <lowdin_charges>  (707) 
33
1   -0.453629
2   -0.125845
3   -0.22094
4   -0.22259
5   -0.145126
6   -0.146129
7   -0.237019
8   -0.228813
9   0.073675
10   0.197231
11   -0.212147
12   -0.233221
13   -0.08673
14   0.196812
15   -0.331157
16   -0.271384
17   -0.187472
18   0.15219
19   0.154414
20   0.160858
21   0.145445
22   0.153948
23   0.165918
24   0.168795
25   0.181815
26   0.162903
27   0.138329
28   0.161676
29   0.159815
30   0.147
31   0.196794
32   0.197319
33   0.187267

$$$$
PCCDB-ID:  4263
     RDKit          3D

 23 23  0  0  1  0  0  0  0  0999 V2000
    0.7700    0.0741    0.0119 C   0  0  0  0  0  0  0  0  0  0  0  0
    1.6156    3.2862    0.2355 C   0  0  0  0  0  0  0  0  0  0  0  0
    2.8647   -2.0335    1.1791 C   0  0  0  0  0  0  0  0  0  0  0  0
    2.2560    0.1502    0.0192 C   0  0  0  0  0  0  0  0  0  0  0  0
    2.9790    2.6414    0.1225 C   0  0  0  0  0  0  0  0  0  0  0  0
    3.1383    1.1795    0.0410 C   0  0  0  0  0  0  0  0  0  0  0  0
    4.4957    0.5420   -0.0666 C   0  0  0  0  0  0  0  0  0  0  0  0
    3.0886   -1.1474   -0.0505 C   0  0  1  0  0  0  0  0  0  0  0  0
    4.4831   -0.7420   -0.1419 N   0  0  0  0  0  0  0  0  0  0  0  0
    3.9867    3.3576    0.1033 O   0  0  0  0  0  0  0  0  0  0  0  0
    5.6138    1.2613   -0.0947 O   0  0  0  0  0  0  0  0  0  0  0  0
    2.7022   -1.8857   -1.2118 O   0  0  0  0  0  0  0  0  0  0  0  0
    0.2735    1.0336   -0.1336 H   0  0  0  0  0  0  0  0  0  0  0  0
    0.4060   -0.3611    0.9529 H   0  0  0  0  0  0  0  0  0  0  0  0
    0.4657   -0.6140   -0.7863 H   0  0  0  0  0  0  0  0  0  0  0  0
    1.0551    2.8849    1.0866 H   0  0  0  0  0  0  0  0  0  0  0  0
    1.0248    3.0986   -0.6688 H   0  0  0  0  0  0  0  0  0  0  0  0
    1.7483    4.3627    0.3581 H   0  0  0  0  0  0  0  0  0  0  0  0
    3.0710   -1.4840    2.1035 H   0  0  0  0  0  0  0  0  0  0  0  0
    3.5463   -2.8854    1.1159 H   0  0  0  0  0  0  0  0  0  0  0  0
    1.8353   -2.4065    1.2016 H   0  0  0  0  0  0  0  0  0  0  0  0
    5.3373    2.2083   -0.0309 H   0  0  0  0  0  0  0  0  0  0  0  0
    3.4529   -1.8030   -1.8226 H   0  0  0  0  0  0  0  0  0  0  0  0
  1  4  1  0
  1 14  1  0
  2 18  1  0
  2 16  1  0
  3 21  1  0
  3 19  1  0
  4  6  2  0
  5  2  1  0
  6  5  1  0
  7  6  1  0
  8 12  1  6
  8  4  1  0
  8  3  1  0
  9  7  2  0
  9  8  1  0
 10  5  2  0
 11  7  1  0
 11 22  1  0
 13  1  1  0
 15  1  1  0
 17  2  1  0
 20  3  1  0
 23 12  1  0
M  END
>  <HBA>  (708) 
4

>  <HBD>  (708) 
2

>  <TPSA>  (708) 
66.4

>  <cid>  (708) 
4263

>  <dipole>  (708) 
4.8

>  <excitation_energy_1>  (708) 
3.637

>  <excitation_energy_2>  (708) 
3.846

>  <excitation_energy_3>  (708) 
4.154

>  <excitation_energy_4>  (708) 
4.773

>  <homo_energy>  (708) 
-6.623

>  <homo_lumo_gap>  (708) 
4.381

>  <logP>  (708) 
0.059

>  <lumo_energy>  (708) 
-2.242

>  <melting_point>  (708) 
110.92

>  <molecular_refractivity>  (708) 
46.3

>  <oscillator_strength_1>  (708) 
0.0074

>  <oscillator_strength_2>  (708) 
0.0007

>  <oscillator_strength_3>  (708) 
0.0035

>  <oscillator_strength_4>  (708) 
0.0019

>  <open_babel_can_smiles>  (708) 
CC(=O)C1=C(C)[C@@](N=C1O)(C)O

>  <mulliken_charges>  (708) 
23
1   -0.546001
2   -0.541165
3   -0.438549
4   0.102977
5   0.447614
6   -0.035523
7   0.490535
8   0.331728
9   -0.498325
10   -0.495992
11   -0.610848
12   -0.634174
13   0.165492
14   0.182438
15   0.204704
16   0.180282
17   0.184271
18   0.190301
19   0.148054
20   0.177301
21   0.148031
22   0.440579
23   0.406268

>  <lowdin_charges>  (708) 
23
1   -0.449651
2   -0.466665
3   -0.44448
4   0.055297
5   0.178398
6   -0.123506
7   0.129518
8   0.162299
9   -0.247656
10   -0.264119
11   -0.340265
12   -0.451861
13   0.164146
14   0.177443
15   0.188229
16   0.17575
17   0.177389
18   0.17812
19   0.156515
20   0.1732
21   0.153414
22   0.364139
23   0.354346

$$$$
PCCDB-ID:  4266
     RDKit          3D

 14 14  0  0  0  0  0  0  0  0999 V2000
   -0.9063    0.0645   -0.5802 C   0  0  0  0  0  0  0  0  0  0  0  0
   -0.4348   -2.4960   -0.2765 C   0  0  0  0  0  0  0  0  0  0  0  0
   -0.3778   -1.0314    0.0297 C   0  0  0  0  0  0  0  0  0  0  0  0
   -0.4377    1.1415    0.2318 C   0  0  0  0  0  0  0  0  0  0  0  0
   -1.6243   -2.7940   -1.0774 N   0  0  0  0  0  0  0  0  0  0  0  0
    0.3041    0.7424    1.2411 N   0  0  0  0  0  0  0  0  0  0  0  0
   -0.6665    2.4660    0.0824 O   0  0  0  0  0  0  0  0  0  0  0  0
    0.3361   -0.6599    1.1100 O   0  0  0  0  0  0  0  0  0  0  0  0
   -1.5249    0.0905   -1.4644 H   0  0  0  0  0  0  0  0  0  0  0  0
   -0.3520   -3.0488    0.6746 H   0  0  0  0  0  0  0  0  0  0  0  0
    0.4473   -2.7703   -0.8706 H   0  0  0  0  0  0  0  0  0  0  0  0
   -2.4578   -2.7208   -0.4965 H   0  0  0  0  0  0  0  0  0  0  0  0
   -1.5819   -3.7557   -1.4075 H   0  0  0  0  0  0  0  0  0  0  0  0
   -1.2116    2.5964   -0.7071 H   0  0  0  0  0  0  0  0  0  0  0  0
  1  3  2  0
  1  4  1  0
  2  3  1  0
  2 10  1  0
  3  8  1  0
  4  6  2  0
  5 12  1  0
  5  2  1  0
  7  4  1  0
  8  6  1  0
  9  1  1  0
 11  2  1  0
 13  5  1  0
 14  7  1  0
M  END
>  <HBA>  (709) 
3

>  <HBD>  (709) 
2

>  <TPSA>  (709) 
72.02

>  <cid>  (709) 
4266

>  <dipole>  (709) 
4.79

>  <excitation_energy_1>  (709) 
5.65

>  <excitation_energy_2>  (709) 
5.766

>  <excitation_energy_3>  (709) 
6.019

>  <excitation_energy_4>  (709) 
6.054

>  <homo_energy>  (709) 
-6.618

>  <homo_lumo_gap>  (709) 
6.553

>  <logP>  (709) 
0.127

>  <lumo_energy>  (709) 
-0.065

>  <melting_point>  (709) 
143.35

>  <molecular_refractivity>  (709) 
27.0

>  <oscillator_strength_1>  (709) 
0.0341

>  <oscillator_strength_2>  (709) 
0.0091

>  <oscillator_strength_3>  (709) 
0.0308

>  <oscillator_strength_4>  (709) 
0.0209

>  <open_babel_can_smiles>  (709) 
NCc1cc(no1)O

>  <mulliken_charges>  (709) 
14
1   -0.303599
2   -0.225727
3   0.435238
4   0.498622
5   -0.716087
6   -0.222457
7   -0.609978
8   -0.384068
9   0.157761
10   0.155658
11   0.178763
12   0.307037
13   0.309488
14   0.41935

>  <lowdin_charges>  (709) 
14
1   -0.281109
2   -0.205197
3   0.091702
4   0.099524
5   -0.547935
6   -0.110738
7   -0.352223
8   -0.079278
9   0.181448
10   0.145086
11   0.167498
12   0.260916
13   0.261366
14   0.36894

$$$$
PCCDB-ID:  4278
     RDKit          3D

 24 23  0  0  0  0  0  0  0  0999 V2000
    0.0538   -0.4449    1.0705 C   0  0  0  0  0  0  0  0  0  0  0  0
    1.9550   -1.6698    0.0383 C   0  0  0  0  0  0  0  0  0  0  0  0
    1.6087    1.5824   -5.2577 C   0  0  0  0  0  0  0  0  0  0  0  0
    3.5072    0.3529   -6.2891 C   0  0  0  0  0  0  0  0  0  0  0  0
    0.5978   -0.0476   -1.2586 C   0  0  0  0  0  0  0  0  0  0  0  0
    2.9583   -0.0470   -3.9616 C   0  0  0  0  0  0  0  0  0  0  0  0
    1.4075   -0.4966   -2.3932 N   0  0  0  0  0  2  0  0  0  0  0  0
    2.1481    0.4024   -2.8275 N   0  0  0  0  0  2  0  0  0  0  0  0
    0.8508   -0.7304   -0.1133 N   0  0  0  0  0  0  0  0  0  0  0  0
    2.7080    0.6371   -5.1066 N   0  0  0  0  0  0  0  0  0  0  0  0
   -0.2759    0.7853   -1.4344 O   0  0  0  0  0  0  0  0  0  0  0  0
    3.8302   -0.8818   -3.7856 O   0  0  0  0  0  0  0  0  0  0  0  0
   -0.4021   -1.3683    1.4489 H   0  0  0  0  0  0  0  0  0  0  0  0
   -0.7274    0.2653    0.8013 H   0  0  0  0  0  0  0  0  0  0  0  0
    0.6801   -0.0154    1.8630 H   0  0  0  0  0  0  0  0  0  0  0  0
    1.5826   -2.6156    0.4504 H   0  0  0  0  0  0  0  0  0  0  0  0
    2.7141   -1.2682    0.7226 H   0  0  0  0  0  0  0  0  0  0  0  0
    2.4218   -1.8669   -0.9269 H   0  0  0  0  0  0  0  0  0  0  0  0
    1.9870    2.5293   -5.6619 H   0  0  0  0  0  0  0  0  0  0  0  0
    1.1378    1.7752   -4.2936 H   0  0  0  0  0  0  0  0  0  0  0  0
    0.8516    1.1882   -5.9484 H   0  0  0  0  0  0  0  0  0  0  0  0
    3.9691    1.2756   -6.6622 H   0  0  0  0  0  0  0  0  0  0  0  0
    2.8811   -0.0698   -7.0854 H   0  0  0  0  0  0  0  0  0  0  0  0
    4.2839   -0.3626   -6.0207 H   0  0  0  0  0  0  0  0  0  0  0  0
  1 13  1  0
  1 15  1  0
  2 16  1  0
  2 17  1  0
  3 10  1  0
  3 20  1  0
  4 24  1  0
  4 10  1  0
  5  9  1  0
  6 12  2  0
  6  8  1  0
  7  5  1  0
  8  7  1  0
  9  2  1  0
  9  1  1  0
 10  6  1  0
 11  5  2  0
 14  1  1  0
 18  2  1  0
 19  3  1  0
 21  3  1  0
 22  4  1  0
 23  4  1  0
M  RAD  2   7   2   8   2
M  END
>  <HBA>  (710) 
6

>  <HBD>  (710) 
0

>  <TPSA>  (710) 
65.34

>  <cid>  (710) 
4278

>  <dipole>  (710) 
0.02

>  <excitation_energy_1>  (710) 
2.625

>  <excitation_energy_2>  (710) 
3.813

>  <excitation_energy_3>  (710) 
3.818

>  <excitation_energy_4>  (710) 
4.272

>  <homo_energy>  (710) 
-6.193

>  <homo_lumo_gap>  (710) 
4.155

>  <logP>  (710) 
0.802

>  <lumo_energy>  (710) 
-2.038

>  <melting_point>  (710) 
57.68

>  <molecular_refractivity>  (710) 
42.78

>  <oscillator_strength_1>  (710) 
0.0

>  <oscillator_strength_2>  (710) 
0.0

>  <oscillator_strength_3>  (710) 
0.0094

>  <oscillator_strength_4>  (710) 
0.0278

>  <open_babel_can_smiles>  (710) 
CN(C(=O)[N][N]C(=O)N(C)C)C

>  <mulliken_charges>  (710) 
24
1   -0.320412
2   -0.328387
3   -0.328253
4   -0.320459
5   0.710789
6   0.710867
7   -0.233999
8   -0.23423
9   -0.399386
10   -0.399451
11   -0.493676
12   -0.493668
13   0.159309
14   0.205874
15   0.16019
16   0.161685
17   0.164464
18   0.213624
19   0.161676
20   0.213576
21   0.164444
22   0.159314
23   0.160199
24   0.205911

>  <lowdin_charges>  (710) 
24
1   -0.353784
2   -0.354408
3   -0.354354
4   -0.353775
5   0.160507
6   0.160495
7   -0.059054
8   -0.059289
9   -0.092226
10   -0.092173
11   -0.290183
12   -0.290222
13   0.154268
14   0.186269
15   0.15402
16   0.155021
17   0.155021
18   0.184644
19   0.154946
20   0.184652
21   0.155053
22   0.154232
23   0.154042
24   0.186296

$$$$
PCCDB-ID:  4348
     RDKit          3D

 24 24  0  0  0  0  0  0  0  0999 V2000
   -2.1564   -0.9072    2.6224 C   0  0  0  0  0  0  0  0  0  0  0  0
   -1.3390    0.2047    2.8243 C   0  0  0  0  0  0  0  0  0  0  0  0
   -1.8037   -1.8584    1.6610 C   0  0  0  0  0  0  0  0  0  0  0  0
   -0.1749    0.3629    2.0684 C   0  0  0  0  0  0  0  0  0  0  0  0
   -0.6433   -1.6954    0.9060 C   0  0  0  0  0  0  0  0  0  0  0  0
    3.5236   -1.4724   -0.4799 C   0  0  0  0  0  0  0  0  0  0  0  0
    4.1582   -2.8564   -0.6201 C   0  0  0  0  0  0  0  0  0  0  0  0
    1.4385   -0.3986    0.2689 C   0  0  0  0  0  0  0  0  0  0  0  0
    0.1846   -0.5804    1.0998 C   0  0  0  0  0  0  0  0  0  0  0  0
    2.2759   -1.6030    0.2791 N   0  0  0  0  0  0  0  0  0  0  0  0
    3.2533   -3.7659   -1.2150 O   0  0  0  0  0  0  0  0  0  0  0  0
   -3.0619   -1.0339    3.2097 H   0  0  0  0  0  0  0  0  0  0  0  0
   -1.6030    0.9481    3.5719 H   0  0  0  0  0  0  0  0  0  0  0  0
   -2.4357   -2.7277    1.4987 H   0  0  0  0  0  0  0  0  0  0  0  0
    0.4610    1.2304    2.2320 H   0  0  0  0  0  0  0  0  0  0  0  0
   -0.3651   -2.4374    0.1631 H   0  0  0  0  0  0  0  0  0  0  0  0
    3.2663   -1.0982   -1.4783 H   0  0  0  0  0  0  0  0  0  0  0  0
    4.2388   -0.7582   -0.0325 H   0  0  0  0  0  0  0  0  0  0  0  0
    4.4880   -3.2108    0.3745 H   0  0  0  0  0  0  0  0  0  0  0  0
    5.0477   -2.8051   -1.2575 H   0  0  0  0  0  0  0  0  0  0  0  0
    1.9818    0.4972    0.6207 H   0  0  0  0  0  0  0  0  0  0  0  0
    1.1707   -0.2027   -0.7789 H   0  0  0  0  0  0  0  0  0  0  0  0
    2.4931   -1.8397    1.2478 H   0  0  0  0  0  0  0  0  0  0  0  0
    2.3935   -3.5462   -0.8100 H   0  0  0  0  0  0  0  0  0  0  0  0
  1  2  2  0
  1 12  1  0
  2 13  1  0
  3  1  1  0
  4 15  1  0
  4  2  1  0
  5  9  1  0
  5  3  2  0
  6 18  1  0
  6 10  1  0
  7  6  1  0
  7 19  1  0
  8 10  1  0
  8 21  1  0
  8  9  1  0
  9  4  2  0
 10 23  1  0
 11 24  1  0
 11  7  1  0
 14  3  1  0
 16  5  1  0
 17  6  1  0
 20  7  1  0
 22  8  1  0
M  END
>  <HBA>  (711) 
2

>  <HBD>  (711) 
2

>  <TPSA>  (711) 
32.26

>  <cid>  (711) 
4348

>  <dipole>  (711) 
2.7

>  <excitation_energy_1>  (711) 
5.272

>  <excitation_energy_2>  (711) 
5.355

>  <excitation_energy_3>  (711) 
5.636

>  <excitation_energy_4>  (711) 
5.909

>  <homo_energy>  (711) 
-6.43

>  <homo_lumo_gap>  (711) 
6.289

>  <logP>  (711) 
1.159

>  <lumo_energy>  (711) 
-0.142

>  <melting_point>  (711) 
51.62

>  <molecular_refractivity>  (711) 
44.99

>  <oscillator_strength_1>  (711) 
0.0003

>  <oscillator_strength_2>  (711) 
0.0018

>  <oscillator_strength_3>  (711) 
0.0203

>  <oscillator_strength_4>  (711) 
0.0254

>  <open_babel_can_smiles>  (711) 
OCCNCc1ccccc1

>  <mulliken_charges>  (711) 
24
1   -0.128494
2   -0.127767
3   -0.13061
4   -0.186736
5   -0.162666
6   -0.146566
7   -0.018486
8   -0.18922
9   0.135078
10   -0.576679
11   -0.627656
12   0.129992
13   0.129742
14   0.131426
15   0.123899
16   0.135977
17   0.15277
18   0.11894
19   0.110261
20   0.141866
21   0.123908
22   0.159538
23   0.302046
24   0.399438

>  <lowdin_charges>  (711) 
24
1   -0.157163
2   -0.156761
3   -0.155094
4   -0.168693
5   -0.157925
6   -0.225692
7   -0.136452
8   -0.19555
9   -0.016123
10   -0.36212
11   -0.474512
12   0.157919
13   0.158465
14   0.158657
15   0.154712
16   0.162173
17   0.148806
18   0.12742
19   0.118564
20   0.147209
21   0.127154
22   0.152189
23   0.255293
24   0.337525

$$$$
PCCDB-ID:  4360
     RDKit          3D

 26 25  0  0  1  0  0  0  0  0999 V2000
    1.0382   -0.1412    0.1662 C   0  0  0  0  0  0  0  0  0  0  0  0
    0.5909   -0.7095    1.5181 C   0  0  0  0  0  0  0  0  0  0  0  0
    2.5445    0.1476    0.1192 C   0  0  0  0  0  0  0  0  0  0  0  0
   -0.9118   -1.0133    1.5914 C   0  0  0  0  0  0  0  0  0  0  0  0
   -2.6064    0.2658    0.6095 C   0  0  0  0  0  0  0  0  0  0  0  0
    3.0508    0.7259   -1.2141 C   0  0  1  0  0  0  0  0  0  0  0  0
    2.8887   -0.2844   -2.3752 C   0  0  0  0  0  0  0  0  0  0  0  0
    2.4812    2.0219   -1.6355 N   0  0  0  0  0  0  0  0  0  0  0  0
   -1.7073    0.2038    1.4962 N   0  0  0  0  0  0  0  0  0  0  0  0
   -3.4026    1.3455    0.4527 O   0  0  0  0  0  0  0  0  0  0  0  0
    3.0103   -1.4795   -2.2345 O   0  0  0  0  0  0  0  0  0  0  0  0
    2.6427    0.2940   -3.5605 O   0  0  0  0  0  0  0  0  0  0  0  0
    0.4623    0.7749   -0.0284 H   0  0  0  0  0  0  0  0  0  0  0  0
    0.7846   -0.8541   -0.6298 H   0  0  0  0  0  0  0  0  0  0  0  0
    0.8436   -0.0030    2.3200 H   0  0  0  0  0  0  0  0  0  0  0  0
    1.1406   -1.6377    1.7248 H   0  0  0  0  0  0  0  0  0  0  0  0
    3.0946   -0.7821    0.3017 H   0  0  0  0  0  0  0  0  0  0  0  0
    2.8145    0.8454    0.9241 H   0  0  0  0  0  0  0  0  0  0  0  0
   -1.1268   -1.4802    2.5618 H   0  0  0  0  0  0  0  0  0  0  0  0
   -1.1798   -1.7496    0.8130 H   0  0  0  0  0  0  0  0  0  0  0  0
   -2.8588   -0.5097   -0.1217 H   0  0  0  0  0  0  0  0  0  0  0  0
    4.1352    0.8784   -1.1280 H   0  0  0  0  0  0  0  0  0  0  0  0
    1.4934    2.0740   -1.3915 H   0  0  0  0  0  0  0  0  0  0  0  0
    2.9440    2.7961   -1.1658 H   0  0  0  0  0  0  0  0  0  0  0  0
   -3.1337    1.9814    1.1425 H   0  0  0  0  0  0  0  0  0  0  0  0
    2.5680    1.2608   -3.3563 H   0  0  0  0  0  0  0  0  0  0  0  0
  1  2  1  0
  2  4  1  0
  2 16  1  0
  2 15  1  0
  3  1  1  0
  3 17  1  0
  3 18  1  0
  4 19  1  0
  5  9  2  0
  6 22  1  1
  6  3  1  0
  7 11  2  0
  7  6  1  0
  8 23  1  0
  8  6  1  0
  8 24  1  0
  9  4  1  0
 10  5  1  0
 10 25  1  0
 12 26  1  0
 12  7  1  0
 13  1  1  0
 14  1  1  0
 20  4  1  0
 21  5  1  0
M  END
>  <HBA>  (712) 
5

>  <HBD>  (712) 
3

>  <TPSA>  (712) 
92.42

>  <cid>  (712) 
4360

>  <dipole>  (712) 
4.74

>  <excitation_energy_1>  (712) 
5.411

>  <excitation_energy_2>  (712) 
6.049

>  <excitation_energy_3>  (712) 
6.131

>  <excitation_energy_4>  (712) 
6.348

>  <homo_energy>  (712) 
-6.827

>  <homo_lumo_gap>  (712) 
7.246

>  <logP>  (712) 
1.042

>  <lumo_energy>  (712) 
0.419

>  <melting_point>  (712) 
152.75

>  <molecular_refractivity>  (712) 
43.63

>  <oscillator_strength_1>  (712) 
0.0028

>  <oscillator_strength_2>  (712) 
0.0017

>  <oscillator_strength_3>  (712) 
0.0115

>  <oscillator_strength_4>  (712) 
0.0003

>  <open_babel_can_smiles>  (712) 
O/C=N/CCCC[C@@H](C(=O)O)N

>  <mulliken_charges>  (712) 
26
1   -0.27707
2   -0.254611
3   -0.256391
4   -0.151821
5   0.279034
6   -0.098256
7   0.613407
8   -0.774324
9   -0.404489
10   -0.558799
11   -0.471572
12   -0.581845
13   0.125173
14   0.156948
15   0.140813
16   0.139718
17   0.168541
18   0.126788
19   0.14874
20   0.123522
21   0.143293
22   0.174624
23   0.327474
24   0.323378
25   0.405388
26   0.43234

>  <lowdin_charges>  (712) 
26
1   -0.286725
2   -0.277565
3   -0.283901
4   -0.195057
5   0.007885
6   -0.108196
7   0.169952
8   -0.548124
9   -0.233033
10   -0.361562
11   -0.260355
12   -0.353087
13   0.134489
14   0.153003
15   0.146692
16   0.147948
17   0.165268
18   0.141587
19   0.14969
20   0.127906
21   0.142024
22   0.166386
23   0.265763
24   0.273054
25   0.357871
26   0.358087

$$$$
PCCDB-ID:  4362
     RDKit          3D

 16 16  0  0  0  0  0  0  0  0999 V2000
    2.9858   -0.0475   -1.2402 C   0  0  0  0  0  0  0  0  0  0  0  0
    2.4760   -0.0036    0.2014 C   0  0  0  0  0  0  0  0  0  0  0  0
    4.4281   -2.2740    2.4428 C   0  0  0  0  0  0  0  0  0  0  0  0
    3.4182   -3.0815    2.1060 C   0  0  0  0  0  0  0  0  0  0  0  0
    4.2283   -0.9458    1.7658 C   0  0  0  0  0  0  0  0  0  0  0  0
    2.4911   -2.3348    1.1866 C   0  0  0  0  0  0  0  0  0  0  0  0
    3.0419   -1.0591    1.0354 N   0  0  0  0  0  0  0  0  0  0  0  0
    4.9328    0.0414    1.8272 O   0  0  0  0  0  0  0  0  0  0  0  0
    1.4654   -2.7312    0.6713 O   0  0  0  0  0  0  0  0  0  0  0  0
    2.5326    0.7624   -1.8224 H   0  0  0  0  0  0  0  0  0  0  0  0
    2.7247   -0.9983   -1.7157 H   0  0  0  0  0  0  0  0  0  0  0  0
    4.0731    0.0756   -1.2717 H   0  0  0  0  0  0  0  0  0  0  0  0
    1.3896   -0.1239    0.2318 H   0  0  0  0  0  0  0  0  0  0  0  0
    2.7346    0.9472    0.6752 H   0  0  0  0  0  0  0  0  0  0  0  0
    5.2774   -2.4638    3.0866 H   0  0  0  0  0  0  0  0  0  0  0  0
    3.2252   -4.1047    2.4024 H   0  0  0  0  0  0  0  0  0  0  0  0
  1  2  1  0
  2 13  1  0
  2 14  1  0
  2  7  1  0
  3 15  1  0
  4 16  1  0
  4  3  2  0
  5  8  2  0
  5  3  1  0
  6  4  1  0
  7  6  1  0
  7  5  1  0
  9  6  2  0
 10  1  1  0
 11  1  1  0
 12  1  1  0
M  END
>  <HBA>  (713) 
3

>  <HBD>  (713) 
0

>  <TPSA>  (713) 
37.38

>  <cid>  (713) 
4362

>  <dipole>  (713) 
1.03

>  <excitation_energy_1>  (713) 
3.441

>  <excitation_energy_2>  (713) 
3.959

>  <excitation_energy_3>  (713) 
4.139

>  <excitation_energy_4>  (713) 
5.647

>  <homo_energy>  (713) 
-7.353

>  <homo_lumo_gap>  (713) 
4.754

>  <logP>  (713) 
-0.131

>  <lumo_energy>  (713) 
-2.599

>  <melting_point>  (713) 
51.22

>  <molecular_refractivity>  (713) 
35.58

>  <oscillator_strength_1>  (713) 
0.0

>  <oscillator_strength_2>  (713) 
0.0077

>  <oscillator_strength_3>  (713) 
0.0008

>  <oscillator_strength_4>  (713) 
0.2688

>  <open_babel_can_smiles>  (713) 
CCN1C(=O)C=CC1=O

>  <mulliken_charges>  (713) 
16
1   -0.449197
2   -0.146668
3   -0.163591
4   -0.163574
5   0.591634
6   0.591622
7   -0.497418
8   -0.475741
9   -0.47572
10   0.154277
11   0.165845
12   0.165646
13   0.176284
14   0.176425
15   0.175102
16   0.175073

>  <lowdin_charges>  (713) 
16
1   -0.448932
2   -0.188399
3   -0.154497
4   -0.152846
5   0.169023
6   0.167217
7   -0.094957
8   -0.237628
9   -0.236756
10   0.15964
11   0.159619
12   0.157652
13   0.164715
14   0.166967
15   0.185226
16   0.183956

$$$$
PCCDB-ID:  4376
     RDKit          3D

 19 18  0  0  1  0  0  0  0  0999 V2000
    5.9282    0.3251    0.2743 C   0  0  0  0  0  0  0  0  0  0  0  0
    3.2148   -0.0463   -2.3392 C   0  0  0  0  0  0  0  0  0  0  0  0
    4.3542   -0.5230   -1.4109 C   0  0  1  0  0  0  0  0  0  0  0  0
    3.6323    0.9479   -3.4127 C   0  0  0  0  0  0  0  0  0  0  0  0
    5.2772   -1.6150   -2.0155 C   0  0  0  0  0  0  0  0  0  0  0  0
    5.0633    0.6348   -0.8670 N   0  0  0  0  0  0  0  0  0  0  0  0
    4.7555    1.0355   -3.8745 O   0  0  0  0  0  0  0  0  0  0  0  0
    2.6734    1.7607   -3.8888 O   0  0  0  0  0  0  0  0  0  0  0  0
    5.4219   -2.6859   -1.4710 O   0  0  0  0  0  0  0  0  0  0  0  0
    5.9651   -1.2972   -3.1266 O   0  0  0  0  0  0  0  0  0  0  0  0
    6.4241    1.2458    0.5963 H   0  0  0  0  0  0  0  0  0  0  0  0
    6.6988   -0.4362    0.0732 H   0  0  0  0  0  0  0  0  0  0  0  0
    5.3114   -0.0342    1.1055 H   0  0  0  0  0  0  0  0  0  0  0  0
    2.4477    0.4178   -1.7080 H   0  0  0  0  0  0  0  0  0  0  0  0
    2.7439   -0.9033   -2.8424 H   0  0  0  0  0  0  0  0  0  0  0  0
    3.8750   -1.0325   -0.5701 H   0  0  0  0  0  0  0  0  0  0  0  0
    5.6108    1.0762   -1.6027 H   0  0  0  0  0  0  0  0  0  0  0  0
    1.8352    1.6123   -3.4199 H   0  0  0  0  0  0  0  0  0  0  0  0
    5.6836   -0.4168   -3.4702 H   0  0  0  0  0  0  0  0  0  0  0  0
  1 11  1  0
  1 13  1  0
  2 14  1  0
  2  3  1  0
  3  6  1  0
  3 16  1  1
  4  2  1  0
  5  9  2  0
  5  3  1  0
  6  1  1  0
  7  4  2  0
  8 18  1  0
  8  4  1  0
 10  5  1  0
 12  1  1  0
 15  2  1  0
 17  6  1  0
 19 10  1  0
M  END
>  <HBA>  (714) 
5

>  <HBD>  (714) 
3

>  <TPSA>  (714) 
86.63

>  <cid>  (714) 
4376

>  <dipole>  (714) 
5.4

>  <excitation_energy_1>  (714) 
4.545

>  <excitation_energy_2>  (714) 
5.047

>  <excitation_energy_3>  (714) 
5.198

>  <excitation_energy_4>  (714) 
5.72

>  <homo_energy>  (714) 
-6.283

>  <homo_lumo_gap>  (714) 
5.423

>  <logP>  (714) 
-0.475

>  <lumo_energy>  (714) 
-0.86

>  <melting_point>  (714) 
155.6

>  <molecular_refractivity>  (714) 
32.49

>  <oscillator_strength_1>  (714) 
0.0011

>  <oscillator_strength_2>  (714) 
0.0164

>  <oscillator_strength_3>  (714) 
0.0129

>  <oscillator_strength_4>  (714) 
0.0007

>  <open_babel_can_smiles>  (714) 
CN[C@H](C(=O)O)CC(=O)O

>  <mulliken_charges>  (714) 
19
1   -0.313695
2   -0.41246
3   -0.072415
4   0.63247
5   0.57522
6   -0.553227
7   -0.471016
8   -0.540735
9   -0.455077
10   -0.592791
11   0.156878
12   0.156908
13   0.158768
14   0.173603
15   0.204102
16   0.17286
17   0.31345
18   0.424435
19   0.442721

>  <lowdin_charges>  (714) 
19
1   -0.362699
2   -0.32746
3   -0.10004
4   0.216427
5   0.164685
6   -0.360546
7   -0.260497
8   -0.320504
9   -0.253283
10   -0.36616
11   0.157019
12   0.141293
13   0.153904
14   0.171892
15   0.185488
16   0.171908
17   0.261385
18   0.369226
19   0.357964

$$$$
PCCDB-ID:  4377
     RDKit          3D

 16 15  0  0  1  0  0  0  0  0999 V2000
    1.0231   -0.1336    0.2237 C   0  0  0  0  0  0  0  0  0  0  0  0
    3.9999    2.1152    0.9102 C   0  0  0  0  0  0  0  0  0  0  0  0
    2.2686    0.6819   -0.1363 C   0  0  1  0  0  0  0  0  0  0  0  0
    2.1269    1.5392   -1.4094 C   0  0  0  0  0  0  0  0  0  0  0  0
    2.6733    1.5012    1.0127 N   0  0  0  0  0  0  0  0  0  0  0  0
    3.0439    1.7640   -2.1610 O   0  0  0  0  0  0  0  0  0  0  0  0
    0.9242    2.1548   -1.6070 O   0  0  0  0  0  0  0  0  0  0  0  0
    0.6782   -0.7402   -0.6208 H   0  0  0  0  0  0  0  0  0  0  0  0
    0.1897    0.5058    0.5518 H   0  0  0  0  0  0  0  0  0  0  0  0
    1.2537   -0.7942    1.0634 H   0  0  0  0  0  0  0  0  0  0  0  0
    4.1805    2.7018    1.8165 H   0  0  0  0  0  0  0  0  0  0  0  0
    4.1435    2.7631    0.0324 H   0  0  0  0  0  0  0  0  0  0  0  0
    4.7545    1.3222    0.8670 H   0  0  0  0  0  0  0  0  0  0  0  0
    3.0963   -0.0022   -0.3494 H   0  0  0  0  0  0  0  0  0  0  0  0
    1.9731    2.2234    1.1788 H   0  0  0  0  0  0  0  0  0  0  0  0
    0.2710    1.8242   -0.9685 H   0  0  0  0  0  0  0  0  0  0  0  0
  1  9  1  0
  1 10  1  0
  2  5  1  0
  2 11  1  0
  3 14  1  6
  3  1  1  0
  3  5  1  0
  4  3  1  0
  5 15  1  0
  6  4  2  0
  7  4  1  0
  7 16  1  0
  8  1  1  0
 12  2  1  0
 13  2  1  0
M  END
>  <HBA>  (715) 
3

>  <HBD>  (715) 
2

>  <TPSA>  (715) 
49.33

>  <cid>  (715) 
4377

>  <dipole>  (715) 
3.59

>  <excitation_energy_1>  (715) 
5.023

>  <excitation_energy_2>  (715) 
5.301

>  <excitation_energy_3>  (715) 
6.109

>  <excitation_energy_4>  (715) 
6.142

>  <homo_energy>  (715) 
-6.221

>  <homo_lumo_gap>  (715) 
6.397

>  <logP>  (715) 
0.07

>  <lumo_energy>  (715) 
0.177

>  <melting_point>  (715) 
79.1

>  <molecular_refractivity>  (715) 
25.92

>  <oscillator_strength_1>  (715) 
0.0249

>  <oscillator_strength_2>  (715) 
0.0065

>  <oscillator_strength_3>  (715) 
0.0145

>  <oscillator_strength_4>  (715) 
0.0057

>  <open_babel_can_smiles>  (715) 
C[C@@H](C(=O)O)NC

>  <mulliken_charges>  (715) 
16
1   -0.477126
2   -0.313583
3   -0.055941
4   0.580261
5   -0.532593
6   -0.445407
7   -0.573668
8   0.165484
9   0.130271
10   0.182039
11   0.151283
12   0.159923
13   0.159179
14   0.16992
15   0.290818
16   0.409141

>  <lowdin_charges>  (715) 
16
1   -0.457876
2   -0.364715
3   -0.097721
4   0.174596
5   -0.348731
6   -0.241819
7   -0.367022
8   0.16106
9   0.141654
10   0.174474
11   0.153707
12   0.143007
13   0.154592
14   0.166853
15   0.25181
16   0.356131

$$$$
PCCDB-ID:  4378
     RDKit          3D

 22 21  0  0  1  0  0  0  0  0999 V2000
    1.0532    0.2864   -0.6058 C   0  0  0  0  0  0  0  0  0  0  0  0
    3.3325    1.0776    0.0911 C   0  0  0  0  0  0  0  0  0  0  0  0
    5.3666   -1.6383   -2.2954 C   0  0  0  0  0  0  0  0  0  0  0  0
    2.4998    0.5116   -1.0739 C   0  0  0  0  0  0  0  0  0  0  0  0
    3.1454   -0.7811   -1.6505 C   0  0  1  0  0  0  0  0  0  0  0  0
    2.2496   -1.4085   -2.7434 C   0  0  0  0  0  0  0  0  0  0  0  0
    4.4524   -0.4919   -2.2624 N   0  0  0  0  0  0  0  0  0  0  0  0
    1.3063   -2.1269   -2.5093 O   0  0  0  0  0  0  0  0  0  0  0  0
    2.6056   -1.0485   -3.9895 O   0  0  0  0  0  0  0  0  0  0  0  0
    0.6479    1.2191   -0.1977 H   0  0  0  0  0  0  0  0  0  0  0  0
    1.0112   -0.4729    0.1841 H   0  0  0  0  0  0  0  0  0  0  0  0
    0.4010   -0.0478   -1.4148 H   0  0  0  0  0  0  0  0  0  0  0  0
    2.8668    1.9907    0.4775 H   0  0  0  0  0  0  0  0  0  0  0  0
    4.3597    1.3414   -0.1881 H   0  0  0  0  0  0  0  0  0  0  0  0
    3.3856    0.3565    0.9162 H   0  0  0  0  0  0  0  0  0  0  0  0
    5.5649   -2.0670   -1.3000 H   0  0  0  0  0  0  0  0  0  0  0  0
    6.3168   -1.3300   -2.7416 H   0  0  0  0  0  0  0  0  0  0  0  0
    4.9397   -2.4264   -2.9244 H   0  0  0  0  0  0  0  0  0  0  0  0
    2.4896    1.2524   -1.8873 H   0  0  0  0  0  0  0  0  0  0  0  0
    3.2185   -1.5225   -0.8395 H   0  0  0  0  0  0  0  0  0  0  0  0
    4.9005    0.2902   -1.7954 H   0  0  0  0  0  0  0  0  0  0  0  0
    3.4461   -0.5372   -3.8640 H   0  0  0  0  0  0  0  0  0  0  0  0
  1 10  1  0
  1 11  1  0
  2 13  1  0
  2 15  1  0
  3  7  1  0
  3 16  1  0
  4  1  1  0
  4  2  1  0
  5  4  1  0
  5 20  1  1
  6  8  2  0
  6  5  1  0
  7 21  1  0
  7  5  1  0
  9 22  1  0
  9  6  1  0
 12  1  1  0
 14  2  1  0
 17  3  1  0
 18  3  1  0
 19  4  1  0
M  END
>  <HBA>  (716) 
3

>  <HBD>  (716) 
2

>  <TPSA>  (716) 
49.33

>  <cid>  (716) 
4378

>  <dipole>  (716) 
5.19

>  <excitation_energy_1>  (716) 
5.452

>  <excitation_energy_2>  (716) 
6.001

>  <excitation_energy_3>  (716) 
6.487

>  <excitation_energy_4>  (716) 
6.674

>  <homo_energy>  (716) 
-6.713

>  <homo_lumo_gap>  (716) 
7.195

>  <logP>  (716) 
0.706

>  <lumo_energy>  (716) 
0.482

>  <melting_point>  (716) 
77.78

>  <molecular_refractivity>  (716) 
35.53

>  <oscillator_strength_1>  (716) 
0.0014

>  <oscillator_strength_2>  (716) 
0.0007

>  <oscillator_strength_3>  (716) 
0.0188

>  <oscillator_strength_4>  (716) 
0.0239

>  <open_babel_can_smiles>  (716) 
CN[C@H](C(=O)O)C(C)C

>  <mulliken_charges>  (716) 
22
1   -0.448267
2   -0.454786
3   -0.312735
4   -0.102927
5   -0.038474
6   0.602963
7   -0.61888
8   -0.468707
9   -0.58334
10   0.140315
11   0.150858
12   0.180613
13   0.158152
14   0.133716
15   0.152689
16   0.1463
17   0.160819
18   0.173872
19   0.136709
20   0.144301
21   0.318985
22   0.427823

>  <lowdin_charges>  (716) 
22
1   -0.446815
2   -0.446522
3   -0.363734
4   -0.12397
5   -0.104515
6   0.173018
7   -0.367299
8   -0.255335
9   -0.359405
10   0.150082
11   0.153904
12   0.169512
13   0.159
14   0.140274
15   0.153087
16   0.137347
17   0.157617
18   0.16041
19   0.143612
20   0.148439
21   0.264412
22   0.35688

$$$$
PCCDB-ID:  4382
     RDKit          3D

 25 25  0  0  0  0  0  0  0  0999 V2000
    5.8658   -0.0577   -2.0535 C   0  0  0  0  0  0  0  0  0  0  0  0
    5.5007   -0.0085    3.6528 C   0  0  0  0  0  0  0  0  0  0  0  0
    6.0100   -0.4728    4.8689 C   0  0  0  0  0  0  0  0  0  0  0  0
    4.3745   -0.4047    1.4160 C   0  0  0  0  0  0  0  0  0  0  0  0
    5.4265   -0.5029    0.2989 C   0  0  0  0  0  0  0  0  0  0  0  0
    4.8033   -2.2402    3.1128 C   0  0  0  0  0  0  0  0  0  0  0  0
    4.8894   -0.8858    2.7550 C   0  0  0  0  0  0  0  0  0  0  0  0
    5.9228   -1.8189    5.2163 C   0  0  0  0  0  0  0  0  0  0  0  0
    5.3072   -2.7154    4.3215 C   0  0  0  0  0  0  0  0  0  0  0  0
    4.9054    0.0230   -0.9589 N   0  0  0  0  0  0  0  0  0  0  0  0
    6.3981   -2.3328    6.3917 O   0  0  0  0  0  0  0  0  0  0  0  0
    5.2356   -4.0269    4.7029 O   0  0  0  0  0  0  0  0  0  0  0  0
    5.3943    0.2855   -2.9804 H   0  0  0  0  0  0  0  0  0  0  0  0
    6.2750   -1.0711   -2.2289 H   0  0  0  0  0  0  0  0  0  0  0  0
    6.7123    0.6070   -1.8437 H   0  0  0  0  0  0  0  0  0  0  0  0
    5.5783    1.0481    3.4097 H   0  0  0  0  0  0  0  0  0  0  0  0
    6.4792    0.2227    5.5632 H   0  0  0  0  0  0  0  0  0  0  0  0
    3.4919   -0.9923    1.1243 H   0  0  0  0  0  0  0  0  0  0  0  0
    4.0463    0.6387    1.4845 H   0  0  0  0  0  0  0  0  0  0  0  0
    5.7810   -1.5502    0.2188 H   0  0  0  0  0  0  0  0  0  0  0  0
    6.3042    0.0952    0.5781 H   0  0  0  0  0  0  0  0  0  0  0  0
    4.3249   -2.9463    2.4339 H   0  0  0  0  0  0  0  0  0  0  0  0
    4.0686   -0.5010   -1.2123 H   0  0  0  0  0  0  0  0  0  0  0  0
    6.7885   -1.6083    6.9045 H   0  0  0  0  0  0  0  0  0  0  0  0
    4.7929   -4.5252    3.9986 H   0  0  0  0  0  0  0  0  0  0  0  0
  1 15  1  0
  1 10  1  0
  2  3  2  0
  3  8  1  0
  3 17  1  0
  4 19  1  0
  4  7  1  0
  5 21  1  0
  5  4  1  0
  6  9  1  0
  7  6  2  0
  7  2  1  0
  8 11  1  0
  9 12  1  0
  9  8  2  0
 10  5  1  0
 11 24  1  0
 13  1  1  0
 14  1  1  0
 16  2  1  0
 18  4  1  0
 20  5  1  0
 22  6  1  0
 23 10  1  0
 25 12  1  0
M  END
>  <HBA>  (717) 
3

>  <HBD>  (717) 
3

>  <TPSA>  (717) 
52.49

>  <cid>  (717) 
4382

>  <dipole>  (717) 
1.1

>  <excitation_energy_1>  (717) 
4.767

>  <excitation_energy_2>  (717) 
4.801

>  <excitation_energy_3>  (717) 
4.972

>  <excitation_energy_4>  (717) 
5.257

>  <homo_energy>  (717) 
-5.448

>  <homo_lumo_gap>  (717) 
5.679

>  <logP>  (717) 
1.251

>  <lumo_energy>  (717) 
0.231

>  <melting_point>  (717) 
114.95

>  <molecular_refractivity>  (717) 
47.87

>  <oscillator_strength_1>  (717) 
0.0024

>  <oscillator_strength_2>  (717) 
0.0633

>  <oscillator_strength_3>  (717) 
0.001

>  <oscillator_strength_4>  (717) 
0.0044

>  <open_babel_can_smiles>  (717) 
CNCCc1ccc(c(c1)O)O

>  <mulliken_charges>  (717) 
25
1   -0.298956
2   -0.195745
3   -0.196555
4   -0.360592
5   -0.106738
6   -0.257733
7   0.170561
8   0.316003
9   0.327967
10   -0.538863
11   -0.633852
12   -0.634973
13   0.147284
14   0.118546
15   0.152092
16   0.12315
17   0.117216
18   0.130811
19   0.156457
20   0.110155
21   0.142905
22   0.108685
23   0.289907
24   0.406125
25   0.406145

>  <lowdin_charges>  (717) 
25
1   -0.360266
2   -0.177503
3   -0.206783
4   -0.274488
5   -0.198942
6   -0.219035
7   -0.009233
8   0.074996
9   0.079456
10   -0.364481
11   -0.373066
12   -0.373118
13   0.150311
14   0.119378
15   0.149032
16   0.154947
17   0.154743
18   0.14264
19   0.155526
20   0.114
21   0.143987
22   0.150858
23   0.249851
24   0.358659
25   0.358531

$$$$
PCCDB-ID:  4386
     RDKit          3D

 27 28  0  0  0  0  0  0  0  0999 V2000
    3.2502    3.6571   -1.0244 C   0  0  0  0  0  0  0  0  0  0  0  0
    4.0055    2.7150   -1.7271 C   0  0  0  0  0  0  0  0  0  0  0  0
    2.2314    3.2204   -0.1774 C   0  0  0  0  0  0  0  0  0  0  0  0
    5.4306   -3.4062   -0.1000 C   0  0  0  0  0  0  0  0  0  0  0  0
    5.5623   -2.1498    0.4962 C   0  0  0  0  0  0  0  0  0  0  0  0
    3.7472    1.3525   -1.5938 C   0  0  0  0  0  0  0  0  0  0  0  0
    1.9747    1.8577   -0.0258 C   0  0  0  0  0  0  0  0  0  0  0  0
    4.3168   -3.6812   -0.8853 C   0  0  0  0  0  0  0  0  0  0  0  0
    4.5747   -1.1850    0.3134 C   0  0  0  0  0  0  0  0  0  0  0  0
    2.7292    0.9151   -0.7346 C   0  0  0  0  0  0  0  0  0  0  0  0
    3.3205   -2.7170   -1.0997 C   0  0  0  0  0  0  0  0  0  0  0  0
    3.4545   -1.4579   -0.4797 C   0  0  0  0  0  0  0  0  0  0  0  0
    2.1887   -3.1294   -2.0186 C   0  0  0  0  0  0  0  0  0  0  0  0
    2.4070   -0.4696   -0.6377 N   0  0  0  0  0  0  0  0  0  0  0  0
    2.0663   -4.2734   -2.4001 O   0  0  0  0  0  0  0  0  0  0  0  0
    1.3357   -2.1706   -2.4150 O   0  0  0  0  0  0  0  0  0  0  0  0
    3.4535    4.7179   -1.1370 H   0  0  0  0  0  0  0  0  0  0  0  0
    4.7979    3.0414   -2.3951 H   0  0  0  0  0  0  0  0  0  0  0  0
    1.6353    3.9395    0.3777 H   0  0  0  0  0  0  0  0  0  0  0  0
    6.1944   -4.1647    0.0450 H   0  0  0  0  0  0  0  0  0  0  0  0
    6.4266   -1.9231    1.1146 H   0  0  0  0  0  0  0  0  0  0  0  0
    4.3279    0.6262   -2.1542 H   0  0  0  0  0  0  0  0  0  0  0  0
    1.1844    1.5241    0.6439 H   0  0  0  0  0  0  0  0  0  0  0  0
    4.1879   -4.6459   -1.3639 H   0  0  0  0  0  0  0  0  0  0  0  0
    4.6637   -0.2115    0.7853 H   0  0  0  0  0  0  0  0  0  0  0  0
    1.6547   -0.6246    0.0310 H   0  0  0  0  0  0  0  0  0  0  0  0
    1.6078   -1.3138   -1.9969 H   0  0  0  0  0  0  0  0  0  0  0  0
  1  3  2  0
  2  6  2  0
  2  1  1  0
  3  7  1  0
  3 19  1  0
  4 20  1  0
  4  5  2  0
  5 21  1  0
  6 10  1  0
  7 23  1  0
  8  4  1  0
  9  5  1  0
  9 25  1  0
 10 14  1  0
 10  7  2  0
 11  8  2  0
 11 12  1  0
 12  9  2  0
 13 11  1  0
 14 12  1  0
 14 26  1  0
 15 13  2  0
 16 13  1  0
 16 27  1  0
 17  1  1  0
 18  2  1  0
 22  6  1  0
 24  8  1  0
M  END
>  <HBA>  (718) 
2

>  <HBD>  (718) 
2

>  <TPSA>  (718) 
49.33

>  <cid>  (718) 
4386

>  <dipole>  (718) 
6.05

>  <excitation_energy_1>  (718) 
4.053

>  <excitation_energy_2>  (718) 
4.584

>  <excitation_energy_3>  (718) 
4.601

>  <excitation_energy_4>  (718) 
4.923

>  <homo_energy>  (718) 
-6.191

>  <homo_lumo_gap>  (718) 
4.884

>  <logP>  (718) 
3.201

>  <lumo_energy>  (718) 
-1.306

>  <melting_point>  (718) 
169.77

>  <molecular_refractivity>  (718) 
62.95

>  <oscillator_strength_1>  (718) 
0.0736

>  <oscillator_strength_2>  (718) 
0.0095

>  <oscillator_strength_3>  (718) 
0.0229

>  <oscillator_strength_4>  (718) 
0.0265

>  <open_babel_can_smiles>  (718) 
OC(=O)c1ccccc1Nc1ccccc1

>  <mulliken_charges>  (718) 
27
1   -0.128747
2   -0.138573
3   -0.133004
4   -0.122611
5   -0.135077
6   -0.154052
7   -0.196344
8   -0.177237
9   -0.144325
10   0.318822
11   0.008585
12   0.225769
13   0.563609
14   -0.812881
15   -0.462521
16   -0.599311
17   0.133974
18   0.138704
19   0.137313
20   0.14286
21   0.143374
22   0.147005
23   0.127616
24   0.177022
25   0.152252
26   0.347179
27   0.440598

>  <lowdin_charges>  (718) 
27
1   -0.167616
2   -0.143567
3   -0.14575
4   -0.155878
5   -0.138712
6   -0.182103
7   -0.192446
8   -0.123464
9   -0.167909
10   0.047439
11   -0.070062
12   0.033494
13   0.185312
14   -0.294486
15   -0.257808
16   -0.365764
17   0.15946
18   0.163047
19   0.163389
20   0.165753
21   0.16486
22   0.169233
23   0.157096
24   0.183949
25   0.170596
26   0.288084
27   0.353852

$$$$
PCCDB-ID:  4387
     RDKit          3D

 35 34  0  0  1  0  0  0  0  0999 V2000
    2.5917    2.9571    0.7303 C   0  0  0  0  0  0  0  0  0  0  0  0
    3.2986    2.6011   -0.5805 C   0  0  0  0  0  0  0  0  0  0  0  0
    8.8625   -0.3968   -2.8541 C   0  0  0  0  0  0  0  0  0  0  0  0
    9.9685   -1.4570   -2.7307 C   0  0  0  0  0  0  0  0  0  0  0  0
    4.2892    1.4464   -0.4165 C   0  0  0  0  0  0  0  0  0  0  0  0
    7.4945   -0.9348   -3.3090 C   0  0  0  0  0  0  0  0  0  0  0  0
    9.6226   -2.6716   -1.8354 C   0  0  1  0  0  0  0  0  0  0  0  0
   10.9244   -3.4710   -1.6378 C   0  0  0  0  0  0  0  0  0  0  0  0
    5.9494    0.1798   -1.7553 C   0  0  0  0  0  0  0  0  0  0  0  0
    9.1229   -2.2578   -0.5144 N   0  0  0  0  0  0  0  0  0  0  0  0
    6.4545   -0.4947   -0.7769 N   0  0  0  0  0  0  0  0  0  0  0  0
    4.9592    1.1577   -1.6784 N   0  0  0  0  0  0  0  0  0  0  0  0
    6.3844   -0.0179   -3.0601 N   0  0  0  0  0  0  0  0  0  0  0  0
   11.3832   -4.2164   -2.4721 O   0  0  0  0  0  0  0  0  0  0  0  0
   11.5284   -3.2147   -0.4637 O   0  0  0  0  0  0  0  0  0  0  0  0
    1.8848    3.7802    0.5837 H   0  0  0  0  0  0  0  0  0  0  0  0
    3.3110    3.2684    1.4970 H   0  0  0  0  0  0  0  0  0  0  0  0
    2.0305    2.1026    1.1267 H   0  0  0  0  0  0  0  0  0  0  0  0
    3.8359    3.4742   -0.9711 H   0  0  0  0  0  0  0  0  0  0  0  0
    2.5496    2.3289   -1.3385 H   0  0  0  0  0  0  0  0  0  0  0  0
    9.2008    0.3787   -3.5551 H   0  0  0  0  0  0  0  0  0  0  0  0
    8.7289    0.0997   -1.8881 H   0  0  0  0  0  0  0  0  0  0  0  0
   10.8642   -0.9686   -2.3261 H   0  0  0  0  0  0  0  0  0  0  0  0
   10.2468   -1.8549   -3.7136 H   0  0  0  0  0  0  0  0  0  0  0  0
    3.7637    0.5610   -0.0179 H   0  0  0  0  0  0  0  0  0  0  0  0
    5.0547    1.7227    0.3192 H   0  0  0  0  0  0  0  0  0  0  0  0
    7.2508   -1.8594   -2.7817 H   0  0  0  0  0  0  0  0  0  0  0  0
    7.5021   -1.1652   -4.3807 H   0  0  0  0  0  0  0  0  0  0  0  0
    8.9316   -3.3312   -2.3782 H   0  0  0  0  0  0  0  0  0  0  0  0
    8.3761   -1.5578   -0.5890 H   0  0  0  0  0  0  0  0  0  0  0  0
    8.6927   -3.0608   -0.0555 H   0  0  0  0  0  0  0  0  0  0  0  0
    5.9355   -0.3399    0.0858 H   0  0  0  0  0  0  0  0  0  0  0  0
    4.3427    1.1661   -2.4840 H   0  0  0  0  0  0  0  0  0  0  0  0
    6.3983    0.8306   -3.6143 H   0  0  0  0  0  0  0  0  0  0  0  0
   10.9055   -2.5977    0.0025 H   0  0  0  0  0  0  0  0  0  0  0  0
  1 18  1  0
  1 17  1  0
  2  5  1  0
  2  1  1  0
  3  4  1  0
  3 22  1  0
  4 23  1  0
  4  7  1  0
  5 25  1  0
  5 26  1  0
  6 13  1  0
  6  3  1  0
  6 27  1  0
  7 29  1  6
  7  8  1  0
  7 10  1  0
  8 15  1  0
  9 12  1  0
  9 11  2  0
 10 31  1  0
 11 32  1  0
 12  5  1  0
 13  9  1  0
 14  8  2  0
 15 35  1  0
 16  1  1  0
 19  2  1  0
 20  2  1  0
 21  3  1  0
 24  4  1  0
 28  6  1  0
 30 10  1  0
 33 12  1  0
 34 13  1  0
M  END
>  <HBA>  (719) 
6

>  <HBD>  (719) 
4

>  <TPSA>  (719) 
113.73

>  <cid>  (719) 
4387

>  <dipole>  (719) 
9.55

>  <excitation_energy_1>  (719) 
5.551

>  <excitation_energy_2>  (719) 
5.59

>  <excitation_energy_3>  (719) 
5.796

>  <excitation_energy_4>  (719) 
6.032

>  <homo_energy>  (719) 
-6.376

>  <homo_lumo_gap>  (719) 
7.304

>  <logP>  (719) 
1.284

>  <lumo_energy>  (719) 
0.928

>  <melting_point>  (719) 
202.14

>  <molecular_refractivity>  (719) 
59.05

>  <oscillator_strength_1>  (719) 
0.0013

>  <oscillator_strength_2>  (719) 
0.0023

>  <oscillator_strength_3>  (719) 
0.0063

>  <oscillator_strength_4>  (719) 
0.0191

>  <open_babel_can_smiles>  (719) 
CCCNC(=N)NCCC[C@@H](C(=O)O)N

>  <mulliken_charges>  (719) 
35
1   -0.447748
2   -0.27717
3   -0.287992
4   -0.266123
5   -0.116758
6   -0.131663
7   -0.070567
8   0.5923
9   0.669881
10   -0.821915
11   -0.697348
12   -0.634422
13   -0.616761
14   -0.474725
15   -0.584702
16   0.154783
17   0.151168
18   0.149701
19   0.154016
20   0.135746
21   0.129928
22   0.169419
23   0.149112
24   0.160459
25   0.139057
26   0.15858
27   0.175351
28   0.144275
29   0.147924
30   0.383087
31   0.311152
32   0.288331
33   0.319574
34   0.316857
35   0.427193

>  <lowdin_charges>  (719) 
35
1   -0.445687
2   -0.277995
3   -0.298493
4   -0.276717
5   -0.20175
6   -0.200287
7   -0.110573
8   0.176142
9   0.136585
10   -0.569001
11   -0.498366
12   -0.320751
13   -0.30413
14   -0.265325
15   -0.366184
16   0.157677
17   0.152607
18   0.151614
19   0.15161
20   0.141891
21   0.144655
22   0.158545
23   0.154378
24   0.158547
25   0.132638
26   0.152216
27   0.162671
28   0.146545
29   0.146433
30   0.279944
31   0.264817
32   0.256093
33   0.277175
34   0.274518
35   0.357958

$$$$
PCCDB-ID:  4389
     RDKit          3D

 28 28  0  0  1  0  0  0  0  0999 V2000
   -0.1481   -1.5704   -0.2088 C   0  0  0  0  0  0  0  0  0  0  0  0
    1.2073   -1.2111    0.4202 C   0  0  0  0  0  0  0  0  0  0  0  0
   -1.5172    2.6096   -0.2562 C   0  0  0  0  0  0  0  0  0  0  0  0
   -1.6022    4.1291   -0.3709 C   0  0  0  0  0  0  0  0  0  0  0  0
   -0.9339   -0.2538   -0.1424 C   0  0  0  0  0  0  0  0  0  0  0  0
    1.4775    0.2045   -0.1005 C   0  0  1  0  0  0  0  0  0  0  0  0
   -0.0817    2.1139   -0.3168 C   0  0  0  0  0  0  0  0  0  0  0  0
   -3.0344    4.6263   -0.2334 C   0  0  0  0  0  0  0  0  0  0  0  0
    2.2603    0.2087   -1.4388 C   0  0  0  0  0  0  0  0  0  0  0  0
    0.1163    0.7767   -0.2608 N   0  0  0  0  0  0  0  0  0  0  0  0
    0.8734    2.9076   -0.4079 O   0  0  0  0  0  0  0  0  0  0  0  0
   -3.9872    3.9201   -0.0143 O   0  0  0  0  0  0  0  0  0  0  0  0
   -3.1979    5.9694   -0.3690 O   0  0  0  0  0  0  0  0  0  0  0  0
    2.6406   -0.8051   -1.9787 O   0  0  0  0  0  0  0  0  0  0  0  0
    2.5016    1.4223   -1.9462 O   0  0  0  0  0  0  0  0  0  0  0  0
   -0.6653   -2.3825    0.3092 H   0  0  0  0  0  0  0  0  0  0  0  0
    0.0014   -1.8683   -1.2516 H   0  0  0  0  0  0  0  0  0  0  0  0
    2.0042   -1.8954    0.1269 H   0  0  0  0  0  0  0  0  0  0  0  0
    1.1339   -1.1941    1.5136 H   0  0  0  0  0  0  0  0  0  0  0  0
   -2.1068    2.1402   -1.0526 H   0  0  0  0  0  0  0  0  0  0  0  0
   -1.9860    2.2792    0.6788 H   0  0  0  0  0  0  0  0  0  0  0  0
   -1.1895    4.4639   -1.3310 H   0  0  0  0  0  0  0  0  0  0  0  0
   -0.9792    4.6034    0.3976 H   0  0  0  0  0  0  0  0  0  0  0  0
   -1.4618   -0.1492    0.8152 H   0  0  0  0  0  0  0  0  0  0  0  0
   -1.6696   -0.1571   -0.9467 H   0  0  0  0  0  0  0  0  0  0  0  0
    2.0304    0.8270    0.6129 H   0  0  0  0  0  0  0  0  0  0  0  0
   -2.3423    6.3966   -0.5427 H   0  0  0  0  0  0  0  0  0  0  0  0
    2.0742    2.1151   -1.3762 H   0  0  0  0  0  0  0  0  0  0  0  0
  1  5  1  0
  1 16  1  0
  1  2  1  0
  2 19  1  0
  3 21  1  0
  4  3  1  0
  4  8  1  0
  4 23  1  0
  5 24  1  0
  6  2  1  0
  6 26  1  1
  7 10  1  0
  7  3  1  0
  8 12  2  0
  9  6  1  0
 10  5  1  0
 10  6  1  0
 11  7  2  0
 13  8  1  0
 14  9  2  0
 15  9  1  0
 15 28  1  0
 17  1  1  0
 18  2  1  0
 20  3  1  0
 22  4  1  0
 25  5  1  0
 27 13  1  0
M  END
>  <HBA>  (720) 
6

>  <HBD>  (720) 
2

>  <TPSA>  (720) 
94.91

>  <cid>  (720) 
4389

>  <dipole>  (720) 
2.88

>  <excitation_energy_1>  (720) 
5.419

>  <excitation_energy_2>  (720) 
5.737

>  <excitation_energy_3>  (720) 
5.789

>  <excitation_energy_4>  (720) 
5.976

>  <homo_energy>  (720) 
-6.923

>  <homo_lumo_gap>  (720) 
6.599

>  <logP>  (720) 
-0.135

>  <lumo_energy>  (720) 
-0.324

>  <melting_point>  (720) 
172.37

>  <molecular_refractivity>  (720) 
53.82

>  <oscillator_strength_1>  (720) 
0.0091

>  <oscillator_strength_2>  (720) 
0.0005

>  <oscillator_strength_3>  (720) 
0.0006

>  <oscillator_strength_4>  (720) 
0.03

>  <open_babel_can_smiles>  (720) 
OC(=O)CCC(=O)N1CCC[C@H]1C(=O)O

>  <mulliken_charges>  (720) 
28
1   -0.309758
2   -0.293534
3   -0.365961
4   -0.402909
5   -0.123693
6   -0.095212
7   0.618759
8   0.614835
9   0.61558
10   -0.446093
11   -0.570606
12   -0.442591
13   -0.567942
14   -0.455465
15   -0.592336
16   0.158898
17   0.181916
18   0.191181
19   0.146985
20   0.189746
21   0.192492
22   0.185847
23   0.192448
24   0.1618
25   0.17081
26   0.183231
27   0.413808
28   0.447764

>  <lowdin_charges>  (720) 
28
1   -0.280718
2   -0.278127
3   -0.296013
4   -0.318597
5   -0.194855
6   -0.098052
7   0.16965
8   0.199315
9   0.181227
10   -0.094218
11   -0.348277
12   -0.242596
13   -0.355442
14   -0.254711
15   -0.358281
16   0.161077
17   0.164056
18   0.17906
19   0.149084
20   0.178022
21   0.178156
22   0.17396
23   0.178644
24   0.149443
25   0.160406
26   0.171315
27   0.360989
28   0.365485

$$$$
PCCDB-ID:  4395
     RDKit          3D

 27 26  0  0  1  0  0  0  0  0999 V2000
    0.9411    0.1085   -3.2014 C   0  0  0  0  0  0  0  0  0  0  0  0
    5.1793   -1.1093   -2.2154 C   0  0  0  0  0  0  0  0  0  0  0  0
    6.6271   -1.0383   -1.7144 C   0  0  0  0  0  0  0  0  0  0  0  0
    4.2250   -0.3004   -1.3225 C   0  0  0  0  0  0  0  0  0  0  0  0
    2.3933    0.3740   -2.8455 C   0  0  0  0  0  0  0  0  0  0  0  0
    7.6454   -1.7859   -2.5928 C   0  0  1  0  0  0  0  0  0  0  0  0
    7.3759   -3.3095   -2.6133 C   0  0  0  0  0  0  0  0  0  0  0  0
    3.1851    1.1977   -3.4373 N   0  0  0  0  0  0  0  0  0  0  0  0
    7.7870   -1.3157   -3.9858 N   0  0  0  0  0  0  0  0  0  0  0  0
    2.8335   -0.3351   -1.7490 N   0  0  0  0  0  0  0  0  0  0  0  0
    6.9483   -3.9204   -1.6607 O   0  0  0  0  0  0  0  0  0  0  0  0
    7.7016   -3.8955   -3.7752 O   0  0  0  0  0  0  0  0  0  0  0  0
    0.6382    0.7071   -4.0638 H   0  0  0  0  0  0  0  0  0  0  0  0
    0.2829    0.3513   -2.3590 H   0  0  0  0  0  0  0  0  0  0  0  0
    0.7841   -0.9490   -3.4497 H   0  0  0  0  0  0  0  0  0  0  0  0
    4.8544   -2.1570   -2.2418 H   0  0  0  0  0  0  0  0  0  0  0  0
    5.0907   -0.7028   -3.2303 H   0  0  0  0  0  0  0  0  0  0  0  0
    6.6848   -1.4681   -0.7079 H   0  0  0  0  0  0  0  0  0  0  0  0
    6.9437    0.0111   -1.6365 H   0  0  0  0  0  0  0  0  0  0  0  0
    4.5333    0.7495   -1.3147 H   0  0  0  0  0  0  0  0  0  0  0  0
    4.2665   -0.6709   -0.2911 H   0  0  0  0  0  0  0  0  0  0  0  0
    8.6361   -1.6833   -2.1294 H   0  0  0  0  0  0  0  0  0  0  0  0
    2.6831    1.6911   -4.1761 H   0  0  0  0  0  0  0  0  0  0  0  0
    6.8813   -1.0347   -4.3596 H   0  0  0  0  0  0  0  0  0  0  0  0
    8.3905   -0.4986   -4.0359 H   0  0  0  0  0  0  0  0  0  0  0  0
    2.3004   -1.1542   -1.4932 H   0  0  0  0  0  0  0  0  0  0  0  0
    7.9840   -3.1465   -4.3605 H   0  0  0  0  0  0  0  0  0  0  0  0
  1  5  1  0
  1 14  1  0
  2  3  1  0
  2  4  1  0
  3 19  1  0
  3 18  1  0
  4 20  1  0
  4 21  1  0
  5 10  1  0
  6 22  1  1
  6  3  1  0
  7  6  1  0
  7 11  2  0
  8  5  2  0
  9  6  1  0
 10 26  1  0
 10  4  1  0
 12  7  1  0
 13  1  1  0
 15  1  1  0
 16  2  1  0
 17  2  1  0
 23  8  1  0
 24  9  1  0
 25  9  1  0
 27 12  1  0
M  END
>  <HBA>  (721) 
5

>  <HBD>  (721) 
3

>  <TPSA>  (721) 
101.7

>  <cid>  (721) 
4395

>  <dipole>  (721) 
3.74

>  <excitation_energy_1>  (721) 
5.345

>  <excitation_energy_2>  (721) 
5.393

>  <excitation_energy_3>  (721) 
5.423

>  <excitation_energy_4>  (721) 
5.982

>  <homo_energy>  (721) 
-6.049

>  <homo_lumo_gap>  (721) 
6.528

>  <logP>  (721) 
0.956

>  <lumo_energy>  (721) 
0.479

>  <melting_point>  (721) 
176.29

>  <molecular_refractivity>  (721) 
46.63

>  <oscillator_strength_1>  (721) 
0.0039

>  <oscillator_strength_2>  (721) 
0.001

>  <oscillator_strength_3>  (721) 
0.0033

>  <oscillator_strength_4>  (721) 
0.0214

>  <open_babel_can_smiles>  (721) 
CC(=N)NCCC[C@@H](C(=O)O)N

>  <mulliken_charges>  (721) 
27
1   -0.52481
2   -0.28252
3   -0.261003
4   -0.121108
5   0.471439
6   -0.097487
7   0.613944
8   -0.651801
9   -0.774807
10   -0.581449
11   -0.474086
12   -0.582606
13   0.162089
14   0.175152
15   0.163966
16   0.150159
17   0.153383
18   0.164148
19   0.132686
20   0.173899
21   0.139892
22   0.173569
23   0.273239
24   0.331128
25   0.324154
26   0.316566
27   0.432263

>  <lowdin_charges>  (721) 
27
1   -0.467608
2   -0.294498
3   -0.281476
4   -0.191774
5   0.096177
6   -0.109565
7   0.1761
8   -0.466373
9   -0.548424
10   -0.289573
11   -0.26489
12   -0.357641
13   0.164246
14   0.169178
15   0.162025
16   0.148102
17   0.148382
18   0.161749
19   0.142277
20   0.162374
21   0.144892
22   0.167259
23   0.250375
24   0.269355
25   0.272585
26   0.276375
27   0.360368

$$$$
PCCDB-ID:  4436
     RDKit          3D

 30 32  0  0  1  0  0  0  0  0999 V2000
    2.5032    2.2712   -0.5944 C   0  0  0  0  0  0  0  0  0  0  0  0
    2.8623    0.9038   -0.6334 C   0  0  0  0  0  0  0  0  0  0  0  0
   -2.1379    1.0474    0.1770 C   0  0  0  0  0  0  0  0  0  0  0  0
    1.1917    2.6310   -0.3837 C   0  0  0  0  0  0  0  0  0  0  0  0
   -1.1734    2.0116    0.0133 C   0  0  0  0  0  0  0  0  0  0  0  0
   -1.7864   -0.3229    0.1237 C   0  0  0  0  0  0  0  0  0  0  0  0
    1.9099   -0.0782   -0.4649 C   0  0  0  0  0  0  0  0  0  0  0  0
    2.1192   -3.7202    2.3264 C   0  0  0  0  0  0  0  0  0  0  0  0
    1.2103   -2.8660    3.2525 C   0  0  0  0  0  0  0  0  0  0  0  0
   -0.1590   -2.2157   -0.1424 C   0  0  0  0  0  0  0  0  0  0  0  0
    0.1827    1.6471   -0.2064 C   0  0  0  0  0  0  0  0  0  0  0  0
   -0.4830   -0.7316   -0.0852 C   0  0  0  0  0  0  0  0  0  0  0  0
    0.5434    0.2580   -0.2511 C   0  0  0  0  0  0  0  0  0  0  0  0
    0.6245   -2.7222    1.0440 C   0  0  0  0  0  3  0  0  0  0  0  0
    1.7282   -3.3712    0.9474 N   0  0  0  0  0  2  0  0  0  0  0  0
    0.1121   -2.5442    2.3292 N   0  0  0  0  0  0  0  0  0  0  0  0
    3.2646    3.0346   -0.7299 H   0  0  0  0  0  0  0  0  0  0  0  0
    3.9001    0.6249   -0.7947 H   0  0  0  0  0  0  0  0  0  0  0  0
   -3.1746    1.3278    0.3425 H   0  0  0  0  0  0  0  0  0  0  0  0
    0.9061    3.6799   -0.3501 H   0  0  0  0  0  0  0  0  0  0  0  0
   -1.4325    3.0672    0.0479 H   0  0  0  0  0  0  0  0  0  0  0  0
   -2.5663   -1.0726    0.2374 H   0  0  0  0  0  0  0  0  0  0  0  0
    2.2099   -1.1209   -0.4748 H   0  0  0  0  0  0  0  0  0  0  0  0
    1.9463   -4.7938    2.4844 H   0  0  0  0  0  0  0  0  0  0  0  0
    3.1859   -3.5336    2.4871 H   0  0  0  0  0  0  0  0  0  0  0  0
    1.7242   -1.9561    3.5968 H   0  0  0  0  0  0  0  0  0  0  0  0
    0.8510   -3.4125    4.1297 H   0  0  0  0  0  0  0  0  0  0  0  0
    0.4142   -2.4667   -1.0396 H   0  0  0  0  0  0  0  0  0  0  0  0
   -1.1003   -2.7768   -0.1927 H   0  0  0  0  0  0  0  0  0  0  0  0
   -0.4136   -1.6927    2.4934 H   0  0  0  0  0  0  0  0  0  0  0  0
  1  4  2  0
  2  1  1  0
  2  7  2  0
  3 19  1  0
  4 20  1  0
  4 11  1  0
  5 21  1  0
  5  3  1  0
  6  3  2  0
  6 22  1  0
  7 13  1  0
  8 24  1  0
  8 25  1  0
  8  9  1  0
  9 26  1  0
  9 27  1  0
 10 12  1  0
 10 14  1  0
 11  5  2  0
 12  6  1  0
 13 11  1  0
 13 12  2  0
 14 16  1  0
 15 14  1  0
 15  8  1  0
 16 30  1  0
 16  9  1  0
 17  1  1  0
 18  2  1  0
 23  7  1  0
 28 10  1  0
 29 10  1  0
M  RAD  2  14   2  15   2
M  END
>  <HBA>  (722) 
2

>  <HBD>  (722) 
1

>  <TPSA>  (722) 
24.39

>  <cid>  (722) 
4436

>  <dipole>  (722) 
2.5

>  <excitation_energy_1>  (722) 
4.098

>  <excitation_energy_2>  (722) 
4.3

>  <excitation_energy_3>  (722) 
4.403

>  <excitation_energy_4>  (722) 
4.896

>  <homo_energy>  (722) 
-5.78

>  <homo_lumo_gap>  (722) 
4.699

>  <logP>  (722) 
2.148

>  <lumo_energy>  (722) 
-1.08

>  <melting_point>  (722) 
118.12

>  <molecular_refractivity>  (722) 
74.95

>  <oscillator_strength_1>  (722) 
0.014

>  <oscillator_strength_2>  (722) 
0.0806

>  <oscillator_strength_3>  (722) 
0.0018

>  <oscillator_strength_4>  (722) 
0.0027

>  <open_babel_can_smiles>  (722) 
C1CN[C]([N]1)Cc1cccc2c1cccc2

>  <mulliken_charges>  (722) 
30
1   -0.129677
2   -0.140847
3   -0.130043
4   -0.198304
5   -0.19174
6   -0.218895
7   -0.204415
8   -0.160971
9   -0.148452
10   -0.428021
11   0.143699
12   0.098058
13   0.072096
14   0.501465
15   -0.475921
16   -0.602557
17   0.130339
18   0.133282
19   0.13113
20   0.129359
21   0.130254
22   0.128386
23   0.169569
24   0.149862
25   0.147669
26   0.14284
27   0.149501
28   0.182808
29   0.169197
30   0.320329

>  <lowdin_charges>  (722) 
30
1   -0.158309
2   -0.153937
3   -0.159662
4   -0.156305
5   -0.155052
6   -0.178694
7   -0.161399
8   -0.206275
9   -0.211902
10   -0.279827
11   0.000837
12   -0.010043
13   -0.010097
14   0.083411
15   -0.24932
16   -0.316796
17   0.1598
18   0.158795
19   0.158175
20   0.155891
21   0.156553
22   0.157442
23   0.174473
24   0.144553
25   0.147752
26   0.137544
27   0.150144
28   0.177106
29   0.168894
30   0.276248

$$$$
PCCDB-ID:  4458
     RDKit          3D

 29 28  0  0  0  0  0  0  0  0999 V2000
    6.0176   -2.9454   -1.4666 C   0  0  0  0  0  0  0  0  0  0  0  0
    6.1793   -1.7089    0.7430 C   0  0  0  0  0  0  0  0  0  0  0  0
    7.8480    2.1846   -0.4633 C   0  0  0  0  0  0  0  0  0  0  0  0
    4.9986    0.7902   -0.7815 C   0  0  0  0  0  0  0  0  0  0  0  0
    5.2972   -0.5748   -1.3411 C   0  0  0  0  0  0  0  0  0  0  0  0
    5.5905    1.9393   -1.6393 C   0  0  0  0  0  0  0  0  0  0  0  0
    7.6856    1.7359   -2.9470 C   0  0  0  0  0  0  0  0  0  0  0  0
    9.1486    1.6515   -3.2780 C   0  0  0  0  0  0  0  0  0  0  0  0
    5.7984   -1.6519   -0.7168 C   0  0  0  0  0  0  0  0  0  0  0  0
    7.1026    1.9358   -1.7533 C   0  0  0  0  0  0  0  0  0  0  0  0
    9.4658    0.4143   -3.9251 O   0  0  0  0  0  0  0  0  0  0  0  0
    7.0702   -3.2593   -1.4174 H   0  0  0  0  0  0  0  0  0  0  0  0
    5.7382   -2.8594   -2.5214 H   0  0  0  0  0  0  0  0  0  0  0  0
    5.4313   -3.7644   -1.0260 H   0  0  0  0  0  0  0  0  0  0  0  0
    7.2342   -1.9948    0.8590 H   0  0  0  0  0  0  0  0  0  0  0  0
    5.5930   -2.4776    1.2658 H   0  0  0  0  0  0  0  0  0  0  0  0
    6.0274   -0.7637    1.2696 H   0  0  0  0  0  0  0  0  0  0  0  0
    7.5441    3.1451   -0.0248 H   0  0  0  0  0  0  0  0  0  0  0  0
    8.9325    2.2070   -0.5887 H   0  0  0  0  0  0  0  0  0  0  0  0
    7.6143    1.4138    0.2824 H   0  0  0  0  0  0  0  0  0  0  0  0
    5.3405    0.8833    0.2542 H   0  0  0  0  0  0  0  0  0  0  0  0
    3.9082    0.9393   -0.7519 H   0  0  0  0  0  0  0  0  0  0  0  0
    5.0629   -0.6812   -2.4025 H   0  0  0  0  0  0  0  0  0  0  0  0
    5.2602    2.8924   -1.1994 H   0  0  0  0  0  0  0  0  0  0  0  0
    5.1512    1.8904   -2.6435 H   0  0  0  0  0  0  0  0  0  0  0  0
    7.0403    1.5743   -3.8116 H   0  0  0  0  0  0  0  0  0  0  0  0
    9.7831    1.8038   -2.3935 H   0  0  0  0  0  0  0  0  0  0  0  0
    9.4220    2.4246   -4.0064 H   0  0  0  0  0  0  0  0  0  0  0  0
    9.1233   -0.2909   -3.3531 H   0  0  0  0  0  0  0  0  0  0  0  0
  1 12  1  0
  1 14  1  0
  1  9  1  0
  2 15  1  0
  2 16  1  0
  2 17  1  0
  3 18  1  0
  3 20  1  0
  4 22  1  0
  4 21  1  0
  5  4  1  0
  5  9  2  3
  6 24  1  0
  6  4  1  0
  7 10  2  0
  8  7  1  0
  8 27  1  0
  9  2  1  0
 10  6  1  0
 10  3  1  0
 11 29  1  0
 11  8  1  0
 13  1  1  0
 19  3  1  0
 23  5  1  0
 25  6  1  0
 26  7  1  0
 28  8  1  0
M  END
>  <HBA>  (723) 
1

>  <HBD>  (723) 
1

>  <TPSA>  (723) 
20.23

>  <cid>  (723) 
4458

>  <dipole>  (723) 
2.37

>  <excitation_energy_1>  (723) 
5.544

>  <excitation_energy_2>  (723) 
5.644

>  <excitation_energy_3>  (723) 
5.821

>  <excitation_energy_4>  (723) 
5.917

>  <homo_energy>  (723) 
-6.286

>  <homo_lumo_gap>  (723) 
6.751

>  <logP>  (723) 
2.671

>  <lumo_energy>  (723) 
0.465

>  <melting_point>  (723) 
15.82

>  <molecular_refractivity>  (723) 
50.4

>  <oscillator_strength_1>  (723) 
0.0059

>  <oscillator_strength_2>  (723) 
0.0118

>  <oscillator_strength_3>  (723) 
0.0036

>  <oscillator_strength_4>  (723) 
0.1546

>  <open_babel_can_smiles>  (723) 
OC/C=C(/CCC=C(C)C)\C

>  <mulliken_charges>  (723) 
29
1   -0.506418
2   -0.512845
3   -0.527274
4   -0.306916
5   -0.145868
6   -0.33453
7   -0.217084
8   -0.061956
9   0.179776
10   0.217396
11   -0.616761
12   0.146306
13   0.152699
14   0.15039
15   0.150431
16   0.153748
17   0.151851
18   0.1547
19   0.156481
20   0.159813
21   0.138732
22   0.145873
23   0.109906
24   0.136399
25   0.141577
26   0.12463
27   0.124438
28   0.149782
29   0.384724

>  <lowdin_charges>  (723) 
29
1   -0.437839
2   -0.445306
3   -0.4467
4   -0.271978
5   -0.187762
6   -0.271062
7   -0.216566
8   -0.134433
9   -0.011687
10   -0.000549
11   -0.473473
12   0.149671
13   0.153544
14   0.153861
15   0.152821
16   0.157392
17   0.153696
18   0.157263
19   0.154698
20   0.158788
21   0.143865
22   0.149836
23   0.143617
24   0.146474
25   0.146953
26   0.152223
27   0.13014
28   0.151837
29   0.340677

$$$$
PCCDB-ID:  4498
     RDKit          3D

 20 20  0  0  1  0  0  0  0  0999 V2000
    0.7568    1.2359   -0.3083 C   0  0  0  0  0  0  0  0  0  0  0  0
    1.4642   -0.0343    0.1869 C   0  0  0  0  0  0  0  0  0  0  0  0
   -0.7084    1.2639    0.1626 C   0  0  0  0  0  0  0  0  0  0  0  0
   -0.8025   -1.1661    0.2740 C   0  0  0  0  0  0  0  0  0  0  0  0
    0.6595   -1.2995   -0.2058 C   0  0  2  0  0  0  0  0  0  0  0  0
    1.3141   -2.5555    0.3599 C   0  0  0  0  0  0  0  0  0  0  0  0
   -1.4666    0.0568   -0.1752 N   0  0  0  0  0  0  0  0  0  0  0  0
    0.8841   -3.1946    1.2878 O   0  0  0  0  0  0  0  0  0  0  0  0
    2.4815   -2.9339   -0.2375 O   0  0  0  0  0  0  0  0  0  0  0  0
    0.7849    1.2672   -1.4077 H   0  0  0  0  0  0  0  0  0  0  0  0
    1.2901    2.1265    0.0484 H   0  0  0  0  0  0  0  0  0  0  0  0
    1.5516   -0.0048    1.2819 H   0  0  0  0  0  0  0  0  0  0  0  0
    2.4884   -0.0833   -0.2062 H   0  0  0  0  0  0  0  0  0  0  0  0
   -1.2325    2.1304   -0.2564 H   0  0  0  0  0  0  0  0  0  0  0  0
   -0.7350    1.3744    1.2561 H   0  0  0  0  0  0  0  0  0  0  0  0
   -0.8095   -1.1833    1.3702 H   0  0  0  0  0  0  0  0  0  0  0  0
   -1.3894   -2.0298   -0.0542 H   0  0  0  0  0  0  0  0  0  0  0  0
    0.6609   -1.3776   -1.3060 H   0  0  0  0  0  0  0  0  0  0  0  0
   -1.6091    0.0180   -1.1841 H   0  0  0  0  0  0  0  0  0  0  0  0
    2.6888   -2.3297   -0.9694 H   0  0  0  0  0  0  0  0  0  0  0  0
  1 11  1  0
  1  3  1  0
  1  2  1  0
  2 12  1  0
  3 15  1  0
  4 16  1  0
  5 18  1  6
  5  2  1  0
  5  4  1  0
  5  6  1  0
  6  8  2  0
  7  3  1  0
  7  4  1  0
  9  6  1  0
 10  1  1  0
 13  2  1  0
 14  3  1  0
 17  4  1  0
 19  7  1  0
 20  9  1  0
M  END
>  <HBA>  (724) 
3

>  <HBD>  (724) 
2

>  <TPSA>  (724) 
49.33

>  <cid>  (724) 
4498

>  <dipole>  (724) 
4.81

>  <excitation_energy_1>  (724) 
4.991

>  <excitation_energy_2>  (724) 
5.304

>  <excitation_energy_3>  (724) 
5.579

>  <excitation_energy_4>  (724) 
5.704

>  <homo_energy>  (724) 
-6.055

>  <homo_lumo_gap>  (724) 
6.289

>  <logP>  (724) 
0.399

>  <lumo_energy>  (724) 
0.234

>  <melting_point>  (724) 
100.35

>  <molecular_refractivity>  (724) 
37.33

>  <oscillator_strength_1>  (724) 
0.0102

>  <oscillator_strength_2>  (724) 
0.0053

>  <oscillator_strength_3>  (724) 
0.0053

>  <oscillator_strength_4>  (724) 
0.0067

>  <open_babel_can_smiles>  (724) 
OC(=O)[C@@H]1CCCNC1

>  <mulliken_charges>  (724) 
20
1   -0.263284
2   -0.269711
3   -0.147485
4   -0.145077
5   -0.229872
6   0.616002
7   -0.528348
8   -0.443866
9   -0.574655
10   0.12558
11   0.14052
12   0.157798
13   0.128728
14   0.143164
15   0.145882
16   0.167852
17   0.15445
18   0.126317
19   0.287907
20   0.4081

>  <lowdin_charges>  (724) 
20
1   -0.292695
2   -0.273572
3   -0.207489
4   -0.204819
5   -0.187518
6   0.196341
7   -0.351987
8   -0.237622
9   -0.360963
10   0.134324
11   0.151072
12   0.150649
13   0.139174
14   0.149418
15   0.141708
16   0.155207
17   0.15648
18   0.138402
19   0.2469
20   0.35699

$$$$
PCCDB-ID:  4509
     RDKit          3D

 23 24  0  0  0  0  0  0  0  0999 V2000
   -1.2142    0.0224   -0.6376 C   0  0  0  0  0  0  0  0  0  0  0  0
   -0.5152   -1.1893   -0.4249 C   0  0  0  0  0  0  0  0  0  0  0  0
   -0.6734    2.4346    0.1838 C   0  0  0  0  0  0  0  0  0  0  0  0
   -3.0879    4.8893   -0.8751 C   0  0  0  0  0  0  0  0  0  0  0  0
   -0.5014    1.0103    0.0136 C   0  0  0  0  0  0  0  0  0  0  0  0
   -2.8883    6.3323   -0.4645 C   0  0  0  0  0  0  0  0  0  0  0  0
    0.5717   -0.8521    0.3391 C   0  0  0  0  0  0  0  0  0  0  0  0
   -1.1793    5.3209    0.4251 C   0  0  0  0  0  0  0  0  0  0  0  0
   -1.7064    2.9844   -0.3671 N   0  0  0  0  0  0  0  0  0  0  0  0
   -1.8469    6.5624    0.2445 N   0  0  0  0  0  0  0  0  0  0  0  0
   -1.9212    4.3145   -0.2424 N   0  0  0  0  0  0  0  0  0  0  0  0
    1.6271   -1.6603    0.8543 N   0  0  0  0  0  0  0  0  0  0  0  0
   -3.7322    7.3054   -0.8128 O   0  0  0  0  0  0  0  0  0  0  0  0
   -0.1537    5.1393    1.0405 O   0  0  0  0  0  0  0  0  0  0  0  0
    1.5620   -2.8649    0.5825 O   0  0  0  0  0  0  0  0  0  0  0  0
    2.5073   -1.1130    1.5175 O   0  0  0  0  0  0  0  0  0  0  0  0
    0.5998    0.4705    0.6150 O   0  0  0  0  0  0  0  0  0  0  0  0
   -2.1276    0.1712   -1.1943 H   0  0  0  0  0  0  0  0  0  0  0  0
   -0.7584   -2.1811   -0.7742 H   0  0  0  0  0  0  0  0  0  0  0  0
    0.0692    2.9740    0.7650 H   0  0  0  0  0  0  0  0  0  0  0  0
   -3.0742    4.7586   -1.9656 H   0  0  0  0  0  0  0  0  0  0  0  0
   -4.0224    4.4655   -0.4836 H   0  0  0  0  0  0  0  0  0  0  0  0
   -4.4620    6.9482   -1.3448 H   0  0  0  0  0  0  0  0  0  0  0  0
  1  2  1  0
  1  5  2  0
  2  7  2  0
  3 20  1  0
  4 22  1  0
  4  6  1  0
  4 11  1  0
  5  3  1  0
  5 17  1  0
  6 10  2  0
  7 17  1  0
  7 12  1  0
  8 14  2  0
  9 11  1  0
  9  3  2  0
 10  8  1  0
 11  8  1  0
 12 16  1  0
 13  6  1  0
 15 12  2  0
 18  1  1  0
 19  2  1  0
 21  4  1  0
 23 13  1  0
M  CHG  2  12   1  16  -1
M  END
>  <HBA>  (725) 
6

>  <HBD>  (725) 
1

>  <TPSA>  (725) 
120.73

>  <cid>  (725) 
4509

>  <dipole>  (725) 
10.41

>  <excitation_energy_1>  (725) 
3.451

>  <excitation_energy_2>  (725) 
3.684

>  <excitation_energy_3>  (725) 
3.975

>  <excitation_energy_4>  (725) 
4.204

>  <homo_energy>  (725) 
-6.419

>  <homo_lumo_gap>  (725) 
3.717

>  <logP>  (725) 
0.863

>  <lumo_energy>  (725) 
-2.702

>  <melting_point>  (725) 
167.56

>  <molecular_refractivity>  (725) 
62.8

>  <oscillator_strength_1>  (725) 
0.6963

>  <oscillator_strength_2>  (725) 
0.0

>  <oscillator_strength_3>  (725) 
0.0004

>  <oscillator_strength_4>  (725) 
0.0002

>  <open_babel_can_smiles>  (725) 
O=C1N=C(CN1/N=C/c1ccc(o1)N(=O)=O)O

>  <mulliken_charges>  (725) 
23
1   -0.191989
2   -0.145941
3   -0.017963
4   -0.188986
5   0.375588
6   0.524593
7   0.535692
8   0.763392
9   -0.283634
10   -0.478813
11   -0.344249
12   0.329033
13   -0.557249
14   -0.480011
15   -0.406707
16   -0.388542
17   -0.454028
18   0.169383
19   0.189378
20   0.226183
21   0.198996
22   0.198907
23   0.426968

>  <lowdin_charges>  (725) 
23
1   -0.182487
2   -0.15072
3   -0.117465
4   -0.220732
5   0.091659
6   0.146126
7   0.06993
8   0.175966
9   -0.089428
10   -0.176535
11   -0.048435
12   0.301905
13   -0.304691
14   -0.240639
15   -0.256962
16   -0.237612
17   -0.060252
18   0.184783
19   0.195032
20   0.193824
21   0.175093
22   0.177241
23   0.374399

$$$$
PCCDB-ID:  4511
     RDKit          3D

 20 20  0  0  0  0  0  0  0  0999 V2000
   -0.6674    1.2021    0.0240 C   0  0  0  0  0  0  0  0  0  0  0  0
   -0.6540   -1.2141    0.0644 C   0  0  0  0  0  0  0  0  0  0  0  0
    1.4577    0.0054   -0.0035 C   0  0  0  0  0  0  0  0  0  0  0  0
   -1.3698   -0.0099    0.0556 C   0  0  0  0  0  0  0  0  0  0  0  0
    0.7244    1.1851   -0.0110 C   0  0  0  0  0  0  0  0  0  0  0  0
    0.7359   -1.1827    0.0369 C   0  0  0  0  0  0  0  0  0  0  0  0
   -2.8702   -0.0251    0.0532 C   0  0  0  0  0  0  0  0  0  0  0  0
   -3.6175   -0.8474   -0.5597 N   0  0  0  0  0  0  0  0  0  0  0  0
    1.4518    2.4718   -0.0552 N   0  0  0  0  0  0  0  0  0  0  0  0
    1.4786   -2.4617    0.0552 N   0  0  0  0  0  0  0  0  0  0  0  0
   -3.4688    0.9807    0.7487 O   0  0  0  0  0  0  0  0  0  0  0  0
    0.7773    3.4985   -0.0406 O   0  0  0  0  0  0  0  0  0  0  0  0
    2.6772    2.4248   -0.0996 O   0  0  0  0  0  0  0  0  0  0  0  0
    0.8161   -3.4954    0.0862 O   0  0  0  0  0  0  0  0  0  0  0  0
    2.7042   -2.4006    0.0362 O   0  0  0  0  0  0  0  0  0  0  0  0
   -1.1829    2.1552   -0.0026 H   0  0  0  0  0  0  0  0  0  0  0  0
   -1.1628   -2.1699    0.1077 H   0  0  0  0  0  0  0  0  0  0  0  0
    2.5391    0.0103   -0.0257 H   0  0  0  0  0  0  0  0  0  0  0  0
   -3.0637   -1.5015   -1.1140 H   0  0  0  0  0  0  0  0  0  0  0  0
   -2.8481    1.3543    1.3937 H   0  0  0  0  0  0  0  0  0  0  0  0
  1  4  2  0
  2 17  1  0
  3  6  1  0
  4  2  1  0
  5  3  2  0
  5  1  1  0
  6 10  1  0
  6  2  2  0
  7  4  1  0
  7 11  1  0
  8  7  2  0
  9 12  1  0
  9  5  1  0
 10 14  1  0
 11 20  1  0
 13  9  2  0
 15 10  2  0
 16  1  1  0
 18  3  1  0
 19  8  1  0
M  CHG  4   9   1  10   1  12  -1  14  -1
M  END
>  <HBA>  (726) 
2

>  <HBD>  (726) 
1

>  <TPSA>  (726) 
134.73

>  <cid>  (726) 
4511

>  <dipole>  (726) 
0.97

>  <excitation_energy_1>  (726) 
3.691

>  <excitation_energy_2>  (726) 
3.706

>  <excitation_energy_3>  (726) 
3.719

>  <excitation_energy_4>  (726) 
3.856

>  <homo_energy>  (726) 
-7.938

>  <homo_lumo_gap>  (726) 
4.4

>  <logP>  (726) 
2.349

>  <lumo_energy>  (726) 
-3.538

>  <melting_point>  (726) 
172.72

>  <molecular_refractivity>  (726) 
52.18

>  <oscillator_strength_1>  (726) 
0.0045

>  <oscillator_strength_2>  (726) 
0.0041

>  <oscillator_strength_3>  (726) 
0.0048

>  <oscillator_strength_4>  (726) 
0.0019

>  <open_babel_can_smiles>  (726) 
OC(=N)c1cc(cc(c1)N(=O)=O)N(=O)=O

>  <mulliken_charges>  (726) 
20
1   -0.195317
2   -0.177319
3   -0.168969
4   0.039817
5   0.272298
6   0.266435
7   0.446709
8   -0.558883
9   0.391156
10   0.392428
11   -0.566873
12   -0.380806
13   -0.372771
14   -0.379357
15   -0.373267
16   0.209149
17   0.208852
18   0.235174
19   0.297957
20   0.413585

>  <lowdin_charges>  (726) 
20
1   -0.130085
2   -0.116166
3   -0.111069
4   -0.034898
5   0.013345
6   0.013354
7   0.126232
8   -0.36308
9   0.305838
10   0.30584
11   -0.352271
12   -0.230345
13   -0.220695
14   -0.228613
15   -0.221197
16   0.199123
17   0.200352
18   0.21529
19   0.266626
20   0.362417

$$$$
PCCDB-ID:  4518
     RDKit          3D

 24 23  0  0  0  0  0  0  0  0999 V2000
    1.3611    2.0547    0.4922 C   0  0  0  0  0  0  0  0  0  0  0  0
   -3.0163    0.0348    1.5117 C   0  0  0  0  0  0  0  0  0  0  0  0
    0.6833    0.9638    1.3279 C   0  0  0  0  0  0  0  0  0  0  0  0
   -1.5160   -0.1104    1.7740 C   0  0  0  0  0  0  0  0  0  0  0  0
    1.2122    3.3997    1.0822 N   0  0  0  0  0  0  0  0  0  0  0  0
   -3.6851   -1.2319    1.8296 N   0  0  0  0  0  0  0  0  0  0  0  0
   -0.7049    2.2771    3.4395 N   0  0  0  0  0  0  0  0  0  0  0  0
   -0.7788    1.1086    1.4047 N   0  0  0  0  0  0  0  0  0  0  0  0
   -1.1872    2.2087    2.1746 N   0  0  0  0  0  0  0  0  0  0  0  0
   -0.7344    3.3833    3.9552 O   0  0  0  0  0  0  0  0  0  0  0  0
   -1.4797    3.3660    1.4797 O   0  0  0  0  0  0  0  0  0  0  0  0
    0.8950    2.0784   -0.4984 H   0  0  0  0  0  0  0  0  0  0  0  0
    2.4168    1.7687    0.3606 H   0  0  0  0  0  0  0  0  0  0  0  0
   -3.1629    0.3892    0.4778 H   0  0  0  0  0  0  0  0  0  0  0  0
   -3.4199    0.8079    2.1729 H   0  0  0  0  0  0  0  0  0  0  0  0
    1.1389    0.9098    2.3303 H   0  0  0  0  0  0  0  0  0  0  0  0
    0.8789    0.0076    0.8316 H   0  0  0  0  0  0  0  0  0  0  0  0
   -1.1157   -0.9155    1.1452 H   0  0  0  0  0  0  0  0  0  0  0  0
   -1.3527   -0.3976    2.8226 H   0  0  0  0  0  0  0  0  0  0  0  0
   -0.5569    3.6999    1.2582 H   0  0  0  0  0  0  0  0  0  0  0  0
    1.6770    4.0928    0.4986 H   0  0  0  0  0  0  0  0  0  0  0  0
    1.6544    3.4441    2.0002 H   0  0  0  0  0  0  0  0  0  0  0  0
   -3.5299   -1.9045    1.0798 H   0  0  0  0  0  0  0  0  0  0  0  0
   -4.6917   -1.0880    1.8723 H   0  0  0  0  0  0  0  0  0  0  0  0
  1  5  1  0
  1  3  1  0
  2  4  1  0
  2  6  1  0
  2 15  1  0
  3  8  1  0
  3 16  1  0
  4 19  1  0
  5 22  1  0
  6 24  1  0
  7 10  2  0
  8  4  1  0
  8  9  1  0
  9  7  1  0
 11  9  1  0
 12  1  1  0
 13  1  1  0
 14  2  1  0
 17  3  1  0
 18  4  1  0
 20 11  1  0
 21  5  1  0
 23  6  1  0
M  END
>  <HBA>  (727) 
6

>  <HBD>  (727) 
2

>  <TPSA>  (727) 
112.63

>  <cid>  (727) 
4518

>  <dipole>  (727) 
5.64

>  <excitation_energy_1>  (727) 
3.02

>  <excitation_energy_2>  (727) 
4.527

>  <excitation_energy_3>  (727) 
4.687

>  <excitation_energy_4>  (727) 
5.233

>  <homo_energy>  (727) 
-5.802

>  <homo_lumo_gap>  (727) 
4.806

>  <logP>  (727) 
-1.415

>  <lumo_energy>  (727) 
-0.996

>  <melting_point>  (727) 
172.38

>  <molecular_refractivity>  (727) 
40.85

>  <oscillator_strength_1>  (727) 
0.0018

>  <oscillator_strength_2>  (727) 
0.0002

>  <oscillator_strength_3>  (727) 
0.0002

>  <oscillator_strength_4>  (727) 
0.001

>  <open_babel_can_smiles>  (727) 
NCCN(N(N=O)O)CCN

>  <mulliken_charges>  (727) 
24
1   -0.135739
2   -0.150868
3   -0.128425
4   -0.098002
5   -0.765861
6   -0.720545
7   0.135393
8   -0.285317
9   0.107581
10   -0.342281
11   -0.512424
12   0.166908
13   0.137632
14   0.131265
15   0.167248
16   0.153953
17   0.153178
18   0.131358
19   0.161581
20   0.441488
21   0.326553
22   0.329928
23   0.292419
24   0.302975

>  <lowdin_charges>  (727) 
24
1   -0.207902
2   -0.211379
3   -0.211851
4   -0.203993
5   -0.535622
6   -0.554822
7   0.039323
8   -0.117779
9   0.078628
10   -0.243038
11   -0.388796
12   0.156203
13   0.135948
14   0.126935
15   0.157057
16   0.139843
17   0.159275
18   0.144231
19   0.144498
20   0.339849
21   0.273402
22   0.271037
23   0.25171
24   0.257243

$$$$
PCCDB-ID:  4522
     RDKit          3D

 25 24  0  0  0  0  0  0  0  0999 V2000
    1.9496   -0.9242   -0.2314 C   0  0  0  0  0  0  0  0  0  0  0  0
    4.5294    3.5144   -2.5328 C   0  0  0  0  0  0  0  0  0  0  0  0
    4.0985    1.3472    0.6074 C   0  0  0  0  0  0  0  0  0  0  0  0
    4.1668   -0.1870    0.5657 C   0  0  0  0  0  0  0  0  0  0  0  0
    4.7993    2.0669   -0.5663 C   0  0  0  0  0  0  0  0  0  0  0  0
    3.3863   -0.8035   -0.5276 N   0  0  0  0  0  0  0  0  0  0  0  0
    1.6656    2.2955   -2.3129 N   0  0  0  0  0  2  0  0  0  0  0  0
    3.8658    2.7613   -1.4609 N   0  0  0  0  0  0  0  0  0  0  0  0
    2.9121    1.8790   -1.9635 N   0  0  0  0  0  0  0  0  0  0  0  0
    1.3680    3.4111   -1.9154 O   0  0  0  0  0  1  0  0  0  0  0  0
    3.3639    0.8115   -2.7505 O   0  0  0  0  0  0  0  0  0  0  0  0
    1.4567   -1.4518   -1.0529 H   0  0  0  0  0  0  0  0  0  0  0  0
    1.5034    0.0704   -0.1629 H   0  0  0  0  0  0  0  0  0  0  0  0
    1.7533   -1.4636    0.7090 H   0  0  0  0  0  0  0  0  0  0  0  0
    5.1941    4.2517   -2.0728 H   0  0  0  0  0  0  0  0  0  0  0  0
    3.7669    4.0470   -3.1052 H   0  0  0  0  0  0  0  0  0  0  0  0
    5.1122    2.8685   -3.2059 H   0  0  0  0  0  0  0  0  0  0  0  0
    4.5712    1.6558    1.5478 H   0  0  0  0  0  0  0  0  0  0  0  0
    3.0601    1.6900    0.6672 H   0  0  0  0  0  0  0  0  0  0  0  0
    3.8421   -0.5848    1.5423 H   0  0  0  0  0  0  0  0  0  0  0  0
    5.2116   -0.4922    0.4301 H   0  0  0  0  0  0  0  0  0  0  0  0
    5.4331    1.3577   -1.1272 H   0  0  0  0  0  0  0  0  0  0  0  0
    5.4651    2.8470   -0.1826 H   0  0  0  0  0  0  0  0  0  0  0  0
    3.4384    0.0859   -2.0581 H   0  0  0  0  0  0  0  0  0  0  0  0
    3.7565   -1.7380   -0.6926 H   0  0  0  0  0  0  0  0  0  0  0  0
  1 13  1  0
  1 14  1  0
  2 15  1  0
  2  8  1  0
  3 19  1  0
  3 18  1  0
  4  3  1  0
  4 20  1  0
  5 23  1  0
  5  3  1  0
  6  1  1  0
  6  4  1  0
  7  9  1  0
  7 10  1  0
  8  5  1  0
  9  8  1  0
 11 24  1  0
 11  9  1  0
 12  1  1  0
 16  2  1  0
 17  2  1  0
 21  4  1  0
 22  5  1  0
 25  6  1  0
M  RAD  2   7   2  10   2
M  END
>  <HBA>  (728) 
5

>  <HBD>  (728) 
1

>  <TPSA>  (728) 
75.58

>  <cid>  (728) 
4522

>  <dipole>  (728) 
6.0

>  <excitation_energy_1>  (728) 
3.115

>  <excitation_energy_2>  (728) 
4.332

>  <excitation_energy_3>  (728) 
5.091

>  <excitation_energy_4>  (728) 
5.343

>  <homo_energy>  (728) 
-5.807

>  <homo_lumo_gap>  (728) 
4.969

>  <logP>  (728) 
-1.102

>  <lumo_energy>  (728) 
-0.838

>  <melting_point>  (728) 
74.02

>  <molecular_refractivity>  (728) 
43.05

>  <oscillator_strength_1>  (728) 
0.0011

>  <oscillator_strength_2>  (728) 
0.0117

>  <oscillator_strength_3>  (728) 
0.0347

>  <oscillator_strength_4>  (728) 
0.0012

>  <open_babel_can_smiles>  (728) 
CNCCCN(N([N][O])O)C

>  <mulliken_charges>  (728) 
25
1   -0.31805
2   -0.301346
3   -0.277486
4   -0.137883
5   -0.123327
6   -0.592279
7   0.154934
8   -0.254036
9   0.071069
10   -0.338812
11   -0.531969
12   0.168853
13   0.187848
14   0.140827
15   0.155074
16   0.180862
17   0.153314
18   0.147031
19   0.178709
20   0.1326
21   0.144956
22   0.1331
23   0.151726
24   0.454605
25   0.31968

>  <lowdin_charges>  (728) 
25
1   -0.366892
2   -0.366723
3   -0.29124
4   -0.2039
5   -0.206463
6   -0.345538
7   0.057545
8   -0.108528
9   0.062595
10   -0.244207
11   -0.413516
12   0.163259
13   0.165169
14   0.13629
15   0.15782
16   0.169596
17   0.143992
18   0.155965
19   0.164179
20   0.132911
21   0.145089
22   0.130335
23   0.155434
24   0.342438
25   0.264388

$$$$
PCCDB-ID:  4524
     RDKit          3D

 34 33  0  0  0  0  0  0  0  0999 V2000
    4.5753   -2.4279   -3.9846 C   0  0  0  0  0  0  0  0  0  0  0  0
    4.4525    0.6356    1.2631 C   0  0  0  0  0  0  0  0  0  0  0  0
    7.5156    0.7762   -2.6920 C   0  0  0  0  0  0  0  0  0  0  0  0
    6.3943    1.6078   -2.0486 C   0  0  0  0  0  0  0  0  0  0  0  0
    7.2373    0.3202   -4.1401 C   0  0  0  0  0  0  0  0  0  0  0  0
    6.6620    1.9981   -0.5864 C   0  0  0  0  0  0  0  0  0  0  0  0
    6.5792   -1.0568   -4.2873 C   0  0  0  0  0  0  0  0  0  0  0  0
    6.8092    0.8385    0.4215 C   0  0  0  0  0  0  0  0  0  0  0  0
    5.2116   -1.1242   -3.7463 N   0  0  0  0  0  0  0  0  0  0  0  0
    5.2956   -2.3315    0.3355 N   0  0  0  0  0  2  0  0  0  0  0  0
    5.6418    0.0029    0.7066 N   0  0  0  0  0  0  0  0  0  0  0  0
    5.3991   -1.0316   -0.1679 N   0  0  0  0  0  0  0  0  0  0  0  0
    5.8342   -2.4940    1.4077 O   0  0  0  0  0  1  0  0  0  0  0  0
    4.3769   -0.8283   -1.1243 O   0  0  0  0  0  0  0  0  0  0  0  0
    3.5459   -2.4018   -3.6168 H   0  0  0  0  0  0  0  0  0  0  0  0
    5.1130   -3.1956   -3.4196 H   0  0  0  0  0  0  0  0  0  0  0  0
    4.5707   -2.7182   -5.0475 H   0  0  0  0  0  0  0  0  0  0  0  0
    4.7659    1.2821    2.0892 H   0  0  0  0  0  0  0  0  0  0  0  0
    3.7928   -0.1398    1.6624 H   0  0  0  0  0  0  0  0  0  0  0  0
    3.8872    1.2333    0.5348 H   0  0  0  0  0  0  0  0  0  0  0  0
    7.7243   -0.1131   -2.0834 H   0  0  0  0  0  0  0  0  0  0  0  0
    8.4374    1.3743   -2.6777 H   0  0  0  0  0  0  0  0  0  0  0  0
    5.4433    1.0721   -2.1038 H   0  0  0  0  0  0  0  0  0  0  0  0
    6.2638    2.5288   -2.6352 H   0  0  0  0  0  0  0  0  0  0  0  0
    8.1845    0.2682   -4.6920 H   0  0  0  0  0  0  0  0  0  0  0  0
    6.6316    1.0750   -4.6646 H   0  0  0  0  0  0  0  0  0  0  0  0
    5.8636    2.6702   -0.2443 H   0  0  0  0  0  0  0  0  0  0  0  0
    7.5914    2.5848   -0.5313 H   0  0  0  0  0  0  0  0  0  0  0  0
    7.1765   -1.8062   -3.7518 H   0  0  0  0  0  0  0  0  0  0  0  0
    6.5898   -1.3488   -5.3528 H   0  0  0  0  0  0  0  0  0  0  0  0
    7.1166    1.2643    1.3862 H   0  0  0  0  0  0  0  0  0  0  0  0
    7.6095    0.1582    0.1165 H   0  0  0  0  0  0  0  0  0  0  0  0
    4.8331   -0.9071   -2.0135 H   0  0  0  0  0  0  0  0  0  0  0  0
    4.6518   -0.4007   -4.1991 H   0  0  0  0  0  0  0  0  0  0  0  0
  1  9  1  0
  1 15  1  0
  1 16  1  0
  2 19  1  0
  2 18  1  0
  3 22  1  0
  3 21  1  0
  3  4  1  0
  4  6  1  0
  5  3  1  0
  6 28  1  0
  6 27  1  0
  6  8  1  0
  7  5  1  0
  7 29  1  0
  7  9  1  0
  8 11  1  0
  8 31  1  0
 10 13  1  0
 11  2  1  0
 12 10  1  0
 12 11  1  0
 14 12  1  0
 17  1  1  0
 20  2  1  0
 23  4  1  0
 24  4  1  0
 25  5  1  0
 26  5  1  0
 30  7  1  0
 32  8  1  0
 33 14  1  0
 34  9  1  0
M  RAD  2  10   2  13   2
M  END
>  <HBA>  (729) 
5

>  <HBD>  (729) 
1

>  <TPSA>  (729) 
75.58

>  <cid>  (729) 
4524

>  <dipole>  (729) 
5.31

>  <excitation_energy_1>  (729) 
2.965

>  <excitation_energy_2>  (729) 
3.683

>  <excitation_energy_3>  (729) 
4.804

>  <excitation_energy_4>  (729) 
5.46

>  <homo_energy>  (729) 
-5.782

>  <homo_lumo_gap>  (729) 
4.77

>  <logP>  (729) 
0.068

>  <lumo_energy>  (729) 
-1.012

>  <melting_point>  (729) 
72.03

>  <molecular_refractivity>  (729) 
57.47

>  <oscillator_strength_1>  (729) 
0.0017

>  <oscillator_strength_2>  (729) 
0.0067

>  <oscillator_strength_3>  (729) 
0.0388

>  <oscillator_strength_4>  (729) 
0.0044

>  <open_babel_can_smiles>  (729) 
CNCCCCCCN(N([N][O])O)C

>  <mulliken_charges>  (729) 
34
1   -0.309651
2   -0.293567
3   -0.257108
4   -0.268309
5   -0.27967
6   -0.267208
7   -0.118255
8   -0.129701
9   -0.594894
10   0.172218
11   -0.237493
12   0.026121
13   -0.308655
14   -0.553545
15   0.171331
16   0.176612
17   0.138782
18   0.152192
19   0.170599
20   0.152425
21   0.144369
22   0.131067
23   0.145095
24   0.124566
25   0.14224
26   0.130947
27   0.135065
28   0.128678
29   0.153897
30   0.123275
31   0.144418
32   0.159315
33   0.480915
34   0.313929

>  <lowdin_charges>  (729) 
34
1   -0.36295
2   -0.361317
3   -0.28092
4   -0.289732
5   -0.283109
6   -0.293097
7   -0.201594
8   -0.202582
9   -0.348074
10   0.05702
11   -0.107995
12   0.047898
13   -0.211647
14   -0.427673
15   0.161649
16   0.163218
17   0.133839
18   0.156441
19   0.165029
20   0.142679
21   0.145555
22   0.14195
23   0.148083
24   0.139032
25   0.152303
26   0.141298
27   0.14615
28   0.143092
29   0.149303
30   0.125524
31   0.148944
32   0.15587
33   0.343841
34   0.261971

$$$$
PCCDB-ID:  4528
     RDKit          3D

 36 38  0  0  1  0  0  0  0  0999 V2000
    0.8692   -0.1691    0.0098 C   0  0  0  0  0  0  0  0  0  0  0  0
    5.1910    2.9403    3.4282 C   0  0  0  0  0  0  0  0  0  0  0  0
    4.7155    1.6306    3.3257 C   0  0  0  0  0  0  0  0  0  0  0  0
    5.3931    3.6881    2.2686 C   0  0  0  0  0  0  0  0  0  0  0  0
    7.1396   -1.2090   -1.2602 C   0  0  0  0  0  0  0  0  0  0  0  0
    4.4465    1.0717    2.0768 C   0  0  0  0  0  0  0  0  0  0  0  0
    5.1193    3.1267    1.0194 C   0  0  0  0  0  0  0  0  0  0  0  0
    6.4530   -0.0368   -0.9624 C   0  0  0  0  0  0  0  0  0  0  0  0
    6.4533   -2.4168   -1.3629 C   0  0  0  0  0  0  0  0  0  0  0  0
    2.8176    1.0742   -0.7197 C   0  0  0  0  0  0  0  0  0  0  0  0
    2.8644   -1.3284   -0.6657 C   0  0  0  0  0  0  0  0  0  0  0  0
    4.6412    1.8150    0.9029 C   0  0  0  0  0  0  0  0  0  0  0  0
    5.0662   -0.0639   -0.7630 C   0  0  0  0  0  0  0  0  0  0  0  0
    4.3306    1.2412   -0.4775 C   0  0  1  0  0  0  0  0  0  0  0  0
    4.3660   -1.2739   -0.8529 C   0  0  0  0  0  0  0  0  0  0  0  0
    5.0669   -2.4623   -1.1682 C   0  0  0  0  0  0  0  0  0  0  0  0
    4.3742   -3.6687   -1.3547 N   0  0  0  0  0  0  0  0  0  0  0  0
    2.3207   -0.1231   -0.0543 N   0  0  0  0  0  0  0  0  0  0  0  0
    0.4961    0.7154    0.5364 H   0  0  0  0  0  0  0  0  0  0  0  0
    0.5526   -1.0569    0.5695 H   0  0  0  0  0  0  0  0  0  0  0  0
    0.3883   -0.2073   -0.9879 H   0  0  0  0  0  0  0  0  0  0  0  0
    5.4044    3.3714    4.4029 H   0  0  0  0  0  0  0  0  0  0  0  0
    4.5565    1.0389    4.2239 H   0  0  0  0  0  0  0  0  0  0  0  0
    5.7659    4.7074    2.3324 H   0  0  0  0  0  0  0  0  0  0  0  0
    8.2152   -1.1878   -1.4149 H   0  0  0  0  0  0  0  0  0  0  0  0
    4.0733    0.0560    2.0043 H   0  0  0  0  0  0  0  0  0  0  0  0
    5.2794    3.7182    0.1199 H   0  0  0  0  0  0  0  0  0  0  0  0
    6.9856    0.9071   -0.8813 H   0  0  0  0  0  0  0  0  0  0  0  0
    6.9883   -3.3341   -1.6004 H   0  0  0  0  0  0  0  0  0  0  0  0
    2.6222    1.0441   -1.8116 H   0  0  0  0  0  0  0  0  0  0  0  0
    2.2858    1.9434   -0.3187 H   0  0  0  0  0  0  0  0  0  0  0  0
    2.5915   -2.1717   -0.0118 H   0  0  0  0  0  0  0  0  0  0  0  0
    2.3848   -1.5404   -1.6471 H   0  0  0  0  0  0  0  0  0  0  0  0
    4.6847    1.9786   -1.2103 H   0  0  0  0  0  0  0  0  0  0  0  0
    4.9659   -4.4895   -1.3031 H   0  0  0  0  0  0  0  0  0  0  0  0
    3.5488   -3.7883   -0.7799 H   0  0  0  0  0  0  0  0  0  0  0  0
  1 19  1  0
  1 20  1  0
  2 22  1  0
  3  2  2  0
  3 23  1  0
  4 24  1  0
  4  2  1  0
  5  8  2  0
  6  3  1  0
  7  4  2  0
  8 28  1  0
  8 13  1  0
  9  5  1  0
  9 16  2  0
 10 14  1  0
 10 31  1  0
 10 18  1  0
 11 18  1  0
 11 32  1  0
 12  7  1  0
 12  6  2  0
 13 14  1  0
 14 34  1  6
 14 12  1  0
 15 13  2  0
 15 11  1  0
 16 15  1  0
 17 35  1  0
 17 16  1  0
 17 36  1  0
 18  1  1  0
 21  1  1  0
 25  5  1  0
 26  6  1  0
 27  7  1  0
 29  9  1  0
 30 10  1  0
 33 11  1  0
M  END
>  <HBA>  (730) 
2

>  <HBD>  (730) 
1

>  <TPSA>  (730) 
29.26

>  <cid>  (730) 
4528

>  <dipole>  (730) 
1.74

>  <excitation_energy_1>  (730) 
4.616

>  <excitation_energy_2>  (730) 
4.643

>  <excitation_energy_3>  (730) 
4.914

>  <excitation_energy_4>  (730) 
4.973

>  <homo_energy>  (730) 
-5.339

>  <homo_lumo_gap>  (730) 
5.418

>  <logP>  (730) 
3.365

>  <lumo_energy>  (730) 
0.079

>  <melting_point>  (730) 
116.43

>  <molecular_refractivity>  (730) 
79.58

>  <oscillator_strength_1>  (730) 
0.0211

>  <oscillator_strength_2>  (730) 
0.042

>  <oscillator_strength_3>  (730) 
0.0006

>  <oscillator_strength_4>  (730) 
0.0185

>  <open_babel_can_smiles>  (730) 
CN1C[C@@H](c2ccccc2)c2c(C1)c(N)ccc2

>  <mulliken_charges>  (730) 
36
1   -0.288778
2   -0.130822
3   -0.131946
4   -0.127739
5   -0.134101
6   -0.163576
7   -0.199547
8   -0.18865
9   -0.177642
10   -0.131764
11   -0.188954
12   0.184372
13   0.116873
14   -0.267736
15   0.06502
16   0.249408
17   -0.796142
18   -0.389887
19   0.155147
20   0.145746
21   0.119023
22   0.123503
23   0.123617
24   0.123723
25   0.123122
26   0.139774
27   0.118446
28   0.120009
29   0.111619
30   0.115809
31   0.144196
32   0.129991
33   0.133712
34   0.136525
35   0.318235
36   0.319412

>  <lowdin_charges>  (730) 
36
1   -0.355135
2   -0.162609
3   -0.158656
4   -0.157731
5   -0.145982
6   -0.155071
7   -0.175537
8   -0.187632
9   -0.204973
10   -0.19484
11   -0.198687
12   0.00014
13   -0.001168
14   -0.126222
15   -0.057948
16   0.052709
17   -0.493693
18   -0.177317
19   0.154108
20   0.149166
21   0.121395
22   0.154547
23   0.15509
24   0.153704
25   0.153802
26   0.163885
27   0.151401
28   0.155376
29   0.150573
30   0.117979
31   0.151436
32   0.139824
33   0.127639
34   0.154121
35   0.274239
36   0.272067

$$$$
PCCDB-ID:  4538
     RDKit          3D

 22 22  0  0  1  0  0  0  0  0999 V2000
   -0.8343    1.3459    0.0654 C   0  0  0  0  0  0  0  0  0  0  0  0
   -1.2862    0.0260    0.0291 C   0  0  0  0  0  0  0  0  0  0  0  0
    0.5291    1.6355    0.0274 C   0  0  0  0  0  0  0  0  0  0  0  0
    1.0024   -0.7381   -0.0905 C   0  0  0  0  0  0  0  0  0  0  0  0
   -0.4073   -3.2354    1.2182 C   0  0  0  0  0  0  0  0  0  0  0  0
   -0.3661   -1.0259   -0.0443 C   0  0  0  0  0  0  0  0  0  0  0  0
    1.4494    0.5845   -0.0553 C   0  0  0  0  0  0  0  0  0  0  0  0
   -0.8361   -2.4830   -0.0633 C   0  0  2  0  0  0  0  0  0  0  0  0
   -1.2595   -2.7704    2.3214 N   0  0  0  0  0  0  0  0  0  0  0  0
    2.8030    0.7913   -0.1046 O   0  0  0  0  0  0  0  0  0  0  0  0
   -2.2386   -2.6057   -0.2033 O   0  0  0  0  0  0  0  0  0  0  0  0
   -1.5506    2.1617    0.1198 H   0  0  0  0  0  0  0  0  0  0  0  0
   -2.3457   -0.2019    0.0303 H   0  0  0  0  0  0  0  0  0  0  0  0
    0.8776    2.6666    0.0539 H   0  0  0  0  0  0  0  0  0  0  0  0
    1.7435   -1.5301   -0.1647 H   0  0  0  0  0  0  0  0  0  0  0  0
    0.6719   -3.1147    1.3949 H   0  0  0  0  0  0  0  0  0  0  0  0
   -0.6090   -4.3019    1.0706 H   0  0  0  0  0  0  0  0  0  0  0  0
   -0.3790   -2.9834   -0.9270 H   0  0  0  0  0  0  0  0  0  0  0  0
   -0.9568   -1.8497    2.6351 H   0  0  0  0  0  0  0  0  0  0  0  0
   -1.1968   -3.3971    3.1194 H   0  0  0  0  0  0  0  0  0  0  0  0
    2.9737    1.7457   -0.0923 H   0  0  0  0  0  0  0  0  0  0  0  0
   -2.5631   -2.6170    0.7217 H   0  0  0  0  0  0  0  0  0  0  0  0
  1 12  1  0
  2 13  1  0
  2  1  2  0
  3 14  1  0
  3  1  1  0
  4  7  1  0
  4  6  2  0
  5 16  1  0
  5  9  1  0
  6  2  1  0
  7  3  2  0
  8 18  1  6
  8  6  1  0
  8  5  1  0
  9 19  1  0
  9 20  1  0
 10 21  1  0
 10  7  1  0
 11  8  1  0
 11 22  1  0
 15  4  1  0
 17  5  1  0
M  END
>  <HBA>  (731) 
3

>  <HBD>  (731) 
3

>  <TPSA>  (731) 
66.48

>  <cid>  (731) 
4538

>  <dipole>  (731) 
3.15

>  <excitation_energy_1>  (731) 
4.976

>  <excitation_energy_2>  (731) 
5.193

>  <excitation_energy_3>  (731) 
5.565

>  <excitation_energy_4>  (731) 
5.76

>  <homo_energy>  (731) 
-5.913

>  <homo_lumo_gap>  (731) 
5.891

>  <logP>  (731) 
1.085

>  <lumo_energy>  (731) 
-0.022

>  <melting_point>  (731) 
120.33

>  <molecular_refractivity>  (731) 
42.11

>  <oscillator_strength_1>  (731) 
0.0453

>  <oscillator_strength_2>  (731) 
0.0001

>  <oscillator_strength_3>  (731) 
0.0018

>  <oscillator_strength_4>  (731) 
0.0059

>  <open_babel_can_smiles>  (731) 
NC[C@H](c1cccc(c1)O)O

>  <mulliken_charges>  (731) 
22
1   -0.134536
2   -0.186806
3   -0.195619
4   -0.220133
5   -0.168631
6   0.118285
7   0.350229
8   0.08563
9   -0.75052
10   -0.645907
11   -0.644698
12   0.129499
13   0.138747
14   0.114778
15   0.129323
16   0.135113
17   0.153102
18   0.143995
19   0.316921
20   0.313262
21   0.406128
22   0.411833

>  <lowdin_charges>  (731) 
22
1   -0.14539
2   -0.18707
3   -0.218998
4   -0.205263
5   -0.21841
6   -0.014251
7   0.104199
8   -0.007868
9   -0.556371
10   -0.381891
11   -0.462799
12   0.158633
13   0.164645
14   0.1507
15   0.162403
16   0.131598
17   0.148706
18   0.150855
19   0.264822
20   0.265911
21   0.354506
22   0.341333

$$$$
PCCDB-ID:  4573
     RDKit          3D

 27 27  0  0  1  0  0  0  0  0999 V2000
   -2.6656    2.0529    3.1930 C   0  0  0  0  0  0  0  0  0  0  0  0
   -2.5035    0.6683    3.1370 C   0  0  0  0  0  0  0  0  0  0  0  0
   -2.0450    2.8606    2.2368 C   0  0  0  0  0  0  0  0  0  0  0  0
   -1.7262    0.0959    2.1282 C   0  0  0  0  0  0  0  0  0  0  0  0
   -1.2610    2.2879    1.2360 C   0  0  0  0  0  0  0  0  0  0  0  0
   -0.2080    0.2783    0.1189 C   0  0  0  0  0  0  0  0  0  0  0  0
    0.4419    0.4555   -2.1506 C   0  0  0  0  0  0  0  0  0  0  0  0
   -1.0934    0.8986    1.1737 C   0  0  0  0  0  0  0  0  0  0  0  0
    0.1295    1.2616   -3.4084 C   0  0  1  0  0  0  0  0  0  0  0  0
    1.0781    0.8839   -4.5630 C   0  0  0  0  0  0  0  0  0  0  0  0
   -1.2626    1.1771   -3.8790 N   0  0  0  0  0  0  0  0  0  0  0  0
    2.2265    0.5449   -4.3951 O   0  0  0  0  0  0  0  0  0  0  0  0
    0.5116    0.9976   -5.7734 O   0  0  0  0  0  0  0  0  0  0  0  0
   -0.4098    0.9349   -1.1255 O   0  0  0  0  0  0  0  0  0  0  0  0
   -3.2741    2.5005    3.9742 H   0  0  0  0  0  0  0  0  0  0  0  0
   -2.9886    0.0314    3.8719 H   0  0  0  0  0  0  0  0  0  0  0  0
   -2.1704    3.9397    2.2722 H   0  0  0  0  0  0  0  0  0  0  0  0
   -1.6109   -0.9850    2.0833 H   0  0  0  0  0  0  0  0  0  0  0  0
   -0.7816    2.9133    0.4892 H   0  0  0  0  0  0  0  0  0  0  0  0
   -0.4248   -0.7983    0.0233 H   0  0  0  0  0  0  0  0  0  0  0  0
    0.8538    0.3647    0.4090 H   0  0  0  0  0  0  0  0  0  0  0  0
    1.5019    0.5710   -1.8864 H   0  0  0  0  0  0  0  0  0  0  0  0
    0.2625   -0.6188   -2.3346 H   0  0  0  0  0  0  0  0  0  0  0  0
    0.3240    2.3188   -3.1841 H   0  0  0  0  0  0  0  0  0  0  0  0
   -1.5931    0.2138   -3.8084 H   0  0  0  0  0  0  0  0  0  0  0  0
   -1.8655    1.7253   -3.2697 H   0  0  0  0  0  0  0  0  0  0  0  0
   -0.4288    1.2505   -5.5940 H   0  0  0  0  0  0  0  0  0  0  0  0
  1 15  1  0
  2  1  2  0
  2 16  1  0
  3 17  1  0
  3  1  1  0
  4  2  1  0
  5  3  2  0
  6 21  1  0
  6  8  1  0
  7 22  1  0
  7 14  1  0
  8  5  1  0
  8  4  2  0
  9 24  1  1
  9  7  1  0
 10 12  2  0
 10  9  1  0
 11 25  1  0
 11  9  1  0
 11 26  1  0
 13 27  1  0
 13 10  1  0
 14  6  1  0
 18  4  1  0
 19  5  1  0
 20  6  1  0
 23  7  1  0
M  END
>  <HBA>  (732) 
4

>  <HBD>  (732) 
2

>  <TPSA>  (732) 
72.55

>  <cid>  (732) 
4573

>  <dipole>  (732) 
4.73

>  <excitation_energy_1>  (732) 
5.295

>  <excitation_energy_2>  (732) 
5.494

>  <excitation_energy_3>  (732) 
5.847

>  <excitation_energy_4>  (732) 
5.97

>  <homo_energy>  (732) 
-6.746

>  <homo_lumo_gap>  (732) 
6.512

>  <logP>  (732) 
1.315

>  <lumo_energy>  (732) 
-0.234

>  <melting_point>  (732) 
127.62

>  <molecular_refractivity>  (732) 
51.39

>  <oscillator_strength_1>  (732) 
0.0002

>  <oscillator_strength_2>  (732) 
0.0013

>  <oscillator_strength_3>  (732) 
0.0372

>  <oscillator_strength_4>  (732) 
0.0004

>  <open_babel_can_smiles>  (732) 
N[C@H](C(=O)O)COCc1ccccc1

>  <mulliken_charges>  (732) 
27
1   -0.127282
2   -0.128536
3   -0.132171
4   -0.182291
5   -0.161824
6   -0.081912
7   -0.00511
8   0.132407
9   -0.120653
10   0.614136
11   -0.759679
12   -0.465949
13   -0.58034
14   -0.493869
15   0.131256
16   0.131672
17   0.131596
18   0.125126
19   0.136119
20   0.130607
21   0.144228
22   0.161453
23   0.12333
24   0.188558
25   0.319476
26   0.336833
27   0.432821

>  <lowdin_charges>  (732) 
27
1   -0.157368
2   -0.155935
3   -0.151684
4   -0.163279
5   -0.157577
6   -0.119702
7   -0.137199
8   -0.014697
9   -0.113455
10   0.172656
11   -0.541705
12   -0.254491
13   -0.349279
14   -0.278275
15   0.159565
16   0.160035
17   0.1564
18   0.153254
19   0.163416
20   0.132865
21   0.139167
22   0.151402
23   0.127989
24   0.171913
25   0.265651
26   0.280417
27   0.359918

$$$$
PCCDB-ID:  4581
     RDKit          3D

 22 22  0  0  1  0  0  0  0  0999 V2000
   -0.9381    0.8339    0.2713 C   0  0  0  0  0  0  0  0  0  0  0  0
    1.0156   -0.4290   -0.3207 C   0  0  0  0  0  0  0  0  0  0  0  0
   -1.6845   -0.3448    0.3297 C   0  0  0  0  0  0  0  0  0  0  0  0
    0.2862   -1.6123   -0.2656 C   0  0  0  0  0  0  0  0  0  0  0  0
    1.7222    2.3910   -1.5782 C   0  0  0  0  0  0  0  0  0  0  0  0
    0.4182    0.8144   -0.0605 C   0  0  0  0  0  0  0  0  0  0  0  0
   -1.0749   -1.5719    0.0586 C   0  0  0  0  0  0  0  0  0  0  0  0
    1.2354    2.1054   -0.1388 C   0  0  2  0  0  0  0  0  0  0  0  0
    0.5639    2.8341   -2.3665 N   0  0  0  0  0  0  0  0  0  0  0  0
   -1.7497   -2.7631    0.0988 O   0  0  0  0  0  0  0  0  0  0  0  0
    0.5151    3.2360    0.3174 O   0  0  0  0  0  0  0  0  0  0  0  0
   -1.4041    1.7852    0.5049 H   0  0  0  0  0  0  0  0  0  0  0  0
    2.0758   -0.4791   -0.5627 H   0  0  0  0  0  0  0  0  0  0  0  0
   -2.7407   -0.3083    0.5935 H   0  0  0  0  0  0  0  0  0  0  0  0
    0.7518   -2.5731   -0.4624 H   0  0  0  0  0  0  0  0  0  0  0  0
    2.2442    1.5152   -1.9924 H   0  0  0  0  0  0  0  0  0  0  0  0
    2.4352    3.2219   -1.5410 H   0  0  0  0  0  0  0  0  0  0  0  0
    2.1168    2.0026    0.5083 H   0  0  0  0  0  0  0  0  0  0  0  0
   -0.0172    2.0359   -2.6168 H   0  0  0  0  0  0  0  0  0  0  0  0
    0.8591    3.2779   -3.2321 H   0  0  0  0  0  0  0  0  0  0  0  0
   -2.6696   -2.5919    0.3535 H   0  0  0  0  0  0  0  0  0  0  0  0
    0.0791    3.5737   -0.4932 H   0  0  0  0  0  0  0  0  0  0  0  0
  1  3  2  0
  1 12  1  0
  2  4  1  0
  2  6  2  0
  3 14  1  0
  4  7  2  0
  5 17  1  0
  5  8  1  0
  6  1  1  0
  7 10  1  0
  7  3  1  0
  8  6  1  0
  8 11  1  0
  8 18  1  1
  9  5  1  0
 10 21  1  0
 13  2  1  0
 15  4  1  0
 16  5  1  0
 19  9  1  0
 20  9  1  0
 22 11  1  0
M  END
>  <HBA>  (733) 
3

>  <HBD>  (733) 
3

>  <TPSA>  (733) 
66.48

>  <cid>  (733) 
4581

>  <dipole>  (733) 
2.55

>  <excitation_energy_1>  (733) 
4.951

>  <excitation_energy_2>  (733) 
5.122

>  <excitation_energy_3>  (733) 
5.382

>  <excitation_energy_4>  (733) 
5.603

>  <homo_energy>  (733) 
-5.799

>  <homo_lumo_gap>  (733) 
5.823

>  <logP>  (733) 
1.085

>  <lumo_energy>  (733) 
0.024

>  <melting_point>  (733) 
120.33

>  <molecular_refractivity>  (733) 
42.11

>  <oscillator_strength_1>  (733) 
0.0317

>  <oscillator_strength_2>  (733) 
0.0008

>  <oscillator_strength_3>  (733) 
0.0234

>  <oscillator_strength_4>  (733) 
0.0645

>  <open_babel_can_smiles>  (733) 
NC[C@H](c1ccc(cc1)O)O

>  <mulliken_charges>  (733) 
22
1   -0.188902
2   -0.190699
3   -0.196016
4   -0.161623
5   -0.16767
6   0.120431
7   0.349905
8   0.086704
9   -0.75027
10   -0.645301
11   -0.645488
12   0.143363
13   0.122162
14   0.116522
15   0.137051
16   0.13093
17   0.152011
18   0.140705
19   0.316159
20   0.312917
21   0.406256
22   0.410852

>  <lowdin_charges>  (733) 
22
1   -0.154085
2   -0.157369
3   -0.212433
4   -0.186108
5   -0.225277
6   -0.048847
7   0.097782
8   -0.006283
9   -0.556591
10   -0.380271
11   -0.464955
12   0.167509
13   0.151684
14   0.150258
15   0.165767
16   0.132315
17   0.150607
18   0.14768
19   0.26524
20   0.265066
21   0.355795
22   0.342517

$$$$
PCCDB-ID:  4610
     RDKit          3D

 22 22  0  0  1  0  0  0  0  0999 V2000
    0.7379    1.2889   -0.2661 C   0  0  0  0  0  0  0  0  0  0  0  0
    1.5052    0.0405    0.1961 C   0  0  0  0  0  0  0  0  0  0  0  0
   -0.7214    1.2739    0.2176 C   0  0  0  0  0  0  0  0  0  0  0  0
    0.7725   -1.2459   -0.2166 C   0  0  0  0  0  0  0  0  0  0  0  0
   -1.4569   -0.0118   -0.1990 C   0  0  1  0  0  0  0  0  0  0  0  0
   -0.6886   -1.2728    0.2866 C   0  0  2  0  0  0  0  0  0  0  0  0
   -2.8520    0.0470    0.2487 N   0  0  0  0  0  0  0  0  0  0  0  0
   -0.8397   -1.4028    1.7486 N   0  0  0  0  0  0  0  0  0  0  0  0
    0.7509    1.3291   -1.3655 H   0  0  0  0  0  0  0  0  0  0  0  0
    1.2447    2.1976    0.0830 H   0  0  0  0  0  0  0  0  0  0  0  0
    1.6228    0.0687    1.2901 H   0  0  0  0  0  0  0  0  0  0  0  0
    2.5224    0.0409   -0.2151 H   0  0  0  0  0  0  0  0  0  0  0  0
   -1.2742    2.1335   -0.1766 H   0  0  0  0  0  0  0  0  0  0  0  0
   -0.7521    1.3708    1.3137 H   0  0  0  0  0  0  0  0  0  0  0  0
    1.3092   -2.1318    0.1509 H   0  0  0  0  0  0  0  0  0  0  0  0
    0.7694   -1.3169   -1.3145 H   0  0  0  0  0  0  0  0  0  0  0  0
   -1.4679   -0.0428   -1.2985 H   0  0  0  0  0  0  0  0  0  0  0  0
   -1.1912   -2.1504   -0.1434 H   0  0  0  0  0  0  0  0  0  0  0  0
   -2.8528   -0.1997    1.2405 H   0  0  0  0  0  0  0  0  0  0  0  0
   -3.3769   -0.7009   -0.2064 H   0  0  0  0  0  0  0  0  0  0  0  0
   -0.2360   -0.7370    2.2283 H   0  0  0  0  0  0  0  0  0  0  0  0
   -0.5291   -2.3263    2.0459 H   0  0  0  0  0  0  0  0  0  0  0  0
  1 10  1  0
  1  2  1  0
  1  3  1  0
  2 11  1  0
  3 14  1  0
  4 15  1  0
  4  2  1  0
  4  6  1  0
  5 17  1  6
  5  3  1  0
  5  7  1  0
  5  6  1  0
  6 18  1  6
  6  8  1  0
  7 19  1  0
  8 22  1  0
  8 21  1  0
  9  1  1  0
 12  2  1  0
 13  3  1  0
 16  4  1  0
 20  7  1  0
M  END
>  <HBA>  (734) 
2

>  <HBD>  (734) 
2

>  <TPSA>  (734) 
52.04

>  <cid>  (734) 
4610

>  <dipole>  (734) 
2.46

>  <excitation_energy_1>  (734) 
5.424

>  <excitation_energy_2>  (734) 
5.711

>  <excitation_energy_3>  (734) 
5.804

>  <excitation_energy_4>  (734) 
6.098

>  <homo_energy>  (734) 
-5.962

>  <homo_lumo_gap>  (734) 
7.747

>  <logP>  (734) 
1.616

>  <lumo_energy>  (734) 
1.785

>  <melting_point>  (734) 
104.51

>  <molecular_refractivity>  (734) 
34.26

>  <oscillator_strength_1>  (734) 
0.0063

>  <oscillator_strength_2>  (734) 
0.0309

>  <oscillator_strength_3>  (734) 
0.0038

>  <oscillator_strength_4>  (734) 
0.0125

>  <open_babel_can_smiles>  (734) 
N[C@@H]1CCCC[C@@H]1N

>  <mulliken_charges>  (734) 
22
1   -0.261578
2   -0.264595
3   -0.256256
4   -0.264127
5   0.023543
6   0.012024
7   -0.715188
8   -0.731615
9   0.128979
10   0.131415
11   0.118043
12   0.134535
13   0.148163
14   0.121974
15   0.12085
16   0.127779
17   0.118058
18   0.114964
19   0.309452
20   0.283981
21   0.300431
22   0.299167

>  <lowdin_charges>  (734) 
22
1   -0.277372
2   -0.278343
3   -0.282465
4   -0.294033
5   -0.076372
6   -0.088293
7   -0.549412
8   -0.558317
9   0.136002
10   0.144631
11   0.129028
12   0.145277
13   0.155172
14   0.133564
15   0.13889
16   0.139073
17   0.132329
18   0.135646
19   0.255811
20   0.249604
21   0.25259
22   0.25699

$$$$
PCCDB-ID:  4624
     RDKit          3D

 23 23  0  0  0  0  0  0  0  0999 V2000
    0.9843    0.0839   -0.0562 C   0  0  0  0  0  0  0  0  0  0  0  0
    0.2850   -0.0886   -1.4151 C   0  0  0  0  0  0  0  0  0  0  0  0
    3.2271    1.2715   -0.1798 C   0  0  0  0  0  0  0  0  0  0  0  0
    4.6063   -1.1124   -0.3500 C   0  0  0  0  0  0  0  0  0  0  0  0
    2.4923    0.0783   -0.1549 C   0  0  0  0  0  0  0  0  0  0  0  0
    3.2112   -1.1198   -0.2448 C   0  0  0  0  0  0  0  0  0  0  0  0
    4.6155    1.3028   -0.2864 C   0  0  0  0  0  0  0  0  0  0  0  0
    5.3164    0.0883   -0.3729 C   0  0  0  0  0  0  0  0  0  0  0  0
   -1.1721   -0.0238   -1.2417 N   0  0  0  0  0  0  0  0  0  0  0  0
    2.4948   -2.2960   -0.2230 O   0  0  0  0  0  0  0  0  0  0  0  0
    5.3514    2.4603   -0.3080 O   0  0  0  0  0  0  0  0  0  0  0  0
    6.6785    0.1506   -0.4742 O   0  0  0  0  0  0  0  0  0  0  0  0
    0.6573   -0.7254    0.6096 H   0  0  0  0  0  0  0  0  0  0  0  0
    0.6388    1.0235    0.3895 H   0  0  0  0  0  0  0  0  0  0  0  0
    0.6439   -1.0206   -1.8832 H   0  0  0  0  0  0  0  0  0  0  0  0
    0.5813    0.7349   -2.0767 H   0  0  0  0  0  0  0  0  0  0  0  0
    2.6880    2.2155   -0.1061 H   0  0  0  0  0  0  0  0  0  0  0  0
    5.1514   -2.0543   -0.4168 H   0  0  0  0  0  0  0  0  0  0  0  0
   -1.4848   -0.8449   -0.7235 H   0  0  0  0  0  0  0  0  0  0  0  0
   -1.6278   -0.0809   -2.1515 H   0  0  0  0  0  0  0  0  0  0  0  0
    3.1139   -3.0405   -0.2596 H   0  0  0  0  0  0  0  0  0  0  0  0
    4.7389    3.2088   -0.2419 H   0  0  0  0  0  0  0  0  0  0  0  0
    7.0269   -0.7529   -0.5186 H   0  0  0  0  0  0  0  0  0  0  0  0
  1 14  1  0
  1 13  1  0
  2  9  1  0
  2  1  1  0
  3  5  2  0
  3 17  1  0
  4  6  2  0
  5  1  1  0
  6 10  1  0
  6  5  1  0
  7  3  1  0
  8  4  1  0
  8  7  2  0
  9 19  1  0
 11  7  1  0
 11 22  1  0
 12  8  1  0
 15  2  1  0
 16  2  1  0
 18  4  1  0
 20  9  1  0
 21 10  1  0
 23 12  1  0
M  END
>  <HBA>  (735) 
4

>  <HBD>  (735) 
4

>  <TPSA>  (735) 
86.71

>  <cid>  (735) 
4624

>  <dipole>  (735) 
2.71

>  <excitation_energy_1>  (735) 
4.359

>  <excitation_energy_2>  (735) 
4.527

>  <excitation_energy_3>  (735) 
4.571

>  <excitation_energy_4>  (735) 
4.756

>  <homo_energy>  (735) 
-5.108

>  <homo_lumo_gap>  (735) 
5.342

>  <logP>  (735) 
1.005

>  <lumo_energy>  (735) 
0.234

>  <melting_point>  (735) 
183.66

>  <molecular_refractivity>  (735) 
44.99

>  <oscillator_strength_1>  (735) 
0.0009

>  <oscillator_strength_2>  (735) 
0.0939

>  <oscillator_strength_3>  (735) 
0.0066

>  <oscillator_strength_4>  (735) 
0.0006

>  <open_babel_can_smiles>  (735) 
NCCc1cc(O)c(cc1O)O

>  <mulliken_charges>  (735) 
23
1   -0.331539
2   -0.132962
3   -0.277984
4   -0.272094
5   0.134478
6   0.295642
7   0.328114
8   0.323727
9   -0.71793
10   -0.658761
11   -0.643255
12   -0.634987
13   0.148433
14   0.148267
15   0.13079
16   0.136258
17   0.116959
18   0.104128
19   0.292134
20   0.293612
21   0.40554
22   0.405638
23   0.405793

>  <lowdin_charges>  (735) 
23
1   -0.273622
2   -0.204594
3   -0.202821
4   -0.260862
5   -0.040781
6   0.086541
7   0.060572
8   0.086075
9   -0.561648
10   -0.39175
11   -0.379592
12   -0.368851
13   0.153666
14   0.153447
15   0.126202
16   0.140929
17   0.154225
18   0.148089
19   0.25127
20   0.253129
21   0.356721
22   0.357885
23   0.35577

$$$$
PCCDB-ID:  4626
     RDKit          3D

 21 21  0  0  1  0  0  0  0  0999 V2000
   -0.8451   -1.4377   -0.0382 C   0  0  0  0  0  0  0  0  0  0  0  0
    1.1256   -0.0766    0.3028 C   0  0  0  0  0  0  0  0  0  0  0  0
   -0.0190    2.2066   -0.0967 C   0  0  0  0  0  0  0  0  0  0  0  0
    0.6931   -1.5048   -0.1131 C   0  0  2  0  0  0  0  0  0  0  0  0
   -0.0229    2.8034   -1.5078 C   0  0  0  0  0  0  0  0  0  0  0  0
   -1.1603    0.0274   -0.3031 C   0  0  0  0  0  0  0  0  0  0  0  0
    0.8661    3.5630   -2.0084 N   0  0  0  0  0  0  0  0  0  0  0  0
   -0.0193    0.7437   -0.0944 N   0  0  0  0  0  0  0  0  0  0  0  0
    1.1625   -1.8494   -1.4057 O   0  0  0  0  0  0  0  0  0  0  0  0
   -1.0984    2.4726   -2.2494 O   0  0  0  0  0  0  0  0  0  0  0  0
   -2.2368    0.5191   -0.6464 O   0  0  0  0  0  0  0  0  0  0  0  0
   -1.2163   -1.6970    0.9618 H   0  0  0  0  0  0  0  0  0  0  0  0
   -1.3325   -2.0987   -0.7586 H   0  0  0  0  0  0  0  0  0  0  0  0
    2.0363    0.2202   -0.2268 H   0  0  0  0  0  0  0  0  0  0  0  0
    1.3069    0.0029    1.3847 H   0  0  0  0  0  0  0  0  0  0  0  0
   -0.9166    2.5478    0.4358 H   0  0  0  0  0  0  0  0  0  0  0  0
    0.8580    2.5510    0.4556 H   0  0  0  0  0  0  0  0  0  0  0  0
    1.1168   -2.2580    0.5537 H   0  0  0  0  0  0  0  0  0  0  0  0
    1.6164    3.7193   -1.3343 H   0  0  0  0  0  0  0  0  0  0  0  0
    0.8064   -1.2086   -2.0440 H   0  0  0  0  0  0  0  0  0  0  0  0
   -1.7046    1.8954   -1.7302 H   0  0  0  0  0  0  0  0  0  0  0  0
  1 12  1  0
  2 15  1  0
  3  8  1  0
  3 16  1  0
  3 17  1  0
  4  1  1  0
  4  2  1  0
  4 18  1  1
  5  3  1  0
  6  8  1  0
  6  1  1  0
  7  5  2  0
  7 19  1  0
  8  2  1  0
  9  4  1  0
 10 21  1  0
 10  5  1  0
 11  6  2  0
 13  1  1  0
 14  2  1  0
 20  9  1  0
M  END
>  <HBA>  (736) 
5

>  <HBD>  (736) 
2

>  <TPSA>  (736) 
83.63

>  <cid>  (736) 
4626

>  <dipole>  (736) 
5.98

>  <excitation_energy_1>  (736) 
5.672

>  <excitation_energy_2>  (736) 
5.742

>  <excitation_energy_3>  (736) 
6.039

>  <excitation_energy_4>  (736) 
6.081

>  <homo_energy>  (736) 
-6.879

>  <homo_lumo_gap>  (736) 
6.626

>  <logP>  (736) 
-1.297

>  <lumo_energy>  (736) 
-0.253

>  <melting_point>  (736) 
114.3

>  <molecular_refractivity>  (736) 
39.92

>  <oscillator_strength_1>  (736) 
0.0024

>  <oscillator_strength_2>  (736) 
0.0225

>  <oscillator_strength_3>  (736) 
0.0274

>  <oscillator_strength_4>  (736) 
0.0236

>  <open_babel_can_smiles>  (736) 
O[C@@H]1CC(=O)N(C1)CC(=N)O

>  <mulliken_charges>  (736) 
21
1   -0.38461
2   -0.145506
3   -0.261777
4   0.104593
5   0.493826
6   0.58646
7   -0.580726
8   -0.408445
9   -0.609758
10   -0.597585
11   -0.547154
12   0.183653
13   0.195427
14   0.180046
15   0.157885
16   0.194812
17   0.163377
18   0.159402
19   0.275837
20   0.399157
21   0.441086

>  <lowdin_charges>  (736) 
21
1   -0.319964
2   -0.211856
3   -0.230501
4   -0.000962
5   0.115529
6   0.15116
7   -0.400314
8   -0.100329
9   -0.449396
10   -0.371644
11   -0.319605
12   0.178987
13   0.183077
14   0.164538
15   0.147627
16   0.175389
17   0.165469
18   0.158938
19   0.252548
20   0.349798
21   0.361512

$$$$
PCCDB-ID:  4649
     RDKit          3D

 18 18  0  0  0  0  0  0  0  0999 V2000
   -1.4750   -0.1533   -0.4334 C   0  0  0  0  0  0  0  0  0  0  0  0
   -0.9009    1.1052   -0.4375 C   0  0  0  0  0  0  0  0  0  0  0  0
    0.6371   -1.0823    0.2910 C   0  0  0  0  0  0  0  0  0  0  0  0
   -0.7071   -1.2761   -0.0659 C   0  0  0  0  0  0  0  0  0  0  0  0
    0.4406    1.3270   -0.0824 C   0  0  0  0  0  0  0  0  0  0  0  0
    1.1925    0.1943    0.2827 C   0  0  0  0  0  0  0  0  0  0  0  0
    0.9294    2.7428   -0.1277 C   0  0  0  0  0  0  0  0  0  0  0  0
   -1.2786   -2.5371   -0.0055 N   0  0  0  0  0  0  0  0  0  0  0  0
    2.5137    0.3754    0.6294 O   0  0  0  0  0  0  0  0  0  0  0  0
    0.2161    3.6569   -0.4846 O   0  0  0  0  0  0  0  0  0  0  0  0
    2.2042    2.9917    0.2483 O   0  0  0  0  0  0  0  0  0  0  0  0
   -2.5180   -0.2820   -0.7101 H   0  0  0  0  0  0  0  0  0  0  0  0
   -1.4811    1.9766   -0.7220 H   0  0  0  0  0  0  0  0  0  0  0  0
    1.2493   -1.9352    0.5808 H   0  0  0  0  0  0  0  0  0  0  0  0
   -2.1250   -2.6670   -0.5437 H   0  0  0  0  0  0  0  0  0  0  0  0
   -0.6489   -3.3257   -0.0705 H   0  0  0  0  0  0  0  0  0  0  0  0
    2.9061   -0.4641    0.9140 H   0  0  0  0  0  0  0  0  0  0  0  0
    2.6507    2.1630    0.5058 H   0  0  0  0  0  0  0  0  0  0  0  0
  1  4  2  0
  2  1  1  0
  2  5  2  0
  3 14  1  0
  4  8  1  0
  4  3  1  0
  5  6  1  0
  6  3  2  0
  6  9  1  0
  7  5  1  0
  7 11  1  0
  9 17  1  0
 10  7  2  0
 11 18  1  0
 12  1  1  0
 13  2  1  0
 15  8  1  0
 16  8  1  0
M  END
>  <HBA>  (737) 
4

>  <HBD>  (737) 
3

>  <TPSA>  (737) 
83.55

>  <cid>  (737) 
4649

>  <dipole>  (737) 
8.3

>  <excitation_energy_1>  (737) 
4.653

>  <excitation_energy_2>  (737) 
4.851

>  <excitation_energy_3>  (737) 
4.854

>  <excitation_energy_4>  (737) 
4.964

>  <homo_energy>  (737) 
-5.976

>  <homo_lumo_gap>  (737) 
5.225

>  <logP>  (737) 
1.254

>  <lumo_energy>  (737) 
-0.751

>  <melting_point>  (737) 
185.78

>  <molecular_refractivity>  (737) 
39.83

>  <oscillator_strength_1>  (737) 
0.1044

>  <oscillator_strength_2>  (737) 
0.0002

>  <oscillator_strength_3>  (737) 
0.0058

>  <oscillator_strength_4>  (737) 
0.2318

>  <open_babel_can_smiles>  (737) 
Nc1ccc(c(c1)O)C(=O)O

>  <mulliken_charges>  (737) 
18
1   -0.174593
2   -0.184311
3   -0.244084
4   0.336377
5   0.010996
6   0.309995
7   0.56806
8   -0.793704
9   -0.687616
10   -0.472223
11   -0.605571
12   0.127264
13   0.174592
14   0.112254
15   0.332681
16   0.327811
17   0.424738
18   0.437334

>  <lowdin_charges>  (737) 
18
1   -0.212928
2   -0.105245
3   -0.258617
4   0.08622
5   -0.116996
6   0.120616
7   0.198443
8   -0.472814
9   -0.386926
10   -0.269886
11   -0.36947
12   0.15763
13   0.185353
14   0.152782
15   0.284007
16   0.2816
17   0.368345
18   0.357884

$$$$
PCCDB-ID:  4650
     RDKit          3D

 12 12  0  0  0  0  0  0  0  0999 V2000
    0.8918    1.1302    0.0187 C   0  0  0  0  0  0  0  0  0  0  0  0
   -0.4307    1.3643    0.0068 C   0  0  0  0  0  0  0  0  0  0  0  0
    0.4497   -1.3696    0.0195 C   0  0  0  0  0  0  0  0  0  0  0  0
   -0.8728   -1.1355    0.0077 C   0  0  0  0  0  0  0  0  0  0  0  0
    1.4325   -0.2544    0.0262 C   0  0  0  0  0  0  0  0  0  0  0  0
   -1.4136    0.2491    0.0008 C   0  0  0  0  0  0  0  0  0  0  0  0
    2.6387   -0.4677    0.0368 O   0  0  0  0  0  0  0  0  0  0  0  0
   -2.6197    0.4624   -0.0098 O   0  0  0  0  0  0  0  0  0  0  0  0
    1.6301    1.9272    0.0236 H   0  0  0  0  0  0  0  0  0  0  0  0
   -0.8506    2.3663    0.0014 H   0  0  0  0  0  0  0  0  0  0  0  0
    0.8696   -2.3716    0.0250 H   0  0  0  0  0  0  0  0  0  0  0  0
   -1.6111   -1.9326    0.0029 H   0  0  0  0  0  0  0  0  0  0  0  0
  1  9  1  0
  1  5  1  0
  2  1  2  0
  3 11  1  0
  3  5  1  0
  4  3  2  0
  5  7  2  0
  6  2  1  0
  6  4  1  0
  8  6  2  0
 10  2  1  0
 12  4  1  0
M  END
>  <HBA>  (738) 
2

>  <HBD>  (738) 
0

>  <TPSA>  (738) 
34.14

>  <cid>  (738) 
4650

>  <dipole>  (738) 
0.0

>  <excitation_energy_1>  (738) 
2.511

>  <excitation_energy_2>  (738) 
2.705

>  <excitation_energy_3>  (738) 
3.801

>  <excitation_energy_4>  (738) 
4.899

>  <homo_energy>  (738) 
-7.363

>  <homo_lumo_gap>  (738) 
3.826

>  <logP>  (738) 
0.251

>  <lumo_energy>  (738) 
-3.538

>  <melting_point>  (738) 
58.38

>  <molecular_refractivity>  (738) 
28.29

>  <oscillator_strength_1>  (738) 
0.0

>  <oscillator_strength_2>  (738) 
0.0

>  <oscillator_strength_3>  (738) 
0.0

>  <oscillator_strength_4>  (738) 
0.332

>  <open_babel_can_smiles>  (738) 
O=C1C=CC(=O)C=C1

>  <mulliken_charges>  (738) 
12
1   -0.160833
2   -0.161335
3   -0.161223
4   -0.161018
5   0.434192
6   0.434276
7   -0.454687
8   -0.454691
9   0.171315
10   0.17134
11   0.171343
12   0.171321

>  <lowdin_charges>  (738) 
12
1   -0.151241
2   -0.149563
3   -0.14956
4   -0.151251
5   0.144175
6   0.144178
7   -0.206677
8   -0.206678
9   0.182344
10   0.180963
11   0.180964
12   0.182346

$$$$
PCCDB-ID:  4655
     RDKit          3D

 27 27  0  0  1  0  0  0  0  0999 V2000
    0.6856    0.0572   -0.3028 C   0  0  0  0  0  0  0  0  0  0  0  0
    2.6373    2.2307   -1.2217 C   0  0  0  0  0  0  0  0  0  0  0  0
    1.3680   -3.0052    1.4279 C   0  0  0  0  0  0  0  0  0  0  0  0
    2.5540   -1.5058    2.8736 C   0  0  0  0  0  0  0  0  0  0  0  0
    0.8373   -3.6648    2.5380 C   0  0  0  0  0  0  0  0  0  0  0  0
    2.0344   -2.1497    3.9918 C   0  0  0  0  0  0  0  0  0  0  0  0
    2.8012   -1.1933    0.3659 C   0  0  0  0  0  0  0  0  0  0  0  0
    2.1642    0.1858    0.0757 C   0  0  1  0  0  0  0  0  0  0  0  0
    2.2318   -1.9135    1.5689 C   0  0  0  0  0  0  0  0  0  0  0  0
    1.1696   -3.2371    3.8257 C   0  0  0  0  0  0  0  0  0  0  0  0
    2.9216    0.8138   -1.0148 N   0  0  0  0  0  0  0  0  0  0  0  0
    0.6881   -3.8403    4.9568 O   0  0  0  0  0  0  0  0  0  0  0  0
    0.1293   -0.4578    0.4864 H   0  0  0  0  0  0  0  0  0  0  0  0
    0.5850   -0.5108   -1.2352 H   0  0  0  0  0  0  0  0  0  0  0  0
    0.2198    1.0369   -0.4509 H   0  0  0  0  0  0  0  0  0  0  0  0
    3.3577    2.6388   -1.9383 H   0  0  0  0  0  0  0  0  0  0  0  0
    2.6843    2.8414   -0.2995 H   0  0  0  0  0  0  0  0  0  0  0  0
    1.6398    2.3605   -1.6539 H   0  0  0  0  0  0  0  0  0  0  0  0
    1.1029   -3.3520    0.4319 H   0  0  0  0  0  0  0  0  0  0  0  0
    3.2310   -0.6664    3.0181 H   0  0  0  0  0  0  0  0  0  0  0  0
    0.1689   -4.5134    2.4004 H   0  0  0  0  0  0  0  0  0  0  0  0
    2.2907   -1.8309    4.9974 H   0  0  0  0  0  0  0  0  0  0  0  0
    3.8811   -1.0437    0.5162 H   0  0  0  0  0  0  0  0  0  0  0  0
    2.6970   -1.8136   -0.5326 H   0  0  0  0  0  0  0  0  0  0  0  0
    2.2263    0.7896    1.0044 H   0  0  0  0  0  0  0  0  0  0  0  0
    3.9147    0.7130   -0.8113 H   0  0  0  0  0  0  0  0  0  0  0  0
    0.1065   -4.5718    4.6978 H   0  0  0  0  0  0  0  0  0  0  0  0
  1  8  1  0
  1 13  1  0
  2 11  1  0
  2 17  1  0
  3  9  2  0
  3  5  1  0
  4 20  1  0
  4  6  2  0
  5 10  2  0
  6 22  1  0
  7 23  1  0
  7  9  1  0
  8  7  1  0
  8 25  1  1
  9  4  1  0
 10  6  1  0
 10 12  1  0
 11 26  1  0
 11  8  1  0
 14  1  1  0
 15  1  1  0
 16  2  1  0
 18  2  1  0
 19  3  1  0
 21  5  1  0
 24  7  1  0
 27 12  1  0
M  END
>  <HBA>  (739) 
2

>  <HBD>  (739) 
2

>  <TPSA>  (739) 
32.26

>  <cid>  (739) 
4655

>  <dipole>  (739) 
0.5

>  <excitation_energy_1>  (739) 
4.929

>  <excitation_energy_2>  (739) 
5.097

>  <excitation_energy_3>  (739) 
5.158

>  <excitation_energy_4>  (739) 
5.294

>  <homo_energy>  (739) 
-5.81

>  <homo_lumo_gap>  (739) 
5.807

>  <logP>  (739) 
1.933

>  <lumo_energy>  (739) 
-0.003

>  <melting_point>  (739) 
73.31

>  <molecular_refractivity>  (739) 
50.65

>  <oscillator_strength_1>  (739) 
0.0295

>  <oscillator_strength_2>  (739) 
0.0002

>  <oscillator_strength_3>  (739) 
0.0061

>  <oscillator_strength_4>  (739) 
0.0016

>  <open_babel_can_smiles>  (739) 
CN[C@H](Cc1ccc(cc1)O)C

>  <mulliken_charges>  (739) 
27
1   -0.448111
2   -0.304475
3   -0.192635
4   -0.186562
5   -0.193367
6   -0.157467
7   -0.367407
8   0.068045
9   0.173886
10   0.347633
11   -0.546165
12   -0.644101
13   0.153094
14   0.147095
15   0.142594
16   0.145835
17   0.118301
18   0.155623
19   0.127971
20   0.123918
21   0.116891
22   0.138271
23   0.131817
24   0.150472
25   0.102645
26   0.289893
27   0.406303

>  <lowdin_charges>  (739) 
27
1   -0.453919
2   -0.362419
3   -0.155786
4   -0.153694
5   -0.214035
6   -0.184804
7   -0.274505
8   -0.057347
9   -0.022685
10   0.098728
11   -0.363175
12   -0.380976
13   0.158543
14   0.151256
15   0.14939
16   0.15159
17   0.120368
18   0.148127
19   0.15653
20   0.15539
21   0.152574
22   0.16597
23   0.142545
24   0.153738
25   0.113243
26   0.24746
27   0.357894

$$$$
PCCDB-ID:  4657
     RDKit          3D

 24 24  0  0  0  0  0  0  0  0999 V2000
    1.0571    0.0412   -0.1155 C   0  0  0  0  0  0  0  0  0  0  0  0
    3.1820    3.6309    0.6026 C   0  0  0  0  0  0  0  0  0  0  0  0
    5.1155    2.3086    1.1026 C   0  0  0  0  0  0  0  0  0  0  0  0
    2.4369    2.4739    0.3542 C   0  0  0  0  0  0  0  0  0  0  0  0
    4.3942    1.1464    0.8609 C   0  0  0  0  0  0  0  0  0  0  0  0
    5.3358    4.8367    1.2015 C   0  0  0  0  0  0  0  0  0  0  0  0
    6.0645    5.3122   -0.0665 C   0  0  0  0  0  0  0  0  0  0  0  0
    4.5266    3.5780    0.9782 C   0  0  0  0  0  0  0  0  0  0  0  0
    3.0460    1.2215    0.4821 C   0  0  0  0  0  0  0  0  0  0  0  0
    6.8832    6.4937    0.2272 N   0  0  0  0  0  0  0  0  0  0  0  0
    2.4209    0.0238    0.2691 O   0  0  0  0  0  0  0  0  0  0  0  0
    0.7657   -1.0039   -0.2368 H   0  0  0  0  0  0  0  0  0  0  0  0
    0.9106    0.5703   -1.0669 H   0  0  0  0  0  0  0  0  0  0  0  0
    0.4249    0.5059    0.6534 H   0  0  0  0  0  0  0  0  0  0  0  0
    2.6930    4.5982    0.5042 H   0  0  0  0  0  0  0  0  0  0  0  0
    6.1591    2.2317    1.4005 H   0  0  0  0  0  0  0  0  0  0  0  0
    1.3944    2.5625    0.0698 H   0  0  0  0  0  0  0  0  0  0  0  0
    4.8509    0.1667    0.9629 H   0  0  0  0  0  0  0  0  0  0  0  0
    4.6778    5.6433    1.5547 H   0  0  0  0  0  0  0  0  0  0  0  0
    6.0872    4.6810    1.9845 H   0  0  0  0  0  0  0  0  0  0  0  0
    5.3199    5.4624   -0.8697 H   0  0  0  0  0  0  0  0  0  0  0  0
    6.7354    4.5155   -0.4110 H   0  0  0  0  0  0  0  0  0  0  0  0
    6.2752    7.2817    0.4496 H   0  0  0  0  0  0  0  0  0  0  0  0
    7.4016    6.7689   -0.6057 H   0  0  0  0  0  0  0  0  0  0  0  0
  1 11  1  0
  1 14  1  0
  2  8  2  0
  3 16  1  0
  4  9  2  0
  4  2  1  0
  5 18  1  0
  5  3  2  0
  6 19  1  0
  6 20  1  0
  7 10  1  0
  7  6  1  0
  8  3  1  0
  8  6  1  0
  9  5  1  0
 10 23  1  0
 11  9  1  0
 12  1  1  0
 13  1  1  0
 15  2  1  0
 17  4  1  0
 21  7  1  0
 22  7  1  0
 24 10  1  0
M  END
>  <HBA>  (740) 
2

>  <HBD>  (740) 
1

>  <TPSA>  (740) 
35.25

>  <cid>  (740) 
4657

>  <dipole>  (740) 
2.44

>  <excitation_energy_1>  (740) 
4.937

>  <excitation_energy_2>  (740) 
5.277

>  <excitation_energy_3>  (740) 
5.504

>  <excitation_energy_4>  (740) 
5.589

>  <homo_energy>  (740) 
-5.687

>  <homo_lumo_gap>  (740) 
5.81

>  <logP>  (740) 
1.897

>  <lumo_energy>  (740) 
0.122

>  <melting_point>  (740) 
66.84

>  <molecular_refractivity>  (740) 
45.41

>  <oscillator_strength_1>  (740) 
0.0322

>  <oscillator_strength_2>  (740) 
0.0088

>  <oscillator_strength_3>  (740) 
0.0119

>  <oscillator_strength_4>  (740) 
0.1047

>  <open_babel_can_smiles>  (740) 
NCCc1ccc(cc1)OC

>  <mulliken_charges>  (740) 
24
1   -0.213034
2   -0.193268
3   -0.18665
4   -0.193933
5   -0.171246
6   -0.341194
7   -0.128681
8   0.16952
9   0.371833
10   -0.71477
11   -0.508021
12   0.168026
13   0.149818
14   0.150246
15   0.119434
16   0.126514
17   0.127888
18   0.135538
19   0.130906
20   0.155675
21   0.115815
22   0.143095
23   0.290785
24   0.295705

>  <lowdin_charges>  (740) 
24
1   -0.276826
2   -0.159126
3   -0.154381
4   -0.21233
5   -0.18142
6   -0.277301
7   -0.205132
8   -0.020663
9   0.097254
10   -0.560775
11   -0.201584
12   0.160716
13   0.143587
14   0.14535
15   0.152738
16   0.155151
17   0.159132
18   0.165132
19   0.143656
20   0.156839
21   0.119091
22   0.144731
23   0.251021
24   0.25514

$$$$
PCCDB-ID:  4674
     RDKit          3D

 24 23  0  0  0  0  0  0  0  0999 V2000
    1.4548    0.4603   -0.5582 C   0  0  0  0  0  0  0  0  0  0  0  0
    0.2517    1.1343    0.1262 C   0  0  0  0  0  0  0  0  0  0  0  0
    2.8804    0.9815   -0.2436 C   0  0  0  0  0  0  0  0  0  0  0  0
    0.0033    0.5897    1.4909 N   0  0  0  0  0  0  0  0  0  0  0  0
    3.7689    0.2107   -1.0805 O   0  0  0  0  0  0  0  0  0  0  0  0
    4.5217    3.2122   -0.2170 O   0  0  0  0  0  0  0  0  0  0  0  0
    3.4063    2.5483   -2.3777 O   0  0  0  0  0  0  0  0  0  0  0  0
    1.9303    3.6478   -0.5361 O   0  0  0  0  0  0  0  0  0  0  0  0
    2.3417   -0.0504    2.3071 O   0  0  0  0  0  0  0  0  0  0  0  0
    4.6925   -0.1946    1.4140 O   0  0  0  0  0  0  0  0  0  0  0  0
    3.8210    2.1312    2.1565 O   0  0  0  0  0  0  0  0  0  0  0  0
    3.0919    2.7664   -0.8116 P   0  0  0  0  0  0  0  0  0  0  0  0
    3.4092    0.8195    1.5591 P   0  0  0  0  0  0  0  0  0  0  0  0
    1.3346    0.5777   -1.6410 H   0  0  0  0  0  0  0  0  0  0  0  0
    1.4494   -0.6204   -0.3676 H   0  0  0  0  0  0  0  0  0  0  0  0
   -0.6335    0.9899   -0.5043 H   0  0  0  0  0  0  0  0  0  0  0  0
    0.4245    2.2094    0.2062 H   0  0  0  0  0  0  0  0  0  0  0  0
   -0.5373   -0.2739    1.4428 H   0  0  0  0  0  0  0  0  0  0  0  0
   -0.5387    1.2487    2.0479 H   0  0  0  0  0  0  0  0  0  0  0  0
    4.4998   -0.1187   -0.5248 H   0  0  0  0  0  0  0  0  0  0  0  0
    4.4576    3.1698    0.7703 H   0  0  0  0  0  0  0  0  0  0  0  0
    3.9149    1.7170   -2.4711 H   0  0  0  0  0  0  0  0  0  0  0  0
    1.3352    0.2417    2.0865 H   0  0  0  0  0  0  0  0  0  0  0  0
    5.4580    0.1899    1.8749 H   0  0  0  0  0  0  0  0  0  0  0  0
  1 15  1  0
  1  3  1  0
  1  2  1  0
  2 17  1  0
  2  4  1  0
  3 13  1  0
  4 19  1  0
  5 20  1  0
  5  3  1  0
  6 21  1  0
  7 12  1  0
 10 13  1  0
 10 24  1  0
 12  8  2  0
 12  3  1  0
 12  6  1  0
 13 11  2  0
 13  9  1  0
 14  1  1  0
 16  2  1  0
 18  4  1  0
 22  7  1  0
 23  9  1  0
M  END
>  <HBA>  (741) 
8

>  <HBD>  (741) 
6

>  <TPSA>  (741) 
180.93

>  <cid>  (741) 
4674

>  <dipole>  (741) 
5.97

>  <excitation_energy_1>  (741) 
6.162

>  <excitation_energy_2>  (741) 
6.245

>  <excitation_energy_3>  (741) 
6.793

>  <excitation_energy_4>  (741) 
6.819

>  <homo_energy>  (741) 
-7.252

>  <homo_lumo_gap>  (741) 
7.649

>  <logP>  (741) 
-0.963

>  <lumo_energy>  (741) 
0.397

>  <melting_point>  (741) 
231.98

>  <molecular_refractivity>  (741) 
42.42

>  <oscillator_strength_1>  (741) 
0.003

>  <oscillator_strength_2>  (741) 
0.0035

>  <oscillator_strength_3>  (741) 
0.0

>  <oscillator_strength_4>  (741) 
0.0046

>  <open_babel_can_smiles>  (741) 
NCCC(P(=O)(O)O)(P(=O)(O)O)O

>  <mulliken_charges>  (741) 
24
1   -0.293903
2   -0.189257
3   -0.159766
4   -0.794376
5   -0.666202
6   -0.671257
7   -0.651193
8   -0.548187
9   -0.65672
10   -0.674333
11   -0.600607
12   1.104715
13   1.071268
14   0.181949
15   0.164935
16   0.159785
17   0.239574
18   0.342174
19   0.351931
20   0.437823
21   0.465858
22   0.444739
23   0.493558
24   0.447491

>  <lowdin_charges>  (741) 
24
1   -0.286122
2   -0.220744
3   -0.214433
4   -0.511615
5   -0.461474
6   -0.579121
7   -0.564861
8   -0.587904
9   -0.597488
10   -0.580678
11   -0.61282
12   1.041687
13   1.039175
14   0.172737
15   0.158176
16   0.153519
17   0.191431
18   0.279704
19   0.288096
20   0.361665
21   0.382373
22   0.378892
23   0.380309
24   0.389497

$$$$
PCCDB-ID:  4678
     RDKit          3D

 33 32  0  0  1  0  0  0  0  0999 V2000
   -0.1955    0.8235    2.1474 C   0  0  0  0  0  0  0  0  0  0  0  0
    1.7549    2.3668    2.4742 C   0  0  0  0  0  0  0  0  0  0  0  0
    4.4028    2.8788   -1.5453 C   0  0  0  0  0  0  0  0  0  0  0  0
    3.5891    2.5319   -0.2897 C   0  0  0  0  0  0  0  0  0  0  0  0
    4.3510    1.7853   -2.6121 C   0  0  0  0  0  0  0  0  0  0  0  0
    1.7849    0.1353    3.5664 C   0  0  0  0  0  0  0  0  0  0  0  0
    1.9870    0.2635    1.0154 C   0  0  2  0  0  0  0  0  0  0  0  0
    3.5144    0.4555    0.9086 C   0  0  0  0  0  0  0  0  0  0  0  0
    1.3390    0.8966    2.2955 C   0  0  0  0  0  0  0  0  0  0  0  0
    4.1863    1.3952    0.3866 N   0  0  0  0  0  0  0  0  0  0  0  0
    5.0676    2.1333   -3.7943 O   0  0  0  0  0  0  0  0  0  0  0  0
    1.3120   -1.2261    3.6208 O   0  0  0  0  0  0  0  0  0  0  0  0
    1.7209   -1.1449    0.9383 O   0  0  0  0  0  0  0  0  0  0  0  0
    4.2011   -0.5678    1.4884 O   0  0  0  0  0  0  0  0  0  0  0  0
   -0.6942    1.1687    3.0623 H   0  0  0  0  0  0  0  0  0  0  0  0
   -0.5406   -0.1906    1.9222 H   0  0  0  0  0  0  0  0  0  0  0  0
   -0.5313    1.4676    1.3275 H   0  0  0  0  0  0  0  0  0  0  0  0
    1.2421    2.7986    3.3418 H   0  0  0  0  0  0  0  0  0  0  0  0
    1.4796    2.9635    1.5994 H   0  0  0  0  0  0  0  0  0  0  0  0
    2.8334    2.4693    2.6304 H   0  0  0  0  0  0  0  0  0  0  0  0
    5.4462    3.0478   -1.2459 H   0  0  0  0  0  0  0  0  0  0  0  0
    4.0292    3.8155   -1.9785 H   0  0  0  0  0  0  0  0  0  0  0  0
    2.5326    2.3849   -0.5748 H   0  0  0  0  0  0  0  0  0  0  0  0
    3.6108    3.3984    0.3849 H   0  0  0  0  0  0  0  0  0  0  0  0
    3.3156    1.6267   -2.9370 H   0  0  0  0  0  0  0  0  0  0  0  0
    4.7134    0.8365   -2.1904 H   0  0  0  0  0  0  0  0  0  0  0  0
    1.4481    0.6795    4.4592 H   0  0  0  0  0  0  0  0  0  0  0  0
    2.8742    0.0605    3.6054 H   0  0  0  0  0  0  0  0  0  0  0  0
    1.5199    0.7259    0.1389 H   0  0  0  0  0  0  0  0  0  0  0  0
    6.0050    2.1946   -3.5531 H   0  0  0  0  0  0  0  0  0  0  0  0
    0.3710   -1.2107    3.8553 H   0  0  0  0  0  0  0  0  0  0  0  0
    1.4469   -1.4460    1.8310 H   0  0  0  0  0  0  0  0  0  0  0  0
    3.5734   -1.3196    1.4852 H   0  0  0  0  0  0  0  0  0  0  0  0
  1  9  1  0
  1 15  1  0
  2 20  1  0
  2 18  1  0
  3 21  1  0
  3  4  1  0
  4 24  1  0
  4 10  1  0
  5 26  1  0
  5  3  1  0
  6 28  1  0
  6 12  1  0
  6 27  1  0
  7 29  1  6
  7  9  1  0
  8  7  1  0
  8 14  1  0
  9  2  1  0
  9  6  1  0
 10  8  2  0
 11 30  1  0
 11  5  1  0
 12 31  1  0
 13  7  1  0
 13 32  1  0
 16  1  1  0
 17  1  1  0
 19  2  1  0
 22  3  1  0
 23  4  1  0
 25  5  1  0
 33 14  1  0
M  END
>  <HBA>  (742) 
5

>  <HBD>  (742) 
4

>  <TPSA>  (742) 
89.79

>  <cid>  (742) 
4678

>  <dipole>  (742) 
5.88

>  <excitation_energy_1>  (742) 
5.33

>  <excitation_energy_2>  (742) 
5.613

>  <excitation_energy_3>  (742) 
5.796

>  <excitation_energy_4>  (742) 
6.057

>  <homo_energy>  (742) 
-6.359

>  <homo_lumo_gap>  (742) 
6.857

>  <logP>  (742) 
-0.745

>  <lumo_energy>  (742) 
0.498

>  <melting_point>  (742) 
94.56

>  <molecular_refractivity>  (742) 
51.6

>  <oscillator_strength_1>  (742) 
0.003

>  <oscillator_strength_2>  (742) 
0.0008

>  <oscillator_strength_3>  (742) 
0.0121

>  <oscillator_strength_4>  (742) 
0.0173

>  <open_babel_can_smiles>  (742) 
OCCC/N=C(\[C@H](C(CO)(C)C)O)/O

>  <mulliken_charges>  (742) 
33
1   -0.471594
2   -0.468951
3   -0.270692
4   -0.157116
5   -0.031306
6   -0.082851
7   0.06501
8   0.489914
9   0.033853
10   -0.429759
11   -0.619891
12   -0.631283
13   -0.682722
14   -0.60396
15   0.142263
16   0.150876
17   0.160876
18   0.145967
19   0.157313
20   0.173567
21   0.136391
22   0.136043
23   0.115208
24   0.143554
25   0.133449
26   0.142866
27   0.142253
28   0.187364
29   0.148314
30   0.386079
31   0.410414
32   0.43217
33   0.416384

>  <lowdin_charges>  (742) 
33
1   -0.454116
2   -0.44527
3   -0.295927
4   -0.199667
5   -0.138112
6   -0.148719
7   -0.0325
8   0.105808
9   -0.019402
10   -0.209088
11   -0.469166
12   -0.45789
13   -0.479981
14   -0.376505
15   0.14887
16   0.151399
17   0.160979
18   0.153246
19   0.158915
20   0.162546
21   0.14352
22   0.145961
23   0.118451
24   0.147418
25   0.138623
26   0.136535
27   0.14324
28   0.164463
29   0.153696
30   0.338796
31   0.351364
32   0.346964
33   0.35555

$$$$
PCCDB-ID:  4688
     RDKit          3D

 25 25  0  0  0  0  0  0  0  0999 V2000
    3.6107   -1.9340   -1.2044 C   0  0  0  0  0  0  0  0  0  0  0  0
    4.5229   -3.2322    2.3021 C   0  0  0  0  0  0  0  0  0  0  0  0
    3.4220   -1.6819   -0.0376 C   0  0  0  0  0  0  0  0  0  0  0  0
    8.3870   -1.1980    5.3008 C   0  0  0  0  0  0  0  0  0  0  0  0
    8.8033   -1.5314    4.0123 C   0  0  0  0  0  0  0  0  0  0  0  0
    7.0555   -0.8350    5.5242 C   0  0  0  0  0  0  0  0  0  0  0  0
    7.8926   -1.4994    2.9531 C   0  0  0  0  0  0  0  0  0  0  0  0
    6.1506   -0.8021    4.4647 C   0  0  0  0  0  0  0  0  0  0  0  0
    3.2386   -1.3777    1.3973 C   0  0  0  0  0  0  0  0  0  0  0  0
    5.5794   -1.0565    2.0089 C   0  0  0  0  0  0  0  0  0  0  0  0
    6.5599   -1.1313    3.1648 C   0  0  0  0  0  0  0  0  0  0  0  0
    4.3346   -1.7835    2.2801 N   0  0  0  0  0  0  0  0  0  0  0  0
    3.7667   -2.1595   -2.2350 H   0  0  0  0  0  0  0  0  0  0  0  0
    3.5888   -3.7148    2.6100 H   0  0  0  0  0  0  0  0  0  0  0  0
    5.2944   -3.4826    3.0350 H   0  0  0  0  0  0  0  0  0  0  0  0
    4.8219   -3.6446    1.3226 H   0  0  0  0  0  0  0  0  0  0  0  0
    9.0925   -1.2224    6.1272 H   0  0  0  0  0  0  0  0  0  0  0  0
    9.8349   -1.8215    3.8298 H   0  0  0  0  0  0  0  0  0  0  0  0
    6.7237   -0.5766    6.5268 H   0  0  0  0  0  0  0  0  0  0  0  0
    8.2216   -1.7622    1.9499 H   0  0  0  0  0  0  0  0  0  0  0  0
    5.1115   -0.5351    4.6359 H   0  0  0  0  0  0  0  0  0  0  0  0
    2.3213   -1.8651    1.7533 H   0  0  0  0  0  0  0  0  0  0  0  0
    3.0858   -0.2973    1.5174 H   0  0  0  0  0  0  0  0  0  0  0  0
    6.0739   -1.4037    1.0836 H   0  0  0  0  0  0  0  0  0  0  0  0
    5.3052   -0.0069    1.8369 H   0  0  0  0  0  0  0  0  0  0  0  0
  1  3  3  0
  2 14  1  0
  2 15  1  0
  3  9  1  0
  4  6  2  0
  4 17  1  0
  5  4  1  0
  6 19  1  0
  7 11  1  0
  7  5  2  0
  8 21  1  0
  8  6  1  0
  9 23  1  0
  9 22  1  0
  9 12  1  0
 10 12  1  0
 10 11  1  0
 11  8  2  0
 12  2  1  0
 13  1  1  0
 16  2  1  0
 18  5  1  0
 20  7  1  0
 24 10  1  0
 25 10  1  0
M  END
>  <HBA>  (743) 
1

>  <HBD>  (743) 
0

>  <TPSA>  (743) 
3.24

>  <cid>  (743) 
4688

>  <dipole>  (743) 
0.26

>  <excitation_energy_1>  (743) 
4.962

>  <excitation_energy_2>  (743) 
5.149

>  <excitation_energy_3>  (743) 
5.345

>  <excitation_energy_4>  (743) 
5.487

>  <homo_energy>  (743) 
-5.981

>  <homo_lumo_gap>  (743) 
5.978

>  <logP>  (743) 
1.752

>  <lumo_energy>  (743) 
-0.003

>  <melting_point>  (743) 
24.48

>  <molecular_refractivity>  (743) 
51.69

>  <oscillator_strength_1>  (743) 
0.0026

>  <oscillator_strength_2>  (743) 
0.0096

>  <oscillator_strength_3>  (743) 
0.0078

>  <oscillator_strength_4>  (743) 
0.0094

>  <open_babel_can_smiles>  (743) 
CN(Cc1ccccc1)CC#C

>  <mulliken_charges>  (743) 
25
1   -0.482929
2   -0.311491
3   0.326239
4   -0.129426
5   -0.128377
6   -0.13125
7   -0.186959
8   -0.161087
9   -0.28845
10   -0.207068
11   0.149614
12   -0.3579
13   0.187285
14   0.146495
15   0.166014
16   0.136826
17   0.127274
18   0.127639
19   0.127943
20   0.124497
21   0.135056
22   0.173115
23   0.172849
24   0.133572
25   0.150521

>  <lowdin_charges>  (743) 
25
1   -0.257012
2   -0.363332
3   -0.0578
4   -0.160795
5   -0.155724
6   -0.155436
7   -0.167475
8   -0.154795
9   -0.188069
10   -0.196218
11   -0.01368
12   -0.175283
13   0.202884
14   0.150063
15   0.161144
16   0.132629
17   0.157355
18   0.155464
19   0.155883
20   0.154085
21   0.160458
22   0.166807
23   0.164028
24   0.132654
25   0.152164

$$$$
PCCDB-ID:  4696
     RDKit          3D

 17 18  0  0  1  0  0  0  0  0999 V2000
    0.6010   -1.5138   -0.1444 C   0  0  0  0  0  0  0  0  0  0  0  0
    2.0315   -1.0354   -0.1285 C   0  0  0  0  0  0  0  0  0  0  0  0
   -1.2859    1.4732    0.0086 C   0  0  0  0  0  0  0  0  0  0  0  0
   -0.1014    0.8358   -0.0553 C   0  0  0  0  0  0  0  0  0  0  0  0
   -0.3674   -0.5929   -0.0688 C   0  0  0  0  0  0  0  0  0  0  0  0
   -2.3522    0.4500    0.0467 C   0  0  0  0  0  0  0  0  0  0  0  0
    1.3304    1.2808   -0.2152 C   0  0  2  0  0  0  0  0  0  0  0  0
   -3.5471    0.5486    0.1107 O   0  0  0  0  0  0  0  0  0  0  0  0
    1.6190    1.5861   -1.5612 O   0  0  0  0  0  0  0  0  0  0  0  0
    2.1876    0.3018    0.3415 O   0  0  0  0  0  0  0  0  0  0  0  0
   -1.7185   -0.8114   -0.0192 O   0  0  0  0  0  0  0  0  0  0  0  0
    0.3926   -2.5767   -0.2123 H   0  0  0  0  0  0  0  0  0  0  0  0
    2.4866   -1.1432   -1.1276 H   0  0  0  0  0  0  0  0  0  0  0  0
    2.6272   -1.6496    0.5550 H   0  0  0  0  0  0  0  0  0  0  0  0
   -1.4993    2.5333    0.0192 H   0  0  0  0  0  0  0  0  0  0  0  0
    1.5507    2.1898    0.3469 H   0  0  0  0  0  0  0  0  0  0  0  0
    1.1801    0.9354   -2.1333 H   0  0  0  0  0  0  0  0  0  0  0  0
  1  2  1  0
  1  5  2  0
  2 10  1  0
  2 14  1  0
  3 15  1  0
  3  6  1  0
  4  3  2  0
  5  4  1  0
  5 11  1  0
  6  8  2  0
  7  4  1  0
  7 10  1  0
  7 16  1  1
  9  7  1  0
 11  6  1  0
 12  1  1  0
 13  2  1  0
 17  9  1  0
M  END
>  <HBA>  (744) 
4

>  <HBD>  (744) 
1

>  <TPSA>  (744) 
55.76

>  <cid>  (744) 
4696

>  <dipole>  (744) 
3.18

>  <excitation_energy_1>  (744) 
4.172

>  <excitation_energy_2>  (744) 
4.492

>  <excitation_energy_3>  (744) 
4.847

>  <excitation_energy_4>  (744) 
5.305

>  <homo_energy>  (744) 
-6.898

>  <homo_lumo_gap>  (744) 
4.553

>  <logP>  (744) 
-0.298

>  <lumo_energy>  (744) 
-2.346

>  <melting_point>  (744) 
66.46

>  <molecular_refractivity>  (744) 
34.12

>  <oscillator_strength_1>  (744) 
0.0001

>  <oscillator_strength_2>  (744) 
0.3612

>  <oscillator_strength_3>  (744) 
0.0128

>  <oscillator_strength_4>  (744) 
0.0177

>  <open_babel_can_smiles>  (744) 
O=C1OC2=CCO[C@H](C2=C1)O

>  <mulliken_charges>  (744) 
17
1   -0.241227
2   -0.07797
3   -0.257279
4   0.085353
5   0.397869
6   0.593046
7   0.26231
8   -0.448535
9   -0.589253
10   -0.461413
11   -0.513266
12   0.1695
13   0.157748
14   0.179092
15   0.174788
16   0.171182
17   0.398055

>  <lowdin_charges>  (744) 
17
1   -0.190417
2   -0.126212
3   -0.19263
4   -0.021866
5   0.079829
6   0.198899
7   0.09865
8   -0.207419
9   -0.432136
10   -0.251819
11   -0.158013
12   0.181212
13   0.146961
14   0.171073
15   0.1864
16   0.167278
17   0.35021

$$$$
PCCDB-ID:  4703
     RDKit          3D

 23 23  0  0  0  0  0  0  0  0999 V2000
    0.3429    0.2959    0.1779 C   0  0  0  0  0  0  0  0  0  0  0  0
    2.6605   -0.5660    0.7381 C   0  0  0  0  0  0  0  0  0  0  0  0
    2.4598    1.1503   -0.9276 C   0  0  0  0  0  0  0  0  0  0  0  0
    4.0435   -0.5555    0.5966 C   0  0  0  0  0  0  0  0  0  0  0  0
    3.8427    1.1551   -1.0842 C   0  0  0  0  0  0  0  0  0  0  0  0
    6.1144    0.3470   -0.5702 C   0  0  0  0  0  0  0  0  0  0  0  0
    1.8410    0.2932   -0.0092 C   0  0  0  0  0  0  0  0  0  0  0  0
    4.6683    0.3221   -0.3073 C   0  0  0  0  0  0  0  0  0  0  0  0
    7.1892    0.1752    0.2371 C   0  0  0  0  0  0  0  0  0  0  0  0
    7.2274    0.0952    1.7239 C   0  0  0  0  0  0  0  0  0  0  0  0
    6.0930    0.4885    2.3453 O   0  0  0  0  0  0  0  0  0  0  0  0
    8.2210   -0.2327    2.3430 O   0  0  0  0  0  0  0  0  0  0  0  0
    8.8703    0.0776   -0.3799 S   0  0  0  0  0  0  0  0  0  0  0  0
   -0.0395   -0.7124    0.3712 H   0  0  0  0  0  0  0  0  0  0  0  0
   -0.1715    0.6902   -0.7045 H   0  0  0  0  0  0  0  0  0  0  0  0
    0.0513    0.9210    1.0327 H   0  0  0  0  0  0  0  0  0  0  0  0
    2.2040   -1.2642    1.4363 H   0  0  0  0  0  0  0  0  0  0  0  0
    1.8505    1.8155   -1.5350 H   0  0  0  0  0  0  0  0  0  0  0  0
    4.6445   -1.2482    1.1741 H   0  0  0  0  0  0  0  0  0  0  0  0
    4.2965    1.8219   -1.8139 H   0  0  0  0  0  0  0  0  0  0  0  0
    6.3447    0.5248   -1.6211 H   0  0  0  0  0  0  0  0  0  0  0  0
    6.2852    0.4201    3.2996 H   0  0  0  0  0  0  0  0  0  0  0  0
    8.5356    0.2068   -1.6817 H   0  0  0  0  0  0  0  0  0  0  0  0
  1 14  1  0
  1 16  1  0
  2 17  1  0
  3  7  2  0
  4  2  2  0
  4 19  1  0
  5  3  1  0
  5  8  2  0
  6  8  1  0
  6  9  2  0
  7  1  1  0
  7  2  1  0
  8  4  1  0
  9 10  1  0
 10 12  2  0
 10 11  1  0
 11 22  1  0
 13  9  1  0
 15  1  1  0
 18  3  1  0
 20  5  1  0
 21  6  1  0
 23 13  1  0
M  END
>  <HBA>  (745) 
3

>  <HBD>  (745) 
2

>  <TPSA>  (745) 
76.1

>  <cid>  (745) 
4703

>  <dipole>  (745) 
3.87

>  <excitation_energy_1>  (745) 
3.512

>  <excitation_energy_2>  (745) 
4.288

>  <excitation_energy_3>  (745) 
4.521

>  <excitation_energy_4>  (745) 
4.666

>  <homo_energy>  (745) 
-5.815

>  <homo_lumo_gap>  (745) 
4.033

>  <logP>  (745) 
2.35

>  <lumo_energy>  (745) 
-1.782

>  <melting_point>  (745) 
131.85

>  <molecular_refractivity>  (745) 
56.01

>  <oscillator_strength_1>  (745) 
0.3751

>  <oscillator_strength_2>  (745) 
0.0087

>  <oscillator_strength_3>  (745) 
0.0223

>  <oscillator_strength_4>  (745) 
0.0007

>  <open_babel_can_smiles>  (745) 
S/C(=C/c1ccc(cc1)C)/C(=O)O

>  <mulliken_charges>  (745) 
23
1   -0.53093
2   -0.187964
3   -0.18291
4   -0.143344
5   -0.180153
6   -0.214375
7   0.181195
8   0.170953
9   -0.130831
10   0.572731
11   -0.56636
12   -0.456215
13   0.030007
14   0.160847
15   0.158467
16   0.169329
17   0.125942
18   0.126487
19   0.133582
20   0.130575
21   0.143265
22   0.414112
23   0.075588

>  <lowdin_charges>  (745) 
23
1   -0.442923
2   -0.167952
3   -0.169366
4   -0.139851
5   -0.152924
6   -0.142899
7   0.009092
8   -0.009902
9   -0.163467
10   0.192735
11   -0.338568
12   -0.256758
13   0.029326
14   0.159808
15   0.159573
16   0.164958
17   0.157661
18   0.158283
19   0.16336
20   0.158919
21   0.163087
22   0.363468
23   0.104341

$$$$
PCCDB-ID:  4727
     RDKit          3D

 20 19  0  0  1  0  0  0  0  0999 V2000
    0.7798    0.0537    0.1227 C   0  0  0  0  0  0  0  0  0  0  0  0
    2.6004   -0.3526   -1.5815 C   0  0  0  0  0  0  0  0  0  0  0  0
    3.0448    1.1181    0.4729 C   0  0  2  0  0  0  0  0  0  0  0  0
    4.5872    0.9944    0.4062 C   0  0  0  0  0  0  0  0  0  0  0  0
    2.2885   -0.1377   -0.0966 C   0  0  0  0  0  0  0  0  0  0  0  0
    2.6022    2.3173   -0.2382 N   0  0  0  0  0  0  0  0  0  0  0  0
    5.2475    1.6103   -0.3994 O   0  0  0  0  0  0  0  0  0  0  0  0
    5.1800    0.1840    1.3052 O   0  0  0  0  0  0  0  0  0  0  0  0
    2.7230   -1.6822    0.8868 S   0  0  0  0  0  0  0  0  0  0  0  0
    0.4690    0.9889   -0.3495 H   0  0  0  0  0  0  0  0  0  0  0  0
    0.5330    0.1109    1.1899 H   0  0  0  0  0  0  0  0  0  0  0  0
    0.2201   -0.7798   -0.3120 H   0  0  0  0  0  0  0  0  0  0  0  0
    2.2759    0.5275   -2.1470 H   0  0  0  0  0  0  0  0  0  0  0  0
    2.0640   -1.2248   -1.9663 H   0  0  0  0  0  0  0  0  0  0  0  0
    3.6718   -0.4946   -1.7621 H   0  0  0  0  0  0  0  0  0  0  0  0
    2.7584    1.2023    1.5286 H   0  0  0  0  0  0  0  0  0  0  0  0
    3.3063    2.5291   -0.9463 H   0  0  0  0  0  0  0  0  0  0  0  0
    2.6075    3.1111    0.3985 H   0  0  0  0  0  0  0  0  0  0  0  0
    4.4924   -0.3343    1.7735 H   0  0  0  0  0  0  0  0  0  0  0  0
    3.7869   -2.0780    0.1554 H   0  0  0  0  0  0  0  0  0  0  0  0
  1 11  1  0
  2  5  1  0
  3 16  1  1
  4  3  1  0
  4  8  1  0
  5  1  1  0
  5  3  1  0
  5  9  1  0
  6 18  1  0
  6  3  1  0
  7  4  2  0
  8 19  1  0
 10  1  1  0
 12  1  1  0
 13  2  1  0
 14  2  1  0
 15  2  1  0
 17  6  1  0
 20  9  1  0
M  END
>  <HBA>  (746) 
4

>  <HBD>  (746) 
3

>  <TPSA>  (746) 
102.12

>  <cid>  (746) 
4727

>  <dipole>  (746) 
2.29

>  <excitation_energy_1>  (746) 
5.436

>  <excitation_energy_2>  (746) 
5.599

>  <excitation_energy_3>  (746) 
5.744

>  <excitation_energy_4>  (746) 
5.969

>  <homo_energy>  (746) 
-6.789

>  <homo_lumo_gap>  (746) 
6.724

>  <logP>  (746) 
0.807

>  <lumo_energy>  (746) 
-0.065

>  <melting_point>  (746) 
136.79

>  <molecular_refractivity>  (746) 
38.6

>  <oscillator_strength_1>  (746) 
0.0043

>  <oscillator_strength_2>  (746) 
0.0048

>  <oscillator_strength_3>  (746) 
0.0024

>  <oscillator_strength_4>  (746) 
0.003

>  <open_babel_can_smiles>  (746) 
N[C@@H](C(S)(C)C)C(=O)O

>  <mulliken_charges>  (746) 
20
1   -0.448073
2   -0.466879
3   -0.088859
4   0.583147
5   -0.057648
6   -0.713475
7   -0.455723
8   -0.568398
9   -0.132167
10   0.193207
11   0.147917
12   0.162744
13   0.180349
14   0.165996
15   0.163281
16   0.151422
17   0.328555
18   0.311393
19   0.422799
20   0.12041

>  <lowdin_charges>  (746) 
20
1   -0.447411
2   -0.450443
3   -0.117227
4   0.17598
5   -0.067475
6   -0.539847
7   -0.253047
8   -0.352269
9   -0.09548
10   0.175137
11   0.151737
12   0.162004
13   0.170052
14   0.16365
15   0.156773
16   0.153955
17   0.271279
18   0.266404
19   0.350656
20   0.125571

$$$$
PCCDB-ID:  4728
     RDKit          3D

 22 22  0  0  1  0  0  0  0  0999 V2000
    3.1675   -0.9754   -0.8487 C   0  0  0  0  0  0  0  0  0  0  0  0
    0.9925    0.2077   -0.4873 C   0  0  0  0  0  0  0  0  0  0  0  0
    6.4344   -0.4782    1.8945 C   0  0  0  0  0  0  0  0  0  0  0  0
    5.0499    1.9221    1.0763 C   0  0  0  0  0  0  0  0  0  0  0  0
    2.4428   -0.0733   -0.1807 C   0  0  0  0  0  0  0  0  0  0  0  0
    4.5181    0.6960    1.2014 C   0  0  0  0  0  0  0  0  0  0  0  0
    3.9550    2.8477    0.7550 C   0  0  0  0  0  0  0  0  0  0  0  0
    3.0098    0.7456    0.9729 C   0  0  2  0  0  0  0  0  0  0  0  0
    3.9747    4.0323    0.5471 O   0  0  0  0  0  0  0  0  0  0  0  0
    2.3316    0.4484    2.1840 O   0  0  0  0  0  0  0  0  0  0  0  0
    5.0424   -0.4820    1.5524 O   0  0  0  0  0  0  0  0  0  0  0  0
    2.7674    2.1227    0.7140 O   0  0  0  0  0  0  0  0  0  0  0  0
    2.7244   -1.5515   -1.6569 H   0  0  0  0  0  0  0  0  0  0  0  0
    4.2069   -1.1817   -0.6206 H   0  0  0  0  0  0  0  0  0  0  0  0
    0.6233   -0.4609   -1.2701 H   0  0  0  0  0  0  0  0  0  0  0  0
    0.8631    1.2441   -0.8175 H   0  0  0  0  0  0  0  0  0  0  0  0
    0.3737    0.0820    0.4080 H   0  0  0  0  0  0  0  0  0  0  0  0
    6.6791   -1.5021    2.1774 H   0  0  0  0  0  0  0  0  0  0  0  0
    6.6164    0.2005    2.7348 H   0  0  0  0  0  0  0  0  0  0  0  0
    7.0384   -0.1716    1.0335 H   0  0  0  0  0  0  0  0  0  0  0  0
    6.0687    2.2548    1.2099 H   0  0  0  0  0  0  0  0  0  0  0  0
    2.4713   -0.4987    2.3533 H   0  0  0  0  0  0  0  0  0  0  0  0
  1 14  1  0
  1  5  2  3
  2  5  1  0
  2 17  1  0
  3 18  1  0
  3 19  1  0
  4  6  2  0
  4 21  1  0
  6 11  1  0
  7  4  1  0
  8  5  1  0
  8  6  1  0
  8 10  1  1
  9  7  2  0
 10 22  1  0
 11  3  1  0
 12  7  1  0
 12  8  1  0
 13  1  1  0
 15  2  1  0
 16  2  1  0
 20  3  1  0
M  END
>  <HBA>  (747) 
4

>  <HBD>  (747) 
1

>  <TPSA>  (747) 
55.76

>  <cid>  (747) 
4728

>  <dipole>  (747) 
6.47

>  <excitation_energy_1>  (747) 
4.98

>  <excitation_energy_2>  (747) 
5.395

>  <excitation_energy_3>  (747) 
5.726

>  <excitation_energy_4>  (747) 
6.022

>  <homo_energy>  (747) 
-7.037

>  <homo_lumo_gap>  (747) 
6.139

>  <logP>  (747) 
0.338

>  <lumo_energy>  (747) 
-0.898

>  <melting_point>  (747) 
23.85

>  <molecular_refractivity>  (747) 
41.08

>  <oscillator_strength_1>  (747) 
0.0028

>  <oscillator_strength_2>  (747) 
0.0334

>  <oscillator_strength_3>  (747) 
0.0717

>  <oscillator_strength_4>  (747) 
0.0931

>  <open_babel_can_smiles>  (747) 
COC1=CC(=O)O[C@@]1(O)C(=C)C

>  <mulliken_charges>  (747) 
22
1   -0.396566
2   -0.506481
3   -0.229978
4   -0.269823
5   0.18
6   0.358526
7   0.61637
8   0.412784
9   -0.468571
10   -0.604585
11   -0.494233
12   -0.494945
13   0.144206
14   0.150592
15   0.149731
16   0.188342
17   0.17049
18   0.18351
19   0.175397
20   0.172276
21   0.1597
22   0.403258

>  <lowdin_charges>  (747) 
22
1   -0.347227
2   -0.441659
3   -0.271834
4   -0.269499
5   -0.015021
6   0.092068
7   0.203559
8   0.209125
9   -0.230741
10   -0.423493
11   -0.16729
12   -0.185223
13   0.162638
14   0.161791
15   0.157793
16   0.173717
17   0.16702
18   0.169746
19   0.161171
20   0.159384
21   0.180651
22   0.353324

$$$$
PCCDB-ID:  4756
     RDKit          3D

 27 28  0  0  0  0  0  0  0  0999 V2000
   -1.1556   -0.4799    0.6863 C   0  0  0  0  0  0  0  0  0  0  0  0
   -0.7007    0.7240    0.1455 C   0  0  0  0  0  0  0  0  0  0  0  0
   -0.2490   -1.5229    0.9097 C   0  0  0  0  0  0  0  0  0  0  0  0
    0.6474    0.8833   -0.1692 C   0  0  0  0  0  0  0  0  0  0  0  0
    1.0978   -1.3715    0.5981 C   0  0  0  0  0  0  0  0  0  0  0  0
    5.9060   -1.8194   -0.1552 C   0  0  0  0  0  0  0  0  0  0  0  0
    7.2411   -1.7921   -0.4120 C   0  0  0  0  0  0  0  0  0  0  0  0
    1.5593   -0.1599    0.0523 C   0  0  0  0  0  0  0  0  0  0  0  0
    5.0345   -0.7099   -0.4000 C   0  0  0  0  0  0  0  0  0  0  0  0
    7.8656   -0.6063   -0.9614 C   0  0  0  0  0  0  0  0  0  0  0  0
    5.6306    0.4651   -0.9408 C   0  0  0  0  0  0  0  0  0  0  0  0
    9.0906   -0.3630   -1.2766 N   0  0  0  0  0  0  0  0  0  0  0  0
    4.9127    1.5658   -1.2101 N   0  0  0  0  0  0  0  0  0  0  0  0
    6.9641    0.4624   -1.1881 N   0  0  0  0  0  0  0  0  0  0  0  0
    2.9031    0.0999   -0.2988 N   0  0  0  0  0  2  0  0  0  0  0  0
    3.7118   -0.8740   -0.0910 N   0  0  0  0  0  2  0  0  0  0  0  0
   -2.2061   -0.6068    0.9330 H   0  0  0  0  0  0  0  0  0  0  0  0
   -1.3959    1.5403   -0.0322 H   0  0  0  0  0  0  0  0  0  0  0  0
   -0.5987   -2.4623    1.3308 H   0  0  0  0  0  0  0  0  0  0  0  0
    1.0146    1.8149   -0.5909 H   0  0  0  0  0  0  0  0  0  0  0  0
    1.8084   -2.1724    0.7671 H   0  0  0  0  0  0  0  0  0  0  0  0
    5.4365   -2.7079    0.2574 H   0  0  0  0  0  0  0  0  0  0  0  0
    7.8742   -2.6502   -0.2143 H   0  0  0  0  0  0  0  0  0  0  0  0
    9.6675   -1.1829   -1.0834 H   0  0  0  0  0  0  0  0  0  0  0  0
    3.9094    1.4887   -0.9992 H   0  0  0  0  0  0  0  0  0  0  0  0
    5.3334    2.4011   -1.5900 H   0  0  0  0  0  0  0  0  0  0  0  0
    7.4121    1.2880   -1.5721 H   0  0  0  0  0  0  0  0  0  0  0  0
  1  3  2  0
  1 17  1  0
  2  1  1  0
  3 19  1  0
  4  8  1  0
  4  2  2  0
  5 21  1  0
  5  3  1  0
  6 22  1  0
  7 23  1  0
  7  6  2  0
  8  5  2  0
  9  6  1  0
  9 16  1  0
 10  7  1  0
 11  9  2  0
 12 24  1  0
 12 10  2  0
 13 25  1  0
 13 11  1  0
 14 10  1  0
 14 11  1  0
 15 16  1  0
 15  8  1  0
 18  2  1  0
 20  4  1  0
 26 13  1  0
 27 14  1  0
M  RAD  2  15   2  16   2
M  END
>  <HBA>  (748) 
5

>  <HBD>  (748) 
2

>  <TPSA>  (748) 
89.65

>  <cid>  (748) 
4756

>  <dipole>  (748) 
1.79

>  <excitation_energy_1>  (748) 
3.088

>  <excitation_energy_2>  (748) 
3.127

>  <excitation_energy_3>  (748) 
3.822

>  <excitation_energy_4>  (748) 
4.158

>  <homo_energy>  (748) 
-5.015

>  <homo_lumo_gap>  (748) 
3.29

>  <logP>  (748) 
3.824

>  <lumo_energy>  (748) 
-1.725

>  <melting_point>  (748) 
176.63

>  <molecular_refractivity>  (748) 
63.66

>  <oscillator_strength_1>  (748) 
0.0044

>  <oscillator_strength_2>  (748) 
0.7586

>  <oscillator_strength_3>  (748) 
0.2642

>  <oscillator_strength_4>  (748) 
0.0035

>  <open_babel_can_smiles>  (748) 
N=c1ccc(c([nH]1)N)[N][N]c1ccccc1

>  <mulliken_charges>  (748) 
27
1   -0.124246
2   -0.139395
3   -0.145021
4   -0.152074
5   -0.139298
6   -0.097504
7   -0.221897
8   0.306705
9   0.225414
10   0.499711
11   0.646462
12   -0.671215
13   -0.796029
14   -0.73048
15   -0.425038
16   -0.322969
17   0.12727
18   0.127889
19   0.129803
20   0.119343
21   0.147376
22   0.152584
23   0.134583
24   0.285726
25   0.39256
26   0.335529
27   0.334213

>  <lowdin_charges>  (748) 
27
1   -0.159518
2   -0.158003
3   -0.152207
4   -0.165145
5   -0.166238
6   -0.113302
7   -0.240062
8   0.022387
9   -0.083975
10   0.095142
11   0.151406
12   -0.453378
13   -0.436575
14   -0.199211
15   -0.159849
16   -0.073089
17   0.155549
18   0.157936
19   0.157198
20   0.155369
21   0.170548
22   0.174524
23   0.167071
24   0.257122
25   0.30957
26   0.29012
27   0.29661

$$$$
PCCDB-ID:  4765
     RDKit          3D

 17 17  0  0  0  0  0  0  0  0999 V2000
   -0.7681    1.1675    0.0410 C   0  0  0  0  0  0  0  0  0  0  0  0
    1.4242    0.1185   -0.0601 C   0  0  0  0  0  0  0  0  0  0  0  0
   -1.3715   -0.0855    0.0092 C   0  0  0  0  0  0  0  0  0  0  0  0
    0.8230   -1.1320   -0.0936 C   0  0  0  0  0  0  0  0  0  0  0  0
    0.6289    1.2719    0.0034 C   0  0  0  0  0  0  0  0  0  0  0  0
   -0.5726   -1.2279   -0.0621 C   0  0  0  0  0  0  0  0  0  0  0  0
    1.2753    2.4675    0.0341 O   0  0  0  0  0  0  0  0  0  0  0  0
   -1.5136   -3.0483   -1.7436 O   0  0  0  0  0  0  0  0  0  0  0  0
   -0.3931   -3.8499    0.3320 O   0  0  0  0  0  1  0  0  0  0  0  0
   -2.6778   -2.7243    0.4581 O   0  0  0  0  0  1  0  0  0  0  0  0
   -1.3420   -2.8273   -0.1142 S   0  0  0  0  0  0  0  0  0  0  0  0
   -1.3806    2.0647    0.1005 H   0  0  0  0  0  0  0  0  0  0  0  0
    2.5037    0.2253   -0.0758 H   0  0  0  0  0  0  0  0  0  0  0  0
   -2.4510   -0.1811    0.0512 H   0  0  0  0  0  0  0  0  0  0  0  0
    1.4262   -2.0329   -0.1262 H   0  0  0  0  0  0  0  0  0  0  0  0
    0.6252    3.1864    0.0797 H   0  0  0  0  0  0  0  0  0  0  0  0
   -1.1241   -3.9220   -1.9380 H   0  0  0  0  0  0  0  0  0  0  0  0
  1 12  1  0
  2  5  2  0
  3  1  2  0
  3 14  1  0
  4  6  2  0
  4  2  1  0
  5  7  1  0
  5  1  1  0
  6  3  1  0
  7 16  1  0
  8 11  1  0
 11  6  1  0
 11  9  1  0
 11 10  1  0
 13  2  1  0
 15  4  1  0
 17  8  1  0
M  RAD  2   9   2  10   2
M  END
>  <HBA>  (749) 
4

>  <HBD>  (749) 
2

>  <TPSA>  (749) 
82.98

>  <cid>  (749) 
4765

>  <dipole>  (749) 
4.45

>  <excitation_energy_1>  (749) 
5.069

>  <excitation_energy_2>  (749) 
5.434

>  <excitation_energy_3>  (749) 
5.681

>  <excitation_energy_4>  (749) 
6.161

>  <homo_energy>  (749) 
-6.841

>  <homo_lumo_gap>  (749) 
5.856

>  <logP>  (749) 
1.72

>  <lumo_energy>  (749) 
-0.985

>  <melting_point>  (749) 
129.78

>  <molecular_refractivity>  (749) 
38.32

>  <oscillator_strength_1>  (749) 
0.0076

>  <oscillator_strength_2>  (749) 
0.2199

>  <oscillator_strength_3>  (749) 
0.0004

>  <oscillator_strength_4>  (749) 
0.0003

>  <open_babel_can_smiles>  (749) 
Oc1ccc(cc1)S(O)([O])[O]

>  <mulliken_charges>  (749) 
17
1   -0.189035
2   -0.152795
3   -0.137042
4   -0.141401
5   0.361795
6   -0.157312
7   -0.627271
8   -0.638461
9   -0.533751
10   -0.491724
11   1.188834
12   0.13813
13   0.158612
14   0.186956
15   0.180865
16   0.41582
17   0.437778

>  <lowdin_charges>  (749) 
17
1   -0.207176
2   -0.175271
3   -0.115386
4   -0.121045
5   0.120788
6   -0.206453
7   -0.360736
8   -0.588381
9   -0.588332
10   -0.558979
11   1.347196
12   0.16361
13   0.175186
14   0.186002
15   0.185186
16   0.364408
17   0.379384

$$$$
PCCDB-ID:  4771
     RDKit          3D

 26 26  0  0  0  0  0  0  0  0999 V2000
    0.5892    0.6233    0.2738 C   0  0  0  0  0  0  0  0  0  0  0  0
    2.8325    1.3300    1.1755 C   0  0  0  0  0  0  0  0  0  0  0  0
    1.1412   -2.3795    4.6253 C   0  0  0  0  0  0  0  0  0  0  0  0
    0.2816   -2.5243    3.5351 C   0  0  0  0  0  0  0  0  0  0  0  0
    2.4123   -1.8372    4.4292 C   0  0  0  0  0  0  0  0  0  0  0  0
    0.6910   -2.1244    2.2623 C   0  0  0  0  0  0  0  0  0  0  0  0
    2.8156   -1.4391    3.1539 C   0  0  0  0  0  0  0  0  0  0  0  0
    2.4055   -1.1349    0.6674 C   0  0  0  0  0  0  0  0  0  0  0  0
    1.9609   -1.5679    2.0489 C   0  0  0  0  0  0  0  0  0  0  0  0
    2.1038    0.3382    0.2576 C   0  0  0  0  0  0  0  0  0  0  0  0
    2.6866    0.4929   -1.0942 N   0  0  0  0  0  0  0  0  0  0  0  0
    0.1575    0.5095    1.2742 H   0  0  0  0  0  0  0  0  0  0  0  0
    0.0555   -0.0579   -0.4021 H   0  0  0  0  0  0  0  0  0  0  0  0
    0.3929    1.6491   -0.0628 H   0  0  0  0  0  0  0  0  0  0  0  0
    2.4885    1.2437    2.2105 H   0  0  0  0  0  0  0  0  0  0  0  0
    2.6476    2.3612    0.8473 H   0  0  0  0  0  0  0  0  0  0  0  0
    3.9134    1.1572    1.1451 H   0  0  0  0  0  0  0  0  0  0  0  0
    0.8262   -2.6932    5.6170 H   0  0  0  0  0  0  0  0  0  0  0  0
   -0.7068   -2.9551    3.6734 H   0  0  0  0  0  0  0  0  0  0  0  0
    3.0947   -1.7296    5.2686 H   0  0  0  0  0  0  0  0  0  0  0  0
    0.0178   -2.2537    1.4178 H   0  0  0  0  0  0  0  0  0  0  0  0
    3.8127   -1.0300    3.0092 H   0  0  0  0  0  0  0  0  0  0  0  0
    1.9326   -1.7880   -0.0799 H   0  0  0  0  0  0  0  0  0  0  0  0
    3.4869   -1.2767    0.5616 H   0  0  0  0  0  0  0  0  0  0  0  0
    2.5273    1.4487   -1.4159 H   0  0  0  0  0  0  0  0  0  0  0  0
    2.1786   -0.1039   -1.7491 H   0  0  0  0  0  0  0  0  0  0  0  0
  1 12  1  0
  2 15  1  0
  3 18  1  0
  4 19  1  0
  4  3  2  0
  5  3  1  0
  5 20  1  0
  6  4  1  0
  7  5  2  0
  8  9  1  0
  9  6  2  0
  9  7  1  0
 10  1  1  0
 10  8  1  0
 10  2  1  0
 11 10  1  0
 13  1  1  0
 14  1  1  0
 16  2  1  0
 17  2  1  0
 21  6  1  0
 22  7  1  0
 23  8  1  0
 24  8  1  0
 25 11  1  0
 26 11  1  0
M  END
>  <HBA>  (750) 
1

>  <HBD>  (750) 
1

>  <TPSA>  (750) 
26.02

>  <cid>  (750) 
4771

>  <dipole>  (750) 
1.25

>  <excitation_energy_1>  (750) 
5.272

>  <excitation_energy_2>  (750) 
5.574

>  <excitation_energy_3>  (750) 
5.722

>  <excitation_energy_4>  (750) 
5.803

>  <homo_energy>  (750) 
-6.253

>  <homo_lumo_gap>  (750) 
6.329

>  <logP>  (750) 
2.667

>  <lumo_energy>  (750) 
0.076

>  <melting_point>  (750) 
70.43

>  <molecular_refractivity>  (750) 
48.57

>  <oscillator_strength_1>  (750) 
0.0002

>  <oscillator_strength_2>  (750) 
0.0253

>  <oscillator_strength_3>  (750) 
0.0303

>  <oscillator_strength_4>  (750) 
0.002

>  <open_babel_can_smiles>  (750) 
CC(Cc1ccccc1)(N)C

>  <mulliken_charges>  (750) 
26
1   -0.450438
2   -0.445164
3   -0.131689
4   -0.129234
5   -0.129285
6   -0.183276
7   -0.184005
8   -0.344762
9   0.174738
10   0.189955
11   -0.709975
12   0.154909
13   0.127434
14   0.131928
15   0.154084
16   0.130746
17   0.1522
18   0.127047
19   0.127204
20   0.127855
21   0.122402
22   0.127535
23   0.128059
24   0.15686
25   0.288174
26   0.286697

>  <lowdin_charges>  (750) 
26
1   -0.462021
2   -0.444297
3   -0.161063
4   -0.155944
5   -0.158083
6   -0.169394
7   -0.165128
8   -0.277136
9   -0.001836
10   0.068837
11   -0.549262
12   0.15586
13   0.142563
14   0.14382
15   0.155544
16   0.143662
17   0.152841
18   0.156064
19   0.155646
20   0.157502
21   0.154429
22   0.155347
23   0.14595
24   0.1576
25   0.249059
26   0.249442

$$$$
PCCDB-ID:  4782
     RDKit          3D

 25 25  0  0  1  0  0  0  0  0999 V2000
    2.9733   -0.2129    3.1967 C   0  0  0  0  0  0  0  0  0  0  0  0
    2.3591    3.7038   -2.3859 C   0  0  0  0  0  0  0  0  0  0  0  0
    3.0120    3.2635   -1.2356 C   0  0  0  0  0  0  0  0  0  0  0  0
    2.2454    2.8778   -3.5051 C   0  0  0  0  0  0  0  0  0  0  0  0
    3.4647    1.1508   -2.3227 C   0  0  0  0  0  0  0  0  0  0  0  0
    3.2546    0.6177    0.9013 C   0  0  0  0  0  0  0  0  0  0  0  0
    3.5685    1.9787   -1.2026 C   0  0  0  0  0  0  0  0  0  0  0  0
    2.8020    1.5956   -3.4698 C   0  0  0  0  0  0  0  0  0  0  0  0
    4.2364    1.4553    0.0539 C   0  0  1  0  0  0  0  0  0  0  0  0
    3.8924    0.2951    2.1800 N   0  0  0  0  0  0  0  0  0  0  0  0
    2.7351    0.7309   -4.5307 O   0  0  0  0  0  0  0  0  0  0  0  0
    4.7204    2.5252    0.8443 O   0  0  0  0  0  0  0  0  0  0  0  0
    3.5336   -0.4528    4.1062 H   0  0  0  0  0  0  0  0  0  0  0  0
    2.4122   -1.1115    2.8868 H   0  0  0  0  0  0  0  0  0  0  0  0
    2.2456    0.5670    3.4458 H   0  0  0  0  0  0  0  0  0  0  0  0
    1.9332    4.7034   -2.4174 H   0  0  0  0  0  0  0  0  0  0  0  0
    3.1158    3.9055   -0.3686 H   0  0  0  0  0  0  0  0  0  0  0  0
    1.7353    3.2273   -4.4014 H   0  0  0  0  0  0  0  0  0  0  0  0
    3.9019    0.1557   -2.3285 H   0  0  0  0  0  0  0  0  0  0  0  0
    2.9128   -0.2662    0.3364 H   0  0  0  0  0  0  0  0  0  0  0  0
    2.3723    1.2335    1.1135 H   0  0  0  0  0  0  0  0  0  0  0  0
    5.0733    0.7968   -0.2468 H   0  0  0  0  0  0  0  0  0  0  0  0
    4.6298   -0.3909    2.0211 H   0  0  0  0  0  0  0  0  0  0  0  0
    2.2659    1.1672   -5.2587 H   0  0  0  0  0  0  0  0  0  0  0  0
    4.7413    2.1536    1.7499 H   0  0  0  0  0  0  0  0  0  0  0  0
  1 15  1  0
  1 13  1  0
  2  3  2  0
  3  7  1  0
  3 17  1  0
  4  8  2  0
  4  2  1  0
  5  7  2  0
  6 21  1  0
  6 10  1  0
  7  9  1  0
  8  5  1  0
  9 22  1  6
  9 12  1  0
  9  6  1  0
 10  1  1  0
 11  8  1  0
 12 25  1  0
 14  1  1  0
 16  2  1  0
 18  4  1  0
 19  5  1  0
 20  6  1  0
 23 10  1  0
 24 11  1  0
M  END
>  <HBA>  (751) 
3

>  <HBD>  (751) 
3

>  <TPSA>  (751) 
52.49

>  <cid>  (751) 
4782

>  <dipole>  (751) 
2.3

>  <excitation_energy_1>  (751) 
4.986

>  <excitation_energy_2>  (751) 
5.161

>  <excitation_energy_3>  (751) 
5.514

>  <excitation_energy_4>  (751) 
5.656

>  <homo_energy>  (751) 
-5.807

>  <homo_lumo_gap>  (751) 
5.899

>  <logP>  (751) 
1.036

>  <lumo_energy>  (751) 
0.093

>  <melting_point>  (751) 
92.6

>  <molecular_refractivity>  (751) 
47.01

>  <oscillator_strength_1>  (751) 
0.0455

>  <oscillator_strength_2>  (751) 
0.0

>  <oscillator_strength_3>  (751) 
0.0011

>  <oscillator_strength_4>  (751) 
0.0206

>  <open_babel_can_smiles>  (751) 
CNC[C@@H](c1cccc(c1)O)O

>  <mulliken_charges>  (751) 
25
1   -0.299861
2   -0.137007
3   -0.174132
4   -0.194189
5   -0.217146
6   -0.149933
7   0.132205
8   0.350621
9   0.085194
10   -0.571822
11   -0.646872
12   -0.650177
13   0.154331
14   0.131692
15   0.1609
16   0.128659
17   0.146676
18   0.113779
19   0.126722
20   0.128822
21   0.154169
22   0.111732
23   0.304195
24   0.40574
25   0.405701

>  <lowdin_charges>  (751) 
25
1   -0.360076
2   -0.142759
3   -0.181916
4   -0.219681
5   -0.198966
6   -0.225138
7   0.000513
8   0.102312
9   -0.003928
10   -0.3629
11   -0.384113
12   -0.466289
13   0.153882
14   0.129214
15   0.154667
16   0.156578
17   0.169943
18   0.15149
19   0.160521
20   0.132788
21   0.152273
22   0.125945
23   0.2576
24   0.357816
25   0.340223

$$$$
PCCDB-ID:  4786
     RDKit          3D

 24 24  0  0  1  0  0  0  0  0999 V2000
    2.3760   -0.1036    2.0699 C   0  0  0  0  0  0  0  0  0  0  0  0
    7.3984   -1.6205    1.7066 C   0  0  0  0  0  0  0  0  0  0  0  0
    6.2842   -2.4610    1.7061 C   0  0  0  0  0  0  0  0  0  0  0  0
    7.3133   -0.3627    1.1051 C   0  0  0  0  0  0  0  0  0  0  0  0
    5.0907   -2.0463    1.1124 C   0  0  0  0  0  0  0  0  0  0  0  0
    6.1221    0.0465    0.5062 C   0  0  0  0  0  0  0  0  0  0  0  0
    2.8358    0.6021    0.7908 C   0  0  1  0  0  0  0  0  0  0  0  0
    4.9952   -0.7868    0.5066 C   0  0  0  0  0  0  0  0  0  0  0  0
    3.6985   -0.3115   -0.1293 C   0  0  1  0  0  0  0  0  0  0  0  0
    1.6608    1.1463    0.1002 N   0  0  0  0  0  0  0  0  0  0  0  0
    2.8529   -1.3906   -0.5265 O   0  0  0  0  0  0  0  0  0  0  0  0
    3.2271   -0.4425    2.6680 H   0  0  0  0  0  0  0  0  0  0  0  0
    1.7598   -0.9761    1.8287 H   0  0  0  0  0  0  0  0  0  0  0  0
    1.7753    0.5874    2.6677 H   0  0  0  0  0  0  0  0  0  0  0  0
    8.3279   -1.9436    2.1678 H   0  0  0  0  0  0  0  0  0  0  0  0
    6.3430   -3.4425    2.1695 H   0  0  0  0  0  0  0  0  0  0  0  0
    8.1780    0.2957    1.0950 H   0  0  0  0  0  0  0  0  0  0  0  0
    4.2214   -2.6967    1.1122 H   0  0  0  0  0  0  0  0  0  0  0  0
    6.0662    1.0222    0.0270 H   0  0  0  0  0  0  0  0  0  0  0  0
    3.4738    1.4518    1.0677 H   0  0  0  0  0  0  0  0  0  0  0  0
    3.9576    0.2998   -1.0117 H   0  0  0  0  0  0  0  0  0  0  0  0
    1.1193    0.3607   -0.2616 H   0  0  0  0  0  0  0  0  0  0  0  0
    1.9570    1.6758   -0.7206 H   0  0  0  0  0  0  0  0  0  0  0  0
    3.3574   -1.9546   -1.1332 H   0  0  0  0  0  0  0  0  0  0  0  0
  1 14  1  0
  1 12  1  0
  2 15  1  0
  3  2  2  0
  3 16  1  0
  4  2  1  0
  5  3  1  0
  6  8  1  0
  6  4  2  0
  7 20  1  1
  7  1  1  0
  8  5  2  0
  9 21  1  6
  9  8  1  0
  9  7  1  0
 10  7  1  0
 11  9  1  0
 13  1  1  0
 17  4  1  0
 18  5  1  0
 19  6  1  0
 22 10  1  0
 23 10  1  0
 24 11  1  0
M  END
>  <HBA>  (752) 
2

>  <HBD>  (752) 
2

>  <TPSA>  (752) 
46.25

>  <cid>  (752) 
4786

>  <dipole>  (752) 
2.54

>  <excitation_energy_1>  (752) 
5.12

>  <excitation_energy_2>  (752) 
5.294

>  <excitation_energy_3>  (752) 
5.38

>  <excitation_energy_4>  (752) 
5.638

>  <homo_energy>  (752) 
-6.052

>  <homo_lumo_gap>  (752) 
5.927

>  <logP>  (752) 
1.768

>  <lumo_energy>  (752) 
-0.125

>  <melting_point>  (752) 
78.69

>  <molecular_refractivity>  (752) 
44.89

>  <oscillator_strength_1>  (752) 
0.0112

>  <oscillator_strength_2>  (752) 
0.1211

>  <oscillator_strength_3>  (752) 
0.016

>  <oscillator_strength_4>  (752) 
0.0069

>  <open_babel_can_smiles>  (752) 
O[C@H](c1ccccc1)[C@@H](N)C

>  <mulliken_charges>  (752) 
24
1   -0.447783
2   -0.128844
3   -0.129782
4   -0.130736
5   -0.183972
6   -0.18137
7   0.020133
8   0.116205
9   0.067217
10   -0.705436
11   -0.635356
12   0.149545
13   0.153917
14   0.157167
15   0.129804
16   0.130598
17   0.130393
18   0.139993
19   0.12316
20   0.131084
21   0.106152
22   0.306395
23   0.286387
24   0.395126

>  <lowdin_charges>  (752) 
24
1   -0.454315
2   -0.159654
3   -0.153134
4   -0.154966
5   -0.171071
6   -0.166682
7   -0.07101
8   -0.027981
9   -0.021528
10   -0.545962
11   -0.461969
12   0.155751
13   0.154603
14   0.160779
15   0.158022
16   0.157122
17   0.158476
18   0.163667
19   0.153299
20   0.14266
21   0.126572
22   0.259331
23   0.249071
24   0.348919

$$$$
PCCDB-ID:  4797
     RDKit          3D

 16 15  0  0  1  0  0  0  0  0999 V2000
    1.0587    1.0528   -1.2166 C   0  0  0  0  0  0  0  0  0  0  0  0
    0.7521    0.8155   -2.6841 C   0  0  0  0  0  3  0  0  0  0  0  0
    0.2365   -0.2684   -3.1276 N   0  0  0  0  0  2  0  0  0  0  0  0
    1.0067    1.7924   -3.5780 O   0  0  0  0  0  0  0  0  0  0  0  0
    0.0066   -1.1547   -2.0342 O   0  0  0  0  0  0  0  0  0  0  0  0
    2.5436    4.3451    0.1118 O   0  0  0  0  0  0  0  0  0  0  0  0
    1.2198    4.3960   -1.9943 O   0  0  0  0  0  0  0  0  0  0  0  0
    0.0291    3.5673    0.2060 O   0  0  0  0  0  0  0  0  0  0  0  0
    1.9031    2.2148   -1.0479 O   0  0  0  0  0  0  0  0  0  0  0  0
    1.2814    3.6237   -0.5750 P   0  0  0  0  0  0  0  0  0  0  0  0
    1.6088    0.2007   -0.8145 H   0  0  0  0  0  0  0  0  0  0  0  0
    0.1347    1.1683   -0.6420 H   0  0  0  0  0  0  0  0  0  0  0  0
    1.4628    2.5258   -3.1300 H   0  0  0  0  0  0  0  0  0  0  0  0
   -0.3408   -1.9354   -2.4900 H   0  0  0  0  0  0  0  0  0  0  0  0
    2.6065    4.1198    1.0553 H   0  0  0  0  0  0  0  0  0  0  0  0
    0.5421    5.0929   -1.9952 H   0  0  0  0  0  0  0  0  0  0  0  0
  1  9  1  0
  1 11  1  0
  1 12  1  0
  2  4  1  0
  2  1  1  0
  3  2  1  0
  3  5  1  0
  4 13  1  0
  6 15  1  0
  7 10  1  0
  9 10  1  0
 10  6  1  0
 10  8  2  0
 14  5  1  0
 16  7  1  0
M  RAD  2   2   2   3   2
M  END
>  <HBA>  (753) 
7

>  <HBD>  (753) 
4

>  <TPSA>  (753) 
125.9

>  <cid>  (753) 
4797

>  <dipole>  (753) 
2.65

>  <excitation_energy_1>  (753) 
5.031

>  <excitation_energy_2>  (753) 
5.779

>  <excitation_energy_3>  (753) 
6.0

>  <excitation_energy_4>  (753) 
6.259

>  <homo_energy>  (753) 
-6.204

>  <homo_lumo_gap>  (753) 
6.376

>  <logP>  (753) 
-1.008

>  <lumo_energy>  (753) 
0.171

>  <melting_point>  (753) 
158.3

>  <molecular_refractivity>  (753) 
27.53

>  <oscillator_strength_1>  (753) 
0.003

>  <oscillator_strength_2>  (753) 
0.0017

>  <oscillator_strength_3>  (753) 
0.0002

>  <oscillator_strength_4>  (753) 
0.005

>  <open_babel_can_smiles>  (753) 
O[N][C](COP(=O)(O)O)O

>  <mulliken_charges>  (753) 
16
1   -0.119376
2   0.498729
3   -0.239776
4   -0.598453
5   -0.536641
6   -0.605973
7   -0.649762
8   -0.538892
9   -0.54122
10   1.127555
11   0.208152
12   0.218862
13   0.451475
14   0.423083
15   0.448812
16   0.453424

>  <lowdin_charges>  (753) 
16
1   -0.14897
2   0.086231
3   -0.103524
4   -0.351389
5   -0.400202
6   -0.542055
7   -0.562541
8   -0.577525
9   -0.394615
10   1.104265
11   0.185859
12   0.190079
13   0.369307
14   0.36013
15   0.389792
16   0.395156

$$$$
PCCDB-ID:  4807
     RDKit          3D

 16 16  0  0  0  0  0  0  0  0999 V2000
   -1.3176   -0.0203    0.0426 C   0  0  0  0  0  0  0  0  0  0  0  0
   -0.5843   -1.2051   -0.0438 C   0  0  0  0  0  0  0  0  0  0  0  0
   -0.6505    1.2028    0.0236 C   0  0  0  0  0  0  0  0  0  0  0  0
    0.8048   -1.1573   -0.1479 C   0  0  0  0  0  0  0  0  0  0  0  0
    1.3257    2.6387   -0.0878 C   0  0  0  0  0  0  0  0  0  0  0  0
    2.9828    0.0045   -0.2830 C   0  0  0  0  0  0  0  0  0  0  0  0
    0.7469    1.2693   -0.0799 C   0  0  0  0  0  0  0  0  0  0  0  0
    1.4893    0.0632   -0.1675 C   0  0  0  0  0  0  0  0  0  0  0  0
    2.5011    2.9419   -0.1588 O   0  0  0  0  0  0  0  0  0  0  0  0
    3.5817   -1.0544   -0.3524 O   0  0  0  0  0  0  0  0  0  0  0  0
   -2.4003   -0.0489    0.1244 H   0  0  0  0  0  0  0  0  0  0  0  0
   -1.0945   -2.1642   -0.0303 H   0  0  0  0  0  0  0  0  0  0  0  0
   -1.2175    2.1286    0.0907 H   0  0  0  0  0  0  0  0  0  0  0  0
    1.3952   -2.0653   -0.2166 H   0  0  0  0  0  0  0  0  0  0  0  0
    0.5521    3.4351   -0.0182 H   0  0  0  0  0  0  0  0  0  0  0  0
    3.5119    0.9678   -0.3025 H   0  0  0  0  0  0  0  0  0  0  0  0
  1 11  1  0
  2 12  1  0
  2  1  2  0
  3  1  1  0
  3 13  1  0
  4  2  1  0
  5  7  1  0
  5 15  1  0
  6  8  1  0
  7  3  2  0
  8  4  2  0
  8  7  1  0
  9  5  2  0
 10  6  2  0
 14  4  1  0
 16  6  1  0
M  END
>  <HBA>  (754) 
2

>  <HBD>  (754) 
0

>  <TPSA>  (754) 
34.14

>  <cid>  (754) 
4807

>  <dipole>  (754) 
4.91

>  <excitation_energy_1>  (754) 
2.939

>  <excitation_energy_2>  (754) 
3.623

>  <excitation_energy_3>  (754) 
4.341

>  <excitation_energy_4>  (754) 
4.367

>  <homo_energy>  (754) 
-6.759

>  <homo_lumo_gap>  (754) 
4.234

>  <logP>  (754) 
1.312

>  <lumo_energy>  (754) 
-2.525

>  <melting_point>  (754) 
71.86

>  <molecular_refractivity>  (754) 
37.22

>  <oscillator_strength_1>  (754) 
0.0

>  <oscillator_strength_2>  (754) 
0.0

>  <oscillator_strength_3>  (754) 
0.0599

>  <oscillator_strength_4>  (754) 
0.0001

>  <open_babel_can_smiles>  (754) 
O=Cc1ccccc1C=O

>  <mulliken_charges>  (754) 
16
1   -0.119039
2   -0.116819
3   -0.193597
4   -0.161
5   0.199982
6   0.187071
7   0.063949
8   0.031933
9   -0.402764
10   -0.402008
11   0.150381
12   0.151986
13   0.150642
14   0.177076
15   0.114645
16   0.167564

>  <lowdin_charges>  (754) 
16
1   -0.13634
2   -0.132732
3   -0.141198
4   -0.122627
5   0.044869
6   0.041479
7   -0.04502
8   -0.031966
9   -0.218968
10   -0.22322
11   0.165685
12   0.168454
13   0.16618
14   0.183019
15   0.12598
16   0.156405

$$$$
PCCDB-ID:  4819
     RDKit          3D

 31 32  0  0  1  0  0  0  0  0999 V2000
    4.6164   -2.6353    1.0413 C   0  0  0  0  0  0  0  0  0  0  0  0
   -1.4442   -1.3354   -1.9704 C   0  0  0  0  0  0  0  0  0  0  0  0
    3.6221   -2.3188   -0.0821 C   0  0  0  0  0  0  0  0  0  0  0  0
    1.5793   -0.8661   -1.7947 C   0  0  0  0  0  0  0  0  0  0  0  0
    0.9408    0.4925   -3.9699 C   0  0  0  0  0  0  0  0  0  0  0  0
    3.5633   -1.5953   -3.2814 C   0  0  0  0  0  0  0  0  0  0  0  0
   -1.1585    0.1286   -3.9977 C   0  0  0  0  0  0  0  0  0  0  0  0
    3.0754   -0.7315   -2.1037 C   0  0  2  0  0  0  0  0  0  0  0  0
    0.6999   -0.3158   -2.8803 C   0  0  0  0  0  0  0  0  0  0  0  0
    4.0609   -1.1367   -0.9806 C   0  0  2  0  0  0  0  0  0  0  0  0
    5.3146   -1.5108   -1.7776 C   0  0  0  0  0  0  0  0  0  0  0  0
   -0.2186    0.7622   -4.6604 N   0  0  0  0  0  0  0  0  0  0  0  0
   -0.6704   -0.5433   -2.9087 N   0  0  0  0  0  0  0  0  0  0  0  0
    6.4485   -1.6080   -1.3827 O   0  0  0  0  0  0  0  0  0  0  0  0
    4.9784   -1.7659   -3.0749 O   0  0  0  0  0  0  0  0  0  0  0  0
    4.2535   -3.4716    1.6488 H   0  0  0  0  0  0  0  0  0  0  0  0
    4.7456   -1.7708    1.7035 H   0  0  0  0  0  0  0  0  0  0  0  0
    5.6007   -2.8958    0.6440 H   0  0  0  0  0  0  0  0  0  0  0  0
   -2.4963   -1.2932   -2.2604 H   0  0  0  0  0  0  0  0  0  0  0  0
   -1.3477   -0.9446   -0.9518 H   0  0  0  0  0  0  0  0  0  0  0  0
   -1.1233   -2.3828   -1.9774 H   0  0  0  0  0  0  0  0  0  0  0  0
    2.6492   -2.0701    0.3598 H   0  0  0  0  0  0  0  0  0  0  0  0
    3.4617   -3.2153   -0.6971 H   0  0  0  0  0  0  0  0  0  0  0  0
    1.3676   -0.3527   -0.8435 H   0  0  0  0  0  0  0  0  0  0  0  0
    1.3395   -1.9243   -1.6203 H   0  0  0  0  0  0  0  0  0  0  0  0
    1.8879    0.9010   -4.2970 H   0  0  0  0  0  0  0  0  0  0  0  0
    3.4239   -1.1343   -4.2601 H   0  0  0  0  0  0  0  0  0  0  0  0
    3.0863   -2.5842   -3.2902 H   0  0  0  0  0  0  0  0  0  0  0  0
   -2.2115    0.1107   -4.2495 H   0  0  0  0  0  0  0  0  0  0  0  0
    3.2814    0.3177   -2.3513 H   0  0  0  0  0  0  0  0  0  0  0  0
    4.3080   -0.2879   -0.3339 H   0  0  0  0  0  0  0  0  0  0  0  0
  1 16  1  0
  1 17  1  0
  2 20  1  0
  3 22  1  0
  3  1  1  0
  4 25  1  0
  4 24  1  0
  5  9  2  0
  6 15  1  0
  6  8  1  0
  7 13  1  0
  8 30  1  6
  8  4  1  0
  8 10  1  0
  9  4  1  0
 10 31  1  1
 10  3  1  0
 11 14  2  0
 11 10  1  0
 12  7  2  0
 12  5  1  0
 13  9  1  0
 13  2  1  0
 15 11  1  0
 18  1  1  0
 19  2  1  0
 21  2  1  0
 23  3  1  0
 26  5  1  0
 27  6  1  0
 28  6  1  0
 29  7  1  0
M  END
>  <HBA>  (755) 
4

>  <HBD>  (755) 
0

>  <TPSA>  (755) 
44.12

>  <cid>  (755) 
4819

>  <dipole>  (755) 
6.42

>  <excitation_energy_1>  (755) 
5.131

>  <excitation_energy_2>  (755) 
5.496

>  <excitation_energy_3>  (755) 
5.605

>  <excitation_energy_4>  (755) 
5.759

>  <homo_energy>  (755) 
-6.136

>  <homo_lumo_gap>  (755) 
6.351

>  <logP>  (755) 
1.162

>  <lumo_energy>  (755) 
0.215

>  <melting_point>  (755) 
56.86

>  <molecular_refractivity>  (755) 
56.47

>  <oscillator_strength_1>  (755) 
0.001

>  <oscillator_strength_2>  (755) 
0.0014

>  <oscillator_strength_3>  (755) 
0.0022

>  <oscillator_strength_4>  (755) 
0.02

>  <open_babel_can_smiles>  (755) 
CC[C@H]1C(=O)OC[C@H]1Cc1cncn1C

>  <mulliken_charges>  (755) 
31
1   -0.451848
2   -0.326293
3   -0.269841
4   -0.363641
5   -0.091945
6   -0.03443
7   0.192023
8   -0.140975
9   0.318052
10   -0.208892
11   0.62286
12   -0.435059
13   -0.427306
14   -0.462939
15   -0.450529
16   0.142717
17   0.145713
18   0.185235
19   0.179097
20   0.176242
21   0.175853
22   0.143422
23   0.142379
24   0.160643
25   0.15057
26   0.131659
27   0.173988
28   0.149223
29   0.15106
30   0.159042
31   0.163919

>  <lowdin_charges>  (755) 
31
1   -0.448955
2   -0.343964
3   -0.269635
4   -0.272199
5   -0.175877
6   -0.130645
7   -0.099148
8   -0.136947
9   -0.025695
10   -0.164702
11   0.19115
12   -0.185389
13   -0.018068
14   -0.238159
15   -0.188355
16   0.151899
17   0.150438
18   0.168119
19   0.170394
20   0.16156
21   0.159998
22   0.145253
23   0.144043
24   0.156444
25   0.150332
26   0.158579
27   0.162886
28   0.143704
29   0.16246
30   0.154577
31   0.165903

$$$$
PCCDB-ID:  4837
     RDKit          3D

 16 16  0  0  0  0  0  0  0  0999 V2000
    0.6915    1.2301   -0.2614 C   0  0  0  0  0  0  0  0  0  0  0  0
    1.4097   -0.0161    0.2570 C   0  0  0  0  0  0  0  0  0  0  0  0
   -1.4053    0.0229   -0.2602 C   0  0  0  0  0  0  0  0  0  0  0  0
   -0.6872   -1.2233    0.2583 C   0  0  0  0  0  0  0  0  0  0  0  0
   -0.6937    1.2119    0.2170 N   0  0  0  0  0  0  0  0  0  0  0  0
    0.6981   -1.2051   -0.2201 N   0  0  0  0  0  0  0  0  0  0  0  0
    0.7650    1.2398   -1.3652 H   0  0  0  0  0  0  0  0  0  0  0  0
    1.1853    2.1309    0.1215 H   0  0  0  0  0  0  0  0  0  0  0  0
    1.4567    0.0431    1.3607 H   0  0  0  0  0  0  0  0  0  0  0  0
    2.4361   -0.0413   -0.1273 H   0  0  0  0  0  0  0  0  0  0  0  0
   -2.4317    0.0481    0.1241 H   0  0  0  0  0  0  0  0  0  0  0  0
   -1.4522   -0.0363   -1.3639 H   0  0  0  0  0  0  0  0  0  0  0  0
   -1.1809   -2.1241   -0.1245 H   0  0  0  0  0  0  0  0  0  0  0  0
   -0.7606   -1.2330    1.3621 H   0  0  0  0  0  0  0  0  0  0  0  0
   -1.1772    2.0515   -0.0948 H   0  0  0  0  0  0  0  0  0  0  0  0
    1.1815   -2.0447    0.0918 H   0  0  0  0  0  0  0  0  0  0  0  0
  1  8  1  0
  1  5  1  0
  1  2  1  0
  2  9  1  0
  3 11  1  0
  3  5  1  0
  3  4  1  0
  4 14  1  0
  6 16  1  0
  6  2  1  0
  6  4  1  0
  7  1  1  0
 10  2  1  0
 12  3  1  0
 13  4  1  0
 15  5  1  0
M  END
>  <HBA>  (756) 
2

>  <HBD>  (756) 
2

>  <TPSA>  (756) 
24.06

>  <cid>  (756) 
4837

>  <dipole>  (756) 
0.0

>  <excitation_energy_1>  (756) 
5.311

>  <excitation_energy_2>  (756) 
5.369

>  <excitation_energy_3>  (756) 
5.746

>  <excitation_energy_4>  (756) 
5.798

>  <homo_energy>  (756) 
-5.823

>  <homo_lumo_gap>  (756) 
8.017

>  <logP>  (756) 
-0.163

>  <lumo_energy>  (756) 
2.193

>  <melting_point>  (756) 
51.7

>  <molecular_refractivity>  (756) 
32.66

>  <oscillator_strength_1>  (756) 
0.0

>  <oscillator_strength_2>  (756) 
0.0037

>  <oscillator_strength_3>  (756) 
0.0259

>  <oscillator_strength_4>  (756) 
0.0

>  <open_babel_can_smiles>  (756) 
N1CCNCC1

>  <mulliken_charges>  (756) 
16
1   -0.123209
2   -0.123373
3   -0.123326
4   -0.123306
5   -0.554477
6   -0.554468
7   0.120295
8   0.13268
9   0.120297
10   0.132725
11   0.132728
12   0.120305
13   0.132689
14   0.120302
15   0.29507
16   0.295069

>  <lowdin_charges>  (756) 
16
1   -0.205513
2   -0.204284
3   -0.20428
4   -0.205525
5   -0.372281
6   -0.372287
7   0.119426
8   0.14512
9   0.119413
10   0.143516
11   0.143516
12   0.119417
13   0.145122
14   0.119426
15   0.254607
16   0.254607

$$$$
PCCDB-ID:  4838
     RDKit          3D

 21 21  0  0  0  0  0  0  0  0999 V2000
    0.6938    1.2617   -0.2374 C   0  0  0  0  0  0  0  0  0  0  0  0
   -1.4669   -0.0761   -0.1876 C   0  0  0  0  0  0  0  0  0  0  0  0
    1.4231   -0.0089    0.2189 C   0  0  0  0  0  0  0  0  0  0  0  0
   -0.6375   -1.2863    0.2645 C   0  0  0  0  0  0  0  0  0  0  0  0
   -0.7623    1.2133    0.2559 C   0  0  0  0  0  0  0  0  0  0  0  0
    0.7152   -1.1864   -0.2797 N   0  0  0  0  0  0  0  0  0  0  0  0
   -3.0943    2.4742    0.4328 O   0  0  0  0  0  0  0  0  0  0  0  0
   -1.0393    3.8933    0.2813 O   0  0  0  0  0  1  0  0  0  0  0  0
   -1.8535    2.6163   -1.7631 O   0  0  0  0  0  1  0  0  0  0  0  0
   -1.6384    2.6991   -0.3232 S   0  0  0  0  0  0  0  0  0  0  0  0
    0.7045    1.3088   -1.3316 H   0  0  0  0  0  0  0  0  0  0  0  0
    1.1967    2.1531    0.1510 H   0  0  0  0  0  0  0  0  0  0  0  0
   -2.4745   -0.1278    0.2368 H   0  0  0  0  0  0  0  0  0  0  0  0
   -1.5527   -0.0834   -1.2789 H   0  0  0  0  0  0  0  0  0  0  0  0
    1.5110    0.0050    1.3243 H   0  0  0  0  0  0  0  0  0  0  0  0
    2.4401   -0.0115   -0.1882 H   0  0  0  0  0  0  0  0  0  0  0  0
   -1.1002   -2.2053   -0.1110 H   0  0  0  0  0  0  0  0  0  0  0  0
   -0.6527   -1.3391    1.3723 H   0  0  0  0  0  0  0  0  0  0  0  0
   -0.7878    1.3054    1.3484 H   0  0  0  0  0  0  0  0  0  0  0  0
    1.2422   -2.0284   -0.0605 H   0  0  0  0  0  0  0  0  0  0  0  0
   -3.2530    3.2889    0.9457 H   0  0  0  0  0  0  0  0  0  0  0  0
  1 12  1  0
  1  3  1  0
  1  5  1  0
  2 13  1  0
  2  5  1  0
  2  4  1  0
  3 15  1  0
  4 18  1  0
  5 19  1  0
  6 20  1  0
  6  3  1  0
  6  4  1  0
  7 21  1  0
  9 10  1  0
 10  5  1  0
 10  8  1  0
 10  7  1  0
 11  1  1  0
 14  2  1  0
 16  3  1  0
 17  4  1  0
M  RAD  2   8   2   9   2
M  END
>  <HBA>  (757) 
4

>  <HBD>  (757) 
2

>  <TPSA>  (757) 
74.78

>  <cid>  (757) 
4838

>  <dipole>  (757) 
4.6

>  <excitation_energy_1>  (757) 
5.396

>  <excitation_energy_2>  (757) 
5.877

>  <excitation_energy_3>  (757) 
6.259

>  <excitation_energy_4>  (757) 
6.353

>  <homo_energy>  (757) 
-6.395

>  <homo_lumo_gap>  (757) 
7.246

>  <logP>  (757) 
1.036

>  <lumo_energy>  (757) 
0.852

>  <melting_point>  (757) 
104.84

>  <molecular_refractivity>  (757) 
41.29

>  <oscillator_strength_1>  (757) 
0.0042

>  <oscillator_strength_2>  (757) 
0.0022

>  <oscillator_strength_3>  (757) 
0.0864

>  <oscillator_strength_4>  (757) 
0.0098

>  <open_babel_can_smiles>  (757) 
OS(C1CCNCC1)([O])[O]

>  <mulliken_charges>  (757) 
21
1   -0.277496
2   -0.270178
3   -0.139094
4   -0.140688
5   -0.322292
6   -0.541949
7   -0.658729
8   -0.536104
9   -0.499261
10   1.22563
11   0.181143
12   0.169663
13   0.165977
14   0.184343
15   0.115678
16   0.152331
17   0.151651
18   0.114216
19   0.183863
20   0.303043
21   0.438252

>  <lowdin_charges>  (757) 
21
1   -0.283729
2   -0.282044
3   -0.197205
4   -0.198808
5   -0.267433
6   -0.365467
7   -0.591816
8   -0.591283
9   -0.559914
10   1.329984
11   0.165313
12   0.165585
13   0.162209
14   0.167197
15   0.11482
16   0.153069
17   0.154075
18   0.113937
19   0.171261
20   0.260124
21   0.380126

$$$$
PCCDB-ID:  4843
     RDKit          3D

 20 20  0  0  0  0  0  0  0  0999 V2000
   -0.8614   -1.1718   -0.2762 C   0  0  0  0  0  0  0  0  0  0  0  0
    0.6286   -1.3060    0.0896 C   0  0  0  0  0  0  0  0  0  0  0  0
   -1.1768    0.3210   -0.0299 C   0  0  0  0  0  0  0  0  0  0  0  0
    0.3221    2.4038   -0.2911 C   0  0  0  0  0  0  0  0  0  0  0  0
    0.6198    3.0631    1.0595 C   0  0  0  0  0  0  0  0  0  0  0  0
    1.1775    0.1074   -0.0486 C   0  0  0  0  0  0  0  0  0  0  0  0
   -0.0878    3.9435    1.6449 N   0  0  0  0  0  0  0  0  0  0  0  0
    0.1270    0.9603   -0.2042 N   0  0  0  0  0  0  0  0  0  0  0  0
    1.7595    2.6414    1.6446 O   0  0  0  0  0  0  0  0  0  0  0  0
    2.3575    0.4594    0.0120 O   0  0  0  0  0  0  0  0  0  0  0  0
   -1.5110   -1.8283    0.3077 H   0  0  0  0  0  0  0  0  0  0  0  0
   -1.0112   -1.4066   -1.3350 H   0  0  0  0  0  0  0  0  0  0  0  0
    1.1891   -2.0017   -0.5402 H   0  0  0  0  0  0  0  0  0  0  0  0
    0.7770   -1.6200    1.1306 H   0  0  0  0  0  0  0  0  0  0  0  0
   -1.5660    0.5017    0.9822 H   0  0  0  0  0  0  0  0  0  0  0  0
   -1.9007    0.7248   -0.7461 H   0  0  0  0  0  0  0  0  0  0  0  0
    1.1695    2.5790   -0.9652 H   0  0  0  0  0  0  0  0  0  0  0  0
   -0.5701    2.8471   -0.7404 H   0  0  0  0  0  0  0  0  0  0  0  0
   -0.9147    4.1572    1.0855 H   0  0  0  0  0  0  0  0  0  0  0  0
    2.2015    1.9683    1.0790 H   0  0  0  0  0  0  0  0  0  0  0  0
  1  3  1  0
  1  2  1  0
  1 11  1  0
  2 14  1  0
  3 15  1  0
  4  8  1  0
  4  5  1  0
  5  9  1  0
  5  7  2  0
  6 10  2  0
  6  2  1  0
  8  6  1  0
  8  3  1  0
 12  1  1  0
 13  2  1  0
 16  3  1  0
 17  4  1  0
 18  4  1  0
 19  7  1  0
 20  9  1  0
M  END
>  <HBA>  (758) 
4

>  <HBD>  (758) 
1

>  <TPSA>  (758) 
63.4

>  <cid>  (758) 
4843

>  <dipole>  (758) 
6.48

>  <excitation_energy_1>  (758) 
5.639

>  <excitation_energy_2>  (758) 
5.744

>  <excitation_energy_3>  (758) 
6.05

>  <excitation_energy_4>  (758) 
6.168

>  <homo_energy>  (758) 
-6.716

>  <homo_lumo_gap>  (758) 
6.691

>  <logP>  (758) 
-0.268

>  <lumo_energy>  (758) 
-0.024

>  <melting_point>  (758) 
95.68

>  <molecular_refractivity>  (758) 
38.76

>  <oscillator_strength_1>  (758) 
0.0093

>  <oscillator_strength_2>  (758) 
0.0126

>  <oscillator_strength_3>  (758) 
0.0207

>  <oscillator_strength_4>  (758) 
0.0272

>  <open_babel_can_smiles>  (758) 
OC(=N)CN1CCCC1=O

>  <mulliken_charges>  (758) 
20
1   -0.300099
2   -0.371366
3   -0.126176
4   -0.259604
5   0.493864
6   0.601088
7   -0.583595
8   -0.399774
9   -0.597655
10   -0.549593
11   0.161857
12   0.164816
13   0.184519
14   0.185785
15   0.168993
16   0.158104
17   0.195075
18   0.15828
19   0.274932
20   0.44055

>  <lowdin_charges>  (758) 
20
1   -0.280192
2   -0.300669
3   -0.192813
4   -0.231331
5   0.115096
6   0.15765
7   -0.401713
8   -0.094179
9   -0.371356
10   -0.325346
11   0.161551
12   0.155823
13   0.176913
14   0.17389
15   0.149642
16   0.153343
17   0.177901
18   0.162313
19   0.251777
20   0.361697

$$$$
PCCDB-ID:  4845
     RDKit          3D

 37 37  0  0  1  0  0  0  0  0999 V2000
    5.3756    1.3405   -0.5833 C   0  0  0  0  0  0  0  0  0  0  0  0
    3.7760    0.1493   -2.1356 C   0  0  0  0  0  0  0  0  0  0  0  0
    6.2549   -0.2647   -2.2956 C   0  0  0  0  0  0  0  0  0  0  0  0
    5.4143   -4.4252    1.4500 C   0  0  0  0  0  0  0  0  0  0  0  0
    5.2841   -5.7625    1.0692 C   0  0  0  0  0  0  0  0  0  0  0  0
    3.9570   -1.1600    0.5973 C   0  0  0  0  0  0  0  0  0  0  0  0
    1.6279   -5.7081   -0.0234 C   0  0  0  0  0  0  0  0  0  0  0  0
    4.3156   -3.5779    1.3272 C   0  0  0  0  0  0  0  0  0  0  0  0
    2.9971   -5.2971    0.4879 C   0  0  0  0  0  0  0  0  0  0  0  0
    4.0610   -6.2119    0.5818 C   0  0  0  0  0  0  0  0  0  0  0  0
    4.3757   -2.1081    1.7438 C   0  0  1  0  0  0  0  0  0  0  0  0
    5.0900    0.0295   -1.3354 C   0  0  0  0  0  0  0  0  0  0  0  0
    5.0624   -1.0972   -0.3668 N   0  0  0  0  0  0  0  0  0  0  0  0
    3.1372   -4.0249    0.8540 N   0  0  0  0  0  0  0  0  0  0  0  0
    0.7381   -4.6197   -0.0742 O   0  0  0  0  0  0  0  0  0  0  0  0
    3.8163   -7.4960    0.1813 O   0  0  0  0  0  0  0  0  0  0  0  0
    5.6641   -1.7425    2.2004 O   0  0  0  0  0  0  0  0  0  0  0  0
    5.5158    2.1617   -1.2946 H   0  0  0  0  0  0  0  0  0  0  0  0
    6.2844    1.2463    0.0206 H   0  0  0  0  0  0  0  0  0  0  0  0
    4.5521    1.6233    0.0811 H   0  0  0  0  0  0  0  0  0  0  0  0
    3.8379    0.9597   -2.8711 H   0  0  0  0  0  0  0  0  0  0  0  0
    2.9245    0.3612   -1.4797 H   0  0  0  0  0  0  0  0  0  0  0  0
    3.5611   -0.7799   -2.6779 H   0  0  0  0  0  0  0  0  0  0  0  0
    6.3660    0.5395   -3.0305 H   0  0  0  0  0  0  0  0  0  0  0  0
    6.0840   -1.1980   -2.8479 H   0  0  0  0  0  0  0  0  0  0  0  0
    7.1949   -0.3634   -1.7423 H   0  0  0  0  0  0  0  0  0  0  0  0
    6.3432   -4.0371    1.8499 H   0  0  0  0  0  0  0  0  0  0  0  0
    6.1263   -6.4476    1.1552 H   0  0  0  0  0  0  0  0  0  0  0  0
    3.8127   -0.1641    1.0249 H   0  0  0  0  0  0  0  0  0  0  0  0
    3.0018   -1.4920    0.1689 H   0  0  0  0  0  0  0  0  0  0  0  0
    1.2330   -6.5072    0.6262 H   0  0  0  0  0  0  0  0  0  0  0  0
    1.7352   -6.1560   -1.0235 H   0  0  0  0  0  0  0  0  0  0  0  0
    3.6758   -1.9702    2.5785 H   0  0  0  0  0  0  0  0  0  0  0  0
    5.0779   -1.9703   -0.8944 H   0  0  0  0  0  0  0  0  0  0  0  0
    1.2260   -3.8749    0.3299 H   0  0  0  0  0  0  0  0  0  0  0  0
    4.6187   -8.0279    0.3019 H   0  0  0  0  0  0  0  0  0  0  0  0
    6.1013   -1.4125    1.3852 H   0  0  0  0  0  0  0  0  0  0  0  0
  1 19  1  0
  1 20  1  0
  2 22  1  0
  2 12  1  0
  3 26  1  0
  3 12  1  0
  4 27  1  0
  5 28  1  0
  5  4  2  0
  6 29  1  0
  6 11  1  0
  7  9  1  0
  7 31  1  0
  8  4  1  0
  8 11  1  0
  9 10  2  0
  9 14  1  0
 10  5  1  0
 11 17  1  0
 11 33  1  1
 12  1  1  0
 12 13  1  0
 13  6  1  0
 14  8  2  0
 15  7  1  0
 15 35  1  0
 16 36  1  0
 16 10  1  0
 18  1  1  0
 21  2  1  0
 23  2  1  0
 24  3  1  0
 25  3  1  0
 30  6  1  0
 32  7  1  0
 34 13  1  0
 37 17  1  0
M  END
>  <HBA>  (759) 
5

>  <HBD>  (759) 
4

>  <TPSA>  (759) 
85.61

>  <cid>  (759) 
4845

>  <dipole>  (759) 
3.89

>  <excitation_energy_1>  (759) 
4.736

>  <excitation_energy_2>  (759) 
4.835

>  <excitation_energy_3>  (759) 
5.21

>  <excitation_energy_4>  (759) 
5.21

>  <homo_energy>  (759) 
-6.191

>  <homo_lumo_gap>  (759) 
5.44

>  <logP>  (759) 
1.092

>  <lumo_energy>  (759) 
-0.751

>  <melting_point>  (759) 
140.59

>  <molecular_refractivity>  (759) 
65.39

>  <oscillator_strength_1>  (759) 
0.0632

>  <oscillator_strength_2>  (759) 
0.0695

>  <oscillator_strength_3>  (759) 
0.0001

>  <oscillator_strength_4>  (759) 
0.0026

>  <open_babel_can_smiles>  (759) 
OCc1nc(ccc1O)[C@H](CNC(C)(C)C)O

>  <mulliken_charges>  (759) 
37
1   -0.441422
2   -0.446048
3   -0.451041
4   -0.188407
5   -0.153051
6   -0.159003
7   -0.036153
8   0.262288
9   0.237644
10   0.311309
11   0.094306
12   0.215242
13   -0.602036
14   -0.588963
15   -0.642632
16   -0.642145
17   -0.646487
18   0.143147
19   0.151704
20   0.146306
21   0.143114
22   0.149338
23   0.139957
24   0.146492
25   0.135897
26   0.152194
27   0.159162
28   0.132636
29   0.154286
30   0.15239
31   0.147094
32   0.148604
33   0.151217
34   0.30265
35   0.406692
36   0.412434
37   0.401285

>  <lowdin_charges>  (759) 
37
1   -0.448265
2   -0.457467
3   -0.445512
4   -0.171899
5   -0.183414
6   -0.223004
7   -0.132392
8   0.013765
9   0.012337
10   0.077767
11   -0.011406
12   0.071246
13   -0.361489
14   -0.168306
15   -0.476228
16   -0.374732
17   -0.467775
18   0.153111
19   0.154899
20   0.150824
21   0.152661
22   0.152931
23   0.148789
24   0.153892
25   0.145592
26   0.154401
27   0.178143
28   0.160264
29   0.151893
30   0.142893
31   0.146825
32   0.14762
33   0.155528
34   0.256609
35   0.341434
36   0.362278
37   0.336187

$$$$
PCCDB-ID:  4874
     RDKit          3D

 21 21  0  0  0  0  0  0  0  0999 V2000
    1.7668   -1.3064    0.6129 C   0  0  0  0  0  0  0  0  0  0  0  0
    4.5632   -2.9318   -3.2284 C   0  0  0  0  0  0  0  0  0  0  0  0
    3.8842   -3.7566   -2.3352 C   0  0  0  0  0  0  0  0  0  0  0  0
    3.2359   -1.0448   -2.4543 C   0  0  0  0  0  0  0  0  0  0  0  0
    4.2235   -1.5813   -3.2854 C   0  0  0  0  0  0  0  0  0  0  0  0
    2.8802   -3.2425   -1.5088 C   0  0  0  0  0  0  0  0  0  0  0  0
    2.5587   -1.8671   -1.5599 C   0  0  0  0  0  0  0  0  0  0  0  0
    2.1754   -4.0174   -0.6388 O   0  0  0  0  0  0  0  0  0  0  0  0
    4.1098   -0.6406   -5.7697 O   0  0  0  0  0  0  0  0  0  0  0  0
    4.9618    0.8740   -3.9846 O   0  0  0  0  0  1  0  0  0  0  0  0
    6.3535   -1.1178   -4.7638 O   0  0  0  0  0  1  0  0  0  0  0  0
    1.5514   -1.3334   -0.8040 O   0  0  0  0  0  0  0  0  0  0  0  0
    5.0694   -0.5166   -4.4307 S   0  0  0  0  0  0  0  0  0  0  0  0
    0.8920   -0.8088    1.0360 H   0  0  0  0  0  0  0  0  0  0  0  0
    2.6676   -0.7285    0.8560 H   0  0  0  0  0  0  0  0  0  0  0  0
    1.8512   -2.3159    1.0252 H   0  0  0  0  0  0  0  0  0  0  0  0
    5.3484   -3.3261   -3.8633 H   0  0  0  0  0  0  0  0  0  0  0  0
    4.1306   -4.8152   -2.2803 H   0  0  0  0  0  0  0  0  0  0  0  0
    2.9880    0.0102   -2.4860 H   0  0  0  0  0  0  0  0  0  0  0  0
    2.4853   -4.9344   -0.7072 H   0  0  0  0  0  0  0  0  0  0  0  0
    3.8285    0.2688   -5.9852 H   0  0  0  0  0  0  0  0  0  0  0  0
  1 15  1  0
  1 16  1  0
  1 14  1  0
  2  3  2  0
  3 18  1  0
  3  6  1  0
  4  7  1  0
  5  2  1  0
  5  4  2  0
  6  8  1  0
  7  6  2  0
  7 12  1  0
  9 13  1  0
 11 13  1  0
 12  1  1  0
 13 10  1  0
 13  5  1  0
 17  2  1  0
 19  4  1  0
 20  8  1  0
 21  9  1  0
M  RAD  2  10   2  11   2
M  END
>  <HBA>  (760) 
5

>  <HBD>  (760) 
2

>  <TPSA>  (760) 
92.21

>  <cid>  (760) 
4874

>  <dipole>  (760) 
4.84

>  <excitation_energy_1>  (760) 
4.892

>  <excitation_energy_2>  (760) 
5.298

>  <excitation_energy_3>  (760) 
5.467

>  <excitation_energy_4>  (760) 
5.807

>  <homo_energy>  (760) 
-6.615

>  <homo_lumo_gap>  (760) 
5.63

>  <logP>  (760) 
1.728

>  <lumo_energy>  (760) 
-0.985

>  <melting_point>  (760) 
135.89

>  <molecular_refractivity>  (760) 
44.82

>  <oscillator_strength_1>  (760) 
0.0406

>  <oscillator_strength_2>  (760) 
0.0943

>  <oscillator_strength_3>  (760) 
0.0014

>  <oscillator_strength_4>  (760) 
0.0649

>  <open_babel_can_smiles>  (760) 
COc1cc(ccc1O)S(O)([O])[O]

>  <mulliken_charges>  (760) 
21
1   -0.219643
2   -0.136183
3   -0.197279
4   -0.186064
5   -0.163412
6   0.329151
7   0.339341
8   -0.628197
9   -0.636863
10   -0.533481
11   -0.49277
12   -0.515404
13   1.192761
14   0.167882
15   0.148375
16   0.170057
17   0.184234
18   0.138456
19   0.18331
20   0.417328
21   0.438401

>  <lowdin_charges>  (760) 
21
1   -0.274163
2   -0.130474
3   -0.20151
4   -0.145952
5   -0.198536
6   0.094182
7   0.073367
8   -0.356585
9   -0.583582
10   -0.586557
11   -0.557802
12   -0.217465
13   1.34272
14   0.16234
15   0.144226
16   0.153121
17   0.188603
18   0.161504
19   0.189465
20   0.363946
21   0.379154

$$$$
PCCDB-ID:  4885
     RDKit          3D

 31 32  0  0  1  0  0  0  0  0999 V2000
    0.9436    0.9821    3.0495 C   0  0  0  0  0  0  0  0  0  0  0  0
    1.8082    1.5901    1.9411 C   0  0  0  0  0  0  0  0  0  0  0  0
    5.5651    3.9934    2.7839 C   0  0  0  0  0  0  0  0  0  0  0  0
    4.9358    5.3549    2.4329 C   0  0  0  0  0  0  0  0  0  0  0  0
    3.1717    2.0713    2.4451 C   0  0  0  0  0  0  0  0  0  0  0  0
    6.0669    3.4176    0.3673 C   0  0  0  0  0  0  0  0  0  0  0  0
    5.3645    2.9438    1.6601 C   0  0  2  0  0  0  0  0  0  0  0  0
    5.2691    5.7231    1.0173 C   0  0  0  0  0  0  0  0  0  0  0  0
    5.7584    4.8643    0.1024 C   0  0  0  0  0  0  0  0  0  0  0  0
    5.4138    7.2361   -0.8075 C   0  0  0  0  0  0  0  0  0  0  0  0
    5.3594    8.2903   -1.5243 N   0  0  0  0  0  0  0  0  0  0  0  0
    3.9727    2.6069    1.3482 N   0  0  0  0  0  0  0  0  0  0  0  0
    5.0677    7.0145    0.5225 N   0  0  0  0  0  0  0  0  0  0  0  0
    6.0143    5.6711   -1.4600 S   0  0  0  0  0  0  0  0  0  0  0  0
   -0.0267    0.6550    2.6602 H   0  0  0  0  0  0  0  0  0  0  0  0
    0.7529    1.7061    3.8514 H   0  0  0  0  0  0  0  0  0  0  0  0
    1.4315    0.1093    3.5007 H   0  0  0  0  0  0  0  0  0  0  0  0
    1.2751    2.4375    1.4852 H   0  0  0  0  0  0  0  0  0  0  0  0
    1.9719    0.8613    1.1384 H   0  0  0  0  0  0  0  0  0  0  0  0
    5.1484    3.6266    3.7282 H   0  0  0  0  0  0  0  0  0  0  0  0
    6.6428    4.1266    2.9453 H   0  0  0  0  0  0  0  0  0  0  0  0
    5.2988    6.1253    3.1275 H   0  0  0  0  0  0  0  0  0  0  0  0
    3.8433    5.3183    2.5652 H   0  0  0  0  0  0  0  0  0  0  0  0
    3.7217    1.2208    2.8729 H   0  0  0  0  0  0  0  0  0  0  0  0
    3.0144    2.7845    3.2778 H   0  0  0  0  0  0  0  0  0  0  0  0
    5.7288    2.7839   -0.4609 H   0  0  0  0  0  0  0  0  0  0  0  0
    7.1532    3.2709    0.4571 H   0  0  0  0  0  0  0  0  0  0  0  0
    5.8440    2.0099    1.9830 H   0  0  0  0  0  0  0  0  0  0  0  0
    4.9926    9.0869   -0.9970 H   0  0  0  0  0  0  0  0  0  0  0  0
    3.5070    3.4118    0.9312 H   0  0  0  0  0  0  0  0  0  0  0  0
    4.7263    7.7727    1.0965 H   0  0  0  0  0  0  0  0  0  0  0  0
  1 17  1  0
  1 16  1  0
  2  5  1  0
  2  1  1  0
  3 21  1  0
  3 20  1  0
  4 23  1  0
  4  3  1  0
  4 22  1  0
  5 24  1  0
  5 25  1  0
  6 27  1  0
  6  7  1  0
  7 28  1  1
  7  3  1  0
  8  4  1  0
  9  6  1  0
  9  8  2  0
 10 13  1  0
 11 29  1  0
 11 10  2  0
 12  7  1  0
 12  5  1  0
 13  8  1  0
 13 31  1  0
 14 10  1  0
 14  9  1  0
 15  1  1  0
 18  2  1  0
 19  2  1  0
 26  6  1  0
 30 12  1  0
M  END
>  <HBA>  (761) 
4

>  <HBD>  (761) 
2

>  <TPSA>  (761) 
79.18

>  <cid>  (761) 
4885

>  <dipole>  (761) 
5.35

>  <excitation_energy_1>  (761) 
3.958

>  <excitation_energy_2>  (761) 
4.41

>  <excitation_energy_3>  (761) 
4.616

>  <excitation_energy_4>  (761) 
4.86

>  <homo_energy>  (761) 
-5.048

>  <homo_lumo_gap>  (761) 
5.565

>  <logP>  (761) 
2.554

>  <lumo_energy>  (761) 
0.517

>  <melting_point>  (761) 
123.32

>  <molecular_refractivity>  (761) 
61.17

>  <oscillator_strength_1>  (761) 
0.0013

>  <oscillator_strength_2>  (761) 
0.001

>  <oscillator_strength_3>  (761) 
0.0213

>  <oscillator_strength_4>  (761) 
0.0353

>  <open_babel_can_smiles>  (761) 
CCCN[C@@H]1CCc2c(C1)sc(=N)[nH]2

>  <mulliken_charges>  (761) 
31
1   -0.446649
2   -0.254374
3   -0.276402
4   -0.350729
5   -0.10788
6   -0.322301
7   0.026116
8   0.385721
9   -0.208319
10   0.316915
11   -0.639874
12   -0.560358
13   -0.668784
14   0.212391
15   0.147755
16   0.140784
17   0.144051
18   0.127268
19   0.150181
20   0.142985
21   0.144587
22   0.150578
23   0.155
24   0.134427
25   0.107578
26   0.170715
27   0.155686
28   0.132235
29   0.270865
30   0.296468
31   0.323363

>  <lowdin_charges>  (761) 
31
1   -0.446039
2   -0.277465
3   -0.288512
4   -0.278103
5   -0.204055
6   -0.27079
7   -0.060563
8   0.005749
9   -0.194382
10   -0.009619
11   -0.448268
12   -0.363648
13   -0.255781
14   0.237275
15   0.152708
16   0.146479
17   0.148308
18   0.138582
19   0.15056
20   0.149797
21   0.148765
22   0.155805
23   0.14881
24   0.140222
25   0.113347
26   0.166375
27   0.153751
28   0.144138
29   0.252555
30   0.254273
31   0.289723

$$$$
PCCDB-ID:  4909
     RDKit          3D

 30 31  0  0  1  0  0  0  0  0999 V2000
    0.8681   -0.9685    0.6095 C   0  0  0  0  0  0  0  0  0  0  0  0
    2.0746   -0.1518    0.1368 C   0  0  0  0  0  0  0  0  0  0  0  0
    6.5047    1.3969   -2.1277 C   0  0  0  0  0  0  0  0  0  0  0  0
    5.5603    1.9928   -1.2957 C   0  0  0  0  0  0  0  0  0  0  0  0
    6.3313    0.0673   -2.5243 C   0  0  0  0  0  0  0  0  0  0  0  0
    4.4456    1.2684   -0.8584 C   0  0  0  0  0  0  0  0  0  0  0  0
    5.2230   -0.6535   -2.0902 C   0  0  0  0  0  0  0  0  0  0  0  0
    2.2832   -3.6284   -1.4220 C   0  0  0  0  0  0  0  0  0  0  0  0
    4.2592   -0.0665   -1.2485 C   0  0  0  0  0  0  0  0  0  0  0  0
    2.2747   -1.3758   -2.0543 C   0  0  0  0  0  0  0  0  0  0  0  0
    3.5484   -2.1801   -0.0892 C   0  0  0  0  0  0  0  0  0  0  0  0
    3.0507   -0.9207   -0.8105 C   0  0  0  0  0  0  0  0  0  0  0  0
    1.9137   -2.5551   -2.3251 N   0  0  0  0  0  0  0  0  0  0  0  0
    3.2066   -3.3709   -0.3332 N   0  0  0  0  0  0  0  0  0  0  0  0
    1.8934   -0.3761   -2.8994 O   0  0  0  0  0  0  0  0  0  0  0  0
    4.3915   -1.9543    0.9586 O   0  0  0  0  0  0  0  0  0  0  0  0
    0.2304   -0.3515    1.2511 H   0  0  0  0  0  0  0  0  0  0  0  0
    1.1780   -1.8450    1.1876 H   0  0  0  0  0  0  0  0  0  0  0  0
    0.2609   -1.3138   -0.2334 H   0  0  0  0  0  0  0  0  0  0  0  0
    2.6385    0.1948    1.0111 H   0  0  0  0  0  0  0  0  0  0  0  0
    1.7198    0.7460   -0.3830 H   0  0  0  0  0  0  0  0  0  0  0  0
    7.3701    1.9600   -2.4654 H   0  0  0  0  0  0  0  0  0  0  0  0
    5.6838    3.0248   -0.9791 H   0  0  0  0  0  0  0  0  0  0  0  0
    7.0612   -0.4089   -3.1729 H   0  0  0  0  0  0  0  0  0  0  0  0
    3.7275    1.7587   -0.2100 H   0  0  0  0  0  0  0  0  0  0  0  0
    5.0961   -1.6867   -2.4031 H   0  0  0  0  0  0  0  0  0  0  0  0
    2.7152   -4.4326   -2.0317 H   0  0  0  0  0  0  0  0  0  0  0  0
    1.3607   -4.0455   -0.9938 H   0  0  0  0  0  0  0  0  0  0  0  0
    2.4109    0.4203   -2.6933 H   0  0  0  0  0  0  0  0  0  0  0  0
    4.7310   -1.0460    0.8943 H   0  0  0  0  0  0  0  0  0  0  0  0
  1 18  1  0
  1 17  1  0
  2  1  1  0
  2 20  1  0
  3  4  2  0
  4 23  1  0
  4  6  1  0
  5  3  1  0
  5  7  2  0
  6 25  1  0
  7  9  1  0
  8 28  1  0
  8 14  1  0
  9  6  2  0
  9 12  1  0
 10 12  1  0
 11 16  1  0
 12 11  1  0
 12  2  1  0
 13 10  2  0
 13  8  1  0
 14 11  2  0
 15 29  1  0
 15 10  1  0
 19  1  1  0
 21  2  1  0
 22  3  1  0
 24  5  1  0
 26  7  1  0
 27  8  1  0
 30 16  1  0
M  END
>  <HBA>  (762) 
4

>  <HBD>  (762) 
2

>  <TPSA>  (762) 
58.2

>  <cid>  (762) 
4909

>  <dipole>  (762) 
5.27

>  <excitation_energy_1>  (762) 
4.843

>  <excitation_energy_2>  (762) 
4.866

>  <excitation_energy_3>  (762) 
5.108

>  <excitation_energy_4>  (762) 
5.298

>  <homo_energy>  (762) 
-6.346

>  <homo_lumo_gap>  (762) 
5.467

>  <logP>  (762) 
1.196

>  <lumo_energy>  (762) 
-0.879

>  <melting_point>  (762) 
130.49

>  <molecular_refractivity>  (762) 
67.05

>  <oscillator_strength_1>  (762) 
0.0736

>  <oscillator_strength_2>  (762) 
0.0037

>  <oscillator_strength_3>  (762) 
0.0001

>  <oscillator_strength_4>  (762) 
0.0009

>  <open_babel_can_smiles>  (762) 
CC[C@]1(c2ccccc2)C(=NCN=C1O)O

>  <mulliken_charges>  (762) 
30
1   -0.46959
2   -0.267189
3   -0.123173
4   -0.127852
5   -0.129936
6   -0.200775
7   -0.153452
8   -0.051567
9   0.035021
10   0.528853
11   0.527809
12   -0.162184
13   -0.442131
14   -0.442401
15   -0.600274
16   -0.600384
17   0.151624
18   0.174104
19   0.173552
20   0.143974
21   0.144388
22   0.14291
23   0.142084
24   0.147066
25   0.143376
26   0.161596
27   0.167123
28   0.165434
29   0.410958
30   0.411035

>  <lowdin_charges>  (762) 
30
1   -0.454549
2   -0.273071
3   -0.148713
4   -0.150511
5   -0.145896
6   -0.186557
7   -0.151797
8   -0.144767
9   -0.044777
10   0.117776
11   0.117362
12   -0.056339
13   -0.197874
14   -0.196669
15   -0.362782
16   -0.361551
17   0.158627
18   0.163653
19   0.163724
20   0.147629
21   0.147527
22   0.165122
23   0.162355
24   0.16754
25   0.16602
26   0.170949
27   0.158746
28   0.156158
29   0.357264
30   0.355402

$$$$
PCCDB-ID:  4913
     RDKit          3D

 38 38  0  0  0  0  0  0  0  0999 V2000
    3.9145   -3.0044    2.0327 C   0  0  0  0  0  0  0  0  0  0  0  0
    5.4674   -2.1257   -1.2338 C   0  0  0  0  0  0  0  0  0  0  0  0
    5.2193   -2.2326    1.7699 C   0  0  0  0  0  0  0  0  0  0  0  0
    4.6042   -1.1903   -0.3858 C   0  0  0  0  0  0  0  0  0  0  0  0
    9.1599    1.7536    1.0915 C   0  0  0  0  0  0  0  0  0  0  0  0
    9.8903    2.3453    3.3056 C   0  0  0  0  0  0  0  0  0  0  0  0
   10.4454    1.9646    0.6061 C   0  0  0  0  0  0  0  0  0  0  0  0
   11.1783    2.5519    2.8335 C   0  0  0  0  0  0  0  0  0  0  0  0
    5.2879    0.6877    2.8076 C   0  0  0  0  0  0  0  0  0  0  0  0
    4.4362    0.1019    1.6770 C   0  0  0  0  0  0  0  0  0  0  0  0
    8.8589    1.9321    2.4499 C   0  0  0  0  0  0  0  0  0  0  0  0
   11.4802    2.3610    1.4721 C   0  0  0  0  0  0  0  0  0  0  0  0
    7.4983    1.7341    3.0433 C   0  0  0  0  0  0  0  0  0  0  0  0
   12.7831    2.5136    1.0030 N   0  0  0  0  0  0  0  0  0  0  0  0
    6.6011    1.0255    2.2902 N   0  0  0  0  0  0  0  0  0  0  0  0
    5.1157   -0.9958    0.9773 N   0  0  0  0  0  0  0  0  0  0  0  0
    7.1950    2.1931    4.1452 O   0  0  0  0  0  0  0  0  0  0  0  0
    4.1258   -3.8899    2.6431 H   0  0  0  0  0  0  0  0  0  0  0  0
    3.4480   -3.3479    1.1028 H   0  0  0  0  0  0  0  0  0  0  0  0
    3.1784   -2.3999    2.5736 H   0  0  0  0  0  0  0  0  0  0  0  0
    5.1263   -2.1025   -2.2747 H   0  0  0  0  0  0  0  0  0  0  0  0
    5.4152   -3.1663   -0.8969 H   0  0  0  0  0  0  0  0  0  0  0  0
    6.5165   -1.8106   -1.2075 H   0  0  0  0  0  0  0  0  0  0  0  0
    5.9321   -2.8936    1.2655 H   0  0  0  0  0  0  0  0  0  0  0  0
    5.6831   -1.9720    2.7272 H   0  0  0  0  0  0  0  0  0  0  0  0
    3.5578   -1.5485   -0.3952 H   0  0  0  0  0  0  0  0  0  0  0  0
    4.5917   -0.2024   -0.8612 H   0  0  0  0  0  0  0  0  0  0  0  0
    8.3782    1.4809    0.3874 H   0  0  0  0  0  0  0  0  0  0  0  0
    9.6515    2.5052    4.3521 H   0  0  0  0  0  0  0  0  0  0  0  0
   10.6561    1.8253   -0.4520 H   0  0  0  0  0  0  0  0  0  0  0  0
   11.9660    2.8608    3.5175 H   0  0  0  0  0  0  0  0  0  0  0  0
    5.3652   -0.0066    3.6574 H   0  0  0  0  0  0  0  0  0  0  0  0
    4.8127    1.5930    3.1974 H   0  0  0  0  0  0  0  0  0  0  0  0
    4.2595    0.8934    0.9401 H   0  0  0  0  0  0  0  0  0  0  0  0
    3.4485   -0.1824    2.0804 H   0  0  0  0  0  0  0  0  0  0  0  0
   12.8698    2.7070    0.0133 H   0  0  0  0  0  0  0  0  0  0  0  0
   13.3766    3.1162    1.5591 H   0  0  0  0  0  0  0  0  0  0  0  0
    6.9213    0.4197    1.5442 H   0  0  0  0  0  0  0  0  0  0  0  0
  1 20  1  0
  1 18  1  0
  2 23  1  0
  2 22  1  0
  2  4  1  0
  3  1  1  0
  3 25  1  0
  4 16  1  0
  5 11  2  0
  6 29  1  0
  7  5  1  0
  7 12  2  0
  8  6  2  0
  8 31  1  0
  9 33  1  0
  9 32  1  0
 10 35  1  0
 10  9  1  0
 11 13  1  0
 11  6  1  0
 12  8  1  0
 13 17  2  0
 14 12  1  0
 14 37  1  0
 15  9  1  0
 15 13  1  0
 16 10  1  0
 16  3  1  0
 19  1  1  0
 21  2  1  0
 24  3  1  0
 26  4  1  0
 27  4  1  0
 28  5  1  0
 30  7  1  0
 34 10  1  0
 36 14  1  0
 38 15  1  0
M  END
>  <HBA>  (763) 
4

>  <HBD>  (763) 
2

>  <TPSA>  (763) 
58.36

>  <cid>  (763) 
4913

>  <dipole>  (763) 
4.2

>  <excitation_energy_1>  (763) 
4.607

>  <excitation_energy_2>  (763) 
4.697

>  <excitation_energy_3>  (763) 
4.768

>  <excitation_energy_4>  (763) 
4.843

>  <homo_energy>  (763) 
-5.513

>  <homo_lumo_gap>  (763) 
5.225

>  <logP>  (763) 
2.313

>  <lumo_energy>  (763) 
-0.288

>  <melting_point>  (763) 
114.86

>  <molecular_refractivity>  (763) 
70.77

>  <oscillator_strength_1>  (763) 
0.0868

>  <oscillator_strength_2>  (763) 
0.015

>  <oscillator_strength_3>  (763) 
0.2076

>  <oscillator_strength_4>  (763) 
0.0139

>  <open_babel_can_smiles>  (763) 
CCN(CCNC(=O)c1ccc(cc1)N)CC

>  <mulliken_charges>  (763) 
38
1   -0.461356
2   -0.458238
3   -0.142121
4   -0.107703
5   -0.193245
6   -0.167124
7   -0.179308
8   -0.180368
9   -0.112258
10   -0.146745
11   0.069357
12   0.32421
13   0.558779
14   -0.789436
15   -0.627764
16   -0.401176
17   -0.541438
18   0.148397
19   0.150079
20   0.151799
21   0.147359
22   0.151479
23   0.152534
24   0.147526
25   0.150634
26   0.119284
27   0.13942
28   0.127711
29   0.159214
30   0.116734
31   0.120555
32   0.149108
33   0.169853
34   0.146507
35   0.126888
36   0.322486
37   0.323918
38   0.334447

>  <lowdin_charges>  (763) 
38
1   -0.466865
2   -0.448332
3   -0.209914
4   -0.195401
5   -0.149854
6   -0.120925
7   -0.201832
8   -0.201518
9   -0.197385
10   -0.20816
11   -0.067533
12   0.069311
13   0.15559
14   -0.481864
15   -0.287481
16   -0.197229
17   -0.326185
18   0.156686
19   0.150276
20   0.151955
21   0.154541
22   0.148992
23   0.151669
24   0.14888
25   0.149465
26   0.119316
27   0.14438
28   0.157687
29   0.174788
30   0.150935
31   0.155185
32   0.14103
33   0.165466
34   0.150627
35   0.129006
36   0.275574
37   0.279441
38   0.279675

$$$$
PCCDB-ID:  4944
     RDKit          3D

 30 30  0  0  0  0  0  0  0  0999 V2000
    1.3917   -0.2526    1.4633 C   0  0  0  0  0  0  0  0  0  0  0  0
    3.0593    0.6595   -0.2262 C   0  0  0  0  0  0  0  0  0  0  0  0
    2.8032    2.6732    5.5073 C   0  0  0  0  0  0  0  0  0  0  0  0
    7.1027   -0.8484    1.4899 C   0  0  0  0  0  0  0  0  0  0  0  0
    7.7473   -0.1192    2.4854 C   0  0  0  0  0  0  0  0  0  0  0  0
    5.7181   -0.7529    1.3156 C   0  0  0  0  0  0  0  0  0  0  0  0
    6.9982    0.7233    3.3116 C   0  0  0  0  0  0  0  0  0  0  0  0
    2.8396   -0.2430    0.9873 C   0  0  0  0  0  0  0  0  0  0  0  0
    4.9589    0.0781    2.1459 C   0  0  0  0  0  0  0  0  0  0  0  0
    5.6266    0.8236    3.1367 C   0  0  0  0  0  0  0  0  0  0  0  0
    4.1660    2.6623    3.5906 C   0  0  0  0  0  0  0  0  0  0  0  0
    3.2315    3.2195    4.2308 N   0  0  0  0  0  0  0  0  0  0  0  0
    4.5850    3.1259    2.3902 O   0  0  0  0  0  0  0  0  0  0  0  0
    3.6065    0.2270    2.1138 O   0  0  0  0  0  0  0  0  0  0  0  0
    4.8969    1.6021    4.0318 O   0  0  0  0  0  0  0  0  0  0  0  0
    0.7328   -0.6182    0.6686 H   0  0  0  0  0  0  0  0  0  0  0  0
    1.0768    0.7589    1.7410 H   0  0  0  0  0  0  0  0  0  0  0  0
    1.2785   -0.9005    2.3377 H   0  0  0  0  0  0  0  0  0  0  0  0
    4.1108    0.6795   -0.5275 H   0  0  0  0  0  0  0  0  0  0  0  0
    2.7538    1.6838    0.0118 H   0  0  0  0  0  0  0  0  0  0  0  0
    2.4653    0.3052   -1.0761 H   0  0  0  0  0  0  0  0  0  0  0  0
    3.2025    3.2813    6.3301 H   0  0  0  0  0  0  0  0  0  0  0  0
    3.1128    1.6333    5.6699 H   0  0  0  0  0  0  0  0  0  0  0  0
    1.7104    2.7282    5.5677 H   0  0  0  0  0  0  0  0  0  0  0  0
    7.6725   -1.5039    0.8371 H   0  0  0  0  0  0  0  0  0  0  0  0
    8.8220   -0.1957    2.6189 H   0  0  0  0  0  0  0  0  0  0  0  0
    5.2384   -1.3342    0.5364 H   0  0  0  0  0  0  0  0  0  0  0  0
    7.4629    1.3115    4.0967 H   0  0  0  0  0  0  0  0  0  0  0  0
    3.1442   -1.2725    0.7550 H   0  0  0  0  0  0  0  0  0  0  0  0
    3.9978    3.8785    2.2005 H   0  0  0  0  0  0  0  0  0  0  0  0
  1 17  1  0
  1 18  1  0
  2 20  1  0
  2  8  1  0
  3 24  1  0
  3 23  1  0
  3 22  1  0
  4  5  2  0
  5 26  1  0
  5  7  1  0
  6  4  1  0
  6  9  2  0
  7 28  1  0
  8  1  1  0
  8 14  1  0
  9 10  1  0
 10  7  2  0
 10 15  1  0
 11 15  1  0
 11 12  2  0
 12  3  1  0
 13 11  1  0
 14  9  1  0
 16  1  1  0
 19  2  1  0
 21  2  1  0
 25  4  1  0
 27  6  1  0
 29  8  1  0
 30 13  1  0
M  END
>  <HBA>  (764) 
4

>  <HBD>  (764) 
1

>  <TPSA>  (764) 
47.56

>  <cid>  (764) 
4944

>  <dipole>  (764) 
2.52

>  <excitation_energy_1>  (764) 
4.961

>  <excitation_energy_2>  (764) 
5.442

>  <excitation_energy_3>  (764) 
5.56

>  <excitation_energy_4>  (764) 
5.668

>  <homo_energy>  (764) 
-5.886

>  <homo_lumo_gap>  (764) 
5.87

>  <logP>  (764) 
2.583

>  <lumo_energy>  (764) 
-0.016

>  <melting_point>  (764) 
71.44

>  <molecular_refractivity>  (764) 
57.24

>  <oscillator_strength_1>  (764) 
0.0486

>  <oscillator_strength_2>  (764) 
0.0226

>  <oscillator_strength_3>  (764) 
0.0313

>  <oscillator_strength_4>  (764) 
0.0011

>  <open_babel_can_smiles>  (764) 
C/N=C(\Oc1ccccc1OC(C)C)/O

>  <mulliken_charges>  (764) 
30
1   -0.452275
2   -0.455672
3   -0.320451
4   -0.131171
5   -0.146127
6   -0.203947
7   -0.166839
8   0.135729
9   0.389271
10   0.302511
11   0.723945
12   -0.486769
13   -0.594923
14   -0.542324
15   -0.536255
16   0.14565
17   0.163773
18   0.161543
19   0.163508
20   0.157304
21   0.145852
22   0.150554
23   0.153976
24   0.149185
25   0.130083
26   0.130917
27   0.137352
28   0.14294
29   0.132902
30   0.419757

>  <lowdin_charges>  (764) 
30
1   -0.447138
2   -0.456043
3   -0.350159
4   -0.153977
5   -0.170115
6   -0.208814
7   -0.161742
8   0.016131
9   0.09107
10   0.075788
11   0.195406
12   -0.265135
13   -0.363938
14   -0.197494
15   -0.153393
16   0.156179
17   0.159967
18   0.161405
19   0.160124
20   0.157184
21   0.156446
22   0.149935
23   0.143592
24   0.147138
25   0.160417
26   0.158133
27   0.16403
28   0.170721
29   0.133752
30   0.370532

$$$$
PCCDB-ID:  4947
     RDKit          3D

 27 27  0  0  0  0  0  0  0  0999 V2000
    8.6461    2.2813    1.2207 C   0  0  0  0  0  0  0  0  0  0  0  0
    7.6072    1.1900    0.9473 C   0  0  0  0  0  0  0  0  0  0  0  0
    6.3519    1.6993    0.2444 C   0  0  0  0  0  0  0  0  0  0  0  0
    3.1986    3.0730    3.6608 C   0  0  0  0  0  0  0  0  0  0  0  0
    4.4671    4.7437    2.4396 C   0  0  0  0  0  0  0  0  0  0  0  0
    4.1473    3.4014    2.6839 C   0  0  0  0  0  0  0  0  0  0  0  0
    2.5830    4.0899    4.3762 C   0  0  0  0  0  0  0  0  0  0  0  0
    3.8455    5.7607    3.1631 C   0  0  0  0  0  0  0  0  0  0  0  0
    2.8925    5.4387    4.1427 C   0  0  0  0  0  0  0  0  0  0  0  0
    4.7818    2.2835    1.9419 C   0  0  0  0  0  0  0  0  0  0  0  0
    1.6365    3.8912    5.3569 O   0  0  0  0  0  0  0  0  0  0  0  0
    4.1091    7.0874    2.9762 O   0  0  0  0  0  0  0  0  0  0  0  0
    2.2874    6.4291    4.8464 O   0  0  0  0  0  0  0  0  0  0  0  0
    4.5309    1.1067    2.1309 O   0  0  0  0  0  0  0  0  0  0  0  0
    5.6757    2.7173    1.0183 O   0  0  0  0  0  0  0  0  0  0  0  0
    9.5277    1.8674    1.7220 H   0  0  0  0  0  0  0  0  0  0  0  0
    8.2325    3.0669    1.8614 H   0  0  0  0  0  0  0  0  0  0  0  0
    8.9823    2.7527    0.2885 H   0  0  0  0  0  0  0  0  0  0  0  0
    7.3091    0.7002    1.8815 H   0  0  0  0  0  0  0  0  0  0  0  0
    8.0422    0.4070    0.3108 H   0  0  0  0  0  0  0  0  0  0  0  0
    5.6524    0.8826    0.0518 H   0  0  0  0  0  0  0  0  0  0  0  0
    6.6011    2.1980   -0.6973 H   0  0  0  0  0  0  0  0  0  0  0  0
    2.9614    2.0282    3.8381 H   0  0  0  0  0  0  0  0  0  0  0  0
    5.2022    4.9914    1.6803 H   0  0  0  0  0  0  0  0  0  0  0  0
    1.4713    2.9420    5.4591 H   0  0  0  0  0  0  0  0  0  0  0  0
    4.7756    7.1713    2.2770 H   0  0  0  0  0  0  0  0  0  0  0  0
    1.6687    6.0022    5.4646 H   0  0  0  0  0  0  0  0  0  0  0  0
  1 16  1  0
  1 17  1  0
  2  1  1  0
  2 19  1  0
  3  2  1  0
  3 15  1  0
  4 23  1  0
  4  7  2  0
  5  6  2  0
  5  8  1  0
  6  4  1  0
  7 11  1  0
  8  9  2  0
  9  7  1  0
  9 13  1  0
 10 14  2  0
 10  6  1  0
 11 25  1  0
 12  8  1  0
 13 27  1  0
 15 10  1  0
 18  1  1  0
 20  2  1  0
 21  3  1  0
 22  3  1  0
 24  5  1  0
 26 12  1  0
M  END
>  <HBA>  (765) 
5

>  <HBD>  (765) 
3

>  <TPSA>  (765) 
86.99

>  <cid>  (765) 
4947

>  <dipole>  (765) 
1.11

>  <excitation_energy_1>  (765) 
4.421

>  <excitation_energy_2>  (765) 
4.554

>  <excitation_energy_3>  (765) 
4.831

>  <excitation_energy_4>  (765) 
4.988

>  <homo_energy>  (765) 
-5.78

>  <homo_lumo_gap>  (765) 
4.816

>  <logP>  (765) 
1.37

>  <lumo_energy>  (765) 
-0.963

>  <melting_point>  (765) 
150.86

>  <molecular_refractivity>  (765) 
53.4

>  <oscillator_strength_1>  (765) 
0.0703

>  <oscillator_strength_2>  (765) 
0.2175

>  <oscillator_strength_3>  (765) 
0.001

>  <oscillator_strength_4>  (765) 
0.0002

>  <open_babel_can_smiles>  (765) 
CCCOC(=O)c1cc(O)c(c(c1)O)O

>  <mulliken_charges>  (765) 
27
1   -0.443119
2   -0.27449
3   -0.043417
4   -0.235995
5   -0.246842
6   0.037988
7   0.309486
8   0.318535
9   0.295602
10   0.599735
11   -0.683143
12   -0.634091
13   -0.63425
14   -0.503311
15   -0.48716
16   0.147607
17   0.156897
18   0.139381
19   0.16499
20   0.13889
21   0.169997
22   0.14536
23   0.152482
24   0.144054
25   0.42264
26   0.411045
27   0.431129

>  <lowdin_charges>  (765) 
27
1   -0.448963
2   -0.285772
3   -0.132638
4   -0.198258
5   -0.206741
6   -0.04724
7   0.063311
8   0.079885
9   0.065561
10   0.197447
11   -0.397153
12   -0.367594
13   -0.356939
14   -0.282244
15   -0.197262
16   0.153305
17   0.154614
18   0.145939
19   0.157785
20   0.15096
21   0.161765
22   0.148884
23   0.173804
24   0.169595
25   0.366996
26   0.361305
27   0.369649

$$$$
PCCDB-ID:  4977
     RDKit          3D

 31 32  0  0  1  0  0  0  0  0999 V2000
    3.5847   -2.5229    0.8708 C   0  0  0  0  0  0  0  0  0  0  0  0
    1.1748    2.9846    6.6256 C   0  0  0  0  0  0  0  0  0  0  0  0
   -0.4571   -1.6048    6.5241 C   0  0  0  0  0  0  0  0  0  0  0  0
    2.3729   -0.4986    1.7484 C   0  0  0  0  0  0  0  0  0  0  0  0
    2.6418    1.7624    2.8421 C   0  0  0  0  0  0  0  0  0  0  0  0
    3.5294   -1.4877    1.9999 C   0  0  1  0  0  0  0  0  0  0  0  0
    1.5324    0.2964    4.0259 C   0  0  0  0  0  0  0  0  0  0  0  0
    1.6327    1.5114    4.6796 C   0  0  0  0  0  0  0  0  0  0  0  0
    0.8483   -0.8338    4.5724 C   0  0  0  0  0  0  0  0  0  0  0  0
    0.3670    0.6772    6.5300 C   0  0  0  0  0  0  0  0  0  0  0  0
    2.3241    2.4253    3.9499 N   0  0  0  0  0  0  0  0  0  0  0  0
    1.0658    1.7098    5.9163 N   0  0  0  0  0  0  0  0  0  0  0  0
    0.2811   -0.5441    5.8286 N   0  0  0  0  0  0  0  0  0  0  0  0
    2.1948    0.4826    2.8181 N   0  0  0  0  0  0  0  0  0  0  0  0
    3.4426   -2.0947    3.2721 O   0  0  0  0  0  0  0  0  0  0  0  0
    0.7370   -1.9503    4.0472 O   0  0  0  0  0  0  0  0  0  0  0  0
   -0.1511    0.8177    7.6278 O   0  0  0  0  0  0  0  0  0  0  0  0
    3.7374   -2.0537   -0.1093 H   0  0  0  0  0  0  0  0  0  0  0  0
    2.6551   -3.1041    0.8335 H   0  0  0  0  0  0  0  0  0  0  0  0
    4.4098   -3.2169    1.0546 H   0  0  0  0  0  0  0  0  0  0  0  0
    1.7150    3.6770    5.9810 H   0  0  0  0  0  0  0  0  0  0  0  0
    1.7128    2.8464    7.5670 H   0  0  0  0  0  0  0  0  0  0  0  0
    0.1777    3.3711    6.8496 H   0  0  0  0  0  0  0  0  0  0  0  0
   -0.4800   -2.4713    5.8670 H   0  0  0  0  0  0  0  0  0  0  0  0
   -1.4691   -1.2620    6.7497 H   0  0  0  0  0  0  0  0  0  0  0  0
    0.0425   -1.8500    7.4644 H   0  0  0  0  0  0  0  0  0  0  0  0
    1.4316   -1.0461    1.6467 H   0  0  0  0  0  0  0  0  0  0  0  0
    2.5461    0.0549    0.8203 H   0  0  0  0  0  0  0  0  0  0  0  0
    3.1938    2.1856    2.0130 H   0  0  0  0  0  0  0  0  0  0  0  0
    4.4690   -0.9194    2.0119 H   0  0  0  0  0  0  0  0  0  0  0  0
    2.5150   -2.3674    3.4261 H   0  0  0  0  0  0  0  0  0  0  0  0
  1 20  1  0
  1  6  1  0
  2 23  1  0
  2 22  1  0
  3 25  1  0
  3 26  1  0
  4  6  1  0
  4 14  1  0
  5 11  2  0
  6 30  1  1
  6 15  1  0
  7  9  1  0
  7  8  2  0
  8 12  1  0
  9 13  1  0
 10 17  2  0
 11  8  1  0
 12 10  1  0
 12  2  1  0
 13  3  1  0
 13 10  1  0
 14  5  1  0
 14  7  1  0
 15 31  1  0
 16  9  2  0
 18  1  1  0
 19  1  1  0
 21  2  1  0
 24  3  1  0
 27  4  1  0
 28  4  1  0
 29  5  1  0
M  END
>  <HBA>  (766) 
7

>  <HBD>  (766) 
1

>  <TPSA>  (766) 
82.05

>  <cid>  (766) 
4977

>  <dipole>  (766) 
3.75

>  <excitation_energy_1>  (766) 
4.503

>  <excitation_energy_2>  (766) 
5.017

>  <excitation_energy_3>  (766) 
5.442

>  <excitation_energy_4>  (766) 
5.453

>  <homo_energy>  (766) 
-6.071

>  <homo_lumo_gap>  (766) 
5.021

>  <logP>  (766) 
-1.185

>  <lumo_energy>  (766) 
-1.05

>  <melting_point>  (766) 
160.83

>  <molecular_refractivity>  (766) 
62.81

>  <oscillator_strength_1>  (766) 
0.1364

>  <oscillator_strength_2>  (766) 
0.0008

>  <oscillator_strength_3>  (766) 
0.0047

>  <oscillator_strength_4>  (766) 
0.0062

>  <open_babel_can_smiles>  (766) 
C[C@@H](Cn1cnc2c1c(=O)n(C)c(=O)n2C)O

>  <mulliken_charges>  (766) 
31
1   -0.456961
2   -0.323047
3   -0.315958
4   -0.198314
5   0.225967
6   0.157646
7   0.236524
8   0.477025
9   0.661847
10   0.788218
11   -0.514027
12   -0.58895
13   -0.574588
14   -0.484567
15   -0.64636
16   -0.578196
17   -0.523457
18   0.135296
19   0.149617
20   0.169007
21   0.20002
22   0.183565
23   0.183863
24   0.19961
25   0.181117
26   0.181417
27   0.187484
28   0.159625
29   0.171652
30   0.134096
31   0.42083

>  <lowdin_charges>  (766) 
31
1   -0.461187
2   -0.342611
3   -0.349132
4   -0.216345
5   -0.055247
6   -0.001789
7   -0.076317
8   0.070357
9   0.169399
10   0.186054
11   -0.203261
12   -0.051192
13   -0.079961
14   0.016871
15   -0.470023
16   -0.337096
17   -0.304034
18   0.148314
19   0.152864
20   0.166778
21   0.183154
22   0.169068
23   0.169604
24   0.182716
25   0.168008
26   0.168336
27   0.172107
28   0.162411
29   0.176129
30   0.139965
31   0.346061

$$$$
PCCDB-ID:  4980
     RDKit          3D

 31 32  0  0  0  0  0  0  0  0999 V2000
    1.2417    1.0633   -0.6343 C   0  0  0  0  0  0  0  0  0  0  0  0
    2.5435    0.1941    1.1773 C   0  0  0  0  0  0  0  0  0  0  0  0
    4.4660   -6.2740   -2.2141 C   0  0  0  0  0  0  0  0  0  0  0  0
    5.0651   -5.5043   -3.2000 C   0  0  0  0  0  0  0  0  0  0  0  0
    3.9250   -5.6898   -1.0509 C   0  0  0  0  0  0  0  0  0  0  0  0
    4.4015   -0.9776   -0.9975 C   0  0  0  0  0  0  0  0  0  0  0  0
    2.9044   -0.6251   -1.0856 C   0  0  0  0  0  0  0  0  0  0  0  0
    5.4504   -1.8969   -3.1479 C   0  0  0  0  0  0  0  0  0  0  0  0
    4.8005   -2.0699   -1.9518 C   0  0  0  0  0  0  0  0  0  0  0  0
    5.1071   -4.1186   -2.9879 C   0  0  0  0  0  0  0  0  0  0  0  0
    3.9747   -4.3139   -0.8539 C   0  0  0  0  0  0  0  0  0  0  0  0
    4.5710   -3.4917   -1.8309 C   0  0  0  0  0  0  0  0  0  0  0  0
    5.6314   -3.1177   -3.7753 N   0  0  0  0  0  0  0  0  0  0  0  0
    2.5337    0.5163   -0.2440 N   0  0  0  0  0  0  0  0  0  0  0  0
    3.4643   -3.7060    0.2652 O   0  0  0  0  0  0  0  0  0  0  0  0
    1.0206    1.9523   -0.0324 H   0  0  0  0  0  0  0  0  0  0  0  0
    0.4025    0.3498   -0.5041 H   0  0  0  0  0  0  0  0  0  0  0  0
    1.2677    1.3644   -1.6873 H   0  0  0  0  0  0  0  0  0  0  0  0
    2.3022    1.0926    1.7564 H   0  0  0  0  0  0  0  0  0  0  0  0
    3.5353   -0.1457    1.4875 H   0  0  0  0  0  0  0  0  0  0  0  0
    1.8131   -0.5950    1.4482 H   0  0  0  0  0  0  0  0  0  0  0  0
    4.4092   -7.3523   -2.3340 H   0  0  0  0  0  0  0  0  0  0  0  0
    5.4826   -5.9549   -4.0958 H   0  0  0  0  0  0  0  0  0  0  0  0
    3.4630   -6.3226   -0.2949 H   0  0  0  0  0  0  0  0  0  0  0  0
    4.6529   -1.2808    0.0241 H   0  0  0  0  0  0  0  0  0  0  0  0
    4.9762   -0.0690   -1.2143 H   0  0  0  0  0  0  0  0  0  0  0  0
    2.3003   -1.5219   -0.8508 H   0  0  0  0  0  0  0  0  0  0  0  0
    2.6816   -0.3547   -2.1247 H   0  0  0  0  0  0  0  0  0  0  0  0
    5.8056   -0.9849   -3.6086 H   0  0  0  0  0  0  0  0  0  0  0  0
    6.1091   -3.2581   -4.6513 H   0  0  0  0  0  0  0  0  0  0  0  0
    3.0840   -4.3890    0.8394 H   0  0  0  0  0  0  0  0  0  0  0  0
  1 17  1  0
  1 14  1  0
  1 16  1  0
  2 21  1  0
  2 20  1  0
  2 19  1  0
  3  5  2  0
  4 10  2  0
  4  3  1  0
  5 11  1  0
  5 24  1  0
  6 25  1  0
  7  6  1  0
  7 27  1  0
  7 14  1  0
  8  9  2  0
  9 12  1  0
  9  6  1  0
 10 12  1  0
 11 15  1  0
 12 11  2  0
 13  8  1  0
 13 10  1  0
 14  2  1  0
 15 31  1  0
 18  1  1  0
 22  3  1  0
 23  4  1  0
 26  6  1  0
 28  7  1  0
 29  8  1  0
 30 13  1  0
M  END
>  <HBA>  (767) 
2

>  <HBD>  (767) 
2

>  <TPSA>  (767) 
39.26

>  <cid>  (767) 
4980

>  <dipole>  (767) 
1.48

>  <excitation_energy_1>  (767) 
4.411

>  <excitation_energy_2>  (767) 
4.587

>  <excitation_energy_3>  (767) 
4.613

>  <excitation_energy_4>  (767) 
4.816

>  <homo_energy>  (767) 
-4.98

>  <homo_lumo_gap>  (767) 
5.167

>  <logP>  (767) 
1.978

>  <lumo_energy>  (767) 
0.188

>  <melting_point>  (767) 
141.38

>  <molecular_refractivity>  (767) 
62.6

>  <oscillator_strength_1>  (767) 
0.0016

>  <oscillator_strength_2>  (767) 
0.0821

>  <oscillator_strength_3>  (767) 
0.0091

>  <oscillator_strength_4>  (767) 
0.004

>  <open_babel_can_smiles>  (767) 
CN(CCc1c[nH]c2c1c(O)ccc2)C

>  <mulliken_charges>  (767) 
31
1   -0.290758
2   -0.296146
3   -0.155248
4   -0.166151
5   -0.200323
6   -0.341482
7   -0.109166
8   -0.009228
9   0.081479
10   0.306636
11   0.253904
12   0.05642
13   -0.692428
14   -0.370367
15   -0.650378
16   0.142671
17   0.11347
18   0.145078
19   0.141754
20   0.154121
21   0.114189
22   0.122171
23   0.115967
24   0.10457
25   0.15669
26   0.139171
27   0.128591
28   0.128114
29   0.145103
30   0.325138
31   0.406437

>  <lowdin_charges>  (767) 
31
1   -0.35493
2   -0.358103
3   -0.151591
4   -0.210177
5   -0.243137
6   -0.272256
7   -0.199925
8   -0.144129
9   -0.048276
10   0.037135
11   0.100662
12   -0.062252
13   -0.197101
14   -0.186343
15   -0.381762
16   0.146819
17   0.118164
18   0.145934
19   0.147282
20   0.151069
21   0.119355
22   0.15404
23   0.154849
24   0.15015
25   0.1552
26   0.150635
27   0.126682
28   0.13991
29   0.163794
30   0.290005
31   0.358297

$$$$
PCCDB-ID:  4983
     RDKit          3D

 35 36  0  0  1  0  0  0  0  0999 V2000
    0.9209    0.1050   -0.2009 C   0  0  0  0  0  0  0  0  0  0  0  0
    2.7303   -0.2740    1.4978 C   0  0  0  0  0  0  0  0  0  0  0  0
    2.5613    2.4924   -0.6448 C   0  0  0  0  0  0  0  0  0  0  0  0
    4.6859    1.2559   -0.1308 C   0  0  0  0  0  0  0  0  0  0  0  0
    4.1046   -3.1563   -5.4871 C   0  0  0  0  0  0  0  0  0  0  0  0
    3.7957   -1.8058   -5.6542 C   0  0  0  0  0  0  0  0  0  0  0  0
    4.1274   -3.7012   -4.2008 C   0  0  0  0  0  0  0  0  0  0  0  0
    3.5127   -0.9991   -4.5543 C   0  0  0  0  0  0  0  0  0  0  0  0
    3.8339   -2.9086   -3.0963 C   0  0  0  0  0  0  0  0  0  0  0  0
    3.5192   -1.5438   -3.2537 C   0  0  0  0  0  0  0  0  0  0  0  0
    3.2362   -0.7052   -2.0948 C   0  0  0  0  0  3  0  0  0  0  0  0
    2.4393   -0.0452    0.0127 C   0  0  0  0  0  0  0  0  0  0  0  0
    3.2395    1.1240   -0.6414 C   0  0  0  0  0  0  0  0  0  0  0  0
    2.9839   -1.2016   -0.7867 N   0  0  0  0  0  0  0  0  0  0  0  0
    3.3469    0.6125   -2.0611 N   0  0  0  0  0  0  0  0  0  0  0  0
    2.0279   -2.2810   -0.8110 O   0  0  0  0  0  0  0  0  0  0  0  0
    3.7103    1.4184   -2.9873 O   0  0  0  0  0  1  0  0  0  0  0  0
    0.5435    0.9568    0.3723 H   0  0  0  0  0  0  0  0  0  0  0  0
    0.4073   -0.7952    0.1401 H   0  0  0  0  0  0  0  0  0  0  0  0
    0.6699    0.2577   -1.2547 H   0  0  0  0  0  0  0  0  0  0  0  0
    2.4133    0.5891    2.0938 H   0  0  0  0  0  0  0  0  0  0  0  0
    3.7911   -0.4566    1.6826 H   0  0  0  0  0  0  0  0  0  0  0  0
    2.1667   -1.1442    1.8517 H   0  0  0  0  0  0  0  0  0  0  0  0
    2.4226    2.8451    0.3831 H   0  0  0  0  0  0  0  0  0  0  0  0
    1.5904    2.4725   -1.1439 H   0  0  0  0  0  0  0  0  0  0  0  0
    3.1953    3.2039   -1.1778 H   0  0  0  0  0  0  0  0  0  0  0  0
    4.7088    1.7288    0.8562 H   0  0  0  0  0  0  0  0  0  0  0  0
    5.2412    1.8846   -0.8328 H   0  0  0  0  0  0  0  0  0  0  0  0
    5.1828    0.2836   -0.0663 H   0  0  0  0  0  0  0  0  0  0  0  0
    4.3303   -3.7789   -6.3487 H   0  0  0  0  0  0  0  0  0  0  0  0
    3.7801   -1.3703   -6.6498 H   0  0  0  0  0  0  0  0  0  0  0  0
    4.3756   -4.7494   -4.0567 H   0  0  0  0  0  0  0  0  0  0  0  0
    3.2981    0.0537   -4.6794 H   0  0  0  0  0  0  0  0  0  0  0  0
    3.8598   -3.3457   -2.1061 H   0  0  0  0  0  0  0  0  0  0  0  0
    2.4883   -2.9738   -0.3111 H   0  0  0  0  0  0  0  0  0  0  0  0
  1 12  1  0
  1 19  1  0
  1 18  1  0
  2 22  1  0
  2 23  1  0
  2 21  1  0
  3 13  1  0
  3 24  1  0
  4 29  1  0
  4 27  1  0
  5  7  2  0
  6  5  1  0
  6  8  2  0
  7 32  1  0
  7  9  1  0
  8 10  1  0
  9 34  1  0
 10  9  2  0
 10 11  1  0
 11 15  1  0
 11 14  1  0
 12  2  1  0
 13  4  1  0
 13 12  1  0
 14 12  1  0
 15 13  1  0
 16 14  1  0
 16 35  1  0
 17 15  1  0
 20  1  1  0
 25  3  1  0
 26  3  1  0
 28  4  1  0
 30  5  1  0
 31  6  1  0
 33  8  1  0
M  RAD  2  11   2  17   2
M  END
>  <HBA>  (768) 
3

>  <HBD>  (768) 
1

>  <TPSA>  (768) 
52.22

>  <cid>  (768) 
4983

>  <dipole>  (768) 
3.88

>  <excitation_energy_1>  (768) 
3.771

>  <excitation_energy_2>  (768) 
3.978

>  <excitation_energy_3>  (768) 
4.284

>  <excitation_energy_4>  (768) 
4.297

>  <homo_energy>  (768) 
-4.974

>  <homo_lumo_gap>  (768) 
3.943

>  <logP>  (768) 
2.102

>  <lumo_energy>  (768) 
-1.031

>  <melting_point>  (768) 
133.9

>  <molecular_refractivity>  (768) 
76.13

>  <oscillator_strength_1>  (768) 
0.1881

>  <oscillator_strength_2>  (768) 
0.0475

>  <oscillator_strength_3>  (768) 
0.0132

>  <oscillator_strength_4>  (768) 
0.0056

>  <open_babel_can_smiles>  (768) 
ON1[C](c2ccccc2)N(C(C1(C)C)(C)C)[O]

>  <mulliken_charges>  (768) 
35
1   -0.454375
2   -0.464015
3   -0.460257
4   -0.457049
5   -0.12171
6   -0.140612
7   -0.140749
8   -0.168318
9   -0.144421
10   0.117774
11   0.497842
12   0.19225
13   0.165936
14   -0.355206
15   -0.054693
16   -0.500751
17   -0.529587
18   0.14926
19   0.16904
20   0.163076
21   0.151037
22   0.160213
23   0.149274
24   0.143462
25   0.163074
26   0.182189
27   0.150422
28   0.180483
29   0.163072
30   0.129218
31   0.13262
32   0.127186
33   0.182091
34   0.105856
35   0.41637

>  <lowdin_charges>  (768) 
35
1   -0.455514
2   -0.447284
3   -0.445455
4   -0.449088
5   -0.154089
6   -0.155618
7   -0.158358
8   -0.146364
9   -0.150407
10   -0.011867
11   0.042599
12   0.061112
13   0.060965
14   -0.049781
15   0.156764
16   -0.390038
17   -0.398944
18   0.156845
19   0.165346
20   0.15892
21   0.156512
22   0.157866
23   0.156261
24   0.152399
25   0.162444
26   0.175257
27   0.155434
28   0.172335
29   0.159344
30   0.158595
31   0.158829
32   0.15537
33   0.18426
34   0.152249
35   0.3531

$$$$
PCCDB-ID:  4989
     RDKit          3D

 28 29  0  0  0  0  0  0  0  0999 V2000
    0.9964   -0.6610    0.0893 C   0  0  0  0  0  0  0  0  0  0  0  0
   -0.0459    6.0471   -0.4051 C   0  0  0  0  0  0  0  0  0  0  0  0
    4.6943   -1.2089   -0.4539 C   0  0  0  0  0  0  0  0  0  0  0  0
    0.4382    4.7172   -0.5301 C   0  0  0  0  0  0  0  0  0  0  0  0
    2.3501    3.2545    0.3862 C   0  0  0  0  0  0  0  0  0  0  0  0
    2.0666    2.0530   -0.1532 C   0  0  0  0  0  0  0  0  0  0  0  0
    5.1053   -0.0224    0.4218 C   0  0  0  0  0  0  0  0  0  0  0  0
    3.2419   -1.5597   -0.1505 C   0  0  0  0  0  0  0  0  0  0  0  0
    0.7086    6.8125    0.4461 C   0  0  0  0  0  0  0  0  0  0  0  0
    1.5639    4.4629    0.2288 C   0  0  0  0  0  0  0  0  0  0  0  0
    2.9645    0.8852    0.0116 C   0  0  0  0  0  0  0  0  0  0  0  0
    4.2093    1.1146    0.2656 N   0  0  0  0  0  0  0  0  0  0  0  0
    2.3911   -0.3727   -0.2046 N   0  0  0  0  0  0  0  0  0  0  0  0
    2.0271    5.9097    1.1089 S   0  0  0  0  0  0  0  0  0  0  0  0
    0.5878   -1.3495   -0.6618 H   0  0  0  0  0  0  0  0  0  0  0  0
    0.3930    0.2455    0.0897 H   0  0  0  0  0  0  0  0  0  0  0  0
    0.8851   -1.1379    1.0773 H   0  0  0  0  0  0  0  0  0  0  0  0
   -0.9172    6.4234   -0.9305 H   0  0  0  0  0  0  0  0  0  0  0  0
    5.3323   -2.0831   -0.2789 H   0  0  0  0  0  0  0  0  0  0  0  0
    4.7959   -0.9312   -1.5102 H   0  0  0  0  0  0  0  0  0  0  0  0
   -0.0258    3.9695   -1.1644 H   0  0  0  0  0  0  0  0  0  0  0  0
    3.2562    3.3220    0.9843 H   0  0  0  0  0  0  0  0  0  0  0  0
    1.1790    1.9264   -0.7664 H   0  0  0  0  0  0  0  0  0  0  0  0
    6.1216    0.3061    0.1728 H   0  0  0  0  0  0  0  0  0  0  0  0
    5.1329   -0.3314    1.4800 H   0  0  0  0  0  0  0  0  0  0  0  0
    3.1687   -2.0290    0.8463 H   0  0  0  0  0  0  0  0  0  0  0  0
    2.8533   -2.2925   -0.8718 H   0  0  0  0  0  0  0  0  0  0  0  0
    0.5664    7.8493    0.7192 H   0  0  0  0  0  0  0  0  0  0  0  0
  1 16  1  0
  1 17  1  0
  2  9  2  0
  3 19  1  0
  3  8  1  0
  3  7  1  0
  4  2  1  0
  4 10  2  0
  5 22  1  0
  6 11  1  0
  6  5  2  0
  7 25  1  0
  8 26  1  0
  9 28  1  0
  9 14  1  0
 10  5  1  0
 10 14  1  0
 11 12  2  0
 12  7  1  0
 13  8  1  0
 13 11  1  0
 13  1  1  0
 15  1  1  0
 18  2  1  0
 20  3  1  0
 21  4  1  0
 23  6  1  0
 24  7  1  0
 27  8  1  0
M  END
>  <HBA>  (769) 
3

>  <HBD>  (769) 
0

>  <TPSA>  (769) 
43.84

>  <cid>  (769) 
4989

>  <dipole>  (769) 
2.87

>  <excitation_energy_1>  (769) 
3.529

>  <excitation_energy_2>  (769) 
4.056

>  <excitation_energy_3>  (769) 
4.126

>  <excitation_energy_4>  (769) 
4.816

>  <homo_energy>  (769) 
-5.323

>  <homo_lumo_gap>  (769) 
4.019

>  <logP>  (769) 
1.869

>  <lumo_energy>  (769) 
-1.303

>  <melting_point>  (769) 
65.83

>  <molecular_refractivity>  (769) 
70.15

>  <oscillator_strength_1>  (769) 
0.1148

>  <oscillator_strength_2>  (769) 
0.416

>  <oscillator_strength_3>  (769) 
0.1946

>  <oscillator_strength_4>  (769) 
0.0074

>  <open_babel_can_smiles>  (769) 
CN1CCCN=C1/C=C/c1cccs1

>  <mulliken_charges>  (769) 
28
1   -0.309626
2   -0.098696
3   -0.299925
4   -0.12144
5   -0.116962
6   -0.183328
7   -0.139406
8   -0.114101
9   -0.346771
10   -0.139343
11   0.494527
12   -0.484212
13   -0.46067
14   0.256241
15   0.152317
16   0.166392
17   0.147084
18   0.141578
19   0.137156
20   0.154198
21   0.136632
22   0.16822
23   0.135007
24   0.141766
25   0.134133
26   0.133829
27   0.142271
28   0.173127

>  <lowdin_charges>  (769) 
28
1   -0.350571
2   -0.178352
3   -0.291331
4   -0.185669
5   -0.127126
6   -0.180313
7   -0.202894
8   -0.193377
9   -0.319286
10   -0.150155
11   0.085786
12   -0.253314
13   -0.136611
14   0.319835
15   0.149454
16   0.164503
17   0.139853
18   0.165982
19   0.151914
20   0.149983
21   0.165008
22   0.180044
23   0.155808
24   0.145151
25   0.136471
26   0.131049
27   0.146328
28   0.181832

$$$$
PCCDB-ID:  4994
     RDKit          3D

 25 25  0  0  0  0  0  0  0  0999 V2000
    1.1840    0.4445   -0.4946 C   0  0  0  0  0  0  0  0  0  0  0  0
    4.8865    0.8046    3.1572 C   0  0  0  0  0  0  0  0  0  0  0  0
    2.4463   -0.0955    0.1860 C   0  0  0  0  0  0  0  0  0  0  0  0
    4.2540    0.0798    1.9647 C   0  0  0  0  0  0  0  0  0  0  0  0
    1.2139    1.6980    3.0729 C   0  0  0  0  0  0  0  0  0  0  0  0
    1.5642    2.9171    2.5914 C   0  0  0  0  0  0  0  0  0  0  0  0
    1.8480    0.5015    2.5515 C   0  0  0  0  0  0  0  0  0  0  0  0
    3.1179    2.1657    1.0966 C   0  0  0  0  0  0  0  0  0  0  0  0
    2.9188    0.6983    1.4449 C   0  0  0  0  0  0  0  0  0  0  0  0
    2.5100    3.1766    1.6074 N   0  0  0  0  0  0  0  0  0  0  0  0
    1.5862   -0.6357    2.9315 O   0  0  0  0  0  0  0  0  0  0  0  0
    4.0315    2.4510    0.1450 O   0  0  0  0  0  0  0  0  0  0  0  0
    0.9182   -0.1870   -1.3487 H   0  0  0  0  0  0  0  0  0  0  0  0
    1.3239    1.4659   -0.8660 H   0  0  0  0  0  0  0  0  0  0  0  0
    0.3315    0.4484    0.1927 H   0  0  0  0  0  0  0  0  0  0  0  0
    5.8034    0.2923    3.4678 H   0  0  0  0  0  0  0  0  0  0  0  0
    4.2093    0.8207    4.0175 H   0  0  0  0  0  0  0  0  0  0  0  0
    5.1501    1.8399    2.9135 H   0  0  0  0  0  0  0  0  0  0  0  0
    3.2678   -0.1419   -0.5441 H   0  0  0  0  0  0  0  0  0  0  0  0
    2.2761   -1.1214    0.5285 H   0  0  0  0  0  0  0  0  0  0  0  0
    4.0183   -0.9541    2.2370 H   0  0  0  0  0  0  0  0  0  0  0  0
    4.9775    0.0266    1.1380 H   0  0  0  0  0  0  0  0  0  0  0  0
    0.4619    1.5840    3.8464 H   0  0  0  0  0  0  0  0  0  0  0  0
    1.0878    3.8145    2.9810 H   0  0  0  0  0  0  0  0  0  0  0  0
    4.4331    1.6270   -0.1741 H   0  0  0  0  0  0  0  0  0  0  0  0
  1  3  1  0
  1 15  1  0
  2 16  1  0
  2 17  1  0
  3 20  1  0
  3  9  1  0
  4 21  1  0
  4  2  1  0
  5 23  1  0
  6 24  1  0
  6  5  2  0
  7 11  2  0
  7  5  1  0
  8  9  1  0
  8 10  2  0
  9  4  1  0
  9  7  1  0
 10  6  1  0
 12  8  1  0
 13  1  1  0
 14  1  1  0
 18  2  1  0
 19  3  1  0
 22  4  1  0
 25 12  1  0
M  END
>  <HBA>  (770) 
3

>  <HBD>  (770) 
1

>  <TPSA>  (770) 
46.17

>  <cid>  (770) 
4994

>  <dipole>  (770) 
2.11

>  <excitation_energy_1>  (770) 
3.407

>  <excitation_energy_2>  (770) 
4.092

>  <excitation_energy_3>  (770) 
4.101

>  <excitation_energy_4>  (770) 
5.598

>  <homo_energy>  (770) 
-6.514

>  <homo_lumo_gap>  (770) 
4.55

>  <logP>  (770) 
1.334

>  <lumo_energy>  (770) 
-1.965

>  <melting_point>  (770) 
92.46

>  <molecular_refractivity>  (770) 
49.65

>  <oscillator_strength_1>  (770) 
0.0007

>  <oscillator_strength_2>  (770) 
0.0036

>  <oscillator_strength_3>  (770) 
0.1154

>  <oscillator_strength_4>  (770) 
0.0007

>  <open_babel_can_smiles>  (770) 
CCC1(CC)C(=O)C=CN=C1O

>  <mulliken_charges>  (770) 
25
1   -0.465095
2   -0.46533
3   -0.268834
4   -0.268845
5   -0.186442
6   0.025196
7   0.460901
8   0.550047
9   -0.12249
10   -0.468704
11   -0.513025
12   -0.576449
13   0.155427
14   0.162609
15   0.167896
16   0.155362
17   0.168173
18   0.162527
19   0.118071
20   0.182392
21   0.182375
22   0.117798
23   0.147268
24   0.157218
25   0.421954

>  <lowdin_charges>  (770) 
25
1   -0.452066
2   -0.451568
3   -0.263769
4   -0.263572
5   -0.23988
6   -0.049997
7   0.146249
8   0.163291
9   -0.06136
10   -0.193091
11   -0.264712
12   -0.326093
13   0.159236
14   0.155303
15   0.161013
16   0.158791
17   0.161124
18   0.155097
19   0.133974
20   0.167977
21   0.167873
22   0.133799
23   0.175213
24   0.165909
25   0.361257

$$$$
PCCDB-ID:  5011
     RDKit          3D

 31 33  0  0  0  0  0  0  0  0999 V2000
    2.4422    0.5267    0.1078 C   0  0  0  0  0  0  0  0  0  0  0  0
    2.2724   -0.8531    0.3731 C   0  0  0  0  0  0  0  0  0  0  0  0
    1.3408    1.3186   -0.1410 C   0  0  0  0  0  0  0  0  0  0  0  0
    1.0158   -1.4207    0.3880 C   0  0  0  0  0  0  0  0  0  0  0  0
   -1.1432    1.5096   -0.3797 C   0  0  0  0  0  0  0  0  0  0  0  0
   -2.3689    0.9037   -0.3531 C   0  0  0  0  0  0  0  0  0  0  0  0
   -4.9509   -3.0671    0.8858 C   0  0  0  0  0  0  0  0  0  0  0  0
   -6.1290   -1.1212    0.1224 C   0  0  0  0  0  0  0  0  0  0  0  0
   -3.6837   -2.6147    0.1637 C   0  0  0  0  0  0  0  0  0  0  0  0
   -4.8821   -0.6317   -0.6179 C   0  0  0  0  0  0  0  0  0  0  0  0
    0.0392    0.7620   -0.1319 C   0  0  0  0  0  0  0  0  0  0  0  0
   -0.1367   -0.6302    0.1362 C   0  0  0  0  0  0  0  0  0  0  0  0
   -2.4475   -0.5056   -0.0735 C   0  0  0  0  0  0  0  0  0  0  0  0
   -6.1272   -2.5807    0.1632 N   0  0  0  0  0  0  0  0  0  0  0  0
   -1.3588   -1.2296    0.1508 N   0  0  0  0  0  0  0  0  0  0  0  0
   -3.6725   -1.1550    0.0170 N   0  0  0  0  0  0  0  0  0  0  0  0
    3.4397    0.9571    0.1007 H   0  0  0  0  0  0  0  0  0  0  0  0
    3.1455   -1.4706    0.5680 H   0  0  0  0  0  0  0  0  0  0  0  0
    1.4577    2.3809   -0.3453 H   0  0  0  0  0  0  0  0  0  0  0  0
    0.8703   -2.4776    0.5893 H   0  0  0  0  0  0  0  0  0  0  0  0
   -1.0669    2.5752   -0.5854 H   0  0  0  0  0  0  0  0  0  0  0  0
   -3.2579    1.4941   -0.5340 H   0  0  0  0  0  0  0  0  0  0  0  0
   -4.9114   -2.7054    1.9311 H   0  0  0  0  0  0  0  0  0  0  0  0
   -4.9758   -4.1625    0.9087 H   0  0  0  0  0  0  0  0  0  0  0  0
   -7.0202   -0.7776   -0.4155 H   0  0  0  0  0  0  0  0  0  0  0  0
   -6.1385   -0.6607    1.1294 H   0  0  0  0  0  0  0  0  0  0  0  0
   -3.6369   -3.0947   -0.8272 H   0  0  0  0  0  0  0  0  0  0  0  0
   -2.7939   -2.9060    0.7193 H   0  0  0  0  0  0  0  0  0  0  0  0
   -4.8785    0.4581   -0.6040 H   0  0  0  0  0  0  0  0  0  0  0  0
   -4.9366   -0.9604   -1.6691 H   0  0  0  0  0  0  0  0  0  0  0  0
   -6.9764   -2.9156    0.6133 H   0  0  0  0  0  0  0  0  0  0  0  0
  1  2  2  0
  2  4  1  0
  2 18  1  0
  3 11  2  0
  3  1  1  0
  4 20  1  0
  5  6  2  0
  5 11  1  0
  6 13  1  0
  7 24  1  0
  7 23  1  0
  8 14  1  0
  8 26  1  0
  9 28  1  0
  9  7  1  0
 10 29  1  0
 10 16  1  0
 10  8  1  0
 11 12  1  0
 12 15  1  0
 12  4  2  0
 13 16  1  0
 13 15  2  0
 14 31  1  0
 14  7  1  0
 16  9  1  0
 17  1  1  0
 19  3  1  0
 21  5  1  0
 22  6  1  0
 25  8  1  0
 27  9  1  0
 30 10  1  0
M  END
>  <HBA>  (771) 
3

>  <HBD>  (771) 
1

>  <TPSA>  (771) 
28.16

>  <cid>  (771) 
5011

>  <dipole>  (771) 
2.32

>  <excitation_energy_1>  (771) 
3.705

>  <excitation_energy_2>  (771) 
4.463

>  <excitation_energy_3>  (771) 
4.517

>  <excitation_energy_4>  (771) 
4.684

>  <homo_energy>  (771) 
-5.279

>  <homo_lumo_gap>  (771) 
4.308

>  <logP>  (771) 
2.038

>  <lumo_energy>  (771) 
-0.971

>  <melting_point>  (771) 
121.93

>  <molecular_refractivity>  (771) 
73.1

>  <oscillator_strength_1>  (771) 
0.0963

>  <oscillator_strength_2>  (771) 
0.0079

>  <oscillator_strength_3>  (771) 
0.001

>  <oscillator_strength_4>  (771) 
0.0096

>  <open_babel_can_smiles>  (771) 
N1CCN(CC1)c1ccc2c(n1)cccc2

>  <mulliken_charges>  (771) 
31
1   -0.1392
2   -0.136673
3   -0.199598
4   -0.152494
5   -0.154775
6   -0.193772
7   -0.142633
8   -0.132167
9   -0.11621
10   -0.125158
11   0.147823
12   0.258464
13   0.539443
14   -0.551367
15   -0.630083
16   -0.499218
17   0.125707
18   0.127681
19   0.125501
20   0.13169
21   0.135152
22   0.132805
23   0.121504
24   0.141312
25   0.139964
26   0.120586
27   0.14137
28   0.186517
29   0.150012
30   0.148444
31   0.299373

>  <lowdin_charges>  (771) 
31
1   -0.17092
2   -0.152798
3   -0.15367
4   -0.162966
5   -0.121482
6   -0.209221
7   -0.206523
8   -0.209223
9   -0.200291
10   -0.193844
11   -0.03551
12   0.052576
13   0.105482
14   -0.3689
15   -0.20689
16   -0.120083
17   0.156173
18   0.15827
19   0.153355
20   0.161971
21   0.158344
22   0.162369
23   0.120591
24   0.147526
25   0.149467
26   0.121014
27   0.139712
28   0.17689
29   0.152153
30   0.139415
31   0.257015

$$$$
PCCDB-ID:  5054
     RDKit          3D

 14 14  0  0  0  0  0  0  0  0999 V2000
   -0.7585    1.1606   -0.0176 C   0  0  0  0  0  0  0  0  0  0  0  0
   -1.3988   -0.0775   -0.0281 C   0  0  0  0  0  0  0  0  0  0  0  0
    0.6323    1.2519   -0.0333 C   0  0  0  0  0  0  0  0  0  0  0  0
    0.7700   -1.1750   -0.0708 C   0  0  0  0  0  0  0  0  0  0  0  0
   -0.6235   -1.2443   -0.0542 C   0  0  0  0  0  0  0  0  0  0  0  0
    1.3914    0.0744   -0.0598 C   0  0  0  0  0  0  0  0  0  0  0  0
   -1.1816   -2.4931   -0.0649 O   0  0  0  0  0  0  0  0  0  0  0  0
    2.7590    0.0864   -0.0769 O   0  0  0  0  0  0  0  0  0  0  0  0
   -1.3534    2.0697    0.0014 H   0  0  0  0  0  0  0  0  0  0  0  0
   -2.4848   -0.1399   -0.0158 H   0  0  0  0  0  0  0  0  0  0  0  0
    1.1242    2.2222   -0.0251 H   0  0  0  0  0  0  0  0  0  0  0  0
    1.3635   -2.0818   -0.0932 H   0  0  0  0  0  0  0  0  0  0  0  0
   -2.1470   -2.4032   -0.0585 H   0  0  0  0  0  0  0  0  0  0  0  0
    3.0629    1.0072   -0.0667 H   0  0  0  0  0  0  0  0  0  0  0  0
  1  9  1  0
  2  1  2  0
  2 10  1  0
  3 11  1  0
  3  1  1  0
  4  6  1  0
  4  5  2  0
  5  2  1  0
  6  3  2  0
  7 13  1  0
  7  5  1  0
  8 14  1  0
  8  6  1  0
 12  4  1  0
M  END
>  <HBA>  (772) 
2

>  <HBD>  (772) 
2

>  <TPSA>  (772) 
40.46

>  <cid>  (772) 
5054

>  <dipole>  (772) 
2.33

>  <excitation_energy_1>  (772) 
5.03

>  <excitation_energy_2>  (772) 
5.132

>  <excitation_energy_3>  (772) 
5.364

>  <excitation_energy_4>  (772) 
5.62

>  <homo_energy>  (772) 
-5.831

>  <homo_lumo_gap>  (772) 
6.016

>  <logP>  (772) 
1.098

>  <lumo_energy>  (772) 
0.185

>  <melting_point>  (772) 
84.26

>  <molecular_refractivity>  (772) 
30.49

>  <oscillator_strength_1>  (772) 
0.0228

>  <oscillator_strength_2>  (772) 
0.0

>  <oscillator_strength_3>  (772) 
0.0017

>  <oscillator_strength_4>  (772) 
0.0042

>  <open_babel_can_smiles>  (772) 
Oc1cccc(c1)O

>  <mulliken_charges>  (772) 
14
1   -0.136835
2   -0.202434
3   -0.202458
4   -0.202698
5   0.35364
6   0.353551
7   -0.643237
8   -0.643157
9   0.131804
10   0.114365
11   0.114334
12   0.1485
13   0.407315
14   0.40731

>  <lowdin_charges>  (772) 
14
1   -0.135062
2   -0.235647
3   -0.238606
4   -0.218955
5   0.113096
6   0.115709
7   -0.374691
8   -0.377196
9   0.160016
10   0.150563
11   0.152522
12   0.176948
13   0.355332
14   0.35597

$$$$
PCCDB-ID:  5055
     RDKit          3D

 19 19  0  0  0  0  0  0  0  0999 V2000
    2.0256   -2.3525   -1.2925 C   0  0  0  0  0  0  0  0  0  0  0  0
    7.7349   -2.0449   -0.3534 C   0  0  0  0  0  0  0  0  0  0  0  0
    8.2568   -0.8001   -0.7062 C   0  0  0  0  0  0  0  0  0  0  0  0
    6.3659   -2.3017   -0.4136 C   0  0  0  0  0  0  0  0  0  0  0  0
    6.0155   -0.0241   -1.2032 C   0  0  0  0  0  0  0  0  0  0  0  0
    3.5235   -2.5050   -1.4019 C   0  0  0  0  0  0  0  0  0  0  0  0
    7.3906    0.2130   -1.1303 C   0  0  0  0  0  0  0  0  0  0  0  0
    5.5239   -1.2753   -0.8462 C   0  0  0  0  0  0  0  0  0  0  0  0
    4.1064   -3.4443   -1.8827 O   0  0  0  0  0  0  0  0  0  0  0  0
    7.8260    1.4590   -1.4875 O   0  0  0  0  0  0  0  0  0  0  0  0
    4.1328   -1.3977   -0.8696 O   0  0  0  0  0  0  0  0  0  0  0  0
    1.5412   -3.2374   -1.7061 H   0  0  0  0  0  0  0  0  0  0  0  0
    1.6977   -1.4598   -1.8351 H   0  0  0  0  0  0  0  0  0  0  0  0
    1.7359   -2.2220   -0.2447 H   0  0  0  0  0  0  0  0  0  0  0  0
    8.4092   -2.8303   -0.0240 H   0  0  0  0  0  0  0  0  0  0  0  0
    9.3278   -0.6158   -0.6509 H   0  0  0  0  0  0  0  0  0  0  0  0
    5.9657   -3.2702   -0.1462 H   0  0  0  0  0  0  0  0  0  0  0  0
    5.3416    0.7602   -1.5287 H   0  0  0  0  0  0  0  0  0  0  0  0
    8.7916    1.4897   -1.4036 H   0  0  0  0  0  0  0  0  0  0  0  0
  1 14  1  0
  2 15  1  0
  3 16  1  0
  3  2  2  0
  4  2  1  0
  4 17  1  0
  5  7  2  0
  5  8  1  0
  6  1  1  0
  6 11  1  0
  7  3  1  0
  8  4  2  0
  9  6  2  0
 10 19  1  0
 10  7  1  0
 11  8  1  0
 12  1  1  0
 13  1  1  0
 18  5  1  0
M  END
>  <HBA>  (773) 
3

>  <HBD>  (773) 
1

>  <TPSA>  (773) 
46.53

>  <cid>  (773) 
5055

>  <dipole>  (773) 
1.55

>  <excitation_energy_1>  (773) 
4.923

>  <excitation_energy_2>  (773) 
5.313

>  <excitation_energy_3>  (773) 
5.418

>  <excitation_energy_4>  (773) 
5.556

>  <homo_energy>  (773) 
-6.082

>  <homo_lumo_gap>  (773) 
5.793

>  <logP>  (773) 
1.317

>  <lumo_energy>  (773) 
-0.288

>  <melting_point>  (773) 
70.12

>  <molecular_refractivity>  (773) 
39.96

>  <oscillator_strength_1>  (773) 
0.0366

>  <oscillator_strength_2>  (773) 
0.0004

>  <oscillator_strength_3>  (773) 
0.0166

>  <oscillator_strength_4>  (773) 
0.0371

>  <open_babel_can_smiles>  (773) 
CC(=O)Oc1cccc(c1)O

>  <mulliken_charges>  (773) 
19
1   -0.525328
2   -0.148067
3   -0.189809
4   -0.145321
5   -0.206853
6   0.592426
7   0.351145
8   0.349611
9   -0.443158
10   -0.642886
11   -0.516284
12   0.184728
13   0.186023
14   0.185279
15   0.138106
16   0.119785
17   0.152245
18   0.149383
19   0.408976

>  <lowdin_charges>  (773) 
19
1   -0.463801
2   -0.138701
3   -0.219587
4   -0.19164
5   -0.203272
6   0.211068
7   0.108912
8   0.115484
9   -0.24002
10   -0.374332
11   -0.167281
12   0.177491
13   0.180776
14   0.17872
15   0.16382
16   0.15316
17   0.174785
18   0.177855
19   0.356561

$$$$
PCCDB-ID:  5080
     RDKit          3D

 23 24  0  0  1  0  0  0  0  0999 V2000
    1.5999    0.4399    0.0416 C   0  0  0  0  0  0  0  0  0  0  0  0
   -0.1790   -3.5233    0.8102 C   0  0  0  0  0  0  0  0  0  0  0  0
    0.6326   -4.6830    0.5145 C   0  0  0  0  0  0  0  0  0  0  0  0
    0.3587   -2.2780    0.7650 C   0  0  0  0  0  0  0  0  0  0  0  0
    1.9679   -4.5797    0.2877 C   0  0  0  0  0  0  0  0  0  0  0  0
    4.6746   -0.9480    0.0260 C   0  0  0  0  0  0  0  0  0  0  0  0
    2.2546   -0.9030   -0.0720 C   0  0  0  0  0  3  0  0  0  0  0  0
    1.7516   -2.0901    0.3989 C   0  0  0  0  0  0  0  0  0  0  0  0
    2.6374   -3.2935    0.3998 C   0  0  0  0  0  0  0  0  0  0  0  0
    4.7001   -2.1922    0.9436 C   0  0  0  0  0  0  0  0  0  0  0  0
    3.4754   -0.9018   -0.8113 N   0  0  0  0  0  0  0  0  0  0  0  0
    3.9300   -3.3017    0.5918 N   0  0  0  0  0  2  0  0  0  0  0  0
    5.4239   -2.2029    1.9234 O   0  0  0  0  0  0  0  0  0  0  0  0
    2.3596    1.1893    0.2940 H   0  0  0  0  0  0  0  0  0  0  0  0
    0.8108    0.4737    0.7959 H   0  0  0  0  0  0  0  0  0  0  0  0
    1.1807    0.7449   -0.9265 H   0  0  0  0  0  0  0  0  0  0  0  0
   -1.2322   -3.6596    1.0368 H   0  0  0  0  0  0  0  0  0  0  0  0
    0.1589   -5.6614    0.5078 H   0  0  0  0  0  0  0  0  0  0  0  0
   -0.2664   -1.4049    0.9240 H   0  0  0  0  0  0  0  0  0  0  0  0
    2.5969   -5.4515    0.1385 H   0  0  0  0  0  0  0  0  0  0  0  0
    5.5621   -0.9356   -0.6181 H   0  0  0  0  0  0  0  0  0  0  0  0
    4.7336   -0.0707    0.6784 H   0  0  0  0  0  0  0  0  0  0  0  0
    3.4987   -1.7494   -1.3795 H   0  0  0  0  0  0  0  0  0  0  0  0
  1 14  1  0
  1 15  1  0
  2 17  1  0
  3  2  2  0
  4  2  1  0
  4 19  1  0
  5  9  2  0
  5  3  1  0
  6 22  1  0
  6 10  1  0
  7  1  1  0
  7  8  1  0
  8  9  1  0
  8  4  2  0
  9 12  1  0
 10 13  2  0
 11  7  1  0
 11  6  1  0
 12 10  1  0
 16  1  1  0
 18  3  1  0
 20  5  1  0
 21  6  1  0
 23 11  1  0
M  RAD  2   7   2  12   2
M  END
>  <HBA>  (774) 
3

>  <HBD>  (774) 
1

>  <TPSA>  (774) 
41.46

>  <cid>  (774) 
5080

>  <dipole>  (774) 
4.99

>  <excitation_energy_1>  (774) 
2.622

>  <excitation_energy_2>  (774) 
2.916

>  <excitation_energy_3>  (774) 
3.56

>  <excitation_energy_4>  (774) 
4.176

>  <homo_energy>  (774) 
-5.848

>  <homo_lumo_gap>  (774) 
3.23

>  <logP>  (774) 
-0.671

>  <lumo_energy>  (774) 
-2.618

>  <melting_point>  (774) 
119.25

>  <molecular_refractivity>  (774) 
56.35

>  <oscillator_strength_1>  (774) 
0.0195

>  <oscillator_strength_2>  (774) 
0.065

>  <oscillator_strength_3>  (774) 
0.0076

>  <oscillator_strength_4>  (774) 
0.0299

>  <open_babel_can_smiles>  (774) 
O=C1CN[C](c2c([N]1)cccc2)C

>  <mulliken_charges>  (774) 
23
1   -0.496002
2   -0.138467
3   -0.124065
4   -0.165386
5   -0.135004
6   -0.2402
7   0.16573
8   0.133956
9   0.199599
10   0.507949
11   -0.569862
12   -0.487963
13   -0.44435
14   0.177107
15   0.165451
16   0.182482
17   0.139475
18   0.144717
19   0.140887
20   0.154531
21   0.183718
22   0.185912
23   0.319786

>  <lowdin_charges>  (774) 
23
1   -0.44276
2   -0.168789
3   -0.133042
4   -0.144584
5   -0.166021
6   -0.238423
7   0.087969
8   -0.069269
9   0.078206
10   0.145229
11   -0.315032
12   -0.184605
13   -0.24521
14   0.175467
15   0.162144
16   0.175876
17   0.161889
18   0.165306
19   0.164797
20   0.175034
21   0.173722
22   0.173244
23   0.26885

$$$$
PCCDB-ID:  5094
     RDKit          3D

 22 22  0  0  0  0  0  0  0  0999 V2000
    0.9714    0.3136   -0.1796 C   0  0  0  0  0  0  0  0  0  0  0  0
    4.6069    0.7312   -0.1893 C   0  0  0  0  0  0  0  0  0  0  0  0
    2.6559   -2.2529    0.1766 C   0  0  0  0  0  0  0  0  0  0  0  0
    3.1986   -0.8695    0.0237 C   0  0  0  0  0  0  0  0  0  0  0  0
    3.3457    1.2854   -0.2847 C   0  0  0  0  0  0  0  0  0  0  0  0
    1.3137   -3.4953    1.6593 C   0  0  0  0  0  0  0  0  0  0  0  0
    1.5021   -4.5229    0.9352 N   0  0  0  0  0  0  0  0  0  0  0  0
    4.5037   -0.6063    0.0045 N   0  0  0  0  0  0  0  0  0  0  0  0
    2.4353    0.2488   -0.1505 N   0  0  0  0  0  0  0  0  0  0  0  0
    3.0020    2.6520   -0.4778 N   0  0  0  0  0  0  0  0  0  0  0  0
    0.5974   -3.3410    2.8009 O   0  0  0  0  0  0  0  0  0  0  0  0
    3.9378    3.4481   -0.5805 O   0  0  0  0  0  0  0  0  0  0  0  0
    1.8029    2.9572   -0.5326 O   0  0  0  0  0  0  0  0  0  0  0  0
    1.8450   -2.2954    1.3676 O   0  0  0  0  0  0  0  0  0  0  0  0
    0.5867   -0.6930   -0.0274 H   0  0  0  0  0  0  0  0  0  0  0  0
    0.6329    0.7146   -1.1356 H   0  0  0  0  0  0  0  0  0  0  0  0
    0.6104    0.9627    0.6186 H   0  0  0  0  0  0  0  0  0  0  0  0
    5.5535    1.2479   -0.2484 H   0  0  0  0  0  0  0  0  0  0  0  0
    3.4974   -2.9419    0.2658 H   0  0  0  0  0  0  0  0  0  0  0  0
    2.0496   -2.5674   -0.6803 H   0  0  0  0  0  0  0  0  0  0  0  0
    1.0307   -5.3527    1.2929 H   0  0  0  0  0  0  0  0  0  0  0  0
    0.2131   -4.1979    3.0421 H   0  0  0  0  0  0  0  0  0  0  0  0
  1  9  1  0
  1 15  1  0
  1 17  1  0
  2  8  1  0
  3 19  1  0
  3 14  1  0
  4  3  1  0
  5  2  2  0
  5  9  1  0
  6 11  1  0
  7 21  1  0
  7  6  2  0
  8  4  2  0
  9  4  1  0
 10  5  1  0
 11 22  1  0
 12 10  1  0
 13 10  2  0
 14  6  1  0
 16  1  1  0
 18  2  1  0
 20  3  1  0
M  CHG  2  10   1  12  -1
M  END
>  <HBA>  (775) 
5

>  <HBD>  (775) 
1

>  <TPSA>  (775) 
115.96

>  <cid>  (775) 
5094

>  <dipole>  (775) 
6.03

>  <excitation_energy_1>  (775) 
3.815

>  <excitation_energy_2>  (775) 
4.24

>  <excitation_energy_3>  (775) 
4.259

>  <excitation_energy_4>  (775) 
4.766

>  <homo_energy>  (775) 
-7.121

>  <homo_lumo_gap>  (775) 
4.735

>  <logP>  (775) 
1.147

>  <lumo_energy>  (775) 
-2.386

>  <melting_point>  (775) 
141.98

>  <molecular_refractivity>  (775) 
46.47

>  <oscillator_strength_1>  (775) 
0.0

>  <oscillator_strength_2>  (775) 
0.0221

>  <oscillator_strength_3>  (775) 
0.2231

>  <oscillator_strength_4>  (775) 
0.0025

>  <open_babel_can_smiles>  (775) 
OC(=N)OCc1ncc(n1C)N(=O)=O

>  <mulliken_charges>  (775) 
22
1   -0.317255
2   0.009424
3   -0.108501
4   0.473538
5   0.492229
6   0.654246
7   -0.622916
8   -0.462089
9   -0.471537
10   0.334132
11   -0.566265
12   -0.39859
13   -0.421861
14   -0.450781
15   0.185362
16   0.195138
17   0.203917
18   0.181761
19   0.209333
20   0.181299
21   0.285402
22   0.414015

>  <lowdin_charges>  (775) 
22
1   -0.345061
2   -0.105812
3   -0.124474
4   0.057763
5   -0.006876
6   0.188352
7   -0.462234
8   -0.172023
9   0.011832
10   0.309812
11   -0.357389
12   -0.248836
13   -0.264135
14   -0.184902
15   0.173542
16   0.175878
17   0.182673
18   0.187437
19   0.188039
20   0.167809
21   0.263314
22   0.365292

$$$$
PCCDB-ID:  5115
     RDKit          3D

 23 23  0  0  1  0  0  0  0  0999 V2000
   -0.7619    0.9293   -0.3756 C   0  0  0  0  0  0  0  0  0  0  0  0
    1.2453   -0.2294    0.3044 C   0  0  0  0  0  0  0  0  0  0  0  0
   -1.4498   -0.2798   -0.4114 C   0  0  0  0  0  0  0  0  0  0  0  0
    0.5633   -1.4428    0.2686 C   0  0  0  0  0  0  0  0  0  0  0  0
    0.5928    0.9710   -0.0186 C   0  0  0  0  0  0  0  0  0  0  0  0
   -0.7911   -1.4729   -0.0901 C   0  0  0  0  0  0  0  0  0  0  0  0
    1.3551    2.2883   -0.0203 C   0  0  1  0  0  0  0  0  0  0  0  0
   -1.5735   -2.7379   -0.1413 C   0  0  0  0  0  0  0  0  0  0  0  0
    2.1947    2.4880    1.2675 C   0  0  0  0  0  0  0  0  0  0  0  0
    2.1393    2.4336   -1.2425 N   0  0  0  0  0  0  0  0  0  0  0  0
   -0.8352   -3.8302    0.1796 O   0  0  0  0  0  0  0  0  0  0  0  0
   -2.7489   -2.8138   -0.4362 O   0  0  0  0  0  0  0  0  0  0  0  0
    3.3214    2.9178    1.2572 O   0  0  0  0  0  0  0  0  0  0  0  0
    1.5669    2.2178    2.4382 O   0  0  0  0  0  0  0  0  0  0  0  0
   -1.2746    1.8509   -0.6385 H   0  0  0  0  0  0  0  0  0  0  0  0
    2.2939   -0.2156    0.5937 H   0  0  0  0  0  0  0  0  0  0  0  0
   -2.4985   -0.3203   -0.6865 H   0  0  0  0  0  0  0  0  0  0  0  0
    1.0747   -2.3652    0.5197 H   0  0  0  0  0  0  0  0  0  0  0  0
    0.6168    3.1046   -0.0042 H   0  0  0  0  0  0  0  0  0  0  0  0
    2.7387    1.6154   -1.3500 H   0  0  0  0  0  0  0  0  0  0  0  0
    2.7793    3.2179   -1.1117 H   0  0  0  0  0  0  0  0  0  0  0  0
   -1.4425   -4.5902    0.1125 H   0  0  0  0  0  0  0  0  0  0  0  0
    0.7015    1.8100    2.2576 H   0  0  0  0  0  0  0  0  0  0  0  0
  1  5  2  0
  2 16  1  0
  3  1  1  0
  3  6  2  0
  4  2  2  0
  4 18  1  0
  5  2  1  0
  6  4  1  0
  7  5  1  0
  7 19  1  6
  7  9  1  0
  8  6  1  0
  8 11  1  0
  9 14  1  0
 10 21  1  0
 10  7  1  0
 12  8  2  0
 13  9  2  0
 15  1  1  0
 17  3  1  0
 20 10  1  0
 22 11  1  0
 23 14  1  0
M  END
>  <HBA>  (776) 
5

>  <HBD>  (776) 
3

>  <TPSA>  (776) 
100.62

>  <cid>  (776) 
5115

>  <dipole>  (776) 
2.06

>  <excitation_energy_1>  (776) 
4.405

>  <excitation_energy_2>  (776) 
4.765

>  <excitation_energy_3>  (776) 
4.886

>  <excitation_energy_4>  (776) 
5.162

>  <homo_energy>  (776) 
-6.925

>  <homo_lumo_gap>  (776) 
5.105

>  <logP>  (776) 
1.169

>  <lumo_energy>  (776) 
-1.82

>  <melting_point>  (776) 
230.22

>  <molecular_refractivity>  (776) 
47.65

>  <oscillator_strength_1>  (776) 
0.0026

>  <oscillator_strength_2>  (776) 
0.0001

>  <oscillator_strength_3>  (776) 
0.0202

>  <oscillator_strength_4>  (776) 
0.2508

>  <open_babel_can_smiles>  (776) 
N[C@@H](c1ccc(cc1)C(=O)O)C(=O)O

>  <mulliken_charges>  (776) 
23
1   -0.187213
2   -0.186328
3   -0.153922
4   -0.16102
5   0.123488
6   0.070864
7   -0.159571
8   0.542594
9   0.577904
10   -0.686291
11   -0.581189
12   -0.467939
13   -0.448273
14   -0.558741
15   0.149436
16   0.15559
17   0.173827
18   0.171037
19   0.170361
20   0.30486
21   0.319734
22   0.415988
23   0.414803

>  <lowdin_charges>  (776) 
23
1   -0.157975
2   -0.164885
3   -0.12192
4   -0.13276
5   -0.012625
6   -0.042047
7   -0.106876
8   0.19194
9   0.164826
10   -0.529023
11   -0.356915
12   -0.264834
13   -0.237782
14   -0.347593
15   0.167616
16   0.166425
17   0.180757
18   0.179427
19   0.165762
20   0.26086
21   0.269052
22   0.366884
23   0.361685

$$$$
PCCDB-ID:  5123
     RDKit          3D

 23 23  0  0  1  0  0  0  0  0999 V2000
    4.9511   -1.2416   -1.9877 C   0  0  0  0  0  0  0  0  0  0  0  0
    3.9942   -0.3341   -1.6412 C   0  0  0  0  0  0  0  0  0  0  0  0
    3.2576    1.7390   -0.5424 C   0  0  0  0  0  0  0  0  0  0  0  0
    3.2557    3.2121   -1.0367 C   0  0  1  0  0  0  0  0  0  0  0  0
    6.2920   -0.8932   -1.6453 C   0  0  0  0  0  0  0  0  0  0  0  0
    3.6848    3.3264   -2.5150 C   0  0  0  0  0  0  0  0  0  0  0  0
    5.6865    1.1775   -0.8141 C   0  0  0  0  0  0  0  0  0  0  0  0
    1.9008    3.7095   -0.8113 N   0  0  0  0  0  0  0  0  0  0  0  0
    6.6332    0.2404   -1.0900 N   0  0  0  0  0  0  0  0  0  0  0  0
    4.3180    0.8405   -1.0430 N   0  0  0  0  0  0  0  0  0  0  0  0
    7.3060   -1.7470   -1.8809 O   0  0  0  0  0  0  0  0  0  0  0  0
    2.8720    3.3461   -3.4140 O   0  0  0  0  0  0  0  0  0  0  0  0
    5.0022    3.4021   -2.7510 O   0  0  0  0  0  0  0  0  0  0  0  0
    5.9399    2.3113   -0.3929 O   0  0  0  0  0  0  0  0  0  0  0  0
    4.6879   -2.1739   -2.4733 H   0  0  0  0  0  0  0  0  0  0  0  0
    2.9385   -0.5079   -1.8196 H   0  0  0  0  0  0  0  0  0  0  0  0
    2.3045    1.2915   -0.8332 H   0  0  0  0  0  0  0  0  0  0  0  0
    3.3038    1.7538    0.5498 H   0  0  0  0  0  0  0  0  0  0  0  0
    3.9540    3.7764   -0.4172 H   0  0  0  0  0  0  0  0  0  0  0  0
    1.3659    3.5256   -1.6624 H   0  0  0  0  0  0  0  0  0  0  0  0
    1.9235    4.7229   -0.7149 H   0  0  0  0  0  0  0  0  0  0  0  0
    6.9649   -2.5543   -2.2978 H   0  0  0  0  0  0  0  0  0  0  0  0
    5.4993    3.2824   -1.9067 H   0  0  0  0  0  0  0  0  0  0  0  0
  1  5  1  0
  1  2  2  0
  2 10  1  0
  3 18  1  0
  4  8  1  0
  4  3  1  0
  4 19  1  1
  5  9  2  0
  6  4  1  0
  7 14  2  0
  8 21  1  0
  9  7  1  0
 10  7  1  0
 10  3  1  0
 11  5  1  0
 12  6  2  0
 13  6  1  0
 13 23  1  0
 15  1  1  0
 16  2  1  0
 17  3  1  0
 20  8  1  0
 22 11  1  0
M  END
>  <HBA>  (777) 
6

>  <HBD>  (777) 
3

>  <TPSA>  (777) 
118.18

>  <cid>  (777) 
5123

>  <dipole>  (777) 
5.94

>  <excitation_energy_1>  (777) 
4.575

>  <excitation_energy_2>  (777) 
4.791

>  <excitation_energy_3>  (777) 
4.917

>  <excitation_energy_4>  (777) 
5.16

>  <homo_energy>  (777) 
-6.817

>  <homo_lumo_gap>  (777) 
5.178

>  <logP>  (777) 
-1.351

>  <lumo_energy>  (777) 
-1.638

>  <melting_point>  (777) 
253.72

>  <molecular_refractivity>  (777) 
46.68

>  <oscillator_strength_1>  (777) 
0.0352

>  <oscillator_strength_2>  (777) 
0.036

>  <oscillator_strength_3>  (777) 
0.0028

>  <oscillator_strength_4>  (777) 
0.0006

>  <open_babel_can_smiles>  (777) 
OC(=O)[C@H](Cn1ccc(nc1=O)O)N

>  <mulliken_charges>  (777) 
23
1   -0.254131
2   0.124771
3   -0.119539
4   -0.112204
5   0.531539
6   0.576393
7   0.710822
8   -0.71283
9   -0.497787
10   -0.458327
11   -0.569233
12   -0.465626
13   -0.584703
14   -0.557177
15   0.153951
16   0.188942
17   0.168866
18   0.196955
19   0.181693
20   0.317993
21   0.311945
22   0.419513
23   0.448173

>  <lowdin_charges>  (777) 
23
1   -0.270844
2   -0.034709
3   -0.187453
4   -0.122592
5   0.170268
6   0.173108
7   0.178595
8   -0.535533
9   -0.183486
10   -0.041496
11   -0.320808
12   -0.26594
13   -0.351994
14   -0.336129
15   0.175497
16   0.180176
17   0.165804
18   0.17423
19   0.171409
20   0.2655
21   0.263189
22   0.366413
23   0.366794

$$$$
PCCDB-ID:  5126
     RDKit          3D

 14 13  0  0  1  0  0  0  0  0999 V2000
    1.0194   -0.0344   -0.1155 C   0  0  0  0  0  0  0  0  0  0  0  0
    3.0439   -1.4816    0.3249 C   0  0  0  0  0  0  0  0  0  0  0  0
    2.5476   -0.0839   -0.0861 C   0  0  1  0  0  0  0  0  0  0  0  0
    3.0764    0.3830   -1.3754 N   0  0  0  0  0  0  0  0  0  0  0  0
    4.4636   -1.5806    0.3590 O   0  0  0  0  0  0  0  0  0  0  0  0
    0.5945   -0.3053    0.8579 H   0  0  0  0  0  0  0  0  0  0  0  0
    0.6172   -0.7342   -0.8607 H   0  0  0  0  0  0  0  0  0  0  0  0
    0.6778    0.9704   -0.3798 H   0  0  0  0  0  0  0  0  0  0  0  0
    2.6115   -2.2389   -0.3535 H   0  0  0  0  0  0  0  0  0  0  0  0
    2.7064   -1.7191    1.3396 H   0  0  0  0  0  0  0  0  0  0  0  0
    2.9134    0.6257    0.6680 H   0  0  0  0  0  0  0  0  0  0  0  0
    2.8264   -0.2684   -2.1208 H   0  0  0  0  0  0  0  0  0  0  0  0
    4.0932    0.4350   -1.3431 H   0  0  0  0  0  0  0  0  0  0  0  0
    4.7752   -1.5100   -0.5565 H   0  0  0  0  0  0  0  0  0  0  0  0
  1  3  1  0
  1  6  1  0
  2  5  1  0
  2 10  1  0
  3  2  1  0
  3 11  1  1
  4 13  1  0
  4  3  1  0
  7  1  1  0
  8  1  1  0
  9  2  1  0
 12  4  1  0
 14  5  1  0
M  END
>  <HBA>  (778) 
2

>  <HBD>  (778) 
2

>  <TPSA>  (778) 
46.25

>  <cid>  (778) 
5126

>  <dipole>  (778) 
1.45

>  <excitation_energy_1>  (778) 
5.538

>  <excitation_energy_2>  (778) 
6.459

>  <excitation_energy_3>  (778) 
6.61

>  <excitation_energy_4>  (778) 
6.652

>  <homo_energy>  (778) 
-6.387

>  <homo_lumo_gap>  (778) 
7.856

>  <logP>  (778) 
0.026

>  <lumo_energy>  (778) 
1.469

>  <melting_point>  (778) 
48.3

>  <molecular_refractivity>  (778) 
20.4

>  <oscillator_strength_1>  (778) 
0.0306

>  <oscillator_strength_2>  (778) 
0.0173

>  <oscillator_strength_3>  (778) 
0.0204

>  <oscillator_strength_4>  (778) 
0.018

>  <open_babel_can_smiles>  (778) 
C[C@@H](CO)N

>  <mulliken_charges>  (778) 
14
1   -0.443827
2   -0.036585
3   0.013732
4   -0.712714
5   -0.611485
6   0.144302
7   0.134307
8   0.16521
9   0.107361
10   0.143844
11   0.142936
12   0.286202
13   0.291709
14   0.375008

>  <lowdin_charges>  (778) 
14
1   -0.448521
2   -0.15591
3   -0.082276
4   -0.549757
5   -0.467286
6   0.151735
7   0.14506
8   0.162296
9   0.121451
10   0.147825
11   0.146827
12   0.249679
13   0.248878
14   0.329999

$$$$
PCCDB-ID:  5144
     RDKit          3D

 22 23  0  0  0  0  0  0  0  0999 V2000
    1.5544   -0.9282    0.2571 C   0  0  0  0  0  0  0  0  0  0  0  0
    2.4451    0.0041   -0.0836 C   0  0  0  0  0  0  0  0  0  0  0  0
    3.2487    0.8280    0.8904 C   0  0  0  0  0  0  0  0  0  0  0  0
    5.3500   -0.5690    0.6162 C   0  0  0  0  0  0  0  0  0  0  0  0
    6.7391   -0.7328    0.4727 C   0  0  0  0  0  0  0  0  0  0  0  0
    5.5607    1.8519    0.6477 C   0  0  0  0  0  0  0  0  0  0  0  0
    9.1383    1.9433    0.2678 C   0  0  0  0  0  0  0  0  0  0  0  0
    4.7553    0.6946    0.7070 C   0  0  0  0  0  0  0  0  0  0  0  0
    7.5022    0.4168    0.4215 C   0  0  0  0  0  0  0  0  0  0  0  0
    6.9233    1.6785    0.5070 C   0  0  0  0  0  0  0  0  0  0  0  0
    8.8663    0.5375    0.2848 O   0  0  0  0  0  0  0  0  0  0  0  0
    7.8993    2.6447    0.4280 O   0  0  0  0  0  0  0  0  0  0  0  0
    0.9981   -1.4886   -0.4896 H   0  0  0  0  0  0  0  0  0  0  0  0
    1.3411   -1.1614    1.2986 H   0  0  0  0  0  0  0  0  0  0  0  0
    2.6339    0.2052   -1.1388 H   0  0  0  0  0  0  0  0  0  0  0  0
    2.9679    0.5472    1.9152 H   0  0  0  0  0  0  0  0  0  0  0  0
    2.9765    1.8870    0.7784 H   0  0  0  0  0  0  0  0  0  0  0  0
    4.7172   -1.4510    0.6511 H   0  0  0  0  0  0  0  0  0  0  0  0
    7.1936   -1.7153    0.4044 H   0  0  0  0  0  0  0  0  0  0  0  0
    5.1286    2.8457    0.7116 H   0  0  0  0  0  0  0  0  0  0  0  0
    9.5908    2.2166   -0.6938 H   0  0  0  0  0  0  0  0  0  0  0  0
    9.8099    2.1956    1.0972 H   0  0  0  0  0  0  0  0  0  0  0  0
  1 14  1  0
  2  1  2  3
  2  3  1  0
  3 16  1  0
  4 18  1  0
  4  8  2  0
  5  4  1  0
  6  8  1  0
  6 20  1  0
  7 11  1  0
  7 12  1  0
  7 22  1  0
  8  3  1  0
  9  5  2  0
  9 10  1  0
 10  6  2  0
 11  9  1  0
 12 10  1  0
 13  1  1  0
 15  2  1  0
 17  3  1  0
 19  5  1  0
 21  7  1  0
M  END
>  <HBA>  (779) 
2

>  <HBD>  (779) 
0

>  <TPSA>  (779) 
18.46

>  <cid>  (779) 
5144

>  <dipole>  (779) 
0.37

>  <excitation_energy_1>  (779) 
4.643

>  <excitation_energy_2>  (779) 
5.1

>  <excitation_energy_3>  (779) 
5.199

>  <excitation_energy_4>  (779) 
5.253

>  <homo_energy>  (779) 
-5.448

>  <homo_lumo_gap>  (779) 
5.483

>  <logP>  (779) 
2.144

>  <lumo_energy>  (779) 
0.035

>  <melting_point>  (779) 
20.68

>  <molecular_refractivity>  (779) 
46.61

>  <oscillator_strength_1>  (779) 
0.1195

>  <oscillator_strength_2>  (779) 
0.0188

>  <oscillator_strength_3>  (779) 
0.0146

>  <oscillator_strength_4>  (779) 
0.0262

>  <open_babel_can_smiles>  (779) 
C=CCc1ccc2c(c1)OCO2

>  <mulliken_charges>  (779) 
22
1   -0.347939
2   -0.030265
3   -0.389991
4   -0.192968
5   -0.182258
6   -0.251765
7   0.196038
8   0.156496
9   0.328688
10   0.337815
11   -0.533804
12   -0.535718
13   0.140564
14   0.136001
15   0.131861
16   0.155756
17   0.151603
18   0.134075
19   0.14296
20   0.136995
21   0.157246
22   0.158611

>  <lowdin_charges>  (779) 
22
1   -0.346068
2   -0.139779
3   -0.265441
4   -0.172804
5   -0.181752
6   -0.194399
7   0.019202
8   -0.009371
9   0.069617
10   0.070433
11   -0.211216
12   -0.208049
13   0.160479
14   0.152966
15   0.151983
16   0.156212
17   0.154467
18   0.164008
19   0.168958
20   0.165795
21   0.146143
22   0.148614

$$$$
PCCDB-ID:  5146
     RDKit          3D

 17 17  0  0  0  0  0  0  0  0999 V2000
   -1.4582   -0.2034   -0.1578 C   0  0  0  0  0  0  0  0  0  0  0  0
   -0.6280   -1.3182   -0.0607 C   0  0  0  0  0  0  0  0  0  0  0  0
   -0.8973    1.0767   -0.1267 C   0  0  0  0  0  0  0  0  0  0  0  0
    0.7531   -1.1531    0.0671 C   0  0  0  0  0  0  0  0  0  0  0  0
    1.1073    2.6509    0.0078 C   0  0  0  0  0  0  0  0  0  0  0  0
    0.4794    1.2712   -0.0071 C   0  0  0  0  0  0  0  0  0  0  0  0
    1.2947    0.1312    0.0921 C   0  0  0  0  0  0  0  0  0  0  0  0
    1.8749    2.9167    1.1754 O   0  0  0  0  0  0  0  0  0  0  0  0
    2.6508    0.3533    0.2119 O   0  0  0  0  0  0  0  0  0  0  0  0
   -2.5329   -0.3259   -0.2541 H   0  0  0  0  0  0  0  0  0  0  0  0
   -1.0473   -2.3203   -0.0802 H   0  0  0  0  0  0  0  0  0  0  0  0
   -1.5425    1.9497   -0.1957 H   0  0  0  0  0  0  0  0  0  0  0  0
    1.4070   -2.0202    0.1467 H   0  0  0  0  0  0  0  0  0  0  0  0
    0.3203    3.4107   -0.0189 H   0  0  0  0  0  0  0  0  0  0  0  0
    1.7205    2.7839   -0.8990 H   0  0  0  0  0  0  0  0  0  0  0  0
    2.5911    2.2606    1.1780 H   0  0  0  0  0  0  0  0  0  0  0  0
    3.1094   -0.4980    0.2843 H   0  0  0  0  0  0  0  0  0  0  0  0
  1  3  2  0
  1  2  1  0
  2  4  2  0
  3  6  1  0
  4  7  1  0
  4 13  1  0
  5  8  1  0
  6  5  1  0
  6  7  2  0
  7  9  1  0
  8 16  1  0
  9 17  1  0
 10  1  1  0
 11  2  1  0
 12  3  1  0
 14  5  1  0
 15  5  1  0
M  END
>  <HBA>  (780) 
2

>  <HBD>  (780) 
2

>  <TPSA>  (780) 
40.46

>  <cid>  (780) 
5146

>  <dipole>  (780) 
3.07

>  <excitation_energy_1>  (780) 
5.074

>  <excitation_energy_2>  (780) 
5.227

>  <excitation_energy_3>  (780) 
5.758

>  <excitation_energy_4>  (780) 
5.888

>  <homo_energy>  (780) 
-6.161

>  <homo_lumo_gap>  (780) 
6.027

>  <logP>  (780) 
0.884

>  <lumo_energy>  (780) 
-0.133

>  <melting_point>  (780) 
66.74

>  <molecular_refractivity>  (780) 
34.59

>  <oscillator_strength_1>  (780) 
0.0314

>  <oscillator_strength_2>  (780) 
0.0005

>  <oscillator_strength_3>  (780) 
0.0182

>  <oscillator_strength_4>  (780) 
0.0022

>  <open_babel_can_smiles>  (780) 
OCc1ccccc1O

>  <mulliken_charges>  (780) 
17
1   -0.127185
2   -0.137147
3   -0.193663
4   -0.184224
5   -0.104142
6   0.12723
7   0.296208
8   -0.626013
9   -0.666343
10   0.128903
11   0.132554
12   0.130186
13   0.118924
14   0.146773
15   0.135045
16   0.409125
17   0.413767

>  <lowdin_charges>  (780) 
17
1   -0.172049
2   -0.145788
3   -0.151017
4   -0.211423
5   -0.129481
6   -0.047097
7   0.099312
8   -0.472858
9   -0.393365
10   0.157072
11   0.15922
12   0.159506
13   0.154324
14   0.151825
15   0.136724
16   0.343882
17   0.361213

$$$$
PCCDB-ID:  5147
     RDKit          3D

 17 17  0  0  0  0  0  0  0  0999 V2000
   -1.3824   -0.0938   -0.0093 C   0  0  0  0  0  0  0  0  0  0  0  0
   -0.6278   -1.2658    0.0364 C   0  0  0  0  0  0  0  0  0  0  0  0
   -0.7286    1.1356   -0.0588 C   0  0  0  0  0  0  0  0  0  0  0  0
    0.7640   -1.2003    0.0186 C   0  0  0  0  0  0  0  0  0  0  0  0
    0.6723    1.2340   -0.0709 C   0  0  0  0  0  0  0  0  0  0  0  0
    1.4162    0.0348   -0.0437 C   0  0  0  0  0  0  0  0  0  0  0  0
    1.3253    2.5802   -0.1373 C   0  0  0  0  0  0  0  0  0  0  0  0
    2.3993    2.9077   -0.7295 N   0  0  0  0  0  0  0  0  0  0  0  0
    2.7795    0.1194   -0.0744 O   0  0  0  0  0  0  0  0  0  0  0  0
    0.6281    3.5842    0.4837 O   0  0  0  0  0  0  0  0  0  0  0  0
   -2.4671   -0.1349   -0.0117 H   0  0  0  0  0  0  0  0  0  0  0  0
   -1.1170   -2.2347    0.0796 H   0  0  0  0  0  0  0  0  0  0  0  0
   -1.3137    2.0491   -0.1198 H   0  0  0  0  0  0  0  0  0  0  0  0
    1.3555   -2.1137    0.0510 H   0  0  0  0  0  0  0  0  0  0  0  0
    2.8098    2.0926   -1.1831 H   0  0  0  0  0  0  0  0  0  0  0  0
    3.1530   -0.7746   -0.0241 H   0  0  0  0  0  0  0  0  0  0  0  0
    0.0244    3.1892    1.1314 H   0  0  0  0  0  0  0  0  0  0  0  0
  1  2  2  0
  2 12  1  0
  3  1  1  0
  4  2  1  0
  4 14  1  0
  5  3  2  0
  5  6  1  0
  6  4  2  0
  7  5  1  0
  7 10  1  0
  8  7  2  0
  9  6  1  0
  9 16  1  0
 10 17  1  0
 11  1  1  0
 13  3  1  0
 15  8  1  0
M  END
>  <HBA>  (781) 
3

>  <HBD>  (781) 
2

>  <TPSA>  (781) 
63.32

>  <cid>  (781) 
5147

>  <dipole>  (781) 
5.85

>  <excitation_energy_1>  (781) 
4.708

>  <excitation_energy_2>  (781) 
4.902

>  <excitation_energy_3>  (781) 
5.268

>  <excitation_energy_4>  (781) 
5.42

>  <homo_energy>  (781) 
-6.422

>  <homo_lumo_gap>  (781) 
5.415

>  <logP>  (781) 
1.191

>  <lumo_energy>  (781) 
-1.007

>  <melting_point>  (781) 
134.1

>  <molecular_refractivity>  (781) 
36.56

>  <oscillator_strength_1>  (781) 
0.0752

>  <oscillator_strength_2>  (781) 
0.0053

>  <oscillator_strength_3>  (781) 
0.0894

>  <oscillator_strength_4>  (781) 
0.0016

>  <open_babel_can_smiles>  (781) 
OC(=N)c1ccccc1O

>  <mulliken_charges>  (781) 
17
1   -0.130048
2   -0.1296
3   -0.210974
4   -0.188454
5   0.038439
6   0.304265
7   0.438463
8   -0.581793
9   -0.635461
10   -0.582215
11   0.138225
12   0.141798
13   0.149276
14   0.127335
15   0.303823
16   0.415065
17   0.401858

>  <lowdin_charges>  (781) 
17
1   -0.170861
2   -0.135529
3   -0.155115
4   -0.208609
5   -0.077455
6   0.110149
7   0.12424
8   -0.378238
9   -0.367127
10   -0.371961
11   0.161343
12   0.164197
13   0.166459
14   0.158246
15   0.264345
16   0.361621
17   0.354296

$$$$
PCCDB-ID:  5173
     RDKit          3D

 30 29  0  0  0  0  0  0  0  0999 V2000
    0.9809   -0.2755    1.6512 C   0  0  0  0  0  0  0  0  0  0  0  0
    0.2480   -1.5560    1.2232 C   0  0  0  0  0  0  0  0  0  0  0  0
    2.3486   -0.5122    2.3128 C   0  0  0  0  0  0  0  0  0  0  0  0
   -1.1166   -1.3196    0.5551 C   0  0  0  0  0  0  0  0  0  0  0  0
    2.2700   -1.2074    3.6898 C   0  0  0  0  0  0  0  0  0  0  0  0
   -1.0319   -0.6290   -0.8238 C   0  0  0  0  0  0  0  0  0  0  0  0
    3.6324   -1.3926    4.3046 C   0  0  0  0  0  0  0  0  0  0  0  0
   -2.3925   -0.4389   -1.4409 C   0  0  0  0  0  0  0  0  0  0  0  0
    4.2056   -0.6338    5.1603 N   0  0  0  0  0  0  0  0  0  0  0  0
   -2.9691   -1.1987   -2.2934 N   0  0  0  0  0  0  0  0  0  0  0  0
    4.3883   -2.4469    3.8741 O   0  0  0  0  0  0  0  0  0  0  0  0
   -3.1460    0.6174   -1.0106 O   0  0  0  0  0  0  0  0  0  0  0  0
    3.3751    0.4757    5.4781 O   0  0  0  0  0  0  0  0  0  0  0  0
   -2.1436   -2.3129   -2.6071 O   0  0  0  0  0  0  0  0  0  0  0  0
    0.3420    0.2963    2.3407 H   0  0  0  0  0  0  0  0  0  0  0  0
    1.1389    0.3676    0.7755 H   0  0  0  0  0  0  0  0  0  0  0  0
    0.0850   -2.1958    2.1005 H   0  0  0  0  0  0  0  0  0  0  0  0
    0.8894   -2.1314    0.5390 H   0  0  0  0  0  0  0  0  0  0  0  0
    2.8531    0.4507    2.4527 H   0  0  0  0  0  0  0  0  0  0  0  0
    2.9864   -1.1019    1.6394 H   0  0  0  0  0  0  0  0  0  0  0  0
   -1.7570   -0.7274    1.2239 H   0  0  0  0  0  0  0  0  0  0  0  0
   -1.6216   -2.2824    0.4160 H   0  0  0  0  0  0  0  0  0  0  0  0
    1.7902   -2.1924    3.5999 H   0  0  0  0  0  0  0  0  0  0  0  0
    1.6599   -0.6087    4.3711 H   0  0  0  0  0  0  0  0  0  0  0  0
   -0.4241   -1.2330   -1.5025 H   0  0  0  0  0  0  0  0  0  0  0  0
   -0.5471    0.3537   -0.7354 H   0  0  0  0  0  0  0  0  0  0  0  0
    3.8191   -3.0441    3.3668 H   0  0  0  0  0  0  0  0  0  0  0  0
   -2.5711    1.2232   -0.5200 H   0  0  0  0  0  0  0  0  0  0  0  0
    3.9073    0.9199    6.1549 H   0  0  0  0  0  0  0  0  0  0  0  0
   -2.6771   -2.7565   -3.2834 H   0  0  0  0  0  0  0  0  0  0  0  0
  1  3  1  0
  1 15  1  0
  2  1  1  0
  2 17  1  0
  3 19  1  0
  3  5  1  0
  4  2  1  0
  4 21  1  0
  5  7  1  0
  5 24  1  0
  6 26  1  0
  6  4  1  0
  7  9  2  0
  8 12  1  0
  8  6  1  0
  9 13  1  0
 10  8  2  0
 11  7  1  0
 12 28  1  0
 13 29  1  0
 14 10  1  0
 16  1  1  0
 18  2  1  0
 20  3  1  0
 22  4  1  0
 23  5  1  0
 25  6  1  0
 27 11  1  0
 30 14  1  0
M  END
>  <HBA>  (782) 
6

>  <HBD>  (782) 
4

>  <TPSA>  (782) 
98.66

>  <cid>  (782) 
5173

>  <dipole>  (782) 
0.03

>  <excitation_energy_1>  (782) 
5.352

>  <excitation_energy_2>  (782) 
5.357

>  <excitation_energy_3>  (782) 
5.693

>  <excitation_energy_4>  (782) 
5.7

>  <homo_energy>  (782) 
-6.114

>  <homo_lumo_gap>  (782) 
6.691

>  <logP>  (782) 
1.12

>  <lumo_energy>  (782) 
0.577

>  <melting_point>  (782) 
177.06

>  <molecular_refractivity>  (782) 
48.03

>  <oscillator_strength_1>  (782) 
0.005

>  <oscillator_strength_2>  (782) 
0.0032

>  <oscillator_strength_3>  (782) 
0.0001

>  <oscillator_strength_4>  (782) 
0.0025

>  <open_babel_can_smiles>  (782) 
O/N=C(\CCCCCC/C(=N\O)/O)/O

>  <mulliken_charges>  (782) 
30
1   -0.262264
2   -0.262371
3   -0.258439
4   -0.258357
5   -0.354357
6   -0.35363
7   0.512599
8   0.511728
9   -0.243435
10   -0.242963
11   -0.589661
12   -0.589509
13   -0.528801
14   -0.528708
15   0.134517
16   0.137817
17   0.138043
18   0.134174
19   0.163905
20   0.133471
21   0.134005
22   0.163841
23   0.136392
24   0.189046
25   0.188869
26   0.1359
27   0.410687
28   0.410518
29   0.418479
30   0.418505

>  <lowdin_charges>  (782) 
30
1   -0.280694
2   -0.280702
3   -0.271539
4   -0.27151
5   -0.30742
6   -0.307333
7   0.100931
8   0.100794
9   -0.102643
10   -0.102371
11   -0.368032
12   -0.36817
13   -0.399997
14   -0.399916
15   0.142699
16   0.144524
17   0.144663
18   0.142513
19   0.159114
20   0.141813
21   0.142146
22   0.159099
23   0.146032
24   0.176947
25   0.176856
26   0.145857
27   0.360602
28   0.360535
29   0.357592
30   0.35761

$$$$
PCCDB-ID:  5174
     RDKit          3D

 30 32  0  0  0  0  0  0  0  0999 V2000
    2.5336   -0.1255   -0.0171 C   0  0  0  0  0  0  0  0  0  0  0  0
    9.2762   -3.5279    0.8394 C   0  0  0  0  0  0  0  0  0  0  0  0
    8.0920   -3.9539    0.2338 C   0  0  0  0  0  0  0  0  0  0  0  0
    9.4185   -2.1892    1.2100 C   0  0  0  0  0  0  0  0  0  0  0  0
    7.0618   -3.0480   -0.0088 C   0  0  0  0  0  0  0  0  0  0  0  0
    8.3897   -1.2802    0.9684 C   0  0  0  0  0  0  0  0  0  0  0  0
    6.6451    2.9858   -0.3472 C   0  0  0  0  0  0  0  0  0  0  0  0
    8.2849    1.3731   -1.0176 C   0  0  0  0  0  0  0  0  0  0  0  0
    7.5692    3.9749   -0.6739 C   0  0  0  0  0  0  0  0  0  0  0  0
    9.1284    2.4420   -1.3081 C   0  0  0  0  0  0  0  0  0  0  0  0
    4.0191   -0.2043   -0.0138 C   0  0  0  0  0  0  0  0  0  0  0  0
    7.2032   -1.6946    0.3411 C   0  0  0  0  0  0  0  0  0  0  0  0
    7.0015    1.6358   -0.5094 C   0  0  0  0  0  0  0  0  0  0  0  0
    6.0839   -0.7708    0.0937 C   0  0  0  0  0  0  0  0  0  0  0  0
    6.0492    0.5752   -0.2002 C   0  0  0  0  0  0  0  0  0  0  0  0
    8.7993    3.7307   -1.1441 N   0  0  0  0  0  0  0  0  0  0  0  0
    4.7733   -1.2394    0.1884 N   0  0  0  0  0  0  0  0  0  0  0  0
    4.7142    0.9379   -0.2483 O   0  0  0  0  0  0  0  0  0  0  0  0
    2.1258   -1.1188    0.1769 H   0  0  0  0  0  0  0  0  0  0  0  0
    2.1604    0.2338   -0.9829 H   0  0  0  0  0  0  0  0  0  0  0  0
    2.1745    0.5647    0.7549 H   0  0  0  0  0  0  0  0  0  0  0  0
   10.0784   -4.2357    1.0298 H   0  0  0  0  0  0  0  0  0  0  0  0
    7.9693   -4.9959   -0.0492 H   0  0  0  0  0  0  0  0  0  0  0  0
   10.3281   -1.8521    1.6999 H   0  0  0  0  0  0  0  0  0  0  0  0
    6.1348   -3.3764   -0.4672 H   0  0  0  0  0  0  0  0  0  0  0  0
    8.4997   -0.2474    1.2842 H   0  0  0  0  0  0  0  0  0  0  0  0
    5.6642    3.2552    0.0285 H   0  0  0  0  0  0  0  0  0  0  0  0
    8.6167    0.3566   -1.1954 H   0  0  0  0  0  0  0  0  0  0  0  0
    7.3059    5.0241   -0.5479 H   0  0  0  0  0  0  0  0  0  0  0  0
   10.1246    2.2506   -1.7037 H   0  0  0  0  0  0  0  0  0  0  0  0
  1 11  1  0
  1 19  1  0
  1 21  1  0
  2 22  1  0
  2  4  2  0
  3  2  1  0
  4 24  1  0
  5  3  2  0
  5 12  1  0
  6  4  1  0
  6 26  1  0
  7 27  1  0
  8 13  2  0
  9 29  1  0
  9  7  2  0
 10 16  2  0
 10  8  1  0
 11 17  2  0
 12  6  2  0
 13  7  1  0
 13 15  1  0
 14 17  1  0
 14 12  1  0
 15 14  2  0
 16  9  1  0
 18 15  1  0
 18 11  1  0
 20  1  1  0
 23  3  1  0
 25  5  1  0
 28  8  1  0
 30 10  1  0
M  END
>  <HBA>  (783) 
3

>  <HBD>  (783) 
0

>  <TPSA>  (783) 
38.92

>  <cid>  (783) 
5174

>  <dipole>  (783) 
2.07

>  <excitation_energy_1>  (783) 
3.862

>  <excitation_energy_2>  (783) 
4.334

>  <excitation_energy_3>  (783) 
4.531

>  <excitation_energy_4>  (783) 
4.656

>  <homo_energy>  (783) 
-5.91

>  <homo_lumo_gap>  (783) 
4.343

>  <logP>  (783) 
3.712

>  <lumo_energy>  (783) 
-1.567

>  <melting_point>  (783) 
113.94

>  <molecular_refractivity>  (783) 
70.14

>  <oscillator_strength_1>  (783) 
0.3549

>  <oscillator_strength_2>  (783) 
0.0077

>  <oscillator_strength_3>  (783) 
0.0045

>  <oscillator_strength_4>  (783) 
0.0036

>  <open_babel_can_smiles>  (783) 
Cc1oc(c(n1)c1ccccc1)c1ccncc1

>  <mulliken_charges>  (783) 
30
1   -0.530053
2   -0.123575
3   -0.135685
4   -0.139021
5   -0.156455
6   -0.178294
7   -0.174929
8   -0.184168
9   0.037679
10   0.031105
11   0.521016
12   0.099593
13   0.098937
14   0.11423
15   0.238552
16   -0.409198
17   -0.48997
18   -0.467559
19   0.193689
20   0.182575
21   0.181818
22   0.132455
23   0.133715
24   0.134302
25   0.15237
26   0.144125
27   0.149225
28   0.158183
29   0.142037
30   0.143301

>  <lowdin_charges>  (783) 
30
1   -0.443712
2   -0.154556
3   -0.152671
4   -0.156805
5   -0.144776
6   -0.158424
7   -0.175517
8   -0.177849
9   -0.087086
10   -0.08863
11   0.119505
12   -0.010259
13   0.009823
14   0.008882
15   0.046448
16   -0.151719
17   -0.18137
18   -0.107722
19   0.183663
20   0.175606
21   0.176358
22   0.160253
23   0.15844
24   0.160216
25   0.170877
26   0.163263
27   0.170147
28   0.173907
29   0.156385
30   0.157324

$$$$
PCCDB-ID:  5196
     RDKit          3D

 10  9  0  0  0  0  0  0  0  0999 V2000
    0.8397   -0.0367    0.0329 C   0  0  0  0  0  0  0  0  0  0  0  0
    0.5198   -0.6095    1.1293 N   0  0  0  0  0  0  0  0  0  0  0  0
    0.7214    1.6793   -1.7243 N   0  0  0  0  0  0  0  0  0  0  0  0
    0.1344    0.8998   -0.7010 N   0  0  0  0  0  0  0  0  0  0  0  0
    2.0040   -0.3645   -0.5862 O   0  0  0  0  0  0  0  0  0  0  0  0
   -0.3743   -0.2773    1.4910 H   0  0  0  0  0  0  0  0  0  0  0  0
    0.8079    1.0877   -2.5489 H   0  0  0  0  0  0  0  0  0  0  0  0
    1.6718    1.9329   -1.4519 H   0  0  0  0  0  0  0  0  0  0  0  0
   -0.5865    1.3976   -0.1980 H   0  0  0  0  0  0  0  0  0  0  0  0
    2.3956   -1.0497   -0.0159 H   0  0  0  0  0  0  0  0  0  0  0  0
  1  2  2  0
  2  6  1  0
  3  8  1  0
  3  4  1  0
  4  9  1  0
  4  1  1  0
  5 10  1  0
  5  1  1  0
  7  3  1  0
M  END
>  <HBA>  (784) 
4

>  <HBD>  (784) 
3

>  <TPSA>  (784) 
81.14

>  <cid>  (784) 
5196

>  <dipole>  (784) 
1.07

>  <excitation_energy_1>  (784) 
5.596

>  <excitation_energy_2>  (784) 
6.211

>  <excitation_energy_3>  (784) 
6.379

>  <excitation_energy_4>  (784) 
6.632

>  <homo_energy>  (784) 
-6.351

>  <homo_lumo_gap>  (784) 
7.832

>  <logP>  (784) 
0.32

>  <lumo_energy>  (784) 
1.48

>  <melting_point>  (784) 
144.16

>  <molecular_refractivity>  (784) 
15.73

>  <oscillator_strength_1>  (784) 
0.0048

>  <oscillator_strength_2>  (784) 
0.0109

>  <oscillator_strength_3>  (784) 
0.0044

>  <oscillator_strength_4>  (784) 
0.0085

>  <open_babel_can_smiles>  (784) 
NNC(=N)O

>  <mulliken_charges>  (784) 
10
1   0.638867
2   -0.656005
3   -0.567218
4   -0.498582
5   -0.600518
6   0.276262
7   0.328439
8   0.320475
9   0.334221
10   0.424059

>  <lowdin_charges>  (784) 
10
1   0.149366
2   -0.489861
3   -0.456406
4   -0.260353
5   -0.382851
6   0.25636
7   0.267787
8   0.258784
9   0.285537
10   0.371639

$$$$
PCCDB-ID:  5219
     RDKit          3D

 22 23  0  0  1  0  0  0  0  0999 V2000
    0.2661    1.4065   -0.4667 C   0  0  0  0  0  0  0  0  0  0  0  0
   -1.3177   -0.4420   -0.0776 C   0  0  0  0  0  0  0  0  0  0  0  0
    1.3799    0.4793    0.0270 C   0  0  0  0  0  0  0  0  0  0  0  0
   -0.1300   -1.2828    0.3977 C   0  0  0  0  0  0  0  0  0  0  0  0
   -2.3435    2.4326    1.5011 C   0  0  0  0  0  3  0  0  0  0  0  0
   -2.3257    2.7145    2.9061 C   0  0  0  0  0  0  0  0  0  0  0  0
   -2.9484    3.4404    3.7472 N   0  0  0  0  0  0  0  0  0  0  0  0
   -0.6936    1.1669    2.3524 N   0  0  0  0  0  2  0  0  0  0  0  0
   -1.0834    1.0200    0.0142 N   0  0  0  0  0  0  0  0  0  0  0  0
   -1.3720    1.5374    1.2904 N   0  0  0  0  0  0  0  0  0  0  0  0
    1.0611   -0.8767   -0.2697 O   0  0  0  0  0  0  0  0  0  0  0  0
   -1.2737    1.8890    3.3781 O   0  0  0  0  0  0  0  0  0  0  0  0
    0.2090    1.3514   -1.5598 H   0  0  0  0  0  0  0  0  0  0  0  0
    0.4453    2.4482   -0.1857 H   0  0  0  0  0  0  0  0  0  0  0  0
   -2.2332   -0.6780    0.4723 H   0  0  0  0  0  0  0  0  0  0  0  0
   -1.4966   -0.6388   -1.1408 H   0  0  0  0  0  0  0  0  0  0  0  0
    1.5422    0.6103    1.1059 H   0  0  0  0  0  0  0  0  0  0  0  0
    2.3132    0.7015   -0.5000 H   0  0  0  0  0  0  0  0  0  0  0  0
   -0.2880   -2.3343    0.1377 H   0  0  0  0  0  0  0  0  0  0  0  0
   -0.0095   -1.2006    1.4866 H   0  0  0  0  0  0  0  0  0  0  0  0
   -2.9579    2.8017    0.6991 H   0  0  0  0  0  0  0  0  0  0  0  0
   -3.6772    3.9778    3.2787 H   0  0  0  0  0  0  0  0  0  0  0  0
  1 14  1  0
  1  9  1  0
  1  3  1  0
  2  9  1  0
  2  4  1  0
  2 15  1  0
  3 17  1  0
  4 20  1  0
  5  6  1  0
  6 12  1  0
  6  7  2  0
  8 12  1  0
 10  9  1  0
 10  5  1  0
 10  8  1  0
 11  3  1  0
 11  4  1  0
 13  1  1  0
 16  2  1  0
 18  3  1  0
 19  4  1  0
 21  5  1  0
 22  7  1  0
M  RAD  2   5   2   8   2
M  END
>  <HBA>  (785) 
4

>  <HBD>  (785) 
1

>  <TPSA>  (785) 
67.28

>  <cid>  (785) 
5219

>  <dipole>  (785) 
5.41

>  <excitation_energy_1>  (785) 
3.748

>  <excitation_energy_2>  (785) 
4.259

>  <excitation_energy_3>  (785) 
4.705

>  <excitation_energy_4>  (785) 
4.774

>  <homo_energy>  (785) 
-5.38

>  <homo_lumo_gap>  (785) 
3.951

>  <logP>  (785) 
-0.911

>  <lumo_energy>  (785) 
-1.429

>  <melting_point>  (785) 
77.27

>  <molecular_refractivity>  (785) 
42.48

>  <oscillator_strength_1>  (785) 
0.1028

>  <oscillator_strength_2>  (785) 
0.0015

>  <oscillator_strength_3>  (785) 
0.0011

>  <oscillator_strength_4>  (785) 
0.0006

>  <open_babel_can_smiles>  (785) 
N=C1O[N]N([CH]1)N1CCOCC1

>  <mulliken_charges>  (785) 
22
1   -0.160508
2   -0.160639
3   -0.044482
4   -0.044763
5   -0.045412
6   0.504602
7   -0.663576
8   0.028914
9   -0.312819
10   -0.058032
11   -0.467758
12   -0.37597
13   0.173225
14   0.171592
15   0.171831
16   0.173151
17   0.16622
18   0.155202
19   0.155135
20   0.166804
21   0.185438
22   0.281846

>  <lowdin_charges>  (785) 
22
1   -0.214374
2   -0.216197
3   -0.14836
4   -0.146617
5   -0.234787
6   0.107702
7   -0.44704
8   -0.09191
9   -0.109247
10   0.155973
11   -0.274218
12   -0.103219
13   0.160652
14   0.165502
15   0.167086
16   0.161292
17   0.147665
18   0.157855
19   0.156217
20   0.147524
21   0.194898
22   0.263605

$$$$
PCCDB-ID:  5226
     RDKit          3D

 26 27  0  0  0  0  0  0  0  0999 V2000
    1.2342    1.1563    0.4469 C   0  0  0  0  0  0  0  0  0  0  0  0
    2.4142    0.4529    0.2309 C   0  0  0  0  0  0  0  0  0  0  0  0
   -1.2899    1.3669    0.4432 C   0  0  0  0  0  0  0  0  0  0  0  0
   -2.4868    0.7679   -0.2990 C   0  0  0  0  0  0  0  0  0  0  0  0
    1.1010   -1.4401   -0.5386 C   0  0  0  0  0  0  0  0  0  0  0  0
   -1.4145   -1.3632   -0.6711 C   0  0  0  0  0  0  0  0  0  0  0  0
   -0.0182    0.5837    0.1828 C   0  0  0  0  0  0  0  0  0  0  0  0
   -0.0818   -0.7282   -0.3180 C   0  0  0  0  0  0  0  0  0  0  0  0
    2.3311   -0.8524   -0.2572 C   0  0  0  0  0  0  0  0  0  0  0  0
    4.1009   -2.5737    0.9480 N   0  0  0  0  0  0  0  0  0  0  0  0
   -2.5225   -0.6676   -0.0212 N   0  0  0  0  0  0  0  0  0  0  0  0
    3.5357   -2.8337   -1.5202 O   0  0  0  0  0  0  0  0  0  0  0  0
    4.9277   -0.8279   -0.7193 O   0  0  0  0  0  0  0  0  0  0  0  0
    3.8325   -1.7865   -0.5368 S   0  0  0  0  0  0  0  0  0  0  0  0
    1.2812    2.1764    0.8211 H   0  0  0  0  0  0  0  0  0  0  0  0
    3.3821    0.9055    0.4166 H   0  0  0  0  0  0  0  0  0  0  0  0
   -1.5035    1.3517    1.5205 H   0  0  0  0  0  0  0  0  0  0  0  0
   -1.1495    2.4174    0.1593 H   0  0  0  0  0  0  0  0  0  0  0  0
   -2.4049    0.9945   -1.3802 H   0  0  0  0  0  0  0  0  0  0  0  0
   -3.4168    1.2207    0.0604 H   0  0  0  0  0  0  0  0  0  0  0  0
    1.0684   -2.4480   -0.9423 H   0  0  0  0  0  0  0  0  0  0  0  0
   -1.4196   -2.4112   -0.3479 H   0  0  0  0  0  0  0  0  0  0  0  0
   -1.5067   -1.3731   -1.7766 H   0  0  0  0  0  0  0  0  0  0  0  0
    4.1184   -3.5793    0.7890 H   0  0  0  0  0  0  0  0  0  0  0  0
    4.9845   -2.2535    1.3396 H   0  0  0  0  0  0  0  0  0  0  0  0
   -3.4022   -1.0665   -0.3400 H   0  0  0  0  0  0  0  0  0  0  0  0
  1 15  1  0
  2 16  1  0
  2  1  2  0
  3 17  1  0
  4 11  1  0
  4 20  1  0
  4  3  1  0
  5  8  1  0
  5  9  2  0
  6 22  1  0
  6  8  1  0
  6 11  1  0
  7  3  1  0
  7  1  1  0
  8  7  2  0
  9  2  1  0
 10 25  1  0
 12 14  2  0
 13 14  2  0
 14  9  1  0
 14 10  1  0
 18  3  1  0
 19  4  1  0
 21  5  1  0
 23  6  1  0
 24 10  1  0
 26 11  1  0
M  END
>  <HBA>  (786) 
4

>  <HBD>  (786) 
2

>  <TPSA>  (786) 
80.57

>  <cid>  (786) 
5226

>  <dipole>  (786) 
3.88

>  <excitation_energy_1>  (786) 
4.639

>  <excitation_energy_2>  (786) 
4.982

>  <excitation_energy_3>  (786) 
5.1

>  <excitation_energy_4>  (786) 
5.456

>  <homo_energy>  (786) 
-6.267

>  <homo_lumo_gap>  (786) 
5.45

>  <logP>  (786) 
2.09

>  <lumo_energy>  (786) 
-0.816

>  <melting_point>  (786) 
150.48

>  <molecular_refractivity>  (786) 
56.78

>  <oscillator_strength_1>  (786) 
0.0114

>  <oscillator_strength_2>  (786) 
0.0066

>  <oscillator_strength_3>  (786) 
0.0235

>  <oscillator_strength_4>  (786) 
0.0045

>  <open_babel_can_smiles>  (786) 
NS(=O)(=O)c1ccc2c(c1)CNCC2

>  <mulliken_charges>  (786) 
26
1   -0.18675
2   -0.139326
3   -0.322439
4   -0.152169
5   -0.197778
6   -0.198376
7   0.131108
8   0.117755
9   -0.135863
10   -0.814565
11   -0.553336
12   -0.539558
13   -0.536929
14   1.166703
15   0.134346
16   0.171455
17   0.169743
18   0.146234
19   0.122108
20   0.142601
21   0.166744
22   0.157385
23   0.137826
24   0.355065
25   0.354552
26   0.303463

>  <lowdin_charges>  (786) 
26
1   -0.155501
2   -0.140018
3   -0.275301
4   -0.201014
5   -0.14098
6   -0.198099
7   0.005592
8   -0.010437
9   -0.182016
10   -0.695272
11   -0.363133
12   -0.595043
13   -0.593687
14   1.306095
15   0.159853
16   0.180008
17   0.162071
18   0.152583
19   0.118487
20   0.149931
21   0.176685
22   0.155152
23   0.129238
24   0.297369
25   0.297974
26   0.259463

$$$$
PCCDB-ID:  5230
     RDKit          3D

 20 19  0  0  0  0  0  0  0  0999 V2000
    2.2354    1.5485    1.3397 C   0  0  0  0  0  0  0  0  0  0  0  0
    3.7857   -1.0040   -1.7711 C   0  0  0  0  0  0  0  0  0  0  0  0
    4.5506   -0.7054   -3.0661 C   0  0  0  0  0  0  0  0  0  0  0  0
    3.5181    0.2568   -0.9365 C   0  0  0  0  0  0  0  0  0  0  0  0
    3.7942    0.2187   -3.9198 N   0  0  0  0  0  0  0  0  0  0  0  0
    3.4044   -0.9043    1.5033 O   0  0  0  0  0  0  0  0  0  0  0  0
    1.1385   -0.7556    0.1872 O   0  0  0  0  0  0  0  0  0  0  0  0
    2.4238   -0.0530    0.4876 P   0  0  1  0  0  0  0  0  0  0  0  0
    1.6515    1.3988    2.2525 H   0  0  0  0  0  0  0  0  0  0  0  0
    1.6991    2.2499    0.6931 H   0  0  0  0  0  0  0  0  0  0  0  0
    3.2088    1.9728    1.6045 H   0  0  0  0  0  0  0  0  0  0  0  0
    4.3541   -1.7304   -1.1778 H   0  0  0  0  0  0  0  0  0  0  0  0
    2.8277   -1.4820   -2.0155 H   0  0  0  0  0  0  0  0  0  0  0  0
    4.7973   -1.6649   -3.5551 H   0  0  0  0  0  0  0  0  0  0  0  0
    5.5063   -0.2227   -2.8225 H   0  0  0  0  0  0  0  0  0  0  0  0
    3.0437    1.0153   -1.5697 H   0  0  0  0  0  0  0  0  0  0  0  0
    4.4586    0.6855   -0.5653 H   0  0  0  0  0  0  0  0  0  0  0  0
    2.9628   -0.2508   -4.2782 H   0  0  0  0  0  0  0  0  0  0  0  0
    4.3491    0.4739   -4.7345 H   0  0  0  0  0  0  0  0  0  0  0  0
    2.9019   -1.6580    1.8554 H   0  0  0  0  0  0  0  0  0  0  0  0
  1 11  1  0
  1  9  1  0
  2 12  1  0
  2  4  1  0
  3 15  1  0
  3  2  1  0
  4 17  1  0
  4  8  1  0
  5  3  1  0
  6 20  1  0
  8  7  2  0
  8  1  1  0
  8  6  1  0
 10  1  1  0
 13  2  1  0
 14  3  1  0
 16  4  1  0
 18  5  1  0
 19  5  1  0
M  END
>  <HBA>  (787) 
3

>  <HBD>  (787) 
2

>  <TPSA>  (787) 
73.13

>  <cid>  (787) 
5230

>  <dipole>  (787) 
2.61

>  <excitation_energy_1>  (787) 
5.692

>  <excitation_energy_2>  (787) 
6.175

>  <excitation_energy_3>  (787) 
6.35

>  <excitation_energy_4>  (787) 
6.509

>  <homo_energy>  (787) 
-6.463

>  <homo_lumo_gap>  (787) 
8.115

>  <logP>  (787) 
0.936

>  <lumo_energy>  (787) 
1.652

>  <melting_point>  (787) 
77.55

>  <molecular_refractivity>  (787) 
33.87

>  <oscillator_strength_1>  (787) 
0.0093

>  <oscillator_strength_2>  (787) 
0.0017

>  <oscillator_strength_3>  (787) 
0.0516

>  <oscillator_strength_4>  (787) 
0.0293

>  <open_babel_can_smiles>  (787) 
NCCC[P@@](=O)(O)C

>  <mulliken_charges>  (787) 
20
1   -0.653687
2   -0.272061
3   -0.140209
4   -0.463954
5   -0.715854
6   -0.682774
7   -0.57114
8   0.978408
9   0.192331
10   0.185696
11   0.180494
12   0.14939
13   0.164773
14   0.119919
15   0.137925
16   0.197983
17   0.164331
18   0.29804
19   0.299637
20   0.430751

>  <lowdin_charges>  (787) 
20
1   -0.639364
2   -0.278609
3   -0.203653
4   -0.461523
5   -0.560851
6   -0.603852
7   -0.621344
8   0.99209
9   0.188104
10   0.185226
11   0.180454
12   0.154585
13   0.157258
14   0.122658
15   0.140364
16   0.186923
17   0.1702
18   0.255567
19   0.257525
20   0.378243

$$$$
PCCDB-ID:  5251
     RDKit          3D

 16 15  0  0  0  0  0  0  0  0999 V2000
    0.6169   -0.0700    0.0103 C   0  0  0  0  0  0  0  0  0  0  0  0
    2.0973    0.1470    0.0008 C   0  0  0  0  0  0  0  0  0  0  0  0
    3.0155   -0.7342    0.4400 C   0  0  0  0  0  0  0  0  0  0  0  0
    4.4381   -0.4752    0.4068 C   0  0  0  0  0  0  0  0  0  0  0  0
    5.3938   -1.3258    0.8323 C   0  0  0  0  0  0  0  0  0  0  0  0
    6.8246   -0.9495    0.7463 C   0  0  0  0  0  0  0  0  0  0  0  0
    7.2367    0.0979    0.3002 O   0  0  0  0  0  0  0  0  0  0  0  0
    7.7111   -1.8773    1.2144 O   0  0  0  0  0  0  0  0  0  0  0  0
    0.2024    0.0045   -1.0043 H   0  0  0  0  0  0  0  0  0  0  0  0
    0.1107    0.6990    0.6097 H   0  0  0  0  0  0  0  0  0  0  0  0
    0.3520   -1.0510    0.4175 H   0  0  0  0  0  0  0  0  0  0  0  0
    2.4451    1.1013   -0.3975 H   0  0  0  0  0  0  0  0  0  0  0  0
    2.6878   -1.6933    0.8427 H   0  0  0  0  0  0  0  0  0  0  0  0
    4.7706    0.4818    0.0061 H   0  0  0  0  0  0  0  0  0  0  0  0
    5.1224   -2.2982    1.2430 H   0  0  0  0  0  0  0  0  0  0  0  0
    7.2354   -2.6595    1.5378 H   0  0  0  0  0  0  0  0  0  0  0  0
  1 11  1  0
  1 10  1  0
  2  1  1  0
  2  3  2  0
  3 13  1  0
  4  3  1  0
  4  5  2  0
  5 15  1  0
  6  5  1  0
  6  8  1  0
  7  6  2  0
  8 16  1  0
  9  1  1  0
 12  2  1  0
 14  4  1  0
M  END
>  <HBA>  (788) 
2

>  <HBD>  (788) 
1

>  <TPSA>  (788) 
37.3

>  <cid>  (788) 
5251

>  <dipole>  (788) 
5.32

>  <excitation_energy_1>  (788) 
4.335

>  <excitation_energy_2>  (788) 
4.829

>  <excitation_energy_3>  (788) 
5.743

>  <excitation_energy_4>  (788) 
6.003

>  <homo_energy>  (788) 
-6.558

>  <homo_lumo_gap>  (788) 
4.819

>  <logP>  (788) 
1.203

>  <lumo_energy>  (788) 
-1.739

>  <melting_point>  (788) 
70.18

>  <molecular_refractivity>  (788) 
31.78

>  <oscillator_strength_1>  (788) 
0.0001

>  <oscillator_strength_2>  (788) 
0.8

>  <oscillator_strength_3>  (788) 
0.0025

>  <oscillator_strength_4>  (788) 
0.0202

>  <open_babel_can_smiles>  (788) 
C/C=C/C=C/C(=O)O

>  <mulliken_charges>  (788) 
16
1   -0.496288
2   -0.090059
3   -0.108327
4   -0.07158
5   -0.25603
6   0.599957
7   -0.461885
8   -0.583569
9   0.169219
10   0.169316
11   0.160829
12   0.144032
13   0.127021
14   0.171075
15   0.121177
16   0.405112

>  <lowdin_charges>  (788) 
16
1   -0.439531
2   -0.121224
3   -0.170773
4   -0.088586
5   -0.240393
6   0.191339
7   -0.256059
8   -0.36212
9   0.165397
10   0.167266
11   0.158934
12   0.158501
13   0.153399
14   0.17801
15   0.150534
16   0.355306

$$$$
PCCDB-ID:  5269
     RDKit          3D

 25 27  0  0  0  0  0  0  0  0999 V2000
    2.4399    0.5570   -0.0612 C   0  0  0  0  0  0  0  0  0  0  0  0
    2.0727   -0.7648   -0.4036 C   0  0  0  0  0  0  0  0  0  0  0  0
    1.4687    1.4639    0.2972 C   0  0  0  0  0  0  0  0  0  0  0  0
    0.7507   -1.1534   -0.3875 C   0  0  0  0  0  0  0  0  0  0  0  0
   -0.9079    2.0236    0.7129 C   0  0  0  0  0  0  0  0  0  0  0  0
   -2.1736   -1.9853   -0.3665 C   0  0  0  0  0  0  0  0  0  0  0  0
   -2.2278    1.6532    0.7536 C   0  0  0  0  0  0  0  0  0  0  0  0
   -3.5951   -1.8732   -0.9350 C   0  0  0  0  0  0  0  0  0  0  0  0
    0.0982    1.0959    0.3291 C   0  0  0  0  0  0  0  0  0  0  0  0
   -0.2808   -0.2424   -0.0273 C   0  0  0  0  0  0  0  0  0  0  0  0
   -1.6630   -0.6124    0.0038 C   0  0  0  0  0  0  0  0  0  0  0  0
   -2.5877    0.3334    0.4001 C   0  0  0  0  0  0  0  0  0  0  0  0
   -4.5102   -1.0599   -0.0458 C   0  0  0  0  0  0  0  0  0  0  0  0
   -5.6725   -1.2897    0.1619 O   0  0  0  0  0  0  0  0  0  0  0  0
   -3.9429    0.0509    0.5321 O   0  0  0  0  0  0  0  0  0  0  0  0
    3.4855    0.8509   -0.0798 H   0  0  0  0  0  0  0  0  0  0  0  0
    2.8411   -1.4814   -0.6812 H   0  0  0  0  0  0  0  0  0  0  0  0
    1.7379    2.4824    0.5670 H   0  0  0  0  0  0  0  0  0  0  0  0
    0.4975   -2.1763   -0.6463 H   0  0  0  0  0  0  0  0  0  0  0  0
   -0.6155    3.0354    0.9811 H   0  0  0  0  0  0  0  0  0  0  0  0
   -1.5309   -2.4612   -1.1124 H   0  0  0  0  0  0  0  0  0  0  0  0
   -2.1726   -2.6461    0.5129 H   0  0  0  0  0  0  0  0  0  0  0  0
   -3.0118    2.3411    1.0524 H   0  0  0  0  0  0  0  0  0  0  0  0
   -4.0632   -2.8476   -1.0887 H   0  0  0  0  0  0  0  0  0  0  0  0
   -3.5582   -1.3651   -1.9092 H   0  0  0  0  0  0  0  0  0  0  0  0
  1  3  2  0
  2  4  2  0
  2  1  1  0
  3  9  1  0
  3 18  1  0
  4 10  1  0
  5  7  1  0
  5 20  1  0
  6 11  1  0
  6 22  1  0
  7 23  1  0
  8  6  1  0
  8 13  1  0
  9  5  2  0
 10 11  2  0
 10  9  1  0
 11 12  1  0
 12 15  1  0
 12  7  2  0
 13 14  2  0
 13 15  1  0
 16  1  1  0
 17  2  1  0
 19  4  1  0
 21  6  1  0
 24  8  1  0
 25  8  1  0
M  END
>  <HBA>  (789) 
2

>  <HBD>  (789) 
0

>  <TPSA>  (789) 
26.3

>  <cid>  (789) 
5269

>  <dipole>  (789) 
4.08

>  <excitation_energy_1>  (789) 
4.124

>  <excitation_energy_2>  (789) 
4.345

>  <excitation_energy_3>  (789) 
5.047

>  <excitation_energy_4>  (789) 
5.249

>  <homo_energy>  (789) 
-5.94

>  <homo_lumo_gap>  (789) 
4.629

>  <logP>  (789) 
2.691

>  <lumo_energy>  (789) 
-1.312

>  <melting_point>  (789) 
101.9

>  <molecular_refractivity>  (789) 
58.3

>  <oscillator_strength_1>  (789) 
0.0472

>  <oscillator_strength_2>  (789) 
0.0066

>  <oscillator_strength_3>  (789) 
0.2022

>  <oscillator_strength_4>  (789) 
0.0002

>  <open_babel_can_smiles>  (789) 
O=C1CCc2c(O1)ccc1c2cccc1

>  <mulliken_charges>  (789) 
25
1   -0.133765
2   -0.133157
3   -0.196965
4   -0.200426
5   -0.201145
6   -0.349025
7   -0.170395
8   -0.378456
9   0.150229
10   0.063602
11   0.071134
12   0.288205
13   0.601594
14   -0.43703
15   -0.503873
16   0.133329
17   0.13293
18   0.133658
19   0.130032
20   0.138711
21   0.164405
22   0.173648
23   0.153828
24   0.182701
25   0.186232

>  <lowdin_charges>  (789) 
25
1   -0.159287
2   -0.153155
3   -0.150319
4   -0.165679
5   -0.145639
6   -0.273439
7   -0.169924
8   -0.304289
9   -0.004659
10   0.000242
11   -0.047082
12   0.09041
13   0.200715
14   -0.220817
15   -0.149632
16   0.159185
17   0.161221
18   0.158426
19   0.157435
20   0.162123
21   0.16371
22   0.162305
23   0.175874
24   0.176683
25   0.175592

$$$$
PCCDB-ID:  5270
     RDKit          3D

 26 28  0  0  1  0  0  0  0  0999 V2000
   -0.6829    1.6009    0.2536 C   0  0  0  0  0  0  0  0  0  0  0  0
   -0.5437    0.3679   -0.6778 C   0  0  0  0  0  0  0  0  0  0  0  0
    0.6455    1.6166    1.0422 C   0  0  0  0  0  0  0  0  0  0  0  0
    4.3527   -2.2524   -1.9687 C   0  0  0  0  0  0  0  0  0  0  0  0
    2.0134    1.4114   -2.0596 C   0  0  0  0  0  0  0  0  0  0  0  0
    0.8683   -0.1808   -0.3766 C   0  0  1  0  0  0  0  0  0  0  0  0
    3.6662    0.2254   -2.6615 C   0  0  0  0  0  0  0  0  0  0  0  0
    4.8274   -0.3629   -3.2048 C   0  0  0  0  0  3  0  0  0  0  0  0
    2.9391   -0.5673   -1.7688 C   0  0  0  0  0  0  0  0  0  0  0  0
    5.6103    0.2794   -4.1113 N   0  0  0  0  0  0  0  0  0  0  0  0
    5.1578   -1.6120   -2.8331 N   0  0  0  0  0  0  0  0  0  0  0  0
    3.2304   -1.8174   -1.3885 N   0  0  0  0  0  2  0  0  0  0  0  0
    3.0719    1.4647   -2.8310 N   0  0  0  0  0  0  0  0  0  0  0  0
    1.8585    0.2088   -1.3877 N   0  0  0  0  0  0  0  0  0  0  0  0
    1.1973    0.3040    0.9076 O   0  0  0  0  0  0  0  0  0  0  0  0
   -1.5371    1.4842    0.9261 H   0  0  0  0  0  0  0  0  0  0  0  0
   -0.8320    2.5312   -0.3037 H   0  0  0  0  0  0  0  0  0  0  0  0
   -0.6781    0.6027   -1.7365 H   0  0  0  0  0  0  0  0  0  0  0  0
   -1.2795   -0.3978   -0.4189 H   0  0  0  0  0  0  0  0  0  0  0  0
    0.5234    1.8059    2.1115 H   0  0  0  0  0  0  0  0  0  0  0  0
    1.3441    2.3643    0.6390 H   0  0  0  0  0  0  0  0  0  0  0  0
    4.6632   -3.2617   -1.7064 H   0  0  0  0  0  0  0  0  0  0  0  0
    1.2983    2.2155   -1.9464 H   0  0  0  0  0  0  0  0  0  0  0  0
    0.9260   -1.2686   -0.3309 H   0  0  0  0  0  0  0  0  0  0  0  0
    5.4855    1.2726   -4.2400 H   0  0  0  0  0  0  0  0  0  0  0  0
    6.5152   -0.1220   -4.3102 H   0  0  0  0  0  0  0  0  0  0  0  0
  1 16  1  0
  1  3  1  0
  2 19  1  0
  2  6  1  0
  2  1  1  0
  3 20  1  0
  4 22  1  0
  4 12  1  0
  5 23  1  0
  5 14  1  0
  6 24  1  1
  6 15  1  0
  7  9  2  0
  8 10  1  0
  8 11  1  0
  8  7  1  0
  9 12  1  0
  9 14  1  0
 11  4  2  0
 13  7  1  0
 13  5  2  0
 14  6  1  0
 15  3  1  0
 17  1  1  0
 18  2  1  0
 21  3  1  0
 25 10  1  0
 26 10  1  0
M  RAD  2   8   2  12   2
M  END
>  <HBA>  (790) 
6

>  <HBD>  (790) 
1

>  <TPSA>  (790) 
78.85

>  <cid>  (790) 
5270

>  <dipole>  (790) 
3.63

>  <excitation_energy_1>  (790) 
4.919

>  <excitation_energy_2>  (790) 
4.98

>  <excitation_energy_3>  (790) 
5.235

>  <excitation_energy_4>  (790) 
5.431

>  <homo_energy>  (790) 
-5.87

>  <homo_lumo_gap>  (790) 
5.415

>  <logP>  (790) 
1.299

>  <lumo_energy>  (790) 
-0.454

>  <melting_point>  (790) 
159.13

>  <molecular_refractivity>  (790) 
54.38

>  <oscillator_strength_1>  (790) 
0.1819

>  <oscillator_strength_2>  (790) 
0.0506

>  <oscillator_strength_3>  (790) 
0.0416

>  <oscillator_strength_4>  (790) 
0.0107

>  <open_babel_can_smiles>  (790) 
N[C]1N=C[N]c2c1ncn2[C@@H]1CCCO1

>  <mulliken_charges>  (790) 
26
1   -0.315892
2   -0.315572
3   -0.034077
4   0.164346
5   0.216927
6   0.228115
7   0.185682
8   0.486721
9   0.529172
10   -0.775531
11   -0.509367
12   -0.505092
13   -0.52813
14   -0.505724
15   -0.455244
16   0.161575
17   0.150914
18   0.164882
19   0.169773
20   0.158131
21   0.140697
22   0.144239
23   0.161172
24   0.186977
25   0.352381
26   0.342925

>  <lowdin_charges>  (790) 
26
1   -0.301363
2   -0.298596
3   -0.137846
4   -0.033407
5   -0.070706
6   0.056559
7   -0.063976
8   0.120268
9   0.062971
10   -0.440803
11   -0.221696
12   -0.203951
13   -0.190706
14   -0.038646
15   -0.254204
16   0.158617
17   0.152478
18   0.15907
19   0.166011
20   0.154548
21   0.135939
22   0.156499
23   0.169782
24   0.173346
25   0.296207
26   0.293607

$$$$
PCCDB-ID:  5312
     RDKit          3D

 21 20  0  0  0  0  0  0  0  0999 V2000
    5.7174    2.9965    1.1808 C   0  0  0  0  0  0  0  0  0  0  0  0
    1.9750    1.2091   -0.6803 C   0  0  0  0  0  0  0  0  0  0  0  0
    0.5559    1.3629   -0.1026 C   0  0  0  0  0  0  0  0  0  0  0  0
    4.3266    2.2572   -0.8828 C   0  0  0  0  0  0  0  0  0  0  0  0
    4.9761    1.8882    0.4709 C   0  0  0  0  0  0  0  0  0  0  0  0
    2.8321    2.4565   -0.6566 C   0  0  0  0  0  0  0  0  0  0  0  0
   -0.4472    2.0615   -1.0267 C   0  0  0  0  0  0  0  0  0  0  0  0
    4.8420    0.7719    0.9282 O   0  0  0  0  0  0  0  0  0  0  0  0
    2.3937    3.5741   -0.4174 O   0  0  0  0  0  0  0  0  0  0  0  0
   -1.4007    1.4929   -1.5035 O   0  0  0  0  0  0  0  0  0  0  0  0
   -0.2081    3.3630   -1.2811 O   0  0  0  0  0  0  0  0  0  0  0  0
    6.5784    3.3183    0.5813 H   0  0  0  0  0  0  0  0  0  0  0  0
    6.0568    2.6563    2.1607 H   0  0  0  0  0  0  0  0  0  0  0  0
    5.0613    3.8698    1.2875 H   0  0  0  0  0  0  0  0  0  0  0  0
    1.9426    0.8444   -1.7182 H   0  0  0  0  0  0  0  0  0  0  0  0
    2.5301    0.4403   -0.1252 H   0  0  0  0  0  0  0  0  0  0  0  0
    0.6100    1.9041    0.8505 H   0  0  0  0  0  0  0  0  0  0  0  0
    0.1470    0.3711    0.0989 H   0  0  0  0  0  0  0  0  0  0  0  0
    4.5002    1.4256   -1.5724 H   0  0  0  0  0  0  0  0  0  0  0  0
    4.7455    3.1817   -1.2855 H   0  0  0  0  0  0  0  0  0  0  0  0
    0.6255    3.6396   -0.8387 H   0  0  0  0  0  0  0  0  0  0  0  0
  1 14  1  0
  1 13  1  0
  2  6  1  0
  2 16  1  0
  2  3  1  0
  3 18  1  0
  3 17  1  0
  4  6  1  0
  4  5  1  0
  5  8  2  0
  5  1  1  0
  6  9  2  0
  7  3  1  0
 10  7  2  0
 11  7  1  0
 11 21  1  0
 12  1  1  0
 15  2  1  0
 19  4  1  0
 20  4  1  0
M  END
>  <HBA>  (791) 
4

>  <HBD>  (791) 
1

>  <TPSA>  (791) 
71.44

>  <cid>  (791) 
5312

>  <dipole>  (791) 
6.3

>  <excitation_energy_1>  (791) 
4.184

>  <excitation_energy_2>  (791) 
4.405

>  <excitation_energy_3>  (791) 
4.596

>  <excitation_energy_4>  (791) 
5.386

>  <homo_energy>  (791) 
-6.969

>  <homo_lumo_gap>  (791) 
5.037

>  <logP>  (791) 
0.399

>  <lumo_energy>  (791) 
-1.932

>  <melting_point>  (791) 
92.71

>  <molecular_refractivity>  (791) 
37.93

>  <oscillator_strength_1>  (791) 
0.0122

>  <oscillator_strength_2>  (791) 
0.0006

>  <oscillator_strength_3>  (791) 
0.0016

>  <oscillator_strength_4>  (791) 
0.0157

>  <open_babel_can_smiles>  (791) 
OC(=O)CCC(=O)CC(=O)C

>  <mulliken_charges>  (791) 
21
1   -0.529694
2   -0.380756
3   -0.379213
4   -0.420655
5   0.442414
6   0.46035
7   0.577171
8   -0.415627
9   -0.462946
10   -0.446691
11   -0.586616
12   0.182307
13   0.190383
14   0.192456
15   0.195695
16   0.209615
17   0.173215
18   0.184574
19   0.192098
20   0.18327
21   0.438649

>  <lowdin_charges>  (791) 
21
1   -0.469957
2   -0.310472
3   -0.314056
4   -0.336243
5   0.17467
6   0.184579
7   0.187034
8   -0.221893
9   -0.24702
10   -0.253006
11   -0.369904
12   0.179079
13   0.178319
14   0.183126
15   0.180651
16   0.189828
17   0.167253
18   0.178515
19   0.184875
20   0.178246
21   0.356375

$$$$
PCCDB-ID:  5320
     RDKit          3D

 24 24  0  0  0  0  0  0  0  0999 V2000
    2.8497    3.2332   -0.3271 C   0  0  0  0  0  0  0  0  0  0  0  0
    0.8800   -2.4555   -3.6204 C   0  0  0  0  0  0  0  0  0  0  0  0
   -0.2495   -0.7702   -4.9490 C   0  0  0  0  0  0  0  0  0  0  0  0
    1.5972   -1.4617   -2.9684 C   0  0  0  0  0  0  0  0  0  0  0  0
    0.4673    0.2245   -4.2974 C   0  0  0  0  0  0  0  0  0  0  0  0
    1.6121    2.3649   -0.3094 C   0  0  0  0  0  0  0  0  0  0  0  0
   -0.0576   -2.1258   -4.6184 C   0  0  0  0  0  0  0  0  0  0  0  0
    1.3848   -0.1220   -3.3028 C   0  0  0  0  0  0  0  0  0  0  0  0
   -0.7367   -3.1233   -5.3047 N   0  0  0  0  0  0  0  0  0  0  0  0
    1.2731    1.4576   -1.1506 N   0  0  0  0  0  0  0  0  0  0  0  0
    0.7474    2.5461    0.7111 O   0  0  0  0  0  0  0  0  0  0  0  0
    2.3445    2.3384   -3.3356 O   0  0  0  0  0  0  0  0  0  0  0  0
    3.5576    0.5658   -1.9691 O   0  0  0  0  0  0  0  0  0  0  0  0
    2.2997    1.1498   -2.4661 S   0  0  0  0  0  0  0  0  0  0  0  0
    3.7374    2.5966   -0.2628 H   0  0  0  0  0  0  0  0  0  0  0  0
    2.8632    3.9562    0.4949 H   0  0  0  0  0  0  0  0  0  0  0  0
    2.9051    3.7677   -1.2796 H   0  0  0  0  0  0  0  0  0  0  0  0
    1.0490   -3.4996   -3.3682 H   0  0  0  0  0  0  0  0  0  0  0  0
   -0.9585   -0.5040   -5.7291 H   0  0  0  0  0  0  0  0  0  0  0  0
    2.3262   -1.7175   -2.2069 H   0  0  0  0  0  0  0  0  0  0  0  0
    0.3261    1.2675   -4.5596 H   0  0  0  0  0  0  0  0  0  0  0  0
   -0.8156   -4.0143   -4.8324 H   0  0  0  0  0  0  0  0  0  0  0  0
   -1.5984   -2.8461   -5.7561 H   0  0  0  0  0  0  0  0  0  0  0  0
    1.0784    3.2455    1.2954 H   0  0  0  0  0  0  0  0  0  0  0  0
  1  6  1  0
  1 15  1  0
  1 16  1  0
  2 18  1  0
  2  4  2  0
  3  7  2  0
  3  5  1  0
  4 20  1  0
  5  8  2  0
  6 11  1  0
  7  2  1  0
  8  4  1  0
  8 14  1  0
  9 22  1  0
  9  7  1  0
 10  6  2  0
 11 24  1  0
 12 14  2  0
 14 13  2  0
 14 10  1  0
 17  1  1  0
 19  3  1  0
 21  5  1  0
 23  9  1  0
M  END
>  <HBA>  (792) 
5

>  <HBD>  (792) 
2

>  <TPSA>  (792) 
97.64

>  <cid>  (792) 
5320

>  <dipole>  (792) 
3.67

>  <excitation_energy_1>  (792) 
4.576

>  <excitation_energy_2>  (792) 
4.882

>  <excitation_energy_3>  (792) 
4.996

>  <excitation_energy_4>  (792) 
5.157

>  <homo_energy>  (792) 
-5.861

>  <homo_lumo_gap>  (792) 
5.35

>  <logP>  (792) 
2.147

>  <lumo_energy>  (792) 
-0.512

>  <melting_point>  (792) 
134.86

>  <molecular_refractivity>  (792) 
51.75

>  <oscillator_strength_1>  (792) 
0.0077

>  <oscillator_strength_2>  (792) 
0.008

>  <oscillator_strength_3>  (792) 
0.0946

>  <oscillator_strength_4>  (792) 
0.2497

>  <open_babel_can_smiles>  (792) 
C/C(=N\S(=O)(=O)c1ccc(cc1)N)/O

>  <mulliken_charges>  (792) 
24
1   -0.55532
2   -0.169505
3   -0.169482
4   -0.13968
5   -0.141199
6   0.482684
7   0.328664
8   -0.155496
9   -0.788562
10   -0.523106
11   -0.539871
12   -0.552811
13   -0.551437
14   1.188188
15   0.23206
16   0.143144
17   0.235332
18   0.12818
19   0.128058
20   0.173463
21   0.173653
22   0.328152
23   0.328096
24   0.416796

>  <lowdin_charges>  (792) 
24
1   -0.486272
2   -0.19676
3   -0.196991
4   -0.118716
5   -0.118007
6   0.177595
7   0.076484
8   -0.203191
9   -0.474456
10   -0.387062
11   -0.329796
12   -0.604438
13   -0.60253
14   1.297796
15   0.20232
16   0.15682
17   0.203279
18   0.157162
19   0.158937
20   0.182172
21   0.180494
22   0.280744
23   0.280651
24   0.363765

$$$$
PCCDB-ID:  5333
     RDKit          3D

 19 19  0  0  0  0  0  0  0  0999 V2000
   -0.7379    1.1928   -0.0189 C   0  0  0  0  0  0  0  0  0  0  0  0
    1.4313    0.1180    0.0139 C   0  0  0  0  0  0  0  0  0  0  0  0
   -1.3524   -0.0492   -0.0647 C   0  0  0  0  0  0  0  0  0  0  0  0
    0.8166   -1.1290   -0.0312 C   0  0  0  0  0  0  0  0  0  0  0  0
    0.6667    1.2983    0.0212 C   0  0  0  0  0  0  0  0  0  0  0  0
   -0.5761   -1.2153   -0.0714 C   0  0  0  0  0  0  0  0  0  0  0  0
    1.2772    2.5413    0.1199 N   0  0  0  0  0  0  0  0  0  0  0  0
   -0.2103   -3.9223   -0.1489 N   0  0  0  0  0  0  0  0  0  0  0  0
   -2.1974   -2.9350    1.1219 O   0  0  0  0  0  0  0  0  0  0  0  0
   -2.1538   -2.8539   -1.4227 O   0  0  0  0  0  0  0  0  0  0  0  0
   -1.4566   -2.7656   -0.1339 S   0  0  0  0  0  0  0  0  0  0  0  0
   -1.3442    2.0952   -0.0100 H   0  0  0  0  0  0  0  0  0  0  0  0
    2.5163    0.1815    0.0481 H   0  0  0  0  0  0  0  0  0  0  0  0
   -2.4356   -0.1128   -0.0984 H   0  0  0  0  0  0  0  0  0  0  0  0
    1.4111   -2.0350   -0.0388 H   0  0  0  0  0  0  0  0  0  0  0  0
    0.7336    3.3310   -0.2028 H   0  0  0  0  0  0  0  0  0  0  0  0
    2.2430    2.5886   -0.1777 H   0  0  0  0  0  0  0  0  0  0  0  0
   -0.3144   -4.5186    0.6697 H   0  0  0  0  0  0  0  0  0  0  0  0
   -0.2866   -4.4668   -1.0058 H   0  0  0  0  0  0  0  0  0  0  0  0
  1 12  1  0
  1  5  2  0
  2  5  1  0
  2 13  1  0
  3  1  1  0
  4  2  2  0
  5  7  1  0
  6  3  2  0
  6  4  1  0
  8 11  1  0
  8 18  1  0
 10 11  2  0
 11  6  1  0
 11  9  2  0
 14  3  1  0
 15  4  1  0
 16  7  1  0
 17  7  1  0
 19  8  1  0
M  END
>  <HBA>  (793) 
4

>  <HBD>  (793) 
2

>  <TPSA>  (793) 
94.56

>  <cid>  (793) 
5333

>  <dipole>  (793) 
5.18

>  <excitation_energy_1>  (793) 
4.702

>  <excitation_energy_2>  (793) 
4.993

>  <excitation_energy_3>  (793) 
5.204

>  <excitation_energy_4>  (793) 
5.482

>  <homo_energy>  (793) 
-5.935

>  <homo_lumo_gap>  (793) 
5.554

>  <logP>  (793) 
2.279

>  <lumo_energy>  (793) 
-0.381

>  <melting_point>  (793) 
141.87

>  <molecular_refractivity>  (793) 
41.84

>  <oscillator_strength_1>  (793) 
0.0223

>  <oscillator_strength_2>  (793) 
0.0378

>  <oscillator_strength_3>  (793) 
0.2758

>  <oscillator_strength_4>  (793) 
0.005

>  <open_babel_can_smiles>  (793) 
Nc1ccc(cc1)S(=O)(=O)N

>  <mulliken_charges>  (793) 
19
1   -0.167678
2   -0.166371
3   -0.144417
4   -0.146644
5   0.328605
6   -0.136874
7   -0.789135
8   -0.833333
9   -0.526318
10   -0.528411
11   1.134493
12   0.131193
13   0.127431
14   0.171768
15   0.172795
16   0.328942
17   0.328213
18   0.358044
19   0.357697

>  <lowdin_charges>  (793) 
19
1   -0.192979
2   -0.196056
3   -0.119215
4   -0.135086
5   0.074512
6   -0.204597
7   -0.475431
8   -0.698865
9   -0.594768
10   -0.595865
11   1.29983
12   0.160607
13   0.156324
14   0.177837
15   0.180156
16   0.282312
17   0.279878
18   0.30091
19   0.300496

$$$$
PCCDB-ID:  5363
     RDKit          3D

 27 28  0  0  1  0  0  0  0  0999 V2000
   -2.2191    0.7108    0.4541 C   0  0  0  0  0  0  0  0  0  0  0  0
   -2.3183   -0.6220   -0.3089 C   0  0  0  0  0  0  0  0  0  0  0  0
   -0.9308    1.4710    0.1061 C   0  0  0  0  0  0  0  0  0  0  0  0
    1.5447    1.1824    0.0908 C   0  0  0  0  0  0  0  0  0  0  0  0
   -1.0659   -1.4727   -0.0887 C   0  0  2  0  0  0  0  0  0  0  0  0
    2.4704   -0.0339   -0.1730 C   0  0  1  0  0  0  0  0  0  0  0  0
    0.1724   -0.6444   -0.4224 C   0  0  2  0  0  0  0  0  0  0  0  0
    1.5228   -1.2555   -0.0308 C   0  0  1  0  0  0  0  0  0  0  0  0
    0.2186    0.6072    0.3208 N   0  0  0  0  0  0  0  0  0  0  0  0
   -1.1335   -2.6241   -0.9186 O   0  0  0  0  0  0  0  0  0  0  0  0
    3.0479   -0.0348   -1.4864 O   0  0  0  0  0  0  0  0  0  0  0  0
    1.9203   -2.3708   -0.8025 O   0  0  0  0  0  0  0  0  0  0  0  0
   -2.2289    0.5200    1.5348 H   0  0  0  0  0  0  0  0  0  0  0  0
   -3.0876    1.3410    0.2287 H   0  0  0  0  0  0  0  0  0  0  0  0
   -2.4132   -0.4347   -1.3874 H   0  0  0  0  0  0  0  0  0  0  0  0
   -3.2086   -1.1837   -0.0038 H   0  0  0  0  0  0  0  0  0  0  0  0
   -0.8298    2.3604    0.7409 H   0  0  0  0  0  0  0  0  0  0  0  0
   -0.9771    1.8268   -0.9452 H   0  0  0  0  0  0  0  0  0  0  0  0
    1.5706    1.8490   -0.7954 H   0  0  0  0  0  0  0  0  0  0  0  0
    1.8639    1.7855    0.9490 H   0  0  0  0  0  0  0  0  0  0  0  0
   -1.0080   -1.7600    0.9763 H   0  0  0  0  0  0  0  0  0  0  0  0
    3.3229   -0.0821    0.5077 H   0  0  0  0  0  0  0  0  0  0  0  0
    0.1613   -0.4823   -1.5258 H   0  0  0  0  0  0  0  0  0  0  0  0
    1.4725   -1.5730    1.0171 H   0  0  0  0  0  0  0  0  0  0  0  0
   -0.2325   -2.9918   -0.9698 H   0  0  0  0  0  0  0  0  0  0  0  0
    2.4038    0.3565   -2.0989 H   0  0  0  0  0  0  0  0  0  0  0  0
    2.4551   -1.9981   -1.5302 H   0  0  0  0  0  0  0  0  0  0  0  0
  1 13  1  0
  2  5  1  0
  2 16  1  0
  2  1  1  0
  3  9  1  0
  3  1  1  0
  3 17  1  0
  4 20  1  0
  5 21  1  1
  6  8  1  0
  6  4  1  0
  6 22  1  1
  7 23  1  6
  7  5  1  0
  7  8  1  0
  7  9  1  0
  8 24  1  1
  9  4  1  0
 10  5  1  0
 11  6  1  0
 12  8  1  0
 14  1  1  0
 15  2  1  0
 18  3  1  0
 19  4  1  0
 25 10  1  0
 26 11  1  0
 27 12  1  0
M  END
>  <HBA>  (794) 
4

>  <HBD>  (794) 
3

>  <TPSA>  (794) 
63.93

>  <cid>  (794) 
5363

>  <dipole>  (794) 
3.17

>  <excitation_energy_1>  (794) 
5.394

>  <excitation_energy_2>  (794) 
5.662

>  <excitation_energy_3>  (794) 
5.896

>  <excitation_energy_4>  (794) 
6.136

>  <homo_energy>  (794) 
-6.093

>  <homo_lumo_gap>  (794) 
7.453

>  <logP>  (794) 
-1.515

>  <lumo_energy>  (794) 
1.361

>  <melting_point>  (794) 
75.76

>  <molecular_refractivity>  (794) 
46.64

>  <oscillator_strength_1>  (794) 
0.0577

>  <oscillator_strength_2>  (794) 
0.0148

>  <oscillator_strength_3>  (794) 
0.0253

>  <oscillator_strength_4>  (794) 
0.0104

>  <open_babel_can_smiles>  (794) 
O[C@H]1CN2[C@@H]([C@H]1O)[C@H](O)CCC2

>  <mulliken_charges>  (794) 
27
1   -0.273919
2   -0.279635
3   -0.115632
4   -0.130245
5   0.1694
6   0.069189
7   -0.003635
8   0.132882
9   -0.424101
10   -0.657014
11   -0.638592
12   -0.648849
13   0.144964
14   0.138338
15   0.138196
16   0.148434
17   0.140129
18   0.106953
19   0.115993
20   0.155849
21   0.110826
22   0.158527
23   0.084398
24   0.145224
25   0.410103
26   0.396701
27   0.405516

>  <lowdin_charges>  (794) 
27
1   -0.278839
2   -0.282558
3   -0.197632
4   -0.213039
5   -0.000761
6   -0.020069
7   -0.100696
8   -0.033121
9   -0.188563
10   -0.468608
11   -0.457136
12   -0.458825
13   0.145693
14   0.15066
15   0.144095
16   0.154957
17   0.146932
18   0.112509
19   0.124376
20   0.154654
21   0.122744
22   0.156298
23   0.103398
24   0.148333
25   0.346601
26   0.342572
27   0.346026

$$$$
PCCDB-ID:  5365
     RDKit          3D

 22 21  0  0  1  0  0  0  0  0999 V2000
    0.6473   -0.5180    0.6184 C   0  0  0  0  0  0  0  0  0  0  0  0
    1.6269   -1.4066   -1.5447 C   0  0  0  0  0  0  0  0  0  0  0  0
    0.3335   -1.0026   -0.8180 C   0  0  1  0  0  0  0  0  0  0  0  0
    1.5407   -1.5385   -3.0767 C   0  0  1  0  0  0  0  0  0  0  0  0
   -0.6933   -2.1362   -0.7446 C   0  0  0  0  0  0  0  0  0  0  0  0
    2.9795   -1.4582   -3.6608 C   0  0  0  0  0  0  0  0  0  0  0  0
    0.8985   -2.7780   -3.5561 N   0  0  0  0  0  0  0  0  0  0  0  0
   -0.4667   -3.3001   -0.9867 O   0  0  0  0  0  0  0  0  0  0  0  0
   -1.9378   -1.7779   -0.3397 O   0  0  0  0  0  0  0  0  0  0  0  0
    3.7228   -0.5316   -3.4255 O   0  0  0  0  0  0  0  0  0  0  0  0
    3.2965   -2.4968   -4.4356 O   0  0  0  0  0  0  0  0  0  0  0  0
    1.3389    0.3291    0.5846 H   0  0  0  0  0  0  0  0  0  0  0  0
    1.1166   -1.3190    1.1994 H   0  0  0  0  0  0  0  0  0  0  0  0
   -0.2504   -0.1971    1.1589 H   0  0  0  0  0  0  0  0  0  0  0  0
    2.0028   -2.3453   -1.1189 H   0  0  0  0  0  0  0  0  0  0  0  0
    2.3810   -0.6394   -1.3456 H   0  0  0  0  0  0  0  0  0  0  0  0
   -0.1349   -0.1691   -1.3647 H   0  0  0  0  0  0  0  0  0  0  0  0
    1.0208   -0.6556   -3.4737 H   0  0  0  0  0  0  0  0  0  0  0  0
    0.5466   -3.3329   -2.7775 H   0  0  0  0  0  0  0  0  0  0  0  0
    0.1161   -2.5859   -4.1750 H   0  0  0  0  0  0  0  0  0  0  0  0
   -1.9772   -0.8211   -0.1751 H   0  0  0  0  0  0  0  0  0  0  0  0
    2.4820   -3.0740   -4.3956 H   0  0  0  0  0  0  0  0  0  0  0  0
  1 14  1  0
  1 13  1  0
  2 16  1  0
  2 15  1  0
  2  3  1  0
  3 17  1  6
  3  5  1  0
  3  1  1  0
  4 18  1  6
  4  2  1  0
  5  9  1  0
  6 10  2  0
  6  4  1  0
  7  4  1  0
  7 19  1  0
  8  5  2  0
  9 21  1  0
 11 22  1  0
 11  6  1  0
 12  1  1  0
 20  7  1  0
M  END
>  <HBA>  (795) 
5

>  <HBD>  (795) 
3

>  <TPSA>  (795) 
100.62

>  <cid>  (795) 
5365

>  <dipole>  (795) 
5.62

>  <excitation_energy_1>  (795) 
5.394

>  <excitation_energy_2>  (795) 
5.439

>  <excitation_energy_3>  (795) 
5.661

>  <excitation_energy_4>  (795) 
5.791

>  <homo_energy>  (795) 
-6.634

>  <homo_lumo_gap>  (795) 
6.172

>  <logP>  (795) 
0.209

>  <lumo_energy>  (795) 
-0.463

>  <melting_point>  (795) 
182.0

>  <molecular_refractivity>  (795) 
37.21

>  <oscillator_strength_1>  (795) 
0.0022

>  <oscillator_strength_2>  (795) 
0.0004

>  <oscillator_strength_3>  (795) 
0.0016

>  <oscillator_strength_4>  (795) 
0.0016

>  <open_babel_can_smiles>  (795) 
OC(=O)[C@H](C[C@@H](C(=O)O)N)C

>  <mulliken_charges>  (795) 
22
1   -0.458338
2   -0.286579
3   -0.21835
4   -0.070744
5   0.61815
6   0.602383
7   -0.808653
8   -0.455619
9   -0.56106
10   -0.476853
11   -0.578565
12   0.176381
13   0.177889
14   0.141959
15   0.167379
16   0.185289
17   0.146008
18   0.157842
19   0.367635
20   0.321562
21   0.41618
22   0.436103

>  <lowdin_charges>  (795) 
22
1   -0.441779
2   -0.280607
3   -0.168503
4   -0.108567
5   0.198628
6   0.170726
7   -0.560178
8   -0.250133
9   -0.342218
10   -0.271601
11   -0.352962
12   0.167123
13   0.167203
14   0.148722
15   0.162634
16   0.176161
17   0.151817
18   0.156187
19   0.285278
20   0.272288
21   0.359462
22   0.360316

$$$$
PCCDB-ID:  5370
     RDKit          3D

 17 17  0  0  1  0  0  0  0  0999 V2000
   -0.3978    0.9541    0.7849 C   0  0  0  0  0  0  0  0  0  0  0  0
   -1.3228   -0.1036    0.1053 C   0  0  1  0  0  0  0  0  0  0  0  0
    0.7847    0.0454    0.3395 C   0  0  1  0  0  0  0  0  0  0  0  0
   -1.8645    0.3345   -1.2524 C   0  0  0  0  0  0  0  0  0  0  0  0
    1.7624   -0.3579    1.4434 C   0  0  0  0  0  0  0  0  0  0  0  0
   -0.1827   -1.0340   -0.0096 N   0  0  0  0  0  0  0  0  0  0  0  0
   -1.4238   -0.0647   -2.3020 O   0  0  0  0  0  0  0  0  0  0  0  0
   -2.8852    1.2236   -1.2188 O   0  0  0  0  0  0  0  0  0  0  0  0
    2.6489    0.3669    1.8274 O   0  0  0  0  0  0  0  0  0  0  0  0
    1.5103   -1.5697    1.9650 O   0  0  0  0  0  0  0  0  0  0  0  0
   -0.5237    1.0120    1.8682 H   0  0  0  0  0  0  0  0  0  0  0  0
   -0.4116    1.9614    0.3640 H   0  0  0  0  0  0  0  0  0  0  0  0
   -2.1500   -0.4879    0.7185 H   0  0  0  0  0  0  0  0  0  0  0  0
    1.3448    0.4567   -0.5057 H   0  0  0  0  0  0  0  0  0  0  0  0
   -0.0887   -1.3972   -0.9595 H   0  0  0  0  0  0  0  0  0  0  0  0
   -3.1234    1.4349   -0.2997 H   0  0  0  0  0  0  0  0  0  0  0  0
    0.7343   -1.9174    1.4611 H   0  0  0  0  0  0  0  0  0  0  0  0
  1 11  1  0
  2 13  1  1
  2  1  1  0
  3 14  1  6
  3  1  1  0
  3  5  1  0
  4  8  1  0
  4  2  1  0
  5  9  2  0
  5 10  1  0
  6  2  1  0
  6  3  1  0
  7  4  2  0
  8 16  1  0
 12  1  1  0
 15  6  1  0
 17 10  1  0
M  END
>  <HBA>  (796) 
5

>  <HBD>  (796) 
3

>  <TPSA>  (796) 
86.63

>  <cid>  (796) 
5370

>  <dipole>  (796) 
4.46

>  <excitation_energy_1>  (796) 
5.334

>  <excitation_energy_2>  (796) 
5.647

>  <excitation_energy_3>  (796) 
5.848

>  <excitation_energy_4>  (796) 
6.05

>  <homo_energy>  (796) 
-7.1

>  <homo_lumo_gap>  (796) 
6.479

>  <logP>  (796) 
-0.785

>  <lumo_energy>  (796) 
-0.62

>  <melting_point>  (796) 
178.18

>  <molecular_refractivity>  (796) 
34.3

>  <oscillator_strength_1>  (796) 
0.0008

>  <oscillator_strength_2>  (796) 
0.0008

>  <oscillator_strength_3>  (796) 
0.0023

>  <oscillator_strength_4>  (796) 
0.001

>  <open_babel_can_smiles>  (796) 
OC(=O)[C@@H]1C[C@H](N1)C(=O)O

>  <mulliken_charges>  (796) 
17
1   -0.320277
2   -0.085382
3   -0.060653
4   0.596588
5   0.597573
6   -0.613916
7   -0.433869
8   -0.554805
9   -0.455518
10   -0.576249
11   0.182986
12   0.181754
13   0.168562
14   0.186414
15   0.339431
16   0.418452
17   0.428908

>  <lowdin_charges>  (796) 
17
1   -0.275728
2   -0.109095
3   -0.09582
4   0.183842
5   0.174114
6   -0.360812
7   -0.233718
8   -0.339669
9   -0.250542
10   -0.354018
11   0.167997
12   0.166298
13   0.158963
14   0.172578
15   0.274021
16   0.3637
17   0.357888

$$$$
PCCDB-ID:  5374
     RDKit          3D

 29 30  0  0  0  0  0  0  0  0999 V2000
    4.3351    4.3355    1.4618 C   0  0  0  0  0  0  0  0  0  0  0  0
    4.5927    3.0291    1.3918 C   0  0  0  0  0  0  0  0  0  0  0  0
    4.0182   -0.9951   -1.4967 C   0  0  0  0  0  0  0  0  0  0  0  0
    3.6202    2.0180   -2.4937 C   0  0  0  0  0  0  0  0  0  0  0  0
    3.6531    1.9978    0.8265 C   0  0  0  0  0  0  0  0  0  0  0  0
    3.5229   -0.0939   -0.3576 C   0  0  0  0  0  0  0  0  0  0  0  0
    4.6940    1.8416   -1.3926 C   0  0  0  0  0  0  0  0  0  0  0  0
    3.6020   -0.5171   -2.8642 C   0  0  0  0  0  0  0  0  0  0  0  0
    3.3906    0.7517   -3.2708 C   0  0  0  0  0  0  0  0  0  0  0  0
    2.9510   -0.9927   -5.1075 C   0  0  0  0  0  0  0  0  0  0  0  0
    2.6582   -1.6089   -6.1866 N   0  0  0  0  0  0  0  0  0  0  0  0
    3.3675   -1.4654   -3.8683 N   0  0  0  0  0  0  0  0  0  0  0  0
    4.2956    1.1350   -0.1703 N   0  0  0  0  0  0  0  0  0  0  0  0
    2.8670    0.7944   -4.9726 S   0  0  0  0  0  0  0  0  0  0  0  0
    5.0354    5.0349    1.9105 H   0  0  0  0  0  0  0  0  0  0  0  0
    3.4066    4.7558    1.0795 H   0  0  0  0  0  0  0  0  0  0  0  0
    5.5348    2.6359    1.7741 H   0  0  0  0  0  0  0  0  0  0  0  0
    3.5849   -1.9915   -1.3347 H   0  0  0  0  0  0  0  0  0  0  0  0
    5.1080   -1.1211   -1.4266 H   0  0  0  0  0  0  0  0  0  0  0  0
    3.9699    2.7975   -3.1836 H   0  0  0  0  0  0  0  0  0  0  0  0
    2.6835    2.4008   -2.0615 H   0  0  0  0  0  0  0  0  0  0  0  0
    2.7380    2.4910    0.4438 H   0  0  0  0  0  0  0  0  0  0  0  0
    3.3252    1.3408    1.6453 H   0  0  0  0  0  0  0  0  0  0  0  0
    3.5799   -0.6588    0.5822 H   0  0  0  0  0  0  0  0  0  0  0  0
    2.4500    0.1117   -0.5358 H   0  0  0  0  0  0  0  0  0  0  0  0
    5.0536    2.8269   -1.0822 H   0  0  0  0  0  0  0  0  0  0  0  0
    5.5520    1.3238   -1.8382 H   0  0  0  0  0  0  0  0  0  0  0  0
    2.7600   -2.6216   -6.0813 H   0  0  0  0  0  0  0  0  0  0  0  0
    3.4589   -2.4585   -3.7056 H   0  0  0  0  0  0  0  0  0  0  0  0
  1 15  1  0
  2  1  2  3
  2 17  1  0
  3 19  1  0
  3 18  1  0
  3  6  1  0
  4 21  1  0
  4  7  1  0
  5  2  1  0
  5 23  1  0
  6 13  1  0
  6 24  1  0
  7 26  1  0
  7 13  1  0
  8  3  1  0
  9  8  2  0
  9  4  1  0
 10 14  1  0
 10 12  1  0
 11 28  1  0
 11 10  2  0
 12 29  1  0
 12  8  1  0
 13  5  1  0
 14  9  1  0
 16  1  1  0
 20  4  1  0
 22  5  1  0
 25  6  1  0
 27  7  1  0
M  END
>  <HBA>  (797) 
4

>  <HBD>  (797) 
1

>  <TPSA>  (797) 
70.39

>  <cid>  (797) 
5374

>  <dipole>  (797) 
4.79

>  <excitation_energy_1>  (797) 
3.973

>  <excitation_energy_2>  (797) 
4.363

>  <excitation_energy_3>  (797) 
4.562

>  <excitation_energy_4>  (797) 
4.658

>  <homo_energy>  (797) 
-5.023

>  <homo_lumo_gap>  (797) 
5.298

>  <logP>  (797) 
1.831

>  <lumo_energy>  (797) 
0.275

>  <melting_point>  (797) 
78.18

>  <molecular_refractivity>  (797) 
64.71

>  <oscillator_strength_1>  (797) 
0.001

>  <oscillator_strength_2>  (797) 
0.0012

>  <oscillator_strength_3>  (797) 
0.0003

>  <oscillator_strength_4>  (797) 
0.0344

>  <open_babel_can_smiles>  (797) 
C=CCN1CCc2c(CC1)sc(=N)[nH]2

>  <mulliken_charges>  (797) 
29
1   -0.33942
2   -0.04747
3   -0.3692
4   -0.326585
5   -0.168782
6   -0.110836
7   -0.153148
8   0.400702
9   -0.211922
10   0.31842
11   -0.641043
12   -0.666814
13   -0.391861
14   0.208082
15   0.145302
16   0.139978
17   0.137627
18   0.146323
19   0.17478
20   0.157003
21   0.159722
22   0.122263
23   0.149329
24   0.141879
25   0.126785
26   0.156495
27   0.150035
28   0.269996
29   0.32236

>  <lowdin_charges>  (797) 
29
1   -0.338126
2   -0.151331
3   -0.277736
4   -0.285481
5   -0.197223
6   -0.193076
7   -0.209148
8   0.008552
9   -0.191799
10   -0.013552
11   -0.447557
12   -0.249537
13   -0.192673
14   0.23539
15   0.162688
16   0.156046
17   0.156996
18   0.156322
19   0.161481
20   0.163421
21   0.154589
22   0.124094
23   0.154613
24   0.146594
25   0.124269
26   0.159516
27   0.148305
28   0.248884
29   0.285481

$$$$
PCCDB-ID:  5385
     RDKit          3D

 21 20  0  0  0  0  0  0  0  0999 V2000
    0.8191    0.5333    0.3900 C   0  0  0  0  0  0  0  0  0  0  0  0
    2.1827   -1.1118    1.7238 C   0  0  0  0  0  0  0  0  0  0  0  0
    1.6282   -1.7013   -2.3902 C   0  0  0  0  0  0  0  0  0  0  0  0
    4.2985    0.8965    1.5229 C   0  0  0  0  0  0  0  0  0  0  0  0
    2.8011   -0.6045   -0.6967 C   0  0  0  0  0  0  0  0  0  0  0  0
    2.2181   -0.0399    0.6275 C   0  0  0  0  0  0  0  0  0  0  0  0
    2.0374   -1.7383   -1.1910 N   0  0  0  0  0  0  0  0  0  0  0  0
    2.9994    1.1090    1.0060 O   0  0  0  0  0  0  0  0  0  0  0  0
    0.1348   -0.2438    0.0370 H   0  0  0  0  0  0  0  0  0  0  0  0
    0.8597    1.3334   -0.3570 H   0  0  0  0  0  0  0  0  0  0  0  0
    0.4254    0.9562    1.3197 H   0  0  0  0  0  0  0  0  0  0  0  0
    1.5153   -1.9240    1.4251 H   0  0  0  0  0  0  0  0  0  0  0  0
    1.8210   -0.6802    2.6639 H   0  0  0  0  0  0  0  0  0  0  0  0
    3.1705   -1.5508    1.9014 H   0  0  0  0  0  0  0  0  0  0  0  0
    1.0538   -2.5414   -2.7865 H   0  0  0  0  0  0  0  0  0  0  0  0
    1.8184   -0.8621   -3.0775 H   0  0  0  0  0  0  0  0  0  0  0  0
    4.7372    1.8900    1.6520 H   0  0  0  0  0  0  0  0  0  0  0  0
    4.9459    0.3217    0.8440 H   0  0  0  0  0  0  0  0  0  0  0  0
    4.2868    0.3925    2.4995 H   0  0  0  0  0  0  0  0  0  0  0  0
    3.8188   -0.9682   -0.5043 H   0  0  0  0  0  0  0  0  0  0  0  0
    2.8688    0.2195   -1.4275 H   0  0  0  0  0  0  0  0  0  0  0  0
  1  6  1  0
  1 11  1  0
  2 14  1  0
  2 13  1  0
  3  7  2  3
  4 17  1  0
  4 19  1  0
  5 20  1  0
  5  6  1  0
  6  8  1  0
  6  2  1  0
  7  5  1  0
  8  4  1  0
  9  1  1  0
 10  1  1  0
 12  2  1  0
 15  3  1  0
 16  3  1  0
 18  4  1  0
 21  5  1  0
M  END
>  <HBA>  (798) 
2

>  <HBD>  (798) 
0

>  <TPSA>  (798) 
21.59

>  <cid>  (798) 
5385

>  <dipole>  (798) 
0.92

>  <excitation_energy_1>  (798) 
4.904

>  <excitation_energy_2>  (798) 
5.552

>  <excitation_energy_3>  (798) 
6.354

>  <excitation_energy_4>  (798) 
6.63

>  <homo_energy>  (798) 
-6.694

>  <homo_lumo_gap>  (798) 
6.482

>  <logP>  (798) 
1.112

>  <lumo_energy>  (798) 
-0.212

>  <melting_point>  (798) 
-6.63

>  <molecular_refractivity>  (798) 
35.76

>  <oscillator_strength_1>  (798) 
0.0008

>  <oscillator_strength_2>  (798) 
0.059

>  <oscillator_strength_3>  (798) 
0.0003

>  <oscillator_strength_4>  (798) 
0.0196

>  <open_babel_can_smiles>  (798) 
COC(CN=C)(C)C

>  <mulliken_charges>  (798) 
21
1   -0.452654
2   -0.468125
3   -0.128237
4   -0.200345
5   -0.168291
6   0.323201
7   -0.2899
8   -0.491717
9   0.150561
10   0.147173
11   0.15088
12   0.170529
13   0.146909
14   0.139991
15   0.148976
16   0.125098
17   0.156605
18   0.128036
19   0.136717
20   0.148253
21   0.12634

>  <lowdin_charges>  (798) 
21
1   -0.448796
2   -0.458419
3   -0.222943
4   -0.28348
5   -0.221043
6   0.124752
7   -0.145517
8   -0.273664
9   0.157087
10   0.154401
11   0.156529
12   0.168972
13   0.153362
14   0.149268
15   0.155928
16   0.129733
17   0.154751
18   0.131058
19   0.134202
20   0.151386
21   0.132435

$$$$
PCCDB-ID:  5394
     RDKit          3D

 20 21  0  0  0  0  0  0  0  0999 V2000
    1.1537   -0.0568    0.1772 C   0  0  0  0  0  0  0  0  0  0  0  0
    5.6014   -2.1745   -0.1642 C   0  0  0  0  0  0  0  0  0  0  0  0
    6.5983   -0.2505   -0.1339 C   0  0  0  0  0  0  0  0  0  0  0  0
    7.7386    0.7120   -0.1568 C   0  0  0  0  0  0  0  0  0  0  0  0
    5.2398    0.0218   -0.0416 C   0  0  0  0  0  0  0  0  0  0  0  0
    3.2241   -1.3838    0.0061 C   0  0  0  0  0  0  0  0  0  0  0  0
    8.9510    0.0982   -0.2540 N   0  0  0  0  0  0  0  0  0  0  0  0
    6.7895   -1.6107   -0.2074 N   0  0  0  0  0  0  0  0  0  0  0  0
    4.5047    1.1710    0.0542 N   0  0  0  0  0  0  0  0  0  0  0  0
    3.2435    1.1004    0.1245 N   0  0  0  0  0  0  0  0  0  0  0  0
    2.6123   -0.1453    0.1044 N   0  0  0  0  0  0  0  0  0  0  0  0
    4.6172   -1.2311   -0.0624 N   0  0  0  0  0  0  0  0  0  0  0  0
    7.5783    1.9225   -0.0931 O   0  0  0  0  0  0  0  0  0  0  0  0
    2.6672   -2.4613   -0.0184 O   0  0  0  0  0  0  0  0  0  0  0  0
    0.7600   -1.0643    0.3003 H   0  0  0  0  0  0  0  0  0  0  0  0
    0.7612    0.3876   -0.7414 H   0  0  0  0  0  0  0  0  0  0  0  0
    0.8774    0.5672    1.0293 H   0  0  0  0  0  0  0  0  0  0  0  0
    5.3811   -3.2312   -0.2002 H   0  0  0  0  0  0  0  0  0  0  0  0
    9.0191   -0.9079   -0.3082 H   0  0  0  0  0  0  0  0  0  0  0  0
    9.7807    0.6714   -0.2814 H   0  0  0  0  0  0  0  0  0  0  0  0
  1 15  1  0
  1 17  1  0
  2 12  1  0
  3  5  2  0
  4  3  1  0
  4 13  2  0
  5  9  1  0
  6 11  1  0
  7  4  1  0
  8  2  2  0
  8  3  1  0
  9 10  2  0
 11 10  1  0
 11  1  1  0
 12  5  1  0
 12  6  1  0
 14  6  2  0
 16  1  1  0
 18  2  1  0
 19  7  1  0
 20  7  1  0
M  END
>  <HBA>  (799) 
8

>  <HBD>  (799) 
1

>  <TPSA>  (799) 
108.17

>  <cid>  (799) 
5394

>  <dipole>  (799) 
3.34

>  <excitation_energy_1>  (799) 
3.541

>  <excitation_energy_2>  (799) 
4.036

>  <excitation_energy_3>  (799) 
4.056

>  <excitation_energy_4>  (799) 
4.248

>  <homo_energy>  (799) 
-6.865

>  <homo_lumo_gap>  (799) 
4.414

>  <logP>  (799) 
-1.378

>  <lumo_energy>  (799) 
-2.452

>  <melting_point>  (799) 
216.81

>  <molecular_refractivity>  (799) 
44.4

>  <oscillator_strength_1>  (799) 
0.0002

>  <oscillator_strength_2>  (799) 
0.0096

>  <oscillator_strength_3>  (799) 
0.2171

>  <oscillator_strength_4>  (799) 
0.0601

>  <open_babel_can_smiles>  (799) 
NC(=O)c1ncn2c1nnn(c2=O)C

>  <mulliken_charges>  (799) 
20
1   -0.312357
2   0.237857
3   0.194245
4   0.576513
5   0.492439
6   0.833164
7   -0.760586
8   -0.523424
9   -0.316551
10   -0.013389
11   -0.376198
12   -0.550779
13   -0.503362
14   -0.485958
15   0.209863
16   0.191712
17   0.194582
18   0.206055
19   0.361294
20   0.344881

>  <lowdin_charges>  (799) 
20
1   -0.345973
2   -0.052976
3   -0.011354
4   0.156051
5   0.030195
6   0.18812
7   -0.453771
8   -0.164274
9   -0.051969
10   -0.017534
11   -0.040664
12   -0.004434
13   -0.288503
14   -0.2663
15   0.187665
16   0.173141
17   0.177231
18   0.192727
19   0.297406
20   0.295217

$$$$
PCCDB-ID:  5395
     RDKit          3D

 31 31  0  0  0  0  0  0  0  0999 V2000
    0.8854    0.1080   -0.1104 C   0  0  0  0  0  0  0  0  0  0  0  0
    2.5935    0.2514    1.6917 C   0  0  0  0  0  0  0  0  0  0  0  0
    4.6343   -2.4981   -1.5269 C   0  0  0  0  0  0  0  0  0  0  0  0
    5.2006   -1.5650    0.7063 C   0  0  0  0  0  0  0  0  0  0  0  0
    2.9997    1.3439   -0.6078 C   0  0  0  0  0  0  0  0  0  0  0  0
    4.9719   -0.0287   -1.3542 C   0  0  0  0  0  0  0  0  0  0  0  0
    4.5228    1.3358   -0.8095 C   0  0  0  0  0  0  0  0  0  0  0  0
    2.4040    0.1385    0.1599 C   0  0  0  0  0  0  0  0  0  0  0  0
    4.4357   -1.2743   -0.6075 C   0  0  0  0  0  0  0  0  0  0  0  0
    2.9646   -1.0953   -0.4595 N   0  0  0  0  0  0  0  0  0  0  0  0
    5.2666    1.7848    0.3258 O   0  0  0  0  0  0  0  0  0  0  0  0
    2.4515   -2.2338    0.2740 O   0  0  0  0  0  0  0  0  0  0  0  0
    0.4265    1.0574    0.1879 H   0  0  0  0  0  0  0  0  0  0  0  0
    0.4031   -0.6943    0.4557 H   0  0  0  0  0  0  0  0  0  0  0  0
    0.6913   -0.0503   -1.1768 H   0  0  0  0  0  0  0  0  0  0  0  0
    1.9950    1.0845    2.0773 H   0  0  0  0  0  0  0  0  0  0  0  0
    3.6242    0.4331    2.0011 H   0  0  0  0  0  0  0  0  0  0  0  0
    2.2562   -0.6681    2.1775 H   0  0  0  0  0  0  0  0  0  0  0  0
    5.6897   -2.5988   -1.8042 H   0  0  0  0  0  0  0  0  0  0  0  0
    4.0447   -2.3851   -2.4431 H   0  0  0  0  0  0  0  0  0  0  0  0
    4.3266   -3.4198   -1.0247 H   0  0  0  0  0  0  0  0  0  0  0  0
    6.2288   -1.8654    0.4751 H   0  0  0  0  0  0  0  0  0  0  0  0
    4.7159   -2.3841    1.2439 H   0  0  0  0  0  0  0  0  0  0  0  0
    5.2657   -0.7132    1.3862 H   0  0  0  0  0  0  0  0  0  0  0  0
    2.5427    1.3607   -1.6058 H   0  0  0  0  0  0  0  0  0  0  0  0
    2.7065    2.2722   -0.1043 H   0  0  0  0  0  0  0  0  0  0  0  0
    6.0671   -0.0668   -1.3781 H   0  0  0  0  0  0  0  0  0  0  0  0
    4.6246   -0.0907   -2.3939 H   0  0  0  0  0  0  0  0  0  0  0  0
    4.7599    2.0902   -1.5685 H   0  0  0  0  0  0  0  0  0  0  0  0
    5.1320    1.1632    1.0533 H   0  0  0  0  0  0  0  0  0  0  0  0
    1.8917   -2.6721   -0.3856 H   0  0  0  0  0  0  0  0  0  0  0  0
  1  8  1  0
  1 13  1  0
  1 14  1  0
  2 17  1  0
  2 16  1  0
  2 18  1  0
  3 21  1  0
  3  9  1  0
  4 23  1  0
  4 24  1  0
  5 26  1  0
  5  8  1  0
  6  7  1  0
  6  9  1  0
  7  5  1  0
  7 11  1  0
  8  2  1  0
  9 10  1  0
  9  4  1  0
 10  8  1  0
 10 12  1  0
 11 30  1  0
 15  1  1  0
 19  3  1  0
 20  3  1  0
 22  4  1  0
 25  5  1  0
 27  6  1  0
 28  6  1  0
 29  7  1  0
 31 12  1  0
M  END
>  <HBA>  (800) 
3

>  <HBD>  (800) 
2

>  <TPSA>  (800) 
43.7

>  <cid>  (800) 
5395

>  <dipole>  (800) 
1.85

>  <excitation_energy_1>  (800) 
5.318

>  <excitation_energy_2>  (800) 
5.685

>  <excitation_energy_3>  (800) 
5.945

>  <excitation_energy_4>  (800) 
6.035

>  <homo_energy>  (800) 
-5.919

>  <homo_lumo_gap>  (800) 
7.44

>  <logP>  (800) 
1.327

>  <lumo_energy>  (800) 
1.521

>  <melting_point>  (800) 
91.23

>  <molecular_refractivity>  (800) 
52.04

>  <oscillator_strength_1>  (800) 
0.014

>  <oscillator_strength_2>  (800) 
0.0107

>  <oscillator_strength_3>  (800) 
0.0031

>  <oscillator_strength_4>  (800) 
0.0002

>  <open_babel_can_smiles>  (800) 
OC1CC(C)(C)N(C(C1)(C)C)O

>  <mulliken_charges>  (800) 
31
1   -0.456278
2   -0.454818
3   -0.456355
4   -0.455928
5   -0.288395
6   -0.289828
7   0.116715
8   0.237803
9   0.237952
10   -0.264121
11   -0.639968
12   -0.524165
13   0.140647
14   0.149631
15   0.142237
16   0.143652
17   0.114628
18   0.171089
19   0.140569
20   0.142364
21   0.14998
22   0.143909
23   0.17186
24   0.114538
25   0.135897
26   0.145968
27   0.145831
28   0.13637
29   0.135852
30   0.401384
31   0.41098

>  <lowdin_charges>  (800) 
31
1   -0.447854
2   -0.459635
3   -0.446734
4   -0.459693
5   -0.295151
6   -0.292294
7   -0.00566
8   0.062233
9   0.062336
10   -0.088455
11   -0.470129
12   -0.413329
13   0.150055
14   0.153613
15   0.147673
16   0.154185
17   0.135509
18   0.164452
19   0.148577
20   0.149308
21   0.152885
22   0.152466
23   0.165512
24   0.136702
25   0.150632
26   0.155587
27   0.153037
28   0.150239
29   0.148049
30   0.333579
31   0.352305

$$$$
PCCDB-ID:  5419
     RDKit          3D

 31 33  0  0  1  0  0  0  0  0999 V2000
    2.5102    0.2678    0.4109 C   0  0  0  0  0  0  0  0  0  0  0  0
    2.2800   -1.1096    0.4207 C   0  0  0  0  0  0  0  0  0  0  0  0
   -2.3177    1.0659   -0.6170 C   0  0  0  0  0  0  0  0  0  0  0  0
    1.4443    1.1398    0.2075 C   0  0  0  0  0  0  0  0  0  0  0  0
   -0.9955    1.6748   -0.1338 C   0  0  0  0  0  0  0  0  0  0  0  0
    0.9890   -1.5888    0.2108 C   0  0  0  0  0  0  0  0  0  0  0  0
   -2.5873   -0.2752    0.0727 C   0  0  0  0  0  0  0  0  0  0  0  0
   -2.5520   -2.4910   -3.6034 C   0  0  0  0  0  0  0  0  0  0  0  0
   -1.0144   -2.6553   -3.7315 C   0  0  0  0  0  0  0  0  0  0  0  0
    0.1388    0.6711   -0.0043 C   0  0  0  0  0  0  0  0  0  0  0  0
   -0.0890   -0.7177   -0.0210 C   0  0  0  0  0  0  0  0  0  0  0  0
   -1.4840   -1.2909   -0.2724 C   0  0  2  0  0  0  0  0  0  0  0  0
   -1.6578   -1.8208   -1.6940 C   0  0  0  0  0  3  0  0  0  0  0  0
   -2.7731   -1.7839   -2.3304 N   0  0  0  0  0  2  0  0  0  0  0  0
   -0.6073   -2.4859   -2.3294 N   0  0  0  0  0  0  0  0  0  0  0  0
    3.5114    0.6591    0.5708 H   0  0  0  0  0  0  0  0  0  0  0  0
    3.0968   -1.8041    0.5987 H   0  0  0  0  0  0  0  0  0  0  0  0
   -2.2914    0.9023   -1.7006 H   0  0  0  0  0  0  0  0  0  0  0  0
   -3.1381    1.7676   -0.4254 H   0  0  0  0  0  0  0  0  0  0  0  0
    1.6193    2.2140    0.2171 H   0  0  0  0  0  0  0  0  0  0  0  0
   -1.1519    2.1321    0.8554 H   0  0  0  0  0  0  0  0  0  0  0  0
   -0.6865    2.4970   -0.7926 H   0  0  0  0  0  0  0  0  0  0  0  0
    0.8029   -2.6608    0.2308 H   0  0  0  0  0  0  0  0  0  0  0  0
   -3.5533   -0.6792   -0.2386 H   0  0  0  0  0  0  0  0  0  0  0  0
   -2.6102   -0.1363    1.1621 H   0  0  0  0  0  0  0  0  0  0  0  0
   -3.0513   -3.4693   -3.5587 H   0  0  0  0  0  0  0  0  0  0  0  0
   -2.9939   -1.9382   -4.4389 H   0  0  0  0  0  0  0  0  0  0  0  0
   -0.5750   -1.8761   -4.3726 H   0  0  0  0  0  0  0  0  0  0  0  0
   -0.7136   -3.6323   -4.1221 H   0  0  0  0  0  0  0  0  0  0  0  0
   -1.5983   -2.1706    0.3785 H   0  0  0  0  0  0  0  0  0  0  0  0
    0.3281   -2.1437   -2.1446 H   0  0  0  0  0  0  0  0  0  0  0  0
  1  2  2  0
  1 16  1  0
  2 17  1  0
  3 19  1  0
  3  5  1  0
  3  7  1  0
  4 20  1  0
  4  1  1  0
  5 10  1  0
  5 21  1  0
  6 23  1  0
  6  2  1  0
  7 25  1  0
  8 26  1  0
  8 14  1  0
  9  8  1  0
  9 15  1  0
 10  4  2  0
 11 10  1  0
 11  6  2  0
 12 11  1  0
 12  7  1  0
 12 30  1  1
 13 12  1  0
 14 13  1  0
 15 31  1  0
 15 13  1  0
 18  3  1  0
 22  5  1  0
 24  7  1  0
 27  8  1  0
 28  9  1  0
 29  9  1  0
M  RAD  2  13   2  14   2
M  END
>  <HBA>  (801) 
2

>  <HBD>  (801) 
1

>  <TPSA>  (801) 
24.39

>  <cid>  (801) 
5419

>  <dipole>  (801) 
2.15

>  <excitation_energy_1>  (801) 
4.792

>  <excitation_energy_2>  (801) 
5.03

>  <excitation_energy_3>  (801) 
5.137

>  <excitation_energy_4>  (801) 
5.232

>  <homo_energy>  (801) 
-5.761

>  <homo_lumo_gap>  (801) 
5.554

>  <logP>  (801) 
1.873

>  <lumo_energy>  (801) 
-0.207

>  <melting_point>  (801) 
98.87

>  <molecular_refractivity>  (801) 
69.91

>  <oscillator_strength_1>  (801) 
0.002

>  <oscillator_strength_2>  (801) 
0.0007

>  <oscillator_strength_3>  (801) 
0.0115

>  <oscillator_strength_4>  (801) 
0.0041

>  <open_babel_can_smiles>  (801) 
C1CN[C]([N]1)[C@@H]1CCCc2c1cccc2

>  <mulliken_charges>  (801) 
31
1   -0.127405
2   -0.130452
3   -0.273818
4   -0.186001
5   -0.342108
6   -0.209698
7   -0.268048
8   -0.157424
9   -0.146372
10   0.126247
11   0.08171
12   -0.242199
13   0.500763
14   -0.482241
15   -0.616218
16   0.128567
17   0.129092
18   0.154659
19   0.133114
20   0.122547
21   0.152083
22   0.145163
23   0.137183
24   0.170711
25   0.12703
26   0.147951
27   0.145825
28   0.139068
29   0.148584
30   0.164775
31   0.326911

>  <lowdin_charges>  (801) 
31
1   -0.156961
2   -0.164959
3   -0.277651
4   -0.160218
5   -0.278309
6   -0.174753
7   -0.270727
8   -0.208599
9   -0.212379
10   -0.009622
11   -0.022686
12   -0.132704
13   0.08337
14   -0.249967
15   -0.319877
16   0.156829
17   0.15858
18   0.148755
19   0.147581
20   0.152857
21   0.152221
22   0.152924
23   0.1567
24   0.166809
25   0.138482
26   0.144832
27   0.149158
28   0.136515
29   0.148864
30   0.167316
31   0.277621

$$$$
PCCDB-ID:  5424
     RDKit          3D

 16 16  0  0  0  0  0  0  0  0999 V2000
    0.9169    1.1244   -0.1021 C   0  0  0  0  0  0  0  0  0  0  0  0
   -0.4157    1.3600   -0.0788 C   0  0  0  0  0  0  0  0  0  0  0  0
    1.4364   -0.2650   -0.0367 C   0  0  0  0  0  0  0  0  0  0  0  0
   -1.3792    0.2310   -0.1067 C   0  0  0  0  0  0  0  0  0  0  0  0
    0.4744   -1.3904   -0.0265 C   0  0  0  0  0  0  0  0  0  0  0  0
   -0.8602   -1.1555   -0.0752 C   0  0  0  0  0  0  0  0  0  0  0  0
    1.8562    2.1106   -0.1327 O   0  0  0  0  0  0  0  0  0  0  0  0
   -0.9603    2.6090   -0.0830 O   0  0  0  0  0  0  0  0  0  0  0  0
    2.6386   -0.5169   -0.0107 O   0  0  0  0  0  0  0  0  0  0  0  0
   -2.5952    0.4043   -0.1354 O   0  0  0  0  0  0  0  0  0  0  0  0
    1.0218   -2.6189    0.0249 O   0  0  0  0  0  0  0  0  0  0  0  0
   -1.7954   -2.1231   -0.0916 O   0  0  0  0  0  0  0  0  0  0  0  0
    1.5154    2.8473   -0.6688 H   0  0  0  0  0  0  0  0  0  0  0  0
   -0.3909    3.1983    0.4413 H   0  0  0  0  0  0  0  0  0  0  0  0
    1.9912   -2.4657    0.0359 H   0  0  0  0  0  0  0  0  0  0  0  0
   -2.6536   -1.6473   -0.1164 H   0  0  0  0  0  0  0  0  0  0  0  0
  1  2  2  0
  1  3  1  0
  3  5  1  0
  3  9  2  0
  4  2  1  0
  4  6  1  0
  5 11  1  0
  6  5  2  0
  7  1  1  0
  8  2  1  0
  8 14  1  0
 10  4  2  0
 11 15  1  0
 12  6  1  0
 13  7  1  0
 16 12  1  0
M  END
>  <HBA>  (802) 
6

>  <HBD>  (802) 
4

>  <TPSA>  (802) 
115.06

>  <cid>  (802) 
5424

>  <dipole>  (802) 
3.46

>  <excitation_energy_1>  (802) 
1.943

>  <excitation_energy_2>  (802) 
3.218

>  <excitation_energy_3>  (802) 
3.376

>  <excitation_energy_4>  (802) 
3.845

>  <homo_energy>  (802) 
-6.109

>  <homo_lumo_gap>  (802) 
2.702

>  <logP>  (802) 
-0.207

>  <lumo_energy>  (802) 
-3.407

>  <melting_point>  (802) 
117.21

>  <molecular_refractivity>  (802) 
34.58

>  <oscillator_strength_1>  (802) 
0.0054

>  <oscillator_strength_2>  (802) 
0.0013

>  <oscillator_strength_3>  (802) 
0.0001

>  <oscillator_strength_4>  (802) 
0.1884

>  <open_babel_can_smiles>  (802) 
OC1=C(O)C(=O)C(=C(C1=O)O)O

>  <mulliken_charges>  (802) 
16
1   0.236078
2   0.234826
3   0.396392
4   0.396441
5   0.255152
6   0.255474
7   -0.618215
8   -0.618975
9   -0.487941
10   -0.48813
11   -0.62235
12   -0.622234
13   0.414379
14   0.414414
15   0.427317
16   0.427371

>  <lowdin_charges>  (802) 
16
1   0.029641
2   0.029941
3   0.126972
4   0.126399
5   0.032944
6   0.032814
7   -0.353633
8   -0.355927
9   -0.226062
10   -0.226111
11   -0.340245
12   -0.341634
13   0.365836
14   0.366301
15   0.365384
16   0.367379

$$$$
PCCDB-ID:  5425
     RDKit          3D

 17 16  0  0  1  0  0  0  0  0999 V2000
    0.7158    0.6829   -0.5142 C   0  0  1  0  0  0  0  0  0  0  0  0
    0.1984    2.0855   -0.0033 C   0  0  1  0  0  0  0  0  0  0  0  0
    1.2268    0.7845   -1.9679 C   0  0  0  0  0  0  0  0  0  0  0  0
   -1.3026    2.2076   -0.2690 C   0  0  0  0  0  0  0  0  0  0  0  0
    1.7570    0.2248    0.3991 N   0  0  0  0  0  0  0  0  0  0  0  0
    0.4319    2.2247    1.3782 O   0  0  0  0  0  0  0  0  0  0  0  0
    2.3662    0.4857   -2.2511 O   0  0  0  0  0  0  0  0  0  0  0  0
    0.3573    1.2335   -2.8710 O   0  0  0  0  0  0  0  0  0  0  0  0
   -1.7830    2.0461   -1.3801 O   0  0  0  0  0  0  0  0  0  0  0  0
   -2.0400    2.4694    0.8004 O   0  0  0  0  0  0  0  0  0  0  0  0
   -0.1243   -0.0200   -0.4916 H   0  0  0  0  0  0  0  0  0  0  0  0
    0.7013    2.8910   -0.5595 H   0  0  0  0  0  0  0  0  0  0  0  0
    2.6591    0.3468   -0.0659 H   0  0  0  0  0  0  0  0  0  0  0  0
    1.6604   -0.7688    0.5891 H   0  0  0  0  0  0  0  0  0  0  0  0
    1.0960    1.5109    1.5732 H   0  0  0  0  0  0  0  0  0  0  0  0
   -0.5082    1.4889   -2.4527 H   0  0  0  0  0  0  0  0  0  0  0  0
   -1.4068    2.4985    1.5569 H   0  0  0  0  0  0  0  0  0  0  0  0
  1 11  1  6
  1  2  1  0
  1  5  1  0
  2 12  1  6
  2  6  1  0
  3  1  1  0
  4  2  1  0
  4 10  1  0
  5 14  1  0
  6 15  1  0
  7  3  2  0
  8 16  1  0
  8  3  1  0
  9  4  2  0
 10 17  1  0
 13  5  1  0
M  END
>  <HBA>  (803) 
6

>  <HBD>  (803) 
4

>  <TPSA>  (803) 
120.85

>  <cid>  (803) 
5425

>  <dipole>  (803) 
4.09

>  <excitation_energy_1>  (803) 
5.708

>  <excitation_energy_2>  (803) 
5.776

>  <excitation_energy_3>  (803) 
6.36

>  <excitation_energy_4>  (803) 
6.633

>  <homo_energy>  (803) 
-7.706

>  <homo_lumo_gap>  (803) 
7.11

>  <logP>  (803) 
-1.456

>  <lumo_energy>  (803) 
-0.596

>  <melting_point>  (803) 
201.95

>  <molecular_refractivity>  (803) 
28.75

>  <oscillator_strength_1>  (803) 
0.0014

>  <oscillator_strength_2>  (803) 
0.0008

>  <oscillator_strength_3>  (803) 
0.0145

>  <oscillator_strength_4>  (803) 
0.005

>  <open_babel_can_smiles>  (803) 
OC(=O)[C@H]([C@@H](C(=O)O)N)O

>  <mulliken_charges>  (803) 
17
1   -0.132955
2   0.050437
3   0.600156
4   0.615813
5   -0.760984
6   -0.675946
7   -0.458185
8   -0.583088
9   -0.489563
10   -0.552999
11   0.183854
12   0.184611
13   0.348108
14   0.333839
15   0.436434
16   0.452011
17   0.448454

>  <lowdin_charges>  (803) 
17
1   -0.126632
2   -0.057834
3   0.174526
4   0.189792
5   -0.52481
6   -0.47112
7   -0.254821
8   -0.343305
9   -0.272069
10   -0.310073
11   0.169639
12   0.166519
13   0.28336
14   0.277185
15   0.35719
16   0.36601
17   0.376447

$$$$
PCCDB-ID:  5437
     RDKit          3D

 10 10  0  0  0  0  0  0  0  0999 V2000
   -0.3605    1.3276    0.1048 C   0  0  0  0  0  0  0  0  0  0  0  0
    0.9668    0.5957    0.0043 C   0  0  0  0  0  0  0  0  0  0  0  0
   -0.2475   -1.2740    0.1119 C   0  0  0  0  0  0  0  0  0  0  0  0
    1.0228   -0.6817    0.0068 N   0  0  0  0  0  0  0  0  0  0  0  0
    2.0957    1.3066   -0.0888 O   0  0  0  0  0  0  0  0  0  0  0  0
   -0.4845   -2.4476    0.1386 O   0  0  0  0  0  0  0  0  0  0  0  0
   -1.5960    0.0016    0.2113 S   0  0  0  0  0  0  0  0  0  0  0  0
   -0.5164    1.9566   -0.7798 H   0  0  0  0  0  0  0  0  0  0  0  0
   -0.3761    1.9686    0.9942 H   0  0  0  0  0  0  0  0  0  0  0  0
    1.8955    2.2572   -0.0763 H   0  0  0  0  0  0  0  0  0  0  0  0
  1  7  1  0
  1  9  1  0
  2  4  2  0
  2  1  1  0
  3  6  2  0
  3  7  1  0
  4  3  1  0
  5 10  1  0
  5  2  1  0
  8  1  1  0
M  END
>  <HBA>  (804) 
4

>  <HBD>  (804) 
1

>  <TPSA>  (804) 
71.47

>  <cid>  (804) 
5437

>  <dipole>  (804) 
6.62

>  <excitation_energy_1>  (804) 
4.512

>  <excitation_energy_2>  (804) 
4.678

>  <excitation_energy_3>  (804) 
5.112

>  <excitation_energy_4>  (804) 
5.439

>  <homo_energy>  (804) 
-7.127

>  <homo_lumo_gap>  (804) 
5.622

>  <logP>  (804) 
0.298

>  <lumo_energy>  (804) 
-1.505

>  <melting_point>  (804) 
87.27

>  <molecular_refractivity>  (804) 
29.52

>  <oscillator_strength_1>  (804) 
0.0006

>  <oscillator_strength_2>  (804) 
0.0221

>  <oscillator_strength_3>  (804) 
0.0

>  <oscillator_strength_4>  (804) 
0.0002

>  <open_babel_can_smiles>  (804) 
OC1=NC(=O)SC1

>  <mulliken_charges>  (804) 
10
1   -0.545061
2   0.529877
3   0.393921
4   -0.406862
5   -0.547033
6   -0.413431
7   0.135816
8   0.213408
9   0.213182
10   0.426182

>  <lowdin_charges>  (804) 
10
1   -0.422972
2   0.153162
3   0.072165
4   -0.171482
5   -0.303603
6   -0.195045
7   0.12598
8   0.186175
9   0.18603
10   0.369591

$$$$
PCCDB-ID:  5443
     RDKit          3D

 16 16  0  0  0  0  0  0  0  0999 V2000
   -1.4446   -0.0847    0.0520 C   0  0  0  0  0  0  0  0  0  0  0  0
   -0.7675   -1.2975    0.2030 C   0  0  0  0  0  0  0  0  0  0  0  0
   -0.7080    1.0823   -0.1003 C   0  0  0  0  0  0  0  0  0  0  0  0
    0.6210   -1.3316    0.1658 C   0  0  0  0  0  0  0  0  0  0  0  0
    0.7012    1.0779   -0.1135 C   0  0  0  0  0  0  0  0  0  0  0  0
    1.3800   -0.1621   -0.0114 C   0  0  0  0  0  0  0  0  0  0  0  0
    1.4221    2.3809   -0.2652 C   0  0  0  0  0  0  0  0  0  0  0  0
    2.5106    2.5239   -0.7842 O   0  0  0  0  0  0  0  0  0  0  0  0
    0.7821    3.4795    0.2130 O   0  0  0  0  0  0  0  0  0  0  0  0
    3.1436   -0.3897   -0.0404 S   0  0  0  0  0  0  0  0  0  0  0  0
   -2.5295   -0.0504    0.0478 H   0  0  0  0  0  0  0  0  0  0  0  0
   -1.3224   -2.2227    0.3308 H   0  0  0  0  0  0  0  0  0  0  0  0
   -1.2385    2.0186   -0.2570 H   0  0  0  0  0  0  0  0  0  0  0  0
    1.1392   -2.2819    0.2579 H   0  0  0  0  0  0  0  0  0  0  0  0
    0.0208    3.2104    0.7523 H   0  0  0  0  0  0  0  0  0  0  0  0
    3.4310    0.8396   -0.5220 H   0  0  0  0  0  0  0  0  0  0  0  0
  1  2  2  0
  2 12  1  0
  3  1  1  0
  4  2  1  0
  4 14  1  0
  5  3  2  0
  5  6  1  0
  6  4  2  0
  7  5  1  0
  7  9  1  0
  8  7  2  0
  9 15  1  0
 10  6  1  0
 11  1  1  0
 13  3  1  0
 16 10  1  0
M  END
>  <HBA>  (805) 
3

>  <HBD>  (805) 
2

>  <TPSA>  (805) 
76.1

>  <cid>  (805) 
5443

>  <dipole>  (805) 
4.51

>  <excitation_energy_1>  (805) 
3.865

>  <excitation_energy_2>  (805) 
4.76

>  <excitation_energy_3>  (805) 
4.817

>  <excitation_energy_4>  (805) 
5.248

>  <homo_energy>  (805) 
-6.253

>  <homo_lumo_gap>  (805) 
4.648

>  <logP>  (805) 
1.673

>  <lumo_energy>  (805) 
-1.605

>  <melting_point>  (805) 
120.41

>  <molecular_refractivity>  (805) 
40.65

>  <oscillator_strength_1>  (805) 
0.0603

>  <oscillator_strength_2>  (805) 
0.0226

>  <oscillator_strength_3>  (805) 
0.0811

>  <oscillator_strength_4>  (805) 
0.0036

>  <open_babel_can_smiles>  (805) 
OC(=O)c1ccccc1S

>  <mulliken_charges>  (805) 
16
1   -0.138812
2   -0.106564
3   -0.187612
4   -0.159801
5   0.038173
6   -0.098547
7   0.552179
8   -0.459373
9   -0.56119
10   -0.043955
11   0.143922
12   0.147011
13   0.144234
14   0.155617
15   0.413869
16   0.160849

>  <lowdin_charges>  (805) 
16
1   -0.1615
2   -0.131596
3   -0.158558
4   -0.160517
5   -0.077653
6   -0.091002
7   0.200717
8   -0.249727
9   -0.346534
10   -0.016397
11   0.163454
12   0.167446
13   0.162015
14   0.17229
15   0.361372
16   0.166192

$$$$
PCCDB-ID:  5446
     RDKit          3D

 27 28  0  0  1  0  0  0  0  0999 V2000
    0.8223    0.0397    0.0557 C   0  0  0  0  0  0  0  0  0  0  0  0
    2.8267    0.0172    1.5123 C   0  0  0  0  0  0  0  0  0  0  0  0
    2.6960    2.6420   -0.4134 C   0  0  0  0  0  0  0  0  0  0  0  0
    2.4882   -0.7302   -2.2625 C   0  0  0  0  0  0  0  0  0  0  0  0
    2.5347    0.8261   -2.2607 C   0  0  0  0  0  0  0  0  0  0  0  0
    4.4880   -0.7227   -0.8059 C   0  0  0  0  0  0  0  0  0  0  0  0
    2.9883   -1.0834   -0.8420 C   0  0  1  0  0  0  0  0  0  0  0  0
    4.4705    0.8023   -0.7990 C   0  0  0  0  0  0  0  0  0  0  0  0
    2.3602    0.0386    0.0443 C   0  0  0  0  0  0  0  0  0  0  0  0
    3.0021    1.2073   -0.8067 C   0  0  1  0  0  0  0  0  0  0  0  0
    5.7808    1.7779   -0.8063 S   0  0  0  0  0  0  0  0  0  0  0  0
    0.4535   -0.8694    0.5470 H   0  0  0  0  0  0  0  0  0  0  0  0
    0.3714    0.0810   -0.9385 H   0  0  0  0  0  0  0  0  0  0  0  0
    0.4408    0.8940    0.6266 H   0  0  0  0  0  0  0  0  0  0  0  0
    2.5038   -0.9103    2.0010 H   0  0  0  0  0  0  0  0  0  0  0  0
    2.3796    0.8495    2.0680 H   0  0  0  0  0  0  0  0  0  0  0  0
    3.9107    0.0981    1.6307 H   0  0  0  0  0  0  0  0  0  0  0  0
    3.1992    3.3441   -1.0856 H   0  0  0  0  0  0  0  0  0  0  0  0
    3.0442    2.8618    0.6013 H   0  0  0  0  0  0  0  0  0  0  0  0
    1.6183    2.8345   -0.4604 H   0  0  0  0  0  0  0  0  0  0  0  0
    3.1295   -1.1680   -3.0346 H   0  0  0  0  0  0  0  0  0  0  0  0
    1.4752   -1.1034   -2.4409 H   0  0  0  0  0  0  0  0  0  0  0  0
    1.5490    1.2673   -2.4434 H   0  0  0  0  0  0  0  0  0  0  0  0
    3.2132    1.2384   -3.0136 H   0  0  0  0  0  0  0  0  0  0  0  0
    5.0565   -1.1073   -1.6603 H   0  0  0  0  0  0  0  0  0  0  0  0
    4.9946   -1.0901    0.0937 H   0  0  0  0  0  0  0  0  0  0  0  0
    2.7696   -2.1085   -0.5265 H   0  0  0  0  0  0  0  0  0  0  0  0
  1 12  1  0
  1 14  1  0
  2 17  1  0
  2 15  1  0
  2 16  1  0
  3 19  1  0
  4  5  1  0
  4  7  1  0
  5 10  1  0
  6  8  1  0
  6 26  1  0
  7  6  1  0
  7 27  1  1
  7  9  1  0
  9  1  1  0
  9  2  1  0
 10  8  1  0
 10  3  1  1
 10  9  1  0
 11  8  2  0
 13  1  1  0
 18  3  1  0
 20  3  1  0
 21  4  1  0
 22  4  1  0
 23  5  1  0
 24  5  1  0
 25  6  1  0
M  END
>  <HBA>  (806) 
1

>  <HBD>  (806) 
0

>  <TPSA>  (806) 
32.09

>  <cid>  (806) 
5446

>  <dipole>  (806) 
3.41

>  <excitation_energy_1>  (806) 
2.542

>  <excitation_energy_2>  (806) 
5.138

>  <excitation_energy_3>  (806) 
5.189

>  <excitation_energy_4>  (806) 
5.336

>  <homo_energy>  (806) 
-5.665

>  <homo_lumo_gap>  (806) 
3.946

>  <logP>  (806) 
3.203

>  <lumo_energy>  (806) 
-1.72

>  <melting_point>  (806) 
83.67

>  <molecular_refractivity>  (806) 
53.23

>  <oscillator_strength_1>  (806) 
0.0

>  <oscillator_strength_2>  (806) 
0.0162

>  <oscillator_strength_3>  (806) 
0.1718

>  <oscillator_strength_4>  (806) 
0.0464

>  <open_babel_can_smiles>  (806) 
S=C1C[C@H]2C([C@]1(C)CC2)(C)C

>  <mulliken_charges>  (806) 
27
1   -0.468083
2   -0.469413
3   -0.475517
4   -0.279666
5   -0.293184
6   -0.310959
7   -0.112248
8   0.006792
9   0.090598
10   0.062121
11   -0.174084
12   0.146061
13   0.147654
14   0.148998
15   0.144441
16   0.150064
17   0.156588
18   0.169745
19   0.156117
20   0.138925
21   0.140604
22   0.14404
23   0.151172
24   0.157509
25   0.171591
26   0.179495
27   0.120638

>  <lowdin_charges>  (806) 
27
1   -0.446773
2   -0.447136
3   -0.440507
4   -0.286407
5   -0.278714
6   -0.292866
7   -0.135279
8   -0.066893
9   0.006969
10   -0.008273
11   -0.089955
12   0.153571
13   0.151969
14   0.153644
15   0.151922
16   0.154662
17   0.154446
18   0.168252
19   0.157767
20   0.147653
21   0.148655
22   0.1471
23   0.15265
24   0.157568
25   0.169746
26   0.173596
27   0.142632

$$$$
PCCDB-ID:  5447
     RDKit          3D

 17 16  0  0  0  0  0  0  0  0999 V2000
    1.3263   -1.0206    0.0494 C   0  0  0  0  0  0  0  0  0  0  0  0
   -3.0334   -3.9235   -0.7603 C   0  0  0  0  0  0  0  0  0  0  0  0
    0.8548   -2.4106   -0.3863 C   0  0  0  0  0  0  0  0  0  0  0  0
   -1.5049   -3.9690   -0.8377 C   0  0  0  0  0  0  0  0  0  0  0  0
    0.5234    0.0215   -0.4699 O   0  0  0  0  0  0  0  0  0  0  0  0
   -3.5730   -2.6959   -1.2103 O   0  0  0  0  0  0  0  0  0  0  0  0
   -0.7776   -2.7929    0.3836 S   0  0  0  0  0  0  0  0  0  0  0  0
    2.3339   -0.8539   -0.3469 H   0  0  0  0  0  0  0  0  0  0  0  0
    1.3955   -0.9751    1.1489 H   0  0  0  0  0  0  0  0  0  0  0  0
   -3.3648   -4.1655    0.2631 H   0  0  0  0  0  0  0  0  0  0  0  0
   -3.4392   -4.6945   -1.4243 H   0  0  0  0  0  0  0  0  0  0  0  0
    1.5841   -3.1738   -0.0945 H   0  0  0  0  0  0  0  0  0  0  0  0
    0.7361   -2.4267   -1.4743 H   0  0  0  0  0  0  0  0  0  0  0  0
   -1.1852   -3.6691   -1.8408 H   0  0  0  0  0  0  0  0  0  0  0  0
   -1.1396   -4.9810   -0.6329 H   0  0  0  0  0  0  0  0  0  0  0  0
   -0.3889   -0.1579   -0.1869 H   0  0  0  0  0  0  0  0  0  0  0  0
   -3.1703   -1.9951   -0.6708 H   0  0  0  0  0  0  0  0  0  0  0  0
  1  9  1  0
  2 10  1  0
  3 12  1  0
  3  1  1  0
  3  7  1  0
  4  2  1  0
  4 15  1  0
  4  7  1  0
  5 16  1  0
  5  1  1  0
  6  2  1  0
  6 17  1  0
  8  1  1  0
 11  2  1  0
 13  3  1  0
 14  4  1  0
M  END
>  <HBA>  (807) 
3

>  <HBD>  (807) 
2

>  <TPSA>  (807) 
65.76

>  <cid>  (807) 
5447

>  <dipole>  (807) 
2.5

>  <excitation_energy_1>  (807) 
5.243

>  <excitation_energy_2>  (807) 
5.81

>  <excitation_energy_3>  (807) 
6.042

>  <excitation_energy_4>  (807) 
6.553

>  <homo_energy>  (807) 
-6.517

>  <homo_lumo_gap>  (807) 
6.983

>  <logP>  (807) 
-0.296

>  <lumo_energy>  (807) 
0.465

>  <melting_point>  (807) 
20.97

>  <molecular_refractivity>  (807) 
31.26

>  <oscillator_strength_1>  (807) 
0.0017

>  <oscillator_strength_2>  (807) 
0.0284

>  <oscillator_strength_3>  (807) 
0.0167

>  <oscillator_strength_4>  (807) 
0.0137

>  <open_babel_can_smiles>  (807) 
OCCSCCO

>  <mulliken_charges>  (807) 
17
1   -0.035094
2   -0.03584
3   -0.420566
4   -0.419945
5   -0.611505
6   -0.611225
7   0.029367
8   0.15756
9   0.13831
10   0.138627
11   0.157827
12   0.173447
13   0.182165
14   0.182356
15   0.173207
16   0.400699
17   0.400612

>  <lowdin_charges>  (807) 
17
1   -0.132161
2   -0.134721
3   -0.386975
4   -0.386555
5   -0.462842
6   -0.46576
7   0.055992
8   0.154045
9   0.131488
10   0.133223
11   0.156372
12   0.162903
13   0.163384
14   0.164708
15   0.1611
16   0.341671
17   0.344128

$$$$
PCCDB-ID:  5448
     RDKit          3D

 14 14  0  0  0  0  0  0  0  0999 V2000
   -1.1977    0.1773    0.0700 C   0  0  0  0  0  0  0  0  0  0  0  0
   -1.0914   -2.4095   -0.1687 C   0  0  0  0  0  0  0  0  0  0  0  0
   -0.5433   -1.0134   -0.0902 C   0  0  0  0  0  0  0  0  0  0  0  0
   -0.2557    1.2586    0.1344 C   0  0  0  0  0  0  0  0  0  0  0  0
   -0.1609   -3.2720   -0.9003 N   0  0  0  0  0  0  0  0  0  0  0  0
    1.0147    0.9623    0.0225 N   0  0  0  0  0  0  0  0  0  0  0  0
   -0.5942    2.5658    0.2944 O   0  0  0  0  0  0  0  0  0  0  0  0
    1.1642   -0.7037   -0.1649 S   0  0  0  0  0  0  0  0  0  0  0  0
   -2.2755    0.2883    0.1385 H   0  0  0  0  0  0  0  0  0  0  0  0
   -2.1150   -2.3699   -0.5811 H   0  0  0  0  0  0  0  0  0  0  0  0
   -1.1818   -2.8158    0.8475 H   0  0  0  0  0  0  0  0  0  0  0  0
   -0.1779   -3.0494   -1.8937 H   0  0  0  0  0  0  0  0  0  0  0  0
   -0.4307   -4.2484   -0.8058 H   0  0  0  0  0  0  0  0  0  0  0  0
   -1.5583    2.6296    0.3655 H   0  0  0  0  0  0  0  0  0  0  0  0
  1  4  1  0
  1  9  1  0
  2  3  1  0
  2 11  1  0
  3  1  2  0
  4  7  1  0
  5 13  1  0
  5  2  1  0
  6  4  2  0
  7 14  1  0
  8  3  1  0
  8  6  1  0
 10  2  1  0
 12  5  1  0
M  END
>  <HBA>  (808) 
3

>  <HBD>  (808) 
2

>  <TPSA>  (808) 
87.12

>  <cid>  (808) 
5448

>  <dipole>  (808) 
5.83

>  <excitation_energy_1>  (808) 
5.045

>  <excitation_energy_2>  (808) 
5.094

>  <excitation_energy_3>  (808) 
5.411

>  <excitation_energy_4>  (808) 
5.528

>  <homo_energy>  (808) 
-6.174

>  <homo_lumo_gap>  (808) 
5.663

>  <logP>  (808) 
0.595

>  <lumo_energy>  (808) 
-0.512

>  <melting_point>  (808) 
143.35

>  <molecular_refractivity>  (808) 
32.61

>  <oscillator_strength_1>  (808) 
0.0814

>  <oscillator_strength_2>  (808) 
0.0005

>  <oscillator_strength_3>  (808) 
0.0235

>  <oscillator_strength_4>  (808) 
0.0141

>  <open_babel_can_smiles>  (808) 
NCc1cc(ns1)O

>  <mulliken_charges>  (808) 
14
1   -0.182331
2   -0.186549
3   -0.118373
4   0.462466
5   -0.718325
6   -0.534412
7   -0.603466
8   0.397962
9   0.131931
10   0.141831
11   0.17683
12   0.312358
13   0.310124
14   0.409953

>  <lowdin_charges>  (808) 
14
1   -0.262516
2   -0.19478
3   -0.151405
4   0.10307
5   -0.539048
6   -0.359072
7   -0.358337
8   0.419655
9   0.161013
10   0.135496
11   0.163489
12   0.261685
13   0.26214
14   0.35861

$$$$
PCCDB-ID:  5455
     RDKit          3D

 24 23  0  0  0  0  0  0  0  0999 V2000
    0.5080    0.0323    4.2636 C   0  0  0  0  0  0  0  0  0  0  0  0
    1.4840    0.9870    2.1391 C   0  0  0  0  0  0  0  0  0  0  0  0
    3.9776   -3.6179    1.9878 C   0  0  0  0  0  0  0  0  0  0  0  0
    5.8659   -4.5777    0.7205 C   0  0  0  0  0  0  0  0  0  0  0  0
    2.7616   -0.5599    3.5896 C   0  0  0  0  0  0  0  0  0  0  0  0
    6.2717   -2.6577    2.1360 C   0  0  0  0  0  0  0  0  0  0  0  0
    1.6323    0.1347    3.3253 N   0  0  0  0  0  0  0  0  0  0  0  0
    5.3819   -3.4982    1.5855 N   0  0  0  0  0  0  0  0  0  0  0  0
    2.9802   -1.5227    4.9276 S   0  0  0  0  0  0  0  0  0  0  0  0
    7.9305   -2.8431    2.1468 S   0  0  0  0  0  0  0  0  0  0  0  0
    4.0374   -0.2977    2.2904 S   0  0  0  0  0  0  0  0  0  0  0  0
    5.8277   -1.1419    3.0097 S   0  0  0  0  0  0  0  0  0  0  0  0
    0.8084    0.3748    5.2583 H   0  0  0  0  0  0  0  0  0  0  0  0
    0.1790   -1.0073    4.3546 H   0  0  0  0  0  0  0  0  0  0  0  0
   -0.3133    0.6479    3.8939 H   0  0  0  0  0  0  0  0  0  0  0  0
    0.5122    1.4788    2.1808 H   0  0  0  0  0  0  0  0  0  0  0  0
    1.5345    0.3994    1.2152 H   0  0  0  0  0  0  0  0  0  0  0  0
    2.2614    1.7575    2.1073 H   0  0  0  0  0  0  0  0  0  0  0  0
    3.3085   -3.2292    1.2125 H   0  0  0  0  0  0  0  0  0  0  0  0
    3.7968   -3.0980    2.9276 H   0  0  0  0  0  0  0  0  0  0  0  0
    3.7593   -4.6800    2.1423 H   0  0  0  0  0  0  0  0  0  0  0  0
    6.1942   -5.4400    1.3134 H   0  0  0  0  0  0  0  0  0  0  0  0
    6.7089   -4.2269    0.1245 H   0  0  0  0  0  0  0  0  0  0  0  0
    5.0463   -4.8790    0.0622 H   0  0  0  0  0  0  0  0  0  0  0  0
  1 14  1  0
  1 13  1  0
  2 16  1  0
  2  7  1  0
  3 21  1  0
  3 20  1  0
  4 22  1  0
  4  8  1  0
  5  9  2  0
  6 10  2  0
  6 12  1  0
  7  5  1  0
  7  1  1  0
  8  3  1  0
  8  6  1  0
 11 12  1  0
 11  5  1  0
 15  1  1  0
 17  2  1  0
 18  2  1  0
 19  3  1  0
 23  4  1  0
 24  4  1  0
M  END
>  <HBA>  (809) 
6

>  <HBD>  (809) 
0

>  <TPSA>  (809) 
121.26

>  <cid>  (809) 
5455

>  <dipole>  (809) 
7.54

>  <excitation_energy_1>  (809) 
3.188

>  <excitation_energy_2>  (809) 
3.54

>  <excitation_energy_3>  (809) 
3.625

>  <excitation_energy_4>  (809) 
3.856

>  <homo_energy>  (809) 
-5.823

>  <homo_lumo_gap>  (809) 
4.27

>  <logP>  (809) 
2.061

>  <lumo_energy>  (809) 
-1.554

>  <melting_point>  (809) 
57.37

>  <molecular_refractivity>  (809) 
67.51

>  <oscillator_strength_1>  (809) 
0.0044

>  <oscillator_strength_2>  (809) 
0.0

>  <oscillator_strength_3>  (809) 
0.001

>  <oscillator_strength_4>  (809) 
0.0085

>  <open_babel_can_smiles>  (809) 
CN(C(=S)SSC(=S)N(C)C)C

>  <mulliken_charges>  (809) 
24
1   -0.311908
2   -0.341665
3   -0.342204
4   -0.320064
5   -0.040075
6   -0.044289
7   -0.326008
8   -0.302722
9   -0.195645
10   -0.17215
11   0.011872
12   0.153517
13   0.200128
14   0.194764
15   0.154672
16   0.174674
17   0.192267
18   0.205959
19   0.173887
20   0.213732
21   0.170749
22   0.185171
23   0.203245
24   0.162095

>  <lowdin_charges>  (809) 
24
1   -0.34711
2   -0.359824
3   -0.357435
4   -0.350875
5   -0.170346
6   -0.1718
7   -0.064017
8   -0.054063
9   -0.192876
10   -0.155085
11   0.027474
12   0.156261
13   0.17554
14   0.172411
15   0.157257
16   0.168234
17   0.168574
18   0.17696
19   0.161225
20   0.188916
21   0.160523
22   0.16734
23   0.183155
24   0.159561

$$$$
PCCDB-ID:  5465
     RDKit          3D

 31 31  0  0  0  0  0  0  0  0999 V2000
    0.6714    0.4187   -0.0949 C   0  0  0  0  0  0  0  0  0  0  0  0
    3.0547    1.1913   -0.4673 C   0  0  0  0  0  0  0  0  0  0  0  0
    3.7905   -4.6982    2.6194 C   0  0  0  0  0  0  0  0  0  0  0  0
    6.6458   -1.9749    4.4815 C   0  0  0  0  0  0  0  0  0  0  0  0
    2.4975   -3.6059    0.7314 C   0  0  0  0  0  0  0  0  0  0  0  0
    3.4307   -1.0930    1.3902 C   0  0  0  0  0  0  0  0  0  0  0  0
    2.0940   -0.0056   -0.5168 C   0  0  0  0  0  0  0  0  0  0  0  0
    3.3659   -3.4916    1.8221 C   0  0  0  0  0  0  0  0  0  0  0  0
    5.9604   -2.3100    3.1782 C   0  0  0  0  0  0  0  0  0  0  0  0
    2.5649   -1.2020    0.3000 C   0  0  0  0  0  0  0  0  0  0  0  0
    2.1040   -2.4939   -0.0150 C   0  0  0  0  0  0  0  0  0  0  0  0
    3.8214   -2.2075    2.1263 C   0  0  0  0  0  0  0  0  0  0  0  0
    6.4833   -2.8043    2.2097 O   0  0  0  0  0  0  0  0  0  0  0  0
    1.2467   -2.6137   -1.0818 O   0  0  0  0  0  0  0  0  0  0  0  0
    4.6328   -1.9856    3.2537 O   0  0  0  0  0  0  0  0  0  0  0  0
    0.3084    1.2354   -0.7308 H   0  0  0  0  0  0  0  0  0  0  0  0
    0.6634    0.7690    0.9445 H   0  0  0  0  0  0  0  0  0  0  0  0
   -0.0302   -0.4162   -0.1808 H   0  0  0  0  0  0  0  0  0  0  0  0
    2.7223    1.9658   -1.1676 H   0  0  0  0  0  0  0  0  0  0  0  0
    4.0760    0.9030   -0.7397 H   0  0  0  0  0  0  0  0  0  0  0  0
    3.0854    1.6494    0.5288 H   0  0  0  0  0  0  0  0  0  0  0  0
    3.1903   -5.5741    2.3554 H   0  0  0  0  0  0  0  0  0  0  0  0
    3.6804   -4.5227    3.6958 H   0  0  0  0  0  0  0  0  0  0  0  0
    4.8440   -4.9368    2.4329 H   0  0  0  0  0  0  0  0  0  0  0  0
    7.7200   -2.1300    4.3764 H   0  0  0  0  0  0  0  0  0  0  0  0
    6.2592   -2.6189    5.2791 H   0  0  0  0  0  0  0  0  0  0  0  0
    6.4378   -0.9399    4.7689 H   0  0  0  0  0  0  0  0  0  0  0  0
    2.1199   -4.5910    0.4593 H   0  0  0  0  0  0  0  0  0  0  0  0
    3.8225   -0.1258    1.6855 H   0  0  0  0  0  0  0  0  0  0  0  0
    2.0353   -0.3410   -1.5599 H   0  0  0  0  0  0  0  0  0  0  0  0
    1.0387   -3.5519   -1.2104 H   0  0  0  0  0  0  0  0  0  0  0  0
  1 17  1  0
  2 21  1  0
  3 23  1  0
  4 27  1  0
  4 26  1  0
  5  8  2  0
  6 29  1  0
  6 12  2  0
  7  2  1  0
  7  1  1  0
  7 10  1  0
  8 12  1  0
  8  3  1  0
  9 15  1  0
  9  4  1  0
 10  6  1  0
 11 10  2  0
 11  5  1  0
 12 15  1  0
 13  9  2  0
 14 11  1  0
 16  1  1  0
 18  1  1  0
 19  2  1  0
 20  2  1  0
 22  3  1  0
 24  3  1  0
 25  4  1  0
 28  5  1  0
 30  7  1  0
 31 14  1  0
M  END
>  <HBA>  (810) 
3

>  <HBD>  (810) 
1

>  <TPSA>  (810) 
46.53

>  <cid>  (810) 
5465

>  <dipole>  (810) 
1.73

>  <excitation_energy_1>  (810) 
4.87

>  <excitation_energy_2>  (810) 
5.003

>  <excitation_energy_3>  (810) 
5.13

>  <excitation_energy_4>  (810) 
5.531

>  <homo_energy>  (810) 
-5.761

>  <homo_lumo_gap>  (810) 
5.777

>  <logP>  (810) 
2.749

>  <lumo_energy>  (810) 
0.016

>  <melting_point>  (810) 
78.47

>  <molecular_refractivity>  (810) 
59.51

>  <oscillator_strength_1>  (810) 
0.066

>  <oscillator_strength_2>  (810) 
0.0006

>  <oscillator_strength_3>  (810) 
0.0126

>  <oscillator_strength_4>  (810) 
0.0021

>  <open_babel_can_smiles>  (810) 
CC(=O)Oc1cc(C(C)C)c(cc1C)O

>  <mulliken_charges>  (810) 
31
1   -0.439231
2   -0.454112
3   -0.546948
4   -0.526399
5   -0.274677
6   -0.236565
7   -0.139783
8   0.183081
9   0.595413
10   0.127352
11   0.317102
12   0.295215
13   -0.449683
14   -0.652756
15   -0.528855
16   0.138024
17   0.139472
18   0.159928
19   0.143618
20   0.151926
21   0.141414
22   0.151638
23   0.162275
24   0.187029
25   0.183759
26   0.183731
27   0.182437
28   0.112995
29   0.132859
30   0.151077
31   0.408666

>  <lowdin_charges>  (810) 
31
1   -0.441427
2   -0.44429
3   -0.441426
4   -0.463118
5   -0.217286
6   -0.168504
7   -0.115918
8   -0.000531
9   0.210471
10   -0.028082
11   0.09506
12   0.074218
13   -0.248142
14   -0.382087
15   -0.175883
16   0.147406
17   0.144715
18   0.157525
19   0.152557
20   0.152434
21   0.144361
22   0.157129
23   0.159641
24   0.171418
25   0.174707
26   0.18018
27   0.176824
28   0.151025
29   0.166983
30   0.153792
31   0.356248

$$$$
PCCDB-ID:  5483
     RDKit          3D

 19 18  0  0  1  0  0  0  0  0999 V2000
    1.9910    1.2930    1.1267 C   0  0  0  0  0  0  0  0  0  0  0  0
    3.0116    0.0270   -1.9232 C   0  0  0  0  0  0  0  0  0  0  0  0
    1.5481   -0.0992    0.6471 C   0  0  1  0  0  0  0  0  0  0  0  0
    3.7194   -0.3976   -3.2241 C   0  0  0  0  0  0  0  0  0  0  0  0
    2.7625   -0.9521    0.2537 C   0  0  0  0  0  0  0  0  0  0  0  0
    3.3956   -0.8618   -0.8454 N   0  0  0  0  0  0  0  0  0  0  0  0
    3.5017    0.1489   -4.2789 O   0  0  0  0  0  0  0  0  0  0  0  0
    4.5932   -1.4008   -3.0724 O   0  0  0  0  0  0  0  0  0  0  0  0
    3.2367   -1.8125    1.1739 O   0  0  0  0  0  0  0  0  0  0  0  0
    0.4553   -0.9325    1.9022 S   0  0  0  0  0  0  0  0  0  0  0  0
    2.5683    1.7999    0.3475 H   0  0  0  0  0  0  0  0  0  0  0  0
    2.6259    1.2133    2.0156 H   0  0  0  0  0  0  0  0  0  0  0  0
    1.1212    1.9113    1.3652 H   0  0  0  0  0  0  0  0  0  0  0  0
    1.9336    0.0479   -2.1370 H   0  0  0  0  0  0  0  0  0  0  0  0
    3.3161    1.0650   -1.7299 H   0  0  0  0  0  0  0  0  0  0  0  0
    0.9132    0.0115   -0.2355 H   0  0  0  0  0  0  0  0  0  0  0  0
    4.5539   -1.6474   -2.1158 H   0  0  0  0  0  0  0  0  0  0  0  0
    2.5419   -1.9471    1.8504 H   0  0  0  0  0  0  0  0  0  0  0  0
    0.8445   -0.1949    2.9641 H   0  0  0  0  0  0  0  0  0  0  0  0
  1 13  1  0
  1 12  1  0
  2 15  1  0
  2  6  1  0
  3 16  1  6
  3  1  1  0
  3 10  1  0
  4  8  1  0
  4  2  1  0
  5  3  1  0
  5  9  1  0
  6  5  2  0
  7  4  2  0
  8 17  1  0
  9 18  1  0
 10 19  1  0
 11  1  1  0
 14  2  1  0
M  END
>  <HBA>  (811) 
5

>  <HBD>  (811) 
3

>  <TPSA>  (811) 
105.2

>  <cid>  (811) 
5483

>  <dipole>  (811) 
7.51

>  <excitation_energy_1>  (811) 
5.41

>  <excitation_energy_2>  (811) 
5.594

>  <excitation_energy_3>  (811) 
5.709

>  <excitation_energy_4>  (811) 
5.86

>  <homo_energy>  (811) 
-6.885

>  <homo_lumo_gap>  (811) 
6.28

>  <logP>  (811) 
-0.104

>  <lumo_energy>  (811) 
-0.604

>  <melting_point>  (811) 
120.09

>  <molecular_refractivity>  (811) 
38.85

>  <oscillator_strength_1>  (811) 
0.0078

>  <oscillator_strength_2>  (811) 
0.0034

>  <oscillator_strength_3>  (811) 
0.0008

>  <oscillator_strength_4>  (811) 
0.0064

>  <open_babel_can_smiles>  (811) 
C[C@@H](/C(=N\CC(=O)O)/O)S

>  <mulliken_charges>  (811) 
19
1   -0.457854
2   -0.250283
3   -0.341804
4   0.592228
5   0.519749
6   -0.469729
7   -0.464053
8   -0.570021
9   -0.571229
10   -0.079785
11   0.185035
12   0.169981
13   0.181524
14   0.175434
15   0.186394
16   0.207491
17   0.432596
18   0.430424
19   0.123901

>  <lowdin_charges>  (811) 
19
1   -0.440523
2   -0.243913
3   -0.248165
4   0.180163
5   0.134819
6   -0.229848
7   -0.259893
8   -0.347559
9   -0.348367
10   -0.05428
11   0.171194
12   0.162606
13   0.169849
14   0.160575
15   0.168992
16   0.18244
17   0.358546
18   0.354814
19   0.12855

$$$$
PCCDB-ID:  5504
     RDKit          3D

 24 25  0  0  1  0  0  0  0  0999 V2000
   -1.9675   -1.7897   -0.5720 C   0  0  0  0  0  0  0  0  0  0  0  0
   -1.2565   -1.4503   -1.7228 C   0  0  0  0  0  0  0  0  0  0  0  0
   -1.3034   -1.8533    0.6563 C   0  0  0  0  0  0  0  0  0  0  0  0
    0.1115   -1.1756   -1.6453 C   0  0  0  0  0  0  0  0  0  0  0  0
    0.0614   -1.5798    0.7303 C   0  0  0  0  0  0  0  0  0  0  0  0
    4.4341   -3.5423    1.1419 C   0  0  0  0  0  0  0  0  0  0  0  0
    3.6631   -4.3715    0.0789 C   0  0  0  0  0  0  0  0  0  0  0  0
    2.2767   -0.9492   -0.3256 C   0  0  0  0  0  0  0  0  0  0  0  0
    0.7862   -1.2352   -0.4205 C   0  0  0  0  0  0  0  0  0  0  0  0
    3.0763   -2.1581    0.0876 C   0  0  0  0  0  3  0  0  0  0  0  0
    3.8093   -2.2057    1.1400 N   0  0  0  0  0  2  0  0  0  0  0  0
    3.0737   -3.2926   -0.7287 N   0  0  0  0  0  0  0  0  0  0  0  0
   -3.0318   -2.0015   -0.6292 H   0  0  0  0  0  0  0  0  0  0  0  0
   -1.7640   -1.3970   -2.6825 H   0  0  0  0  0  0  0  0  0  0  0  0
   -1.8509   -2.1152    1.5580 H   0  0  0  0  0  0  0  0  0  0  0  0
    0.6594   -0.9035   -2.5451 H   0  0  0  0  0  0  0  0  0  0  0  0
    0.5779   -1.6328    1.6859 H   0  0  0  0  0  0  0  0  0  0  0  0
    5.4938   -3.4389    0.8700 H   0  0  0  0  0  0  0  0  0  0  0  0
    4.3950   -3.9880    2.1411 H   0  0  0  0  0  0  0  0  0  0  0  0
    2.8848   -4.9974    0.5412 H   0  0  0  0  0  0  0  0  0  0  0  0
    4.3118   -5.0153   -0.5227 H   0  0  0  0  0  0  0  0  0  0  0  0
    2.4778   -0.1662    0.4115 H   0  0  0  0  0  0  0  0  0  0  0  0
    2.6454   -0.5948   -1.2962 H   0  0  0  0  0  0  0  0  0  0  0  0
    2.2079   -3.4931   -1.2175 H   0  0  0  0  0  0  0  0  0  0  0  0
  1  3  2  0
  2  4  2  0
  2  1  1  0
  3  5  1  0
  3 15  1  0
  4  9  1  0
  5 17  1  0
  6 19  1  0
  7 20  1  0
  7  6  1  0
  8 10  1  0
  8 22  1  0
  9  8  1  0
  9  5  2  0
 10 11  1  0
 11  6  1  0
 12  7  1  0
 12 10  1  0
 13  1  1  0
 14  2  1  0
 16  4  1  0
 18  6  1  0
 21  7  1  0
 23  8  1  0
 24 12  1  0
M  RAD  2  10   2  11   2
M  END
>  <HBA>  (812) 
2

>  <HBD>  (812) 
1

>  <TPSA>  (812) 
24.39

>  <cid>  (812) 
5504

>  <dipole>  (812) 
2.63

>  <excitation_energy_1>  (812) 
4.893

>  <excitation_energy_2>  (812) 
4.978

>  <excitation_energy_3>  (812) 
5.29

>  <excitation_energy_4>  (812) 
5.293

>  <homo_energy>  (812) 
-5.834

>  <homo_lumo_gap>  (812) 
5.657

>  <logP>  (812) 
0.995

>  <lumo_energy>  (812) 
-0.177

>  <melting_point>  (812) 
72.78

>  <molecular_refractivity>  (812) 
57.44

>  <oscillator_strength_1>  (812) 
0.0013

>  <oscillator_strength_2>  (812) 
0.0044

>  <oscillator_strength_3>  (812) 
0.0004

>  <oscillator_strength_4>  (812) 
0.0043

>  <open_babel_can_smiles>  (812) 
C1CN[C]([N]1)Cc1ccccc1

>  <mulliken_charges>  (812) 
24
1   -0.130695
2   -0.126378
3   -0.128103
4   -0.199691
5   -0.175993
6   -0.160573
7   -0.148455
8   -0.41702
9   0.148126
10   0.489668
11   -0.470822
12   -0.60048
13   0.131019
14   0.131431
15   0.132826
16   0.12796
17   0.14565
18   0.15021
19   0.146787
20   0.139791
21   0.149204
22   0.183579
23   0.163505
24   0.318453

>  <lowdin_charges>  (812) 
24
1   -0.156654
2   -0.155376
3   -0.153561
4   -0.175541
5   -0.162587
6   -0.208386
7   -0.214334
8   -0.279136
9   -0.008064
10   0.082882
11   -0.244794
12   -0.319903
13   0.156672
14   0.158433
15   0.159604
16   0.156487
17   0.164743
18   0.144892
19   0.148507
20   0.136732
21   0.150926
22   0.179175
23   0.164341
24   0.274941

$$$$
PCCDB-ID:  5520
     RDKit          3D

 22 22  0  0  0  0  0  0  0  0999 V2000
    3.0310    0.4474   -1.6530 C   0  0  0  0  0  0  0  0  0  0  0  0
    1.6656    2.4712    1.2889 C   0  0  0  0  0  0  0  0  0  0  0  0
    4.1596    2.3762    1.2186 C   0  0  0  0  0  0  0  0  0  0  0  0
    1.6985    3.7912    2.0253 C   0  0  0  0  0  0  0  0  0  0  0  0
    4.0800    3.8668    1.5960 C   0  0  0  0  0  0  0  0  0  0  0  0
    2.7782    1.8163    0.9228 C   0  0  0  0  0  0  0  0  0  0  0  0
    3.0107    4.1748    2.5501 N   0  0  0  0  0  0  0  0  0  0  0  0
    1.1081   -0.1928    0.0724 O   0  0  0  0  0  0  0  0  0  0  0  0
    3.5622   -0.8308    0.7946 O   0  0  0  0  0  0  0  0  0  0  0  0
    2.7056    0.1912    0.1199 P   0  0  1  0  0  0  0  0  0  0  0  0
    2.2778    1.1050   -2.0967 H   0  0  0  0  0  0  0  0  0  0  0  0
    3.0082   -0.5233   -2.1569 H   0  0  0  0  0  0  0  0  0  0  0  0
    4.0219    0.8905   -1.7884 H   0  0  0  0  0  0  0  0  0  0  0  0
    0.6865    2.0618    1.0467 H   0  0  0  0  0  0  0  0  0  0  0  0
    4.6193    1.7923    2.0282 H   0  0  0  0  0  0  0  0  0  0  0  0
    4.8221    2.2439    0.3513 H   0  0  0  0  0  0  0  0  0  0  0  0
    0.9830    3.7728    2.8574 H   0  0  0  0  0  0  0  0  0  0  0  0
    1.3412    4.5841    1.3476 H   0  0  0  0  0  0  0  0  0  0  0  0
    3.8955    4.4638    0.6932 H   0  0  0  0  0  0  0  0  0  0  0  0
    5.0335    4.2072    2.0154 H   0  0  0  0  0  0  0  0  0  0  0  0
    3.1823    3.6522    3.4085 H   0  0  0  0  0  0  0  0  0  0  0  0
    0.9173   -0.8169    0.7929 H   0  0  0  0  0  0  0  0  0  0  0  0
  1 10  1  0
  2  4  1  0
  3  5  1  0
  3 15  1  0
  4  7  1  0
  4 17  1  0
  5 20  1  0
  5  7  1  0
  6  3  1  0
  6  2  2  0
  7 21  1  0
  8 10  1  0
  8 22  1  0
 10  9  2  0
 10  6  1  0
 11  1  1  0
 12  1  1  0
 13  1  1  0
 14  2  1  0
 16  3  1  0
 18  4  1  0
 19  5  1  0
M  END
>  <HBA>  (813) 
2

>  <HBD>  (813) 
1

>  <TPSA>  (813) 
66.55

>  <cid>  (813) 
5520

>  <dipole>  (813) 
2.21

>  <excitation_energy_1>  (813) 
4.734

>  <excitation_energy_2>  (813) 
5.324

>  <excitation_energy_3>  (813) 
5.809

>  <excitation_energy_4>  (813) 
5.927

>  <homo_energy>  (813) 
-6.106

>  <homo_lumo_gap>  (813) 
5.859

>  <logP>  (813) 
1.745

>  <lumo_energy>  (813) 
-0.248

>  <melting_point>  (813) 
95.56

>  <molecular_refractivity>  (813) 
44.34

>  <oscillator_strength_1>  (813) 
0.0006

>  <oscillator_strength_2>  (813) 
0.0023

>  <oscillator_strength_3>  (813) 
0.009

>  <oscillator_strength_4>  (813) 
0.007

>  <open_babel_can_smiles>  (813) 
C[P@@](=O)(C1=CCNCC1)O

>  <mulliken_charges>  (813) 
22
1   -0.65562
2   -0.148391
3   -0.328788
4   -0.18367
5   -0.157509
6   -0.08586
7   -0.527476
8   -0.676471
9   -0.55949
10   0.94051
11   0.188597
12   0.199444
13   0.183643
14   0.152595
15   0.173065
16   0.145198
17   0.153747
18   0.161322
19   0.146485
20   0.147134
21   0.2969
22   0.434636

>  <lowdin_charges>  (813) 
22
1   -0.635184
2   -0.163875
3   -0.29135
4   -0.211469
5   -0.207213
6   -0.209459
7   -0.355978
8   -0.597161
9   -0.613658
10   0.998897
11   0.186496
12   0.191046
13   0.181412
14   0.166868
15   0.164893
16   0.154112
17   0.157288
18   0.155161
19   0.14544
20   0.150256
21   0.25471
22   0.378767

$$$$
PCCDB-ID:  5521
     RDKit          3D

 22 22  0  0  0  0  0  0  0  0999 V2000
    2.6661    0.8115    1.4220 C   0  0  0  0  0  0  0  0  0  0  0  0
    4.0462    2.0078   -1.9345 C   0  0  0  0  0  0  0  0  0  0  0  0
    1.5512    1.9925   -1.8310 C   0  0  0  0  0  0  0  0  0  0  0  0
    4.0336    3.1038   -2.9759 C   0  0  0  0  0  0  0  0  0  0  0  0
    1.6582    3.3389   -2.5701 C   0  0  0  0  0  0  0  0  0  0  0  0
    2.9236    1.4918   -1.4122 C   0  0  0  0  0  0  0  0  0  0  0  0
    2.7246    3.3740   -3.5748 N   0  0  0  0  0  0  0  0  0  0  0  0
    4.5545   -0.2904   -0.0933 O   0  0  0  0  0  0  0  0  0  0  0  0
    2.0785   -1.0193   -0.6301 O   0  0  0  0  0  0  0  0  0  0  0  0
    2.9670    0.1147   -0.2329 P   0  0  1  0  0  0  0  0  0  0  0  0
    1.6879    1.3010    1.4460 H   0  0  0  0  0  0  0  0  0  0  0  0
    3.4402    1.5379    1.6861 H   0  0  0  0  0  0  0  0  0  0  0  0
    2.6686   -0.0034    2.1516 H   0  0  0  0  0  0  0  0  0  0  0  0
    5.0180    1.6472   -1.6018 H   0  0  0  0  0  0  0  0  0  0  0  0
    1.0697    1.2351   -2.4650 H   0  0  0  0  0  0  0  0  0  0  0  0
    0.8959    2.0983   -0.9543 H   0  0  0  0  0  0  0  0  0  0  0  0
    4.7408    2.8622   -3.7797 H   0  0  0  0  0  0  0  0  0  0  0  0
    4.4139    4.0322   -2.5188 H   0  0  0  0  0  0  0  0  0  0  0  0
    1.8633    4.1386   -1.8457 H   0  0  0  0  0  0  0  0  0  0  0  0
    0.7084    3.5852   -3.0576 H   0  0  0  0  0  0  0  0  0  0  0  0
    2.5341    2.6572   -4.2741 H   0  0  0  0  0  0  0  0  0  0  0  0
    4.7230   -1.0802   -0.6348 H   0  0  0  0  0  0  0  0  0  0  0  0
  1 11  1  0
  1 12  1  0
  1 13  1  0
  2 14  1  0
  2  6  2  0
  3  6  1  0
  3 16  1  0
  4 18  1  0
  4  2  1  0
  5 19  1  0
  5  3  1  0
  6 10  1  0
  7  4  1  0
  7  5  1  0
 10  9  2  0
 10  8  1  0
 10  1  1  0
 15  3  1  0
 17  4  1  0
 20  5  1  0
 21  7  1  0
 22  8  1  0
M  END
>  <HBA>  (814) 
3

>  <HBD>  (814) 
2

>  <TPSA>  (814) 
59.14

>  <cid>  (814) 
5521

>  <dipole>  (814) 
2.21

>  <excitation_energy_1>  (814) 
4.737

>  <excitation_energy_2>  (814) 
5.326

>  <excitation_energy_3>  (814) 
5.812

>  <excitation_energy_4>  (814) 
5.929

>  <homo_energy>  (814) 
-6.109

>  <homo_lumo_gap>  (814) 
5.861

>  <logP>  (814) 
1.093

>  <lumo_energy>  (814) 
-0.248

>  <melting_point>  (814) 
84.94

>  <molecular_refractivity>  (814) 
44.91

>  <oscillator_strength_1>  (814) 
0.0006

>  <oscillator_strength_2>  (814) 
0.0023

>  <oscillator_strength_3>  (814) 
0.009

>  <oscillator_strength_4>  (814) 
0.0069

>  <open_babel_can_smiles>  (814) 
C[P@@](=O)(C1=CCNCC1)O

>  <mulliken_charges>  (814) 
22
1   -0.655707
2   -0.148474
3   -0.328764
4   -0.183652
5   -0.15763
6   -0.085452
7   -0.527447
8   -0.676814
9   -0.55975
10   0.940767
11   0.183464
12   0.188572
13   0.199394
14   0.152613
15   0.17334
16   0.145144
17   0.153796
18   0.161356
19   0.146475
20   0.147258
21   0.296958
22   0.434553

>  <lowdin_charges>  (814) 
22
1   -0.634048
2   -0.16349
3   -0.291058
4   -0.211417
5   -0.208003
6   -0.207785
7   -0.356102
8   -0.596905
9   -0.613
10   0.994246
11   0.18139
12   0.186194
13   0.191748
14   0.166982
15   0.165229
16   0.154026
17   0.157617
18   0.154547
19   0.145812
20   0.150371
21   0.255098
22   0.378549

$$$$
PCCDB-ID:  5524
     RDKit          3D

 33 35  0  0  1  0  0  0  0  0999 V2000
   -2.5653    1.7231   -0.0533 C   0  0  0  0  0  0  0  0  0  0  0  0
   -2.6879    0.5025    0.8620 C   0  0  0  0  0  0  0  0  0  0  0  0
    2.3470    1.0491   -0.1390 C   0  0  0  0  0  0  0  0  0  0  0  0
   -1.2019    2.3893    0.1546 C   0  0  0  0  0  0  0  0  0  0  0  0
    1.2562    1.9097   -0.0976 C   0  0  0  0  0  0  0  0  0  0  0  0
   -1.6226   -0.5475    0.5176 C   0  0  0  0  0  0  0  0  0  0  0  0
    2.1660   -0.3254    0.0051 C   0  0  0  0  0  0  0  0  0  0  0  0
    2.3415   -5.2438    1.0609 C   0  0  0  0  0  0  0  0  0  0  0  0
    3.1615   -4.2434    1.9196 C   0  0  0  0  0  0  0  0  0  0  0  0
   -0.0386    1.4116    0.1043 C   0  0  0  0  0  0  0  0  0  0  0  0
   -0.2378    0.0329    0.2827 C   0  0  0  0  0  0  0  0  0  0  0  0
    0.8801   -0.8372    0.2247 C   0  0  0  0  0  0  0  0  0  0  0  0
    1.5068   -3.2353    0.7211 C   0  0  0  0  0  3  0  0  0  0  0  0
    1.2179   -4.4729    0.5147 N   0  0  0  0  0  2  0  0  0  0  0  0
    2.7328   -2.9575    1.3412 N   0  0  0  0  0  0  0  0  0  0  0  0
    0.6443   -2.2191    0.3661 N   0  0  0  0  0  0  0  0  0  0  0  0
   -3.3681    2.4429    0.1466 H   0  0  0  0  0  0  0  0  0  0  0  0
   -2.6723    1.4087   -1.1011 H   0  0  0  0  0  0  0  0  0  0  0  0
   -3.6843    0.0511    0.7867 H   0  0  0  0  0  0  0  0  0  0  0  0
   -2.5641    0.8229    1.9059 H   0  0  0  0  0  0  0  0  0  0  0  0
    3.3460    1.4406   -0.3124 H   0  0  0  0  0  0  0  0  0  0  0  0
   -1.1998    2.8942    1.1331 H   0  0  0  0  0  0  0  0  0  0  0  0
   -1.0422    3.1801   -0.5892 H   0  0  0  0  0  0  0  0  0  0  0  0
    1.3991    2.9798   -0.2294 H   0  0  0  0  0  0  0  0  0  0  0  0
   -1.9476   -1.0942   -0.3842 H   0  0  0  0  0  0  0  0  0  0  0  0
   -1.5727   -1.2989    1.3168 H   0  0  0  0  0  0  0  0  0  0  0  0
    3.0077   -1.0033   -0.0755 H   0  0  0  0  0  0  0  0  0  0  0  0
    1.9870   -6.0986    1.6474 H   0  0  0  0  0  0  0  0  0  0  0  0
    2.9505   -5.6454    0.2375 H   0  0  0  0  0  0  0  0  0  0  0  0
    4.2440   -4.3764    1.8314 H   0  0  0  0  0  0  0  0  0  0  0  0
    2.8882   -4.3110    2.9830 H   0  0  0  0  0  0  0  0  0  0  0  0
    2.7439   -2.1516    1.9575 H   0  0  0  0  0  0  0  0  0  0  0  0
   -0.2264   -2.5824    0.0033 H   0  0  0  0  0  0  0  0  0  0  0  0
  1 17  1  0
  1  4  1  0
  1  2  1  0
  2 20  1  0
  3  5  2  0
  3  7  1  0
  4 22  1  0
  5 10  1  0
  6  2  1  0
  6 26  1  0
  7 12  2  0
  8 28  1  0
  8  9  1  0
  9 31  1  0
 10  4  1  0
 10 11  2  0
 11  6  1  0
 12 11  1  0
 12 16  1  0
 13 15  1  0
 14 13  1  0
 14  8  1  0
 15  9  1  0
 15 32  1  0
 16 13  1  0
 18  1  1  0
 19  2  1  0
 21  3  1  0
 23  4  1  0
 24  5  1  0
 25  6  1  0
 27  7  1  0
 29  8  1  0
 30  9  1  0
 33 16  1  0
M  RAD  2  13   2  14   2
M  END
>  <HBA>  (815) 
3

>  <HBD>  (815) 
2

>  <TPSA>  (815) 
36.42

>  <cid>  (815) 
5524

>  <dipole>  (815) 
2.3

>  <excitation_energy_1>  (815) 
4.549

>  <excitation_energy_2>  (815) 
4.724

>  <excitation_energy_3>  (815) 
4.772

>  <excitation_energy_4>  (815) 
5.116

>  <homo_energy>  (815) 
-5.268

>  <homo_lumo_gap>  (815) 
5.317

>  <logP>  (815) 
1.774

>  <lumo_energy>  (815) 
0.049

>  <melting_point>  (815) 
135.09

>  <molecular_refractivity>  (815) 
74.41

>  <oscillator_strength_1>  (815) 
0.0214

>  <oscillator_strength_2>  (815) 
0.1177

>  <oscillator_strength_3>  (815) 
0.2194

>  <oscillator_strength_4>  (815) 
0.0035

>  <open_babel_can_smiles>  (815) 
C1CN[C]([N]1)Nc1cccc2c1CCCC2

>  <mulliken_charges>  (815) 
33
1   -0.264934
2   -0.264914
3   -0.142234
4   -0.342718
5   -0.185899
6   -0.36294
7   -0.186778
8   -0.146024
9   -0.146491
10   0.104569
11   0.081778
12   0.270572
13   0.676124
14   -0.504412
15   -0.614336
16   -0.759811
17   0.133999
18   0.138176
19   0.135593
20   0.138451
21   0.126496
22   0.150228
23   0.145987
24   0.115707
25   0.144977
26   0.155286
27   0.161117
28   0.141945
29   0.144013
30   0.149957
31   0.139866
32   0.322281
33   0.344369

>  <lowdin_charges>  (815) 
33
1   -0.275614
2   -0.272398
3   -0.151687
4   -0.275724
5   -0.181095
6   -0.283583
7   -0.205324
8   -0.204247
9   -0.205287
10   -0.007495
11   -0.044373
12   0.04587
13   0.118206
14   -0.288348
15   -0.326214
16   -0.247384
17   0.146671
18   0.141013
19   0.146347
20   0.141223
21   0.156295
22   0.150754
23   0.153225
24   0.150952
25   0.14585
26   0.155343
27   0.172052
28   0.146165
29   0.142212
30   0.14711
31   0.133954
32   0.277141
33   0.298391

$$$$
PCCDB-ID:  5526
     RDKit          3D

 26 26  0  0  1  0  0  0  0  0999 V2000
    0.7415    1.2481   -0.2712 C   0  0  0  0  0  0  0  0  0  0  0  0
   -1.4406   -0.0211   -0.3108 C   0  0  0  0  0  0  0  0  0  0  0  0
    1.4586    0.0139    0.2925 C   0  0  0  0  0  0  0  0  0  0  0  0
   -0.7359   -1.2658    0.2468 C   0  0  0  0  0  0  0  0  0  0  0  0
   -1.4633    2.5147   -0.4478 C   0  0  0  0  0  0  0  0  0  0  0  0
   -0.7454    1.2818    0.1193 C   0  0  2  0  0  0  0  0  0  0  0  0
    0.7516   -1.2977   -0.1340 C   0  0  2  0  0  0  0  0  0  0  0  0
    1.4488   -2.5160    0.4691 C   0  0  0  0  0  0  0  0  0  0  0  0
   -0.8647    3.7596    0.0506 N   0  0  0  0  0  0  0  0  0  0  0  0
    0.9694   -3.2470    1.2996 O   0  0  0  0  0  0  0  0  0  0  0  0
    2.7168   -2.7483    0.0198 O   0  0  0  0  0  0  0  0  0  0  0  0
    0.8180    1.2415   -1.3699 H   0  0  0  0  0  0  0  0  0  0  0  0
    1.2325    2.1651    0.0685 H   0  0  0  0  0  0  0  0  0  0  0  0
   -2.4888   -0.0158    0.0157 H   0  0  0  0  0  0  0  0  0  0  0  0
   -1.4597   -0.0708   -1.4108 H   0  0  0  0  0  0  0  0  0  0  0  0
    1.4754    0.0615    1.3903 H   0  0  0  0  0  0  0  0  0  0  0  0
    2.5086    0.0139   -0.0308 H   0  0  0  0  0  0  0  0  0  0  0  0
   -1.2270   -2.1784   -0.1087 H   0  0  0  0  0  0  0  0  0  0  0  0
   -0.8134   -1.2859    1.3408 H   0  0  0  0  0  0  0  0  0  0  0  0
   -2.5440    2.4242   -0.2316 H   0  0  0  0  0  0  0  0  0  0  0  0
   -1.3634    2.5143   -1.5419 H   0  0  0  0  0  0  0  0  0  0  0  0
   -0.8033    1.3405    1.2201 H   0  0  0  0  0  0  0  0  0  0  0  0
    0.8342   -1.3813   -1.2308 H   0  0  0  0  0  0  0  0  0  0  0  0
   -1.0726    3.8628    1.0436 H   0  0  0  0  0  0  0  0  0  0  0  0
   -1.2951    4.5592   -0.4106 H   0  0  0  0  0  0  0  0  0  0  0  0
    2.9578   -2.0825   -0.6452 H   0  0  0  0  0  0  0  0  0  0  0  0
  1 13  1  0
  1  6  1  0
  1  3  1  0
  2 14  1  0
  2  6  1  0
  2  4  1  0
  3 16  1  0
  4 19  1  0
  5 20  1  0
  5  9  1  0
  5  6  1  0
  6 22  1  1
  7 23  1  6
  7  4  1  0
  7  3  1  0
  7  8  1  0
  8 10  2  0
  9 24  1  0
 11  8  1  0
 12  1  1  0
 15  2  1  0
 17  3  1  0
 18  4  1  0
 21  5  1  0
 25  9  1  0
 26 11  1  0
M  END
>  <HBA>  (816) 
3

>  <HBD>  (816) 
2

>  <TPSA>  (816) 
63.32

>  <cid>  (816) 
5526

>  <dipole>  (816) 
4.71

>  <excitation_energy_1>  (816) 
5.598

>  <excitation_energy_2>  (816) 
5.631

>  <excitation_energy_3>  (816) 
5.931

>  <excitation_energy_4>  (816) 
6.331

>  <homo_energy>  (816) 
-6.474

>  <homo_lumo_gap>  (816) 
6.876

>  <logP>  (816) 
1.536

>  <lumo_energy>  (816) 
0.403

>  <melting_point>  (816) 
126.09

>  <molecular_refractivity>  (816) 
42.94

>  <oscillator_strength_1>  (816) 
0.0101

>  <oscillator_strength_2>  (816) 
0.0009

>  <oscillator_strength_3>  (816) 
0.0028

>  <oscillator_strength_4>  (816) 
0.011

>  <open_babel_can_smiles>  (816) 
NC[C@@H]1CC[C@H](CC1)C(=O)O

>  <mulliken_charges>  (816) 
26
1   -0.25047
2   -0.274407
3   -0.276583
4   -0.256263
5   -0.139035
6   -0.07754
7   -0.219953
8   0.612745
9   -0.718751
10   -0.445185
11   -0.576505
12   0.120048
13   0.165473
14   0.134593
15   0.124961
16   0.152679
17   0.121815
18   0.147894
19   0.15465
20   0.113974
21   0.134585
22   0.114391
23   0.135528
24   0.293908
25   0.299122
26   0.408326

>  <lowdin_charges>  (816) 
26
1   -0.275462
2   -0.275088
3   -0.272728
4   -0.269877
5   -0.200705
6   -0.130908
7   -0.171239
8   0.196794
9   -0.556841
10   -0.239361
11   -0.363232
12   0.133598
13   0.162086
14   0.144444
15   0.13434
16   0.148051
17   0.136055
18   0.154842
19   0.151904
20   0.117517
21   0.137608
22   0.129753
23   0.14343
24   0.250618
25   0.257892
26   0.356507

$$$$
PCCDB-ID:  5528
     RDKit          3D

 26 27  0  0  1  0  0  0  0  0999 V2000
    1.0125    0.0335   -0.1174 C   0  0  0  0  0  0  0  0  0  0  0  0
    2.9288    1.1911    2.2510 C   0  0  0  0  0  0  0  0  0  0  0  0
    4.6099   -1.3768   -0.0921 C   0  0  0  0  0  0  0  0  0  0  0  0
    3.1760   -1.3042   -0.7019 C   0  0  0  0  0  0  0  0  0  0  0  0
    4.7044    1.1109   -0.1660 C   0  0  0  0  0  0  0  0  0  0  0  0
    2.9532   -1.2495    2.2503 C   0  0  0  0  0  0  0  0  0  0  0  0
    4.6818   -0.1027    0.7836 C   0  0  1  0  0  0  0  0  0  0  0  0
    3.2598    1.1268   -0.6999 C   0  0  0  0  0  0  0  0  0  0  0  0
    2.5263   -0.0455   -0.0274 C   0  0  1  0  0  0  0  0  0  0  0  0
    3.2252   -0.0403    1.3703 C   0  0  2  0  0  0  0  0  0  0  0  0
    2.1180   -2.1089    2.0703 O   0  0  0  0  0  0  0  0  0  0  0  0
    2.7985    1.9049   -1.5045 O   0  0  0  0  0  0  0  0  0  0  0  0
    0.7013    0.0770   -1.1665 H   0  0  0  0  0  0  0  0  0  0  0  0
    0.6305    0.9396    0.3662 H   0  0  0  0  0  0  0  0  0  0  0  0
    0.5517   -0.8379    0.3552 H   0  0  0  0  0  0  0  0  0  0  0  0
    3.5495    1.1854    3.1550 H   0  0  0  0  0  0  0  0  0  0  0  0
    1.8796    1.1993    2.5659 H   0  0  0  0  0  0  0  0  0  0  0  0
    3.1183    2.1306    1.7240 H   0  0  0  0  0  0  0  0  0  0  0  0
    5.3964   -1.3889   -0.8538 H   0  0  0  0  0  0  0  0  0  0  0  0
    4.7352   -2.2810    0.5139 H   0  0  0  0  0  0  0  0  0  0  0  0
    2.5862   -2.1880   -0.4493 H   0  0  0  0  0  0  0  0  0  0  0  0
    3.1819   -1.2090   -1.7928 H   0  0  0  0  0  0  0  0  0  0  0  0
    5.4237    1.0110   -0.9866 H   0  0  0  0  0  0  0  0  0  0  0  0
    4.9241    2.0576    0.3399 H   0  0  0  0  0  0  0  0  0  0  0  0
    3.6053   -1.2860    3.1560 H   0  0  0  0  0  0  0  0  0  0  0  0
    5.4826   -0.1074    1.5295 H   0  0  0  0  0  0  0  0  0  0  0  0
  1 15  1  0
  1 14  1  0
  2 17  1  0
  2 16  1  0
  3 20  1  0
  3  7  1  0
  4 21  1  0
  4  3  1  0
  4  9  1  0
  5 24  1  0
  5  7  1  0
  6 25  1  0
  7 10  1  0
  7 26  1  1
  8  5  1  0
  8  9  1  0
  9  1  1  1
  9 10  1  0
 10  6  1  1
 10  2  1  0
 11  6  2  0
 12  8  2  0
 13  1  1  0
 18  2  1  0
 19  3  1  0
 22  4  1  0
 23  5  1  0
M  END
>  <HBA>  (817) 
2

>  <HBD>  (817) 
0

>  <TPSA>  (817) 
34.14

>  <cid>  (817) 
5528

>  <dipole>  (817) 
3.03

>  <excitation_energy_1>  (817) 
4.11

>  <excitation_energy_2>  (817) 
4.224

>  <excitation_energy_3>  (817) 
4.851

>  <excitation_energy_4>  (817) 
5.774

>  <homo_energy>  (817) 
-6.427

>  <homo_lumo_gap>  (817) 
5.508

>  <logP>  (817) 
1.581

>  <lumo_energy>  (817) 
-0.92

>  <melting_point>  (817) 
106.43

>  <molecular_refractivity>  (817) 
45.84

>  <oscillator_strength_1>  (817) 
0.0

>  <oscillator_strength_2>  (817) 
0.0004

>  <oscillator_strength_3>  (817) 
0.0001

>  <oscillator_strength_4>  (817) 
0.0089

>  <open_babel_can_smiles>  (817) 
O=C[C@@]1(C)[C@H]2CC[C@]1(C)C(=O)C2

>  <mulliken_charges>  (817) 
26
1   -0.481241
2   -0.487805
3   -0.288938
4   -0.303369
5   -0.356375
6   0.251227
7   -0.130176
8   0.443918
9   0.026203
10   -0.00583
11   -0.390167
12   -0.456875
13   0.160784
14   0.146448
15   0.168404
16   0.153949
17   0.170899
18   0.169772
19   0.14497
20   0.152404
21   0.180228
22   0.153374
23   0.171798
24   0.173884
25   0.104442
26   0.128072

>  <lowdin_charges>  (817) 
26
1   -0.44361
2   -0.443709
3   -0.28828
4   -0.280657
5   -0.315599
6   0.059258
7   -0.132649
8   0.152652
9   -0.021487
10   -0.036324
11   -0.214303
12   -0.225337
13   0.161627
14   0.154093
15   0.164866
16   0.15656
17   0.162175
18   0.164105
19   0.150466
20   0.152091
21   0.168419
22   0.151017
23   0.170338
24   0.170163
25   0.117522
26   0.146606

$$$$
PCCDB-ID:  5530
     RDKit          3D

 21 22  0  0  1  0  0  0  0  0999 V2000
   -1.4372   -0.0359    0.1287 C   0  0  0  0  0  0  0  0  0  0  0  0
   -0.8659    1.1515   -0.3363 C   0  0  0  0  0  0  0  0  0  0  0  0
   -0.6145   -1.1159    0.4505 C   0  0  0  0  0  0  0  0  0  0  0  0
    0.5174    1.2550   -0.4764 C   0  0  0  0  0  0  0  0  0  0  0  0
    0.7706   -1.0086    0.3084 C   0  0  0  0  0  0  0  0  0  0  0  0
    3.8342   -0.2750    0.6506 C   0  0  0  0  0  0  0  0  0  0  0  0
    1.3552    0.1761   -0.1557 C   0  0  0  0  0  0  0  0  0  0  0  0
    2.8386    0.2951   -0.3445 C   0  0  1  0  0  0  0  0  0  0  0  0
    3.6725    1.2259    0.4928 C   0  0  2  0  0  0  0  0  0  0  0  0
    4.6438    2.0906   -0.1398 N   0  0  0  0  0  0  0  0  0  0  0  0
   -2.5153   -0.1165    0.2406 H   0  0  0  0  0  0  0  0  0  0  0  0
   -1.4995    1.9987   -0.5863 H   0  0  0  0  0  0  0  0  0  0  0  0
   -1.0497   -2.0434    0.8140 H   0  0  0  0  0  0  0  0  0  0  0  0
    0.9613    2.1817   -0.8323 H   0  0  0  0  0  0  0  0  0  0  0  0
    1.4081   -1.8529    0.5585 H   0  0  0  0  0  0  0  0  0  0  0  0
    4.7339   -0.7400    0.2539 H   0  0  0  0  0  0  0  0  0  0  0  0
    3.4494   -0.7418    1.5543 H   0  0  0  0  0  0  0  0  0  0  0  0
    3.1563    0.2327   -1.3877 H   0  0  0  0  0  0  0  0  0  0  0  0
    3.1462    1.7278    1.3026 H   0  0  0  0  0  0  0  0  0  0  0  0
    5.0072    1.6517   -0.9843 H   0  0  0  0  0  0  0  0  0  0  0  0
    5.4438    2.2235    0.4789 H   0  0  0  0  0  0  0  0  0  0  0  0
  1 11  1  0
  1  3  2  0
  2  1  1  0
  3 13  1  0
  4  2  2  0
  4  7  1  0
  5  3  1  0
  5 15  1  0
  6 17  1  0
  7  5  2  0
  8 18  1  6
  8  7  1  0
  8  9  1  0
  8  6  1  0
  9  6  1  0
  9 19  1  1
 10 21  1  0
 10  9  1  0
 12  2  1  0
 14  4  1  0
 16  6  1  0
 20 10  1  0
M  END
>  <HBA>  (818) 
1

>  <HBD>  (818) 
1

>  <TPSA>  (818) 
26.02

>  <cid>  (818) 
5530

>  <dipole>  (818) 
1.37

>  <excitation_energy_1>  (818) 
5.09

>  <excitation_energy_2>  (818) 
5.171

>  <excitation_energy_3>  (818) 
5.461

>  <excitation_energy_4>  (818) 
5.622

>  <homo_energy>  (818) 
-5.875

>  <homo_lumo_gap>  (818) 
5.948

>  <logP>  (818) 
2.201

>  <lumo_energy>  (818) 
0.073

>  <melting_point>  (818) 
82.65

>  <molecular_refractivity>  (818) 
41.62

>  <oscillator_strength_1>  (818) 
0.012

>  <oscillator_strength_2>  (818) 
0.0314

>  <oscillator_strength_3>  (818) 
0.0368

>  <oscillator_strength_4>  (818) 
0.0117

>  <open_babel_can_smiles>  (818) 
N[C@@H]1C[C@H]1c1ccccc1

>  <mulliken_charges>  (818) 
21
1   -0.129369
2   -0.130568
3   -0.130981
4   -0.174827
5   -0.179572
6   -0.330331
7   0.149521
8   -0.21026
9   0.023223
10   -0.713656
11   0.126383
12   0.127956
13   0.126579
14   0.136192
15   0.125333
16   0.138514
17   0.149978
18   0.152003
19   0.152063
20   0.293315
21   0.298504

>  <lowdin_charges>  (818) 
21
1   -0.158534
2   -0.157501
3   -0.157587
4   -0.160261
5   -0.166761
6   -0.344005
7   -0.002075
8   -0.157163
9   -0.090916
10   -0.534621
11   0.154235
12   0.15753
13   0.156238
14   0.161383
15   0.157401
16   0.154877
17   0.160757
18   0.157338
19   0.157267
20   0.254604
21   0.257794

$$$$
PCCDB-ID:  5541
     RDKit          3D

 29 28  0  0  0  0  0  0  0  0999 V2000
    6.5855    0.0603   -1.8267 C   0  0  0  0  0  0  0  0  0  0  0  0
    7.1329   -2.3731    6.4874 C   0  0  0  0  0  0  0  0  0  0  0  0
    9.1566   -2.5075    1.4850 C   0  0  0  0  0  0  0  0  0  0  0  0
    4.8408   -1.5412    1.0166 C   0  0  0  0  0  0  0  0  0  0  0  0
    4.9850   -1.9759    3.4984 C   0  0  0  0  0  0  0  0  0  0  0  0
    6.1402   -1.0712   -0.9363 C   0  0  0  0  0  0  0  0  0  0  0  0
    6.2467   -2.8155    5.3483 C   0  0  0  0  0  0  0  0  0  0  0  0
    8.0299   -1.5286    1.6925 C   0  0  0  0  0  0  0  0  0  0  0  0
    5.7012   -1.4128    2.2758 C   0  0  0  0  0  0  0  0  0  0  0  0
    6.5213   -2.2188   -1.0071 O   0  0  0  0  0  0  0  0  0  0  0  0
    5.9691   -3.9603    5.0774 O   0  0  0  0  0  0  0  0  0  0  0  0
    8.0808   -0.3374    1.4766 O   0  0  0  0  0  0  0  0  0  0  0  0
    5.2628   -0.6186   -0.0013 O   0  0  0  0  0  0  0  0  0  0  0  0
    5.7861   -1.7310    4.6633 O   0  0  0  0  0  0  0  0  0  0  0  0
    6.9160   -2.1756    2.1252 O   0  0  0  0  0  0  0  0  0  0  0  0
    7.0456   -0.3425   -2.7300 H   0  0  0  0  0  0  0  0  0  0  0  0
    7.3260    0.6520   -1.2762 H   0  0  0  0  0  0  0  0  0  0  0  0
    5.7492    0.7173   -2.0786 H   0  0  0  0  0  0  0  0  0  0  0  0
    6.5896   -1.6874    7.1454 H   0  0  0  0  0  0  0  0  0  0  0  0
    8.0012   -1.8310    6.0984 H   0  0  0  0  0  0  0  0  0  0  0  0
    7.4624   -3.2475    7.0494 H   0  0  0  0  0  0  0  0  0  0  0  0
    9.2056   -3.2337    2.3008 H   0  0  0  0  0  0  0  0  0  0  0  0
   10.0993   -1.9666    1.3919 H   0  0  0  0  0  0  0  0  0  0  0  0
    8.9612   -3.0584    0.5578 H   0  0  0  0  0  0  0  0  0  0  0  0
    3.8058   -1.2654    1.2390 H   0  0  0  0  0  0  0  0  0  0  0  0
    4.8799   -2.5633    0.6328 H   0  0  0  0  0  0  0  0  0  0  0  0
    4.8062   -3.0489    3.3999 H   0  0  0  0  0  0  0  0  0  0  0  0
    4.0342   -1.4538    3.6454 H   0  0  0  0  0  0  0  0  0  0  0  0
    5.9626   -0.3633    2.4351 H   0  0  0  0  0  0  0  0  0  0  0  0
  1 17  1  0
  1  6  1  0
  2 21  1  0
  2 19  1  0
  3  8  1  0
  3 22  1  0
  4 25  1  0
  4  9  1  0
  5 28  1  0
  5 14  1  0
  6 13  1  0
  7  2  1  0
  8 15  1  0
  9 29  1  0
  9  5  1  0
 10  6  2  0
 11  7  2  0
 12  8  2  0
 13  4  1  0
 14  7  1  0
 15  9  1  0
 16  1  1  0
 18  1  1  0
 20  2  1  0
 23  3  1  0
 24  3  1  0
 26  4  1  0
 27  5  1  0
M  END
>  <HBA>  (819) 
6

>  <HBD>  (819) 
0

>  <TPSA>  (819) 
78.9

>  <cid>  (819) 
5541

>  <dipole>  (819) 
1.87

>  <excitation_energy_1>  (819) 
5.825

>  <excitation_energy_2>  (819) 
5.836

>  <excitation_energy_3>  (819) 
5.868

>  <excitation_energy_4>  (819) 
6.765

>  <homo_energy>  (819) 
-7.426

>  <homo_lumo_gap>  (819) 
7.592

>  <logP>  (819) 
0.044

>  <lumo_energy>  (819) 
0.166

>  <melting_point>  (819) 
8.77

>  <molecular_refractivity>  (819) 
49.23

>  <oscillator_strength_1>  (819) 
0.0005

>  <oscillator_strength_2>  (819) 
0.0011

>  <oscillator_strength_3>  (819) 
0.0007

>  <oscillator_strength_4>  (819) 
0.0041

>  <open_babel_can_smiles>  (819) 
CC(=O)OC(COC(=O)C)COC(=O)C

>  <mulliken_charges>  (819) 
29
1   -0.530088
2   -0.524988
3   -0.532208
4   -0.068733
5   -0.068969
6   0.619842
7   0.603844
8   0.623905
9   0.086071
10   -0.477632
11   -0.455342
12   -0.480015
13   -0.451057
14   -0.457068
15   -0.458239
16   0.17979
17   0.207292
18   0.176922
19   0.183889
20   0.185507
21   0.184527
22   0.17977
23   0.178196
24   0.208024
25   0.155208
26   0.191714
27   0.194744
28   0.155703
29   0.18939

>  <lowdin_charges>  (819) 
29
1   -0.466365
2   -0.466718
3   -0.464578
4   -0.142289
5   -0.141137
6   0.208067
7   0.203458
8   0.207659
9   -0.016114
10   -0.269225
11   -0.253896
12   -0.270358
13   -0.192598
14   -0.196825
15   -0.190118
16   0.175506
17   0.193067
18   0.175494
19   0.180357
20   0.180591
21   0.1775
22   0.176764
23   0.174205
24   0.192484
25   0.157456
26   0.170998
27   0.171574
28   0.156038
29   0.169003

$$$$
PCCDB-ID:  5542
     RDKit          3D

 32 31  0  0  0  0  0  0  0  0999 V2000
    2.0510    2.2467   -2.9744 C   0  0  0  0  0  0  0  0  0  0  0  0
    3.5164    2.3269   -2.5365 C   0  0  0  0  0  0  0  0  0  0  0  0
    3.9471    1.1324   -1.6628 C   0  0  0  0  0  0  0  0  0  0  0  0
    5.3985    1.1838   -1.2707 C   0  0  0  0  0  0  0  0  0  0  0  0
    5.8592    1.2579   -0.0199 C   0  0  0  0  0  0  0  0  0  0  0  0
    7.3219    1.3177    0.3615 C   0  0  0  0  0  0  0  0  0  0  0  0
    7.6643    2.5726    1.1186 C   0  0  0  0  0  0  0  0  0  0  0  0
    8.6019    3.4689    0.7536 C   0  0  0  0  0  0  0  0  0  0  0  0
    8.8994    4.6626    1.5085 C   0  0  0  0  0  3  0  0  0  0  0  0
    9.8389    5.5754    1.1567 C   0  0  0  0  0  0  0  0  0  0  0  0
   10.1383    6.7734    1.9136 C   0  0  0  0  0  0  0  0  0  0  0  0
    9.5181    7.0764    3.0094 N   0  0  0  0  0  2  0  0  0  0  0  0
   10.0101    8.2785    3.5203 N   0  0  0  0  0  2  0  0  0  0  0  0
    9.3992    8.5442    4.5733 N   0  0  0  0  0  2  0  0  0  0  0  0
    9.9071    9.7442    5.0629 O   0  0  0  0  0  0  0  0  0  0  0  0
    1.7733    3.1057   -3.5956 H   0  0  0  0  0  0  0  0  0  0  0  0
    1.3780    2.2309   -2.1083 H   0  0  0  0  0  0  0  0  0  0  0  0
    1.8601    1.3375   -3.5579 H   0  0  0  0  0  0  0  0  0  0  0  0
    3.6897    3.2565   -1.9787 H   0  0  0  0  0  0  0  0  0  0  0  0
    4.1638    2.3773   -3.4232 H   0  0  0  0  0  0  0  0  0  0  0  0
    3.7518    0.2041   -2.2223 H   0  0  0  0  0  0  0  0  0  0  0  0
    3.3194    1.0905   -0.7625 H   0  0  0  0  0  0  0  0  0  0  0  0
    6.1158    1.1688   -2.0948 H   0  0  0  0  0  0  0  0  0  0  0  0
    5.1486    1.2811    0.8086 H   0  0  0  0  0  0  0  0  0  0  0  0
    7.9493    1.2355   -0.5339 H   0  0  0  0  0  0  0  0  0  0  0  0
    7.5604    0.4490    0.9983 H   0  0  0  0  0  0  0  0  0  0  0  0
    7.0922    2.7577    2.0293 H   0  0  0  0  0  0  0  0  0  0  0  0
    9.1776    3.2986   -0.1571 H   0  0  0  0  0  0  0  0  0  0  0  0
    8.3304    4.8379    2.4203 H   0  0  0  0  0  0  0  0  0  0  0  0
   10.4223    5.4241    0.2506 H   0  0  0  0  0  0  0  0  0  0  0  0
   10.9202    7.4379    1.5332 H   0  0  0  0  0  0  0  0  0  0  0  0
    9.3792    9.8667    5.8699 H   0  0  0  0  0  0  0  0  0  0  0  0
  1  2  1  0
  1 17  1  0
  2 19  1  0
  2  3  1  0
  3  4  1  0
  3 22  1  0
  4  5  2  0
  5  6  1  0
  5 24  1  0
  6 26  1  0
  6  7  1  0
  7 27  1  0
  8  7  2  0
  8  9  1  0
  9 29  1  0
 10  9  1  0
 10 11  2  0
 11 12  1  0
 12 13  1  0
 13 14  1  0
 14 15  1  0
 15 32  1  0
 16  1  1  0
 18  1  1  0
 20  2  1  0
 21  3  1  0
 23  4  1  0
 25  6  1  0
 28  8  1  0
 30 10  1  0
 31 11  1  0
M  RAD  4   9   2  12   2  13   2  14   2
M  END
>  <HBA>  (820) 
4

>  <HBD>  (820) 
1

>  <TPSA>  (820) 
53.82

>  <cid>  (820) 
5542

>  <dipole>  (820) 
3.08

>  <excitation_energy_1>  (820) 
3.333

>  <excitation_energy_2>  (820) 
3.748

>  <excitation_energy_3>  (820) 
3.988

>  <excitation_energy_4>  (820) 
4.796

>  <homo_energy>  (820) 
-5.954

>  <homo_lumo_gap>  (820) 
3.804

>  <logP>  (820) 
3.493

>  <lumo_energy>  (820) 
-2.15

>  <melting_point>  (820) 
63.58

>  <molecular_refractivity>  (820) 
64.79

>  <oscillator_strength_1>  (820) 
0.0002

>  <oscillator_strength_2>  (820) 
1.0467

>  <oscillator_strength_3>  (820) 
0.0786

>  <oscillator_strength_4>  (820) 
0.018

>  <open_babel_can_smiles>  (820) 
CCC/C=C/C/C=C/[CH]/C=C\[N][N][N]O

>  <mulliken_charges>  (820) 
32
1   -0.442279
2   -0.247526
3   -0.296752
4   -0.085428
5   -0.09807
6   -0.356588
7   -0.092438
8   -0.104635
9   -0.08142
10   -0.174976
11   0.097945
12   -0.279007
13   -0.076535
14   0.042812
15   -0.464119
16   0.145498
17   0.143342
18   0.142164
19   0.141615
20   0.132514
21   0.139357
22   0.13634
23   0.117276
24   0.121534
25   0.149416
26   0.161164
27   0.138562
28   0.127097
29   0.167207
30   0.13316
31   0.145318
32   0.417453

>  <lowdin_charges>  (820) 
32
1   -0.446113
2   -0.271339
3   -0.270782
4   -0.161068
5   -0.171332
6   -0.267826
7   -0.124442
8   -0.167279
9   -0.096868
10   -0.19507
11   -0.069741
12   -0.12743
13   -0.071042
14   0.005589
15   -0.347835
16   0.152095
17   0.147797
18   0.146945
19   0.14465
20   0.140379
21   0.147018
22   0.145216
23   0.14668
24   0.148875
25   0.154145
26   0.161339
27   0.156643
28   0.1538
29   0.173868
30   0.159159
31   0.149784
32   0.354183

$$$$
PCCDB-ID:  5565
     RDKit          3D

 28 27  0  0  0  0  0  0  0  0999 V2000
   -4.9968   -0.8217   -1.3672 C   0  0  0  0  0  0  0  0  0  0  0  0
   -2.7986   -5.4772   -4.5385 C   0  0  0  0  0  0  0  0  0  0  0  0
   -3.8062   -0.2117   -2.1371 C   0  0  0  0  0  0  0  0  0  0  0  0
   -3.6338   -4.7386   -3.4862 C   0  0  0  0  0  0  0  0  0  0  0  0
   -1.7041   -1.5974   -2.4148 C   0  0  0  0  0  0  0  0  0  0  0  0
   -2.1461   -3.0718   -2.4244 C   0  0  0  0  0  0  0  0  0  0  0  0
   -6.3248   -0.3615   -1.7811 N   0  0  0  0  0  0  0  0  0  0  0  0
   -1.4254   -5.7369   -4.0827 N   0  0  0  0  0  0  0  0  0  0  0  0
   -2.4813   -0.6086   -1.6700 N   0  0  0  0  0  0  0  0  0  0  0  0
   -3.2752   -3.3273   -3.3256 N   0  0  0  0  0  0  0  0  0  0  0  0
   -4.8832   -0.5908   -0.2987 H   0  0  0  0  0  0  0  0  0  0  0  0
   -4.9807   -1.9177   -1.4380 H   0  0  0  0  0  0  0  0  0  0  0  0
   -2.7437   -4.8427   -5.4299 H   0  0  0  0  0  0  0  0  0  0  0  0
   -3.3454   -6.3964   -4.8213 H   0  0  0  0  0  0  0  0  0  0  0  0
   -3.9068    0.8857   -2.0699 H   0  0  0  0  0  0  0  0  0  0  0  0
   -3.8882   -0.4599   -3.2034 H   0  0  0  0  0  0  0  0  0  0  0  0
   -3.5914   -5.3032   -2.5323 H   0  0  0  0  0  0  0  0  0  0  0  0
   -4.6785   -4.7750   -3.8197 H   0  0  0  0  0  0  0  0  0  0  0  0
   -1.6309   -1.2570   -3.4551 H   0  0  0  0  0  0  0  0  0  0  0  0
   -0.6863   -1.5643   -2.0029 H   0  0  0  0  0  0  0  0  0  0  0  0
   -2.3517   -3.3971   -1.3828 H   0  0  0  0  0  0  0  0  0  0  0  0
   -1.3115   -3.6796   -2.7859 H   0  0  0  0  0  0  0  0  0  0  0  0
   -6.3787    0.6524   -1.6854 H   0  0  0  0  0  0  0  0  0  0  0  0
   -6.4603   -0.5528   -2.7737 H   0  0  0  0  0  0  0  0  0  0  0  0
   -1.4421   -6.4332   -3.3375 H   0  0  0  0  0  0  0  0  0  0  0  0
   -0.8840   -6.1497   -4.8407 H   0  0  0  0  0  0  0  0  0  0  0  0
   -2.4854   -0.8155   -0.6747 H   0  0  0  0  0  0  0  0  0  0  0  0
   -4.0931   -2.8367   -2.9749 H   0  0  0  0  0  0  0  0  0  0  0  0
  1 11  1  0
  2  8  1  0
  2  4  1  0
  3 15  1  0
  3  9  1  0
  3  1  1  0
  4 10  1  0
  4 17  1  0
  5 20  1  0
  5  9  1  0
  6  5  1  0
  6 21  1  0
  7 23  1  0
  7  1  1  0
  8 25  1  0
  9 27  1  0
 10 28  1  0
 10  6  1  0
 12  1  1  0
 13  2  1  0
 14  2  1  0
 16  3  1  0
 18  4  1  0
 19  5  1  0
 22  6  1  0
 24  7  1  0
 26  8  1  0
M  END
>  <HBA>  (821) 
4

>  <HBD>  (821) 
4

>  <TPSA>  (821) 
76.1

>  <cid>  (821) 
5565

>  <dipole>  (821) 
1.77

>  <excitation_energy_1>  (821) 
4.811

>  <excitation_energy_2>  (821) 
5.029

>  <excitation_energy_3>  (821) 
5.196

>  <excitation_energy_4>  (821) 
5.242

>  <homo_energy>  (821) 
-5.276

>  <homo_lumo_gap>  (821) 
7.053

>  <logP>  (821) 
0.265

>  <lumo_energy>  (821) 
1.777

>  <melting_point>  (821) 
136.29

>  <molecular_refractivity>  (821) 
41.97

>  <oscillator_strength_1>  (821) 
0.0034

>  <oscillator_strength_2>  (821) 
0.0283

>  <oscillator_strength_3>  (821) 
0.0129

>  <oscillator_strength_4>  (821) 
0.0063

>  <open_babel_can_smiles>  (821) 
NCCNCCNCCN

>  <mulliken_charges>  (821) 
28
1   -0.170619
2   -0.121207
3   -0.126093
4   -0.123472
5   -0.145822
6   -0.136193
7   -0.703993
8   -0.712637
9   -0.555214
10   -0.561892
11   0.138788
12   0.138707
13   0.151337
14   0.107226
15   0.1221
16   0.138847
17   0.105712
18   0.128478
19   0.149898
20   0.133553
21   0.08918
22   0.183826
23   0.295705
24   0.29329
25   0.291857
26   0.298735
27   0.288205
28   0.301698

>  <lowdin_charges>  (821) 
28
1   -0.224506
2   -0.211202
3   -0.221698
4   -0.204306
5   -0.206932
6   -0.231382
7   -0.546004
8   -0.555915
9   -0.366895
10   -0.369606
11   0.139095
12   0.133525
13   0.149983
14   0.117722
15   0.127201
16   0.14104
17   0.116093
18   0.142451
19   0.147438
20   0.143406
21   0.105398
22   0.167196
23   0.251342
24   0.249822
25   0.250992
26   0.257295
27   0.248902
28   0.249544

$$$$
PCCDB-ID:  5570
     RDKit          3D

 17 17  0  0  0  0  0  0  0  0999 V2000
    1.0546   -0.0264    0.0650 C   0  0  0  0  0  0  0  0  0  0  0  0
    4.5741   -1.2627   -0.1210 C   0  0  0  0  0  0  0  0  0  0  0  0
    5.2753   -0.0573   -0.2311 C   0  0  0  0  0  0  0  0  0  0  0  0
    3.1941   -1.2392   -0.0298 C   0  0  0  0  0  0  0  0  0  0  0  0
    3.1988    1.1163   -0.1629 C   0  0  0  0  0  0  0  0  0  0  0  0
    4.5794    1.1520   -0.2542 C   0  0  0  0  0  0  0  0  0  0  0  0
    5.2926    2.5406   -0.3792 C   0  0  0  0  0  0  0  0  0  0  0  0
    2.5259   -0.0561   -0.0508 N   0  0  0  0  0  0  0  0  0  0  0  0
    4.4870    3.4951   -0.3998 O   0  0  0  0  0  1  0  0  0  0  0  0
    6.5318    2.4512   -0.4355 O   0  0  0  0  0  0  0  0  0  0  0  0
    0.6671   -1.0446    0.0285 H   0  0  0  0  0  0  0  0  0  0  0  0
    0.6402    0.5512   -0.7636 H   0  0  0  0  0  0  0  0  0  0  0  0
    0.7732    0.4395    1.0123 H   0  0  0  0  0  0  0  0  0  0  0  0
    5.0827   -2.2212   -0.1042 H   0  0  0  0  0  0  0  0  0  0  0  0
    6.3584   -0.0069   -0.3021 H   0  0  0  0  0  0  0  0  0  0  0  0
    2.5889   -2.1327    0.0604 H   0  0  0  0  0  0  0  0  0  0  0  0
    2.6392    2.0465   -0.1823 H   0  0  0  0  0  0  0  0  0  0  0  0
  1 13  1  0
  2 14  1  0
  2  4  2  0
  3  2  1  0
  4 16  1  0
  5  8  1  0
  6  3  1  0
  6  5  2  0
  7  6  1  0
  8  4  1  0
  8  1  1  0
  9  7  1  0
 10  7  2  0
 11  1  1  0
 12  1  1  0
 15  3  1  0
 17  5  1  0
M  RAD  1   9   2
M  END
>  <HBA>  (822) 
2

>  <HBD>  (822) 
0

>  <TPSA>  (822) 
44.01

>  <cid>  (822) 
5570

>  <dipole>  (822) 
13.68

>  <excitation_energy_1>  (822) 
1.964

>  <excitation_energy_2>  (822) 
1.976

>  <excitation_energy_3>  (822) 
2.373

>  <excitation_energy_4>  (822) 
2.793

>  <homo_energy>  (822) 
-5.121

>  <homo_lumo_gap>  (822) 
2.52

>  <logP>  (822) 
-1.125

>  <lumo_energy>  (822) 
-2.601

>  <melting_point>  (822) 
37.83

>  <molecular_refractivity>  (822) 
35.05

>  <oscillator_strength_1>  (822) 
0.0

>  <oscillator_strength_2>  (822) 
0.0

>  <oscillator_strength_3>  (822) 
0.0158

>  <oscillator_strength_4>  (822) 
0.0

>  <open_babel_can_smiles>  (822) 
CN1C=C(CC=C1)C(=O)[O]

>  <mulliken_charges>  (822) 
17
1   -0.340691
2   -0.168678
3   -0.105357
4   0.090154
5   0.060015
6   0.004349
7   0.570768
8   -0.372239
9   -0.583199
10   -0.570505
11   0.189911
12   0.214561
13   0.214941
14   0.175219
15   0.206768
16   0.189187
17   0.224795

>  <lowdin_charges>  (822) 
17
1   -0.343425
2   -0.151189
3   -0.073925
4   -0.086774
5   -0.062065
6   -0.014219
7   0.115261
8   0.067187
9   -0.394037
10   -0.377103
11   0.175602
12   0.187653
13   0.185598
14   0.182745
15   0.199257
16   0.182248
17   0.207185

$$$$
PCCDB-ID:  5576
     RDKit          3D

 19 19  0  0  0  0  0  0  0  0999 V2000
    1.1193    0.2221   -0.1780 C   0  0  0  0  0  0  0  0  0  0  0  0
    2.8933    0.0779    1.6447 C   0  0  0  0  0  0  0  0  0  0  0  0
    5.2233    1.1664   -2.3091 C   0  0  0  0  0  0  0  0  0  0  0  0
    3.4180    1.1930   -0.5570 C   0  0  0  0  0  0  0  0  0  0  0  0
    4.0837   -0.8567   -1.3641 C   0  0  0  0  0  0  0  0  0  0  0  0
    2.6073    0.0977    0.1442 C   0  0  0  0  0  0  0  0  0  0  0  0
    4.2603    0.5302   -1.4251 N   0  0  0  0  0  0  0  0  0  0  0  0
    3.3366    2.3919   -0.3851 O   0  0  0  0  0  0  0  0  0  0  0  0
    4.6807   -1.6788   -2.0083 O   0  0  0  0  0  0  0  0  0  0  0  0
    3.1185   -1.1313   -0.4501 O   0  0  0  0  0  0  0  0  0  0  0  0
    0.7448    1.1840    0.1841 H   0  0  0  0  0  0  0  0  0  0  0  0
    0.5617   -0.5853    0.3060 H   0  0  0  0  0  0  0  0  0  0  0  0
    0.9492    0.1655   -1.2576 H   0  0  0  0  0  0  0  0  0  0  0  0
    2.5781    1.0258    2.0905 H   0  0  0  0  0  0  0  0  0  0  0  0
    3.9619   -0.0601    1.8360 H   0  0  0  0  0  0  0  0  0  0  0  0
    2.3456   -0.7416    2.1196 H   0  0  0  0  0  0  0  0  0  0  0  0
    5.1329    2.2440   -2.1638 H   0  0  0  0  0  0  0  0  0  0  0  0
    5.0091    0.9069   -3.3491 H   0  0  0  0  0  0  0  0  0  0  0  0
    6.2369    0.8382   -2.0637 H   0  0  0  0  0  0  0  0  0  0  0  0
  1  6  1  0
  1 11  1  0
  1 12  1  0
  2 15  1  0
  2 14  1  0
  2 16  1  0
  3 17  1  0
  3 19  1  0
  3  7  1  0
  4  8  2  0
  4  6  1  0
  5 10  1  0
  6  2  1  0
  7  5  1  0
  7  4  1  0
  9  5  2  0
 10  6  1  0
 13  1  1  0
 18  3  1  0
M  END
>  <HBA>  (823) 
4

>  <HBD>  (823) 
0

>  <TPSA>  (823) 
46.61

>  <cid>  (823) 
5576

>  <dipole>  (823) 
1.73

>  <excitation_energy_1>  (823) 
5.303

>  <excitation_energy_2>  (823) 
6.318

>  <excitation_energy_3>  (823) 
6.713

>  <excitation_energy_4>  (823) 
6.819

>  <homo_energy>  (823) 
-7.418

>  <homo_lumo_gap>  (823) 
6.934

>  <logP>  (823) 
0.311

>  <lumo_energy>  (823) 
-0.484

>  <melting_point>  (823) 
53.84

>  <molecular_refractivity>  (823) 
37.56

>  <oscillator_strength_1>  (823) 
0.0019

>  <oscillator_strength_2>  (823) 
0.0

>  <oscillator_strength_3>  (823) 
0.1781

>  <oscillator_strength_4>  (823) 
0.0053

>  <open_babel_can_smiles>  (823) 
O=C1OC(C(=O)N1C)(C)C

>  <mulliken_charges>  (823) 
19
1   -0.446155
2   -0.445894
3   -0.324329
4   0.592747
5   0.777322
6   0.199378
7   -0.488463
8   -0.494292
9   -0.474511
10   -0.492078
11   0.17742
12   0.169766
13   0.164793
14   0.177228
15   0.164582
16   0.170136
17   0.197743
18   0.187587
19   0.187021

>  <lowdin_charges>  (823) 
19
1   -0.438118
2   -0.438303
3   -0.342128
4   0.148818
5   0.213884
6   0.107552
7   -0.082186
8   -0.26129
9   -0.250096
10   -0.183266
11   0.172353
12   0.167328
13   0.162043
14   0.172417
15   0.16208
16   0.167449
17   0.180219
18   0.170731
19   0.170514

$$$$
PCCDB-ID:  5603
     RDKit          3D

 25 24  0  0  1  0  0  0  0  0999 V2000
    1.7105   -0.8396   -0.8816 C   0  0  0  0  0  0  0  0  0  0  0  0
    5.5329    5.7228    0.0164 C   0  0  0  0  0  0  0  0  0  0  0  0
    3.0335   -0.1970   -0.4526 C   0  0  0  0  0  0  0  0  0  0  0  0
    3.0125    1.3355   -0.5185 C   0  0  0  0  0  0  0  0  0  0  0  0
    4.3328    1.9869   -0.0860 C   0  0  0  0  0  0  0  0  0  0  0  0
    4.3017    3.5202   -0.1518 C   0  0  0  0  0  0  0  0  0  0  0  0
    5.6379    4.2044    0.1779 C   0  0  2  0  0  0  0  0  0  0  0  0
    6.0192    3.9072    1.5687 N   0  0  0  0  0  0  0  0  0  0  0  0
    1.7581   -1.9330   -0.8222 H   0  0  0  0  0  0  0  0  0  0  0  0
    1.4566   -0.5730   -1.9152 H   0  0  0  0  0  0  0  0  0  0  0  0
    0.8830   -0.5069   -0.2428 H   0  0  0  0  0  0  0  0  0  0  0  0
    5.2427    5.9894   -1.0060 H   0  0  0  0  0  0  0  0  0  0  0  0
    6.4928    6.2111    0.2287 H   0  0  0  0  0  0  0  0  0  0  0  0
    4.7878    6.1283    0.7101 H   0  0  0  0  0  0  0  0  0  0  0  0
    3.8470   -0.5757   -1.0880 H   0  0  0  0  0  0  0  0  0  0  0  0
    3.2770   -0.5118    0.5722 H   0  0  0  0  0  0  0  0  0  0  0  0
    2.1971    1.7145    0.1152 H   0  0  0  0  0  0  0  0  0  0  0  0
    2.7709    1.6509   -1.5446 H   0  0  0  0  0  0  0  0  0  0  0  0
    5.1475    1.6088   -0.7229 H   0  0  0  0  0  0  0  0  0  0  0  0
    4.5632    1.6651    0.9396 H   0  0  0  0  0  0  0  0  0  0  0  0
    3.5395    3.9013    0.5416 H   0  0  0  0  0  0  0  0  0  0  0  0
    3.9987    3.8270   -1.1633 H   0  0  0  0  0  0  0  0  0  0  0  0
    6.3874    3.8371   -0.5510 H   0  0  0  0  0  0  0  0  0  0  0  0
    6.2365    2.9166    1.6640 H   0  0  0  0  0  0  0  0  0  0  0  0
    6.8811    4.4027    1.7955 H   0  0  0  0  0  0  0  0  0  0  0  0
  1  9  1  0
  1  3  1  0
  1 11  1  0
  2  7  1  0
  2 13  1  0
  2 14  1  0
  3 16  1  0
  4  3  1  0
  4  5  1  0
  4 17  1  0
  5 20  1  0
  6  5  1  0
  6  7  1  0
  6 21  1  0
  7 23  1  6
  7  8  1  0
  8 24  1  0
  8 25  1  0
 10  1  1  0
 12  2  1  0
 15  3  1  0
 18  4  1  0
 19  5  1  0
 22  6  1  0
M  END
>  <HBA>  (824) 
1

>  <HBD>  (824) 
1

>  <TPSA>  (824) 
26.02

>  <cid>  (824) 
5603

>  <dipole>  (824) 
1.29

>  <excitation_energy_1>  (824) 
5.684

>  <excitation_energy_2>  (824) 
6.425

>  <excitation_energy_3>  (824) 
6.591

>  <excitation_energy_4>  (824) 
6.695

>  <homo_energy>  (824) 
-6.231

>  <homo_lumo_gap>  (824) 
8.378

>  <logP>  (824) 
2.614

>  <lumo_energy>  (824) 
2.147

>  <melting_point>  (824) 
27.02

>  <molecular_refractivity>  (824) 
38.47

>  <oscillator_strength_1>  (824) 
0.0076

>  <oscillator_strength_2>  (824) 
0.0106

>  <oscillator_strength_3>  (824) 
0.0703

>  <oscillator_strength_4>  (824) 
0.004

>  <open_babel_can_smiles>  (824) 
CCCCC[C@H](N)C

>  <mulliken_charges>  (824) 
25
1   -0.441285
2   -0.443535
3   -0.247091
4   -0.245663
5   -0.268706
6   -0.233948
7   0.037051
8   -0.722193
9   0.140953
10   0.140868
11   0.141831
12   0.139969
13   0.132032
14   0.155716
15   0.128585
16   0.129902
17   0.129977
18   0.126147
19   0.122833
20   0.131399
21   0.138067
22   0.121392
23   0.099334
24   0.295959
25   0.290407

>  <lowdin_charges>  (824) 
25
1   -0.442107
2   -0.447666
3   -0.272488
4   -0.273296
5   -0.278753
6   -0.279178
7   -0.061418
8   -0.558075
9   0.146813
10   0.144961
11   0.147229
12   0.148981
13   0.143983
14   0.155958
15   0.13882
16   0.137651
17   0.140071
18   0.136004
19   0.135864
20   0.137922
21   0.146922
22   0.138198
23   0.112683
24   0.249795
25   0.251124

$$$$
PCCDB-ID:  5610
     RDKit          3D

 21 21  0  0  0  0  0  0  0  0999 V2000
   -0.7983    1.0652   -0.0822 C   0  0  0  0  0  0  0  0  0  0  0  0
    1.3470   -0.0044   -0.0896 C   0  0  0  0  0  0  0  0  0  0  0  0
   -1.4258   -0.1800   -0.0389 C   0  0  0  0  0  0  0  0  0  0  0  0
    0.7390   -1.2560   -0.0457 C   0  0  0  0  0  0  0  0  0  0  0  0
    1.2666    2.5373   -0.1126 C   0  0  0  0  0  0  0  0  0  0  0  0
    1.5482    3.0714    1.3016 C   0  0  0  0  0  0  0  0  0  0  0  0
    0.5966    1.1807   -0.1084 C   0  0  0  0  0  0  0  0  0  0  0  0
   -0.6561   -1.3467   -0.0183 C   0  0  0  0  0  0  0  0  0  0  0  0
    2.1325    4.4154    1.2328 N   0  0  0  0  0  0  0  0  0  0  0  0
   -1.2087   -2.5995    0.0217 O   0  0  0  0  0  0  0  0  0  0  0  0
   -1.4101    1.9645   -0.1021 H   0  0  0  0  0  0  0  0  0  0  0  0
    2.4333    0.0525   -0.1163 H   0  0  0  0  0  0  0  0  0  0  0  0
   -2.5128   -0.2440   -0.0256 H   0  0  0  0  0  0  0  0  0  0  0  0
    1.3259   -2.1692   -0.0365 H   0  0  0  0  0  0  0  0  0  0  0  0
    2.2161    2.4806   -0.6641 H   0  0  0  0  0  0  0  0  0  0  0  0
    0.6459    3.2741   -0.6354 H   0  0  0  0  0  0  0  0  0  0  0  0
    2.1657    2.3332    1.8454 H   0  0  0  0  0  0  0  0  0  0  0  0
    0.6002    3.1453    1.8490 H   0  0  0  0  0  0  0  0  0  0  0  0
    3.0625    4.3612    0.8175 H   0  0  0  0  0  0  0  0  0  0  0  0
    2.2700    4.7791    2.1747 H   0  0  0  0  0  0  0  0  0  0  0  0
   -2.1746   -2.5146    0.0355 H   0  0  0  0  0  0  0  0  0  0  0  0
  1  3  2  0
  2  4  1  0
  3 13  1  0
  3  8  1  0
  4 14  1  0
  4  8  2  0
  5  7  1  0
  5  6  1  0
  6 17  1  0
  6 18  1  0
  7  2  2  0
  7  1  1  0
  8 10  1  0
  9  6  1  0
  9 20  1  0
 10 21  1  0
 11  1  1  0
 12  2  1  0
 15  5  1  0
 16  5  1  0
 19  9  1  0
M  END
>  <HBA>  (825) 
2

>  <HBD>  (825) 
2

>  <TPSA>  (825) 
46.25

>  <cid>  (825) 
5610

>  <dipole>  (825) 
0.86

>  <excitation_energy_1>  (825) 
4.946

>  <excitation_energy_2>  (825) 
5.097

>  <excitation_energy_3>  (825) 
5.46

>  <excitation_energy_4>  (825) 
5.628

>  <homo_energy>  (825) 
-5.772

>  <homo_lumo_gap>  (825) 
5.823

>  <logP>  (825) 
1.594

>  <lumo_energy>  (825) 
0.052

>  <melting_point>  (825) 
101.71

>  <molecular_refractivity>  (825) 
40.95

>  <oscillator_strength_1>  (825) 
0.0327

>  <oscillator_strength_2>  (825) 
0.0002

>  <oscillator_strength_3>  (825) 
0.014

>  <oscillator_strength_4>  (825) 
0.0396

>  <open_babel_can_smiles>  (825) 
NCCc1ccc(cc1)O

>  <mulliken_charges>  (825) 
21
1   -0.189173
2   -0.187629
3   -0.193084
4   -0.157574
5   -0.341714
6   -0.128472
7   0.167489
8   0.347452
9   -0.71494
10   -0.644785
11   0.127302
12   0.121945
13   0.116259
14   0.137294
15   0.132357
16   0.155125
17   0.116833
18   0.142272
19   0.291194
20   0.295917
21   0.405931

>  <lowdin_charges>  (825) 
21
1   -0.156137
2   -0.152914
3   -0.211439
4   -0.186384
5   -0.276977
6   -0.204948
7   -0.021497
8   0.098991
9   -0.557665
10   -0.379524
11   0.157308
12   0.152491
13   0.150007
14   0.166592
15   0.143266
16   0.157226
17   0.12049
18   0.143073
19   0.24954
20   0.25404
21   0.354462

$$$$
PCCDB-ID:  5613
     RDKit          3D

 21 21  0  0  0  0  0  0  0  0999 V2000
   -0.7884    0.7164   -0.3169 C   0  0  0  0  0  0  0  0  0  0  0  0
    1.1706   -0.6497   -0.0378 C   0  0  0  0  0  0  0  0  0  0  0  0
   -1.5897   -0.4238   -0.2984 C   0  0  0  0  0  0  0  0  0  0  0  0
    0.3847   -1.7964   -0.0174 C   0  0  0  0  0  0  0  0  0  0  0  0
    1.4719    1.8594   -0.1813 C   0  0  0  0  0  0  0  0  0  0  0  0
    2.7231    3.5052    1.2408 C   0  0  0  0  0  0  0  0  0  0  0  0
    0.4864    2.8722    1.9055 C   0  0  0  0  0  0  0  0  0  0  0  0
    0.6021    0.6247   -0.1858 C   0  0  0  0  0  0  0  0  0  0  0  0
    1.7315    2.4153    1.2642 C   0  0  0  0  0  0  0  0  0  0  0  0
   -1.0049   -1.6851   -0.1457 C   0  0  0  0  0  0  0  0  0  0  0  0
    3.5232    4.3429    1.1830 N   0  0  0  0  0  0  0  0  0  0  0  0
   -0.5087    3.2234    2.3866 N   0  0  0  0  0  0  0  0  0  0  0  0
   -1.7310   -2.8402   -0.1209 O   0  0  0  0  0  0  0  0  0  0  0  0
   -1.2574    1.6896   -0.4349 H   0  0  0  0  0  0  0  0  0  0  0  0
    2.2505   -0.7498    0.0534 H   0  0  0  0  0  0  0  0  0  0  0  0
   -2.6690   -0.3316   -0.4033 H   0  0  0  0  0  0  0  0  0  0  0  0
    0.8259   -2.7818    0.0921 H   0  0  0  0  0  0  0  0  0  0  0  0
    1.0266    2.6629   -0.7761 H   0  0  0  0  0  0  0  0  0  0  0  0
    2.4548    1.6425   -0.6123 H   0  0  0  0  0  0  0  0  0  0  0  0
    2.1419    1.6010    1.8764 H   0  0  0  0  0  0  0  0  0  0  0  0
   -2.6729   -2.6268   -0.2105 H   0  0  0  0  0  0  0  0  0  0  0  0
  1  3  2  0
  1  8  1  0
  2  4  1  0
  2 15  1  0
  3 10  1  0
  4 17  1  0
  5  9  1  0
  6  9  1  0
  7 12  3  0
  8  5  1  0
  8  2  2  0
  9 20  1  0
  9  7  1  0
 10 13  1  0
 10  4  2  0
 11  6  3  0
 14  1  1  0
 16  3  1  0
 18  5  1  0
 19  5  1  0
 21 13  1  0
M  END
>  <HBA>  (826) 
3

>  <HBD>  (826) 
1

>  <TPSA>  (826) 
67.81

>  <cid>  (826) 
5613

>  <dipole>  (826) 
4.45

>  <excitation_energy_1>  (826) 
4.958

>  <excitation_energy_2>  (826) 
5.347

>  <excitation_energy_3>  (826) 
5.417

>  <excitation_energy_4>  (826) 
5.514

>  <homo_energy>  (826) 
-6.422

>  <homo_lumo_gap>  (826) 
5.837

>  <logP>  (826) 
1.598

>  <lumo_energy>  (826) 
-0.585

>  <melting_point>  (826) 
113.94

>  <molecular_refractivity>  (826) 
47.35

>  <oscillator_strength_1>  (826) 
0.0249

>  <oscillator_strength_2>  (826) 
0.0407

>  <oscillator_strength_3>  (826) 
0.0119

>  <oscillator_strength_4>  (826) 
0.0944

>  <open_babel_can_smiles>  (826) 
N#CC(Cc1ccc(cc1)O)C#N

>  <mulliken_charges>  (826) 
21
1   -0.174786
2   -0.190346
3   -0.192456
4   -0.154743
5   -0.361873
6   0.37193
7   0.384005
8   0.158194
9   -0.228501
10   0.35443
11   -0.449322
12   -0.452482
13   -0.636575
14   0.146959
15   0.130768
16   0.130481
17   0.148425
18   0.18371
19   0.181938
20   0.238449
21   0.411794

>  <lowdin_charges>  (826) 
21
1   -0.143807
2   -0.15094
3   -0.204355
4   -0.180093
5   -0.252487
6   -0.011379
7   -0.006754
8   -0.041528
9   -0.118576
10   0.107113
11   -0.093649
12   -0.095561
13   -0.368674
14   0.16618
15   0.155764
16   0.15732
17   0.171375
18   0.172175
19   0.170165
20   0.208308
21   0.359403

$$$$
PCCDB-ID:  5641
     RDKit          3D

 13 12  0  0  0  0  0  0  0  0999 V2000
    1.0503   -0.8220   -0.5084 C   0  0  0  0  0  0  0  0  0  0  0  0
    2.2714   -0.0329   -0.0743 C   0  0  0  0  0  0  0  0  0  0  0  0
    2.7414    1.8767    1.2297 C   0  0  0  0  0  0  0  0  0  0  0  0
    3.9872    1.7232    1.0105 N   0  0  0  0  0  0  0  0  0  0  0  0
    2.1012    2.8297    1.9614 O   0  0  0  0  0  0  0  0  0  0  0  0
    1.8034    1.0632    0.7375 O   0  0  0  0  0  0  0  0  0  0  0  0
    1.3594   -1.6683   -1.1316 H   0  0  0  0  0  0  0  0  0  0  0  0
    0.3662   -0.1960   -1.0903 H   0  0  0  0  0  0  0  0  0  0  0  0
    0.5074   -1.2114    0.3587 H   0  0  0  0  0  0  0  0  0  0  0  0
    2.8279    0.3706   -0.9265 H   0  0  0  0  0  0  0  0  0  0  0  0
    2.9674   -0.6381    0.5155 H   0  0  0  0  0  0  0  0  0  0  0  0
    4.5530    2.4393    1.4652 H   0  0  0  0  0  0  0  0  0  0  0  0
    2.7688    3.4296    2.3273 H   0  0  0  0  0  0  0  0  0  0  0  0
  1  2  1  0
  1  9  1  0
  2 11  1  0
  2  6  1  0
  3  5  1  0
  4  3  2  0
  4 12  1  0
  5 13  1  0
  6  3  1  0
  7  1  1  0
  8  1  1  0
 10  2  1  0
M  END
>  <HBA>  (827) 
3

>  <HBD>  (827) 
1

>  <TPSA>  (827) 
52.32

>  <cid>  (827) 
5641

>  <dipole>  (827) 
1.05

>  <excitation_energy_1>  (827) 
5.936

>  <excitation_energy_2>  (827) 
6.443

>  <excitation_energy_3>  (827) 
7.169

>  <excitation_energy_4>  (827) 
7.279

>  <homo_energy>  (827) 
-7.034

>  <homo_lumo_gap>  (827) 
8.34

>  <logP>  (827) 
0.802

>  <lumo_energy>  (827) 
1.306

>  <melting_point>  (827) 
52.45

>  <molecular_refractivity>  (827) 
20.92

>  <oscillator_strength_1>  (827) 
0.0058

>  <oscillator_strength_2>  (827) 
0.0436

>  <oscillator_strength_3>  (827) 
0.0148

>  <oscillator_strength_4>  (827) 
0.0003

>  <open_babel_can_smiles>  (827) 
CCOC(=N)O

>  <mulliken_charges>  (827) 
13
1   -0.460036
2   -0.017033
3   0.645428
4   -0.630273
5   -0.570547
6   -0.4431
7   0.150093
8   0.162046
9   0.162019
10   0.159759
11   0.160306
12   0.274444
13   0.406894

>  <lowdin_charges>  (827) 
13
1   -0.451996
2   -0.117608
3   0.183773
4   -0.472548
5   -0.366745
6   -0.179423
7   0.158821
8   0.160396
9   0.159782
10   0.153075
11   0.154148
12   0.256663
13   0.361663

$$$$
PCCDB-ID:  5665
     RDKit          3D

 20 19  0  0  1  0  0  0  0  0999 V2000
   -0.2082    1.4956    1.4233 C   0  0  0  0  0  0  0  0  0  0  0  0
    0.8193    0.7767    1.8859 C   0  0  0  0  0  0  0  0  0  0  0  0
    1.9660   -1.4745    1.7809 C   0  0  0  0  0  0  0  0  0  0  0  0
    0.7231   -2.2311    2.3068 C   0  0  0  0  0  0  0  0  0  0  0  0
    1.7208   -0.1143    1.0581 C   0  0  1  0  0  0  0  0  0  0  0  0
   -0.2770   -2.6237    1.2267 C   0  0  0  0  0  0  0  0  0  0  0  0
    1.2697   -0.1870   -0.3321 N   0  0  0  0  0  0  0  0  0  0  0  0
   -0.2702   -3.6847    0.6544 O   0  0  0  0  0  0  0  0  0  0  0  0
   -1.2072   -1.6792    0.9005 O   0  0  0  0  0  0  0  0  0  0  0  0
   -0.8024    2.1224    2.0830 H   0  0  0  0  0  0  0  0  0  0  0  0
   -0.4485    1.5119    0.3642 H   0  0  0  0  0  0  0  0  0  0  0  0
    1.0614    0.8135    2.9494 H   0  0  0  0  0  0  0  0  0  0  0  0
    2.5225   -2.1303    1.1000 H   0  0  0  0  0  0  0  0  0  0  0  0
    2.6201   -1.2963    2.6453 H   0  0  0  0  0  0  0  0  0  0  0  0
    0.2233   -1.6339    3.0797 H   0  0  0  0  0  0  0  0  0  0  0  0
    1.0538   -3.1633    2.7724 H   0  0  0  0  0  0  0  0  0  0  0  0
    2.7051    0.3788    1.0284 H   0  0  0  0  0  0  0  0  0  0  0  0
    0.3872   -0.6884   -0.4101 H   0  0  0  0  0  0  0  0  0  0  0  0
    1.9502   -0.6959   -0.8918 H   0  0  0  0  0  0  0  0  0  0  0  0
   -1.0538   -0.8590    1.4099 H   0  0  0  0  0  0  0  0  0  0  0  0
  1  2  2  3
  1 10  1  0
  2 12  1  0
  3  4  1  0
  3 14  1  0
  4 16  1  0
  4 15  1  0
  5 17  1  6
  5  3  1  0
  5  2  1  0
  6  4  1  0
  7  5  1  0
  8  6  2  0
  9  6  1  0
  9 20  1  0
 11  1  1  0
 13  3  1  0
 18  7  1  0
 19  7  1  0
M  END
>  <HBA>  (828) 
3

>  <HBD>  (828) 
2

>  <TPSA>  (828) 
63.32

>  <cid>  (828) 
5665

>  <dipole>  (828) 
4.01

>  <excitation_energy_1>  (828) 
5.338

>  <excitation_energy_2>  (828) 
5.539

>  <excitation_energy_3>  (828) 
5.747

>  <excitation_energy_4>  (828) 
5.993

>  <homo_energy>  (828) 
-6.634

>  <homo_lumo_gap>  (828) 
6.514

>  <logP>  (828) 
1.065

>  <lumo_energy>  (828) 
-0.12

>  <melting_point>  (828) 
84.25

>  <molecular_refractivity>  (828) 
34.96

>  <oscillator_strength_1>  (828) 
0.0223

>  <oscillator_strength_2>  (828) 
0.0008

>  <oscillator_strength_3>  (828) 
0.0055

>  <oscillator_strength_4>  (828) 
0.0057

>  <open_babel_can_smiles>  (828) 
N[C@@H](C=C)CCC(=O)O

>  <mulliken_charges>  (828) 
20
1   -0.357399
2   -0.085395
3   -0.278689
4   -0.367996
5   -0.017574
6   0.574258
7   -0.733427
8   -0.436681
9   -0.580758
10   0.148923
11   0.17922
12   0.134444
13   0.155431
14   0.144296
15   0.149897
16   0.181093
17   0.158292
18   0.318595
19   0.305512
20   0.407958

>  <lowdin_charges>  (828) 
20
1   -0.343545
2   -0.159449
3   -0.289444
4   -0.320013
5   -0.072979
6   0.187968
7   -0.555052
8   -0.240667
9   -0.372106
10   0.16455
11   0.17442
12   0.152648
13   0.155615
14   0.151861
15   0.154967
16   0.177169
17   0.157528
18   0.262082
19   0.263825
20   0.350621

$$$$
PCCDB-ID:  5666
     RDKit          3D

 36 37  0  0  1  0  0  0  0  0999 V2000
    0.9854   -0.5610   -2.4139 C   0  0  0  0  0  0  0  0  0  0  0  0
    2.2698   -1.3616   -2.2841 C   0  0  0  0  0  0  0  0  0  0  0  0
    6.2483   -2.6922   -1.6181 C   0  0  0  0  0  0  0  0  0  0  0  0
    7.1902   -1.7697   -1.1859 C   0  0  0  0  0  0  0  0  0  0  0  0
    4.9257   -2.2888   -1.8511 C   0  0  0  0  0  0  0  0  0  0  0  0
    6.8210   -0.4324   -0.9839 C   0  0  0  0  0  0  0  0  0  0  0  0
    5.4154    4.7554    2.1198 C   0  0  0  0  0  0  0  0  0  0  0  0
    6.5282    4.7799    1.0765 C   0  0  0  0  0  0  0  0  0  0  0  0
    4.0415    3.4937    0.6089 C   0  0  0  0  0  0  0  0  0  0  0  0
    5.9478    2.2427   -0.5506 C   0  0  0  0  0  0  0  0  0  0  0  0
    5.1441    3.5452   -0.4546 C   0  0  2  0  0  0  0  0  0  0  0  0
    4.5458   -0.9627   -1.6520 C   0  0  0  0  0  0  0  0  0  0  0  0
    5.5104   -0.0199   -1.2130 C   0  0  0  0  0  0  0  0  0  0  0  0
    4.6558    3.5185    1.9379 N   0  0  0  0  0  0  0  0  0  0  0  0
    3.2883   -0.4681   -1.8447 O   0  0  0  0  0  0  0  0  0  0  0  0
    6.0100    4.6650   -0.2489 O   0  0  0  0  0  0  0  0  0  0  0  0
    5.0538    1.2565   -1.0571 O   0  0  0  0  0  0  0  0  0  0  0  0
    0.1690   -1.2090   -2.7510 H   0  0  0  0  0  0  0  0  0  0  0  0
    1.1090    0.2498   -3.1384 H   0  0  0  0  0  0  0  0  0  0  0  0
    0.7064   -0.1222   -1.4507 H   0  0  0  0  0  0  0  0  0  0  0  0
    2.5525   -1.8072   -3.2492 H   0  0  0  0  0  0  0  0  0  0  0  0
    2.1500   -2.1803   -1.5593 H   0  0  0  0  0  0  0  0  0  0  0  0
    6.5246   -3.7303   -1.7789 H   0  0  0  0  0  0  0  0  0  0  0  0
    8.2168   -2.0729   -1.0016 H   0  0  0  0  0  0  0  0  0  0  0  0
    4.1975   -3.0180   -2.1871 H   0  0  0  0  0  0  0  0  0  0  0  0
    7.5631    0.2834   -0.6490 H   0  0  0  0  0  0  0  0  0  0  0  0
    4.7934    5.6636    2.0007 H   0  0  0  0  0  0  0  0  0  0  0  0
    5.8534    4.7726    3.1249 H   0  0  0  0  0  0  0  0  0  0  0  0
    7.2445    3.9723    1.2893 H   0  0  0  0  0  0  0  0  0  0  0  0
    7.0668    5.7323    1.0993 H   0  0  0  0  0  0  0  0  0  0  0  0
    3.4683    2.5697    0.4847 H   0  0  0  0  0  0  0  0  0  0  0  0
    3.3614    4.3497    0.4396 H   0  0  0  0  0  0  0  0  0  0  0  0
    6.3294    1.9371    0.4307 H   0  0  0  0  0  0  0  0  0  0  0  0
    6.7927    2.3925   -1.2363 H   0  0  0  0  0  0  0  0  0  0  0  0
    4.6853    3.7191   -1.4335 H   0  0  0  0  0  0  0  0  0  0  0  0
    3.9399    3.4300    2.6548 H   0  0  0  0  0  0  0  0  0  0  0  0
  1  2  1  0
  1 20  1  0
  2 15  1  0
  2 22  1  0
  3  4  2  0
  4 24  1  0
  4  6  1  0
  5 12  2  0
  5  3  1  0
  6 26  1  0
  7 28  1  0
  8 30  1  0
  8 29  1  0
  8  7  1  0
  9 14  1  0
 10 11  1  0
 10 33  1  0
 11 35  1  6
 11 16  1  0
 11  9  1  0
 12 13  1  0
 13 17  1  0
 13  6  2  0
 14  7  1  0
 14 36  1  0
 15 12  1  0
 16  8  1  0
 17 10  1  0
 18  1  1  0
 19  1  1  0
 21  2  1  0
 23  3  1  0
 25  5  1  0
 27  7  1  0
 31  9  1  0
 32  9  1  0
 34 10  1  0
M  END
>  <HBA>  (829) 
4

>  <HBD>  (829) 
1

>  <TPSA>  (829) 
39.72

>  <cid>  (829) 
5666

>  <dipole>  (829) 
1.85

>  <excitation_energy_1>  (829) 
4.949

>  <excitation_energy_2>  (829) 
5.087

>  <excitation_energy_3>  (829) 
5.193

>  <excitation_energy_4>  (829) 
5.337

>  <homo_energy>  (829) 
-5.333

>  <homo_lumo_gap>  (829) 
5.807

>  <logP>  (829) 
1.781

>  <lumo_energy>  (829) 
0.473

>  <melting_point>  (829) 
52.02

>  <molecular_refractivity>  (829) 
69.15

>  <oscillator_strength_1>  (829) 
0.0574

>  <oscillator_strength_2>  (829) 
0.0012

>  <oscillator_strength_3>  (829) 
0.0009

>  <oscillator_strength_4>  (829) 
0.0013

>  <open_babel_can_smiles>  (829) 
CCOc1ccccc1OC[C@H]1CNCCO1

>  <mulliken_charges>  (829) 
36
1   -0.455547
2   -0.02679
3   -0.139763
4   -0.14065
5   -0.204544
6   -0.200609
7   -0.145185
8   -0.02495
9   -0.15676
10   -0.049003
11   0.120772
12   0.334509
13   0.340239
14   -0.558881
15   -0.513186
16   -0.492382
17   -0.527505
18   0.145735
19   0.164147
20   0.161386
21   0.1391
22   0.138173
23   0.122246
24   0.122861
25   0.131087
26   0.135367
27   0.121062
28   0.138851
29   0.131381
30   0.144064
31   0.168861
32   0.120482
33   0.156902
34   0.146202
35   0.149824
36   0.302502

>  <lowdin_charges>  (829) 
36
1   -0.448622
2   -0.123355
3   -0.168515
4   -0.168156
5   -0.212226
6   -0.209703
7   -0.21905
8   -0.136381
9   -0.221678
10   -0.145575
11   -0.010138
12   0.079505
13   0.081596
14   -0.369069
15   -0.19585
16   -0.275255
17   -0.193561
18   0.156536
19   0.160822
20   0.15883
21   0.13683
22   0.137153
23   0.154239
24   0.154754
25   0.162944
26   0.164792
27   0.122498
28   0.148813
29   0.132653
30   0.15058
31   0.163233
32   0.124854
33   0.147564
34   0.144969
35   0.154749
36   0.259219

$$$$
PCCDB-ID:  5734
     RDKit          3D

 22 23  0  0  0  0  0  0  0  0999 V2000
   -2.5992    0.2612   -0.2231 C   0  0  0  0  0  0  0  0  0  0  0  0
   -2.3740    1.6459   -0.0638 C   0  0  0  0  0  0  0  0  0  0  0  0
   -1.5463   -0.6429   -0.2658 C   0  0  0  0  0  0  0  0  0  0  0  0
   -1.0921    2.1716    0.0554 C   0  0  0  0  0  0  0  0  0  0  0  0
    1.5990   -2.0526   -0.1843 C   0  0  0  0  0  0  0  0  0  0  0  0
   -0.2445   -0.1296   -0.1394 C   0  0  0  0  0  0  0  0  0  0  0  0
    1.0988   -0.6462   -0.1175 C   0  0  0  0  0  0  0  0  0  0  0  0
   -0.0480    1.2481    0.0126 C   0  0  0  0  0  0  0  0  0  0  0  0
    2.0964   -4.3139   -1.5923 N   0  0  0  0  0  0  0  0  0  0  0  0
    1.9830    0.3103    0.0262 N   0  0  0  0  0  0  0  0  0  0  0  0
   -0.2017   -3.2374   -1.7685 O   0  0  0  0  0  0  0  0  0  0  0  0
    1.8168   -2.0871   -2.8532 O   0  0  0  0  0  0  0  0  0  0  0  0
    1.2792    1.5186    0.1121 O   0  0  0  0  0  0  0  0  0  0  0  0
    1.2198   -2.8712   -1.7720 S   0  0  0  0  0  0  0  0  0  0  0  0
   -3.6186   -0.0999   -0.3209 H   0  0  0  0  0  0  0  0  0  0  0  0
   -3.2256    2.3198   -0.0376 H   0  0  0  0  0  0  0  0  0  0  0  0
   -1.7146   -1.7033   -0.4163 H   0  0  0  0  0  0  0  0  0  0  0  0
   -0.9067    3.2334    0.1739 H   0  0  0  0  0  0  0  0  0  0  0  0
    1.1521   -2.6895    0.5848 H   0  0  0  0  0  0  0  0  0  0  0  0
    2.6858   -2.0629   -0.0785 H   0  0  0  0  0  0  0  0  0  0  0  0
    1.4674   -5.1028   -1.7291 H   0  0  0  0  0  0  0  0  0  0  0  0
    2.8613   -4.3368   -2.2643 H   0  0  0  0  0  0  0  0  0  0  0  0
  1  2  2  0
  2 16  1  0
  2  4  1  0
  3  1  1  0
  3  6  2  0
  4 18  1  0
  5  7  1  0
  5 20  1  0
  5 19  1  0
  6  7  1  0
  6  8  1  0
  7 10  2  0
  8  4  2  0
  8 13  1  0
 10 13  1  0
 12 14  2  0
 14 11  2  0
 14  9  1  0
 14  5  1  0
 15  1  1  0
 17  3  1  0
 21  9  1  0
 22  9  1  0
M  END
>  <HBA>  (830) 
5

>  <HBD>  (830) 
1

>  <TPSA>  (830) 
94.57

>  <cid>  (830) 
5734

>  <dipole>  (830) 
3.13

>  <excitation_energy_1>  (830) 
4.728

>  <excitation_energy_2>  (830) 
5.191

>  <excitation_energy_3>  (830) 
5.987

>  <excitation_energy_4>  (830) 
6.037

>  <homo_energy>  (830) 
-6.724

>  <homo_lumo_gap>  (830) 
5.38

>  <logP>  (830) 
2.397

>  <lumo_energy>  (830) 
-1.344

>  <melting_point>  (830) 
151.11

>  <molecular_refractivity>  (830) 
50.65

>  <oscillator_strength_1>  (830) 
0.0765

>  <oscillator_strength_2>  (830) 
0.1051

>  <oscillator_strength_3>  (830) 
0.011

>  <oscillator_strength_4>  (830) 
0.0045

>  <open_babel_can_smiles>  (830) 
NS(=O)(=O)Cc1noc2c1cccc2

>  <mulliken_charges>  (830) 
22
1   -0.142947
2   -0.136942
3   -0.18058
4   -0.159659
5   -0.542589
6   0.037662
7   0.282882
8   0.367832
9   -0.830521
10   -0.195632
11   -0.536061
12   -0.503144
13   -0.418457
14   1.172628
15   0.140604
16   0.143107
17   0.175759
18   0.155891
19   0.218298
20   0.229432
21   0.361769
22   0.360667

>  <lowdin_charges>  (830) 
22
1   -0.163024
2   -0.138069
3   -0.13697
4   -0.172195
5   -0.414223
6   -0.058787
7   0.00853
8   0.093172
9   -0.699074
10   -0.050439
11   -0.598729
12   -0.57969
13   -0.080599
14   1.301148
15   0.163375
16   0.165943
17   0.178754
18   0.173904
19   0.197764
20   0.202622
21   0.303899
22   0.302689

$$$$
PCCDB-ID:  5752
     RDKit          3D

 30 30  0  0  1  0  0  0  0  0999 V2000
    2.6385   -0.3147    1.8760 C   0  0  0  0  0  0  0  0  0  0  0  0
    2.2301   -0.2557    0.4019 C   0  0  0  0  0  0  0  0  0  0  0  0
    1.3822    4.7428    1.2892 C   0  0  0  0  0  0  0  0  0  0  0  0
    0.4708    3.7672    0.8817 C   0  0  0  0  0  0  0  0  0  0  0  0
    2.7500    4.4941    1.1735 C   0  0  0  0  0  0  0  0  0  0  0  0
    0.9265    2.5541    0.3655 C   0  0  0  0  0  0  0  0  0  0  0  0
    3.2069    3.2816    0.6532 C   0  0  0  0  0  0  0  0  0  0  0  0
    2.3840    0.9575   -1.8385 C   0  0  0  0  0  0  0  0  0  0  0  0
    2.3004    2.2952    0.2465 C   0  0  0  0  0  0  0  0  0  0  0  0
    2.2488   -1.1292   -3.0157 C   0  0  0  0  0  0  0  0  0  0  0  0
    2.7904    0.9768   -0.3506 C   0  0  1  0  0  0  0  0  0  0  0  0
    0.9774   -1.1031   -3.0051 N   0  0  0  0  0  0  0  0  0  0  0  0
    3.0921   -2.0624   -3.5313 O   0  0  0  0  0  0  0  0  0  0  0  0
    4.2195    0.9670   -0.2836 O   0  0  0  0  0  0  0  0  0  0  0  0
    3.0220   -0.1703   -2.4848 O   0  0  0  0  0  0  0  0  0  0  0  0
    2.2782   -1.2403    2.3387 H   0  0  0  0  0  0  0  0  0  0  0  0
    2.2239    0.5279    2.4392 H   0  0  0  0  0  0  0  0  0  0  0  0
    3.7275   -0.2812    1.9753 H   0  0  0  0  0  0  0  0  0  0  0  0
    1.1378   -0.2758    0.3061 H   0  0  0  0  0  0  0  0  0  0  0  0
    2.5964   -1.1522   -0.1152 H   0  0  0  0  0  0  0  0  0  0  0  0
    1.0282    5.6874    1.6936 H   0  0  0  0  0  0  0  0  0  0  0  0
   -0.5977    3.9478    0.9662 H   0  0  0  0  0  0  0  0  0  0  0  0
    3.4686    5.2463    1.4888 H   0  0  0  0  0  0  0  0  0  0  0  0
    0.2014    1.8057    0.0564 H   0  0  0  0  0  0  0  0  0  0  0  0
    4.2687    3.0881    0.5603 H   0  0  0  0  0  0  0  0  0  0  0  0
    2.7804    1.8477   -2.3330 H   0  0  0  0  0  0  0  0  0  0  0  0
    1.3054    0.8942   -1.9792 H   0  0  0  0  0  0  0  0  0  0  0  0
    0.5624   -1.9123   -3.4640 H   0  0  0  0  0  0  0  0  0  0  0  0
    2.5609   -2.7710   -3.9259 H   0  0  0  0  0  0  0  0  0  0  0  0
    4.5083    0.2415   -0.8620 H   0  0  0  0  0  0  0  0  0  0  0  0
  1 18  1  0
  1 16  1  0
  1 17  1  0
  2  1  1  0
  3 21  1  0
  4 22  1  0
  4  3  2  0
  5  3  1  0
  5 23  1  0
  6  4  1  0
  7  5  2  0
  8 11  1  0
  9  6  2  0
  9  7  1  0
 10 12  2  0
 10 15  1  0
 11 14  1  6
 11  9  1  0
 11  2  1  0
 13 10  1  0
 15  8  1  0
 19  2  1  0
 20  2  1  0
 24  6  1  0
 25  7  1  0
 26  8  1  0
 27  8  1  0
 28 12  1  0
 29 13  1  0
 30 14  1  0
M  END
>  <HBA>  (831) 
4

>  <HBD>  (831) 
2

>  <TPSA>  (831) 
72.55

>  <cid>  (831) 
5752

>  <dipole>  (831) 
2.93

>  <excitation_energy_1>  (831) 
5.313

>  <excitation_energy_2>  (831) 
5.567

>  <excitation_energy_3>  (831) 
5.803

>  <excitation_energy_4>  (831) 
5.91

>  <homo_energy>  (831) 
-6.457

>  <homo_lumo_gap>  (831) 
6.506

>  <logP>  (831) 
2.08

>  <lumo_energy>  (831) 
0.049

>  <melting_point>  (831) 
107.08

>  <molecular_refractivity>  (831) 
56.06

>  <oscillator_strength_1>  (831) 
0.0

>  <oscillator_strength_2>  (831) 
0.026

>  <oscillator_strength_3>  (831) 
0.0013

>  <oscillator_strength_4>  (831) 
0.0361

>  <open_babel_can_smiles>  (831) 
CC[C@](c1ccccc1)(COC(=N)O)O

>  <mulliken_charges>  (831) 
30
1   -0.447211
2   -0.268626
3   -0.125626
4   -0.136368
5   -0.13175
6   -0.185792
7   -0.170004
8   -0.063021
9   0.107448
10   0.655959
11   0.241721
12   -0.625183
13   -0.569508
14   -0.664884
15   -0.475218
16   0.136849
17   0.154748
18   0.158773
19   0.140228
20   0.131716
21   0.127238
22   0.128353
23   0.128697
24   0.133094
25   0.159462
26   0.164062
27   0.195408
28   0.281174
29   0.410702
30   0.407556

>  <lowdin_charges>  (831) 
30
1   -0.447215
2   -0.283835
3   -0.158562
4   -0.154829
5   -0.15664
6   -0.171051
7   -0.157239
8   -0.143099
9   -0.010012
10   0.186682
11   0.111385
12   -0.46738
13   -0.362618
14   -0.45598
15   -0.188788
16   0.148434
17   0.154791
18   0.15421
19   0.146072
20   0.1439
21   0.156598
22   0.155231
23   0.158212
24   0.158413
25   0.172392
26   0.162205
27   0.174095
28   0.260867
29   0.364266
30   0.349497

$$$$
PCCDB-ID:  5766
     RDKit          3D

 17 18  0  0  0  0  0  0  0  0999 V2000
   -2.5136    0.6516   -0.0020 C   0  0  0  0  0  0  0  0  0  0  0  0
   -2.4862   -0.6928   -0.0012 C   0  0  0  0  0  0  0  0  0  0  0  0
    1.2385    1.4125   -0.0039 C   0  0  0  0  0  0  0  0  0  0  0  0
    2.4192    0.6692   -0.0008 C   0  0  0  0  0  0  0  0  0  0  0  0
    1.2930   -1.3226    0.0004 C   0  0  0  0  0  0  0  0  0  0  0  0
    0.0258    0.7249   -0.0039 C   0  0  0  0  0  0  0  0  0  0  0  0
    0.0487   -0.6791   -0.0024 C   0  0  0  0  0  0  0  0  0  0  0  0
   -1.2749    1.4670   -0.0060 C   0  0  0  0  0  0  0  0  0  0  0  0
   -1.2158   -1.4648   -0.0028 C   0  0  0  0  0  0  0  0  0  0  0  0
    2.4599   -0.6723    0.0014 N   0  0  0  0  0  0  0  0  0  0  0  0
   -1.3200    2.6897   -0.0110 O   0  0  0  0  0  0  0  0  0  0  0  0
   -1.2286   -2.6894   -0.0044 O   0  0  0  0  0  0  0  0  0  0  0  0
   -3.4435    1.2137   -0.0011 H   0  0  0  0  0  0  0  0  0  0  0  0
   -3.3933   -1.2911   -0.0001 H   0  0  0  0  0  0  0  0  0  0  0  0
    1.2449    2.4973   -0.0065 H   0  0  0  0  0  0  0  0  0  0  0  0
    3.3838    1.1731    0.0001 H   0  0  0  0  0  0  0  0  0  0  0  0
    1.3298   -2.4090    0.0020 H   0  0  0  0  0  0  0  0  0  0  0  0
  1  2  2  0
  1 13  1  0
  2 14  1  0
  3  6  2  0
  3  4  1  0
  4 16  1  0
  4 10  2  0
  5 10  1  0
  5 17  1  0
  6  7  1  0
  7  5  2  0
  8  6  1  0
  8  1  1  0
  9  7  1  0
  9  2  1  0
 11  8  2  0
 12  9  2  0
 15  3  1  0
M  END
>  <HBA>  (832) 
3

>  <HBD>  (832) 
0

>  <TPSA>  (832) 
47.03

>  <cid>  (832) 
5766

>  <dipole>  (832) 
1.51

>  <excitation_energy_1>  (832) 
2.544

>  <excitation_energy_2>  (832) 
2.906

>  <excitation_energy_3>  (832) 
3.343

>  <excitation_energy_4>  (832) 
3.564

>  <homo_energy>  (832) 
-7.206

>  <homo_lumo_gap>  (832) 
3.676

>  <logP>  (832) 
1.017

>  <lumo_energy>  (832) 
-3.529

>  <melting_point>  (832) 
121.98

>  <molecular_refractivity>  (832) 
42.04

>  <oscillator_strength_1>  (832) 
0.0001

>  <oscillator_strength_2>  (832) 
0.0

>  <oscillator_strength_3>  (832) 
0.0002

>  <oscillator_strength_4>  (832) 
0.0446

>  <open_babel_can_smiles>  (832) 
O=C1C=CC(=O)c2c1cncc2

>  <mulliken_charges>  (832) 
17
1   -0.160301
2   -0.156706
3   -0.183635
4   0.051578
5   0.016236
6   0.067247
7   0.014157
8   0.406578
9   0.394307
10   -0.403185
11   -0.454248
12   -0.458115
13   0.173334
14   0.173902
15   0.175678
16   0.160471
17   0.182703

>  <lowdin_charges>  (832) 
17
1   -0.148616
2   -0.142493
3   -0.143589
4   -0.070412
5   -0.056246
6   -0.014923
7   -0.05808
8   0.148117
9   0.146935
10   -0.130351
11   -0.20973
12   -0.214068
13   0.183497
14   0.183958
15   0.183137
16   0.166643
17   0.176221

$$$$
PCCDB-ID:  5778
     RDKit          3D

 17 18  0  0  0  0  0  0  0  0999 V2000
    4.1425    0.5447   -1.0033 C   0  0  0  0  0  0  0  0  0  0  0  0
    3.4675    4.0031    1.5124 C   0  0  0  0  0  0  0  0  0  0  0  0
    3.7784    0.5595    4.1570 C   0  0  0  0  0  0  0  0  0  0  0  0
    3.7468    1.9159    1.8477 C   0  0  0  0  0  0  0  0  0  0  0  0
    3.5678    2.4955    3.1239 C   0  0  0  0  0  0  0  0  0  0  0  0
    3.9493    0.5226    1.8493 C   0  0  0  0  0  0  0  0  0  0  0  0
    3.6785    2.8890    0.8594 N   0  0  0  0  0  0  0  0  0  0  0  0
    3.3896    3.8377    2.8784 N   0  0  0  0  0  0  0  0  0  0  0  0
    3.5743    1.8741    4.3014 N   0  0  0  0  0  0  0  0  0  0  0  0
    3.9606   -0.1288    3.0226 N   0  0  0  0  0  0  0  0  0  0  0  0
    4.2052   -0.5433    0.4666 S   0  0  0  0  0  0  0  0  0  0  0  0
    4.2937   -0.1291   -1.8512 H   0  0  0  0  0  0  0  0  0  0  0  0
    4.9332    1.2947   -0.9826 H   0  0  0  0  0  0  0  0  0  0  0  0
    3.1763    1.0409   -1.0949 H   0  0  0  0  0  0  0  0  0  0  0  0
    3.3580    4.9782    1.0553 H   0  0  0  0  0  0  0  0  0  0  0  0
    3.7999   -0.0269    5.0725 H   0  0  0  0  0  0  0  0  0  0  0  0
    3.2340    4.5486    3.5792 H   0  0  0  0  0  0  0  0  0  0  0  0
  1 13  1  0
  1 11  1  0
  2  8  1  0
  3  9  2  0
  3 16  1  0
  4  6  1  0
  4  5  2  0
  5  9  1  0
  6 10  2  0
  7  2  2  0
  7  4  1  0
  8  5  1  0
  8 17  1  0
 10  3  1  0
 11  6  1  0
 12  1  1  0
 14  1  1  0
 15  2  1  0
M  END
>  <HBA>  (833) 
4

>  <HBD>  (833) 
1

>  <TPSA>  (833) 
79.76

>  <cid>  (833) 
5778

>  <dipole>  (833) 
4.5

>  <excitation_energy_1>  (833) 
4.456

>  <excitation_energy_2>  (833) 
4.478

>  <excitation_energy_3>  (833) 
4.918

>  <excitation_energy_4>  (833) 
5.288

>  <homo_energy>  (833) 
-6.068

>  <homo_lumo_gap>  (833) 
4.92

>  <logP>  (833) 
1.075

>  <lumo_energy>  (833) 
-1.148

>  <melting_point>  (833) 
155.26

>  <molecular_refractivity>  (833) 
43.4

>  <oscillator_strength_1>  (833) 
0.2775

>  <oscillator_strength_2>  (833) 
0.0019

>  <oscillator_strength_3>  (833) 
0.0107

>  <oscillator_strength_4>  (833) 
0.0037

>  <open_babel_can_smiles>  (833) 
CSc1ncnc2c1nc[nH]2

>  <mulliken_charges>  (833) 
17
1   -0.593988
2   0.237533
3   0.160898
4   0.227479
5   0.521608
6   0.077891
7   -0.507088
8   -0.643458
9   -0.482785
10   -0.443534
11   0.181108
12   0.181061
13   0.203826
14   0.203656
15   0.173126
16   0.154967
17   0.347699

>  <lowdin_charges>  (833) 
17
1   -0.548327
2   -0.048926
3   -0.03558
4   -0.040504
5   0.069825
6   -0.04546
7   -0.184206
8   -0.194302
9   -0.185299
10   -0.181804
11   0.214654
12   0.176308
13   0.17906
14   0.178284
15   0.174921
16   0.163947
17   0.307408

$$$$
PCCDB-ID:  5788
     RDKit          3D

 19 19  0  0  0  0  0  0  0  0999 V2000
    0.9823   -0.1367    0.0428 C   0  0  0  0  0  0  0  0  0  0  0  0
    3.1244    1.1086   -0.5024 C   0  0  0  0  0  0  0  0  0  0  0  0
    4.5077    1.1549   -0.6195 C   0  0  0  0  0  0  0  0  0  0  0  0
    3.2793   -1.1612    0.2717 C   0  0  0  0  0  0  0  0  0  0  0  0
    2.4864   -0.0575   -0.0565 C   0  0  0  0  0  0  0  0  0  0  0  0
    5.3161    0.0551   -0.2988 C   0  0  0  0  0  0  0  0  0  0  0  0
    4.6680   -1.1093    0.1522 C   0  0  0  0  0  0  0  0  0  0  0  0
    6.8027    0.2342   -0.4613 C   0  0  0  0  0  0  0  0  0  0  0  0
    5.4403   -2.2032    0.4771 O   0  0  0  0  0  0  0  0  0  0  0  0
    7.2785    1.2767   -0.8551 O   0  0  0  0  0  0  0  0  0  0  0  0
    7.6072   -0.8050   -0.1554 O   0  0  0  0  0  0  0  0  0  0  0  0
    0.5412    0.8534    0.1934 H   0  0  0  0  0  0  0  0  0  0  0  0
    0.6650   -0.7808    0.8699 H   0  0  0  0  0  0  0  0  0  0  0  0
    0.5497   -0.5507   -0.8776 H   0  0  0  0  0  0  0  0  0  0  0  0
    2.5311    1.9823   -0.7573 H   0  0  0  0  0  0  0  0  0  0  0  0
    5.0117    2.0526   -0.9612 H   0  0  0  0  0  0  0  0  0  0  0  0
    2.8101   -2.0785    0.6261 H   0  0  0  0  0  0  0  0  0  0  0  0
    4.8798   -2.9323    0.7843 H   0  0  0  0  0  0  0  0  0  0  0  0
    7.0800   -1.5699    0.1452 H   0  0  0  0  0  0  0  0  0  0  0  0
  1 12  1  0
  1 13  1  0
  2  5  2  0
  3  2  1  0
  3  6  2  0
  4 17  1  0
  5  1  1  0
  5  4  1  0
  6  7  1  0
  7  4  2  0
  7  9  1  0
  8  6  1  0
  8 11  1  0
  9 18  1  0
 10  8  2  0
 11 19  1  0
 14  1  1  0
 15  2  1  0
 16  3  1  0
M  END
>  <HBA>  (834) 
3

>  <HBD>  (834) 
2

>  <TPSA>  (834) 
57.53

>  <cid>  (834) 
5788

>  <dipole>  (834) 
6.96

>  <excitation_energy_1>  (834) 
4.699

>  <excitation_energy_2>  (834) 
4.716

>  <excitation_energy_3>  (834) 
5.364

>  <excitation_energy_4>  (834) 
5.409

>  <homo_energy>  (834) 
-6.67

>  <homo_lumo_gap>  (834) 
5.489

>  <logP>  (834) 
1.399

>  <lumo_energy>  (834) 
-1.181

>  <melting_point>  (834) 
140.46

>  <molecular_refractivity>  (834) 
40.39

>  <oscillator_strength_1>  (834) 
0.0002

>  <oscillator_strength_2>  (834) 
0.0631

>  <oscillator_strength_3>  (834) 
0.1776

>  <oscillator_strength_4>  (834) 
0.0

>  <open_babel_can_smiles>  (834) 
Cc1ccc(c(c1)O)C(=O)O

>  <mulliken_charges>  (834) 
19
1   -0.533411
2   -0.181581
3   -0.173741
4   -0.241393
5   0.180788
6   0.015288
7   0.31484
8   0.573077
9   -0.688046
10   -0.463406
11   -0.600934
12   0.167242
13   0.161261
14   0.175247
15   0.133043
16   0.176301
17   0.118434
18   0.426699
19   0.440292

>  <lowdin_charges>  (834) 
19
1   -0.44241
2   -0.183092
3   -0.112879
4   -0.219766
5   0.028457
6   -0.092049
7   0.107709
8   0.195092
9   -0.38696
10   -0.259298
11   -0.362169
12   0.163784
13   0.161502
14   0.168539
15   0.162115
16   0.185244
17   0.154514
18   0.371
19   0.360666

$$$$
PCCDB-ID:  5798
     RDKit          3D

 15 16  0  0  0  0  0  0  0  0999 V2000
    2.1053   -0.6899   -0.0116 C   0  0  0  0  0  0  0  0  0  0  0  0
    2.1167    0.7199    0.0066 C   0  0  0  0  0  0  0  0  0  0  0  0
    0.9123   -1.4047   -0.0132 C   0  0  0  0  0  0  0  0  0  0  0  0
    0.9362    1.4580    0.0232 C   0  0  0  0  0  0  0  0  0  0  0  0
   -2.3293   -0.0564    0.0269 C   0  0  0  0  0  0  0  0  0  0  0  0
   -0.2884   -0.6837    0.0043 C   0  0  0  0  0  0  0  0  0  0  0  0
   -0.2570    0.7325    0.0217 C   0  0  0  0  0  0  0  0  0  0  0  0
   -1.6016   -1.1420    0.0072 N   0  0  0  0  0  0  0  0  0  0  0  0
   -1.5906    1.1061    0.0363 N   0  0  0  0  0  0  0  0  0  0  0  0
    3.0508   -1.2248   -0.0255 H   0  0  0  0  0  0  0  0  0  0  0  0
    3.0687    1.2435    0.0078 H   0  0  0  0  0  0  0  0  0  0  0  0
    0.8965   -2.4901   -0.0272 H   0  0  0  0  0  0  0  0  0  0  0  0
    0.9497    2.5443    0.0387 H   0  0  0  0  0  0  0  0  0  0  0  0
   -3.4120   -0.0317    0.0348 H   0  0  0  0  0  0  0  0  0  0  0  0
   -1.9553    2.0468    0.0506 H   0  0  0  0  0  0  0  0  0  0  0  0
  1  2  2  0
  2 11  1  0
  2  4  1  0
  3  1  1  0
  3  6  2  0
  4 13  1  0
  5 14  1  0
  5  9  1  0
  6  8  1  0
  6  7  1  0
  7  4  2  0
  7  9  1  0
  8  5  2  0
  9 15  1  0
 10  1  1  0
 12  3  1  0
M  END
>  <HBA>  (835) 
1

>  <HBD>  (835) 
1

>  <TPSA>  (835) 
28.68

>  <cid>  (835) 
5798

>  <dipole>  (835) 
3.44

>  <excitation_energy_1>  (835) 
4.986

>  <excitation_energy_2>  (835) 
5.203

>  <excitation_energy_3>  (835) 
5.425

>  <excitation_energy_4>  (835) 
5.501

>  <homo_energy>  (835) 
-6.068

>  <homo_lumo_gap>  (835) 
5.728

>  <logP>  (835) 
1.563

>  <lumo_energy>  (835) 
-0.34

>  <melting_point>  (835) 
110.43

>  <molecular_refractivity>  (835) 
36.09

>  <oscillator_strength_1>  (835) 
0.0532

>  <oscillator_strength_2>  (835) 
0.0987

>  <oscillator_strength_3>  (835) 
0.0011

>  <oscillator_strength_4>  (835) 
0.0017

>  <open_babel_can_smiles>  (835) 
c1ccc2c(c1)[nH]cn2

>  <mulliken_charges>  (835) 
15
1   -0.143603
2   -0.149526
3   -0.174015
4   -0.16801
5   0.227818
6   0.224018
7   0.339653
8   -0.490736
9   -0.677986
10   0.126087
11   0.126881
12   0.139995
13   0.126248
14   0.160395
15   0.332779

>  <lowdin_charges>  (835) 
15
1   -0.171194
2   -0.160691
3   -0.152244
4   -0.183508
5   -0.058121
6   0.008193
7   0.016186
8   -0.1901
9   -0.205002
10   0.157582
11   0.157599
12   0.164872
13   0.155457
14   0.166094
15   0.294875

$$$$
PCCDB-ID:  5801
     RDKit          3D

 15 15  0  0  0  0  0  0  0  0999 V2000
   -1.3746   -0.0761    0.0148 C   0  0  0  0  0  0  0  0  0  0  0  0
   -0.6218   -1.2477   -0.0144 C   0  0  0  0  0  0  0  0  0  0  0  0
   -0.7392    1.1681    0.0198 C   0  0  0  0  0  0  0  0  0  0  0  0
    0.7747   -1.1656   -0.0402 C   0  0  0  0  0  0  0  0  0  0  0  0
    0.6564    1.2682   -0.0023 C   0  0  0  0  0  0  0  0  0  0  0  0
    1.4060    0.0734   -0.0354 C   0  0  0  0  0  0  0  0  0  0  0  0
    1.3255    2.4936    0.0621 N   0  0  0  0  0  0  0  0  0  0  0  0
    2.7754    0.2291   -0.0736 O   0  0  0  0  0  0  0  0  0  0  0  0
   -2.4599   -0.1221    0.0331 H   0  0  0  0  0  0  0  0  0  0  0  0
   -1.1059   -2.2196   -0.0187 H   0  0  0  0  0  0  0  0  0  0  0  0
   -1.3290    2.0818    0.0504 H   0  0  0  0  0  0  0  0  0  0  0  0
    1.3787   -2.0715   -0.0694 H   0  0  0  0  0  0  0  0  0  0  0  0
    0.8141    3.2720   -0.3349 H   0  0  0  0  0  0  0  0  0  0  0  0
    2.2794    2.4534   -0.2756 H   0  0  0  0  0  0  0  0  0  0  0  0
    3.1888   -0.6464   -0.1131 H   0  0  0  0  0  0  0  0  0  0  0  0
  1  3  2  0
  1  9  1  0
  2  1  1  0
  3 11  1  0
  4  6  1  0
  4  2  2  0
  5  3  1  0
  5  7  1  0
  6  5  2  0
  8  6  1  0
 10  2  1  0
 12  4  1  0
 13  7  1  0
 14  7  1  0
 15  8  1  0
M  END
>  <HBA>  (836) 
2

>  <HBD>  (836) 
2

>  <TPSA>  (836) 
46.25

>  <cid>  (836) 
5801

>  <dipole>  (836) 
1.47

>  <excitation_energy_1>  (836) 
4.5

>  <excitation_energy_2>  (836) 
4.674

>  <excitation_energy_3>  (836) 
4.961

>  <excitation_energy_4>  (836) 
5.175

>  <homo_energy>  (836) 
-5.11

>  <homo_lumo_gap>  (836) 
5.527

>  <logP>  (836) 
1.556

>  <lumo_energy>  (836) 
0.416

>  <melting_point>  (836) 
93.45

>  <molecular_refractivity>  (836) 
32.87

>  <oscillator_strength_1>  (836) 
0.0065

>  <oscillator_strength_2>  (836) 
0.059

>  <oscillator_strength_3>  (836) 
0.0037

>  <oscillator_strength_4>  (836) 
0.0013

>  <open_babel_can_smiles>  (836) 
Nc1ccccc1O

>  <mulliken_charges>  (836) 
15
1   -0.13789
2   -0.144914
3   -0.185021
4   -0.195031
5   0.279381
6   0.310422
7   -0.790542
8   -0.668241
9   0.121009
10   0.120988
11   0.115873
12   0.112145
13   0.315972
14   0.336665
15   0.409181

>  <lowdin_charges>  (836) 
15
1   -0.164838
2   -0.177589
3   -0.194734
4   -0.207702
5   0.033866
6   0.070609
7   -0.489192
8   -0.399373
9   0.153213
10   0.155216
11   0.153473
12   0.151259
13   0.275058
14   0.282087
15   0.358646

$$$$
PCCDB-ID:  5808
     RDKit          3D

 32 32  0  0  1  0  0  0  0  0999 V2000
    2.3893   -4.4192    2.7920 C   0  0  0  0  0  0  0  0  0  0  0  0
    4.6187   -5.5469    2.3719 C   0  0  0  0  0  0  0  0  0  0  0  0
    5.7670   -1.0621    0.2040 C   0  0  0  0  0  0  0  0  0  0  0  0
    5.6364   -0.8604   -1.1741 C   0  0  0  0  0  0  0  0  0  0  0  0
    3.9015    0.4123    0.5774 C   0  0  0  0  0  0  0  0  0  0  0  0
    4.1007   -1.8571    3.0414 C   0  0  0  0  0  0  0  0  0  0  0  0
    3.9147   -4.3326    2.9859 C   0  0  0  0  0  0  0  0  0  0  0  0
    4.8969   -0.4303    1.0936 C   0  0  0  0  0  0  0  0  0  0  0  0
    4.6484   -0.0224   -1.6851 C   0  0  0  0  0  0  0  0  0  0  0  0
    3.7716    0.6253   -0.7916 C   0  0  0  0  0  0  0  0  0  0  0  0
    4.9915   -0.6806    2.5845 C   0  0  1  0  0  0  0  0  0  0  0  0
    4.5347   -3.1136    2.4479 N   0  0  0  0  0  0  0  0  0  0  0  0
    4.4766    0.2220   -3.0196 O   0  0  0  0  0  0  0  0  0  0  0  0
    2.8228    1.4460   -1.3355 O   0  0  0  0  0  0  0  0  0  0  0  0
    4.5916    0.5156    3.2581 O   0  0  0  0  0  0  0  0  0  0  0  0
    1.8721   -3.5676    3.2471 H   0  0  0  0  0  0  0  0  0  0  0  0
    2.1353   -4.4361    1.7237 H   0  0  0  0  0  0  0  0  0  0  0  0
    1.9865   -5.3329    3.2454 H   0  0  0  0  0  0  0  0  0  0  0  0
    4.2424   -6.4814    2.8030 H   0  0  0  0  0  0  0  0  0  0  0  0
    5.6985   -5.4900    2.5400 H   0  0  0  0  0  0  0  0  0  0  0  0
    4.4453   -5.5894    1.2881 H   0  0  0  0  0  0  0  0  0  0  0  0
    6.5504   -1.7134    0.5806 H   0  0  0  0  0  0  0  0  0  0  0  0
    6.3216   -1.3528   -1.8625 H   0  0  0  0  0  0  0  0  0  0  0  0
    3.2350    0.9263    1.2657 H   0  0  0  0  0  0  0  0  0  0  0  0
    4.1998   -1.9555    4.1336 H   0  0  0  0  0  0  0  0  0  0  0  0
    3.0501   -1.5821    2.8392 H   0  0  0  0  0  0  0  0  0  0  0  0
    4.1212   -4.3286    4.0664 H   0  0  0  0  0  0  0  0  0  0  0  0
    6.0325   -0.9363    2.8326 H   0  0  0  0  0  0  0  0  0  0  0  0
    4.3879   -3.0753    1.4394 H   0  0  0  0  0  0  0  0  0  0  0  0
    5.1522   -0.2720   -3.5092 H   0  0  0  0  0  0  0  0  0  0  0  0
    2.3133    1.8400   -0.6104 H   0  0  0  0  0  0  0  0  0  0  0  0
    4.6149    0.3326    4.2103 H   0  0  0  0  0  0  0  0  0  0  0  0
  1  7  1  0
  1 18  1  0
  1 16  1  0
  2 20  1  0
  2 19  1  0
  2  7  1  0
  3 22  1  0
  3  8  2  0
  4  3  1  0
  5  8  1  0
  5 24  1  0
  6 25  1  0
  7 27  1  0
  8 11  1  0
  9  4  2  0
  9 10  1  0
 10  5  2  0
 11 28  1  6
 11  6  1  0
 11 15  1  0
 12  7  1  0
 12  6  1  0
 13  9  1  0
 14 10  1  0
 14 31  1  0
 15 32  1  0
 17  1  1  0
 21  2  1  0
 23  4  1  0
 26  6  1  0
 29 12  1  0
 30 13  1  0
M  END
>  <HBA>  (837) 
4

>  <HBD>  (837) 
4

>  <TPSA>  (837) 
72.72

>  <cid>  (837) 
5808

>  <dipole>  (837) 
2.32

>  <excitation_energy_1>  (837) 
4.799

>  <excitation_energy_2>  (837) 
4.845

>  <excitation_energy_3>  (837) 
5.075

>  <excitation_energy_4>  (837) 
5.19

>  <homo_energy>  (837) 
-5.459

>  <homo_lumo_gap>  (837) 
5.69

>  <logP>  (837) 
1.52

>  <lumo_energy>  (837) 
0.231

>  <melting_point>  (837) 
132.24

>  <molecular_refractivity>  (837) 
58.65

>  <oscillator_strength_1>  (837) 
0.0242

>  <oscillator_strength_2>  (837) 
0.0377

>  <oscillator_strength_3>  (837) 
0.001

>  <oscillator_strength_4>  (837) 
0.0032

>  <open_babel_can_smiles>  (837) 
CC(NC[C@@H](c1ccc(c(c1)O)O)O)C

>  <mulliken_charges>  (837) 
32
1   -0.44867
2   -0.442962
3   -0.201331
4   -0.201561
5   -0.248685
6   -0.136511
7   0.052369
8   0.122525
9   0.319897
10   0.32732
11   0.076032
12   -0.561908
13   -0.63291
14   -0.635516
15   -0.63565
16   0.146163
17   0.137802
18   0.140745
19   0.140326
20   0.154995
21   0.135509
22   0.134062
23   0.117455
24   0.13837
25   0.118224
26   0.126577
27   0.125882
28   0.128372
29   0.297877
30   0.406064
31   0.407833
32   0.391304

>  <lowdin_charges>  (837) 
32
1   -0.463173
2   -0.44372
3   -0.182865
4   -0.210884
5   -0.207924
6   -0.214937
7   -0.053811
8   -0.02388
9   0.076336
10   0.079183
11   -0.00046
12   -0.363063
13   -0.373213
14   -0.371623
15   -0.457803
16   0.150634
17   0.144439
18   0.150997
19   0.149948
20   0.154583
21   0.142766
22   0.162043
23   0.154713
24   0.166136
25   0.13132
26   0.12298
27   0.132938
28   0.135663
29   0.252823
30   0.358926
31   0.359519
32   0.341406

$$$$
PCCDB-ID:  5810
     RDKit          3D

 18 18  0  0  1  0  0  0  0  0999 V2000
   -0.2901   -1.4071    0.3658 C   0  0  0  0  0  0  0  0  0  0  0  0
    1.1478    0.4804    0.0512 C   0  0  0  0  0  0  0  0  0  0  0  0
    1.1105   -1.0356   -0.1579 C   0  0  2  0  0  0  0  0  0  0  0  0
   -1.1302   -0.1140    0.1482 C   0  0  1  0  0  0  0  0  0  0  0  0
   -1.8350    0.3477    1.4395 C   0  0  0  0  0  0  0  0  0  0  0  0
   -0.2044    0.9493   -0.3217 N   0  0  0  0  0  0  0  0  0  0  0  0
    1.2257   -1.2357   -1.5688 O   0  0  0  0  0  0  0  0  0  0  0  0
   -2.4456   -0.4066    2.1605 O   0  0  0  0  0  0  0  0  0  0  0  0
   -1.7211    1.6642    1.6687 O   0  0  0  0  0  0  0  0  0  0  0  0
   -0.2649   -1.6721    1.4271 H   0  0  0  0  0  0  0  0  0  0  0  0
   -1.9201   -0.2642   -0.5947 H   0  0  0  0  0  0  0  0  0  0  0  0
    1.9110    0.9726   -0.5558 H   0  0  0  0  0  0  0  0  0  0  0  0
    1.3312    0.7135    1.1071 H   0  0  0  0  0  0  0  0  0  0  0  0
    1.9147   -1.5581    0.3793 H   0  0  0  0  0  0  0  0  0  0  0  0
   -0.7052   -2.2662   -0.1705 H   0  0  0  0  0  0  0  0  0  0  0  0
   -0.2474    1.0004   -1.3372 H   0  0  0  0  0  0  0  0  0  0  0  0
    1.0921   -2.1790   -1.7490 H   0  0  0  0  0  0  0  0  0  0  0  0
   -1.1317    1.9918    0.9403 H   0  0  0  0  0  0  0  0  0  0  0  0
  1 10  1  0
  2 13  1  0
  3  2  1  0
  3  1  1  0
  3 14  1  1
  4 11  1  6
  4  1  1  0
  4  5  1  0
  5  9  1  0
  5  8  2  0
  6  2  1  0
  6  4  1  0
  7  3  1  0
 12  2  1  0
 15  1  1  0
 16  6  1  0
 17  7  1  0
 18  9  1  0
M  END
>  <HBA>  (838) 
4

>  <HBD>  (838) 
3

>  <TPSA>  (838) 
69.56

>  <cid>  (838) 
5810

>  <dipole>  (838) 
4.79

>  <excitation_energy_1>  (838) 
5.455

>  <excitation_energy_2>  (838) 
6.094

>  <excitation_energy_3>  (838) 
6.518

>  <excitation_energy_4>  (838) 
6.622

>  <homo_energy>  (838) 
-6.8

>  <homo_lumo_gap>  (838) 
7.214

>  <logP>  (838) 
-0.877

>  <lumo_energy>  (838) 
0.414

>  <melting_point>  (838) 
119.64

>  <molecular_refractivity>  (838) 
33.69

>  <oscillator_strength_1>  (838) 
0.002

>  <oscillator_strength_2>  (838) 
0.0065

>  <oscillator_strength_3>  (838) 
0.0027

>  <oscillator_strength_4>  (838) 
0.0072

>  <open_babel_can_smiles>  (838) 
O[C@H]1CN[C@@H](C1)C(=O)O

>  <mulliken_charges>  (838) 
18
1   -0.303501
2   -0.160959
3   0.115412
4   -0.085868
5   0.596276
6   -0.60023
7   -0.633895
8   -0.465205
9   -0.578815
10   0.176589
11   0.17797
12   0.17056
13   0.158831
14   0.130371
15   0.14693
16   0.329904
17   0.394769
18   0.430863

>  <lowdin_charges>  (838) 
18
1   -0.301409
2   -0.215065
3   -0.018594
4   -0.112186
5   0.174706
6   -0.359061
7   -0.470797
8   -0.261443
9   -0.358239
10   0.167051
11   0.171938
12   0.165762
13   0.150619
14   0.137414
15   0.156444
16   0.269866
17   0.343872
18   0.35912

$$$$
PCCDB-ID:  5814
     RDKit          3D

 23 23  0  0  1  0  0  0  0  0999 V2000
   -1.3084   -0.0040    0.2096 C   0  0  0  0  0  0  0  0  0  0  0  0
   -0.6410    1.2237    0.1892 C   0  0  0  0  0  0  0  0  0  0  0  0
    0.7951   -1.1226   -0.1255 C   0  0  0  0  0  0  0  0  0  0  0  0
   -1.2383   -3.1189    1.5578 C   0  0  0  0  0  0  0  0  0  0  0  0
   -0.5940   -1.1910    0.0540 C   0  0  0  0  0  0  0  0  0  0  0  0
    0.7404    1.2909    0.0212 C   0  0  0  0  0  0  0  0  0  0  0  0
    1.4688    0.0962   -0.1393 C   0  0  0  0  0  0  0  0  0  0  0  0
   -1.2854   -2.5364    0.1271 C   0  0  2  0  0  0  0  0  0  0  0  0
   -2.0976   -4.3121    1.6036 N   0  0  0  0  0  0  0  0  0  0  0  0
    1.4454    2.4632   -0.0073 O   0  0  0  0  0  0  0  0  0  0  0  0
    2.8217    0.2074   -0.3129 O   0  0  0  0  0  0  0  0  0  0  0  0
   -2.6386   -2.4202   -0.2684 O   0  0  0  0  0  0  0  0  0  0  0  0
   -2.3856   -0.0444    0.3237 H   0  0  0  0  0  0  0  0  0  0  0  0
   -1.2039    2.1496    0.3007 H   0  0  0  0  0  0  0  0  0  0  0  0
    1.3684   -2.0395   -0.2661 H   0  0  0  0  0  0  0  0  0  0  0  0
   -1.6608   -2.3739    2.2405 H   0  0  0  0  0  0  0  0  0  0  0  0
   -0.1945   -3.2963    1.8603 H   0  0  0  0  0  0  0  0  0  0  0  0
   -0.7532   -3.2416   -0.5405 H   0  0  0  0  0  0  0  0  0  0  0  0
   -2.3458   -4.5460    2.5616 H   0  0  0  0  0  0  0  0  0  0  0  0
   -1.6106   -5.1201    1.2188 H   0  0  0  0  0  0  0  0  0  0  0  0
    0.8195    3.1958    0.1013 H   0  0  0  0  0  0  0  0  0  0  0  0
    3.1883   -0.6835   -0.4231 H   0  0  0  0  0  0  0  0  0  0  0  0
   -3.0732   -3.1811    0.1697 H   0  0  0  0  0  0  0  0  0  0  0  0
  1 13  1  0
  2  1  2  0
  2 14  1  0
  3  5  2  0
  4  9  1  0
  4 17  1  0
  4 16  1  0
  5  8  1  0
  5  1  1  0
  6  2  1  0
  7  3  1  0
  7  6  2  0
  8 18  1  6
  8  4  1  0
  9 19  1  0
 10  6  1  0
 10 21  1  0
 11  7  1  0
 12  8  1  0
 12 23  1  0
 15  3  1  0
 20  9  1  0
 22 11  1  0
M  END
>  <HBA>  (839) 
4

>  <HBD>  (839) 
4

>  <TPSA>  (839) 
86.71

>  <cid>  (839) 
5814

>  <dipole>  (839) 
3.45

>  <excitation_energy_1>  (839) 
4.725

>  <excitation_energy_2>  (839) 
4.789

>  <excitation_energy_3>  (839) 
4.89

>  <excitation_energy_4>  (839) 
5.058

>  <homo_energy>  (839) 
-5.366

>  <homo_lumo_gap>  (839) 
5.66

>  <logP>  (839) 
0.79

>  <lumo_energy>  (839) 
0.294

>  <melting_point>  (839) 
161.3

>  <molecular_refractivity>  (839) 
44.13

>  <oscillator_strength_1>  (839) 
0.0004

>  <oscillator_strength_2>  (839) 
0.0674

>  <oscillator_strength_3>  (839) 
0.0004

>  <oscillator_strength_4>  (839) 
0.0021

>  <open_babel_can_smiles>  (839) 
NC[C@H](c1ccc(c(c1)O)O)O

>  <mulliken_charges>  (839) 
23
1   -0.184583
2   -0.200969
3   -0.26083
4   -0.166451
5   0.13928
6   0.318922
7   0.324869
8   0.097384
9   -0.746195
10   -0.634789
11   -0.636358
12   -0.650765
13   0.146669
14   0.116703
15   0.105528
16   0.155667
17   0.127267
18   0.104381
19   0.314238
20   0.307451
21   0.405972
22   0.405148
23   0.41146

>  <lowdin_charges>  (839) 
23
1   -0.166716
2   -0.20517
3   -0.21955
4   -0.227157
5   -0.02041
6   0.07416
7   0.079426
8   -0.002922
9   -0.555455
10   -0.373303
11   -0.372808
12   -0.469533
13   0.167851
14   0.153021
15   0.148345
16   0.153852
17   0.13011
18   0.122281
19   0.264855
20   0.260764
21   0.35831
22   0.355588
23   0.344458

$$$$
PCCDB-ID:  5826
     RDKit          3D

 23 23  0  0  1  0  0  0  0  0999 V2000
    1.8468   -0.3061   -1.2492 C   0  0  0  0  0  0  0  0  0  0  0  0
    1.7307    0.1672    5.3316 C   0  0  0  0  0  0  0  0  0  0  0  0
    1.0583   -0.8663    4.6791 C   0  0  0  0  0  0  0  0  0  0  0  0
    2.6750    0.9217    4.6315 C   0  0  0  0  0  0  0  0  0  0  0  0
    1.3326   -1.1397    3.3376 C   0  0  0  0  0  0  0  0  0  0  0  0
    2.9453    0.6458    3.2913 C   0  0  0  0  0  0  0  0  0  0  0  0
    2.5445   -0.6974    1.1642 C   0  0  0  0  0  0  0  0  0  0  0  0
    1.8985    0.2936    0.1662 C   0  0  1  0  0  0  0  0  0  0  0  0
    2.2771   -0.3908    2.6230 C   0  0  0  0  0  0  0  0  0  0  0  0
    2.6032    1.5833    0.2350 N   0  0  0  0  0  0  0  0  0  0  0  0
    2.8573   -0.5470   -1.6067 H   0  0  0  0  0  0  0  0  0  0  0  0
    1.4021    0.4040   -1.9571 H   0  0  0  0  0  0  0  0  0  0  0  0
    1.2533   -1.2282   -1.2806 H   0  0  0  0  0  0  0  0  0  0  0  0
    1.5239    0.3818    6.3769 H   0  0  0  0  0  0  0  0  0  0  0  0
    0.3232   -1.4636    5.2128 H   0  0  0  0  0  0  0  0  0  0  0  0
    3.2044    1.7289    5.1318 H   0  0  0  0  0  0  0  0  0  0  0  0
    0.8074   -1.9516    2.8379 H   0  0  0  0  0  0  0  0  0  0  0  0
    3.6678    1.2459    2.7481 H   0  0  0  0  0  0  0  0  0  0  0  0
    3.6272   -0.7173    0.9701 H   0  0  0  0  0  0  0  0  0  0  0  0
    2.1741   -1.7050    0.9387 H   0  0  0  0  0  0  0  0  0  0  0  0
    0.8706    0.4832    0.5025 H   0  0  0  0  0  0  0  0  0  0  0  0
    3.5177    1.4877   -0.2095 H   0  0  0  0  0  0  0  0  0  0  0  0
    2.0988    2.2800   -0.3122 H   0  0  0  0  0  0  0  0  0  0  0  0
  1  8  1  0
  2 14  1  0
  3 15  1  0
  3  2  2  0
  4 16  1  0
  4  2  1  0
  5  3  1  0
  6  4  2  0
  7  9  1  0
  8 10  1  0
  8 21  1  1
  8  7  1  0
  9  6  1  0
  9  5  2  0
 11  1  1  0
 12  1  1  0
 13  1  1  0
 17  5  1  0
 18  6  1  0
 19  7  1  0
 20  7  1  0
 22 10  1  0
 23 10  1  0
M  END
>  <HBA>  (840) 
1

>  <HBD>  (840) 
1

>  <TPSA>  (840) 
26.02

>  <cid>  (840) 
5826

>  <dipole>  (840) 
1.87

>  <excitation_energy_1>  (840) 
5.28

>  <excitation_energy_2>  (840) 
5.652

>  <excitation_energy_3>  (840) 
5.789

>  <excitation_energy_4>  (840) 
5.829

>  <homo_energy>  (840) 
-6.207

>  <homo_lumo_gap>  (840) 
6.525

>  <logP>  (840) 
2.277

>  <lumo_energy>  (840) 
0.318

>  <melting_point>  (840) 
60.07

>  <molecular_refractivity>  (840) 
43.73

>  <oscillator_strength_1>  (840) 
0.0002

>  <oscillator_strength_2>  (840) 
0.0044

>  <oscillator_strength_3>  (840) 
0.035

>  <oscillator_strength_4>  (840) 
0.0462

>  <open_babel_can_smiles>  (840) 
C[C@@H](Cc1ccccc1)N

>  <mulliken_charges>  (840) 
23
1   -0.447718
2   -0.131198
3   -0.128535
4   -0.133555
5   -0.187762
6   -0.154112
7   -0.342541
8   0.031036
9   0.1719
10   -0.70228
11   0.135642
12   0.136815
13   0.142127
14   0.122674
15   0.122523
16   0.12337
17   0.115139
18   0.133475
19   0.13427
20   0.136887
21   0.139629
22   0.286496
23   0.295717

>  <lowdin_charges>  (840) 
23
1   -0.463165
2   -0.161791
3   -0.161744
4   -0.159742
5   -0.172406
6   -0.156842
7   -0.273187
8   -0.061294
9   -0.000313
10   -0.546298
11   0.143617
12   0.147493
13   0.14989
14   0.152941
15   0.155456
16   0.155497
17   0.151002
18   0.163326
19   0.144627
20   0.147525
21   0.141832
22   0.247525
23   0.256052

$$$$
PCCDB-ID:  5827
     RDKit          3D

 23 23  0  0  0  0  0  0  0  0999 V2000
    1.0880   -1.1013    0.9368 C   0  0  0  0  0  0  0  0  0  0  0  0
   -0.0909    4.1715    5.4722 C   0  0  0  0  0  0  0  0  0  0  0  0
    2.4377    2.6449    1.6785 C   0  0  0  0  0  0  0  0  0  0  0  0
    1.7598    1.0260    3.3267 C   0  0  0  0  0  0  0  0  0  0  0  0
    1.8118    3.6481    2.4029 C   0  0  0  0  0  0  0  0  0  0  0  0
    1.1395    2.0346    4.0722 C   0  0  0  0  0  0  0  0  0  0  0  0
    2.5495   -0.7066    0.9148 C   0  0  0  0  0  0  0  0  0  0  0  0
    2.4056    1.3070    2.1157 C   0  0  0  0  0  0  0  0  0  0  0  0
    1.1550    3.3523    3.6075 C   0  0  0  0  0  0  0  0  0  0  0  0
    3.1037    0.3362    1.3773 N   0  0  0  0  0  0  0  0  0  0  0  0
    3.3720   -1.5950    0.2816 O   0  0  0  0  0  0  0  0  0  0  0  0
    0.5769    4.4160    4.2476 O   0  0  0  0  0  0  0  0  0  0  0  0
    0.4715   -0.3070    1.3588 H   0  0  0  0  0  0  0  0  0  0  0  0
    0.9381   -2.0109    1.5319 H   0  0  0  0  0  0  0  0  0  0  0  0
    0.7427   -1.3111   -0.0839 H   0  0  0  0  0  0  0  0  0  0  0  0
   -0.4785    5.1373    5.8024 H   0  0  0  0  0  0  0  0  0  0  0  0
    0.5932    3.7763    6.2357 H   0  0  0  0  0  0  0  0  0  0  0  0
   -0.9274    3.4703    5.3457 H   0  0  0  0  0  0  0  0  0  0  0  0
    2.9618    2.8789    0.7567 H   0  0  0  0  0  0  0  0  0  0  0  0
    1.7672    0.0091    3.7101 H   0  0  0  0  0  0  0  0  0  0  0  0
    1.8266    4.6785    2.0608 H   0  0  0  0  0  0  0  0  0  0  0  0
    0.6576    1.7767    5.0086 H   0  0  0  0  0  0  0  0  0  0  0  0
    2.8405   -2.3258   -0.0695 H   0  0  0  0  0  0  0  0  0  0  0  0
  1 13  1  0
  1 14  1  0
  2 16  1  0
  2 17  1  0
  3  8  2  0
  3  5  1  0
  4 20  1  0
  4  6  2  0
  5  9  2  0
  6 22  1  0
  7  1  1  0
  7 10  2  0
  8  4  1  0
  9  6  1  0
  9 12  1  0
 10  8  1  0
 11  7  1  0
 12  2  1  0
 15  1  1  0
 18  2  1  0
 19  3  1  0
 21  5  1  0
 23 11  1  0
M  END
>  <HBA>  (841) 
3

>  <HBD>  (841) 
1

>  <TPSA>  (841) 
38.33

>  <cid>  (841) 
5827

>  <dipole>  (841) 
4.3

>  <excitation_energy_1>  (841) 
4.495

>  <excitation_energy_2>  (841) 
4.588

>  <excitation_energy_3>  (841) 
4.632

>  <excitation_energy_4>  (841) 
4.996

>  <homo_energy>  (841) 
-5.252

>  <homo_lumo_gap>  (841) 
5.323

>  <logP>  (841) 
1.727

>  <lumo_energy>  (841) 
0.071

>  <melting_point>  (841) 
64.7

>  <molecular_refractivity>  (841) 
47.25

>  <oscillator_strength_1>  (841) 
0.1071

>  <oscillator_strength_2>  (841) 
0.0034

>  <oscillator_strength_3>  (841) 
0.1091

>  <oscillator_strength_4>  (841) 
0.0097

>  <open_babel_can_smiles>  (841) 
COc1ccc(cc1)/N=C(/O)\C

>  <mulliken_charges>  (841) 
23
1   -0.555571
2   -0.211683
3   -0.153974
4   -0.169198
5   -0.180138
6   -0.204922
7   0.480629
8   0.238912
9   0.373325
10   -0.469757
11   -0.571351
12   -0.51019
13   0.197905
14   0.174946
15   0.167372
16   0.167208
17   0.149713
18   0.146754
19   0.135018
20   0.123721
21   0.13685
22   0.128306
23   0.406127

>  <lowdin_charges>  (841) 
23
1   -0.484586
2   -0.278809
3   -0.160527
4   -0.180375
5   -0.17615
6   -0.211614
7   0.142415
8   0.029498
9   0.088919
10   -0.172778
11   -0.36296
12   -0.202575
13   0.184872
14   0.169534
15   0.165071
16   0.161457
17   0.144697
18   0.142363
19   0.164481
20   0.155185
21   0.165117
22   0.160606
23   0.356158

$$$$
PCCDB-ID:  5829
     RDKit          3D

 21 20  0  0  0  0  0  0  0  0999 V2000
    1.6209   -0.8451   -0.0475 C   0  0  0  0  0  0  0  0  0  0  0  0
    3.1629    0.1489   -1.6130 C   0  0  0  0  0  0  0  0  0  0  0  0
    5.1303    2.1100    1.4630 C   0  0  0  0  0  0  0  0  0  0  0  0
    5.5197   -0.2591    1.2318 C   0  0  0  0  0  0  0  0  0  0  0  0
    3.3373    0.6595    0.7434 C   0  0  0  0  0  0  0  0  0  0  0  0
    2.9683   -0.3368   -0.2520 N   0  0  0  0  0  0  0  0  0  0  0  0
    4.7738    0.8958    0.7462 N   0  0  0  0  0  0  0  0  0  0  0  0
    1.4220   -1.6487   -0.7651 H   0  0  0  0  0  0  0  0  0  0  0  0
    0.8342   -0.0753   -0.1785 H   0  0  0  0  0  0  0  0  0  0  0  0
    1.5260   -1.2594    0.9622 H   0  0  0  0  0  0  0  0  0  0  0  0
    3.0243   -0.6749   -2.3218 H   0  0  0  0  0  0  0  0  0  0  0  0
    4.1799    0.5340   -1.7111 H   0  0  0  0  0  0  0  0  0  0  0  0
    2.4548    0.9581   -1.8833 H   0  0  0  0  0  0  0  0  0  0  0  0
    6.2067    2.2884    1.3647 H   0  0  0  0  0  0  0  0  0  0  0  0
    4.8940    2.0694    2.5454 H   0  0  0  0  0  0  0  0  0  0  0  0
    4.6025    2.9680    1.0322 H   0  0  0  0  0  0  0  0  0  0  0  0
    6.5919   -0.0979    1.0746 H   0  0  0  0  0  0  0  0  0  0  0  0
    5.2086   -1.1444    0.6733 H   0  0  0  0  0  0  0  0  0  0  0  0
    5.3551   -0.4511    2.3112 H   0  0  0  0  0  0  0  0  0  0  0  0
    2.9758    0.2957    1.7256 H   0  0  0  0  0  0  0  0  0  0  0  0
    2.8422    1.6332    0.5581 H   0  0  0  0  0  0  0  0  0  0  0  0
  1 10  1  0
  2  6  1  0
  3 15  1  0
  4 19  1  0
  5  7  1  0
  5 20  1  0
  6  1  1  0
  6  5  1  0
  7  4  1  0
  7  3  1  0
  8  1  1  0
  9  1  1  0
 11  2  1  0
 12  2  1  0
 13  2  1  0
 14  3  1  0
 16  3  1  0
 17  4  1  0
 18  4  1  0
 21  5  1  0
M  END
>  <HBA>  (842) 
2

>  <HBD>  (842) 
0

>  <TPSA>  (842) 
6.48

>  <cid>  (842) 
5829

>  <dipole>  (842) 
0.68

>  <excitation_energy_1>  (842) 
5.327

>  <excitation_energy_2>  (842) 
5.434

>  <excitation_energy_3>  (842) 
5.749

>  <excitation_energy_4>  (842) 
5.863

>  <homo_energy>  (842) 
-5.636

>  <homo_lumo_gap>  (842) 
7.965

>  <logP>  (842) 
0.067

>  <lumo_energy>  (842) 
2.329

>  <melting_point>  (842) 
-20.63

>  <molecular_refractivity>  (842) 
31.94

>  <oscillator_strength_1>  (842) 
0.027

>  <oscillator_strength_2>  (842) 
0.0303

>  <oscillator_strength_3>  (842) 
0.0267

>  <oscillator_strength_4>  (842) 
0.0002

>  <open_babel_can_smiles>  (842) 
CN(CN(C)C)C

>  <mulliken_charges>  (842) 
21
1   -0.296427
2   -0.302733
3   -0.296455
4   -0.302417
5   0.031942
6   -0.368895
7   -0.369
8   0.149276
9   0.116756
10   0.148797
11   0.143648
12   0.1731
13   0.111212
14   0.149295
15   0.116732
16   0.148814
17   0.143572
18   0.173064
19   0.111158
20   0.109278
21   0.109284

>  <lowdin_charges>  (842) 
21
1   -0.356888
2   -0.362576
3   -0.353024
4   -0.359063
5   -0.130057
6   -0.181428
7   -0.181763
8   0.151118
9   0.120187
10   0.148623
11   0.148039
12   0.161634
13   0.118711
14   0.148696
15   0.117392
16   0.150107
17   0.145429
18   0.162875
19   0.11613
20   0.117948
21   0.117911

$$$$
PCCDB-ID:  5851
     RDKit          3D

 16 15  0  0  1  0  0  0  0  0999 V2000
    0.6414    0.1853    0.7780 C   0  0  2  0  0  0  0  0  0  0  0  0
    0.7107    1.6835    0.3985 C   0  0  2  0  0  0  0  0  0  0  0  0
    1.3316   -0.0733    2.1302 C   0  0  0  0  0  0  0  0  0  0  0  0
    2.1566    2.1034    0.0733 C   0  0  0  0  0  0  0  0  0  0  0  0
    1.1725   -0.6634   -0.2243 O   0  0  0  0  0  0  0  0  0  0  0  0
    0.1557    2.5307    1.3890 O   0  0  0  0  0  0  0  0  0  0  0  0
    1.2186    0.6852    3.0783 O   0  0  0  0  0  0  0  0  0  0  0  0
    2.0323   -1.1992    2.1801 O   0  0  0  0  0  0  0  0  0  0  0  0
    2.9176    1.3934   -0.5622 O   0  0  0  0  0  0  0  0  0  0  0  0
    2.4895    3.3081    0.5195 O   0  0  0  0  0  0  0  0  0  0  0  0
   -0.4157   -0.0758    0.9098 H   0  0  0  0  0  0  0  0  0  0  0  0
    0.1292    1.8207   -0.5214 H   0  0  0  0  0  0  0  0  0  0  0  0
    1.9485   -0.1833   -0.6002 H   0  0  0  0  0  0  0  0  0  0  0  0
    0.4010    2.1275    2.2558 H   0  0  0  0  0  0  0  0  0  0  0  0
    1.9864   -1.5799    1.2717 H   0  0  0  0  0  0  0  0  0  0  0  0
    1.7083    3.6268    1.0296 H   0  0  0  0  0  0  0  0  0  0  0  0
  1 11  1  1
  1  3  1  0
  2 12  1  6
  2  1  1  0
  2  6  1  0
  3  8  1  0
  3  7  2  0
  4  2  1  0
  4 10  1  0
  5  1  1  0
  6 14  1  0
  9  4  2  0
 10 16  1  0
 13  5  1  0
 15  8  1  0
M  END
>  <HBA>  (843) 
6

>  <HBD>  (843) 
4

>  <TPSA>  (843) 
115.06

>  <cid>  (843) 
5851

>  <dipole>  (843) 
2.43

>  <excitation_energy_1>  (843) 
5.48

>  <excitation_energy_2>  (843) 
5.509

>  <excitation_energy_3>  (843) 
6.232

>  <excitation_energy_4>  (843) 
6.268

>  <homo_energy>  (843) 
-7.823

>  <homo_lumo_gap>  (843) 
7.026

>  <logP>  (843) 
-2.123

>  <lumo_energy>  (843) 
-0.797

>  <melting_point>  (843) 
166.32

>  <molecular_refractivity>  (843) 
27.21

>  <oscillator_strength_1>  (843) 
0.0011

>  <oscillator_strength_2>  (843) 
0.0

>  <oscillator_strength_3>  (843) 
0.0009

>  <oscillator_strength_4>  (843) 
0.006

>  <open_babel_can_smiles>  (843) 
O[C@H]([C@H](C(=O)O)O)C(=O)O

>  <mulliken_charges>  (843) 
16
1   0.002923
2   0.002756
3   0.608531
4   0.608362
5   -0.657852
6   -0.657819
7   -0.481541
8   -0.551188
9   -0.481453
10   -0.551229
11   0.201698
12   0.201701
13   0.438707
14   0.438709
15   0.438832
16   0.438861

>  <lowdin_charges>  (843) 
16
1   -0.055392
2   -0.056802
3   0.17969
4   0.179927
5   -0.456679
6   -0.456275
7   -0.26725
8   -0.310945
9   -0.267635
10   -0.312572
11   0.179348
12   0.181027
13   0.360137
14   0.359705
15   0.371148
16   0.372568

$$$$
PCCDB-ID:  5852
     RDKit          3D

 20 19  0  0  1  0  0  0  0  0999 V2000
    5.2596    0.9279    1.6141 C   0  0  0  0  0  0  0  0  0  0  0  0
    5.0941   -1.3295    2.7324 C   0  0  0  0  0  0  0  0  0  0  0  0
    3.0879   -0.4632    1.4278 C   0  0  1  0  0  0  0  0  0  0  0  0
    2.6027    0.3082    0.1848 C   0  0  0  0  0  0  0  0  0  0  0  0
    4.6655   -0.4820    1.5217 C   0  0  0  0  0  0  0  0  0  0  0  0
    2.3925    0.1244    2.5595 N   0  0  0  0  0  0  0  0  0  0  0  0
    2.2846    1.4734    0.2262 O   0  0  0  0  0  0  0  0  0  0  0  0
    2.5600   -0.3765   -0.9768 O   0  0  0  0  0  0  0  0  0  0  0  0
    5.3837   -1.3985    0.0460 S   0  0  0  0  0  0  0  0  0  0  0  0
    5.0008    1.5421    0.7463 H   0  0  0  0  0  0  0  0  0  0  0  0
    4.8668    1.4350    2.5031 H   0  0  0  0  0  0  0  0  0  0  0  0
    6.3491    0.8832    1.7004 H   0  0  0  0  0  0  0  0  0  0  0  0
    6.1845   -1.3962    2.7866 H   0  0  0  0  0  0  0  0  0  0  0  0
    4.6895   -2.3467    2.6792 H   0  0  0  0  0  0  0  0  0  0  0  0
    4.7457   -0.8738    3.6662 H   0  0  0  0  0  0  0  0  0  0  0  0
    2.7768   -1.5129    1.3285 H   0  0  0  0  0  0  0  0  0  0  0  0
    2.8123   -0.1231    3.4494 H   0  0  0  0  0  0  0  0  0  0  0  0
    2.3636    1.1361    2.4591 H   0  0  0  0  0  0  0  0  0  0  0  0
    2.9669   -1.2550   -0.8491 H   0  0  0  0  0  0  0  0  0  0  0  0
    5.3881   -0.3635   -0.8206 H   0  0  0  0  0  0  0  0  0  0  0  0
  1 12  1  0
  1 11  1  0
  2 13  1  0
  2 15  1  0
  3 16  1  6
  3  5  1  0
  3  6  1  0
  4  7  2  0
  4  3  1  0
  5  1  1  0
  5  2  1  0
  6 17  1  0
  8 19  1  0
  8  4  1  0
  9  5  1  0
 10  1  1  0
 14  2  1  0
 18  6  1  0
 20  9  1  0
M  END
>  <HBA>  (844) 
4

>  <HBD>  (844) 
3

>  <TPSA>  (844) 
102.12

>  <cid>  (844) 
5852

>  <dipole>  (844) 
3.64

>  <excitation_energy_1>  (844) 
5.361

>  <excitation_energy_2>  (844) 
5.449

>  <excitation_energy_3>  (844) 
5.692

>  <excitation_energy_4>  (844) 
5.783

>  <homo_energy>  (844) 
-6.58

>  <homo_lumo_gap>  (844) 
6.544

>  <logP>  (844) 
0.807

>  <lumo_energy>  (844) 
-0.035

>  <melting_point>  (844) 
136.79

>  <molecular_refractivity>  (844) 
38.6

>  <oscillator_strength_1>  (844) 
0.0096

>  <oscillator_strength_2>  (844) 
0.0056

>  <oscillator_strength_3>  (844) 
0.0006

>  <oscillator_strength_4>  (844) 
0.0019

>  <open_babel_can_smiles>  (844) 
N[C@H](C(S)(C)C)C(=O)O

>  <mulliken_charges>  (844) 
20
1   -0.451719
2   -0.456813
3   -0.047668
4   0.6085
5   -0.088194
6   -0.724939
7   -0.454953
8   -0.568305
9   -0.124572
10   0.173708
11   0.151841
12   0.167066
13   0.177103
14   0.164091
15   0.150606
16   0.147827
17   0.304389
18   0.330375
19   0.423093
20   0.118563

>  <lowdin_charges>  (844) 
20
1   -0.449589
2   -0.445903
3   -0.107618
4   0.189061
5   -0.082597
6   -0.539403
7   -0.244321
8   -0.342184
9   -0.100277
10   0.16477
11   0.156483
12   0.161717
13   0.16673
14   0.159374
15   0.153222
16   0.148801
17   0.25807
18   0.271917
19   0.355882
20   0.125865

$$$$
PCCDB-ID:  5895
     RDKit          3D

 26 28  0  0  0  0  0  0  0  0999 V2000
   -3.5023    0.1018   -0.0851 C   0  0  0  0  0  0  0  0  0  0  0  0
   -3.0494   -1.2200   -0.1504 C   0  0  0  0  0  0  0  0  0  0  0  0
   -2.5906    1.1597    0.0172 C   0  0  0  0  0  0  0  0  0  0  0  0
   -1.6831   -1.5085   -0.1152 C   0  0  0  0  0  0  0  0  0  0  0  0
    2.9864   -1.1853    0.0743 C   0  0  0  0  0  0  0  0  0  0  0  0
    1.6286   -1.4857    0.0092 C   0  0  0  0  0  0  0  0  0  0  0  0
   -0.0511    1.8267    0.1585 C   0  0  0  0  0  0  0  0  0  0  0  0
    2.4907    1.1937    0.2218 C   0  0  0  0  0  0  0  0  0  0  0  0
   -1.2303    0.8788    0.0528 C   0  0  0  0  0  0  0  0  0  0  0  0
    1.1386    0.8863    0.1489 C   0  0  0  0  0  0  0  0  0  0  0  0
    3.4233    0.1470    0.1850 C   0  0  0  0  0  0  0  0  0  0  0  0
   -0.7719   -0.4547   -0.0132 C   0  0  0  0  0  0  0  0  0  0  0  0
    0.6946   -0.4474    0.0452 C   0  0  0  0  0  0  0  0  0  0  0  0
    4.8114    0.3830    0.3487 N   0  0  0  0  0  0  0  0  0  0  0  0
    5.2069    1.6820   -0.1014 O   0  0  0  0  0  0  0  0  0  0  0  0
   -4.5686    0.3095   -0.1138 H   0  0  0  0  0  0  0  0  0  0  0  0
   -3.7680   -2.0317   -0.2293 H   0  0  0  0  0  0  0  0  0  0  0  0
   -2.9479    2.1859    0.0674 H   0  0  0  0  0  0  0  0  0  0  0  0
   -1.3398   -2.5389   -0.1663 H   0  0  0  0  0  0  0  0  0  0  0  0
    3.7204   -1.9880    0.0477 H   0  0  0  0  0  0  0  0  0  0  0  0
    1.3103   -2.5215   -0.0772 H   0  0  0  0  0  0  0  0  0  0  0  0
   -0.0886    2.4315    1.0753 H   0  0  0  0  0  0  0  0  0  0  0  0
   -0.0171    2.5373   -0.6791 H   0  0  0  0  0  0  0  0  0  0  0  0
    2.8414    2.2174    0.2877 H   0  0  0  0  0  0  0  0  0  0  0  0
    5.3596   -0.2720   -0.2060 H   0  0  0  0  0  0  0  0  0  0  0  0
    5.5783    2.0795    0.7030 H   0  0  0  0  0  0  0  0  0  0  0  0
  1  3  2  0
  2  4  2  0
  2  1  1  0
  3  9  1  0
  3 18  1  0
  4 12  1  0
  5 11  2  0
  6 13  2  0
  6  5  1  0
  7 22  1  0
  8 24  1  0
  9  7  1  0
 10  7  1  0
 10  8  2  0
 11  8  1  0
 11 14  1  0
 12 13  1  0
 12  9  2  0
 13 10  1  0
 15 14  1  0
 15 26  1  0
 16  1  1  0
 17  2  1  0
 19  4  1  0
 20  5  1  0
 21  6  1  0
 23  7  1  0
 25 14  1  0
M  END
>  <HBA>  (845) 
2

>  <HBD>  (845) 
2

>  <TPSA>  (845) 
32.26

>  <cid>  (845) 
5895

>  <dipole>  (845) 
1.36

>  <excitation_energy_1>  (845) 
4.145

>  <excitation_energy_2>  (845) 
4.337

>  <excitation_energy_3>  (845) 
4.678

>  <excitation_energy_4>  (845) 
4.811

>  <homo_energy>  (845) 
-5.211

>  <homo_lumo_gap>  (845) 
4.697

>  <logP>  (845) 
3.132

>  <lumo_energy>  (845) 
-0.514

>  <melting_point>  (845) 
163.63

>  <molecular_refractivity>  (845) 
60.12

>  <oscillator_strength_1>  (845) 
0.1174

>  <oscillator_strength_2>  (845) 
0.4581

>  <oscillator_strength_3>  (845) 
0.0055

>  <oscillator_strength_4>  (845) 
0.0032

>  <open_babel_can_smiles>  (845) 
ONc1ccc2c(c1)Cc1c2cccc1

>  <mulliken_charges>  (845) 
26
1   -0.131441
2   -0.137474
3   -0.203948
4   -0.194349
5   -0.193521
6   -0.198325
7   -0.420408
8   -0.237024
9   0.105164
10   0.101025
11   0.318096
12   0.088609
13   0.085751
14   -0.435452
15   -0.513312
16   0.123996
17   0.12484
18   0.122076
19   0.124864
20   0.119907
21   0.129694
22   0.170652
23   0.172594
24   0.130903
25   0.329537
26   0.417545

>  <lowdin_charges>  (845) 
26
1   -0.161043
2   -0.158503
3   -0.163565
4   -0.16584
5   -0.193387
6   -0.150763
7   -0.274674
8   -0.192621
9   -0.007743
10   0.005608
11   0.043348
12   -0.008761
13   -0.030153
14   -0.197412
15   -0.40531
16   0.154179
17   0.156766
18   0.15403
19   0.154353
20   0.155293
21   0.156955
22   0.168215
23   0.169525
24   0.163091
25   0.273079
26   0.355336

$$$$
PCCDB-ID:  5896
     RDKit          3D

 31 33  0  0  0  0  0  0  0  0999 V2000
    0.9193   -0.3132   -0.5027 C   0  0  0  0  0  0  0  0  0  0  0  0
   11.3628    1.7149   -2.0407 C   0  0  0  0  0  0  0  0  0  0  0  0
   11.2740    0.5093   -1.3364 C   0  0  0  0  0  0  0  0  0  0  0  0
   10.2044    2.3855   -2.4509 C   0  0  0  0  0  0  0  0  0  0  0  0
   10.0303   -0.0471   -1.0300 C   0  0  0  0  0  0  0  0  0  0  0  0
    5.4332   -0.8684   -0.6189 C   0  0  0  0  0  0  0  0  0  0  0  0
    6.8241   -0.7904   -0.6394 C   0  0  0  0  0  0  0  0  0  0  0  0
    7.5749    2.3535   -2.4716 C   0  0  0  0  0  0  0  0  0  0  0  0
    5.2895    1.2348   -1.8480 C   0  0  0  0  0  0  0  0  0  0  0  0
    2.4045   -0.5649   -0.3192 C   0  0  0  0  0  0  0  0  0  0  0  0
    8.9639    1.8364   -2.1493 C   0  0  0  0  0  0  0  0  0  0  0  0
    6.6754    1.2933   -1.8665 C   0  0  0  0  0  0  0  0  0  0  0  0
    4.6612    0.1463   -1.2172 C   0  0  0  0  0  0  0  0  0  0  0  0
    8.8735    0.6202   -1.4390 C   0  0  0  0  0  0  0  0  0  0  0  0
    7.4548    0.2868   -1.2644 C   0  0  0  0  0  0  0  0  0  0  0  0
    3.2392    0.0691   -1.2360 N   0  0  0  0  0  0  0  0  0  0  0  0
    2.8495   -1.2920    0.5550 O   0  0  0  0  0  0  0  0  0  0  0  0
    2.6021    0.9887   -2.0879 O   0  0  0  0  0  0  0  0  0  0  0  0
    0.5764   -0.6397   -1.4904 H   0  0  0  0  0  0  0  0  0  0  0  0
    0.6780    0.7496   -0.4116 H   0  0  0  0  0  0  0  0  0  0  0  0
    0.3985   -0.8820    0.2687 H   0  0  0  0  0  0  0  0  0  0  0  0
   12.3384    2.1345   -2.2709 H   0  0  0  0  0  0  0  0  0  0  0  0
   12.1823    0.0004   -1.0242 H   0  0  0  0  0  0  0  0  0  0  0  0
   10.2800    3.3229   -2.9973 H   0  0  0  0  0  0  0  0  0  0  0  0
    9.9685   -0.9836   -0.4815 H   0  0  0  0  0  0  0  0  0  0  0  0
    4.9380   -1.6938   -0.1295 H   0  0  0  0  0  0  0  0  0  0  0  0
    7.4041   -1.5801   -0.1688 H   0  0  0  0  0  0  0  0  0  0  0  0
    7.4163    2.4601   -3.5540 H   0  0  0  0  0  0  0  0  0  0  0  0
    7.3935    3.3451   -2.0340 H   0  0  0  0  0  0  0  0  0  0  0  0
    4.6890    2.0156   -2.2994 H   0  0  0  0  0  0  0  0  0  0  0  0
    2.6278    0.5681   -2.9680 H   0  0  0  0  0  0  0  0  0  0  0  0
  1 20  1  0
  1 10  1  0
  1 21  1  0
  2  3  2  0
  3  5  1  0
  3 23  1  0
  4 11  2  0
  4  2  1  0
  5 25  1  0
  6 26  1  0
  7  6  2  0
  7 27  1  0
  8 11  1  0
  8 29  1  0
  8 12  1  0
  9 13  2  0
 10 17  2  0
 11 14  1  0
 12  9  1  0
 12 15  2  0
 13  6  1  0
 14 15  1  0
 14  5  2  0
 15  7  1  0
 16 13  1  0
 16 10  1  0
 18 16  1  0
 19  1  1  0
 22  2  1  0
 24  4  1  0
 28  8  1  0
 30  9  1  0
 31 18  1  0
M  END
>  <HBA>  (846) 
3

>  <HBD>  (846) 
1

>  <TPSA>  (846) 
40.54

>  <cid>  (846) 
5896

>  <dipole>  (846) 
3.52

>  <excitation_energy_1>  (846) 
4.18

>  <excitation_energy_2>  (846) 
4.316

>  <excitation_energy_3>  (846) 
4.65

>  <excitation_energy_4>  (846) 
4.732

>  <homo_energy>  (846) 
-5.467

>  <homo_lumo_gap>  (846) 
4.623

>  <logP>  (846) 
3.0

>  <lumo_energy>  (846) 
-0.844

>  <melting_point>  (846) 
159.15

>  <molecular_refractivity>  (846) 
70.03

>  <oscillator_strength_1>  (846) 
0.6565

>  <oscillator_strength_2>  (846) 
0.0788

>  <oscillator_strength_3>  (846) 
0.0233

>  <oscillator_strength_4>  (846) 
0.0034

>  <open_babel_can_smiles>  (846) 
CC(=O)N(c1ccc2c(c1)Cc1c2cccc1)O

>  <mulliken_charges>  (846) 
31
1   -0.513078
2   -0.129673
3   -0.138032
4   -0.204066
5   -0.191916
6   -0.174217
7   -0.210348
8   -0.420114
9   -0.263217
10   0.567269
11   0.105713
12   0.109261
13   0.310615
14   0.08756
15   0.096636
16   -0.309696
17   -0.480645
18   -0.499243
19   0.161032
20   0.186433
21   0.181855
22   0.126356
23   0.127672
24   0.123765
25   0.129546
26   0.178436
27   0.134386
28   0.169747
29   0.174196
30   0.143832
31   0.419934

>  <lowdin_charges>  (846) 
31
1   -0.465111
2   -0.160073
3   -0.157156
4   -0.162941
5   -0.161887
6   -0.174284
7   -0.155698
8   -0.272468
9   -0.195845
10   0.166001
11   -0.006418
12   0.00108
13   0.04467
14   -0.011417
15   -0.019672
16   0.012891
17   -0.281085
18   -0.356909
19   0.166368
20   0.176761
21   0.176669
22   0.156781
23   0.157743
24   0.155424
25   0.157234
26   0.186532
27   0.161692
28   0.165808
29   0.169213
30   0.168797
31   0.357301

$$$$
PCCDB-ID:  5906
     RDKit          3D

 25 25  0  0  1  0  0  0  0  0999 V2000
    0.9200    0.0527    0.2510 C   0  0  0  0  0  0  0  0  0  0  0  0
    6.6409   -0.0713    1.9393 C   0  0  0  0  0  0  0  0  0  0  0  0
    5.2508   -0.1550    1.9662 C   0  0  0  0  0  0  0  0  0  0  0  0
    7.3870   -0.8287    1.0340 C   0  0  0  0  0  0  0  0  0  0  0  0
    5.3295   -1.7790    0.1773 C   0  0  0  0  0  0  0  0  0  0  0  0
    2.4513    0.0615    0.1889 C   0  0  1  0  0  0  0  0  0  0  0  0
    4.5856   -1.0139    1.0785 C   0  0  0  0  0  0  0  0  0  0  0  0
    6.7255   -1.6855    0.1509 C   0  0  0  0  0  0  0  0  0  0  0  0
    3.0707   -1.0742    1.0638 C   0  0  1  0  0  0  0  0  0  0  0  0
    2.8586    0.0240   -1.2185 N   0  0  0  0  0  0  0  0  0  0  0  0
    7.3859   -2.4654   -0.7604 O   0  0  0  0  0  0  0  0  0  0  0  0
    2.6297   -0.9903    2.4204 O   0  0  0  0  0  0  0  0  0  0  0  0
    0.5480    0.2442    1.2634 H   0  0  0  0  0  0  0  0  0  0  0  0
    0.5145   -0.9105   -0.0905 H   0  0  0  0  0  0  0  0  0  0  0  0
    0.5231    0.8326   -0.4049 H   0  0  0  0  0  0  0  0  0  0  0  0
    7.1566    0.5893    2.6313 H   0  0  0  0  0  0  0  0  0  0  0  0
    4.6754    0.4216    2.6817 H   0  0  0  0  0  0  0  0  0  0  0  0
    8.4734   -0.7595    1.0184 H   0  0  0  0  0  0  0  0  0  0  0  0
    4.8443   -2.4691   -0.5073 H   0  0  0  0  0  0  0  0  0  0  0  0
    2.8096    1.0128    0.6036 H   0  0  0  0  0  0  0  0  0  0  0  0
    2.7594   -2.0372    0.6206 H   0  0  0  0  0  0  0  0  0  0  0  0
    2.5471   -0.8499   -1.6446 H   0  0  0  0  0  0  0  0  0  0  0  0
    3.8753    0.0250   -1.2865 H   0  0  0  0  0  0  0  0  0  0  0  0
    8.3396   -2.3165   -0.6670 H   0  0  0  0  0  0  0  0  0  0  0  0
    1.6673   -1.0997    2.4216 H   0  0  0  0  0  0  0  0  0  0  0  0
  1 13  1  0
  2  3  2  0
  2 16  1  0
  3 17  1  0
  4  2  1  0
  5  7  2  0
  6  1  1  0
  6 20  1  1
  6  9  1  0
  7  3  1  0
  8  5  1  0
  8  4  2  0
  9 21  1  6
  9  7  1  0
  9 12  1  0
 10  6  1  0
 11 24  1  0
 11  8  1  0
 12 25  1  0
 14  1  1  0
 15  1  1  0
 18  4  1  0
 19  5  1  0
 22 10  1  0
 23 10  1  0
M  END
>  <HBA>  (847) 
3

>  <HBD>  (847) 
3

>  <TPSA>  (847) 
66.48

>  <cid>  (847) 
5906

>  <dipole>  (847) 
0.85

>  <excitation_energy_1>  (847) 
4.968

>  <excitation_energy_2>  (847) 
5.202

>  <excitation_energy_3>  (847) 
5.286

>  <excitation_energy_4>  (847) 
5.572

>  <homo_energy>  (847) 
-5.938

>  <homo_lumo_gap>  (847) 
5.859

>  <logP>  (847) 
1.473

>  <lumo_energy>  (847) 
-0.079

>  <melting_point>  (847) 
119.66

>  <molecular_refractivity>  (847) 
46.91

>  <oscillator_strength_1>  (847) 
0.0541

>  <oscillator_strength_2>  (847) 
0.0002

>  <oscillator_strength_3>  (847) 
0.0126

>  <oscillator_strength_4>  (847) 
0.012

>  <open_babel_can_smiles>  (847) 
C[C@@H]([C@@H](c1cccc(c1)O)O)N

>  <mulliken_charges>  (847) 
25
1   -0.467829
2   -0.136112
3   -0.169496
4   -0.194295
5   -0.234489
6   0.016301
7   0.145024
8   0.353488
9   0.061185
10   -0.712489
11   -0.644748
12   -0.633216
13   0.137733
14   0.134202
15   0.174264
16   0.131998
17   0.145723
18   0.117255
19   0.129351
20   0.143222
21   0.104433
22   0.285991
23   0.308047
24   0.407305
25   0.397155

>  <lowdin_charges>  (847) 
25
1   -0.456921
2   -0.143634
3   -0.179152
4   -0.216246
5   -0.205985
6   -0.079819
7   0.00092
8   0.101853
9   -0.016452
10   -0.545195
11   -0.378405
12   -0.456792
13   0.146261
14   0.142664
15   0.169354
16   0.160439
17   0.169398
18   0.150851
19   0.1629
20   0.146493
21   0.124179
22   0.24843
23   0.257685
24   0.355798
25   0.341377

$$$$
PCCDB-ID:  5910
     RDKit          3D

 31 32  0  0  1  0  0  0  0  0999 V2000
    1.9683    0.8286    1.8035 C   0  0  0  0  0  0  0  0  0  0  0  0
    5.3645   -0.7683    5.0374 C   0  0  0  0  0  0  0  0  0  0  0  0
    2.2951   -0.6392    2.0941 C   0  0  0  0  0  0  0  0  0  0  0  0
    5.4217   -1.1456    1.9568 C   0  0  0  0  0  0  0  0  0  0  0  0
    5.6496    1.4630    2.2100 C   0  0  0  0  0  0  0  0  0  0  0  0
    4.8106   -2.3996   -0.1690 C   0  0  0  0  0  0  0  0  0  0  0  0
    5.6304    1.6293    4.3332 C   0  0  0  0  0  0  0  0  0  0  0  0
    4.5337   -1.1500    0.6882 C   0  0  1  0  0  0  0  0  0  0  0  0
    5.4950    0.1733    2.6715 C   0  0  0  0  0  0  0  0  0  0  0  0
    3.0185   -1.3546    0.9483 C   0  0  1  0  0  0  0  0  0  0  0  0
    2.9204   -2.8813    1.0421 C   0  0  0  0  0  0  0  0  0  0  0  0
    5.7286    2.3625    3.2476 N   0  0  0  0  0  0  0  0  0  0  0  0
    5.4891    0.2955    4.0554 N   0  0  0  0  0  0  0  0  0  0  0  0
    2.0768   -3.5455    1.5870 O   0  0  0  0  0  0  0  0  0  0  0  0
    3.9741   -3.4409    0.3794 O   0  0  0  0  0  0  0  0  0  0  0  0
    2.8742    1.4272    1.6659 H   0  0  0  0  0  0  0  0  0  0  0  0
    1.3549    0.9221    0.8985 H   0  0  0  0  0  0  0  0  0  0  0  0
    1.4033    1.2693    2.6321 H   0  0  0  0  0  0  0  0  0  0  0  0
    5.3970   -0.3247    6.0348 H   0  0  0  0  0  0  0  0  0  0  0  0
    6.1860   -1.4867    4.9490 H   0  0  0  0  0  0  0  0  0  0  0  0
    4.4145   -1.3015    4.9260 H   0  0  0  0  0  0  0  0  0  0  0  0
    1.3706   -1.1982    2.2803 H   0  0  0  0  0  0  0  0  0  0  0  0
    2.8846   -0.7157    3.0155 H   0  0  0  0  0  0  0  0  0  0  0  0
    5.0779   -1.9317    2.6407 H   0  0  0  0  0  0  0  0  0  0  0  0
    6.4356   -1.4469    1.6547 H   0  0  0  0  0  0  0  0  0  0  0  0
    5.7148    1.7940    1.1813 H   0  0  0  0  0  0  0  0  0  0  0  0
    5.8434   -2.7539   -0.1247 H   0  0  0  0  0  0  0  0  0  0  0  0
    4.5332   -2.2433   -1.2190 H   0  0  0  0  0  0  0  0  0  0  0  0
    5.6534    1.9962    5.3516 H   0  0  0  0  0  0  0  0  0  0  0  0
    4.7289   -0.2443    0.1062 H   0  0  0  0  0  0  0  0  0  0  0  0
    2.4956   -1.0988    0.0108 H   0  0  0  0  0  0  0  0  0  0  0  0
  1  3  1  0
  1 18  1  0
  2 19  1  0
  3 22  1  0
  3 23  1  0
  4 24  1  0
  4  9  1  0
  5  9  2  0
  5 12  1  0
  6 27  1  0
  6 15  1  0
  6  8  1  0
  7 29  1  0
  8 30  1  6
  8 10  1  0
  8  4  1  0
  9 13  1  0
 10 31  1  6
 10 11  1  0
 10  3  1  0
 11 14  2  0
 12  7  2  0
 13  7  1  0
 13  2  1  0
 15 11  1  0
 16  1  1  0
 17  1  1  0
 20  2  1  0
 21  2  1  0
 25  4  1  0
 26  5  1  0
 28  6  1  0
M  END
>  <HBA>  (848) 
4

>  <HBD>  (848) 
0

>  <TPSA>  (848) 
44.12

>  <cid>  (848) 
5910

>  <dipole>  (848) 
1.96

>  <excitation_energy_1>  (848) 
5.253

>  <excitation_energy_2>  (848) 
5.397

>  <excitation_energy_3>  (848) 
5.601

>  <excitation_energy_4>  (848) 
5.65

>  <homo_energy>  (848) 
-6.036

>  <homo_lumo_gap>  (848) 
6.234

>  <logP>  (848) 
1.162

>  <lumo_energy>  (848) 
0.199

>  <melting_point>  (848) 
56.86

>  <molecular_refractivity>  (848) 
56.47

>  <oscillator_strength_1>  (848) 
0.0005

>  <oscillator_strength_2>  (848) 
0.0028

>  <oscillator_strength_3>  (848) 
0.0139

>  <oscillator_strength_4>  (848) 
0.0007

>  <open_babel_can_smiles>  (848) 
CC[C@@H]1C(=O)OC[C@@H]1Cc1cncn1C

>  <mulliken_charges>  (848) 
31
1   -0.45982
2   -0.334425
3   -0.261703
4   -0.364275
5   -0.090581
6   -0.045668
7   0.189541
8   -0.138608
9   0.321294
10   -0.200462
11   0.622403
12   -0.432836
13   -0.422885
14   -0.463568
15   -0.456379
16   0.167445
17   0.139443
18   0.149433
19   0.178513
20   0.178585
21   0.183977
22   0.168575
23   0.139393
24   0.157756
25   0.162452
26   0.128284
27   0.160681
28   0.15551
29   0.150688
30   0.152711
31   0.164526

>  <lowdin_charges>  (848) 
31
1   -0.450581
2   -0.349928
3   -0.271659
4   -0.278144
5   -0.173878
6   -0.127854
7   -0.101674
8   -0.139283
9   -0.02194
10   -0.1635
11   0.18607
12   -0.185356
13   -0.018811
14   -0.237989
15   -0.191678
16   0.158418
17   0.145657
18   0.155638
19   0.171205
20   0.164198
21   0.163724
22   0.162784
23   0.145258
24   0.158465
25   0.158266
26   0.155185
27   0.154913
28   0.14676
29   0.163069
30   0.156596
31   0.16607

$$$$
PCCDB-ID:  5916
     RDKit          3D

 35 36  0  0  0  0  0  0  0  0999 V2000
    1.1839    0.1418    0.8843 C   0  0  0  0  0  0  0  0  0  0  0  0
    4.5941    3.8835    0.0274 C   0  0  0  0  0  0  0  0  0  0  0  0
    6.4770    2.7597   -1.1939 C   0  0  0  0  0  0  0  0  0  0  0  0
    0.7435   -6.8160   -0.5946 C   0  0  0  0  0  0  0  0  0  0  0  0
    1.9921   -6.7325   -1.2134 C   0  0  0  0  0  0  0  0  0  0  0  0
    0.1749   -5.6735   -0.0172 C   0  0  0  0  0  0  0  0  0  0  0  0
    2.6680   -5.5143   -1.2545 C   0  0  0  0  0  0  0  0  0  0  0  0
    0.8440   -4.4555   -0.0550 C   0  0  0  0  0  0  0  0  0  0  0  0
    5.0659    0.2963   -1.0208 C   0  0  0  0  0  0  0  0  0  0  0  0
    4.3706   -0.8954   -0.9630 C   0  0  0  0  0  0  0  0  0  0  0  0
    3.2448    1.3816    0.1557 C   0  0  0  0  0  0  0  0  0  0  0  0
    2.5387    0.1839    0.2179 C   0  0  0  0  0  0  0  0  0  0  0  0
    2.1020   -4.3680   -0.6781 C   0  0  0  0  0  0  0  0  0  0  0  0
    4.5179    1.4773   -0.4555 C   0  0  0  0  0  0  0  0  0  0  0  0
    3.1063   -0.9809   -0.3502 C   0  0  0  0  0  0  0  0  0  0  0  0
    2.8797   -3.1883   -0.7799 N   0  0  0  0  0  2  0  0  0  0  0  0
    2.3517   -2.1601   -0.2616 N   0  0  0  0  0  2  0  0  0  0  0  0
    5.2033    2.6739   -0.4988 N   0  0  0  0  0  0  0  0  0  0  0  0
    0.9077    1.1296    1.2667 H   0  0  0  0  0  0  0  0  0  0  0  0
    1.1731   -0.5667    1.7192 H   0  0  0  0  0  0  0  0  0  0  0  0
    0.4068   -0.1877    0.1865 H   0  0  0  0  0  0  0  0  0  0  0  0
    5.2889    4.7164   -0.0924 H   0  0  0  0  0  0  0  0  0  0  0  0
    4.3659    3.7867    1.0972 H   0  0  0  0  0  0  0  0  0  0  0  0
    3.6618    4.1396   -0.4968 H   0  0  0  0  0  0  0  0  0  0  0  0
    6.8636    3.7765   -1.1091 H   0  0  0  0  0  0  0  0  0  0  0  0
    6.3832    2.5188   -2.2628 H   0  0  0  0  0  0  0  0  0  0  0  0
    7.2207    2.0800   -0.7575 H   0  0  0  0  0  0  0  0  0  0  0  0
    0.2135   -7.7641   -0.5599 H   0  0  0  0  0  0  0  0  0  0  0  0
    2.4388   -7.6154   -1.6629 H   0  0  0  0  0  0  0  0  0  0  0  0
   -0.7973   -5.7390    0.4653 H   0  0  0  0  0  0  0  0  0  0  0  0
    3.6401   -5.4206   -1.7294 H   0  0  0  0  0  0  0  0  0  0  0  0
    0.4177   -3.5620    0.3868 H   0  0  0  0  0  0  0  0  0  0  0  0
    6.0355    0.3169   -1.5038 H   0  0  0  0  0  0  0  0  0  0  0  0
    4.7893   -1.7978   -1.3951 H   0  0  0  0  0  0  0  0  0  0  0  0
    2.7910    2.2624    0.5945 H   0  0  0  0  0  0  0  0  0  0  0  0
  1 19  1  0
  1 20  1  0
  2 23  1  0
  3 25  1  0
  3 27  1  0
  3 18  1  0
  4 28  1  0
  4  6  2  0
  5  4  1  0
  6 30  1  0
  7  5  2  0
  7 13  1  0
  8  6  1  0
  8 32  1  0
  9 10  2  0
  9 14  1  0
 10 15  1  0
 11 12  1  0
 11 35  1  0
 12  1  1  0
 13  8  2  0
 14 11  2  0
 15 17  1  0
 15 12  2  0
 16 13  1  0
 16 17  1  0
 18 14  1  0
 18  2  1  0
 21  1  1  0
 22  2  1  0
 24  2  1  0
 26  3  1  0
 29  5  1  0
 31  7  1  0
 33  9  1  0
 34 10  1  0
M  RAD  2  16   2  17   2
M  END
>  <HBA>  (849) 
3

>  <HBD>  (849) 
0

>  <TPSA>  (849) 
27.96

>  <cid>  (849) 
5916

>  <dipole>  (849) 
3.94

>  <excitation_energy_1>  (849) 
2.607

>  <excitation_energy_2>  (849) 
3.041

>  <excitation_energy_3>  (849) 
3.987

>  <excitation_energy_4>  (849) 
4.112

>  <homo_energy>  (849) 
-5.021

>  <homo_lumo_gap>  (849) 
3.284

>  <logP>  (849) 
4.476

>  <lumo_energy>  (849) 
-1.736

>  <melting_point>  (849) 
76.0

>  <molecular_refractivity>  (849) 
76.23

>  <oscillator_strength_1>  (849) 
0.0

>  <oscillator_strength_2>  (849) 
0.8918

>  <oscillator_strength_3>  (849) 
0.0035

>  <oscillator_strength_4>  (849) 
0.0055

>  <open_babel_can_smiles>  (849) 
Cc1cc(ccc1[N][N]c1ccccc1)N(C)C

>  <mulliken_charges>  (849) 
35
1   -0.516813
2   -0.311562
3   -0.313196
4   -0.121831
5   -0.138469
6   -0.14597
7   -0.144693
8   -0.130411
9   -0.211533
10   -0.134854
11   -0.282684
12   0.165683
13   0.275669
14   0.399482
15   0.217636
16   -0.327544
17   -0.322637
18   -0.477649
19   0.140928
20   0.17045
21   0.170313
22   0.157632
23   0.16554
24   0.161749
25   0.157785
26   0.162239
27   0.165978
28   0.12768
29   0.128906
30   0.129202
31   0.134537
32   0.148344
33   0.127114
34   0.153545
35   0.119434

>  <lowdin_charges>  (849) 
35
1   -0.440657
2   -0.348832
3   -0.347818
4   -0.15551
5   -0.159479
6   -0.15388
7   -0.151836
8   -0.158748
9   -0.209241
10   -0.13631
11   -0.22715
12   0.023343
13   0.015181
14   0.069097
15   -0.02948
16   -0.104839
17   -0.083906
18   -0.10131
19   0.148948
20   0.167297
21   0.167651
22   0.159878
23   0.151316
24   0.149589
25   0.158532
26   0.147779
27   0.154376
28   0.156914
29   0.158195
30   0.156008
31   0.16339
32   0.170367
33   0.159589
34   0.173323
35   0.158224

$$$$
PCCDB-ID:  5917
     RDKit          3D

 20 21  0  0  0  0  0  0  0  0999 V2000
    2.6084   -0.0691   -0.0597 C   0  0  0  0  0  0  0  0  0  0  0  0
    1.7432   -1.2100   -0.6331 C   0  0  0  0  0  0  0  0  0  0  0  0
    1.8353    1.1000    0.5845 C   0  0  0  0  0  0  0  0  0  0  0  0
    0.5503   -1.6171    0.2504 C   0  0  0  0  0  0  0  0  0  0  0  0
    0.6057    1.5725   -0.1968 C   0  0  0  0  0  0  0  0  0  0  0  0
   -0.6059   -0.6674    0.1690 C   0  0  0  0  0  0  0  0  0  0  0  0
   -1.8834   -1.0019    0.2554 N   0  0  0  0  0  0  0  0  0  0  0  0
   -2.5888    0.1516    0.1228 N   0  0  0  0  0  0  0  0  0  0  0  0
   -1.8008    1.1627   -0.0442 N   0  0  0  0  0  0  0  0  0  0  0  0
   -0.5356    0.6719   -0.0189 N   0  0  0  0  0  0  0  0  0  0  0  0
    3.2445    0.3185   -0.8659 H   0  0  0  0  0  0  0  0  0  0  0  0
    3.2913   -0.4767    0.6967 H   0  0  0  0  0  0  0  0  0  0  0  0
    2.3830   -2.0861   -0.7892 H   0  0  0  0  0  0  0  0  0  0  0  0
    1.3656   -0.9342   -1.6263 H   0  0  0  0  0  0  0  0  0  0  0  0
    2.5140    1.9539    0.6951 H   0  0  0  0  0  0  0  0  0  0  0  0
    1.5141    0.8358    1.5998 H   0  0  0  0  0  0  0  0  0  0  0  0
    0.8713   -1.7227    1.2965 H   0  0  0  0  0  0  0  0  0  0  0  0
    0.1652   -2.5965   -0.0491 H   0  0  0  0  0  0  0  0  0  0  0  0
    0.8265    1.6643   -1.2674 H   0  0  0  0  0  0  0  0  0  0  0  0
    0.2647    2.5487    0.1550 H   0  0  0  0  0  0  0  0  0  0  0  0
  1  3  1  0
  1 12  1  0
  2  1  1  0
  2  4  1  0
  3 15  1  0
  3 16  1  0
  4 17  1  0
  5 10  1  0
  5 20  1  0
  5  3  1  0
  6  4  1  0
  6  7  2  0
  8  7  1  0
  9 10  1  0
  9  8  2  0
 10  6  1  0
 11  1  1  0
 13  2  1  0
 14  2  1  0
 18  4  1  0
 19  5  1  0
M  END
>  <HBA>  (850) 
4

>  <HBD>  (850) 
0

>  <TPSA>  (850) 
43.6

>  <cid>  (850) 
5917

>  <dipole>  (850) 
6.64

>  <excitation_energy_1>  (850) 
5.8

>  <excitation_energy_2>  (850) 
6.161

>  <excitation_energy_3>  (850) 
6.66

>  <excitation_energy_4>  (850) 
6.744

>  <homo_energy>  (850) 
-7.366

>  <homo_lumo_gap>  (850) 
7.219

>  <logP>  (850) 
0.4

>  <lumo_energy>  (850) 
-0.147

>  <melting_point>  (850) 
77.42

>  <molecular_refractivity>  (850) 
36.35

>  <oscillator_strength_1>  (850) 
0.0008

>  <oscillator_strength_2>  (850) 
0.0085

>  <oscillator_strength_3>  (850) 
0.0063

>  <oscillator_strength_4>  (850) 
0.0698

>  <open_babel_can_smiles>  (850) 
C1CCn2c(CC1)nnn2

>  <mulliken_charges>  (850) 
20
1   -0.265337
2   -0.28327
3   -0.296077
4   -0.332305
5   -0.138233
6   0.550907
7   -0.379099
8   -0.096313
9   -0.073016
10   -0.332179
11   0.145929
12   0.147537
13   0.153756
14   0.151745
15   0.159241
16   0.160906
17   0.171869
18   0.187756
19   0.175186
20   0.190997

>  <lowdin_charges>  (850) 
20
1   -0.284111
2   -0.281665
3   -0.287415
4   -0.275182
5   -0.190033
6   0.039485
7   -0.163797
8   -0.078697
9   -0.0981
10   0.016591
11   0.150378
12   0.151662
13   0.157958
14   0.148335
15   0.16233
16   0.153809
17   0.163458
18   0.179737
19   0.158247
20   0.177011

$$$$
PCCDB-ID:  5918
     RDKit          3D

 15 15  0  0  0  0  0  0  0  0999 V2000
   -0.7947    1.1416   -0.0705 C   0  0  0  0  0  0  0  0  0  0  0  0
   -1.3824   -0.0879   -0.0671 C   0  0  0  0  0  0  0  0  0  0  0  0
    0.7574   -1.1621   -0.0325 C   0  0  0  0  0  0  0  0  0  0  0  0
    0.6457    1.3015   -0.0664 C   0  0  0  0  0  0  0  0  0  0  0  0
    1.4082    0.0359   -0.0301 C   0  0  0  0  0  0  0  0  0  0  0  0
    1.3361    2.4031   -0.1036 N   0  0  0  0  0  0  0  0  0  0  0  0
    2.7836    0.1776    0.0459 N   0  0  0  0  0  0  0  0  0  0  0  0
   -0.6299   -1.2229   -0.0562 N   0  0  0  0  0  0  0  0  0  0  0  0
   -1.4222    2.0275   -0.0927 H   0  0  0  0  0  0  0  0  0  0  0  0
   -2.4578   -0.2285   -0.0779 H   0  0  0  0  0  0  0  0  0  0  0  0
    1.2724   -2.1154   -0.0063 H   0  0  0  0  0  0  0  0  0  0  0  0
    0.7152    3.2160   -0.1354 H   0  0  0  0  0  0  0  0  0  0  0  0
    3.3424   -0.5401   -0.3960 H   0  0  0  0  0  0  0  0  0  0  0  0
    3.0575    1.1304   -0.1837 H   0  0  0  0  0  0  0  0  0  0  0  0
   -1.0795   -2.1247   -0.0462 H   0  0  0  0  0  0  0  0  0  0  0  0
  1  2  2  0
  1  4  1  0
  2  8  1  0
  3  5  2  0
  3 11  1  0
  4  5  1  0
  5  7  1  0
  6  4  2  0
  8 15  1  0
  8  3  1  0
  9  1  1  0
 10  2  1  0
 12  6  1  0
 13  7  1  0
 14  7  1  0
M  END
>  <HBA>  (851) 
3

>  <HBD>  (851) 
2

>  <TPSA>  (851) 
64.93

>  <cid>  (851) 
5918

>  <dipole>  (851) 
4.6

>  <excitation_energy_1>  (851) 
3.738

>  <excitation_energy_2>  (851) 
4.288

>  <excitation_energy_3>  (851) 
4.415

>  <excitation_energy_4>  (851) 
4.595

>  <homo_energy>  (851) 
-4.612

>  <homo_lumo_gap>  (851) 
4.759

>  <logP>  (851) 
1.408

>  <lumo_energy>  (851) 
0.147

>  <melting_point>  (851) 
118.13

>  <molecular_refractivity>  (851) 
33.05

>  <oscillator_strength_1>  (851) 
0.0002

>  <oscillator_strength_2>  (851) 
0.0572

>  <oscillator_strength_3>  (851) 
0.1329

>  <oscillator_strength_4>  (851) 
0.0383

>  <open_babel_can_smiles>  (851) 
N=c1cc[nH]cc1N

>  <mulliken_charges>  (851) 
15
1   -0.23166
2   0.084481
3   -0.00354
4   0.324634
5   0.2686
6   -0.72267
7   -0.80271
8   -0.60324
9   0.125212
10   0.153071
11   0.141854
12   0.266223
13   0.308766
14   0.355447
15   0.335531

>  <lowdin_charges>  (851) 
15
1   -0.243809
2   -0.098983
3   -0.176208
4   0.041342
5   0.031745
6   -0.472751
7   -0.48485
8   -0.185619
9   0.161978
10   0.162677
11   0.160939
12   0.243118
13   0.272676
14   0.293783
15   0.293961

$$$$
PCCDB-ID:  5921
     RDKit          3D

 17 16  0  0  0  0  0  0  0  0999 V2000
    2.6405   -0.8641   -0.7686 C   0  0  0  0  0  0  0  0  0  0  0  0
    1.9411    2.8170    1.7030 C   0  0  0  0  0  0  0  0  0  0  0  0
    3.0076   -0.2762    0.5967 C   0  0  0  0  0  0  0  0  0  0  0  0
    2.3804    2.1990    0.3716 C   0  0  0  0  0  0  0  0  0  0  0  0
    4.6762    1.4104    0.6781 N   0  0  0  0  0  0  0  0  0  0  0  0
    3.3721    1.1356    0.5445 N   0  0  0  0  0  0  0  0  0  0  0  0
    4.9631    2.6063    0.6417 O   0  0  0  0  0  0  0  0  0  0  0  0
    2.3785   -1.9226   -0.6618 H   0  0  0  0  0  0  0  0  0  0  0  0
    3.4857   -0.7847   -1.4597 H   0  0  0  0  0  0  0  0  0  0  0  0
    1.7817   -0.3520   -1.2169 H   0  0  0  0  0  0  0  0  0  0  0  0
    1.1979    3.6023    1.5254 H   0  0  0  0  0  0  0  0  0  0  0  0
    2.7993    3.2624    2.2127 H   0  0  0  0  0  0  0  0  0  0  0  0
    1.4923    2.0666    2.3633 H   0  0  0  0  0  0  0  0  0  0  0  0
    3.8772   -0.7925    1.0123 H   0  0  0  0  0  0  0  0  0  0  0  0
    2.1781   -0.3964    1.3053 H   0  0  0  0  0  0  0  0  0  0  0  0
    2.8401    2.9616   -0.2630 H   0  0  0  0  0  0  0  0  0  0  0  0
    1.5284    1.7686   -0.1629 H   0  0  0  0  0  0  0  0  0  0  0  0
  1  8  1  0
  1  3  1  0
  2 12  1  0
  2 13  1  0
  3 14  1  0
  3 15  1  0
  4  6  1  0
  4  2  1  0
  6  3  1  0
  6  5  1  0
  7  5  2  0
  9  1  1  0
 10  1  1  0
 11  2  1  0
 16  4  1  0
 17  4  1  0
M  END
>  <HBA>  (852) 
3

>  <HBD>  (852) 
0

>  <TPSA>  (852) 
32.67

>  <cid>  (852) 
5921

>  <dipole>  (852) 
4.06

>  <excitation_energy_1>  (852) 
3.382

>  <excitation_energy_2>  (852) 
5.579

>  <excitation_energy_3>  (852) 
5.815

>  <excitation_energy_4>  (852) 
6.038

>  <homo_energy>  (852) 
-5.935

>  <homo_lumo_gap>  (852) 
5.233

>  <logP>  (852) 
1.01

>  <lumo_energy>  (852) 
-0.702

>  <melting_point>  (852) 
-3.55

>  <molecular_refractivity>  (852) 
28.98

>  <oscillator_strength_1>  (852) 
0.0011

>  <oscillator_strength_2>  (852) 
0.0084

>  <oscillator_strength_3>  (852) 
0.164

>  <oscillator_strength_4>  (852) 
0.0012

>  <open_babel_can_smiles>  (852) 
CCN(N=O)CC

>  <mulliken_charges>  (852) 
17
1   -0.447815
2   -0.446246
3   -0.137919
4   -0.149854
5   0.145517
6   -0.20358
7   -0.388373
8   0.155177
9   0.168184
10   0.153428
11   0.152065
12   0.182711
13   0.147068
14   0.179164
15   0.154055
16   0.185176
17   0.151243

>  <lowdin_charges>  (852) 
17
1   -0.4523
2   -0.451197
3   -0.19968
4   -0.216091
5   0.047121
6   -0.042244
7   -0.280287
8   0.157731
9   0.161838
10   0.152843
11   0.157883
12   0.169075
13   0.150969
14   0.168789
15   0.149836
16   0.171832
17   0.153882

$$$$
PCCDB-ID:  5929
     RDKit          3D

 25 25  0  0  1  0  0  0  0  0999 V2000
    0.6961    0.1654    0.3626 C   0  0  0  0  0  0  0  0  0  0  0  0
    1.3735   -5.0303   -0.4560 C   0  0  0  0  0  0  0  0  0  0  0  0
    0.6809   -4.1927   -1.3308 C   0  0  0  0  0  0  0  0  0  0  0  0
    2.4714   -4.5315    0.2487 C   0  0  0  0  0  0  0  0  0  0  0  0
    1.0841   -2.8663   -1.4977 C   0  0  0  0  0  0  0  0  0  0  0  0
    2.8696   -3.2059    0.0777 C   0  0  0  0  0  0  0  0  0  0  0  0
    2.6179   -0.9099   -0.9587 C   0  0  0  0  0  0  0  0  0  0  0  0
    2.2153    0.0112    0.2149 C   0  0  1  0  0  0  0  0  0  0  0  0
    2.1810   -2.3505   -0.7954 C   0  0  0  0  0  0  0  0  0  0  0  0
    2.6599    2.1759    1.1806 N   0  0  0  0  0  0  0  0  0  0  0  0
    2.9441    1.2836    0.0308 N   0  0  0  0  0  0  0  0  0  0  0  0
    0.2207   -0.7910    0.6035 H   0  0  0  0  0  0  0  0  0  0  0  0
    0.2558    0.5334   -0.5746 H   0  0  0  0  0  0  0  0  0  0  0  0
    0.4651    0.8867    1.1506 H   0  0  0  0  0  0  0  0  0  0  0  0
    1.0643   -6.0642   -0.3272 H   0  0  0  0  0  0  0  0  0  0  0  0
   -0.1723   -4.5713   -1.8879 H   0  0  0  0  0  0  0  0  0  0  0  0
    3.0228   -5.1778    0.9269 H   0  0  0  0  0  0  0  0  0  0  0  0
    0.5411   -2.2212   -2.1850 H   0  0  0  0  0  0  0  0  0  0  0  0
    3.7322   -2.8284    0.6232 H   0  0  0  0  0  0  0  0  0  0  0  0
    3.7085   -0.8554   -1.0571 H   0  0  0  0  0  0  0  0  0  0  0  0
    2.1958   -0.5008   -1.8874 H   0  0  0  0  0  0  0  0  0  0  0  0
    2.6165   -0.4336    1.1382 H   0  0  0  0  0  0  0  0  0  0  0  0
    3.2533    2.9894    0.9973 H   0  0  0  0  0  0  0  0  0  0  0  0
    3.1430    1.7169    1.9586 H   0  0  0  0  0  0  0  0  0  0  0  0
    2.4823    1.7615   -0.7482 H   0  0  0  0  0  0  0  0  0  0  0  0
  1 12  1  0
  1 14  1  0
  2 15  1  0
  2  4  2  0
  3  2  1  0
  4 17  1  0
  5  3  2  0
  5  9  1  0
  6  4  1  0
  6 19  1  0
  7  9  1  0
  7  8  1  0
  8  1  1  0
  8 22  1  1
  9  6  2  0
 10 24  1  0
 11  8  1  0
 11 10  1  0
 13  1  1  0
 16  3  1  0
 18  5  1  0
 20  7  1  0
 21  7  1  0
 23 10  1  0
 25 11  1  0
M  END
>  <HBA>  (853) 
2

>  <HBD>  (853) 
2

>  <TPSA>  (853) 
38.05

>  <cid>  (853) 
5929

>  <dipole>  (853) 
0.46

>  <excitation_energy_1>  (853) 
4.626

>  <excitation_energy_2>  (853) 
4.792

>  <excitation_energy_3>  (853) 
4.81

>  <excitation_energy_4>  (853) 
5.208

>  <homo_energy>  (853) 
-5.276

>  <homo_lumo_gap>  (853) 
5.336

>  <logP>  (853) 
2.172

>  <lumo_energy>  (853) 
0.06

>  <melting_point>  (853) 
87.25

>  <molecular_refractivity>  (853) 
46.53

>  <oscillator_strength_1>  (853) 
0.0003

>  <oscillator_strength_2>  (853) 
0.0003

>  <oscillator_strength_3>  (853) 
0.001

>  <oscillator_strength_4>  (853) 
0.008

>  <open_babel_can_smiles>  (853) 
NN[C@H](Cc1ccccc1)C

>  <mulliken_charges>  (853) 
25
1   -0.452089
2   -0.131496
3   -0.127918
4   -0.128328
5   -0.18356
6   -0.181675
7   -0.351993
8   0.037188
9   0.175164
10   -0.592825
11   -0.467054
12   0.151866
13   0.12509
14   0.174259
15   0.12715
16   0.127704
17   0.127562
18   0.122759
19   0.123987
20   0.158545
21   0.131262
22   0.126759
23   0.305087
24   0.303448
25   0.299108

>  <lowdin_charges>  (853) 
25
1   -0.466531
2   -0.160574
3   -0.156213
4   -0.156798
5   -0.169888
6   -0.167402
7   -0.276419
8   -0.066657
9   0.000142
10   -0.4971
11   -0.322741
12   0.156555
13   0.140628
14   0.165799
15   0.155414
16   0.157288
17   0.157945
18   0.155437
19   0.154836
20   0.157745
21   0.144263
22   0.135582
23   0.255687
24   0.253077
25   0.249925

$$$$
PCCDB-ID:  5931
     RDKit          3D

 18 18  0  0  0  0  0  0  0  0999 V2000
    1.1231   -0.0396   -0.4035 C   0  0  0  0  0  0  0  0  0  0  0  0
    4.5853    1.1644    0.3671 C   0  0  0  0  0  0  0  0  0  0  0  0
    2.5606    2.4446    0.1282 C   0  0  0  0  0  0  0  0  0  0  0  0
    5.3181    2.3413    0.4915 C   0  0  0  0  0  0  0  0  0  0  0  0
    3.2935    3.6235    0.2605 C   0  0  0  0  0  0  0  0  0  0  0  0
    3.1916    1.1895    0.1846 C   0  0  0  0  0  0  0  0  0  0  0  0
    4.6759    3.5824    0.4421 C   0  0  0  0  0  0  0  0  0  0  0  0
    2.4807   -0.0164    0.1087 N   0  0  0  0  0  0  0  0  0  0  0  0
    5.3457    4.7779    0.5598 O   0  0  0  0  0  0  0  0  0  0  0  0
    0.7908   -1.0794   -0.4659 H   0  0  0  0  0  0  0  0  0  0  0  0
    1.0142    0.4237   -1.3991 H   0  0  0  0  0  0  0  0  0  0  0  0
    0.4470    0.4801    0.2850 H   0  0  0  0  0  0  0  0  0  0  0  0
    5.1008    0.2074    0.4173 H   0  0  0  0  0  0  0  0  0  0  0  0
    1.4880    2.5109   -0.0197 H   0  0  0  0  0  0  0  0  0  0  0  0
    6.3973    2.2899    0.6285 H   0  0  0  0  0  0  0  0  0  0  0  0
    2.7978    4.5884    0.2162 H   0  0  0  0  0  0  0  0  0  0  0  0
    3.0483   -0.7836   -0.2281 H   0  0  0  0  0  0  0  0  0  0  0  0
    6.2887    4.5927    0.6858 H   0  0  0  0  0  0  0  0  0  0  0  0
  1  8  1  0
  1 12  1  0
  2 13  1  0
  2  4  2  0
  3  6  2  0
  3  5  1  0
  4 15  1  0
  5  7  2  0
  6  2  1  0
  7  4  1  0
  7  9  1  0
  8  6  1  0
  9 18  1  0
 10  1  1  0
 11  1  1  0
 14  3  1  0
 16  5  1  0
 17  8  1  0
M  END
>  <HBA>  (854) 
2

>  <HBD>  (854) 
2

>  <TPSA>  (854) 
32.26

>  <cid>  (854) 
5931

>  <dipole>  (854) 
2.17

>  <excitation_energy_1>  (854) 
4.199

>  <excitation_energy_2>  (854) 
4.367

>  <excitation_energy_3>  (854) 
4.479

>  <excitation_energy_4>  (854) 
4.846

>  <homo_energy>  (854) 
-4.833

>  <homo_lumo_gap>  (854) 
5.001

>  <logP>  (854) 
1.507

>  <lumo_energy>  (854) 
0.169

>  <melting_point>  (854) 
78.84

>  <molecular_refractivity>  (854) 
37.77

>  <oscillator_strength_1>  (854) 
0.0433

>  <oscillator_strength_2>  (854) 
0.0073

>  <oscillator_strength_3>  (854) 
0.0036

>  <oscillator_strength_4>  (854) 
0.0155

>  <open_babel_can_smiles>  (854) 
CNc1ccc(cc1)O

>  <mulliken_charges>  (854) 
18
1   -0.305194
2   -0.193996
3   -0.186943
4   -0.197174
5   -0.169311
6   0.338748
7   0.342987
8   -0.635372
9   -0.653769
10   0.152452
11   0.142342
12   0.163544
13   0.116094
14   0.124604
15   0.113571
16   0.134624
17   0.31045
18   0.402344

>  <lowdin_charges>  (854) 
18
1   -0.353688
2   -0.187561
3   -0.19196
4   -0.201174
5   -0.176459
6   0.040048
7   0.078749
8   -0.30915
9   -0.390053
10   0.15516
11   0.13368
12   0.154367
13   0.152156
14   0.157355
15   0.149147
16   0.16494
17   0.271669
18   0.352773

$$$$
PCCDB-ID:  5934
     RDKit          3D

 35 36  0  0  0  0  0  0  0  0999 V2000
    1.5668   -1.4020    4.3987 C   0  0  0  0  0  0  0  0  0  0  0  0
    7.0207   -9.9877   -0.8858 C   0  0  0  0  0  0  0  0  0  0  0  0
    7.8774   -8.8075   -2.9274 C   0  0  0  0  0  0  0  0  0  0  0  0
    3.0956   -0.3351    1.0556 C   0  0  0  0  0  0  0  0  0  0  0  0
    2.4066   -0.2951    2.2748 C   0  0  0  0  0  0  0  0  0  0  0  0
    3.6816   -1.5128    0.6117 C   0  0  0  0  0  0  0  0  0  0  0  0
    5.1953   -6.3869    0.3762 C   0  0  0  0  0  0  0  0  0  0  0  0
    6.0171   -5.2527   -1.5874 C   0  0  0  0  0  0  0  0  0  0  0  0
    5.7759   -7.5636   -0.0595 C   0  0  0  0  0  0  0  0  0  0  0  0
    6.6051   -6.4257   -2.0357 C   0  0  0  0  0  0  0  0  0  0  0  0
    2.8845   -2.6224    2.6174 C   0  0  0  0  0  0  0  0  0  0  0  0
    2.2932   -1.4384    3.0734 C   0  0  0  0  0  0  0  0  0  0  0  0
    5.3042   -5.2048   -0.3806 C   0  0  0  0  0  0  0  0  0  0  0  0
    3.5758   -2.6720    1.4012 C   0  0  0  0  0  0  0  0  0  0  0  0
    6.4974   -7.6208   -1.2831 C   0  0  0  0  0  0  0  0  0  0  0  0
    4.7573   -3.9592   -0.0302 N   0  0  0  0  0  2  0  0  0  0  0  0
    4.1218   -3.9362    1.0640 N   0  0  0  0  0  2  0  0  0  0  0  0
    7.0684   -8.7988   -1.7204 N   0  0  0  0  0  0  0  0  0  0  0  0
    1.0080   -0.4689    4.5231 H   0  0  0  0  0  0  0  0  0  0  0  0
    2.2672   -1.4826    5.2401 H   0  0  0  0  0  0  0  0  0  0  0  0
    0.8583   -2.2336    4.4902 H   0  0  0  0  0  0  0  0  0  0  0  0
    7.5126  -10.8105   -1.4071 H   0  0  0  0  0  0  0  0  0  0  0  0
    5.9863  -10.2925   -0.6805 H   0  0  0  0  0  0  0  0  0  0  0  0
    7.5296   -9.8411    0.0784 H   0  0  0  0  0  0  0  0  0  0  0  0
    8.2390   -9.8207   -3.1100 H   0  0  0  0  0  0  0  0  0  0  0  0
    8.7498   -8.1421   -2.8472 H   0  0  0  0  0  0  0  0  0  0  0  0
    7.2936   -8.4963   -3.8036 H   0  0  0  0  0  0  0  0  0  0  0  0
    3.1683    0.5658    0.4513 H   0  0  0  0  0  0  0  0  0  0  0  0
    1.9525    0.6361    2.6060 H   0  0  0  0  0  0  0  0  0  0  0  0
    4.2176   -1.5650   -0.3291 H   0  0  0  0  0  0  0  0  0  0  0  0
    4.6480   -6.3557    1.3121 H   0  0  0  0  0  0  0  0  0  0  0  0
    6.1020   -4.3384   -2.1678 H   0  0  0  0  0  0  0  0  0  0  0  0
    5.6731   -8.4521    0.5525 H   0  0  0  0  0  0  0  0  0  0  0  0
    7.1506   -6.4132   -2.9714 H   0  0  0  0  0  0  0  0  0  0  0  0
    2.8200   -3.5378    3.2003 H   0  0  0  0  0  0  0  0  0  0  0  0
  1 21  1  0
  1 19  1  0
  1 20  1  0
  2 23  1  0
  2 24  1  0
  3 26  1  0
  3 18  1  0
  4  5  2  0
  5 29  1  0
  5 12  1  0
  6  4  1  0
  6 14  2  0
  7 31  1  0
  8 13  2  0
  9  7  2  0
  9 33  1  0
 10  8  1  0
 10 15  2  0
 11 12  2  0
 11 35  1  0
 12  1  1  0
 13 16  1  0
 13  7  1  0
 14 11  1  0
 15  9  1  0
 16 17  1  0
 17 14  1  0
 18 15  1  0
 18  2  1  0
 22  2  1  0
 25  3  1  0
 27  3  1  0
 28  4  1  0
 30  6  1  0
 32  8  1  0
 34 10  1  0
M  RAD  2  16   2  17   2
M  END
>  <HBA>  (855) 
3

>  <HBD>  (855) 
0

>  <TPSA>  (855) 
27.96

>  <cid>  (855) 
5934

>  <dipole>  (855) 
3.84

>  <excitation_energy_1>  (855) 
2.689

>  <excitation_energy_2>  (855) 
3.12

>  <excitation_energy_3>  (855) 
3.926

>  <excitation_energy_4>  (855) 
4.185

>  <homo_energy>  (855) 
-5.061

>  <homo_lumo_gap>  (855) 
3.382

>  <logP>  (855) 
4.476

>  <lumo_energy>  (855) 
-1.679

>  <melting_point>  (855) 
76.0

>  <molecular_refractivity>  (855) 
76.23

>  <oscillator_strength_1>  (855) 
0.0001

>  <oscillator_strength_2>  (855) 
0.931

>  <oscillator_strength_3>  (855) 
0.0079

>  <oscillator_strength_4>  (855) 
0.0021

>  <open_babel_can_smiles>  (855) 
Cc1cccc(c1)[N][N]c1ccc(cc1)N(C)C

>  <mulliken_charges>  (855) 
35
1   -0.528227
2   -0.313458
3   -0.313444
4   -0.143496
5   -0.173747
6   -0.131158
7   -0.135022
8   -0.148865
9   -0.206733
10   -0.204152
11   -0.199771
12   0.170764
13   0.271719
14   0.27764
15   0.380234
16   -0.317728
17   -0.327846
18   -0.472549
19   0.152761
20   0.164087
21   0.160644
22   0.158073
23   0.166385
24   0.161437
25   0.157941
26   0.161307
27   0.165902
28   0.128185
29   0.119977
30   0.147521
31   0.15236
32   0.136574
33   0.12877
34   0.12709
35   0.126822

>  <lowdin_charges>  (855) 
35
1   -0.443089
2   -0.349671
3   -0.349287
4   -0.154318
5   -0.166764
6   -0.161206
7   -0.137553
8   -0.135088
9   -0.205208
10   -0.213442
11   -0.162661
12   0.000131
13   -0.018511
14   0.015857
15   0.067288
16   -0.082284
17   -0.104052
18   -0.103084
19   0.155786
20   0.161703
21   0.160437
22   0.160542
23   0.152784
24   0.148513
25   0.158729
26   0.149033
27   0.153964
28   0.156849
29   0.153824
30   0.169875
31   0.172125
32   0.165688
33   0.16115
34   0.160649
35   0.161293

$$$$
PCCDB-ID:  5942
     RDKit          3D

 26 25  0  0  0  0  0  0  0  0999 V2000
    1.0329   -0.1384    0.0352 C   0  0  0  0  0  0  0  0  0  0  0  0
    5.0635    2.0637    1.8291 C   0  0  0  0  0  0  0  0  0  0  0  0
    0.4206   -1.2489   -0.8203 C   0  0  0  0  0  0  0  0  0  0  0  0
    6.5893    2.1515    1.8909 C   0  0  0  0  0  0  0  0  0  0  0  0
    2.5622   -0.1682    0.0544 C   0  0  0  0  0  0  0  0  0  0  0  0
    4.5604    0.9231    0.9428 C   0  0  0  0  0  0  0  0  0  0  0  0
   -1.0438   -1.1413   -0.8315 N   0  0  0  0  0  0  0  0  0  0  0  0
    7.0047    3.2122    2.8174 N   0  0  0  0  0  0  0  0  0  0  0  0
    3.1020    0.9251    0.8592 N   0  0  0  0  0  0  0  0  0  0  0  0
    0.6571   -0.2334    1.0669 H   0  0  0  0  0  0  0  0  0  0  0  0
    0.6892    0.8339   -0.3339 H   0  0  0  0  0  0  0  0  0  0  0  0
    4.6490    3.0079    1.4500 H   0  0  0  0  0  0  0  0  0  0  0  0
    4.6843    1.9428    2.8529 H   0  0  0  0  0  0  0  0  0  0  0  0
    0.7949   -2.2288   -0.4679 H   0  0  0  0  0  0  0  0  0  0  0  0
    0.7672   -1.1392   -1.8564 H   0  0  0  0  0  0  0  0  0  0  0  0
    6.9862    2.2717    0.8651 H   0  0  0  0  0  0  0  0  0  0  0  0
    6.9941    1.2043    2.2710 H   0  0  0  0  0  0  0  0  0  0  0  0
    2.9423   -0.0468   -0.9698 H   0  0  0  0  0  0  0  0  0  0  0  0
    2.9126   -1.1638    0.3964 H   0  0  0  0  0  0  0  0  0  0  0  0
    4.9672   -0.0404    1.3129 H   0  0  0  0  0  0  0  0  0  0  0  0
    4.9522    1.0475   -0.0768 H   0  0  0  0  0  0  0  0  0  0  0  0
   -1.4028   -1.3243    0.1055 H   0  0  0  0  0  0  0  0  0  0  0  0
   -1.4369   -1.8695   -1.4261 H   0  0  0  0  0  0  0  0  0  0  0  0
    6.7149    4.1165    2.4455 H   0  0  0  0  0  0  0  0  0  0  0  0
    8.0220    3.2456    2.8672 H   0  0  0  0  0  0  0  0  0  0  0  0
    2.7207    0.8561    1.8031 H   0  0  0  0  0  0  0  0  0  0  0  0
  1  5  1  0
  1 10  1  0
  2  4  1  0
  2 13  1  0
  3 14  1  0
  3  1  1  0
  4 17  1  0
  4  8  1  0
  5 19  1  0
  5  9  1  0
  6 20  1  0
  6  2  1  0
  7  3  1  0
  7 22  1  0
  8 25  1  0
  9  6  1  0
  9 26  1  0
 11  1  1  0
 12  2  1  0
 15  3  1  0
 16  4  1  0
 18  5  1  0
 21  6  1  0
 23  7  1  0
 24  8  1  0
M  END
>  <HBA>  (856) 
3

>  <HBD>  (856) 
3

>  <TPSA>  (856) 
64.07

>  <cid>  (856) 
5942

>  <dipole>  (856) 
1.87

>  <excitation_energy_1>  (856) 
5.432

>  <excitation_energy_2>  (856) 
5.563

>  <excitation_energy_3>  (856) 
5.609

>  <excitation_energy_4>  (856) 
5.704

>  <homo_energy>  (856) 
-5.823

>  <homo_lumo_gap>  (856) 
8.082

>  <logP>  (856) 
1.065

>  <lumo_energy>  (856) 
2.259

>  <melting_point>  (856) 
109.11

>  <molecular_refractivity>  (856) 
39.17

>  <oscillator_strength_1>  (856) 
0.0043

>  <oscillator_strength_2>  (856) 
0.0095

>  <oscillator_strength_3>  (856) 
0.0152

>  <oscillator_strength_4>  (856) 
0.0037

>  <open_babel_can_smiles>  (856) 
NCCCNCCCN

>  <mulliken_charges>  (856) 
26
1   -0.259047
2   -0.261559
3   -0.135581
4   -0.135305
5   -0.108532
6   -0.108586
7   -0.714017
8   -0.715336
9   -0.559257
10   0.116342
11   0.163919
12   0.140632
13   0.141969
14   0.109722
15   0.139126
16   0.111344
17   0.137207
18   0.135781
19   0.103825
20   0.105521
21   0.133887
22   0.290266
23   0.294286
24   0.291866
25   0.2942
26   0.287329

>  <lowdin_charges>  (856) 
26
1   -0.280413
2   -0.282462
3   -0.201988
4   -0.202712
5   -0.198765
6   -0.199014
7   -0.558759
8   -0.555679
9   -0.361297
10   0.131242
11   0.157532
12   0.145274
13   0.144933
14   0.114344
15   0.140028
16   0.11455
17   0.139958
18   0.138206
19   0.110998
20   0.112737
21   0.137333
22   0.249599
23   0.254691
24   0.250984
25   0.251203
26   0.247476

$$$$
PCCDB-ID:  5944
     RDKit          3D

 26 28  0  0  1  0  0  0  0  0999 V2000
    0.5955    1.5225    1.3064 C   0  0  0  0  0  0  0  0  0  0  0  0
    3.5602   -1.2257    1.5417 C   0  0  0  0  0  0  0  0  0  0  0  0
    2.4746    2.4055   -0.5188 C   0  0  0  0  0  0  0  0  0  0  0  0
    3.4366    2.6165    0.6974 C   0  0  0  0  0  0  0  0  0  0  0  0
    2.3379    0.8619   -0.5066 C   0  0  2  0  0  0  0  0  0  0  0  0
    3.8907    1.1694    1.0010 C   0  0  1  0  0  0  0  0  0  0  0  0
    0.9092   -0.8337    1.2724 C   0  0  0  0  0  0  0  0  0  0  0  0
    2.1751    0.0602    3.0371 C   0  0  0  0  0  0  0  0  0  0  0  0
    1.6259    0.4325    0.8304 C   0  0  2  0  0  0  0  0  0  0  0  0
    2.9081    0.2120    1.7257 C   0  0  2  0  0  0  0  0  0  0  0  0
    0.2430   -1.6624    0.7307 O   0  0  0  0  0  0  0  0  0  0  0  0
    2.3128    0.4538    4.1546 O   0  0  0  0  0  0  0  0  0  0  0  0
    3.7324    0.5356   -0.3059 O   0  0  0  0  0  0  0  0  0  0  0  0
    1.1181   -0.8390    2.6826 O   0  0  0  0  0  0  0  0  0  0  0  0
   -0.0962    1.7177    0.4811 H   0  0  0  0  0  0  0  0  0  0  0  0
    1.0550    2.4638    1.6034 H   0  0  0  0  0  0  0  0  0  0  0  0
   -0.0038    1.1781    2.1506 H   0  0  0  0  0  0  0  0  0  0  0  0
    4.6445   -1.1200    1.4674 H   0  0  0  0  0  0  0  0  0  0  0  0
    3.2195   -1.7244    0.6326 H   0  0  0  0  0  0  0  0  0  0  0  0
    3.3448   -1.8818    2.3886 H   0  0  0  0  0  0  0  0  0  0  0  0
    2.9763    2.6810   -1.4497 H   0  0  0  0  0  0  0  0  0  0  0  0
    1.5465    2.9739   -0.4591 H   0  0  0  0  0  0  0  0  0  0  0  0
    2.9720    3.1125    1.5534 H   0  0  0  0  0  0  0  0  0  0  0  0
    4.3080    3.2119    0.4115 H   0  0  0  0  0  0  0  0  0  0  0  0
    1.9823    0.3972   -1.4264 H   0  0  0  0  0  0  0  0  0  0  0  0
    4.9283    1.0728    1.3194 H   0  0  0  0  0  0  0  0  0  0  0  0
  1 16  1  0
  1 17  1  0
  2 20  1  0
  3  5  1  0
  3 22  1  0
  3  4  1  0
  4  6  1  0
  4 23  1  0
  5 25  1  6
  5 13  1  0
  5  9  1  0
  6 26  1  1
  6 10  1  0
  7 14  1  0
  8 12  2  0
  9  7  1  0
  9  1  1  1
  9 10  1  0
 10  2  1  6
 10  8  1  0
 11  7  2  0
 13  6  1  0
 14  8  1  0
 15  1  1  0
 18  2  1  0
 19  2  1  0
 21  3  1  0
 24  4  1  0
M  END
>  <HBA>  (857) 
4

>  <HBD>  (857) 
0

>  <TPSA>  (857) 
52.6

>  <cid>  (857) 
5944

>  <dipole>  (857) 
4.37

>  <excitation_energy_1>  (857) 
5.326

>  <excitation_energy_2>  (857) 
5.375

>  <excitation_energy_3>  (857) 
5.799

>  <excitation_energy_4>  (857) 
6.425

>  <homo_energy>  (857) 
-7.565

>  <homo_lumo_gap>  (857) 
6.748

>  <logP>  (857) 
0.644

>  <lumo_energy>  (857) 
-0.816

>  <melting_point>  (857) 
100.77

>  <molecular_refractivity>  (857) 
45.89

>  <oscillator_strength_1>  (857) 
0.0022

>  <oscillator_strength_2>  (857) 
0.0011

>  <oscillator_strength_3>  (857) 
0.0013

>  <oscillator_strength_4>  (857) 
0.0051

>  <open_babel_can_smiles>  (857) 
O=C1OC(=O)[C@]2([C@@]1(C)[C@@H]1CC[C@H]2O1)C

>  <mulliken_charges>  (857) 
26
1   -0.501896
2   -0.470158
3   -0.270984
4   -0.302702
5   0.077477
6   0.047242
7   0.60287
8   0.592461
9   -0.032686
10   0.013032
11   -0.415866
12   -0.414185
13   -0.476807
14   -0.49046
15   0.177654
16   0.174768
17   0.192981
18   0.170911
19   0.18761
20   0.177327
21   0.164149
22   0.150671
23   0.161628
24   0.162498
25   0.163756
26   0.158708

>  <lowdin_charges>  (857) 
26
1   -0.454065
2   -0.439022
3   -0.291693
4   -0.298588
5   -0.002262
6   0.004791
7   0.220731
8   0.215956
9   -0.042046
10   -0.039633
11   -0.187711
12   -0.183235
13   -0.269626
14   -0.210423
15   0.169564
16   0.166155
17   0.175045
18   0.165373
19   0.173425
20   0.16498
21   0.161741
22   0.154853
23   0.156225
24   0.163028
25   0.166479
26   0.159957

$$$$
PCCDB-ID:  5950
     RDKit          3D

 13 12  0  0  1  0  0  0  0  0999 V2000
    1.6032   -0.5808   -0.5128 C   0  0  0  0  0  0  0  0  0  0  0  0
    1.9881    0.3285    0.6682 C   0  0  2  0  0  0  0  0  0  0  0  0
    3.2414    1.1518    0.3078 C   0  0  0  0  0  0  0  0  0  0  0  0
    2.1595   -0.4730    1.8716 N   0  0  0  0  0  0  0  0  0  0  0  0
    4.3300    0.9590    0.7890 O   0  0  0  0  0  0  0  0  0  0  0  0
    3.0705    2.1239   -0.6302 O   0  0  0  0  0  0  0  0  0  0  0  0
    1.4122   -0.0128   -1.4303 H   0  0  0  0  0  0  0  0  0  0  0  0
    0.7051   -1.1477   -0.2549 H   0  0  0  0  0  0  0  0  0  0  0  0
    2.4106   -1.2914   -0.7241 H   0  0  0  0  0  0  0  0  0  0  0  0
    1.1630    1.0331    0.8501 H   0  0  0  0  0  0  0  0  0  0  0  0
    3.0090   -1.0283    1.7619 H   0  0  0  0  0  0  0  0  0  0  0  0
    2.3583    0.1448    2.6581 H   0  0  0  0  0  0  0  0  0  0  0  0
    2.1384    2.1619   -0.9027 H   0  0  0  0  0  0  0  0  0  0  0  0
  1  8  1  0
  1  2  1  0
  2 10  1  1
  2  4  1  0
  3  2  1  0
  3  5  2  0
  4 12  1  0
  6  3  1  0
  7  1  1  0
  9  1  1  0
 11  4  1  0
 13  6  1  0
M  END
>  <HBA>  (858) 
3

>  <HBD>  (858) 
2

>  <TPSA>  (858) 
63.32

>  <cid>  (858) 
5950

>  <dipole>  (858) 
3.04

>  <excitation_energy_1>  (858) 
5.543

>  <excitation_energy_2>  (858) 
5.891

>  <excitation_energy_3>  (858) 
6.043

>  <excitation_energy_4>  (858) 
6.502

>  <homo_energy>  (858) 
-6.833

>  <homo_lumo_gap>  (858) 
6.977

>  <logP>  (858) 
0.118

>  <lumo_energy>  (858) 
0.144

>  <melting_point>  (858) 
106.84

>  <molecular_refractivity>  (858) 
21.01

>  <oscillator_strength_1>  (858) 
0.0028

>  <oscillator_strength_2>  (858) 
0.0015

>  <oscillator_strength_3>  (858) 
0.001

>  <oscillator_strength_4>  (858) 
0.0251

>  <open_babel_can_smiles>  (858) 
C[C@H](C(=O)O)N

>  <mulliken_charges>  (858) 
13
1   -0.440082
2   -0.10368
3   0.580263
4   -0.685536
5   -0.442503
6   -0.563915
7   0.136984
8   0.179974
9   0.164685
10   0.146232
11   0.309719
12   0.306761
13   0.411097

>  <lowdin_charges>  (858) 
13
1   -0.444911
2   -0.111412
3   0.173408
4   -0.530443
5   -0.242192
6   -0.355071
7   0.147489
8   0.17012
9   0.161165
10   0.14957
11   0.262909
12   0.262749
13   0.356619

$$$$
PCCDB-ID:  5961
     RDKit          3D

 20 19  0  0  1  0  0  0  0  0999 V2000
    1.0651   -0.2197   -0.0971 C   0  0  0  0  0  0  0  0  0  0  0  0
    0.5099   -1.4682    0.6137 C   0  0  0  0  0  0  0  0  0  0  0  0
    2.5518    0.0317    0.2524 C   0  0  1  0  0  0  0  0  0  0  0  0
   -1.0025   -1.5700    0.5180 C   0  0  0  0  0  0  0  0  0  0  0  0
    3.1066    1.1602   -0.6393 C   0  0  0  0  0  0  0  0  0  0  0  0
    2.6798    0.3380    1.6732 N   0  0  0  0  0  0  0  0  0  0  0  0
   -1.6933   -2.3993   -0.1499 N   0  0  0  0  0  0  0  0  0  0  0  0
   -1.6827   -0.6136    1.2175 O   0  0  0  0  0  0  0  0  0  0  0  0
    3.3239    2.2744   -0.2322 O   0  0  0  0  0  0  0  0  0  0  0  0
    3.3079    0.8557   -1.9472 O   0  0  0  0  0  0  0  0  0  0  0  0
    0.4960    0.6703    0.2008 H   0  0  0  0  0  0  0  0  0  0  0  0
    0.9294   -0.3182   -1.1816 H   0  0  0  0  0  0  0  0  0  0  0  0
    0.8134   -1.4236    1.6678 H   0  0  0  0  0  0  0  0  0  0  0  0
    0.9589   -2.3727    0.1881 H   0  0  0  0  0  0  0  0  0  0  0  0
    3.1189   -0.8873    0.0442 H   0  0  0  0  0  0  0  0  0  0  0  0
    2.5286    1.3424    1.7831 H   0  0  0  0  0  0  0  0  0  0  0  0
    3.6411    0.1828    1.9722 H   0  0  0  0  0  0  0  0  0  0  0  0
   -1.0760   -3.0437   -0.6458 H   0  0  0  0  0  0  0  0  0  0  0  0
   -1.0642   -0.1266    1.7833 H   0  0  0  0  0  0  0  0  0  0  0  0
    3.1025   -0.0799   -2.1110 H   0  0  0  0  0  0  0  0  0  0  0  0
  1 11  1  0
  1  3  1  0
  1  2  1  0
  2 13  1  0
  3 15  1  1
  3  6  1  0
  4  2  1  0
  4  8  1  0
  5  9  2  0
  5  3  1  0
  6 16  1  0
  6 17  1  0
  7  4  2  0
  8 19  1  0
 10  5  1  0
 12  1  1  0
 14  2  1  0
 18  7  1  0
 20 10  1  0
M  END
>  <HBA>  (859) 
5

>  <HBD>  (859) 
3

>  <TPSA>  (859) 
106.41

>  <cid>  (859) 
5961

>  <dipole>  (859) 
4.49

>  <excitation_energy_1>  (859) 
5.571

>  <excitation_energy_2>  (859) 
5.925

>  <excitation_energy_3>  (859) 
5.956

>  <excitation_energy_4>  (859) 
6.07

>  <homo_energy>  (859) 
-7.138

>  <homo_lumo_gap>  (859) 
6.83

>  <logP>  (859) 
0.064

>  <lumo_energy>  (859) 
-0.307

>  <melting_point>  (859) 
181.15

>  <molecular_refractivity>  (859) 
33.54

>  <oscillator_strength_1>  (859) 
0.0107

>  <oscillator_strength_2>  (859) 
0.0017

>  <oscillator_strength_3>  (859) 
0.0039

>  <oscillator_strength_4>  (859) 
0.0013

>  <open_babel_can_smiles>  (859) 
OC(=N)CC[C@@H](C(=O)O)N

>  <mulliken_charges>  (859) 
20
1   -0.260334
2   -0.361163
3   -0.112062
4   0.47618
5   0.58987
6   -0.704638
7   -0.577346
8   -0.572323
9   -0.43918
10   -0.558151
11   0.159877
12   0.147279
13   0.186302
14   0.144754
15   0.143653
16   0.321335
17   0.312964
18   0.279361
19   0.410292
20   0.413332

>  <lowdin_charges>  (859) 
20
1   -0.276196
2   -0.312382
3   -0.113525
4   0.125154
5   0.178446
6   -0.533143
7   -0.396396
8   -0.3671
9   -0.237294
10   -0.346581
11   0.155885
12   0.146932
13   0.169593
14   0.153828
15   0.1487
16   0.266101
17   0.264574
18   0.255888
19   0.359001
20   0.358516

$$$$
PCCDB-ID:  5971
     RDKit          3D

 11 10  0  0  0  0  0  0  0  0999 V2000
    2.0141   -0.5641    1.1114 C   0  0  0  0  0  0  0  0  0  0  0  0
    2.6963   -0.1424    0.0484 C   0  0  0  0  0  0  0  0  0  0  0  0
    2.6126   -0.7947   -1.3094 C   0  0  0  0  0  0  0  0  0  0  0  0
    5.0549   -1.4261   -1.6179 C   0  0  0  0  0  0  0  0  0  0  0  0
    3.8982   -1.2038   -1.8114 N   0  0  0  0  0  0  0  0  0  0  0  0
    6.6092   -1.7513   -1.4859 S   0  0  0  0  0  0  0  0  0  0  0  0
    2.0807   -0.0547    2.0687 H   0  0  0  0  0  0  0  0  0  0  0  0
    1.3563   -1.4294    1.0651 H   0  0  0  0  0  0  0  0  0  0  0  0
    3.3538    0.7231    0.1147 H   0  0  0  0  0  0  0  0  0  0  0  0
    2.1810   -0.1022   -2.0440 H   0  0  0  0  0  0  0  0  0  0  0  0
    1.9577   -1.6736   -1.2753 H   0  0  0  0  0  0  0  0  0  0  0  0
  1  7  1  0
  2  9  1  0
  2  1  2  3
  3 11  1  0
  3  2  1  0
  4  6  2  0
  5  4  2  3
  5  3  1  0
  8  1  1  0
 10  3  1  0
M  END
>  <HBA>  (860) 
2

>  <HBD>  (860) 
0

>  <TPSA>  (860) 
44.45

>  <cid>  (860) 
5971

>  <dipole>  (860) 
3.76

>  <excitation_energy_1>  (860) 
4.629

>  <excitation_energy_2>  (860) 
5.173

>  <excitation_energy_3>  (860) 
5.478

>  <excitation_energy_4>  (860) 
5.563

>  <homo_energy>  (860) 
-6.626

>  <homo_lumo_gap>  (860) 
6.079

>  <logP>  (860) 
1.275

>  <lumo_energy>  (860) 
-0.547

>  <melting_point>  (860) 
3.58

>  <molecular_refractivity>  (860) 
30.03

>  <oscillator_strength_1>  (860) 
0.0004

>  <oscillator_strength_2>  (860) 
0.0189

>  <oscillator_strength_3>  (860) 
0.0178

>  <oscillator_strength_4>  (860) 
0.0045

>  <open_babel_can_smiles>  (860) 
C=CCN=C=S

>  <mulliken_charges>  (860) 
11
1   -0.328423
2   -0.052364
3   -0.195039
4   0.222841
5   -0.348245
6   -0.128719
7   0.158051
8   0.149642
9   0.153871
10   0.186615
11   0.18177

>  <lowdin_charges>  (860) 
11
1   -0.315155
2   -0.155222
3   -0.167853
4   -0.046169
5   -0.10539
6   -0.045408
7   0.168425
8   0.161168
9   0.16433
10   0.171917
11   0.169358

$$$$
PCCDB-ID:  5976
     RDKit          3D

 12 11  0  0  0  0  0  0  0  0999 V2000
    0.8776    0.2128   -0.1999 C   0  0  0  0  0  0  0  0  0  0  0  0
    2.9940    0.4049   -1.3028 C   0  0  0  0  0  0  0  0  0  0  0  0
    2.6966    1.2500    0.8713 N   0  0  0  0  0  0  0  0  0  0  0  0
    2.3256    0.1418   -0.0324 N   0  0  0  0  0  0  0  0  0  0  0  0
    0.5673   -0.5604   -0.9095 H   0  0  0  0  0  0  0  0  0  0  0  0
    0.5362    1.1993   -0.5603 H   0  0  0  0  0  0  0  0  0  0  0  0
    0.3869    0.0055    0.7588 H   0  0  0  0  0  0  0  0  0  0  0  0
    2.7035   -0.3690   -2.0201 H   0  0  0  0  0  0  0  0  0  0  0  0
    4.0803    0.3444   -1.1650 H   0  0  0  0  0  0  0  0  0  0  0  0
    2.7500    1.3992   -1.7167 H   0  0  0  0  0  0  0  0  0  0  0  0
    3.6975    1.1070    1.0362 H   0  0  0  0  0  0  0  0  0  0  0  0
    2.2760    0.9870    1.7675 H   0  0  0  0  0  0  0  0  0  0  0  0
  1  4  1  0
  1  7  1  0
  2  9  1  0
  2  4  1  0
  3 11  1  0
  3 12  1  0
  4  3  1  0
  5  1  1  0
  6  1  1  0
  8  2  1  0
 10  2  1  0
M  END
>  <HBA>  (861) 
2

>  <HBD>  (861) 
1

>  <TPSA>  (861) 
29.26

>  <cid>  (861) 
5976

>  <dipole>  (861) 
0.61

>  <excitation_energy_1>  (861) 
4.707

>  <excitation_energy_2>  (861) 
5.504

>  <excitation_energy_3>  (861) 
5.607

>  <excitation_energy_4>  (861) 
5.901

>  <homo_energy>  (861) 
-5.148

>  <homo_lumo_gap>  (861) 
7.203

>  <logP>  (861) 
0.122

>  <lumo_energy>  (861) 
2.054

>  <melting_point>  (861) 
32.98

>  <molecular_refractivity>  (861) 
17.33

>  <oscillator_strength_1>  (861) 
0.0093

>  <oscillator_strength_2>  (861) 
0.011

>  <oscillator_strength_3>  (861) 
0.004

>  <oscillator_strength_4>  (861) 
0.0734

>  <open_babel_can_smiles>  (861) 
CN(N)C

>  <mulliken_charges>  (861) 
12
1   -0.280671
2   -0.280104
3   -0.582275
4   -0.306327
5   0.149183
6   0.134093
7   0.140809
8   0.148964
9   0.14085
10   0.134106
11   0.30077
12   0.300602

>  <lowdin_charges>  (861) 
12
1   -0.362831
2   -0.360979
3   -0.484195
4   -0.149398
5   0.153263
6   0.130349
7   0.145026
8   0.153108
9   0.143024
10   0.130193
11   0.250516
12   0.251925

$$$$
PCCDB-ID:  6004
     RDKit          3D

 13 12  0  0  0  0  0  0  0  0999 V2000
    1.1790   -0.1408    0.6609 C   0  0  0  0  0  0  0  0  0  0  0  0
    2.5786    0.1549    0.1512 C   0  0  0  0  0  0  0  0  0  0  0  0
    0.9969   -0.7319   -2.6025 O   0  0  0  0  0  0  0  0  0  0  0  0
    2.9457    0.4606   -3.6091 O   0  0  0  0  0  0  0  0  0  0  0  0
    3.2455   -1.5693   -2.0852 O   0  0  0  0  0  0  0  0  0  0  0  0
    2.5678    0.6903   -1.2132 O   0  0  0  0  0  0  0  0  0  0  0  0
    2.5786   -0.3390   -2.4580 S   0  0  0  0  0  0  0  0  0  0  0  0
    1.2352   -0.4320    1.7161 H   0  0  0  0  0  0  0  0  0  0  0  0
    0.7130   -0.9581    0.1039 H   0  0  0  0  0  0  0  0  0  0  0  0
    0.5411    0.7455    0.5840 H   0  0  0  0  0  0  0  0  0  0  0  0
    3.2223   -0.7272    0.1700 H   0  0  0  0  0  0  0  0  0  0  0  0
    3.0558    0.9566    0.7191 H   0  0  0  0  0  0  0  0  0  0  0  0
    0.5709   -0.0366   -3.1393 H   0  0  0  0  0  0  0  0  0  0  0  0
  1  8  1  0
  2 11  1  0
  2  1  1  0
  2 12  1  0
  3  7  1  0
  4  7  2  0
  6  2  1  0
  7  5  2  0
  7  6  1  0
  9  1  1  0
 10  1  1  0
 13  3  1  0
M  END
>  <HBA>  (862) 
4

>  <HBD>  (862) 
1

>  <TPSA>  (862) 
71.98

>  <cid>  (862) 
6004

>  <dipole>  (862) 
3.83

>  <excitation_energy_1>  (862) 
7.287

>  <excitation_energy_2>  (862) 
7.429

>  <excitation_energy_3>  (862) 
7.749

>  <excitation_energy_4>  (862) 
8.295

>  <homo_energy>  (862) 
-8.735

>  <homo_lumo_gap>  (862) 
9.184

>  <logP>  (862) 
0.906

>  <lumo_energy>  (862) 
0.449

>  <melting_point>  (862) 
50.47

>  <molecular_refractivity>  (862) 
23.35

>  <oscillator_strength_1>  (862) 
0.0004

>  <oscillator_strength_2>  (862) 
0.0032

>  <oscillator_strength_3>  (862) 
0.0009

>  <oscillator_strength_4>  (862) 
0.0139

>  <open_babel_can_smiles>  (862) 
CCOS(=O)(=O)O

>  <mulliken_charges>  (862) 
13
1   -0.464263
2   -0.070009
3   -0.626745
4   -0.48132
5   -0.492974
6   -0.506686
7   1.31896
8   0.159929
9   0.184974
10   0.164494
11   0.193592
12   0.176082
13   0.443967

>  <lowdin_charges>  (862) 
13
1   -0.457195
2   -0.123865
3   -0.570703
4   -0.546249
5   -0.543016
6   -0.403352
7   1.427415
8   0.163357
9   0.16991
10   0.161172
11   0.169688
12   0.166311
13   0.386527

$$$$
PCCDB-ID:  6009
     RDKit          3D

 34 35  0  0  0  0  0  0  0  0999 V2000
    1.0089    0.6143   -1.0933 C   0  0  0  0  0  0  0  0  0  0  0  0
    2.3964   -3.0806    0.1693 C   0  0  0  0  0  0  0  0  0  0  0  0
    1.6462   -1.8208    2.1089 C   0  0  0  0  0  0  0  0  0  0  0  0
    3.2338    2.6298   -0.6446 C   0  0  0  0  0  0  0  0  0  0  0  0
    8.4810    1.6678   -1.0404 C   0  0  0  0  0  0  0  0  0  0  0  0
    8.1766    1.2024    0.2408 C   0  0  0  0  0  0  0  0  0  0  0  0
    7.4592    1.8001   -1.9813 C   0  0  0  0  0  0  0  0  0  0  0  0
    6.8656    0.8895    0.5942 C   0  0  0  0  0  0  0  0  0  0  0  0
    6.1451    1.4699   -1.6510 C   0  0  0  0  0  0  0  0  0  0  0  0
    2.3590    0.3374   -0.5204 C   0  0  0  0  0  0  0  0  0  0  0  0
    5.8439    1.0215   -0.3573 C   0  0  0  0  0  0  0  0  0  0  0  0
    2.7282   -0.6987    0.2800 C   0  0  0  0  0  0  0  0  0  0  0  0
    4.1360   -0.5189    0.6432 C   0  0  0  0  0  0  0  0  0  0  0  0
    1.9049   -1.7878    0.6647 N   0  0  0  0  0  0  0  0  0  0  0  0
    3.4426    1.1807   -0.7770 N   0  0  0  0  0  0  0  0  0  0  0  0
    4.5143    0.6951    0.0141 N   0  0  0  0  0  0  0  0  0  0  0  0
    4.8832   -1.2284    1.3075 O   0  0  0  0  0  0  0  0  0  0  0  0
    0.3727   -0.2511   -0.8937 H   0  0  0  0  0  0  0  0  0  0  0  0
    1.0591    0.7841   -2.1750 H   0  0  0  0  0  0  0  0  0  0  0  0
    0.5399    1.4963   -0.6387 H   0  0  0  0  0  0  0  0  0  0  0  0
    1.6465   -3.8500    0.3865 H   0  0  0  0  0  0  0  0  0  0  0  0
    3.3531   -3.3796    0.6231 H   0  0  0  0  0  0  0  0  0  0  0  0
    2.5246   -3.0261   -0.9161 H   0  0  0  0  0  0  0  0  0  0  0  0
    0.9022   -2.5980    2.3184 H   0  0  0  0  0  0  0  0  0  0  0  0
    1.2329   -0.8581    2.4254 H   0  0  0  0  0  0  0  0  0  0  0  0
    2.5493   -2.0287    2.7040 H   0  0  0  0  0  0  0  0  0  0  0  0
    2.4409    2.9278   -1.3336 H   0  0  0  0  0  0  0  0  0  0  0  0
    4.1513    3.1483   -0.9270 H   0  0  0  0  0  0  0  0  0  0  0  0
    2.9602    2.9108    0.3816 H   0  0  0  0  0  0  0  0  0  0  0  0
    9.5040    1.9220   -1.3030 H   0  0  0  0  0  0  0  0  0  0  0  0
    8.9645    1.0911    0.9808 H   0  0  0  0  0  0  0  0  0  0  0  0
    7.6831    2.1503   -2.9856 H   0  0  0  0  0  0  0  0  0  0  0  0
    6.6259    0.5264    1.5852 H   0  0  0  0  0  0  0  0  0  0  0  0
    5.3549    1.5369   -2.3911 H   0  0  0  0  0  0  0  0  0  0  0  0
  1 18  1  0
  1 20  1  0
  1 10  1  0
  2 21  1  0
  2 22  1  0
  2 14  1  0
  3 24  1  0
  3 25  1  0
  3 26  1  0
  4 29  1  0
  5  6  2  0
  6  8  1  0
  6 31  1  0
  7  9  2  0
  7  5  1  0
  8 33  1  0
  9 11  1  0
 10 12  2  0
 11 16  1  0
 11  8  2  0
 12 13  1  0
 12 14  1  0
 13 17  2  0
 14  3  1  0
 15  4  1  0
 15 10  1  0
 15 16  1  0
 16 13  1  0
 19  1  1  0
 23  2  1  0
 27  4  1  0
 28  4  1  0
 30  5  1  0
 32  7  1  0
 34  9  1  0
M  END
>  <HBA>  (863) 
4

>  <HBD>  (863) 
0

>  <TPSA>  (863) 
30.17

>  <cid>  (863) 
6009

>  <dipole>  (863) 
4.05

>  <excitation_energy_1>  (863) 
3.973

>  <excitation_energy_2>  (863) 
4.508

>  <excitation_energy_3>  (863) 
4.777

>  <excitation_energy_4>  (863) 
4.936

>  <homo_energy>  (863) 
-5.576

>  <homo_lumo_gap>  (863) 
5.04

>  <logP>  (863) 
1.55

>  <lumo_energy>  (863) 
-0.536

>  <melting_point>  (863) 
91.53

>  <molecular_refractivity>  (863) 
70.46

>  <oscillator_strength_1>  (863) 
0.0025

>  <oscillator_strength_2>  (863) 
0.1856

>  <oscillator_strength_3>  (863) 
0.0117

>  <oscillator_strength_4>  (863) 
0.0102

>  <open_babel_can_smiles>  (863) 
CN(c1c(C)n(n(c1=O)c1ccccc1)C)C

>  <mulliken_charges>  (863) 
34
1   -0.535866
2   -0.306933
3   -0.303539
4   -0.315934
5   -0.123717
6   -0.146074
7   -0.143146
8   -0.141959
9   -0.162589
10   0.363364
11   0.287124
12   0.074796
13   0.601918
14   -0.476651
15   -0.343661
16   -0.439217
17   -0.544495
18   0.196878
19   0.170535
20   0.167425
21   0.14226
22   0.164203
23   0.148258
24   0.14373
25   0.144849
26   0.158797
27   0.170971
28   0.182972
29   0.164098
30   0.127652
31   0.133812
32   0.129624
33   0.166343
34   0.144176

>  <lowdin_charges>  (863) 
34
1   -0.446219
2   -0.354341
3   -0.35473
4   -0.354787
5   -0.16566
6   -0.150504
7   -0.151866
8   -0.160788
9   -0.188412
10   0.049956
11   0.048954
12   -0.059111
13   0.138142
14   -0.163455
15   -0.045093
16   -0.036184
17   -0.313733
18   0.184927
19   0.165474
20   0.165667
21   0.147903
22   0.146402
23   0.148912
24   0.148256
25   0.148943
26   0.144057
27   0.165842
28   0.170537
29   0.14977
30   0.156735
31   0.161083
32   0.157115
33   0.179661
34   0.166546

$$$$
PCCDB-ID:  6034
     RDKit          3D

 32 32  0  0  0  0  0  0  0  0999 V2000
    2.1624   -2.1516   -0.2235 C   0  0  0  0  0  0  0  0  0  0  0  0
    9.7364   -0.0404    0.7174 C   0  0  0  0  0  0  0  0  0  0  0  0
    5.8789   -7.1476    2.6341 C   0  0  0  0  0  0  0  0  0  0  0  0
    3.6394   -1.8739   -0.4418 C   0  0  0  0  0  0  0  0  0  0  0  0
    8.5244   -3.0613    0.0652 C   0  0  0  0  0  0  0  0  0  0  0  0
    7.7910   -4.0503    0.7065 C   0  0  0  0  0  0  0  0  0  0  0  0
    6.4524   -1.9435   -0.5030 C   0  0  0  0  0  0  0  0  0  0  0  0
    9.3652   -0.2007   -0.7407 C   0  0  0  0  0  0  0  0  0  0  0  0
    7.8539   -1.9853   -0.5405 C   0  0  0  0  0  0  0  0  0  0  0  0
    6.3897   -4.0199    0.7793 C   0  0  0  0  0  0  0  0  0  0  0  0
    5.7141   -2.9355    0.1519 C   0  0  0  0  0  0  0  0  0  0  0  0
    5.6553   -5.0975    1.4909 C   0  0  0  0  0  0  0  0  0  0  0  0
    8.5295   -0.9989   -1.2639 N   0  0  0  0  0  0  0  0  0  0  0  0
    9.9976    0.6528   -1.5940 O   0  0  0  0  0  0  0  0  0  0  0  0
    4.4603   -5.1569    1.6966 O   0  0  0  0  0  0  0  0  0  0  0  0
    6.5072   -6.0748    1.9252 O   0  0  0  0  0  0  0  0  0  0  0  0
    4.3638   -2.9164    0.2133 O   0  0  0  0  0  0  0  0  0  0  0  0
    1.5589   -1.3762   -0.7080 H   0  0  0  0  0  0  0  0  0  0  0  0
    1.9276   -2.1639    0.8450 H   0  0  0  0  0  0  0  0  0  0  0  0
    1.8890   -3.1238   -0.6441 H   0  0  0  0  0  0  0  0  0  0  0  0
    9.1548   -0.7117    1.3500 H   0  0  0  0  0  0  0  0  0  0  0  0
    9.5539    0.9931    1.0386 H   0  0  0  0  0  0  0  0  0  0  0  0
   10.8013   -0.2551    0.8703 H   0  0  0  0  0  0  0  0  0  0  0  0
    6.6863   -7.8258    2.9145 H   0  0  0  0  0  0  0  0  0  0  0  0
    5.1519   -7.6607    1.9979 H   0  0  0  0  0  0  0  0  0  0  0  0
    5.3625   -6.7772    3.5244 H   0  0  0  0  0  0  0  0  0  0  0  0
    3.9241   -0.8997   -0.0194 H   0  0  0  0  0  0  0  0  0  0  0  0
    3.8857   -1.8644   -1.5127 H   0  0  0  0  0  0  0  0  0  0  0  0
    9.6063   -3.1258    0.0046 H   0  0  0  0  0  0  0  0  0  0  0  0
    8.3078   -4.8801    1.1732 H   0  0  0  0  0  0  0  0  0  0  0  0
    5.9593   -1.1206   -1.0035 H   0  0  0  0  0  0  0  0  0  0  0  0
   10.5787    1.2408   -1.0874 H   0  0  0  0  0  0  0  0  0  0  0  0
  1 19  1  0
  2 23  1  0
  2 22  1  0
  2 21  1  0
  3 24  1  0
  3 26  1  0
  4  1  1  0
  4 27  1  0
  4 17  1  0
  5  6  2  0
  6 10  1  0
  6 30  1  0
  7 11  1  0
  8  2  1  0
  9  7  2  0
  9  5  1  0
 10 12  1  0
 11 17  1  0
 11 10  2  0
 12 15  2  0
 12 16  1  0
 13  8  2  0
 13  9  1  0
 14 32  1  0
 14  8  1  0
 16  3  1  0
 18  1  1  0
 20  1  1  0
 25  3  1  0
 28  4  1  0
 29  5  1  0
 31  7  1  0
M  END
>  <HBA>  (864) 
5

>  <HBD>  (864) 
1

>  <TPSA>  (864) 
64.63

>  <cid>  (864) 
6034

>  <dipole>  (864) 
4.67

>  <excitation_energy_1>  (864) 
4.303

>  <excitation_energy_2>  (864) 
4.634

>  <excitation_energy_3>  (864) 
4.69

>  <excitation_energy_4>  (864) 
5.008

>  <homo_energy>  (864) 
-5.807

>  <homo_lumo_gap>  (864) 
4.931

>  <logP>  (864) 
1.903

>  <lumo_energy>  (864) 
-0.876

>  <melting_point>  (864) 
90.99

>  <molecular_refractivity>  (864) 
63.33

>  <oscillator_strength_1>  (864) 
0.2012

>  <oscillator_strength_2>  (864) 
0.1799

>  <oscillator_strength_3>  (864) 
0.0478

>  <oscillator_strength_4>  (864) 
0.008

>  <open_babel_can_smiles>  (864) 
CCOc1cc(ccc1C(=O)OC)/N=C(/O)\C

>  <mulliken_charges>  (864) 
32
1   -0.453995
2   -0.554989
3   -0.208194
4   -0.034334
5   -0.168313
6   -0.182291
7   -0.242637
8   0.484337
9   0.252362
10   0.001178
11   0.347691
12   0.598531
13   -0.46503
14   -0.566496
15   -0.4844
16   -0.478479
17   -0.488376
18   0.143506
19   0.169488
20   0.170126
21   0.201688
22   0.173383
23   0.178656
24   0.155373
25   0.165777
26   0.164485
27   0.139486
28   0.145817
29   0.124415
30   0.159007
31   0.141943
32   0.410286

>  <lowdin_charges>  (864) 
32
1   -0.445542
2   -0.481563
3   -0.281651
4   -0.121755
5   -0.212557
6   -0.127784
7   -0.237544
8   0.150036
9   0.069888
10   -0.089813
11   0.127648
12   0.193909
13   -0.166579
14   -0.356585
15   -0.260832
16   -0.206658
17   -0.170687
18   0.155828
19   0.16195
20   0.163626
21   0.187299
22   0.16841
23   0.170452
24   0.156293
25   0.158055
26   0.156314
27   0.137453
28   0.139141
29   0.156205
30   0.175603
31   0.171745
32   0.359693

$$$$
PCCDB-ID:  6038
     RDKit          3D

 18 19  0  0  0  0  0  0  0  0999 V2000
    2.4062    0.7199    0.0114 C   0  0  0  0  0  0  0  0  0  0  0  0
    2.3907   -0.6959   -0.0130 C   0  0  0  0  0  0  0  0  0  0  0  0
    1.2214    1.4230    0.0124 C   0  0  0  0  0  0  0  0  0  0  0  0
    1.1993   -1.3884   -0.0370 C   0  0  0  0  0  0  0  0  0  0  0  0
   -1.2775    1.3979   -0.0124 C   0  0  0  0  0  0  0  0  0  0  0  0
   -2.4334    0.6622   -0.0361 C   0  0  0  0  0  0  0  0  0  0  0  0
   -0.0199    0.7385   -0.0115 C   0  0  0  0  0  0  0  0  0  0  0  0
   -0.0372   -0.6923   -0.0370 C   0  0  0  0  0  0  0  0  0  0  0  0
   -2.3276   -0.7618   -0.0602 C   0  0  0  0  0  0  0  0  0  0  0  0
   -1.1946   -1.4151   -0.0608 N   0  0  0  0  0  0  0  0  0  0  0  0
   -3.4470   -1.5358   -0.0834 O   0  0  0  0  0  0  0  0  0  0  0  0
    3.3551    1.2484    0.0303 H   0  0  0  0  0  0  0  0  0  0  0  0
    3.3316   -1.2398   -0.0135 H   0  0  0  0  0  0  0  0  0  0  0  0
    1.2224    2.5106    0.0321 H   0  0  0  0  0  0  0  0  0  0  0  0
    1.1680   -2.4731   -0.0559 H   0  0  0  0  0  0  0  0  0  0  0  0
   -1.3140    2.4847    0.0069 H   0  0  0  0  0  0  0  0  0  0  0  0
   -3.4080    1.1449   -0.0364 H   0  0  0  0  0  0  0  0  0  0  0  0
   -4.2282   -0.9614   -0.0851 H   0  0  0  0  0  0  0  0  0  0  0  0
  1  3  2  0
  1 12  1  0
  2  1  1  0
  3 14  1  0
  4  2  2  0
  5  7  2  0
  5 16  1  0
  6  5  1  0
  7  3  1  0
  8  4  1  0
  8  7  1  0
  9  6  2  0
 10  9  1  0
 10  8  2  0
 11  9  1  0
 13  2  1  0
 15  4  1  0
 17  6  1  0
 18 11  1  0
M  END
>  <HBA>  (865) 
1

>  <HBD>  (865) 
1

>  <TPSA>  (865) 
32.86

>  <cid>  (865) 
6038

>  <dipole>  (865) 
3.29

>  <excitation_energy_1>  (865) 
4.184

>  <excitation_energy_2>  (865) 
4.565

>  <excitation_energy_3>  (865) 
4.615

>  <excitation_energy_4>  (865) 
5.394

>  <homo_energy>  (865) 
-6.065

>  <homo_lumo_gap>  (865) 
4.776

>  <logP>  (865) 
1.528

>  <lumo_energy>  (865) 
-1.29

>  <melting_point>  (865) 
130.37

>  <molecular_refractivity>  (865) 
44.57

>  <oscillator_strength_1>  (865) 
0.0498

>  <oscillator_strength_2>  (865) 
0.0367

>  <oscillator_strength_3>  (865) 
0.0011

>  <oscillator_strength_4>  (865) 
0.0002

>  <open_babel_can_smiles>  (865) 
Oc1ccc2c(n1)cccc2

>  <mulliken_charges>  (865) 
18
1   -0.135867
2   -0.135578
3   -0.196519
4   -0.147891
5   -0.143815
6   -0.213189
7   0.149339
8   0.2421
9   0.504359
10   -0.547015
11   -0.598984
12   0.131605
13   0.134122
14   0.130398
15   0.14531
16   0.143742
17   0.129775
18   0.408106

>  <lowdin_charges>  (865) 
18
1   -0.164106
2   -0.148766
3   -0.152072
4   -0.155155
5   -0.11519
6   -0.22267
7   -0.030135
8   0.053654
9   0.135927
10   -0.168499
11   -0.355999
12   0.159553
13   0.160863
14   0.155324
15   0.168188
16   0.162066
17   0.159158
18   0.35786

$$$$
PCCDB-ID:  6040
     RDKit          3D

 36 38  0  0  1  0  0  0  0  0999 V2000
    0.2967    1.4116    0.4367 C   0  0  0  0  0  0  0  0  0  0  0  0
    1.7156   -8.4921    1.6646 C   0  0  0  0  0  0  0  0  0  0  0  0
    1.8270   -7.8191    2.8845 C   0  0  0  0  0  0  0  0  0  0  0  0
    1.5246    0.4993    0.5868 C   0  0  0  0  0  0  0  0  0  0  0  0
   -1.0002    0.6062    0.6134 C   0  0  0  0  0  0  0  0  0  0  0  0
    1.2960   -7.8064    0.5257 C   0  0  0  0  0  0  0  0  0  0  0  0
    1.5373   -6.4574    2.9581 C   0  0  0  0  0  0  0  0  0  0  0  0
    1.4141   -0.7224   -0.3455 C   0  0  0  0  0  0  0  0  0  0  0  0
   -1.0032   -0.6115   -0.3273 C   0  0  0  0  0  0  0  0  0  0  0  0
    0.1481   -2.3565    0.9928 C   0  0  0  0  0  0  0  0  0  0  0  0
   -0.0436   -4.5432   -0.3044 C   0  0  0  0  0  0  0  0  0  0  0  0
    0.7724   -3.7197    0.6822 C   0  0  2  0  0  0  0  0  0  0  0  0
    0.9944   -6.4456    0.5964 C   0  0  0  0  0  0  0  0  0  0  0  0
    1.1285   -5.7641    1.8182 C   0  0  0  0  0  0  0  0  0  0  0  0
    0.1673   -1.4867   -0.1838 N   0  0  0  0  0  0  0  0  0  0  0  0
    0.5797   -5.8052   -0.5456 O   0  0  0  0  0  0  0  0  0  0  0  0
    0.8636   -4.4197    1.9310 O   0  0  0  0  0  0  0  0  0  0  0  0
    0.3043    1.8643   -0.5665 H   0  0  0  0  0  0  0  0  0  0  0  0
    0.3413    2.2402    1.1542 H   0  0  0  0  0  0  0  0  0  0  0  0
    1.9467   -9.5514    1.5993 H   0  0  0  0  0  0  0  0  0  0  0  0
    2.1465   -8.3496    3.7768 H   0  0  0  0  0  0  0  0  0  0  0  0
    1.6067    0.1632    1.6297 H   0  0  0  0  0  0  0  0  0  0  0  0
    2.4478    1.0495    0.3633 H   0  0  0  0  0  0  0  0  0  0  0  0
   -1.8781    1.2337    0.4111 H   0  0  0  0  0  0  0  0  0  0  0  0
   -1.0881    0.2672    1.6555 H   0  0  0  0  0  0  0  0  0  0  0  0
    1.1889   -8.3060   -0.4325 H   0  0  0  0  0  0  0  0  0  0  0  0
    1.6272   -5.9061    3.8894 H   0  0  0  0  0  0  0  0  0  0  0  0
    2.2642   -1.3979   -0.1987 H   0  0  0  0  0  0  0  0  0  0  0  0
    1.4597   -0.3835   -1.3905 H   0  0  0  0  0  0  0  0  0  0  0  0
   -1.0194   -0.2561   -1.3684 H   0  0  0  0  0  0  0  0  0  0  0  0
   -1.9075   -1.2142   -0.1856 H   0  0  0  0  0  0  0  0  0  0  0  0
    0.6701   -1.9401    1.8696 H   0  0  0  0  0  0  0  0  0  0  0  0
   -0.8911   -2.5187    1.3020 H   0  0  0  0  0  0  0  0  0  0  0  0
   -0.1090   -4.0334   -1.2664 H   0  0  0  0  0  0  0  0  0  0  0  0
   -1.0571   -4.6997    0.0947 H   0  0  0  0  0  0  0  0  0  0  0  0
    1.7868   -3.5945    0.2757 H   0  0  0  0  0  0  0  0  0  0  0  0
  1  4  1  0
  1  5  1  0
  1 19  1  0
  2  3  2  0
  3  7  1  0
  3 21  1  0
  4 22  1  0
  5 25  1  0
  6 13  2  0
  6  2  1  0
  7 27  1  0
  8 28  1  0
  8 15  1  0
  8  4  1  0
  9 31  1  0
  9 15  1  0
  9  5  1  0
 10 33  1  0
 10 32  1  0
 11 35  1  0
 11 12  1  0
 12 36  1  6
 12 10  1  0
 12 17  1  0
 13 14  1  0
 14 17  1  0
 14  7  2  0
 15 10  1  0
 16 11  1  0
 16 13  1  0
 18  1  1  0
 20  2  1  0
 23  4  1  0
 24  5  1  0
 26  6  1  0
 29  8  1  0
 30  9  1  0
 34 11  1  0
M  END
>  <HBA>  (866) 
3

>  <HBD>  (866) 
0

>  <TPSA>  (866) 
21.7

>  <cid>  (866) 
6040

>  <dipole>  (866) 
2.6

>  <excitation_energy_1>  (866) 
4.874

>  <excitation_energy_2>  (866) 
5.053

>  <excitation_energy_3>  (866) 
5.233

>  <excitation_energy_4>  (866) 
5.273

>  <homo_energy>  (866) 
-5.521

>  <homo_lumo_gap>  (866) 
5.81

>  <logP>  (866) 
2.25

>  <lumo_energy>  (866) 
0.288

>  <melting_point>  (866) 
58.34

>  <molecular_refractivity>  (866) 
70.85

>  <oscillator_strength_1>  (866) 
0.0543

>  <oscillator_strength_2>  (866) 
0.0145

>  <oscillator_strength_3>  (866) 
0.0065

>  <oscillator_strength_4>  (866) 
0.0006

>  <open_babel_can_smiles>  (866) 
C1CCN(CC1)C[C@@H]1COc2c(O1)cccc2

>  <mulliken_charges>  (866) 
36
1   -0.259291
2   -0.138375
3   -0.138294
4   -0.266937
5   -0.264773
6   -0.192045
7   -0.193633
8   -0.150152
9   -0.145241
10   -0.162777
11   -0.04643
12   0.118918
13   0.33095
14   0.333026
15   -0.384783
16   -0.528266
17   -0.549657
18   0.129373
19   0.136231
20   0.125336
21   0.125076
22   0.137554
23   0.134558
24   0.13311
25   0.135875
26   0.136834
27   0.134718
28   0.141832
29   0.139546
30   0.137054
31   0.13835
32   0.145057
33   0.146278
34   0.171854
35   0.142097
36   0.147026

>  <lowdin_charges>  (866) 
36
1   -0.278169
2   -0.165587
3   -0.168876
4   -0.293264
5   -0.294117
6   -0.177335
7   -0.179007
8   -0.206562
9   -0.203984
10   -0.206727
11   -0.140374
12   -0.01333
13   0.05932
14   0.062764
15   -0.190685
16   -0.206999
17   -0.212451
18   0.137349
19   0.146095
20   0.155537
21   0.157734
22   0.140191
23   0.147677
24   0.147021
25   0.139788
26   0.166055
27   0.165372
28   0.146638
29   0.14125
30   0.139193
31   0.14495
32   0.140036
33   0.150157
34   0.167913
35   0.140736
36   0.141692

$$$$
PCCDB-ID:  6043
     RDKit          3D

 15 16  0  0  0  0  0  0  0  0999 V2000
   -2.0800   -0.7305    0.0002 C   0  0  0  0  0  0  0  0  0  0  0  0
   -2.0889    0.6735    0.0006 C   0  0  0  0  0  0  0  0  0  0  0  0
   -0.8874   -1.4592    0.0002 C   0  0  0  0  0  0  0  0  0  0  0  0
   -0.8984    1.4106    0.0008 C   0  0  0  0  0  0  0  0  0  0  0  0
    0.3060   -0.7379    0.0003 C   0  0  0  0  0  0  0  0  0  0  0  0
    0.2649    0.6640    0.0012 C   0  0  0  0  0  0  0  0  0  0  0  0
    2.2948   -0.0355    0.0004 C   0  0  0  0  0  0  0  0  0  0  0  0
    1.6452   -1.1536   -0.0004 N   0  0  0  0  0  0  0  0  0  0  0  0
    3.6125    0.1467    0.0009 O   0  0  0  0  0  0  0  0  0  0  0  0
    1.5771    1.1156    0.0014 O   0  0  0  0  0  0  0  0  0  0  0  0
   -3.0266   -1.2636   -0.0010 H   0  0  0  0  0  0  0  0  0  0  0  0
   -3.0377    1.2018    0.0007 H   0  0  0  0  0  0  0  0  0  0  0  0
   -0.8818   -2.5444   -0.0000 H   0  0  0  0  0  0  0  0  0  0  0  0
   -0.8874    2.4952    0.0003 H   0  0  0  0  0  0  0  0  0  0  0  0
    4.0126   -0.7401    0.0002 H   0  0  0  0  0  0  0  0  0  0  0  0
  1  3  2  0
  1  2  1  0
  2 12  1  0
  2  4  2  0
  3  5  1  0
  4  6  1  0
  5  6  2  0
  6 10  1  0
  7  9  1  0
  7 10  1  0
  8  5  1  0
  8  7  2  0
 11  1  1  0
 13  3  1  0
 14  4  1  0
 15  9  1  0
M  END
>  <HBA>  (867) 
2

>  <HBD>  (867) 
1

>  <TPSA>  (867) 
46.0

>  <cid>  (867) 
6043

>  <dipole>  (867) 
0.26

>  <excitation_energy_1>  (867) 
5.077

>  <excitation_energy_2>  (867) 
5.368

>  <excitation_energy_3>  (867) 
5.526

>  <excitation_energy_4>  (867) 
5.935

>  <homo_energy>  (867) 
-6.161

>  <homo_lumo_gap>  (867) 
5.812

>  <logP>  (867) 
1.121

>  <lumo_energy>  (867) 
-0.348

>  <melting_point>  (867) 
129.6

>  <molecular_refractivity>  (867) 
36.83

>  <oscillator_strength_1>  (867) 
0.0542

>  <oscillator_strength_2>  (867) 
0.0002

>  <oscillator_strength_3>  (867) 
0.1379

>  <oscillator_strength_4>  (867) 
0.005

>  <open_babel_can_smiles>  (867) 
Oc1nc2c(o1)cccc2

>  <mulliken_charges>  (867) 
15
1   -0.14086
2   -0.148965
3   -0.180122
4   -0.183412
5   0.250745
6   0.320266
7   0.700537
8   -0.53915
9   -0.590027
10   -0.487304
11   0.132592
12   0.134338
13   0.143846
14   0.150257
15   0.437258

>  <lowdin_charges>  (867) 
15
1   -0.160697
2   -0.161991
3   -0.161211
4   -0.170202
5   0.017888
6   0.069985
7   0.188084
8   -0.232088
9   -0.319856
10   -0.112586
11   0.160602
12   0.161516
13   0.166562
14   0.170164
15   0.38383

$$$$
PCCDB-ID:  6046
     RDKit          3D

 16 16  0  0  0  0  0  0  0  0999 V2000
    0.7018    1.2355   -0.1397 C   0  0  0  0  0  0  0  0  0  0  0  0
   -1.4304   -0.0566   -0.0770 C   0  0  0  0  0  0  0  0  0  0  0  0
    1.4314   -0.0807    0.1517 C   0  0  0  0  0  0  0  0  0  0  0  0
   -0.5787   -1.2993    0.2026 C   0  0  0  0  0  0  0  0  0  0  0  0
   -1.1329    2.0764    1.1518 N   0  0  0  0  0  0  0  0  0  0  0  0
   -0.6743    1.1285    0.3169 N   0  0  0  0  0  0  0  0  0  0  0  0
   -2.2858    1.9244    1.5420 O   0  0  0  0  0  0  0  0  0  0  0  0
    0.7133   -1.1850   -0.3829 O   0  0  0  0  0  0  0  0  0  0  0  0
    0.7162    1.4312   -1.2207 H   0  0  0  0  0  0  0  0  0  0  0  0
    1.1590    2.0809    0.3820 H   0  0  0  0  0  0  0  0  0  0  0  0
   -2.3604   -0.0518    0.4954 H   0  0  0  0  0  0  0  0  0  0  0  0
   -1.6665    0.0064   -1.1474 H   0  0  0  0  0  0  0  0  0  0  0  0
    1.5614   -0.2003    1.2399 H   0  0  0  0  0  0  0  0  0  0  0  0
    2.4163   -0.0890   -0.3236 H   0  0  0  0  0  0  0  0  0  0  0  0
   -1.0402   -2.1882   -0.2365 H   0  0  0  0  0  0  0  0  0  0  0  0
   -0.4888   -1.4494    1.2906 H   0  0  0  0  0  0  0  0  0  0  0  0
  1  3  1  0
  1  6  1  0
  1 10  1  0
  2  4  1  0
  2  6  1  0
  2 11  1  0
  3 13  1  0
  4 16  1  0
  5  7  2  0
  6  5  1  0
  8  3  1  0
  8  4  1  0
  9  1  1  0
 12  2  1  0
 14  3  1  0
 15  4  1  0
M  END
>  <HBA>  (868) 
4

>  <HBD>  (868) 
0

>  <TPSA>  (868) 
41.9

>  <cid>  (868) 
6046

>  <dipole>  (868) 
2.83

>  <excitation_energy_1>  (868) 
3.404

>  <excitation_energy_2>  (868) 
5.276

>  <excitation_energy_3>  (868) 
6.009

>  <excitation_energy_4>  (868) 
6.169

>  <homo_energy>  (868) 
-6.185

>  <homo_lumo_gap>  (868) 
5.249

>  <logP>  (868) 
-0.062

>  <lumo_energy>  (868) 
-0.936

>  <melting_point>  (868) 
10.08

>  <molecular_refractivity>  (868) 
31.86

>  <oscillator_strength_1>  (868) 
0.0009

>  <oscillator_strength_2>  (868) 
0.1244

>  <oscillator_strength_3>  (868) 
0.0016

>  <oscillator_strength_4>  (868) 
0.0367

>  <open_babel_can_smiles>  (868) 
O=NN1CCOCC1

>  <mulliken_charges>  (868) 
16
1   -0.141818
2   -0.163937
3   -0.039491
4   -0.041827
5   0.149896
6   -0.231514
7   -0.375554
8   -0.462082
9   0.163453
10   0.178298
11   0.198349
12   0.167897
13   0.138509
14   0.158689
15   0.160061
16   0.141072

>  <lowdin_charges>  (868) 
16
1   -0.212777
2   -0.231475
3   -0.136521
4   -0.134909
5   0.052649
6   -0.049102
7   -0.269021
8   -0.27017
9   0.151564
10   0.173128
11   0.181973
12   0.156865
13   0.134089
14   0.158224
15   0.160187
16   0.135297

$$$$
PCCDB-ID:  6047
     RDKit          3D

 25 25  0  0  1  0  0  0  0  0999 V2000
   -1.3082    0.3272    0.3589 C   0  0  0  0  0  0  0  0  0  0  0  0
   -0.4415    1.4152    0.2305 C   0  0  0  0  0  0  0  0  0  0  0  0
   -1.7591   -2.1684    0.3068 C   0  0  0  0  0  0  0  0  0  0  0  0
    0.5187   -1.1580   -0.1186 C   0  0  0  0  0  0  0  0  0  0  0  0
   -0.8402   -0.9744    0.1823 C   0  0  0  0  0  0  0  0  0  0  0  0
   -2.3491   -2.6932   -1.0304 C   0  0  2  0  0  0  0  0  0  0  0  0
    0.9042    1.2293   -0.0750 C   0  0  0  0  0  0  0  0  0  0  0  0
    1.3908   -0.0812   -0.2518 C   0  0  0  0  0  0  0  0  0  0  0  0
   -3.3070   -1.6479   -1.6351 C   0  0  0  0  0  0  0  0  0  0  0  0
   -3.1241   -3.9177   -0.7564 N   0  0  0  0  0  0  0  0  0  0  0  0
    1.8000    2.2518   -0.2112 O   0  0  0  0  0  0  0  0  0  0  0  0
    2.7201   -0.2187   -0.5403 O   0  0  0  0  0  0  0  0  0  0  0  0
   -2.9443   -0.7318   -2.3319 O   0  0  0  0  0  0  0  0  0  0  0  0
   -4.5910   -1.8304   -1.2697 O   0  0  0  0  0  0  0  0  0  0  0  0
   -2.3548    0.5040    0.5888 H   0  0  0  0  0  0  0  0  0  0  0  0
   -0.8187    2.4273    0.3661 H   0  0  0  0  0  0  0  0  0  0  0  0
   -2.5946   -1.9390    0.9795 H   0  0  0  0  0  0  0  0  0  0  0  0
   -1.2089   -3.0043    0.7626 H   0  0  0  0  0  0  0  0  0  0  0  0
    0.9115   -2.1663   -0.2524 H   0  0  0  0  0  0  0  0  0  0  0  0
   -1.5315   -2.8355   -1.7479 H   0  0  0  0  0  0  0  0  0  0  0  0
   -2.6617   -4.4976   -0.0594 H   0  0  0  0  0  0  0  0  0  0  0  0
   -3.2228   -4.4813   -1.5991 H   0  0  0  0  0  0  0  0  0  0  0  0
    1.3274    3.0898   -0.0892 H   0  0  0  0  0  0  0  0  0  0  0  0
    2.9117   -1.1617   -0.6600 H   0  0  0  0  0  0  0  0  0  0  0  0
   -4.5981   -2.6947   -0.7886 H   0  0  0  0  0  0  0  0  0  0  0  0
  1 15  1  0
  2  1  2  0
  2 16  1  0
  3 18  1  0
  3 17  1  0
  4  5  2  0
  5  3  1  0
  5  1  1  0
  6 20  1  6
  6 10  1  0
  6  3  1  0
  7  2  1  0
  8  4  1  0
  8  7  2  0
  9 14  1  0
  9  6  1  0
 10 21  1  0
 11 23  1  0
 11  7  1  0
 12  8  1  0
 13  9  2  0
 14 25  1  0
 19  4  1  0
 22 10  1  0
 24 12  1  0
M  END
>  <HBA>  (869) 
5

>  <HBD>  (869) 
4

>  <TPSA>  (869) 
103.78

>  <cid>  (869) 
6047

>  <dipole>  (869) 
4.97

>  <excitation_energy_1>  (869) 
4.686

>  <excitation_energy_2>  (869) 
4.78

>  <excitation_energy_3>  (869) 
4.905

>  <excitation_energy_4>  (869) 
5.012

>  <homo_energy>  (869) 
-5.524

>  <homo_lumo_gap>  (869) 
5.627

>  <logP>  (869) 
0.752

>  <lumo_energy>  (869) 
0.103

>  <melting_point>  (869) 
219.18

>  <molecular_refractivity>  (869) 
49.55

>  <oscillator_strength_1>  (869) 
0.0284

>  <oscillator_strength_2>  (869) 
0.0494

>  <oscillator_strength_3>  (869) 
0.0021

>  <oscillator_strength_4>  (869) 
0.0065

>  <open_babel_can_smiles>  (869) 
OC(=O)[C@@H](Cc1ccc(c(c1)O)O)N

>  <mulliken_charges>  (869) 
25
1   -0.176447
2   -0.195818
3   -0.376969
4   -0.257464
5   0.185536
6   -0.065435
7   0.320362
8   0.329458
9   0.605458
10   -0.77256
11   -0.632011
12   -0.633801
13   -0.456639
14   -0.585117
15   0.132965
16   0.122644
17   0.162183
18   0.142111
19   0.104324
20   0.159176
21   0.318719
22   0.324667
23   0.408226
24   0.405828
25   0.430605

>  <lowdin_charges>  (869) 
25
1   -0.162678
2   -0.199068
3   -0.270385
4   -0.21579
5   -0.016029
6   -0.105094
7   0.078407
8   0.081847
9   0.172285
10   -0.554083
11   -0.367924
12   -0.36848
13   -0.245029
14   -0.363386
15   0.160038
16   0.155649
17   0.158568
18   0.149042
19   0.14658
20   0.153634
21   0.268835
22   0.271284
23   0.359439
24   0.355223
25   0.357115

$$$$
PCCDB-ID:  6051
     RDKit          3D

 26 27  0  0  0  0  0  0  0  0999 V2000
   -1.0068   -2.3830    0.0566 C   0  0  0  0  0  0  0  0  0  0  0  0
   -0.2083   -3.5272    0.0989 C   0  0  0  0  0  0  0  0  0  0  0  0
   -0.4149   -1.1251   -0.1150 C   0  0  0  0  0  0  0  0  0  0  0  0
    1.1751   -3.4144   -0.0296 C   0  0  0  0  0  0  0  0  0  0  0  0
    0.9641   -1.0059   -0.2438 C   0  0  0  0  0  0  0  0  0  0  0  0
    7.0751    0.3768   -0.9065 C   0  0  0  0  0  0  0  0  0  0  0  0
    7.3018   -2.0298   -0.6994 C   0  0  0  0  0  0  0  0  0  0  0  0
    5.7005    0.2470   -0.7704 C   0  0  0  0  0  0  0  0  0  0  0  0
    5.9308   -2.1530   -0.5646 C   0  0  0  0  0  0  0  0  0  0  0  0
    7.9012   -0.7621   -0.8730 C   0  0  0  0  0  0  0  0  0  0  0  0
    1.7704   -2.1572   -0.2018 C   0  0  0  0  0  0  0  0  0  0  0  0
    5.1051   -1.0121   -0.5992 C   0  0  0  0  0  0  0  0  0  0  0  0
    9.2815   -0.6429   -0.9540 N   0  0  0  0  0  0  0  0  0  0  0  0
    3.1831   -2.1632   -0.3223 N   0  0  0  0  0  2  0  0  0  0  0  0
    3.7036   -1.0213   -0.4776 N   0  0  0  0  0  2  0  0  0  0  0  0
   -2.0858   -2.4668    0.1565 H   0  0  0  0  0  0  0  0  0  0  0  0
   -0.6624   -4.5055    0.2317 H   0  0  0  0  0  0  0  0  0  0  0  0
   -1.0378   -0.2346   -0.1477 H   0  0  0  0  0  0  0  0  0  0  0  0
    1.8203   -4.2874   -0.0006 H   0  0  0  0  0  0  0  0  0  0  0  0
    1.4396   -0.0407   -0.3775 H   0  0  0  0  0  0  0  0  0  0  0  0
    7.5219    1.3600   -1.0344 H   0  0  0  0  0  0  0  0  0  0  0  0
    7.9335   -2.9151   -0.6668 H   0  0  0  0  0  0  0  0  0  0  0  0
    5.0545    1.1195   -0.7970 H   0  0  0  0  0  0  0  0  0  0  0  0
    5.4688   -3.1252   -0.4334 H   0  0  0  0  0  0  0  0  0  0  0  0
    9.6329    0.2024   -1.3845 H   0  0  0  0  0  0  0  0  0  0  0  0
    9.7851   -1.4690   -1.2491 H   0  0  0  0  0  0  0  0  0  0  0  0
  1  2  2  0
  1 16  1  0
  2 17  1  0
  3  1  1  0
  4 19  1  0
  4  2  1  0
  5 11  1  0
  5  3  2  0
  6 10  2  0
  6  8  1  0
  7 22  1  0
  7  9  2  0
  8 12  2  0
  9 24  1  0
 10  7  1  0
 11  4  2  0
 12  9  1  0
 12 15  1  0
 13 10  1  0
 14 11  1  0
 15 14  1  0
 18  3  1  0
 20  5  1  0
 21  6  1  0
 23  8  1  0
 25 13  1  0
 26 13  1  0
M  RAD  2  14   2  15   2
M  END
>  <HBA>  (870) 
3

>  <HBD>  (870) 
1

>  <TPSA>  (870) 
50.74

>  <cid>  (870) 
6051

>  <dipole>  (870) 
3.11

>  <excitation_energy_1>  (870) 
2.677

>  <excitation_energy_2>  (870) 
3.301

>  <excitation_energy_3>  (870) 
4.111

>  <excitation_energy_4>  (870) 
4.213

>  <homo_energy>  (870) 
-5.369

>  <homo_lumo_gap>  (870) 
3.548

>  <logP>  (870) 
4.265

>  <lumo_energy>  (870) 
-1.82

>  <melting_point>  (870) 
110.97

>  <molecular_refractivity>  (870) 
61.46

>  <oscillator_strength_1>  (870) 
0.0

>  <oscillator_strength_2>  (870) 
0.8533

>  <oscillator_strength_3>  (870) 
0.0086

>  <oscillator_strength_4>  (870) 
0.0005

>  <open_babel_can_smiles>  (870) 
Nc1ccc(cc1)[N][N]c1ccccc1

>  <mulliken_charges>  (870) 
26
1   -0.120414
2   -0.138746
3   -0.146294
4   -0.143304
5   -0.126425
6   -0.184946
7   -0.188722
8   -0.144964
9   -0.129595
10   0.33594
11   0.272383
12   0.266523
13   -0.789614
14   -0.323663
15   -0.314283
16   0.129575
17   0.130674
18   0.131321
19   0.136004
20   0.150615
21   0.1225
22   0.124178
23   0.139968
24   0.155467
25   0.327835
26   0.327986

>  <lowdin_charges>  (870) 
26
1   -0.149935
2   -0.157972
3   -0.155422
4   -0.152269
5   -0.155201
6   -0.204144
7   -0.195809
8   -0.133886
9   -0.136391
10   0.074977
11   0.014836
12   -0.014388
13   -0.47535
14   -0.101193
15   -0.082224
16   0.155836
17   0.158118
18   0.15831
19   0.165369
20   0.171103
21   0.155215
22   0.155756
23   0.167844
24   0.173979
25   0.281276
26   0.281563

$$$$
PCCDB-ID:  6054
     RDKit          3D

 19 19  0  0  0  0  0  0  0  0999 V2000
   -1.5162   -0.0350   -0.0310 C   0  0  0  0  0  0  0  0  0  0  0  0
   -0.8469    1.1872   -0.1048 C   0  0  0  0  0  0  0  0  0  0  0  0
   -0.7801   -1.2202    0.0328 C   0  0  0  0  0  0  0  0  0  0  0  0
    0.5494    1.2228   -0.1150 C   0  0  0  0  0  0  0  0  0  0  0  0
    0.6143   -1.1810    0.0199 C   0  0  0  0  0  0  0  0  0  0  0  0
    2.8124    0.0810   -0.1276 C   0  0  0  0  0  0  0  0  0  0  0  0
    3.3262    0.1098   -1.5809 C   0  0  0  0  0  0  0  0  0  0  0  0
    1.3019    0.0392   -0.0522 C   0  0  0  0  0  0  0  0  0  0  0  0
    2.8922    1.2542   -2.2987 O   0  0  0  0  0  0  0  0  0  0  0  0
   -2.6023   -0.0645   -0.0178 H   0  0  0  0  0  0  0  0  0  0  0  0
   -1.4103    2.1158   -0.1480 H   0  0  0  0  0  0  0  0  0  0  0  0
   -1.2926   -2.1766    0.0968 H   0  0  0  0  0  0  0  0  0  0  0  0
    1.0661    2.1788   -0.1584 H   0  0  0  0  0  0  0  0  0  0  0  0
    1.1797   -2.1091    0.0719 H   0  0  0  0  0  0  0  0  0  0  0  0
    3.1912    0.9724    0.3864 H   0  0  0  0  0  0  0  0  0  0  0  0
    3.2412   -0.7951    0.3759 H   0  0  0  0  0  0  0  0  0  0  0  0
    3.0294   -0.8192   -2.0946 H   0  0  0  0  0  0  0  0  0  0  0  0
    4.4202    0.1541   -1.5829 H   0  0  0  0  0  0  0  0  0  0  0  0
    1.9220    1.2207   -2.3284 H   0  0  0  0  0  0  0  0  0  0  0  0
  1 10  1  0
  1  3  2  0
  2  1  1  0
  3 12  1  0
  4  2  2  0
  4  8  1  0
  5  3  1  0
  5 14  1  0
  6  8  1  0
  6 16  1  0
  6 15  1  0
  7  6  1  0
  8  5  2  0
  9  7  1  0
 11  2  1  0
 13  4  1  0
 17  7  1  0
 18  7  1  0
 19  9  1  0
M  END
>  <HBA>  (871) 
1

>  <HBD>  (871) 
1

>  <TPSA>  (871) 
20.23

>  <cid>  (871) 
6054

>  <dipole>  (871) 
1.69

>  <excitation_energy_1>  (871) 
5.277

>  <excitation_energy_2>  (871) 
5.807

>  <excitation_energy_3>  (871) 
6.101

>  <excitation_energy_4>  (871) 
6.229

>  <homo_energy>  (871) 
-6.612

>  <homo_lumo_gap>  (871) 
6.463

>  <logP>  (871) 
1.221

>  <lumo_energy>  (871) 
-0.15

>  <melting_point>  (871) 
25.1

>  <molecular_refractivity>  (871) 
37.38

>  <oscillator_strength_1>  (871) 
0.0014

>  <oscillator_strength_2>  (871) 
0.0543

>  <oscillator_strength_3>  (871) 
0.0044

>  <oscillator_strength_4>  (871) 
0.0466

>  <open_babel_can_smiles>  (871) 
OCCc1ccccc1

>  <mulliken_charges>  (871) 
19
1   -0.131202
2   -0.126301
3   -0.126306
4   -0.205153
5   -0.180053
6   -0.35415
7   -0.025656
8   0.148179
9   -0.61763
10   0.131024
11   0.132565
12   0.131302
13   0.139765
14   0.125114
15   0.154692
16   0.139637
17   0.123339
18   0.146944
19   0.39389

>  <lowdin_charges>  (871) 
19
1   -0.157235
2   -0.155724
3   -0.153384
4   -0.180171
5   -0.168077
6   -0.294739
7   -0.128797
8   -0.008078
9   -0.466161
10   0.156325
11   0.159127
12   0.158388
13   0.160681
14   0.155445
15   0.156954
16   0.153617
17   0.126549
18   0.145604
19   0.339674

$$$$
PCCDB-ID:  6056
     RDKit          3D

 23 23  0  0  0  0  0  0  0  0999 V2000
    1.2123   -1.1351    1.8912 C   0  0  0  0  0  0  0  0  0  0  0  0
    2.7404   -1.2125    1.8239 C   0  0  0  0  0  0  0  0  0  0  0  0
    6.9529   -0.2137    0.2607 C   0  0  0  0  0  0  0  0  0  0  0  0
    3.2764   -1.2226    0.3780 C   0  0  0  0  0  0  0  0  0  0  0  0
    5.5607   -0.1274    0.2890 C   0  0  0  0  0  0  0  0  0  0  0  0
    7.5923   -1.4507    0.2456 C   0  0  0  0  0  0  0  0  0  0  0  0
    5.4333   -2.5356    0.2862 C   0  0  0  0  0  0  0  0  0  0  0  0
    4.7872   -1.2961    0.3044 C   0  0  0  0  0  0  0  0  0  0  0  0
    6.8338   -2.6328    0.2583 C   0  0  0  0  0  0  0  0  0  0  0  0
    7.4616   -3.8843    0.2976 N   0  0  0  0  0  0  0  0  0  0  0  0
    0.8590   -1.1285    2.9286 H   0  0  0  0  0  0  0  0  0  0  0  0
    0.7479   -1.9914    1.3864 H   0  0  0  0  0  0  0  0  0  0  0  0
    0.8391   -0.2244    1.4061 H   0  0  0  0  0  0  0  0  0  0  0  0
    3.0918   -2.1147    2.3418 H   0  0  0  0  0  0  0  0  0  0  0  0
    3.1807   -0.3625    2.3617 H   0  0  0  0  0  0  0  0  0  0  0  0
    7.5509    0.6942    0.2428 H   0  0  0  0  0  0  0  0  0  0  0  0
    2.9270   -0.3171   -0.1360 H   0  0  0  0  0  0  0  0  0  0  0  0
    2.8358   -2.0743   -0.1582 H   0  0  0  0  0  0  0  0  0  0  0  0
    5.0728    0.8441    0.2945 H   0  0  0  0  0  0  0  0  0  0  0  0
    8.6784   -1.5081    0.2220 H   0  0  0  0  0  0  0  0  0  0  0  0
    4.8396   -3.4489    0.2944 H   0  0  0  0  0  0  0  0  0  0  0  0
    8.3950   -3.8990   -0.0956 H   0  0  0  0  0  0  0  0  0  0  0  0
    6.9026   -4.6471   -0.0651 H   0  0  0  0  0  0  0  0  0  0  0  0
  1 11  1  0
  2  1  1  0
  2 14  1  0
  2 15  1  0
  3  5  2  0
  4  2  1  0
  5 19  1  0
  5  8  1  0
  6  9  2  0
  6  3  1  0
  7 21  1  0
  7  8  2  0
  8  4  1  0
  9  7  1  0
  9 10  1  0
 12  1  1  0
 13  1  1  0
 16  3  1  0
 17  4  1  0
 18  4  1  0
 20  6  1  0
 22 10  1  0
 23 10  1  0
M  END
>  <HBA>  (872) 
1

>  <HBD>  (872) 
1

>  <TPSA>  (872) 
26.02

>  <cid>  (872) 
6056

>  <dipole>  (872) 
1.54

>  <excitation_energy_1>  (872) 
4.67

>  <excitation_energy_2>  (872) 
4.728

>  <excitation_energy_3>  (872) 
5.295

>  <excitation_energy_4>  (872) 
5.434

>  <homo_energy>  (872) 
-5.323

>  <homo_lumo_gap>  (872) 
5.614

>  <logP>  (872) 
2.803

>  <lumo_energy>  (872) 
0.291

>  <melting_point>  (872) 
55.98

>  <molecular_refractivity>  (872) 
45.43

>  <oscillator_strength_1>  (872) 
0.0319

>  <oscillator_strength_2>  (872) 
0.012

>  <oscillator_strength_3>  (872) 
0.0306

>  <oscillator_strength_4>  (872) 
0.0097

>  <open_babel_can_smiles>  (872) 
CCCc1cccc(c1)N

>  <mulliken_charges>  (872) 
23
1   -0.44115
2   -0.241315
3   -0.134077
4   -0.34193
5   -0.192125
6   -0.175959
7   -0.231031
8   0.171907
9   0.312825
10   -0.788313
11   0.143693
12   0.140313
13   0.141279
14   0.138165
15   0.138936
16   0.122667
17   0.136891
18   0.134254
19   0.112546
20   0.112153
21   0.106003
22   0.317171
23   0.317098

>  <lowdin_charges>  (872) 
23
1   -0.445921
2   -0.270476
3   -0.146377
4   -0.273912
5   -0.199183
6   -0.203994
7   -0.213339
8   0.011123
9   0.060589
10   -0.491721
11   0.149494
12   0.146477
13   0.146561
14   0.143731
15   0.14465
16   0.155331
17   0.146608
18   0.145381
19   0.150966
20   0.148619
21   0.147962
22   0.272899
23   0.27453

$$$$
PCCDB-ID:  6058
     RDKit          3D

 11 10  0  0  0  0  0  0  0  0999 V2000
    1.0828   -0.0020    0.0910 C   0  0  0  0  0  0  0  0  0  0  0  0
    0.5485    0.2411   -1.3212 C   0  0  0  0  0  0  0  0  0  0  0  0
    2.5494    0.0166    0.0690 N   0  0  0  0  0  0  0  0  0  0  0  0
   -1.2860    0.3582   -1.4145 S   0  0  0  0  0  0  0  0  0  0  0  0
    0.6451   -0.9357    0.4891 H   0  0  0  0  0  0  0  0  0  0  0  0
    0.7396    0.8085    0.7424 H   0  0  0  0  0  0  0  0  0  0  0  0
    0.8957   -0.5343   -2.0130 H   0  0  0  0  0  0  0  0  0  0  0  0
    0.9212    1.1991   -1.6941 H   0  0  0  0  0  0  0  0  0  0  0  0
    2.9020   -0.8339   -0.3682 H   0  0  0  0  0  0  0  0  0  0  0  0
    2.9093    0.0143    1.0216 H   0  0  0  0  0  0  0  0  0  0  0  0
   -1.5493   -0.9116   -1.0340 H   0  0  0  0  0  0  0  0  0  0  0  0
  1  5  1  0
  1  6  1  0
  2  1  1  0
  3  1  1  0
  3 10  1  0
  4  2  1  0
  4 11  1  0
  7  2  1  0
  8  2  1  0
  9  3  1  0
M  END
>  <HBA>  (873) 
2

>  <HBD>  (873) 
2

>  <TPSA>  (873) 
64.82

>  <cid>  (873) 
6058

>  <dipole>  (873) 
2.7

>  <excitation_energy_1>  (873) 
5.208

>  <excitation_energy_2>  (873) 
5.606

>  <excitation_energy_3>  (873) 
5.826

>  <excitation_energy_4>  (873) 
6.199

>  <homo_energy>  (873) 
-6.373

>  <homo_lumo_gap>  (873) 
7.116

>  <logP>  (873) 
0.575

>  <lumo_energy>  (873) 
0.743

>  <melting_point>  (873) 
50.6

>  <molecular_refractivity>  (873) 
22.36

>  <oscillator_strength_1>  (873) 
0.0053

>  <oscillator_strength_2>  (873) 
0.0226

>  <oscillator_strength_3>  (873) 
0.0303

>  <oscillator_strength_4>  (873) 
0.0037

>  <open_babel_can_smiles>  (873) 
NCCS

>  <mulliken_charges>  (873) 
11
1   -0.127532
2   -0.401391
3   -0.715453
4   -0.083998
5   0.116916
6   0.161057
7   0.168999
8   0.193914
9   0.295047
10   0.302696
11   0.089745

>  <lowdin_charges>  (873) 
11
1   -0.210651
2   -0.376587
3   -0.557099
4   -0.083585
5   0.120258
6   0.154793
7   0.156868
8   0.176117
9   0.253168
10   0.257974
11   0.108744

$$$$
PCCDB-ID:  6061
     RDKit          3D

  9  8  0  0  0  0  0  0  0  0999 V2000
    0.9484   -0.0381   -0.0319 C   0  0  0  0  0  0  0  0  0  0  0  0
    2.9002   -0.8996    1.0120 N   0  0  0  0  0  0  0  0  0  0  0  0
    2.4097   -0.0459   -0.0950 N   0  0  0  0  0  0  0  0  0  0  0  0
    0.5754    0.7249   -0.7228 H   0  0  0  0  0  0  0  0  0  0  0  0
    0.5499    0.1541    0.9777 H   0  0  0  0  0  0  0  0  0  0  0  0
    0.5661   -1.0092   -0.3714 H   0  0  0  0  0  0  0  0  0  0  0  0
    3.9043   -0.9776    0.8271 H   0  0  0  0  0  0  0  0  0  0  0  0
    2.5548   -1.8322    0.7656 H   0  0  0  0  0  0  0  0  0  0  0  0
    2.7104    0.8870    0.1931 H   0  0  0  0  0  0  0  0  0  0  0  0
  1  5  1  0
  3  1  1  0
  3  9  1  0
  3  2  1  0
  4  1  1  0
  6  1  1  0
  7  2  1  0
  8  2  1  0
M  END
>  <HBA>  (874) 
2

>  <HBD>  (874) 
2

>  <TPSA>  (874) 
38.05

>  <cid>  (874) 
6061

>  <dipole>  (874) 
0.29

>  <excitation_energy_1>  (874) 
4.791

>  <excitation_energy_2>  (874) 
5.575

>  <excitation_energy_3>  (874) 
5.726

>  <excitation_energy_4>  (874) 
6.293

>  <homo_energy>  (874) 
-5.282

>  <homo_lumo_gap>  (874) 
7.445

>  <logP>  (874) 
0.171

>  <lumo_energy>  (874) 
2.163

>  <melting_point>  (874) 
58.19

>  <molecular_refractivity>  (874) 
12.43

>  <oscillator_strength_1>  (874) 
0.0026

>  <oscillator_strength_2>  (874) 
0.0166

>  <oscillator_strength_3>  (874) 
0.0129

>  <oscillator_strength_4>  (874) 
0.0649

>  <open_babel_can_smiles>  (874) 
CNN

>  <mulliken_charges>  (874) 
9
1   -0.300622
2   -0.599416
3   -0.451529
4   0.15108
5   0.140085
6   0.146201
7   0.303917
8   0.301691
9   0.308594

>  <lowdin_charges>  (874) 
9
1   -0.369379
2   -0.496796
3   -0.32016
4   0.154872
5   0.132448
6   0.143862
7   0.25142
8   0.251161
9   0.252571

$$$$
PCCDB-ID:  6082
     RDKit          3D

 32 32  0  0  1  0  0  0  0  0999 V2000
    3.4804   -0.8207    3.2119 C   0  0  0  0  0  0  0  0  0  0  0  0
    8.5381    3.7616    0.4738 C   0  0  0  0  0  0  0  0  0  0  0  0
    6.1137   -2.8706    0.5324 C   0  0  0  0  0  0  0  0  0  0  0  0
    7.6719    1.0612    0.4875 C   0  0  0  0  0  0  0  0  0  0  0  0
    7.1662   -0.2450    0.5030 C   0  0  0  0  0  0  0  0  0  0  0  0
    5.4212    1.8887    0.7388 C   0  0  0  0  0  0  0  0  0  0  0  0
    2.9311    0.3809    2.4390 C   0  0  1  0  0  0  0  0  0  0  0  0
    6.7952    2.1374    0.6104 C   0  0  0  0  0  0  0  0  0  0  0  0
    4.8974    0.5995    0.7638 C   0  0  0  0  0  0  0  0  0  0  0  0
    5.8015   -0.4814    0.6451 C   0  0  0  0  0  0  0  0  0  0  0  0
    3.3912    0.4334    0.9456 C   0  0  1  0  0  0  0  0  0  0  0  0
    1.4664    0.3779    2.5462 N   0  0  0  0  0  0  0  0  0  0  0  0
    2.8274   -0.6442    0.2035 O   0  0  0  0  0  0  0  0  0  0  0  0
    7.1609    3.4558    0.6061 O   0  0  0  0  0  0  0  0  0  0  0  0
    5.2537   -1.7512    0.6800 O   0  0  0  0  0  0  0  0  0  0  0  0
    4.5743   -0.8207    3.2386 H   0  0  0  0  0  0  0  0  0  0  0  0
    3.1512   -1.7604    2.7533 H   0  0  0  0  0  0  0  0  0  0  0  0
    3.1003   -0.7958    4.2370 H   0  0  0  0  0  0  0  0  0  0  0  0
    8.6081    4.8508    0.4964 H   0  0  0  0  0  0  0  0  0  0  0  0
    8.9455    3.3927   -0.4775 H   0  0  0  0  0  0  0  0  0  0  0  0
    9.1271    3.3439    1.3018 H   0  0  0  0  0  0  0  0  0  0  0  0
    5.4708   -3.7513    0.5795 H   0  0  0  0  0  0  0  0  0  0  0  0
    6.8506   -2.9163    1.3441 H   0  0  0  0  0  0  0  0  0  0  0  0
    6.6356   -2.8510   -0.4330 H   0  0  0  0  0  0  0  0  0  0  0  0
    8.7397    1.2103    0.3780 H   0  0  0  0  0  0  0  0  0  0  0  0
    7.8619   -1.0701    0.4042 H   0  0  0  0  0  0  0  0  0  0  0  0
    4.7562    2.7450    0.8131 H   0  0  0  0  0  0  0  0  0  0  0  0
    3.2949    1.2995    2.9198 H   0  0  0  0  0  0  0  0  0  0  0  0
    2.9251    1.3340    0.5247 H   0  0  0  0  0  0  0  0  0  0  0  0
    1.1222   -0.3683    1.9391 H   0  0  0  0  0  0  0  0  0  0  0  0
    1.0968    1.2408    2.1447 H   0  0  0  0  0  0  0  0  0  0  0  0
    3.4300   -1.4001    0.3084 H   0  0  0  0  0  0  0  0  0  0  0  0
  1 16  1  0
  1 18  1  0
  2 19  1  0
  2 14  1  0
  2 21  1  0
  3 22  1  0
  3 15  1  0
  3 23  1  0
  4  5  2  0
  4  8  1  0
  5 10  1  0
  6  9  1  0
  6 27  1  0
  7 12  1  0
  7 28  1  1
  7  1  1  0
  8  6  2  0
  9 11  1  0
 10 15  1  0
 10  9  2  0
 11 29  1  6
 11  7  1  0
 13 32  1  0
 13 11  1  0
 14  8  1  0
 17  1  1  0
 20  2  1  0
 24  3  1  0
 25  4  1  0
 26  5  1  0
 30 12  1  0
 31 12  1  0
M  END
>  <HBA>  (875) 
4

>  <HBD>  (875) 
2

>  <TPSA>  (875) 
64.71

>  <cid>  (875) 
6082

>  <dipole>  (875) 
4.62

>  <excitation_energy_1>  (875) 
4.609

>  <excitation_energy_2>  (875) 
5.03

>  <excitation_energy_3>  (875) 
5.055

>  <excitation_energy_4>  (875) 
5.342

>  <homo_energy>  (875) 
-5.557

>  <homo_lumo_gap>  (875) 
5.372

>  <logP>  (875) 
1.785

>  <lumo_energy>  (875) 
-0.185

>  <melting_point>  (875) 
90.91

>  <molecular_refractivity>  (875) 
57.88

>  <oscillator_strength_1>  (875) 
0.0842

>  <oscillator_strength_2>  (875) 
0.0002

>  <oscillator_strength_3>  (875) 
0.0356

>  <oscillator_strength_4>  (875) 
0.0034

>  <open_babel_can_smiles>  (875) 
COc1ccc(c(c1)[C@H]([C@@H](N)C)O)OC

>  <mulliken_charges>  (875) 
32
1   -0.441722
2   -0.21323
3   -0.214422
4   -0.207728
5   -0.199166
6   -0.253898
7   0.020071
8   0.389493
9   0.115279
10   0.330574
11   0.052683
12   -0.705195
13   -0.660558
14   -0.512519
15   -0.55527
16   0.142803
17   0.13279
18   0.156409
19   0.170025
20   0.149723
21   0.149512
22   0.172765
23   0.15766
24   0.157762
25   0.132515
26   0.134005
27   0.137563
28   0.123765
29   0.126134
30   0.303431
31   0.286778
32   0.421966

>  <lowdin_charges>  (875) 
32
1   -0.449205
2   -0.275938
3   -0.278006
4   -0.206253
5   -0.199843
6   -0.179831
7   -0.079743
8   0.090972
9   -0.029361
10   0.078142
11   -0.016049
12   -0.549817
13   -0.476122
14   -0.202788
15   -0.21697
16   0.148556
17   0.144239
18   0.157855
19   0.160838
20   0.14376
21   0.144685
22   0.164931
23   0.149219
24   0.148241
25   0.161647
26   0.16462
27   0.167302
28   0.139168
29   0.143437
30   0.257478
31   0.249414
32   0.345421

$$$$
PCCDB-ID:  6088
     RDKit          3D

 27 28  0  0  0  0  0  0  0  0999 V2000
    6.2465   -0.7125    1.3863 C   0  0  0  0  0  0  0  0  0  0  0  0
    6.5244    0.0233   -5.5591 C   0  0  0  0  0  0  0  0  0  0  0  0
    6.8789    1.1317   -6.3558 C   0  0  0  0  0  0  0  0  0  0  0  0
    5.9506    0.1953   -4.3058 C   0  0  0  0  0  0  0  0  0  0  0  0
    6.6635    2.4326   -5.9157 C   0  0  0  0  0  0  0  0  0  0  0  0
    4.6494    1.2568   -1.4340 C   0  0  0  0  0  0  0  0  0  0  0  0
    5.7723    0.6728   -0.5598 C   0  0  0  0  0  0  0  0  0  0  0  0
    5.1942    3.4014   -2.7464 C   0  0  0  0  0  0  0  0  0  0  0  0
    5.1544    2.0361   -2.6145 C   0  0  0  0  0  0  0  0  0  0  0  0
    5.7227    1.4986   -3.8291 C   0  0  0  0  0  0  0  0  0  0  0  0
    6.0865    2.6003   -4.6524 C   0  0  0  0  0  0  0  0  0  0  0  0
    5.2227   -0.1495    0.5140 N   0  0  0  0  0  0  0  0  0  0  0  0
    5.7537    3.7485   -3.9637 N   0  0  0  0  0  0  0  0  0  0  0  0
    5.7694   -1.2690    2.2001 H   0  0  0  0  0  0  0  0  0  0  0  0
    6.9304    0.0346    1.8326 H   0  0  0  0  0  0  0  0  0  0  0  0
    6.8604   -1.4195    0.8153 H   0  0  0  0  0  0  0  0  0  0  0  0
    6.7037   -0.9802   -5.9354 H   0  0  0  0  0  0  0  0  0  0  0  0
    7.3255    0.9665   -7.3325 H   0  0  0  0  0  0  0  0  0  0  0  0
    5.6776   -0.6672   -3.7030 H   0  0  0  0  0  0  0  0  0  0  0  0
    6.9331    3.2868   -6.5319 H   0  0  0  0  0  0  0  0  0  0  0  0
    4.0141    1.9042   -0.8128 H   0  0  0  0  0  0  0  0  0  0  0  0
    4.0120    0.4268   -1.7651 H   0  0  0  0  0  0  0  0  0  0  0  0
    6.4138    1.4983   -0.1927 H   0  0  0  0  0  0  0  0  0  0  0  0
    6.4189    0.0340   -1.1756 H   0  0  0  0  0  0  0  0  0  0  0  0
    4.8612    4.1680   -2.0593 H   0  0  0  0  0  0  0  0  0  0  0  0
    4.5882    0.4206    1.0722 H   0  0  0  0  0  0  0  0  0  0  0  0
    5.8768    4.6898   -4.3014 H   0  0  0  0  0  0  0  0  0  0  0  0
  1 15  1  0
  1 14  1  0
  2  4  2  0
  3  5  2  0
  3  2  1  0
  4 10  1  0
  4 19  1  0
  5 11  1  0
  6 21  1  0
  6  7  1  0
  7 23  1  0
  7 12  1  0
  8  9  2  0
  8 25  1  0
  9  6  1  0
 10  9  1  0
 11 13  1  0
 11 10  2  0
 12 26  1  0
 12  1  1  0
 13  8  1  0
 16  1  1  0
 17  2  1  0
 18  3  1  0
 20  5  1  0
 22  6  1  0
 24  7  1  0
 27 13  1  0
M  END
>  <HBA>  (876) 
1

>  <HBD>  (876) 
2

>  <TPSA>  (876) 
27.82

>  <cid>  (876) 
6088

>  <dipole>  (876) 
2.87

>  <excitation_energy_1>  (876) 
4.557

>  <excitation_energy_2>  (876) 
4.699

>  <excitation_energy_3>  (876) 
4.823

>  <excitation_energy_4>  (876) 
5.092

>  <homo_energy>  (876) 
-5.287

>  <homo_lumo_gap>  (876) 
5.23

>  <logP>  (876) 
2.321

>  <lumo_energy>  (876) 
-0.057

>  <melting_point>  (876) 
125.61

>  <molecular_refractivity>  (876) 
55.68

>  <oscillator_strength_1>  (876) 
0.0689

>  <oscillator_strength_2>  (876) 
0.0013

>  <oscillator_strength_3>  (876) 
0.0252

>  <oscillator_strength_4>  (876) 
0.0012

>  <open_babel_can_smiles>  (876) 
CNCCc1c[nH]c2c1cccc2

>  <mulliken_charges>  (876) 
27
1   -0.298052
2   -0.140661
3   -0.151426
4   -0.211449
5   -0.163429
6   -0.35301
7   -0.110486
8   -0.006326
9   0.076231
10   0.077959
11   0.312926
12   -0.539382
13   -0.691083
14   0.145868
15   0.117695
16   0.151427
17   0.119171
18   0.120996
19   0.128806
20   0.118573
21   0.127575
22   0.156397
23   0.108799
24   0.145926
25   0.14309
26   0.289035
27   0.32483

>  <lowdin_charges>  (876) 
27
1   -0.363848
2   -0.176673
3   -0.163785
4   -0.165376
5   -0.189893
6   -0.273882
7   -0.203955
8   -0.141152
9   -0.059427
10   -0.034194
11   0.031114
12   -0.366086
13   -0.200851
14   0.150272
15   0.120844
16   0.149543
17   0.153427
18   0.154173
19   0.158255
20   0.154854
21   0.1444
22   0.157115
23   0.116339
24   0.145877
25   0.163162
26   0.250452
27   0.289295

$$$$
PCCDB-ID:  6090
     RDKit          3D

 36 37  0  0  0  0  0  0  0  0999 V2000
    3.0515    1.6009    0.6876 C   0  0  0  0  0  0  0  0  0  0  0  0
    3.1924   -2.0389   -0.3350 C   0  0  0  0  0  0  0  0  0  0  0  0
    3.4161    0.3449    1.5016 C   0  0  0  0  0  0  0  0  0  0  0  0
    4.3755   -1.0700   -0.2752 C   0  0  0  0  0  0  0  0  0  0  0  0
   10.4423   -1.5731    2.2853 C   0  0  0  0  0  0  0  0  0  0  0  0
   11.5283   -0.6819    2.4049 C   0  0  0  0  0  0  0  0  0  0  0  0
    9.1312   -1.1188    2.3541 C   0  0  0  0  0  0  0  0  0  0  0  0
   11.3244    0.6796    2.5990 C   0  0  0  0  0  0  0  0  0  0  0  0
    6.2725    0.5684    2.5782 C   0  0  0  0  0  0  0  0  0  0  0  0
    5.8509    0.2412    1.1309 C   0  0  0  0  0  0  0  0  0  0  0  0
    8.1137    2.3446    2.8546 C   0  0  0  0  0  0  0  0  0  0  0  0
    7.6924    1.0521    2.6678 C   0  0  0  0  0  0  0  0  0  0  0  0
    8.8901    0.2535    2.5450 C   0  0  0  0  0  0  0  0  0  0  0  0
   10.0023    1.1321    2.6670 C   0  0  0  0  0  0  0  0  0  0  0  0
    9.4969    2.4024    2.8515 N   0  0  0  0  0  0  0  0  0  0  0  0
    4.5619   -0.4476    1.0392 N   0  0  0  0  0  0  0  0  0  0  0  0
    2.1893    2.1030    1.1425 H   0  0  0  0  0  0  0  0  0  0  0  0
    2.7830    1.3553   -0.3459 H   0  0  0  0  0  0  0  0  0  0  0  0
    3.8750    2.3231    0.6553 H   0  0  0  0  0  0  0  0  0  0  0  0
    3.2109   -2.5881   -1.2831 H   0  0  0  0  0  0  0  0  0  0  0  0
    2.2255   -1.5280   -0.2751 H   0  0  0  0  0  0  0  0  0  0  0  0
    3.2491   -2.7624    0.4854 H   0  0  0  0  0  0  0  0  0  0  0  0
    2.5465   -0.3197    1.5410 H   0  0  0  0  0  0  0  0  0  0  0  0
    3.6098    0.6349    2.5400 H   0  0  0  0  0  0  0  0  0  0  0  0
    4.2805   -0.3266   -1.0909 H   0  0  0  0  0  0  0  0  0  0  0  0
    5.2923   -1.6333   -0.4883 H   0  0  0  0  0  0  0  0  0  0  0  0
   10.6377   -2.6320    2.1390 H   0  0  0  0  0  0  0  0  0  0  0  0
   12.5433   -1.0658    2.3476 H   0  0  0  0  0  0  0  0  0  0  0  0
    8.3024   -1.8168    2.2650 H   0  0  0  0  0  0  0  0  0  0  0  0
   12.1624    1.3655    2.6944 H   0  0  0  0  0  0  0  0  0  0  0  0
    6.1378   -0.3385    3.1828 H   0  0  0  0  0  0  0  0  0  0  0  0
    5.6089    1.3301    3.0041 H   0  0  0  0  0  0  0  0  0  0  0  0
    6.6040   -0.4296    0.7018 H   0  0  0  0  0  0  0  0  0  0  0  0
    5.8948    1.1682    0.5277 H   0  0  0  0  0  0  0  0  0  0  0  0
    7.5291    3.2443    2.9945 H   0  0  0  0  0  0  0  0  0  0  0  0
   10.0455    3.2358    2.9922 H   0  0  0  0  0  0  0  0  0  0  0  0
  1 17  1  0
  1  3  1  0
  2  4  1  0
  2 21  1  0
  2 22  1  0
  3 23  1  0
  3 24  1  0
  4 16  1  0
  5  7  2  0
  5  6  1  0
  6  8  2  0
  7 13  1  0
  8 14  1  0
  8 30  1  0
  9 12  1  0
  9 32  1  0
  9 31  1  0
 10  9  1  0
 11 35  1  0
 12 11  2  0
 13 14  2  0
 13 12  1  0
 14 15  1  0
 15 11  1  0
 15 36  1  0
 16 10  1  0
 16  3  1  0
 18  1  1  0
 19  1  1  0
 20  2  1  0
 25  4  1  0
 26  4  1  0
 27  5  1  0
 28  6  1  0
 29  7  1  0
 33 10  1  0
 34 10  1  0
M  END
>  <HBA>  (877) 
1

>  <HBD>  (877) 
1

>  <TPSA>  (877) 
19.03

>  <cid>  (877) 
6090

>  <dipole>  (877) 
2.38

>  <excitation_energy_1>  (877) 
4.529

>  <excitation_energy_2>  (877) 
4.623

>  <excitation_energy_3>  (877) 
4.686

>  <excitation_energy_4>  (877) 
4.823

>  <homo_energy>  (877) 
-5.271

>  <homo_lumo_gap>  (877) 
5.216

>  <logP>  (877) 
3.052

>  <lumo_energy>  (877) 
-0.054

>  <melting_point>  (877) 
99.08

>  <molecular_refractivity>  (877) 
70.2

>  <oscillator_strength_1>  (877) 
0.0589

>  <oscillator_strength_2>  (877) 
0.0113

>  <oscillator_strength_3>  (877) 
0.0013

>  <oscillator_strength_4>  (877) 
0.0251

>  <open_babel_can_smiles>  (877) 
CCN(CCc1c[nH]c2c1cccc2)CC

>  <mulliken_charges>  (877) 
36
1   -0.459829
2   -0.457303
3   -0.137886
4   -0.103916
5   -0.140943
6   -0.151392
7   -0.211909
8   -0.163436
9   -0.353503
10   -0.109868
11   -0.005654
12   0.070451
13   0.080116
14   0.312611
15   -0.691663
16   -0.386024
17   0.140459
18   0.148658
19   0.147226
20   0.142065
21   0.146346
22   0.155089
23   0.141843
24   0.142415
25   0.110864
26   0.136105
27   0.118872
28   0.120887
29   0.128171
30   0.118573
31   0.151752
32   0.137012
33   0.143111
34   0.112586
35   0.143343
36   0.324774

>  <lowdin_charges>  (877) 
36
1   -0.46682
2   -0.452111
3   -0.206393
4   -0.197496
5   -0.175277
6   -0.164219
7   -0.166106
8   -0.190139
9   -0.275811
10   -0.202038
11   -0.138723
12   -0.058776
13   -0.034958
14   0.032873
15   -0.205446
16   -0.193402
17   0.152565
18   0.148233
19   0.149006
20   0.152693
21   0.147048
22   0.154798
23   0.145974
24   0.143062
25   0.11612
26   0.143771
27   0.152264
28   0.153965
29   0.157911
30   0.154921
31   0.154567
32   0.147926
33   0.14888
34   0.117859
35   0.162636
36   0.290645

$$$$
PCCDB-ID:  6093
     RDKit          3D

 20 21  0  0  0  0  0  0  0  0999 V2000
   -0.5338    1.1592    0.0918 C   0  0  0  0  0  0  0  0  0  0  0  0
   -1.0846   -0.2998    0.1324 C   0  0  0  0  0  0  0  0  0  0  0  0
   -0.7226   -4.4536    0.2112 C   0  0  0  0  0  0  0  0  0  0  0  0
    0.5949   -4.8187    0.1521 C   0  0  0  0  0  0  0  0  0  0  0  0
    1.2213   -0.1728    0.0197 C   0  0  0  0  0  0  0  0  0  0  0  0
    0.1780   -2.4452    0.1267 C   0  0  0  0  0  0  0  0  0  0  0  0
    0.9313    1.0660    0.0063 N   0  0  0  0  0  0  0  0  0  0  0  0
   -0.9603   -3.1152    0.1973 N   0  0  0  0  0  0  0  0  0  0  0  0
    0.1664   -1.0823    0.1005 N   0  0  0  0  0  0  0  0  0  0  0  0
    1.1267   -6.1368    0.1521 N   0  0  0  0  0  0  0  0  0  0  0  0
    2.4524   -0.6998   -0.0359 O   0  0  0  0  0  0  0  0  0  0  0  0
    0.3285   -7.0768    0.2128 O   0  0  0  0  0  0  0  0  0  0  0  0
    2.3586   -6.2465    0.0907 O   0  0  0  0  0  0  0  0  0  0  0  0
    1.6493   -3.4229    0.0717 S   0  0  0  0  0  0  0  0  0  0  0  0
   -0.8142    1.7212    0.9893 H   0  0  0  0  0  0  0  0  0  0  0  0
   -0.9196    1.7116   -0.7716 H   0  0  0  0  0  0  0  0  0  0  0  0
   -1.7055   -0.5608   -0.7290 H   0  0  0  0  0  0  0  0  0  0  0  0
   -1.6471   -0.5356    1.0395 H   0  0  0  0  0  0  0  0  0  0  0  0
   -1.5454   -5.1558    0.2654 H   0  0  0  0  0  0  0  0  0  0  0  0
    3.0770    0.0457   -0.0837 H   0  0  0  0  0  0  0  0  0  0  0  0
  1  2  1  0
  1 15  1  0
  2 18  1  0
  3 19  1  0
  4  3  2  0
  5  9  1  0
  6  8  2  0
  7  5  2  0
  7  1  1  0
  8  3  1  0
  9  6  1  0
  9  2  1  0
 10  4  1  0
 10 12  1  0
 11  5  1  0
 13 10  2  0
 14  6  1  0
 14  4  1  0
 16  1  1  0
 17  2  1  0
 20 11  1  0
M  CHG  2  10   1  12  -1
M  END
>  <HBA>  (878) 
5

>  <HBD>  (878) 
1

>  <TPSA>  (878) 
119.29

>  <cid>  (878) 
6093

>  <dipole>  (878) 
5.93

>  <excitation_energy_1>  (878) 
3.444

>  <excitation_energy_2>  (878) 
3.713

>  <excitation_energy_3>  (878) 
4.126

>  <excitation_energy_4>  (878) 
4.787

>  <homo_energy>  (878) 
-6.332

>  <homo_lumo_gap>  (878) 
3.853

>  <logP>  (878) 
1.498

>  <lumo_energy>  (878) 
-2.479

>  <melting_point>  (878) 
148.01

>  <molecular_refractivity>  (878) 
58.08

>  <oscillator_strength_1>  (878) 
0.3608

>  <oscillator_strength_2>  (878) 
0.0001

>  <oscillator_strength_3>  (878) 
0.0006

>  <oscillator_strength_4>  (878) 
0.0281

>  <open_babel_can_smiles>  (878) 
OC1=NCCN1c1ncc(s1)N(=O)=O

>  <mulliken_charges>  (878) 
20
1   -0.17726
2   -0.135331
3   0.086881
4   0.020292
5   0.719558
6   0.319346
7   -0.48332
8   -0.472083
9   -0.532127
10   0.377633
11   -0.601555
12   -0.411784
13   -0.396367
14   0.334612
15   0.16927
16   0.169304
17   0.186948
18   0.187965
19   0.196936
20   0.441083

>  <lowdin_charges>  (878) 
20
1   -0.200406
2   -0.191943
3   -0.076629
4   -0.185291
5   0.15123
6   -0.016173
7   -0.251846
8   -0.196016
9   -0.062274
10   0.311393
11   -0.333396
12   -0.25913
13   -0.256731
14   0.333905
15   0.158409
16   0.159217
17   0.168098
18   0.168915
19   0.192501
20   0.386168

$$$$
PCCDB-ID:  6094
     RDKit          3D

 22 22  0  0  0  0  0  0  0  0999 V2000
    0.9023   -0.0615   -0.1429 C   0  0  0  0  0  0  0  0  0  0  0  0
    5.2737   -2.5958   -0.1033 C   0  0  0  0  0  0  0  0  0  0  0  0
    4.5686    1.0068   -0.0696 C   0  0  0  0  0  0  0  0  0  0  0  0
    2.5460    2.4970   -0.0631 C   0  0  0  0  0  0  0  0  0  0  0  0
    2.4145   -0.0618   -0.1152 C   0  0  0  0  0  0  0  0  0  0  0  0
    4.5279   -1.2885   -0.0968 C   0  0  0  0  0  0  0  0  0  0  0  0
    3.1784    1.1229   -0.0806 C   0  0  0  0  0  0  0  0  0  0  0  0
    3.1182   -1.2711   -0.1075 C   0  0  0  0  0  0  0  0  0  0  0  0
    5.2336   -0.1550   -0.0795 N   0  0  0  0  0  0  0  0  0  0  0  0
    1.7591    2.7846   -1.2225 O   0  0  0  0  0  0  0  0  0  0  0  0
    2.4964   -2.4915   -0.1153 O   0  0  0  0  0  0  0  0  0  0  0  0
    0.5157    0.9201   -0.4185 H   0  0  0  0  0  0  0  0  0  0  0  0
    0.4766   -0.3423    0.8310 H   0  0  0  0  0  0  0  0  0  0  0  0
    0.5143   -0.7696   -0.8889 H   0  0  0  0  0  0  0  0  0  0  0  0
    5.0311   -3.1880   -0.9941 H   0  0  0  0  0  0  0  0  0  0  0  0
    5.0043   -3.2112    0.7636 H   0  0  0  0  0  0  0  0  0  0  0  0
    6.3472   -2.3969   -0.0850 H   0  0  0  0  0  0  0  0  0  0  0  0
    5.1841    1.9060   -0.0470 H   0  0  0  0  0  0  0  0  0  0  0  0
    3.3337    3.2533    0.0718 H   0  0  0  0  0  0  0  0  0  0  0  0
    1.8524    2.6026    0.7781 H   0  0  0  0  0  0  0  0  0  0  0  0
    2.3229    2.6255   -1.9963 H   0  0  0  0  0  0  0  0  0  0  0  0
    1.5363   -2.3633   -0.0809 H   0  0  0  0  0  0  0  0  0  0  0  0
  1  5  1  0
  1 13  1  0
  2  6  1  0
  2 17  1  0
  2 16  1  0
  3 18  1  0
  4 19  1  0
  4 20  1  0
  5  8  2  0
  5  7  1  0
  6  9  2  0
  7  3  2  0
  7  4  1  0
  8  6  1  0
  9  3  1  0
 10  4  1  0
 11  8  1  0
 11 22  1  0
 12  1  1  0
 14  1  1  0
 15  2  1  0
 21 10  1  0
M  END
>  <HBA>  (879) 
3

>  <HBD>  (879) 
2

>  <TPSA>  (879) 
53.35

>  <cid>  (879) 
6094

>  <dipole>  (879) 
2.09

>  <excitation_energy_1>  (879) 
4.858

>  <excitation_energy_2>  (879) 
4.87

>  <excitation_energy_3>  (879) 
5.305

>  <excitation_energy_4>  (879) 
5.418

>  <homo_energy>  (879) 
-6.142

>  <homo_lumo_gap>  (879) 
5.581

>  <logP>  (879) 
0.896

>  <lumo_energy>  (879) 
-0.561

>  <melting_point>  (879) 
91.93

>  <molecular_refractivity>  (879) 
42.32

>  <oscillator_strength_1>  (879) 
0.0711

>  <oscillator_strength_2>  (879) 
0.0489

>  <oscillator_strength_3>  (879) 
0.0045

>  <oscillator_strength_4>  (879) 
0.0007

>  <open_babel_can_smiles>  (879) 
OCc1cnc(c(c1C)O)C

>  <mulliken_charges>  (879) 
22
1   -0.591053
2   -0.502157
3   -0.032653
4   -0.124634
5   0.144435
6   0.277459
7   0.052399
8   0.231392
9   -0.469163
10   -0.606561
11   -0.645084
12   0.211387
13   0.168398
14   0.154833
15   0.164035
16   0.164607
17   0.169714
18   0.129175
19   0.140648
20   0.156596
21   0.390659
22   0.415568

>  <lowdin_charges>  (879) 
22
1   -0.464208
2   -0.44314
3   -0.125298
4   -0.134998
5   -0.027262
6   0.033435
7   -0.059313
8   0.067131
9   -0.15288
10   -0.467757
11   -0.375814
12   0.187403
13   0.161467
14   0.156442
15   0.164692
16   0.165207
17   0.166742
18   0.151824
19   0.140537
20   0.1541
21   0.344603
22   0.357088

$$$$
PCCDB-ID:  6096
     RDKit          3D

 20 21  0  0  0  0  0  0  0  0999 V2000
    0.9806    0.1184   -0.0542 C   0  0  0  0  0  0  0  0  0  0  0  0
    4.8083   -3.4541    0.1159 C   0  0  0  0  0  0  0  0  0  0  0  0
    3.4269   -3.6494    0.1119 C   0  0  0  0  0  0  0  0  0  0  0  0
    5.3404   -2.1560    0.0698 C   0  0  0  0  0  0  0  0  0  0  0  0
    2.5409   -2.5645    0.0635 C   0  0  0  0  0  0  0  0  0  0  0  0
    4.7233    0.4129   -0.0346 C   0  0  0  0  0  0  0  0  0  0  0  0
    4.4779   -1.0725    0.0222 C   0  0  0  0  0  0  0  0  0  0  0  0
    3.0874   -1.2862    0.0193 C   0  0  0  0  0  0  0  0  0  0  0  0
    3.3090    1.0115   -0.0711 C   0  0  0  0  0  0  0  0  0  0  0  0
    2.4171   -0.0549   -0.0346 N   0  0  0  0  0  0  0  0  0  0  0  0
    2.9974    2.1868   -0.1224 O   0  0  0  0  0  0  0  0  0  0  0  0
    0.5382   -0.3743   -0.9283 H   0  0  0  0  0  0  0  0  0  0  0  0
    0.7851    1.1909   -0.1043 H   0  0  0  0  0  0  0  0  0  0  0  0
    0.5233   -0.2931    0.8536 H   0  0  0  0  0  0  0  0  0  0  0  0
    5.4761   -4.3098    0.1525 H   0  0  0  0  0  0  0  0  0  0  0  0
    3.0253   -4.6585    0.1461 H   0  0  0  0  0  0  0  0  0  0  0  0
    6.4171   -2.0048    0.0743 H   0  0  0  0  0  0  0  0  0  0  0  0
    1.4669   -2.7225    0.0592 H   0  0  0  0  0  0  0  0  0  0  0  0
    5.2768    0.7373   -0.9240 H   0  0  0  0  0  0  0  0  0  0  0  0
    5.2608    0.8080    0.8359 H   0  0  0  0  0  0  0  0  0  0  0  0
  1 10  1  0
  1 14  1  0
  2 15  1  0
  3  2  2  0
  3 16  1  0
  4 17  1  0
  4  2  1  0
  5  3  1  0
  6  7  1  0
  6 20  1  0
  7  4  2  0
  8  7  1  0
  8  5  2  0
  9 10  1  0
  9  6  1  0
 10  8  1  0
 11  9  2  0
 12  1  1  0
 13  1  1  0
 18  5  1  0
 19  6  1  0
M  END
>  <HBA>  (880) 
2

>  <HBD>  (880) 
0

>  <TPSA>  (880) 
20.31

>  <cid>  (880) 
6096

>  <dipole>  (880) 
2.66

>  <excitation_energy_1>  (880) 
4.629

>  <excitation_energy_2>  (880) 
5.078

>  <excitation_energy_3>  (880) 
5.309

>  <excitation_energy_4>  (880) 
5.357

>  <homo_energy>  (880) 
-5.777

>  <homo_lumo_gap>  (880) 
5.459

>  <logP>  (880) 
1.27

>  <lumo_energy>  (880) 
-0.318

>  <melting_point>  (880) 
61.47

>  <molecular_refractivity>  (880) 
46.64

>  <oscillator_strength_1>  (880) 
0.0186

>  <oscillator_strength_2>  (880) 
0.1942

>  <oscillator_strength_3>  (880) 
0.0025

>  <oscillator_strength_4>  (880) 
0.0004

>  <open_babel_can_smiles>  (880) 
O=C1Cc2c(N1C)cccc2

>  <mulliken_charges>  (880) 
20
1   -0.333715
2   -0.133773
3   -0.14071
4   -0.209999
5   -0.182601
6   -0.450831
7   0.104172
8   0.347722
9   0.592411
10   -0.533616
11   -0.505592
12   0.165463
13   0.202676
14   0.165579
15   0.12821
16   0.131444
17   0.13111
18   0.132955
19   0.194567
20   0.194528

>  <lowdin_charges>  (880) 
20
1   -0.352523
2   -0.174717
3   -0.146484
4   -0.152209
5   -0.193996
6   -0.301186
7   -0.031229
8   0.045356
9   0.159313
10   -0.070745
11   -0.284315
12   0.157795
13   0.183419
14   0.157563
15   0.159274
16   0.158772
17   0.157539
18   0.160013
19   0.184095
20   0.184266

$$$$
PCCDB-ID:  6097
     RDKit          3D

 18 19  0  0  1  0  0  0  0  0999 V2000
    2.1747   -0.6348   -0.0679 C   0  0  0  0  0  0  0  0  0  0  0  0
    2.1031    0.7569    0.0323 C   0  0  0  0  0  0  0  0  0  0  0  0
    1.0020   -1.4059   -0.0969 C   0  0  0  0  0  0  0  0  0  0  0  0
    0.8703    1.4222    0.0941 C   0  0  0  0  0  0  0  0  0  0  0  0
   -0.2166   -0.7492   -0.0445 C   0  0  0  0  0  0  0  0  0  0  0  0
   -0.2881    0.6568    0.0464 C   0  0  0  0  0  0  0  0  0  0  0  0
   -1.6412   -1.2436   -0.0007 C   0  0  1  0  0  0  0  0  0  0  0  0
   -2.3680    0.1079   -0.0186 C   0  0  0  0  0  0  0  0  0  0  0  0
   -1.6253    1.1524    0.0499 N   0  0  0  0  0  0  0  0  0  0  0  0
   -2.1116   -2.1364   -1.0061 O   0  0  0  0  0  0  0  0  0  0  0  0
   -3.7036    0.1496   -0.1107 O   0  0  0  0  0  0  0  0  0  0  0  0
    3.1432   -1.1239   -0.1188 H   0  0  0  0  0  0  0  0  0  0  0  0
    3.0214    1.3376    0.0608 H   0  0  0  0  0  0  0  0  0  0  0  0
    1.0520   -2.4899   -0.1650 H   0  0  0  0  0  0  0  0  0  0  0  0
    0.8115    2.5034    0.1700 H   0  0  0  0  0  0  0  0  0  0  0  0
   -1.8579   -1.7516    0.9489 H   0  0  0  0  0  0  0  0  0  0  0  0
   -1.7739   -1.8141   -1.8589 H   0  0  0  0  0  0  0  0  0  0  0  0
   -4.0022   -0.7515   -0.3325 H   0  0  0  0  0  0  0  0  0  0  0  0
  1  2  2  0
  2 13  1  0
  2  4  1  0
  3  1  1  0
  3  5  2  0
  4 15  1  0
  5  7  1  0
  5  6  1  0
  6  9  1  0
  6  4  2  0
  7 16  1  1
  8  7  1  0
  8  9  2  0
 10  7  1  0
 11  8  1  0
 12  1  1  0
 14  3  1  0
 17 10  1  0
 18 11  1  0
M  END
>  <HBA>  (881) 
3

>  <HBD>  (881) 
2

>  <TPSA>  (881) 
49.33

>  <cid>  (881) 
6097

>  <dipole>  (881) 
2.7

>  <excitation_energy_1>  (881) 
4.122

>  <excitation_energy_2>  (881) 
4.731

>  <excitation_energy_3>  (881) 
4.96

>  <excitation_energy_4>  (881) 
5.458

>  <homo_energy>  (881) 
-6.011

>  <homo_lumo_gap>  (881) 
4.969

>  <logP>  (881) 
0.81

>  <lumo_energy>  (881) 
-1.042

>  <melting_point>  (881) 
105.29

>  <molecular_refractivity>  (881) 
42.9

>  <oscillator_strength_1>  (881) 
0.0373

>  <oscillator_strength_2>  (881) 
0.0009

>  <oscillator_strength_3>  (881) 
0.0111

>  <oscillator_strength_4>  (881) 
0.0302

>  <open_babel_can_smiles>  (881) 
OC1=Nc2c([C@@H]1O)cccc2

>  <mulliken_charges>  (881) 
18
1   -0.138388
2   -0.13226
3   -0.202656
4   -0.189685
5   0.076572
6   0.260017
7   -0.034789
8   0.501449
9   -0.497352
10   -0.616267
11   -0.58831
12   0.130263
13   0.133383
14   0.137305
15   0.144476
16   0.187601
17   0.403908
18   0.424736

>  <lowdin_charges>  (881) 
18
1   -0.169882
2   -0.145271
3   -0.149518
4   -0.166954
5   -0.0682
6   0.04335
7   -0.034479
8   0.10939
9   -0.184975
10   -0.446788
11   -0.32752
12   0.158686
13   0.160523
14   0.159559
15   0.166986
16   0.173524
17   0.353352
18   0.368218

$$$$
PCCDB-ID:  6101
     RDKit          3D

 19 19  0  0  0  0  0  0  0  0999 V2000
    0.9061   -0.1174    0.0611 C   0  0  0  0  0  0  0  0  0  0  0  0
    3.1326   -1.3047   -0.1694 C   0  0  0  0  0  0  0  0  0  0  0  0
    3.1128    1.1055   -0.1338 C   0  0  0  0  0  0  0  0  0  0  0  0
    4.5182   -1.3021   -0.3186 C   0  0  0  0  0  0  0  0  0  0  0  0
    4.4960    1.1305   -0.2850 C   0  0  0  0  0  0  0  0  0  0  0  0
    2.4093   -0.1077   -0.0790 C   0  0  0  0  0  0  0  0  0  0  0  0
    5.1867   -0.0796   -0.3804 C   0  0  0  0  0  0  0  0  0  0  0  0
    7.0873   -0.0554   -2.2261 O   0  0  0  0  0  0  0  0  0  0  0  0
    7.4944    1.2238   -0.1263 O   0  0  0  0  0  1  0  0  0  0  0  0
    7.4972   -1.3254   -0.0983 O   0  0  0  0  0  1  0  0  0  0  0  0
    6.9569   -0.0612   -0.5787 S   0  0  0  0  0  0  0  0  0  0  0  0
    0.5411   -1.0900    0.4045 H   0  0  0  0  0  0  0  0  0  0  0  0
    0.4215    0.0962   -0.9006 H   0  0  0  0  0  0  0  0  0  0  0  0
    0.5655    0.6448    0.7704 H   0  0  0  0  0  0  0  0  0  0  0  0
    2.6056   -2.2538   -0.1150 H   0  0  0  0  0  0  0  0  0  0  0  0
    2.5696    2.0435   -0.0498 H   0  0  0  0  0  0  0  0  0  0  0  0
    5.0770   -2.2302   -0.3715 H   0  0  0  0  0  0  0  0  0  0  0  0
    5.0390    2.0693   -0.3092 H   0  0  0  0  0  0  0  0  0  0  0  0
    7.6740    0.6931   -2.4461 H   0  0  0  0  0  0  0  0  0  0  0  0
  1 12  1  0
  1 14  1  0
  2 15  1  0
  2  6  2  0
  3  6  1  0
  3 16  1  0
  4  2  1  0
  5  3  2  0
  6  1  1  0
  7  4  2  0
  7  5  1  0
  8 11  1  0
 11  7  1  0
 11  9  1  0
 11 10  1  0
 13  1  1  0
 17  4  1  0
 18  5  1  0
 19  8  1  0
M  RAD  2   9   2  10   2
M  END
>  <HBA>  (882) 
3

>  <HBD>  (882) 
1

>  <TPSA>  (882) 
62.75

>  <cid>  (882) 
6101

>  <dipole>  (882) 
4.75

>  <excitation_energy_1>  (882) 
5.168

>  <excitation_energy_2>  (882) 
5.599

>  <excitation_energy_3>  (882) 
6.268

>  <excitation_energy_4>  (882) 
6.417

>  <homo_energy>  (882) 
-7.276

>  <homo_lumo_gap>  (882) 
6.098

>  <logP>  (882) 
2.322

>  <lumo_energy>  (882) 
-1.178

>  <melting_point>  (882) 
93.65

>  <molecular_refractivity>  (882) 
41.27

>  <oscillator_strength_1>  (882) 
0.0058

>  <oscillator_strength_2>  (882) 
0.1904

>  <oscillator_strength_3>  (882) 
0.0029

>  <oscillator_strength_4>  (882) 
0.0032

>  <open_babel_can_smiles>  (882) 
Cc1ccc(cc1)S(O)([O])[O]

>  <mulliken_charges>  (882) 
19
1   -0.531785
2   -0.176949
3   -0.173136
4   -0.129931
5   -0.134998
6   0.182409
7   -0.155041
8   -0.638136
9   -0.532963
10   -0.489468
11   1.19155
12   0.164596
13   0.175705
14   0.168217
15   0.141036
16   0.139866
17   0.183373
18   0.177594
19   0.438061

>  <lowdin_charges>  (882) 
19
1   -0.443041
2   -0.160053
3   -0.159278
4   -0.129301
5   -0.132874
6   0.023051
7   -0.188461
8   -0.588436
9   -0.587722
10   -0.557742
11   1.349875
12   0.162231
13   0.168574
14   0.165748
15   0.164235
16   0.163841
17   0.186128
18   0.182638
19   0.380585

$$$$
PCCDB-ID:  6106
     RDKit          3D

 22 21  0  0  1  0  0  0  0  0999 V2000
    1.7027    0.2676   -1.6308 C   0  0  0  0  0  0  0  0  0  0  0  0
    2.8231   -1.3994   -0.0787 C   0  0  0  0  0  0  0  0  0  0  0  0
    3.0561    1.1106    0.4104 C   0  0  0  0  0  0  0  0  0  0  0  0
    2.1774   -0.0095   -0.1943 C   0  0  0  0  0  0  0  0  0  0  0  0
    4.5151    1.2665   -0.0728 C   0  0  1  0  0  0  0  0  0  0  0  0
    4.5798    1.7457   -1.5334 C   0  0  0  0  0  0  0  0  0  0  0  0
    5.1856    2.2229    0.8174 N   0  0  0  0  0  0  0  0  0  0  0  0
    4.2925    2.8709   -1.8621 O   0  0  0  0  0  0  0  0  0  0  0  0
    5.0089    0.8520   -2.4688 O   0  0  0  0  0  0  0  0  0  0  0  0
    2.5229    0.2243   -2.3550 H   0  0  0  0  0  0  0  0  0  0  0  0
    0.9583   -0.4770   -1.9369 H   0  0  0  0  0  0  0  0  0  0  0  0
    1.2408    1.2578   -1.7134 H   0  0  0  0  0  0  0  0  0  0  0  0
    2.1120   -2.1833   -0.3629 H   0  0  0  0  0  0  0  0  0  0  0  0
    3.1611   -1.6058    0.9439 H   0  0  0  0  0  0  0  0  0  0  0  0
    3.6915   -1.5045   -0.7436 H   0  0  0  0  0  0  0  0  0  0  0  0
    3.1308    0.9572    1.4933 H   0  0  0  0  0  0  0  0  0  0  0  0
    2.5563    2.0774    0.2615 H   0  0  0  0  0  0  0  0  0  0  0  0
    1.2771   -0.0254    0.4371 H   0  0  0  0  0  0  0  0  0  0  0  0
    5.0378    0.3069    0.0346 H   0  0  0  0  0  0  0  0  0  0  0  0
    4.7854    3.1448    0.6360 H   0  0  0  0  0  0  0  0  0  0  0  0
    6.1694    2.3009    0.5583 H   0  0  0  0  0  0  0  0  0  0  0  0
    5.1994   -0.0012   -2.0448 H   0  0  0  0  0  0  0  0  0  0  0  0
  1  4  1  0
  2 14  1  0
  3 16  1  0
  4  2  1  0
  4  3  1  0
  4 18  1  0
  5 19  1  6
  5  3  1  0
  5  7  1  0
  6  5  1  0
  8  6  2  0
  9 22  1  0
  9  6  1  0
 10  1  1  0
 11  1  1  0
 12  1  1  0
 13  2  1  0
 15  2  1  0
 17  3  1  0
 20  7  1  0
 21  7  1  0
M  END
>  <HBA>  (883) 
3

>  <HBD>  (883) 
2

>  <TPSA>  (883) 
63.32

>  <cid>  (883) 
6106

>  <dipole>  (883) 
3.06

>  <excitation_energy_1>  (883) 
5.394

>  <excitation_energy_2>  (883) 
5.75

>  <excitation_energy_3>  (883) 
6.084

>  <excitation_energy_4>  (883) 
6.474

>  <homo_energy>  (883) 
-6.732

>  <homo_lumo_gap>  (883) 
6.806

>  <logP>  (883) 
1.145

>  <lumo_energy>  (883) 
0.073

>  <melting_point>  (883) 
104.84

>  <molecular_refractivity>  (883) 
35.44

>  <oscillator_strength_1>  (883) 
0.0093

>  <oscillator_strength_2>  (883) 
0.0011

>  <oscillator_strength_3>  (883) 
0.0215

>  <oscillator_strength_4>  (883) 
0.0107

>  <open_babel_can_smiles>  (883) 
N[C@H](C(=O)O)CC(C)C

>  <mulliken_charges>  (883) 
22
1   -0.458405
2   -0.442849
3   -0.258122
4   -0.080324
5   -0.092191
6   0.593627
7   -0.695449
8   -0.452475
9   -0.571016
10   0.152358
11   0.141985
12   0.154245
13   0.151247
14   0.149036
15   0.113885
16   0.157902
17   0.149307
18   0.134633
19   0.125566
20   0.314714
21   0.301125
22   0.411198

>  <lowdin_charges>  (883) 
22
1   -0.456488
2   -0.446285
3   -0.276874
4   -0.123813
5   -0.106321
6   0.172987
7   -0.528256
8   -0.247131
9   -0.354437
10   0.152435
11   0.150985
12   0.154958
13   0.155502
14   0.150778
15   0.13102
16   0.157064
17   0.153082
18   0.145462
19   0.139401
20   0.264228
21   0.256249
22   0.355456

$$$$
PCCDB-ID:  6113
     RDKit          3D

 15 14  0  0  0  0  0  0  0  0999 V2000
    1.2454    0.4056    0.2502 C   0  0  0  0  0  0  0  0  0  0  0  0
    4.8519   -0.3990   -2.9696 C   0  0  0  0  0  0  0  0  0  0  0  0
    2.7015   -0.0092    0.3315 C   0  0  0  0  0  0  0  0  0  0  0  0
    5.6256    0.5444   -0.5929 O   0  0  0  0  0  1  0  0  0  0  0  0
    4.9419   -1.8857   -0.7518 O   0  0  0  0  0  1  0  0  0  0  0  0
    3.2062   -0.0621   -1.0359 O   0  0  0  0  0  0  0  0  0  0  0  0
    4.7824   -0.4964   -1.1792 S   0  0  0  0  0  0  0  0  0  0  0  0
    0.8232    0.4587    1.2597 H   0  0  0  0  0  0  0  0  0  0  0  0
    0.6656   -0.3188   -0.3299 H   0  0  0  0  0  0  0  0  0  0  0  0
    1.1461    1.3894   -0.2188 H   0  0  0  0  0  0  0  0  0  0  0  0
    5.8696   -0.6710   -3.2569 H   0  0  0  0  0  0  0  0  0  0  0  0
    4.6268    0.6234   -3.2752 H   0  0  0  0  0  0  0  0  0  0  0  0
    4.1332   -1.1043   -3.3885 H   0  0  0  0  0  0  0  0  0  0  0  0
    2.8180   -0.9994    0.7834 H   0  0  0  0  0  0  0  0  0  0  0  0
    3.2998    0.7138    0.8951 H   0  0  0  0  0  0  0  0  0  0  0  0
  1  3  1  0
  1  8  1  0
  2  7  1  0
  3 14  1  0
  3 15  1  0
  6  3  1  0
  7  6  1  0
  7  5  1  0
  7  4  1  0
  9  1  1  0
 10  1  1  0
 11  2  1  0
 12  2  1  0
 13  2  1  0
M  RAD  2   4   2   5   2
M  END
>  <HBA>  (884) 
3

>  <HBD>  (884) 
0

>  <TPSA>  (884) 
51.75

>  <cid>  (884) 
6113

>  <dipole>  (884) 
3.21

>  <excitation_energy_1>  (884) 
7.054

>  <excitation_energy_2>  (884) 
7.701

>  <excitation_energy_3>  (884) 
7.793

>  <excitation_energy_4>  (884) 
7.833

>  <homo_energy>  (884) 
-7.834

>  <homo_lumo_gap>  (884) 
9.113

>  <logP>  (884) 
1.063

>  <lumo_energy>  (884) 
1.279

>  <melting_point>  (884) 
-1.54

>  <molecular_refractivity>  (884) 
26.58

>  <oscillator_strength_1>  (884) 
0.0018

>  <oscillator_strength_2>  (884) 
0.0043

>  <oscillator_strength_3>  (884) 
0.0005

>  <oscillator_strength_4>  (884) 
0.0072

>  <open_babel_can_smiles>  (884) 
CCOS([O])([O])C

>  <mulliken_charges>  (884) 
15
1   -0.458395
2   -0.635845
3   -0.052454
4   -0.509855
5   -0.509729
6   -0.538786
7   1.205644
8   0.159399
9   0.167632
10   0.167618
11   0.218485
12   0.217261
13   0.217247
14   0.175893
15   0.175889

>  <lowdin_charges>  (884) 
15
1   -0.44513
2   -0.586244
3   -0.126044
4   -0.580716
5   -0.5794
6   -0.429864
7   1.343951
8   0.163012
9   0.163301
10   0.161538
11   0.198969
12   0.19795
13   0.199825
14   0.158462
15   0.160391

$$$$
PCCDB-ID:  6115
     RDKit          3D

 14 14  0  0  0  0  0  0  0  0999 V2000
   -1.3941   -0.0759   -0.0052 C   0  0  0  0  0  0  0  0  0  0  0  0
   -0.7542    1.1654   -0.0071 C   0  0  0  0  0  0  0  0  0  0  0  0
   -0.6168   -1.2361    0.0023 C   0  0  0  0  0  0  0  0  0  0  0  0
    0.6362    1.2505   -0.0023 C   0  0  0  0  0  0  0  0  0  0  0  0
    0.7744   -1.1622    0.0071 C   0  0  0  0  0  0  0  0  0  0  0  0
    1.4215    0.0852    0.0056 C   0  0  0  0  0  0  0  0  0  0  0  0
    2.8181    0.1659    0.0710 N   0  0  0  0  0  0  0  0  0  0  0  0
   -2.4783   -0.1381   -0.0098 H   0  0  0  0  0  0  0  0  0  0  0  0
   -1.3417    2.0802   -0.0151 H   0  0  0  0  0  0  0  0  0  0  0  0
   -1.0961   -2.2119    0.0017 H   0  0  0  0  0  0  0  0  0  0  0  0
    1.1237    2.2233   -0.0004 H   0  0  0  0  0  0  0  0  0  0  0  0
    1.3695   -2.0730    0.0161 H   0  0  0  0  0  0  0  0  0  0  0  0
    3.2087    1.0230   -0.3014 H   0  0  0  0  0  0  0  0  0  0  0  0
    3.3051   -0.6441   -0.2933 H   0  0  0  0  0  0  0  0  0  0  0  0
  1  3  2  0
  2  1  1  0
  2  4  2  0
  3  5  1  0
  4 11  1  0
  4  6  1  0
  5 12  1  0
  6  5  2  0
  6  7  1  0
  8  1  1  0
  9  2  1  0
 10  3  1  0
 13  7  1  0
 14  7  1  0
M  END
>  <HBA>  (885) 
1

>  <HBD>  (885) 
1

>  <TPSA>  (885) 
26.02

>  <cid>  (885) 
6115

>  <dipole>  (885) 
1.71

>  <excitation_energy_1>  (885) 
4.729

>  <excitation_energy_2>  (885) 
4.801

>  <excitation_energy_3>  (885) 
5.394

>  <excitation_energy_4>  (885) 
5.502

>  <homo_energy>  (885) 
-5.391

>  <homo_lumo_gap>  (885) 
5.641

>  <logP>  (885) 
1.85

>  <lumo_energy>  (885) 
0.25

>  <melting_point>  (885) 
52.47

>  <molecular_refractivity>  (885) 
30.85

>  <oscillator_strength_1>  (885) 
0.0351

>  <oscillator_strength_2>  (885) 
0.0047

>  <oscillator_strength_3>  (885) 
0.0259

>  <oscillator_strength_4>  (885) 
0.1122

>  <open_babel_can_smiles>  (885) 
Nc1ccccc1

>  <mulliken_charges>  (885) 
14
1   -0.138658
2   -0.134949
3   -0.134719
4   -0.172425
5   -0.172576
6   0.306908
7   -0.786177
8   0.120081
9   0.1243
10   0.124238
11   0.114088
12   0.114113
13   0.317896
14   0.31788

>  <lowdin_charges>  (885) 
14
1   -0.18589
2   -0.146975
3   -0.146154
4   -0.202125
5   -0.202923
6   0.062145
7   -0.493645
8   0.152435
9   0.155822
10   0.155178
11   0.151017
12   0.151632
13   0.274539
14   0.274943

$$$$
PCCDB-ID:  6119
     RDKit          3D

 16 15  0  0  0  0  0  0  0  0999 V2000
    0.8717   -0.0336    0.1248 C   0  0  0  0  0  0  0  0  0  0  0  0
    3.0123   -1.0237    1.0607 C   0  0  0  0  0  0  0  0  0  0  0  0
    2.8156   -0.2686   -1.3944 C   0  0  0  0  0  0  0  0  0  0  0  0
    2.4216    0.0024    0.0757 C   0  0  0  0  0  0  0  0  0  0  0  0
    2.9835    1.3167    0.4041 N   0  0  0  0  0  0  0  0  0  0  0  0
    2.8864    0.6100   -2.2191 O   0  0  0  0  0  0  0  0  0  0  0  0
    3.0067   -1.5591   -1.7608 O   0  0  0  0  0  0  0  0  0  0  0  0
    0.4686   -1.0099   -0.1718 H   0  0  0  0  0  0  0  0  0  0  0  0
    0.4549    0.7255   -0.5446 H   0  0  0  0  0  0  0  0  0  0  0  0
    0.5304    0.1746    1.1462 H   0  0  0  0  0  0  0  0  0  0  0  0
    2.5678   -2.0237    0.9567 H   0  0  0  0  0  0  0  0  0  0  0  0
    2.8013   -0.7011    2.0860 H   0  0  0  0  0  0  0  0  0  0  0  0
    4.0992   -1.0892    0.9539 H   0  0  0  0  0  0  0  0  0  0  0  0
    2.4795    1.7170    1.1938 H   0  0  0  0  0  0  0  0  0  0  0  0
    2.8480    1.9338   -0.3953 H   0  0  0  0  0  0  0  0  0  0  0  0
    2.9663   -2.1369   -0.9817 H   0  0  0  0  0  0  0  0  0  0  0  0
  1 10  1  0
  2 12  1  0
  3  4  1  0
  4  1  1  0
  4  5  1  0
  4  2  1  0
  5 14  1  0
  6  3  2  0
  7  3  1  0
  7 16  1  0
  8  1  1  0
  9  1  1  0
 11  2  1  0
 13  2  1  0
 15  5  1  0
M  END
>  <HBA>  (886) 
3

>  <HBD>  (886) 
2

>  <TPSA>  (886) 
63.32

>  <cid>  (886) 
6119

>  <dipole>  (886) 
4.25

>  <excitation_energy_1>  (886) 
5.506

>  <excitation_energy_2>  (886) 
5.762

>  <excitation_energy_3>  (886) 
5.887

>  <excitation_energy_4>  (886) 
6.457

>  <homo_energy>  (886) 
-6.596

>  <homo_lumo_gap>  (886) 
6.811

>  <logP>  (886) 
0.509

>  <lumo_energy>  (886) 
0.215

>  <melting_point>  (886) 
117.2

>  <molecular_refractivity>  (886) 
25.86

>  <oscillator_strength_1>  (886) 
0.0029

>  <oscillator_strength_2>  (886) 
0.0254

>  <oscillator_strength_3>  (886) 
0.0021

>  <oscillator_strength_4>  (886) 
0.0109

>  <open_babel_can_smiles>  (886) 
OC(=O)C(N)(C)C

>  <mulliken_charges>  (886) 
16
1   -0.451926
2   -0.473459
3   0.616115
4   0.088863
5   -0.717727
6   -0.455613
7   -0.572402
8   0.14461
9   0.168834
10   0.14847
11   0.129466
12   0.162045
13   0.178442
14   0.29253
15   0.324015
16   0.417738

>  <lowdin_charges>  (886) 
16
1   -0.455469
2   -0.453522
3   0.199929
4   0.027072
5   -0.545078
6   -0.244393
7   -0.350243
8   0.151051
9   0.164239
10   0.151838
11   0.139681
12   0.163347
13   0.16484
14   0.254785
15   0.270738
16   0.361186

$$$$
PCCDB-ID:  6124
     RDKit          3D

 11 10  0  0  0  0  0  0  0  0999 V2000
    1.0387    0.0894    0.0064 C   0  0  0  0  0  0  0  0  0  0  0  0
    3.2449   -1.0260   -0.5008 C   0  0  0  0  0  0  0  0  0  0  0  0
    3.0373    1.3621    0.0533 N   0  0  0  0  0  0  0  0  0  0  0  0
    2.4765    0.1552   -0.1481 N   0  0  0  0  0  0  0  0  0  0  0  0
    4.2545    1.4154   -0.0774 O   0  0  0  0  0  0  0  0  0  0  0  0
    0.5595   -0.2314   -0.9272 H   0  0  0  0  0  0  0  0  0  0  0  0
    0.6886    1.0895    0.2700 H   0  0  0  0  0  0  0  0  0  0  0  0
    0.7627   -0.6156    0.8008 H   0  0  0  0  0  0  0  0  0  0  0  0
    2.9077   -1.4262   -1.4642 H   0  0  0  0  0  0  0  0  0  0  0  0
    3.1285   -1.8011    0.2661 H   0  0  0  0  0  0  0  0  0  0  0  0
    4.2907   -0.7237   -0.5677 H   0  0  0  0  0  0  0  0  0  0  0  0
  1  7  1  0
  1  8  1  0
  2  4  1  0
  2 10  1  0
  4  1  1  0
  4  3  1  0
  5  3  2  0
  6  1  1  0
  9  2  1  0
 11  2  1  0
M  END
>  <HBA>  (887) 
3

>  <HBD>  (887) 
0

>  <TPSA>  (887) 
32.67

>  <cid>  (887) 
6124

>  <dipole>  (887) 
3.92

>  <excitation_energy_1>  (887) 
3.441

>  <excitation_energy_2>  (887) 
5.644

>  <excitation_energy_3>  (887) 
5.86

>  <excitation_energy_4>  (887) 
6.351

>  <homo_energy>  (887) 
-6.101

>  <homo_lumo_gap>  (887) 
5.301

>  <logP>  (887) 
0.229

>  <lumo_energy>  (887) 
-0.8

>  <melting_point>  (887) 
-2.22

>  <molecular_refractivity>  (887) 
19.36

>  <oscillator_strength_1>  (887) 
0.0012

>  <oscillator_strength_2>  (887) 
0.0098

>  <oscillator_strength_3>  (887) 
0.181

>  <oscillator_strength_4>  (887) 
0.0268

>  <open_babel_can_smiles>  (887) 
O=NN(C)C

>  <mulliken_charges>  (887) 
11
1   -0.307149
2   -0.336008
3   0.149574
4   -0.194856
5   -0.375888
6   0.163436
7   0.191526
8   0.163498
9   0.16712
10   0.167383
11   0.211364

>  <lowdin_charges>  (887) 
11
1   -0.354043
2   -0.378306
3   0.050477
4   -0.043899
5   -0.26809
6   0.155429
7   0.176407
8   0.15588
9   0.160046
10   0.160876
11   0.185224

$$$$
PCCDB-ID:  6129
     RDKit          3D

 26 27  0  0  0  0  0  0  0  0999 V2000
    4.6422    1.2874   -3.2016 C   0  0  0  0  0  0  0  0  0  0  0  0
    7.8904    1.8095    4.2602 C   0  0  0  0  0  0  0  0  0  0  0  0
    7.3274    0.6720    3.6326 C   0  0  0  0  0  0  0  0  0  0  0  0
    5.6012    4.6948    1.0868 C   0  0  0  0  0  0  0  0  0  0  0  0
    7.6053    3.0709    3.7898 C   0  0  0  0  0  0  0  0  0  0  0  0
    6.4392    4.5506    2.1678 C   0  0  0  0  0  0  0  0  0  0  0  0
    6.4900    0.8140    2.5487 C   0  0  0  0  0  0  0  0  0  0  0  0
    5.0280    3.5675    0.4520 C   0  0  0  0  0  0  0  0  0  0  0  0
    6.7472    3.2596    2.6730 C   0  0  0  0  0  0  0  0  0  0  0  0
    6.1801    2.1043    2.0419 C   0  0  0  0  0  0  0  0  0  0  0  0
    5.3212    2.3089    0.9227 C   0  0  0  0  0  0  0  0  0  0  0  0
    4.5705    0.9071   -0.8965 C   0  0  0  0  0  0  0  0  0  0  0  0
    4.8621    1.7125   -1.8287 N   0  0  0  0  0  0  0  0  0  0  0  0
    4.0408   -0.3406   -0.9813 O   0  0  0  0  0  0  0  0  0  0  0  0
    4.7456    1.1445    0.4215 O   0  0  0  0  0  0  0  0  0  0  0  0
    4.9967    2.0697   -3.8777 H   0  0  0  0  0  0  0  0  0  0  0  0
    3.5756    1.1238   -3.4293 H   0  0  0  0  0  0  0  0  0  0  0  0
    5.1908    0.3658   -3.4591 H   0  0  0  0  0  0  0  0  0  0  0  0
    8.5479    1.6825    5.1161 H   0  0  0  0  0  0  0  0  0  0  0  0
    7.5589   -0.3201    4.0106 H   0  0  0  0  0  0  0  0  0  0  0  0
    5.3673    5.6847    0.7051 H   0  0  0  0  0  0  0  0  0  0  0  0
    8.0344    3.9480    4.2686 H   0  0  0  0  0  0  0  0  0  0  0  0
    6.8758    5.4215    2.6500 H   0  0  0  0  0  0  0  0  0  0  0  0
    6.0541   -0.0547    2.0683 H   0  0  0  0  0  0  0  0  0  0  0  0
    4.3803    3.6878   -0.4050 H   0  0  0  0  0  0  0  0  0  0  0  0
    3.8743   -0.5368   -1.9167 H   0  0  0  0  0  0  0  0  0  0  0  0
  1 13  1  0
  2 19  1  0
  3 20  1  0
  3  2  2  0
  4  6  2  0
  5  2  1  0
  5 22  1  0
  6 23  1  0
  6  9  1  0
  7  3  1  0
  8 11  2  0
  8  4  1  0
  9  5  2  0
 10  7  2  0
 10  9  1  0
 11 10  1  0
 12 15  1  0
 13 12  2  0
 14 12  1  0
 15 11  1  0
 16  1  1  0
 17  1  1  0
 18  1  1  0
 21  4  1  0
 24  7  1  0
 25  8  1  0
 26 14  1  0
M  END
>  <HBA>  (888) 
3

>  <HBD>  (888) 
1

>  <TPSA>  (888) 
38.33

>  <cid>  (888) 
6129

>  <dipole>  (888) 
1.92

>  <excitation_energy_1>  (888) 
4.191

>  <excitation_energy_2>  (888) 
4.388

>  <excitation_energy_3>  (888) 
4.993

>  <excitation_energy_4>  (888) 
5.284

>  <homo_energy>  (888) 
-5.587

>  <homo_lumo_gap>  (888) 
4.675

>  <logP>  (888) 
2.949

>  <lumo_energy>  (888) 
-0.912

>  <melting_point>  (888) 
112.0

>  <molecular_refractivity>  (888) 
58.64

>  <oscillator_strength_1>  (888) 
0.1044

>  <oscillator_strength_2>  (888) 
0.0023

>  <oscillator_strength_3>  (888) 
0.0019

>  <oscillator_strength_4>  (888) 
0.0087

>  <open_babel_can_smiles>  (888) 
C/N=C(/Oc1cccc2c1cccc2)\O

>  <mulliken_charges>  (888) 
26
1   -0.360629
2   -0.130135
3   -0.137274
4   -0.151439
5   -0.197839
6   -0.182374
7   -0.174818
8   -0.138104
9   0.129211
10   0.071842
11   0.285289
12   0.673614
13   -0.430311
14   -0.589156
15   -0.516454
16   0.176951
17   0.144572
18   0.143306
19   0.129044
20   0.129685
21   0.132503
22   0.129312
23   0.127672
24   0.15112
25   0.15838
26   0.426032

>  <lowdin_charges>  (888) 
26
1   -0.36531
2   -0.156981
3   -0.157812
4   -0.153001
5   -0.158006
6   -0.166345
7   -0.154883
8   -0.172945
9   0.003698
10   -0.015864
11   0.104383
12   0.197415
13   -0.261886
14   -0.357412
15   -0.135818
16   0.166403
17   0.137527
18   0.138146
19   0.158332
20   0.158037
21   0.159792
22   0.158311
23   0.158647
24   0.17065
25   0.178776
26   0.366144

$$$$
PCCDB-ID:  6130
     RDKit          3D

 20 21  0  0  1  0  0  0  0  0999 V2000
   -1.6210   -1.0183    0.4191 C   0  0  2  0  0  0  0  0  0  0  0  0
    1.4109    0.8880    0.4321 C   0  0  2  0  0  0  0  0  0  0  0  0
   -0.2297   -0.8028    1.0303 C   0  0  2  0  0  0  0  0  0  0  0  0
   -0.0265    0.7248    0.9158 C   0  0  2  0  0  0  0  0  0  0  0  0
   -1.6336    0.0515   -0.6865 C   0  0  2  0  0  0  0  0  0  0  0  0
    1.7745   -0.4926   -0.1266 C   0  0  0  0  0  0  0  0  0  0  0  0
   -2.6212   -0.7822    1.3938 O   0  0  0  0  0  0  0  0  0  0  0  0
    2.2438    1.1601    1.5506 O   0  0  0  0  0  0  0  0  0  0  0  0
   -1.0295   -0.3476   -1.8806 O   0  0  0  0  0  0  0  0  0  0  0  0
    2.7760   -0.8023   -0.7137 O   0  0  0  0  0  0  0  0  0  0  0  0
    0.7919   -1.3969    0.1863 O   0  0  0  0  0  0  0  0  0  0  0  0
   -0.9853    1.1700   -0.0541 O   0  0  0  0  0  0  0  0  0  0  0  0
   -1.7687   -2.0308    0.0381 H   0  0  0  0  0  0  0  0  0  0  0  0
    1.4869    1.6541   -0.3487 H   0  0  0  0  0  0  0  0  0  0  0  0
   -0.1374   -1.2150    2.0362 H   0  0  0  0  0  0  0  0  0  0  0  0
   -0.1839    1.2700    1.8500 H   0  0  0  0  0  0  0  0  0  0  0  0
   -2.6383    0.3922   -0.9432 H   0  0  0  0  0  0  0  0  0  0  0  0
   -2.6789    0.1784    1.5307 H   0  0  0  0  0  0  0  0  0  0  0  0
    3.1652    1.0817    1.2510 H   0  0  0  0  0  0  0  0  0  0  0  0
   -0.3091   -0.9692   -1.6855 H   0  0  0  0  0  0  0  0  0  0  0  0
  1 13  1  6
  1  3  1  0
  1  7  1  0
  2 14  1  6
  2  4  1  0
  2  8  1  0
  3 15  1  1
  4  3  1  0
  4 16  1  1
  5 17  1  6
  5 12  1  0
  5  1  1  0
  6 11  1  0
  6  2  1  0
  7 18  1  0
  9 20  1  0
  9  5  1  0
 10  6  2  0
 11  3  1  0
 12  4  1  0
 19  8  1  0
M  END
>  <HBA>  (889) 
6

>  <HBD>  (889) 
3

>  <TPSA>  (889) 
96.22

>  <cid>  (889) 
6130

>  <dipole>  (889) 
2.12

>  <excitation_energy_1>  (889) 
5.202

>  <excitation_energy_2>  (889) 
6.203

>  <excitation_energy_3>  (889) 
6.328

>  <excitation_energy_4>  (889) 
6.579

>  <homo_energy>  (889) 
-7.532

>  <homo_lumo_gap>  (889) 
6.817

>  <logP>  (889) 
-2.649

>  <lumo_energy>  (889) 
-0.716

>  <melting_point>  (889) 
77.94

>  <molecular_refractivity>  (889) 
32.58

>  <oscillator_strength_1>  (889) 
0.0008

>  <oscillator_strength_2>  (889) 
0.0062

>  <oscillator_strength_3>  (889) 
0.0039

>  <oscillator_strength_4>  (889) 
0.0008

>  <open_babel_can_smiles>  (889) 
O[C@H]1[C@H](O)O[C@H]2[C@@H]1OC(=O)[C@@H]2O

>  <mulliken_charges>  (889) 
20
1   0.083146
2   0.042268
3   0.058233
4   0.102357
5   0.29003
6   0.586784
7   -0.620599
8   -0.621982
9   -0.60935
10   -0.443732
11   -0.482146
12   -0.502696
13   0.174675
14   0.18338
15   0.185408
16   0.173219
17   0.164272
18   0.407629
19   0.41453
20   0.414577

>  <lowdin_charges>  (889) 
20
1   -0.03575
2   -0.041
3   -0.030127
4   -0.025501
5   0.068213
6   0.170263
7   -0.436239
8   -0.440368
9   -0.43116
10   -0.217399
11   -0.194411
12   -0.271383
13   0.165719
14   0.167114
15   0.170923
16   0.165074
17   0.157937
18   0.349042
19   0.359197
20   0.349856

$$$$
PCCDB-ID:  6137
     RDKit          3D

 20 19  0  0  1  0  0  0  0  0999 V2000
    1.5941   -0.5855   -0.3750 C   0  0  0  0  0  0  0  0  0  0  0  0
    4.6105   -1.3193    1.0558 C   0  0  0  0  0  0  0  0  0  0  0  0
    3.2482   -1.4335    1.7484 C   0  0  0  0  0  0  0  0  0  0  0  0
    5.6375   -2.4040    1.4640 C   0  0  1  0  0  0  0  0  0  0  0  0
    5.1459   -3.7899    1.0029 C   0  0  0  0  0  0  0  0  0  0  0  0
    6.9373   -2.0623    0.8927 N   0  0  0  0  0  0  0  0  0  0  0  0
    5.4050   -4.2459   -0.0836 O   0  0  0  0  0  0  0  0  0  0  0  0
    4.3592   -4.4881    1.8670 O   0  0  0  0  0  0  0  0  0  0  0  0
    2.0660   -0.0947    1.3217 S   0  0  0  0  0  0  0  0  0  0  0  0
    2.4386   -0.5338   -1.0674 H   0  0  0  0  0  0  0  0  0  0  0  0
    1.1657   -1.5925   -0.3882 H   0  0  0  0  0  0  0  0  0  0  0  0
    0.8311    0.1253   -0.7031 H   0  0  0  0  0  0  0  0  0  0  0  0
    5.0640   -0.3501    1.2831 H   0  0  0  0  0  0  0  0  0  0  0  0
    4.4850   -1.3681   -0.0333 H   0  0  0  0  0  0  0  0  0  0  0  0
    3.3678   -1.3528    2.8363 H   0  0  0  0  0  0  0  0  0  0  0  0
    2.7650   -2.3953    1.5422 H   0  0  0  0  0  0  0  0  0  0  0  0
    5.7405   -2.3965    2.5591 H   0  0  0  0  0  0  0  0  0  0  0  0
    6.8889   -2.2358   -0.1125 H   0  0  0  0  0  0  0  0  0  0  0  0
    7.6404   -2.7155    1.2380 H   0  0  0  0  0  0  0  0  0  0  0  0
    4.2686   -3.9981    2.7012 H   0  0  0  0  0  0  0  0  0  0  0  0
  1  9  1  0
  2 13  1  0
  2  4  1  0
  2  3  1  0
  3 15  1  0
  4 17  1  1
  5  4  1  0
  5  8  1  0
  6 19  1  0
  6  4  1  0
  7  5  2  0
  8 20  1  0
  9  3  1  0
 10  1  1  0
 11  1  1  0
 12  1  1  0
 14  2  1  0
 16  3  1  0
 18  6  1  0
M  END
>  <HBA>  (890) 
4

>  <HBD>  (890) 
2

>  <TPSA>  (890) 
88.62

>  <cid>  (890) 
6137

>  <dipole>  (890) 
1.62

>  <excitation_energy_1>  (890) 
4.927

>  <excitation_energy_2>  (890) 
5.205

>  <excitation_energy_3>  (890) 
5.329

>  <excitation_energy_4>  (890) 
5.482

>  <homo_energy>  (890) 
-6.155

>  <homo_lumo_gap>  (890) 
6.076

>  <logP>  (890) 
0.852

>  <lumo_energy>  (890) 
-0.079

>  <melting_point>  (890) 
114.48

>  <molecular_refractivity>  (890) 
38.22

>  <oscillator_strength_1>  (890) 
0.0105

>  <oscillator_strength_2>  (890) 
0.0023

>  <oscillator_strength_3>  (890) 
0.0034

>  <oscillator_strength_4>  (890) 
0.0022

>  <open_babel_can_smiles>  (890) 
CSCC[C@@H](C(=O)O)N

>  <mulliken_charges>  (890) 
20
1   -0.586941
2   -0.242072
3   -0.451844
4   -0.100038
5   0.579451
6   -0.691262
7   -0.445107
8   -0.561426
9   0.099784
10   0.183371
11   0.181273
12   0.187769
13   0.183483
14   0.156505
15   0.166568
16   0.178994
17   0.131217
18   0.315296
19   0.304804
20   0.410176

>  <lowdin_charges>  (890) 
20
1   -0.547758
2   -0.27746
3   -0.38888
4   -0.10828
5   0.171765
6   -0.528045
7   -0.243061
8   -0.352227
9   0.105306
10   0.163405
11   0.163433
12   0.179648
13   0.170378
14   0.152137
15   0.159298
16   0.15837
17   0.139362
18   0.263678
19   0.261603
20   0.357327

$$$$
PCCDB-ID:  6142
     RDKit          3D

 21 21  0  0  0  0  0  0  0  0999 V2000
    0.8722    0.4660    0.0518 C   0  0  0  0  0  0  0  0  0  0  0  0
    4.5905    1.2948   -0.1854 C   0  0  0  0  0  0  0  0  0  0  0  0
    3.2032    1.4460   -0.1299 C   0  0  0  0  0  0  0  0  0  0  0  0
    5.1659    0.0288   -0.1760 C   0  0  0  0  0  0  0  0  0  0  0  0
    2.9572   -0.9510   -0.0172 C   0  0  0  0  0  0  0  0  0  0  0  0
    2.3742    0.3229   -0.0432 C   0  0  0  0  0  0  0  0  0  0  0  0
    4.3472   -1.1087   -0.0961 C   0  0  0  0  0  0  0  0  0  0  0  0
    4.4753   -3.5622   -0.5730 C   0  0  0  0  0  0  0  0  0  0  0  0
    3.4579   -3.8163   -1.2998 N   0  0  0  0  0  0  0  0  0  0  0  0
    4.9546   -2.3765   -0.0463 N   0  0  0  0  0  0  0  0  0  0  0  0
    5.3038   -4.5729   -0.1919 O   0  0  0  0  0  0  0  0  0  0  0  0
    0.5639    1.5111   -0.0489 H   0  0  0  0  0  0  0  0  0  0  0  0
    0.4975    0.0997    1.0159 H   0  0  0  0  0  0  0  0  0  0  0  0
    0.3641   -0.1113   -0.7299 H   0  0  0  0  0  0  0  0  0  0  0  0
    5.2290    2.1720   -0.2482 H   0  0  0  0  0  0  0  0  0  0  0  0
    2.7641    2.4400   -0.1477 H   0  0  0  0  0  0  0  0  0  0  0  0
    6.2449   -0.0879   -0.2415 H   0  0  0  0  0  0  0  0  0  0  0  0
    2.3252   -1.8253    0.1042 H   0  0  0  0  0  0  0  0  0  0  0  0
    2.9664   -2.9696   -1.5781 H   0  0  0  0  0  0  0  0  0  0  0  0
    5.9141   -2.4151    0.2699 H   0  0  0  0  0  0  0  0  0  0  0  0
    4.9541   -5.3616   -0.6424 H   0  0  0  0  0  0  0  0  0  0  0  0
  1 13  1  0
  2  4  2  0
  2  3  1  0
  3  6  2  0
  4  7  1  0
  5 18  1  0
  6  5  1  0
  6  1  1  0
  7 10  1  0
  7  5  2  0
  8 11  1  0
  8 10  1  0
  9  8  2  0
 10 20  1  0
 12  1  1  0
 14  1  1  0
 15  2  1  0
 16  3  1  0
 17  4  1  0
 19  9  1  0
 21 11  1  0
M  END
>  <HBA>  (891) 
3

>  <HBD>  (891) 
2

>  <TPSA>  (891) 
55.12

>  <cid>  (891) 
6142

>  <dipole>  (891) 
1.87

>  <excitation_energy_1>  (891) 
4.702

>  <excitation_energy_2>  (891) 
5.065

>  <excitation_energy_3>  (891) 
5.323

>  <excitation_energy_4>  (891) 
5.758

>  <homo_energy>  (891) 
-5.84

>  <homo_lumo_gap>  (891) 
5.608

>  <logP>  (891) 
2.259

>  <lumo_energy>  (891) 
-0.231

>  <melting_point>  (891) 
128.68

>  <molecular_refractivity>  (891) 
44.01

>  <oscillator_strength_1>  (891) 
0.0197

>  <oscillator_strength_2>  (891) 
0.1977

>  <oscillator_strength_3>  (891) 
0.0122

>  <oscillator_strength_4>  (891) 
0.0089

>  <open_babel_can_smiles>  (891) 
OC(=N)Nc1cccc(c1)C

>  <mulliken_charges>  (891) 
21
1   -0.529514
2   -0.130271
3   -0.183517
4   -0.185604
5   -0.236082
6   0.16697
7   0.356894
8   0.639233
9   -0.652205
10   -0.711774
11   -0.605954
12   0.156436
13   0.167078
14   0.164089
15   0.132573
16   0.122743
17   0.125706
18   0.147161
19   0.291278
20   0.342508
21   0.422253

>  <lowdin_charges>  (891) 
21
1   -0.442075
2   -0.145004
3   -0.182534
4   -0.189607
5   -0.20306
6   0.01286
7   0.05858
8   0.164923
9   -0.482669
10   -0.257293
11   -0.382655
12   0.156681
13   0.163301
14   0.163059
15   0.160628
16   0.155486
17   0.154616
18   0.166857
19   0.263022
20   0.295385
21   0.369499

$$$$
PCCDB-ID:  6145
     RDKit          3D

 18 18  0  0  0  0  0  0  0  0999 V2000
   -1.7929    0.0250    0.1550 C   0  0  0  0  0  0  0  0  0  0  0  0
   -1.1343    1.2506    0.0507 C   0  0  0  0  0  0  0  0  0  0  0  0
   -1.0425   -1.1527    0.1632 C   0  0  0  0  0  0  0  0  0  0  0  0
    0.2561    1.3103   -0.0435 C   0  0  0  0  0  0  0  0  0  0  0  0
    0.3474   -1.1053    0.0893 C   0  0  0  0  0  0  0  0  0  0  0  0
    1.0110    0.1271   -0.0120 C   0  0  0  0  0  0  0  0  0  0  0  0
    3.2938    1.0865    0.3472 C   0  0  0  0  0  0  0  0  0  0  0  0
    3.1153    2.1116    1.0853 N   0  0  0  0  0  0  0  0  0  0  0  0
    2.4118    0.1338   -0.1304 N   0  0  0  0  0  0  0  0  0  0  0  0
    4.5424    0.7863   -0.1038 O   0  0  0  0  0  0  0  0  0  0  0  0
   -2.8760   -0.0129    0.2237 H   0  0  0  0  0  0  0  0  0  0  0  0
   -1.7055    2.1747    0.0246 H   0  0  0  0  0  0  0  0  0  0  0  0
   -1.5389   -2.1165    0.2384 H   0  0  0  0  0  0  0  0  0  0  0  0
    0.7518    2.2653   -0.1787 H   0  0  0  0  0  0  0  0  0  0  0  0
    0.9280   -2.0245    0.1155 H   0  0  0  0  0  0  0  0  0  0  0  0
    2.1563    2.1830    1.4184 H   0  0  0  0  0  0  0  0  0  0  0  0
    2.8499   -0.7107   -0.4727 H   0  0  0  0  0  0  0  0  0  0  0  0
    5.1211    1.4494    0.3119 H   0  0  0  0  0  0  0  0  0  0  0  0
  1  3  2  0
  1 11  1  0
  2  1  1  0
  3 13  1  0
  4  6  1  0
  4  2  2  0
  5 15  1  0
  5  3  1  0
  6  5  2  0
  7  8  2  0
  8 16  1  0
  9  6  1  0
  9  7  1  0
 10 18  1  0
 10  7  1  0
 12  2  1  0
 14  4  1  0
 17  9  1  0
M  END
>  <HBA>  (892) 
3

>  <HBD>  (892) 
2

>  <TPSA>  (892) 
55.12

>  <cid>  (892) 
6145

>  <dipole>  (892) 
1.98

>  <excitation_energy_1>  (892) 
4.758

>  <excitation_energy_2>  (892) 
5.048

>  <excitation_energy_3>  (892) 
5.341

>  <excitation_energy_4>  (892) 
5.757

>  <homo_energy>  (892) 
-5.899

>  <homo_lumo_gap>  (892) 
5.655

>  <logP>  (892) 
1.95

>  <lumo_energy>  (892) 
-0.245

>  <melting_point>  (892) 
123.84

>  <molecular_refractivity>  (892) 
39.04

>  <oscillator_strength_1>  (892) 
0.0149

>  <oscillator_strength_2>  (892) 
0.2241

>  <oscillator_strength_3>  (892) 
0.0079

>  <oscillator_strength_4>  (892) 
0.0026

>  <open_babel_can_smiles>  (892) 
OC(=N)Nc1ccccc1

>  <mulliken_charges>  (892) 
18
1   -0.129677
2   -0.140473
3   -0.133099
4   -0.182723
5   -0.182358
6   0.354243
7   0.639873
8   -0.651218
9   -0.711108
10   -0.605495
11   0.131186
12   0.136223
13   0.134439
14   0.154594
15   0.127737
16   0.291949
17   0.343142
18   0.422766

>  <lowdin_charges>  (892) 
18
1   -0.168214
2   -0.145413
3   -0.14493
4   -0.192726
5   -0.187441
6   0.059654
7   0.165125
8   -0.479456
9   -0.259251
10   -0.383777
11   0.157561
12   0.161436
13   0.160477
14   0.169487
15   0.157504
16   0.26202
17   0.297618
18   0.370327

$$$$
PCCDB-ID:  6162
     RDKit          3D

 24 24  0  0  1  0  0  0  0  0999 V2000
    1.0014    0.1301    0.4028 C   0  0  0  0  0  0  0  0  0  0  0  0
    6.3734    2.7582   -0.8726 C   0  0  0  0  0  0  0  0  0  0  0  0
    2.4957    0.4290    0.2394 C   0  0  0  0  0  0  0  0  0  0  0  0
    4.3485    1.2943   -1.3318 C   0  0  0  0  0  0  0  0  0  0  0  0
    4.9958    2.2957   -0.3599 C   0  0  2  0  0  0  0  0  0  0  0  0
    2.8372    1.1383   -1.0916 C   0  0  2  0  0  0  0  0  0  0  0  0
    4.0412    3.4533   -0.0827 C   0  0  0  0  0  0  0  0  0  0  0  0
    2.2036    2.5296   -1.1757 C   0  0  0  0  0  0  0  0  0  0  0  0
    2.8238    3.5716   -0.4561 N   0  0  0  0  0  0  0  0  0  0  0  0
    4.5269    4.4588    0.6801 O   0  0  0  0  0  0  0  0  0  0  0  0
    1.1864    2.7395   -1.8069 O   0  0  0  0  0  0  0  0  0  0  0  0
    0.8082   -0.3770    1.3545 H   0  0  0  0  0  0  0  0  0  0  0  0
    0.6398   -0.5177   -0.4042 H   0  0  0  0  0  0  0  0  0  0  0  0
    0.4039    1.0470    0.3792 H   0  0  0  0  0  0  0  0  0  0  0  0
    6.9919    1.8846   -1.1036 H   0  0  0  0  0  0  0  0  0  0  0  0
    6.9344    3.3541   -0.1414 H   0  0  0  0  0  0  0  0  0  0  0  0
    6.2729    3.3527   -1.7871 H   0  0  0  0  0  0  0  0  0  0  0  0
    3.0651   -0.5103    0.2795 H   0  0  0  0  0  0  0  0  0  0  0  0
    2.8390    1.0359    1.0878 H   0  0  0  0  0  0  0  0  0  0  0  0
    4.8575    0.3259   -1.2499 H   0  0  0  0  0  0  0  0  0  0  0  0
    4.5084    1.6485   -2.3594 H   0  0  0  0  0  0  0  0  0  0  0  0
    5.1426    1.8002    0.6129 H   0  0  0  0  0  0  0  0  0  0  0  0
    2.4010    0.5562   -1.9105 H   0  0  0  0  0  0  0  0  0  0  0  0
    5.4618    4.2958    0.8818 H   0  0  0  0  0  0  0  0  0  0  0  0
  1 12  1  0
  2  5  1  0
  2 16  1  0
  3 18  1  0
  3  1  1  0
  3 19  1  0
  4 20  1  0
  4  6  1  0
  4  5  1  0
  5  7  1  0
  5 22  1  1
  6 23  1  6
  6  3  1  0
  7 10  1  0
  8  6  1  0
  8  9  1  0
  9  7  2  0
 10 24  1  0
 11  8  2  0
 13  1  1  0
 14  1  1  0
 15  2  1  0
 17  2  1  0
 21  4  1  0
M  END
>  <HBA>  (893) 
3

>  <HBD>  (893) 
1

>  <TPSA>  (893) 
46.17

>  <cid>  (893) 
6162

>  <dipole>  (893) 
6.85

>  <excitation_energy_1>  (893) 
3.967

>  <excitation_energy_2>  (893) 
4.871

>  <excitation_energy_3>  (893) 
5.505

>  <excitation_energy_4>  (893) 
6.108

>  <homo_energy>  (893) 
-6.403

>  <homo_lumo_gap>  (893) 
5.429

>  <logP>  (893) 
1.024

>  <lumo_energy>  (893) 
-0.974

>  <melting_point>  (893) 
64.65

>  <molecular_refractivity>  (893) 
45.57

>  <oscillator_strength_1>  (893) 
0.0013

>  <oscillator_strength_2>  (893) 
0.0005

>  <oscillator_strength_3>  (893) 
0.0028

>  <oscillator_strength_4>  (893) 
0.0996

>  <open_babel_can_smiles>  (893) 
CC[C@@H]1C[C@@H](C)C(=NC1=O)O

>  <mulliken_charges>  (893) 
24
1   -0.447894
2   -0.468563
3   -0.265429
4   -0.291339
5   -0.189357
6   -0.166342
7   0.519492
8   0.532973
9   -0.463074
10   -0.563669
11   -0.454503
12   0.14267
13   0.149357
14   0.173747
15   0.169917
16   0.137603
17   0.175918
18   0.134549
19   0.136724
20   0.145268
21   0.155817
22   0.168258
23   0.152939
24   0.414937

>  <lowdin_charges>  (893) 
24
1   -0.446529
2   -0.446223
3   -0.272859
4   -0.274478
5   -0.162256
6   -0.161558
7   0.151379
8   0.156972
9   -0.18927
10   -0.329252
11   -0.235028
12   0.150872
13   0.152369
14   0.162885
15   0.16554
16   0.145616
17   0.164167
18   0.142097
19   0.14231
20   0.15141
21   0.152311
22   0.160622
23   0.162185
24   0.35672

$$$$
PCCDB-ID:  6163
     RDKit          3D

 19 18  0  0  0  0  0  0  0  0999 V2000
    1.0181   -1.0090    0.4439 C   0  0  0  0  0  0  0  0  0  0  0  0
    7.1008   -3.2556    2.9294 C   0  0  0  0  0  0  0  0  0  0  0  0
    2.4132   -0.5277    0.1004 C   0  0  0  0  0  0  0  0  0  0  0  0
    6.8440   -2.1736    1.9002 C   0  0  0  0  0  0  0  0  0  0  0  0
    5.3344   -1.2632   -0.6449 O   0  0  0  0  0  0  0  0  0  0  0  0
    5.1667    0.3829    1.2485 O   0  0  0  0  0  0  0  0  0  0  0  0
    3.3398   -1.3253    0.9029 O   0  0  0  0  0  0  0  0  0  0  0  0
    5.3928   -2.0831    1.7427 O   0  0  0  0  0  0  0  0  0  0  0  0
    4.8983   -0.9437    0.7086 S   0  0  0  0  0  0  0  0  0  0  0  0
    0.2843   -0.4412   -0.1385 H   0  0  0  0  0  0  0  0  0  0  0  0
    0.8067   -0.8620    1.5071 H   0  0  0  0  0  0  0  0  0  0  0  0
    0.9035   -2.0708    0.2063 H   0  0  0  0  0  0  0  0  0  0  0  0
    8.1803   -3.3635    3.0815 H   0  0  0  0  0  0  0  0  0  0  0  0
    6.7000   -4.2161    2.5922 H   0  0  0  0  0  0  0  0  0  0  0  0
    6.6388   -2.9988    3.8872 H   0  0  0  0  0  0  0  0  0  0  0  0
    2.5550    0.5277    0.3538 H   0  0  0  0  0  0  0  0  0  0  0  0
    2.6514   -0.6820   -0.9566 H   0  0  0  0  0  0  0  0  0  0  0  0
    7.2816   -2.4200    0.9279 H   0  0  0  0  0  0  0  0  0  0  0  0
    7.2186   -1.1995    2.2302 H   0  0  0  0  0  0  0  0  0  0  0  0
  1 11  1  0
  2 13  1  0
  2 15  1  0
  3 16  1  0
  3  1  1  0
  3  7  1  0
  4 19  1  0
  4  2  1  0
  5  9  2  0
  8  4  1  0
  9  7  1  0
  9  6  2  0
  9  8  1  0
 10  1  1  0
 12  1  1  0
 14  2  1  0
 17  3  1  0
 18  4  1  0
M  END
>  <HBA>  (894) 
4

>  <HBD>  (894) 
0

>  <TPSA>  (894) 
60.98

>  <cid>  (894) 
6163

>  <dipole>  (894) 
1.68

>  <excitation_energy_1>  (894) 
7.073

>  <excitation_energy_2>  (894) 
7.415

>  <excitation_energy_3>  (894) 
7.827

>  <excitation_energy_4>  (894) 
7.896

>  <homo_energy>  (894) 
-7.924

>  <homo_lumo_gap>  (894) 
8.83

>  <logP>  (894) 
1.385

>  <lumo_energy>  (894) 
0.906

>  <melting_point>  (894) 
-8.8

>  <molecular_refractivity>  (894) 
32.48

>  <oscillator_strength_1>  (894) 
0.004

>  <oscillator_strength_2>  (894) 
0.0

>  <oscillator_strength_3>  (894) 
0.0

>  <oscillator_strength_4>  (894) 
0.0

>  <open_babel_can_smiles>  (894) 
CCOS(=O)(=O)OCC

>  <mulliken_charges>  (894) 
19
1   -0.460033
2   -0.460072
3   -0.060792
4   -0.060817
5   -0.503688
6   -0.500155
7   -0.498519
8   -0.498576
9   1.314032
10   0.160146
11   0.173479
12   0.173252
13   0.160149
14   0.173223
15   0.17355
16   0.178534
17   0.178855
18   0.17911
19   0.178321

>  <lowdin_charges>  (894) 
19
1   -0.442987
2   -0.442527
3   -0.119808
4   -0.120351
5   -0.562417
6   -0.561157
7   -0.396012
8   -0.395511
9   1.416103
10   0.165748
11   0.163817
12   0.163721
13   0.162786
14   0.164996
15   0.165147
16   0.158836
17   0.158826
18   0.160521
19   0.160271

$$$$
PCCDB-ID:  6168
     RDKit          3D

 29 29  0  0  0  0  0  0  0  0999 V2000
    4.0198   -1.5018   -0.8832 C   0  0  0  0  0  0  0  0  0  0  0  0
    4.8188    4.7010   -3.0056 C   0  0  0  0  0  0  0  0  0  0  0  0
    2.5741    2.7684    3.0009 C   0  0  0  0  0  0  0  0  0  0  0  0
    2.6842   -0.7728   -1.0307 C   0  0  0  0  0  0  0  0  0  0  0  0
    2.8958    1.0917   -2.6677 C   0  0  0  0  0  0  0  0  0  0  0  0
    3.0850    2.8563   -1.4660 C   0  0  0  0  0  0  0  0  0  0  0  0
    2.9501    1.7783   -0.5791 C   0  0  0  0  0  0  0  0  0  0  0  0
    3.2672    4.3265   -1.2178 C   0  0  0  0  0  0  0  0  0  0  0  0
    2.9011    1.7532    0.8806 C   0  0  0  0  0  0  0  0  0  0  0  0
    3.9932    5.1205   -1.8933 N   0  0  0  0  0  0  0  0  0  0  0  0
    2.5249    2.7777    1.5478 N   0  0  0  0  0  0  0  0  0  0  0  0
    3.0488    2.3945   -2.7572 N   0  0  0  0  0  0  0  0  0  0  0  0
    2.8369    0.6458   -1.3855 N   0  0  0  0  0  0  0  0  0  0  0  0
    2.5238    4.8604   -0.2172 O   0  0  0  0  0  0  0  0  0  0  0  0
    3.3035    0.5640    1.4240 O   0  0  0  0  0  0  0  0  0  0  0  0
    3.8397   -2.5568   -0.6476 H   0  0  0  0  0  0  0  0  0  0  0  0
    4.6133   -1.0628   -0.0779 H   0  0  0  0  0  0  0  0  0  0  0  0
    4.5978   -1.4537   -1.8121 H   0  0  0  0  0  0  0  0  0  0  0  0
    5.6838    5.3733   -3.0587 H   0  0  0  0  0  0  0  0  0  0  0  0
    4.2684    4.8006   -3.9501 H   0  0  0  0  0  0  0  0  0  0  0  0
    5.1822    3.6661   -2.9528 H   0  0  0  0  0  0  0  0  0  0  0  0
    3.5547    2.4564    3.3954 H   0  0  0  0  0  0  0  0  0  0  0  0
    1.8010    2.1147    3.4343 H   0  0  0  0  0  0  0  0  0  0  0  0
    2.3844    3.7804    3.3653 H   0  0  0  0  0  0  0  0  0  0  0  0
    2.1021   -0.8358   -0.1113 H   0  0  0  0  0  0  0  0  0  0  0  0
    2.0881   -1.2246   -1.8300 H   0  0  0  0  0  0  0  0  0  0  0  0
    2.8068    0.4128   -3.5066 H   0  0  0  0  0  0  0  0  0  0  0  0
    2.2963    4.1563    0.4390 H   0  0  0  0  0  0  0  0  0  0  0  0
    3.1960    0.6031    2.3890 H   0  0  0  0  0  0  0  0  0  0  0  0
  1 16  1  0
  1 17  1  0
  2 21  1  0
  2 10  1  0
  3 24  1  0
  3 22  1  0
  3 23  1  0
  4  1  1  0
  4 25  1  0
  5 13  1  0
  6  8  1  0
  6  7  2  0
  7  9  1  0
  8 14  1  0
  9 15  1  0
  9 11  2  0
 10  8  2  0
 11  3  1  0
 12  5  2  0
 12  6  1  0
 13  4  1  0
 13  7  1  0
 14 28  1  0
 15 29  1  0
 18  1  1  0
 19  2  1  0
 20  2  1  0
 26  4  1  0
 27  5  1  0
M  END
>  <HBA>  (895) 
6

>  <HBD>  (895) 
2

>  <TPSA>  (895) 
76.02

>  <cid>  (895) 
6168

>  <dipole>  (895) 
9.56

>  <excitation_energy_1>  (895) 
3.745

>  <excitation_energy_2>  (895) 
3.964

>  <excitation_energy_3>  (895) 
4.796

>  <excitation_energy_4>  (895) 
4.847

>  <homo_energy>  (895) 
-5.753

>  <homo_lumo_gap>  (895) 
4.523

>  <logP>  (895) 
0.404

>  <lumo_energy>  (895) 
-1.23

>  <melting_point>  (895) 
146.48

>  <molecular_refractivity>  (895) 
54.29

>  <oscillator_strength_1>  (895) 
0.0019

>  <oscillator_strength_2>  (895) 
0.0753

>  <oscillator_strength_3>  (895) 
0.0243

>  <oscillator_strength_4>  (895) 
0.1903

>  <open_babel_can_smiles>  (895) 
CCn1cnc(c1/C(=N/C)/O)/C(=N\C)/O

>  <mulliken_charges>  (895) 
29
1   -0.44613
2   -0.298218
3   -0.369095
4   -0.145592
5   0.212148
6   0.11373
7   0.268206
8   0.452505
9   0.505958
10   -0.416142
11   -0.501031
12   -0.466269
13   -0.452783
14   -0.631098
15   -0.617292
16   0.154135
17   0.179463
18   0.159375
19   0.138313
20   0.155049
21   0.128367
22   0.153477
23   0.158638
24   0.194291
25   0.17604
26   0.164554
27   0.163365
28   0.439161
29   0.426873

>  <lowdin_charges>  (895) 
29
1   -0.450287
2   -0.354665
3   -0.372154
4   -0.190885
5   -0.085369
6   -0.00839
7   -0.038846
8   0.120694
9   0.14262
10   -0.199773
11   -0.230734
12   -0.163809
13   0.00205
14   -0.395126
15   -0.365055
16   0.157734
17   0.167027
18   0.157066
19   0.142292
20   0.153317
21   0.131959
22   0.144829
23   0.150371
24   0.175021
25   0.166003
26   0.160118
27   0.171712
28   0.347536
29   0.364744

$$$$
PCCDB-ID:  6179
     RDKit          3D

 22 22  0  0  1  0  0  0  0  0999 V2000
    1.1118   -0.0166    0.4400 C   0  0  0  0  0  0  0  0  0  0  0  0
    2.6739   -2.5264   -3.6766 C   0  0  0  0  0  0  0  0  0  0  0  0
    2.0981   -1.2573   -3.7746 C   0  0  0  0  0  0  0  0  0  0  0  0
    3.2145   -2.9459   -2.4603 C   0  0  0  0  0  0  0  0  0  0  0  0
    2.0576   -0.4161   -2.6625 C   0  0  0  0  0  0  0  0  0  0  0  0
    3.1774   -2.0998   -1.3502 C   0  0  0  0  0  0  0  0  0  0  0  0
    2.5050    0.0636   -0.2024 C   0  0  1  0  0  0  0  0  0  0  0  0
    2.5935   -0.8302   -1.4347 C   0  0  0  0  0  0  0  0  0  0  0  0
    4.2224    1.6316   -0.7909 N   0  0  0  0  0  0  0  0  0  0  0  0
    2.7704    1.4652   -0.5611 N   0  0  0  0  0  0  0  0  0  0  0  0
    0.8668   -1.0525    0.6931 H   0  0  0  0  0  0  0  0  0  0  0  0
    0.3491    0.3600   -0.2494 H   0  0  0  0  0  0  0  0  0  0  0  0
    1.0702    0.5768    1.3623 H   0  0  0  0  0  0  0  0  0  0  0  0
    2.7067   -3.1805   -4.5440 H   0  0  0  0  0  0  0  0  0  0  0  0
    1.6816   -0.9209   -4.7209 H   0  0  0  0  0  0  0  0  0  0  0  0
    3.6708   -3.9288   -2.3755 H   0  0  0  0  0  0  0  0  0  0  0  0
    1.6218    0.5762   -2.7339 H   0  0  0  0  0  0  0  0  0  0  0  0
    3.6082   -2.4275   -0.4062 H   0  0  0  0  0  0  0  0  0  0  0  0
    3.2505   -0.2956    0.5292 H   0  0  0  0  0  0  0  0  0  0  0  0
    4.2842    2.5025   -1.3244 H   0  0  0  0  0  0  0  0  0  0  0  0
    4.4424    0.9172   -1.4900 H   0  0  0  0  0  0  0  0  0  0  0  0
    2.6102    2.0050    0.2911 H   0  0  0  0  0  0  0  0  0  0  0  0
  1 11  1  0
  1 13  1  0
  2  4  2  0
  3  2  1  0
  3  5  2  0
  4 16  1  0
  4  6  1  0
  5  8  1  0
  6 18  1  0
  7  1  1  0
  7 19  1  1
  8  6  2  0
  8  7  1  0
  9 10  1  0
 10  7  1  0
 10 22  1  0
 12  1  1  0
 14  2  1  0
 15  3  1  0
 17  5  1  0
 20  9  1  0
 21  9  1  0
M  END
>  <HBA>  (896) 
2

>  <HBD>  (896) 
2

>  <TPSA>  (896) 
38.05

>  <cid>  (896) 
6179

>  <dipole>  (896) 
0.47

>  <excitation_energy_1>  (896) 
4.544

>  <excitation_energy_2>  (896) 
4.65

>  <excitation_energy_3>  (896) 
4.99

>  <excitation_energy_4>  (896) 
5.314

>  <homo_energy>  (896) 
-5.363

>  <homo_lumo_gap>  (896) 
5.372

>  <logP>  (896) 
2.302

>  <lumo_energy>  (896) 
0.008

>  <melting_point>  (896) 
87.91

>  <molecular_refractivity>  (896) 
41.72

>  <oscillator_strength_1>  (896) 
0.001

>  <oscillator_strength_2>  (896) 
0.0001

>  <oscillator_strength_3>  (896) 
0.0046

>  <oscillator_strength_4>  (896) 
0.0001

>  <open_babel_can_smiles>  (896) 
NN[C@H](c1ccccc1)C

>  <mulliken_charges>  (896) 
22
1   -0.452102
2   -0.129367
3   -0.130816
4   -0.129101
5   -0.17215
6   -0.187137
7   -0.026929
8   0.135503
9   -0.602912
10   -0.4687
11   0.156434
12   0.161035
13   0.140237
14   0.127933
15   0.128495
16   0.128603
17   0.146375
18   0.125902
19   0.124278
20   0.304941
21   0.310117
22   0.309361

>  <lowdin_charges>  (896) 
22
1   -0.443765
2   -0.160807
3   -0.156479
4   -0.155503
5   -0.16183
6   -0.168857
7   -0.068806
8   -0.018865
9   -0.501522
10   -0.316941
11   0.158688
12   0.158923
13   0.14736
14   0.157371
15   0.156653
16   0.15638
17   0.165269
18   0.155321
19   0.130632
20   0.254245
21   0.257563
22   0.254969

$$$$
PCCDB-ID:  6183
     RDKit          3D

 25 25  0  0  1  0  0  0  0  0999 V2000
    0.8119   -0.0879    0.1050 C   0  0  0  0  0  0  0  0  0  0  0  0
    3.5037    2.0524   -3.7023 C   0  0  0  0  0  0  0  0  0  0  0  0
    3.9999    2.4242   -2.4525 C   0  0  0  0  0  0  0  0  0  0  0  0
    2.6230    0.9731   -3.7972 C   0  0  0  0  0  0  0  0  0  0  0  0
    3.6168    1.7200   -1.3095 C   0  0  0  0  0  0  0  0  0  0  0  0
    2.2420    0.2741   -2.6516 C   0  0  0  0  0  0  0  0  0  0  0  0
    2.8870   -1.5656   -0.1767 C   0  0  0  0  0  0  0  0  0  0  0  0
    2.3346   -0.1256   -0.1308 C   0  0  1  0  0  0  0  0  0  0  0  0
    2.7335    0.6353   -1.3877 C   0  0  0  0  0  0  0  0  0  0  0  0
    3.1728   -3.6458    0.9454 N   0  0  0  0  0  0  0  0  0  0  0  0
    2.6948   -2.2523    1.1047 N   0  0  0  0  0  0  0  0  0  0  0  0
    0.5489   -0.5153    1.0795 H   0  0  0  0  0  0  0  0  0  0  0  0
    0.2702   -0.6458   -0.6685 H   0  0  0  0  0  0  0  0  0  0  0  0
    0.4450    0.9436    0.0897 H   0  0  0  0  0  0  0  0  0  0  0  0
    3.7985    2.5991   -4.5941 H   0  0  0  0  0  0  0  0  0  0  0  0
    4.6850    3.2637   -2.3649 H   0  0  0  0  0  0  0  0  0  0  0  0
    2.2298    0.6746   -4.7658 H   0  0  0  0  0  0  0  0  0  0  0  0
    4.0096    2.0161   -0.3391 H   0  0  0  0  0  0  0  0  0  0  0  0
    1.5549   -0.5631   -2.7452 H   0  0  0  0  0  0  0  0  0  0  0  0
    3.9683   -1.5149   -0.3644 H   0  0  0  0  0  0  0  0  0  0  0  0
    2.4448   -2.1246   -1.0200 H   0  0  0  0  0  0  0  0  0  0  0  0
    2.8157    0.3655    0.7244 H   0  0  0  0  0  0  0  0  0  0  0  0
    3.1704   -4.0089    1.9026 H   0  0  0  0  0  0  0  0  0  0  0  0
    4.1720   -3.5374    0.7483 H   0  0  0  0  0  0  0  0  0  0  0  0
    1.6873   -2.3793    1.2132 H   0  0  0  0  0  0  0  0  0  0  0  0
  1 12  1  0
  2  3  2  0
  3 16  1  0
  3  5  1  0
  4  2  1  0
  4  6  2  0
  5 18  1  0
  6  9  1  0
  7  8  1  0
  7 11  1  0
  8  1  1  0
  8 22  1  1
  9  5  2  0
  9  8  1  0
 10 11  1  0
 10 23  1  0
 11 25  1  0
 13  1  1  0
 14  1  1  0
 15  2  1  0
 17  4  1  0
 19  6  1  0
 20  7  1  0
 21  7  1  0
 24 10  1  0
M  END
>  <HBA>  (897) 
2

>  <HBD>  (897) 
2

>  <TPSA>  (897) 
38.05

>  <cid>  (897) 
6183

>  <dipole>  (897) 
0.41

>  <excitation_energy_1>  (897) 
4.745

>  <excitation_energy_2>  (897) 
4.803

>  <excitation_energy_3>  (897) 
4.898

>  <excitation_energy_4>  (897) 
5.321

>  <homo_energy>  (897) 
-5.317

>  <homo_lumo_gap>  (897) 
5.382

>  <logP>  (897) 
2.345

>  <lumo_energy>  (897) 
0.065

>  <melting_point>  (897) 
87.25

>  <molecular_refractivity>  (897) 
46.53

>  <oscillator_strength_1>  (897) 
0.0014

>  <oscillator_strength_2>  (897) 
0.0061

>  <oscillator_strength_3>  (897) 
0.0032

>  <oscillator_strength_4>  (897) 
0.0027

>  <open_babel_can_smiles>  (897) 
NNC[C@@H](c1ccccc1)C

>  <mulliken_charges>  (897) 
25
1   -0.460272
2   -0.131004
3   -0.126145
4   -0.129934
5   -0.195065
6   -0.183625
7   -0.115117
8   -0.172329
9   0.176731
10   -0.594502
11   -0.478697
12   0.145712
13   0.145734
14   0.156426
15   0.127393
16   0.127711
17   0.128069
18   0.1249
19   0.126354
20   0.138057
21   0.129433
22   0.141557
23   0.30411
24   0.302482
25   0.312022

>  <lowdin_charges>  (897) 
25
1   -0.44782
2   -0.162219
3   -0.155033
4   -0.155138
5   -0.169438
6   -0.166458
7   -0.209486
8   -0.125654
9   -0.000194
10   -0.493075
11   -0.321326
12   0.148947
13   0.149457
14   0.156685
15   0.157294
16   0.156892
17   0.156517
18   0.154436
19   0.154821
20   0.139964
21   0.128323
22   0.150383
23   0.25249
24   0.249796
25   0.249836

$$$$
PCCDB-ID:  6184
     RDKit          3D

 19 18  0  0  0  0  0  0  0  0999 V2000
    0.5470    0.6551    0.8344 C   0  0  0  0  0  0  0  0  0  0  0  0
    1.8897    0.3536    0.1611 C   0  0  0  0  0  0  0  0  0  0  0  0
    2.7387   -0.6634    0.9346 C   0  0  0  0  0  0  0  0  0  0  0  0
    4.0838   -0.9648    0.2630 C   0  0  0  0  0  0  0  0  0  0  0  0
    4.9270   -1.9779    1.0379 C   0  0  0  0  0  0  0  0  0  0  0  0
    6.2584   -2.3016    0.3994 C   0  0  0  0  0  0  0  0  0  0  0  0
    6.6674   -1.8184   -0.6336 O   0  0  0  0  0  0  0  0  0  0  0  0
   -0.0343    1.3840    0.2584 H   0  0  0  0  0  0  0  0  0  0  0  0
    0.6914    1.0654    1.8415 H   0  0  0  0  0  0  0  0  0  0  0  0
   -0.0607   -0.2531    0.9319 H   0  0  0  0  0  0  0  0  0  0  0  0
    2.4599    1.2861    0.0454 H   0  0  0  0  0  0  0  0  0  0  0  0
    1.7139   -0.0228   -0.8565 H   0  0  0  0  0  0  0  0  0  0  0  0
    2.1681   -1.5975    1.0497 H   0  0  0  0  0  0  0  0  0  0  0  0
    2.9126   -0.2877    1.9544 H   0  0  0  0  0  0  0  0  0  0  0  0
    4.6595   -0.0379    0.1453 H   0  0  0  0  0  0  0  0  0  0  0  0
    3.9181   -1.3424   -0.7539 H   0  0  0  0  0  0  0  0  0  0  0  0
    4.3898   -2.9310    1.1726 H   0  0  0  0  0  0  0  0  0  0  0  0
    5.1342   -1.6293    2.0630 H   0  0  0  0  0  0  0  0  0  0  0  0
    6.8742   -3.0450    0.9571 H   0  0  0  0  0  0  0  0  0  0  0  0
  1 10  1  0
  1  9  1  0
  2  1  1  0
  2  3  1  0
  3 13  1  0
  3 14  1  0
  4  3  1  0
  4  5  1  0
  5 17  1  0
  5 18  1  0
  6 19  1  0
  6  5  1  0
  7  6  2  0
  8  1  1  0
 11  2  1  0
 12  2  1  0
 15  4  1  0
 16  4  1  0
M  END
>  <HBA>  (898) 
1

>  <HBD>  (898) 
0

>  <TPSA>  (898) 
17.07

>  <cid>  (898) 
6184

>  <dipole>  (898) 
2.49

>  <excitation_energy_1>  (898) 
4.331

>  <excitation_energy_2>  (898) 
6.526

>  <excitation_energy_3>  (898) 
7.009

>  <excitation_energy_4>  (898) 
7.138

>  <homo_energy>  (898) 
-6.849

>  <homo_lumo_gap>  (898) 
6.351

>  <logP>  (898) 
1.766

>  <lumo_energy>  (898) 
-0.498

>  <melting_point>  (898) 
5.16

>  <molecular_refractivity>  (898) 
31.16

>  <oscillator_strength_1>  (898) 
0.0002

>  <oscillator_strength_2>  (898) 
0.0329

>  <oscillator_strength_3>  (898) 
0.0357

>  <oscillator_strength_4>  (898) 
0.005

>  <open_babel_can_smiles>  (898) 
CCCCCC=O

>  <mulliken_charges>  (898) 
19
1   -0.442008
2   -0.24776
3   -0.250156
4   -0.24739
5   -0.351199
6   0.253326
7   -0.382717
8   0.143928
9   0.141351
10   0.1413
11   0.133725
12   0.133784
13   0.126266
14   0.126294
15   0.149052
16   0.149029
17   0.160046
18   0.160457
19   0.10267

>  <lowdin_charges>  (898) 
19
1   -0.445232
2   -0.271097
3   -0.274147
4   -0.271274
5   -0.311845
6   0.053868
7   -0.21926
8   0.151791
9   0.145521
10   0.146506
11   0.140858
12   0.139852
13   0.13694
14   0.13589
15   0.150964
16   0.149884
17   0.162646
18   0.162139
19   0.115994

$$$$
PCCDB-ID:  6200
     RDKit          3D

 26 27  0  0  0  0  0  0  0  0999 V2000
   -0.7393    1.2013    0.1471 C   0  0  0  0  0  0  0  0  0  0  0  0
    1.3928    0.1178   -0.2241 C   0  0  0  0  0  0  0  0  0  0  0  0
   -1.3390   -4.9052    0.4300 C   0  0  0  0  0  0  0  0  0  0  0  0
   -3.2156   -3.9192   -0.7377 C   0  0  0  0  0  0  0  0  0  0  0  0
   -1.3755   -0.0356    0.1158 C   0  0  0  0  0  0  0  0  0  0  0  0
    0.7579   -1.1157   -0.2533 C   0  0  0  0  0  0  0  0  0  0  0  0
   -0.7024   -3.6685    0.4555 C   0  0  0  0  0  0  0  0  0  0  0  0
   -2.5809   -2.6855   -0.7102 C   0  0  0  0  0  0  0  0  0  0  0  0
    1.3191    2.6079    0.0126 C   0  0  0  0  0  0  0  0  0  0  0  0
   -3.2714   -6.3601   -0.1890 C   0  0  0  0  0  0  0  0  0  0  0  0
    0.6479    1.2896   -0.0223 C   0  0  0  0  0  0  0  0  0  0  0  0
   -2.5990   -5.0422   -0.1655 C   0  0  0  0  0  0  0  0  0  0  0  0
   -0.6379   -1.2161   -0.0836 C   0  0  0  0  0  0  0  0  0  0  0  0
   -1.3127   -2.5365   -0.1132 C   0  0  0  0  0  0  0  0  0  0  0  0
    2.5153    2.7784   -0.1270 O   0  0  0  0  0  0  0  0  0  0  0  0
   -4.3613   -6.5711   -0.6857 O   0  0  0  0  0  0  0  0  0  0  0  0
   -1.3196    2.1071    0.3101 H   0  0  0  0  0  0  0  0  0  0  0  0
    2.4663    0.2022   -0.3624 H   0  0  0  0  0  0  0  0  0  0  0  0
   -0.8603   -5.7723    0.8805 H   0  0  0  0  0  0  0  0  0  0  0  0
   -4.1886   -4.0418   -1.2035 H   0  0  0  0  0  0  0  0  0  0  0  0
   -2.4480   -0.0938    0.2748 H   0  0  0  0  0  0  0  0  0  0  0  0
    1.3385   -2.0149   -0.4371 H   0  0  0  0  0  0  0  0  0  0  0  0
    0.2626   -3.5693    0.9434 H   0  0  0  0  0  0  0  0  0  0  0  0
   -3.0532   -1.8274   -1.1793 H   0  0  0  0  0  0  0  0  0  0  0  0
    0.6375    3.4712    0.1814 H   0  0  0  0  0  0  0  0  0  0  0  0
   -2.6981   -7.1820    0.2951 H   0  0  0  0  0  0  0  0  0  0  0  0
  1 17  1  0
  2 11  2  0
  3  7  2  0
  3 19  1  0
  4  8  1  0
  4 12  2  0
  5  1  2  0
  5 21  1  0
  6  2  1  0
  6 13  2  0
  7 23  1  0
  8 14  2  0
  9 25  1  0
 10 12  1  0
 10 26  1  0
 11  9  1  0
 11  1  1  0
 12  3  1  0
 13  5  1  0
 14 13  1  0
 14  7  1  0
 15  9  2  0
 16 10  2  0
 18  2  1  0
 20  4  1  0
 22  6  1  0
 24  8  1  0
M  END
>  <HBA>  (899) 
2

>  <HBD>  (899) 
0

>  <TPSA>  (899) 
34.14

>  <cid>  (899) 
6200

>  <dipole>  (899) 
1.07

>  <excitation_energy_1>  (899) 
3.544

>  <excitation_energy_2>  (899) 
3.551

>  <excitation_energy_3>  (899) 
4.044

>  <excitation_energy_4>  (899) 
4.361

>  <homo_energy>  (899) 
-6.784

>  <homo_lumo_gap>  (899) 
4.403

>  <logP>  (899) 
2.979

>  <lumo_energy>  (899) 
-2.381

>  <melting_point>  (899) 
110.13

>  <molecular_refractivity>  (899) 
62.65

>  <oscillator_strength_1>  (899) 
0.0001

>  <oscillator_strength_2>  (899) 
0.0001

>  <oscillator_strength_3>  (899) 
0.8491

>  <oscillator_strength_4>  (899) 
0.0037

>  <open_babel_can_smiles>  (899) 
O=Cc1ccc(cc1)c1ccc(cc1)C=O

>  <mulliken_charges>  (899) 
26
1   -0.184194
2   -0.163551
3   -0.184107
4   -0.163721
5   -0.175653
6   -0.172392
7   -0.175829
8   -0.172319
9   0.194098
10   0.194158
11   0.101243
12   0.10138
13   0.094882
14   0.09512
15   -0.404105
16   -0.404173
17   0.14544
18   0.167916
19   0.145367
20   0.167939
21   0.145695
22   0.145648
23   0.145726
24   0.145585
25   0.104929
26   0.104917

>  <lowdin_charges>  (899) 
26
1   -0.139522
2   -0.120002
3   -0.139626
4   -0.121076
5   -0.155845
6   -0.156522
7   -0.157076
8   -0.156852
9   0.043037
10   0.042678
11   -0.052354
12   -0.052907
13   0.013497
14   0.013526
15   -0.2242
16   -0.223826
17   0.165067
18   0.176403
19   0.165343
20   0.177646
21   0.163796
22   0.166098
23   0.165116
24   0.166374
25   0.120485
26   0.120742

$$$$
PCCDB-ID:  6205
     RDKit          3D

 23 22  0  0  1  0  0  0  0  0999 V2000
    5.2075   -0.1826    2.7014 C   0  0  0  0  0  0  0  0  0  0  0  0
    5.7569   -0.7793    1.4058 C   0  0  0  0  0  0  0  0  0  0  0  0
    5.4359   -2.3767   -1.6227 C   0  0  0  0  0  0  0  0  0  0  0  0
    5.7308   -0.8858   -1.4295 C   0  0  0  0  0  0  0  0  0  0  0  0
    6.1297   -3.0165   -2.8500 C   0  0  1  0  0  0  0  0  0  0  0  0
    7.6462   -3.0280   -2.6497 C   0  0  0  0  0  0  0  0  0  0  0  0
    5.5918   -4.3618   -3.0503 N   0  0  0  0  0  0  0  0  0  0  0  0
    8.2571   -3.9059   -2.0782 O   0  0  0  0  0  0  0  0  0  0  0  0
    8.2560   -1.9325   -3.1665 O   0  0  0  0  0  0  0  0  0  0  0  0
    4.8222   -0.1134   -0.0325 S   0  0  0  0  0  0  0  0  0  0  0  0
    5.7623   -0.5751    3.5611 H   0  0  0  0  0  0  0  0  0  0  0  0
    4.1506   -0.4350    2.8373 H   0  0  0  0  0  0  0  0  0  0  0  0
    5.2999    0.9085    2.7059 H   0  0  0  0  0  0  0  0  0  0  0  0
    5.6712   -1.8708    1.4260 H   0  0  0  0  0  0  0  0  0  0  0  0
    6.8159   -0.5242    1.2837 H   0  0  0  0  0  0  0  0  0  0  0  0
    4.3607   -2.5278   -1.7577 H   0  0  0  0  0  0  0  0  0  0  0  0
    5.7289   -2.9432   -0.7292 H   0  0  0  0  0  0  0  0  0  0  0  0
    5.4162   -0.3209   -2.3142 H   0  0  0  0  0  0  0  0  0  0  0  0
    6.8009   -0.6941   -1.2984 H   0  0  0  0  0  0  0  0  0  0  0  0
    5.9036   -2.4153   -3.7376 H   0  0  0  0  0  0  0  0  0  0  0  0
    5.9594   -4.9636   -2.3122 H   0  0  0  0  0  0  0  0  0  0  0  0
    5.9584   -4.7488   -3.9196 H   0  0  0  0  0  0  0  0  0  0  0  0
    9.2070   -2.0256   -2.9630 H   0  0  0  0  0  0  0  0  0  0  0  0
  1 13  1  0
  1 12  1  0
  1 11  1  0
  2 14  1  0
  2  1  1  0
  3  4  1  0
  3 17  1  0
  4 19  1  0
  4 10  1  0
  5 20  1  6
  5  6  1  0
  5  3  1  0
  6  8  2  0
  7  5  1  0
  7 21  1  0
  9 23  1  0
  9  6  1  0
 10  2  1  0
 15  2  1  0
 16  3  1  0
 18  4  1  0
 22  7  1  0
M  END
>  <HBA>  (900) 
4

>  <HBD>  (900) 
2

>  <TPSA>  (900) 
88.62

>  <cid>  (900) 
6205

>  <dipole>  (900) 
2.08

>  <excitation_energy_1>  (900) 
4.885

>  <excitation_energy_2>  (900) 
5.136

>  <excitation_energy_3>  (900) 
5.231

>  <excitation_energy_4>  (900) 
5.504

>  <homo_energy>  (900) 
-5.913

>  <homo_lumo_gap>  (900) 
5.853

>  <logP>  (900) 
1.242

>  <lumo_energy>  (900) 
-0.06

>  <melting_point>  (900) 
113.81

>  <molecular_refractivity>  (900) 
43.03

>  <oscillator_strength_1>  (900) 
0.0087

>  <oscillator_strength_2>  (900) 
0.0001

>  <oscillator_strength_3>  (900) 
0.0073

>  <oscillator_strength_4>  (900) 
0.0066

>  <open_babel_can_smiles>  (900) 
CCSCC[C@@H](C(=O)O)N

>  <mulliken_charges>  (900) 
23
1   -0.453864
2   -0.394643
3   -0.255336
4   -0.430336
5   -0.059562
6   0.554838
7   -0.694992
8   -0.468233
9   -0.562569
10   0.085818
11   0.153233
12   0.165209
13   0.164836
14   0.170979
15   0.164447
16   0.180793
17   0.1488
18   0.17613
19   0.172769
20   0.159173
21   0.311203
22   0.302877
23   0.408429

>  <lowdin_charges>  (900) 
23
1   -0.441768
2   -0.365117
3   -0.277529
4   -0.37936
5   -0.093709
6   0.175225
7   -0.53301
8   -0.272849
9   -0.355058
10   0.084359
11   0.157171
12   0.157881
13   0.157041
14   0.151286
15   0.15073
16   0.167666
17   0.149788
18   0.169173
19   0.155966
20   0.15898
21   0.264206
22   0.259864
23   0.359065

$$$$
PCCDB-ID:  6206
     RDKit          3D

 21 21  0  0  1  0  0  0  0  0999 V2000
    1.7695   -0.8290   -1.3713 C   0  0  0  0  0  0  0  0  0  0  0  0
    0.7616   -5.1392    1.3161 C   0  0  0  0  0  0  0  0  0  0  0  0
    0.4756   -6.3251    2.0325 C   0  0  0  0  0  0  0  0  0  0  0  0
    2.2821   -3.1253    1.9423 C   0  0  0  0  0  3  0  0  0  0  0  0
    2.6161   -0.5236   -0.1667 C   0  0  0  0  0  3  0  0  0  0  0  0
    1.6286   -4.4017    2.0990 C   0  0  0  0  0  0  0  0  0  0  0  0
    1.1882   -6.2243    3.1994 C   0  0  0  0  0  0  0  0  0  0  0  0
    2.0881   -2.4300    0.8742 N   0  0  0  0  0  2  0  0  0  0  0  0
    2.7915   -1.2363    0.8923 N   0  0  0  0  0  2  0  0  0  0  0  0
    1.2878   -7.1213    4.3031 N   0  0  0  0  0  0  0  0  0  0  0  0
    3.2915    0.6482   -0.1771 O   0  0  0  0  0  0  0  0  0  0  0  0
    0.6311   -8.1647    4.2081 O   0  0  0  0  0  0  0  0  0  0  0  0
    2.0045   -6.7995    5.2503 O   0  0  0  0  0  0  0  0  0  0  0  0
    1.8909   -5.0722    3.2609 O   0  0  0  0  0  0  0  0  0  0  0  0
    1.2770   -1.7923   -1.2478 H   0  0  0  0  0  0  0  0  0  0  0  0
    2.3922   -0.8545   -2.2746 H   0  0  0  0  0  0  0  0  0  0  0  0
    1.0095   -0.0491   -1.5076 H   0  0  0  0  0  0  0  0  0  0  0  0
    0.3888   -4.8433    0.3468 H   0  0  0  0  0  0  0  0  0  0  0  0
   -0.1607   -7.1498    1.7503 H   0  0  0  0  0  0  0  0  0  0  0  0
    2.9341   -2.7816    2.7481 H   0  0  0  0  0  0  0  0  0  0  0  0
    3.1033    1.1192   -1.0037 H   0  0  0  0  0  0  0  0  0  0  0  0
  1 15  1  0
  1  5  1  0
  2  3  1  0
  2  6  2  0
  3  7  2  0
  4  6  1  0
  4 20  1  0
  5 11  1  0
  5  9  1  0
  6 14  1  0
  7 14  1  0
  7 10  1  0
  8  9  1  0
  8  4  1  0
 10 13  1  0
 12 10  2  0
 16  1  1  0
 17  1  1  0
 18  2  1  0
 19  3  1  0
 21 11  1  0
M  CHG  2  10   1  13  -1
M  RAD  4   4   2   5   2   8   2   9   2
M  END
>  <HBA>  (901) 
4

>  <HBD>  (901) 
1

>  <TPSA>  (901) 
100.42

>  <cid>  (901) 
6206

>  <dipole>  (901) 
8.43

>  <excitation_energy_1>  (901) 
3.199

>  <excitation_energy_2>  (901) 
3.42

>  <excitation_energy_3>  (901) 
3.683

>  <excitation_energy_4>  (901) 
4.199

>  <homo_energy>  (901) 
-6.34

>  <homo_lumo_gap>  (901) 
3.644

>  <logP>  (901) 
1.572

>  <lumo_energy>  (901) 
-2.697

>  <melting_point>  (901) 
111.28

>  <molecular_refractivity>  (901) 
48.8

>  <oscillator_strength_1>  (901) 
0.0002

>  <oscillator_strength_2>  (901) 
0.7014

>  <oscillator_strength_3>  (901) 
0.0

>  <oscillator_strength_4>  (901) 
0.0002

>  <open_babel_can_smiles>  (901) 
C[C]([N][N][CH]c1ccc(o1)N(=O)=O)O

>  <mulliken_charges>  (901) 
21
1   -0.555475
2   -0.191247
3   -0.144556
4   0.020359
5   0.531295
6   0.368
7   0.535944
8   -0.28574
9   -0.314242
10   0.328315
11   -0.56051
12   -0.406269
13   -0.390119
14   -0.453105
15   0.214628
16   0.176744
17   0.176505
18   0.171329
19   0.189462
20   0.170976
21   0.417704

>  <lowdin_charges>  (901) 
21
1   -0.483461
2   -0.178542
3   -0.152299
4   -0.100674
5   0.144156
6   0.091151
7   0.069538
8   -0.098838
9   -0.148838
10   0.30292
11   -0.336678
12   -0.258248
13   -0.238661
14   -0.060194
15   0.190729
16   0.172248
17   0.172448
18   0.185369
19   0.19616
20   0.168013
21   0.3637

$$$$
PCCDB-ID:  6208
     RDKit          3D

 15 15  0  0  0  0  0  0  0  0999 V2000
    1.8478   -1.1130    0.7630 C   0  0  0  0  0  0  0  0  0  0  0  0
    4.2931   -0.5190   -2.9907 C   0  0  0  0  0  0  0  0  0  0  0  0
    3.8358    0.3658   -1.9839 C   0  0  0  0  0  0  0  0  0  0  0  0
    3.9895   -3.0756   -3.2958 C   0  0  0  0  0  0  0  0  0  0  0  0
    3.8502   -1.7809   -2.6725 C   0  0  0  0  0  0  0  0  0  0  0  0
    3.1304   -0.4232   -1.1019 C   0  0  0  0  0  0  0  0  0  0  0  0
    4.6013   -3.2688   -4.3368 O   0  0  0  0  0  0  0  0  0  0  0  0
    2.4946   -0.0738    0.0130 O   0  0  0  0  0  0  0  0  0  0  0  0
    3.1201   -1.7127   -1.4838 O   0  0  0  0  0  0  0  0  0  0  0  0
    1.4041   -0.6120    1.6230 H   0  0  0  0  0  0  0  0  0  0  0  0
    2.5731   -1.8622    1.0948 H   0  0  0  0  0  0  0  0  0  0  0  0
    1.0700   -1.5975    0.1650 H   0  0  0  0  0  0  0  0  0  0  0  0
    4.8838   -0.2773   -3.8632 H   0  0  0  0  0  0  0  0  0  0  0  0
    3.9893    1.4308   -1.8992 H   0  0  0  0  0  0  0  0  0  0  0  0
    3.4885   -3.9028   -2.7481 H   0  0  0  0  0  0  0  0  0  0  0  0
  1 11  1  0
  1 10  1  0
  2  5  2  0
  2  3  1  0
  3 14  1  0
  3  6  2  0
  4 15  1  0
  4  5  1  0
  5  9  1  0
  6  8  1  0
  7  4  2  0
  8  1  1  0
  9  6  1  0
 12  1  1  0
 13  2  1  0
M  END
>  <HBA>  (902) 
3

>  <HBD>  (902) 
0

>  <TPSA>  (902) 
39.44

>  <cid>  (902) 
6208

>  <dipole>  (902) 
4.5

>  <excitation_energy_1>  (902) 
3.807

>  <excitation_energy_2>  (902) 
4.411

>  <excitation_energy_3>  (902) 
5.353

>  <excitation_energy_4>  (902) 
5.8

>  <homo_energy>  (902) 
-5.946

>  <homo_lumo_gap>  (902) 
4.604

>  <logP>  (902) 
1.101

>  <lumo_energy>  (902) 
-1.342

>  <melting_point>  (902) 
42.42

>  <molecular_refractivity>  (902) 
30.59

>  <oscillator_strength_1>  (902) 
0.0001

>  <oscillator_strength_2>  (902) 
0.3975

>  <oscillator_strength_3>  (902) 
0.0026

>  <oscillator_strength_4>  (902) 
0.0002

>  <open_babel_can_smiles>  (902) 
COc1ccc(o1)C=O

>  <mulliken_charges>  (902) 
15
1   -0.224618
2   -0.175517
3   -0.203227
4   0.166798
5   0.292263
6   0.591813
7   -0.42861
8   -0.489361
9   -0.491151
10   0.180401
11   0.174396
12   0.174763
13   0.174433
14   0.154854
15   0.102763

>  <lowdin_charges>  (902) 
15
1   -0.274346
2   -0.135781
3   -0.242107
4   0.021622
5   0.002855
6   0.178253
7   -0.253105
8   -0.16499
9   -0.112177
10   0.170371
11   0.161003
12   0.161189
13   0.186711
14   0.178082
15   0.122419

$$$$
PCCDB-ID:  6210
     RDKit          3D

 15 15  0  0  0  0  0  0  0  0999 V2000
    1.0259   -0.0653   -0.0052 C   0  0  0  0  0  0  0  0  0  0  0  0
    5.9705    1.3973    0.0188 C   0  0  0  0  0  0  0  0  0  0  0  0
    3.3560    1.1587    0.0065 C   0  0  0  0  0  0  0  0  0  0  0  0
    2.5173    0.0578   -0.0006 C   0  0  0  0  0  0  0  0  0  0  0  0
    4.6748    0.6384    0.0115 C   0  0  0  0  0  0  0  0  0  0  0  0
    3.3491   -1.0198    0.0014 N   0  0  0  0  0  0  0  0  0  0  0  0
    4.6646   -0.6962    0.0077 N   0  0  0  0  0  0  0  0  0  0  0  0
    0.5684    0.9275   -0.0086 H   0  0  0  0  0  0  0  0  0  0  0  0
    0.6559   -0.5986    0.8799 H   0  0  0  0  0  0  0  0  0  0  0  0
    0.6612   -0.6022   -0.8903 H   0  0  0  0  0  0  0  0  0  0  0  0
    5.7868    2.4759    0.0112 H   0  0  0  0  0  0  0  0  0  0  0  0
    6.5812    1.1508   -0.8572 H   0  0  0  0  0  0  0  0  0  0  0  0
    6.5659    1.1611    0.9082 H   0  0  0  0  0  0  0  0  0  0  0  0
    3.0560    2.1977    0.0064 H   0  0  0  0  0  0  0  0  0  0  0  0
    3.0915   -1.9955   -0.0058 H   0  0  0  0  0  0  0  0  0  0  0  0
  1  4  1  0
  1  9  1  0
  2 13  1  0
  3  5  1  0
  4  6  1  0
  4  3  2  0
  5  2  1  0
  6  7  1  0
  7  5  2  0
  8  1  1  0
 10  1  1  0
 11  2  1  0
 12  2  1  0
 14  3  1  0
 15  6  1  0
M  END
>  <HBA>  (903) 
1

>  <HBD>  (903) 
1

>  <TPSA>  (903) 
28.68

>  <cid>  (903) 
6210

>  <dipole>  (903) 
2.39

>  <excitation_energy_1>  (903) 
5.576

>  <excitation_energy_2>  (903) 
5.863

>  <excitation_energy_3>  (903) 
6.23

>  <excitation_energy_4>  (903) 
6.29

>  <homo_energy>  (903) 
-6.142

>  <homo_lumo_gap>  (903) 
6.885

>  <logP>  (903) 
1.026

>  <lumo_energy>  (903) 
0.743

>  <melting_point>  (903) 
74.77

>  <molecular_refractivity>  (903) 
28.52

>  <oscillator_strength_1>  (903) 
0.0001

>  <oscillator_strength_2>  (903) 
0.0002

>  <oscillator_strength_3>  (903) 
0.0021

>  <oscillator_strength_4>  (903) 
0.0569

>  <open_babel_can_smiles>  (903) 
Cc1[nH]nc(c1)C

>  <mulliken_charges>  (903) 
15
1   -0.532475
2   -0.512695
3   -0.305897
4   0.392327
5   0.31457
6   -0.461474
7   -0.334793
8   0.174207
9   0.166199
10   0.165829
11   0.148721
12   0.16582
13   0.165683
14   0.120771
15   0.333207

>  <lowdin_charges>  (903) 
15
1   -0.444732
2   -0.440288
3   -0.257324
4   0.01629
5   0.004512
6   -0.131687
7   -0.176271
8   0.171101
9   0.163179
10   0.163002
11   0.154602
12   0.164672
13   0.164451
14   0.159951
15   0.288542

$$$$
PCCDB-ID:  6213
     RDKit          3D

 11 10  0  0  0  0  0  0  0  0999 V2000
    1.1583   -0.0571    0.0088 C   0  0  0  0  0  0  0  0  0  0  0  0
    3.4788   -0.4190   -1.5916 C   0  0  0  0  0  0  0  0  0  0  0  0
    3.3851    1.3411    0.3979 O   0  0  0  0  0  0  0  0  0  0  0  0
    3.3846   -1.1524    0.9614 O   0  0  0  0  0  0  0  0  0  0  0  0
    2.9657   -0.0362    0.1013 S   0  0  0  0  0  0  0  0  0  0  0  0
    0.8170    0.7100   -0.6894 H   0  0  0  0  0  0  0  0  0  0  0  0
    0.8033    0.1706    1.0167 H   0  0  0  0  0  0  0  0  0  0  0  0
    0.8174   -1.0501   -0.2916 H   0  0  0  0  0  0  0  0  0  0  0  0
    3.1096    0.3525   -2.2706 H   0  0  0  0  0  0  0  0  0  0  0  0
    3.1093   -1.4075   -1.8722 H   0  0  0  0  0  0  0  0  0  0  0  0
    4.5713   -0.4170   -1.5823 H   0  0  0  0  0  0  0  0  0  0  0  0
  1  5  1  0
  1  7  1  0
  2 11  1  0
  2  5  1  0
  5  3  2  0
  5  4  2  0
  6  1  1  0
  8  1  1  0
  9  2  1  0
 10  2  1  0
M  END
>  <HBA>  (904) 
2

>  <HBD>  (904) 
0

>  <TPSA>  (904) 
42.52

>  <cid>  (904) 
6213

>  <dipole>  (904) 
4.61

>  <excitation_energy_1>  (904) 
6.996

>  <excitation_energy_2>  (904) 
7.2

>  <excitation_energy_3>  (904) 
7.636

>  <excitation_energy_4>  (904) 
7.74

>  <homo_energy>  (904) 
-7.878

>  <homo_lumo_gap>  (904) 
9.491

>  <logP>  (904) 
0.742

>  <lumo_energy>  (904) 
1.614

>  <melting_point>  (904) 
5.73

>  <molecular_refractivity>  (904) 
20.69

>  <oscillator_strength_1>  (904) 
0.0743

>  <oscillator_strength_2>  (904) 
0.0054

>  <oscillator_strength_3>  (904) 
0.0

>  <oscillator_strength_4>  (904) 
0.0662

>  <open_babel_can_smiles>  (904) 
CS(=O)(=O)C

>  <mulliken_charges>  (904) 
11
1   -0.629802
2   -0.62988
3   -0.528066
4   -0.528121
5   1.07319
6   0.198478
7   0.224304
8   0.198525
9   0.198525
10   0.198538
11   0.224309

>  <lowdin_charges>  (904) 
11
1   -0.605376
2   -0.60383
3   -0.604726
4   -0.605636
5   1.267712
6   0.188198
7   0.201286
8   0.186889
9   0.188299
10   0.186984
11   0.2002

$$$$
PCCDB-ID:  6228
     RDKit          3D

 12 11  0  0  0  0  0  0  0  0999 V2000
    0.9447    0.0917    0.0052 C   0  0  0  0  0  0  0  0  0  0  0  0
    3.0955    0.8463    1.0001 C   0  0  0  0  0  0  0  0  0  0  0  0
    3.0947   -0.5136   -1.0287 C   0  0  0  0  0  0  0  0  0  0  0  0
    2.3924    0.1186   -0.0422 N   0  0  0  0  0  0  0  0  0  0  0  0
    4.3097   -0.5359   -1.1354 O   0  0  0  0  0  0  0  0  0  0  0  0
    0.5277    1.1060   -0.0576 H   0  0  0  0  0  0  0  0  0  0  0  0
    0.5881   -0.3674    0.9372 H   0  0  0  0  0  0  0  0  0  0  0  0
    0.5603   -0.4918   -0.8365 H   0  0  0  0  0  0  0  0  0  0  0  0
    2.8056    1.9052    0.9976 H   0  0  0  0  0  0  0  0  0  0  0  0
    4.1652    0.7604    0.8065 H   0  0  0  0  0  0  0  0  0  0  0  0
    2.8663    0.4268    1.9884 H   0  0  0  0  0  0  0  0  0  0  0  0
    2.4244   -1.0245   -1.7480 H   0  0  0  0  0  0  0  0  0  0  0  0
  1  7  1  0
  2 11  1  0
  3  4  1  0
  4  1  1  0
  4  2  1  0
  5  3  2  0
  6  1  1  0
  8  1  1  0
  9  2  1  0
 10  2  1  0
 12  3  1  0
M  END
>  <HBA>  (905) 
2

>  <HBD>  (905) 
0

>  <TPSA>  (905) 
20.31

>  <cid>  (905) 
6228

>  <dipole>  (905) 
3.83

>  <excitation_energy_1>  (905) 
5.664

>  <excitation_energy_2>  (905) 
5.969

>  <excitation_energy_3>  (905) 
6.379

>  <excitation_energy_4>  (905) 
6.603

>  <homo_energy>  (905) 
-6.591

>  <homo_lumo_gap>  (905) 
7.467

>  <logP>  (905) 
0.34

>  <lumo_energy>  (905) 
0.876

>  <melting_point>  (905) 
-0.54

>  <molecular_refractivity>  (905) 
20.02

>  <oscillator_strength_1>  (905) 
0.0011

>  <oscillator_strength_2>  (905) 
0.02

>  <oscillator_strength_3>  (905) 
0.0358

>  <oscillator_strength_4>  (905) 
0.1346

>  <open_babel_can_smiles>  (905) 
O=CN(C)C

>  <mulliken_charges>  (905) 
12
1   -0.312953
2   -0.321708
3   0.349741
4   -0.347287
5   -0.467961
6   0.160328
7   0.160361
8   0.166877
9   0.154701
10   0.203724
11   0.154717
12   0.099461

>  <lowdin_charges>  (905) 
12
1   -0.348347
2   -0.352869
3   0.035591
4   -0.10085
5   -0.299996
6   0.150453
7   0.151439
8   0.162999
9   0.148941
10   0.182307
11   0.150053
12   0.120279

$$$$
PCCDB-ID:  6234
     RDKit          3D

 13 13  0  0  1  0  0  0  0  0999 V2000
   -1.1680   -0.2553    0.1188 C   0  0  0  0  0  0  0  0  0  0  0  0
   -0.4206    1.0825    0.0869 C   0  0  2  0  0  0  0  0  0  0  0  0
    0.9775    0.5245   -0.0984 C   0  0  0  0  0  0  0  0  0  0  0  0
   -0.4383    1.9880    1.2318 N   0  0  0  0  0  0  0  0  0  0  0  0
    1.0443   -0.6964   -0.4729 N   0  0  0  0  0  0  0  0  0  0  0  0
    2.0415    1.3065    0.1318 O   0  0  0  0  0  0  0  0  0  0  0  0
   -0.3130   -1.1574   -0.6039 O   0  0  0  0  0  0  0  0  0  0  0  0
   -2.1436   -0.2562   -0.3730 H   0  0  0  0  0  0  0  0  0  0  0  0
   -1.2817   -0.5962    1.1623 H   0  0  0  0  0  0  0  0  0  0  0  0
   -0.6811    1.6733   -0.8022 H   0  0  0  0  0  0  0  0  0  0  0  0
   -0.4611    1.4646    2.1067 H   0  0  0  0  0  0  0  0  0  0  0  0
   -1.2518    2.5973    1.2180 H   0  0  0  0  0  0  0  0  0  0  0  0
    1.6785    2.0809    0.6124 H   0  0  0  0  0  0  0  0  0  0  0  0
  1  9  1  0
  2 10  1  6
  2  1  1  0
  2  4  1  0
  3  2  1  0
  3  6  1  0
  4 11  1  0
  5  3  2  0
  6 13  1  0
  7  5  1  0
  7  1  1  0
  8  1  1  0
 12  4  1  0
M  END
>  <HBA>  (906) 
4

>  <HBD>  (906) 
2

>  <TPSA>  (906) 
64.35

>  <cid>  (906) 
6234

>  <dipole>  (906) 
5.92

>  <excitation_energy_1>  (906) 
5.01

>  <excitation_energy_2>  (906) 
5.655

>  <excitation_energy_3>  (906) 
6.012

>  <excitation_energy_4>  (906) 
6.083

>  <homo_energy>  (906) 
-6.068

>  <homo_lumo_gap>  (906) 
6.416

>  <logP>  (906) 
-0.596

>  <lumo_energy>  (906) 
0.348

>  <melting_point>  (906) 
94.22

>  <molecular_refractivity>  (906) 
25.13

>  <oscillator_strength_1>  (906) 
0.0207

>  <oscillator_strength_2>  (906) 
0.0286

>  <oscillator_strength_3>  (906) 
0.0141

>  <oscillator_strength_4>  (906) 
0.018

>  <open_babel_can_smiles>  (906) 
N[C@@H]1CON=C1O

>  <mulliken_charges>  (906) 
13
1   -0.017607
2   -0.107337
3   0.534147
4   -0.743551
5   -0.203926
6   -0.601544
7   -0.394083
8   0.156792
9   0.130235
10   0.1775
11   0.31653
12   0.323693
13   0.429151

>  <lowdin_charges>  (906) 
13
1   -0.149213
2   -0.112423
3   0.070702
4   -0.54045
5   -0.071633
6   -0.343064
7   -0.214539
8   0.158202
9   0.132958
10   0.164802
11   0.265449
12   0.272361
13   0.366846

$$$$
PCCDB-ID:  6235
     RDKit          3D

 30 33  0  0  0  0  0  0  0  0999 V2000
   -0.1746   -0.3211    0.7097 C   0  0  0  0  0  0  0  0  0  0  0  0
   -1.3066    0.6595    0.8053 C   0  0  0  0  0  0  0  0  0  0  0  0
   -5.0427   -5.8880   -0.7624 C   0  0  0  0  0  0  0  0  0  0  0  0
   -6.1631   -5.0132   -1.2267 C   0  0  0  0  0  0  0  0  0  0  0  0
   -6.9498   -2.0359   -1.5317 C   0  0  0  0  0  0  0  0  0  0  0  0
   -6.5407   -0.6597   -1.1349 C   0  0  0  0  0  0  0  0  0  0  0  0
   -1.8690   -2.7922   -0.0349 C   0  0  0  0  0  0  0  0  0  0  0  0
   -2.2355   -1.4914   -0.0985 C   0  0  0  0  0  0  0  0  0  0  0  0
   -2.8521   -3.8698   -0.0989 C   0  0  0  0  0  0  0  0  0  0  0  0
   -4.2976   -3.5116   -0.3152 C   0  0  0  0  0  0  0  0  0  0  0  0
   -4.6864   -2.1927   -0.3981 C   0  0  0  0  0  0  0  0  0  0  0  0
   -3.6943   -1.1119   -0.2195 C   0  0  0  0  0  0  0  0  0  0  0  0
   -1.3452   -0.4396   -0.1409 N   0  0  0  0  0  0  0  0  0  0  0  0
   -5.2065   -4.5510   -0.2300 N   0  0  0  0  0  0  0  0  0  0  0  0
   -6.0376   -1.8171   -0.4091 N   0  0  0  0  0  0  0  0  0  0  0  0
   -2.5047   -5.0447    0.0226 O   0  0  0  0  0  0  0  0  0  0  0  0
   -4.0149    0.0714   -0.1442 O   0  0  0  0  0  0  0  0  0  0  0  0
   -0.0643   -1.0484    1.5139 H   0  0  0  0  0  0  0  0  0  0  0  0
    0.7487   -0.0446    0.2061 H   0  0  0  0  0  0  0  0  0  0  0  0
   -1.2146    1.6499    0.3675 H   0  0  0  0  0  0  0  0  0  0  0  0
   -1.9569    0.6000    1.6746 H   0  0  0  0  0  0  0  0  0  0  0  0
   -4.2239   -6.0714   -1.4516 H   0  0  0  0  0  0  0  0  0  0  0  0
   -5.2292   -6.6929   -0.0552 H   0  0  0  0  0  0  0  0  0  0  0  0
   -7.1794   -5.1644   -0.8699 H   0  0  0  0  0  0  0  0  0  0  0  0
   -6.0828   -4.6120   -2.2353 H   0  0  0  0  0  0  0  0  0  0  0  0
   -6.5316   -2.4168   -2.4626 H   0  0  0  0  0  0  0  0  0  0  0  0
   -7.9289   -2.4316   -1.2710 H   0  0  0  0  0  0  0  0  0  0  0  0
   -7.2156   -0.0222   -0.5686 H   0  0  0  0  0  0  0  0  0  0  0  0
   -5.8642   -0.1273   -1.7969 H   0  0  0  0  0  0  0  0  0  0  0  0
   -0.8329   -3.0974    0.0715 H   0  0  0  0  0  0  0  0  0  0  0  0
  1  2  1  0
  1 18  1  0
  2 21  1  0
  3 14  1  0
  3 23  1  0
  4 24  1  0
  4  3  1  0
  4 14  1  0
  5 27  1  0
  5  6  1  0
  5 15  1  0
  6 28  1  0
  6 15  1  0
  7 30  1  0
  8  7  2  0
  9  7  1  0
  9 16  2  0
 10 14  1  0
 10  9  1  0
 11 10  2  0
 11 12  1  0
 12 17  2  0
 12  8  1  0
 13  8  1  0
 13  1  1  0
 13  2  1  0
 15 11  1  0
 19  1  1  0
 20  2  1  0
 22  3  1  0
 25  4  1  0
 26  5  1  0
 29  6  1  0
M  END
>  <HBA>  (907) 
5

>  <HBD>  (907) 
0

>  <TPSA>  (907) 
43.17

>  <cid>  (907) 
6235

>  <dipole>  (907) 
1.58

>  <excitation_energy_1>  (907) 
1.959

>  <excitation_energy_2>  (907) 
2.777

>  <excitation_energy_3>  (907) 
3.043

>  <excitation_energy_4>  (907) 
3.352

>  <homo_energy>  (907) 
-5.257

>  <homo_lumo_gap>  (907) 
2.623

>  <logP>  (907) 
-1.006

>  <lumo_energy>  (907) 
-2.634

>  <melting_point>  (907) 
98.52

>  <molecular_refractivity>  (907) 
71.23

>  <oscillator_strength_1>  (907) 
0.016

>  <oscillator_strength_2>  (907) 
0.0002

>  <oscillator_strength_3>  (907) 
0.0018

>  <oscillator_strength_4>  (907) 
0.1611

>  <open_babel_can_smiles>  (907) 
O=C1C(=C(N2CC2)C(=O)C=C1N1CC1)N1CC1

>  <mulliken_charges>  (907) 
30
1   -0.206106
2   -0.168283
3   -0.168372
4   -0.19456
5   -0.195066
6   -0.171908
7   -0.274699
8   0.274145
9   0.432763
10   0.172556
11   0.163423
12   0.390069
13   -0.396103
14   -0.398662
15   -0.4095
16   -0.503441
17   -0.489133
18   0.167449
19   0.170516
20   0.172911
21   0.175841
22   0.177047
23   0.167739
24   0.166346
25   0.155095
26   0.149253
27   0.160889
28   0.163172
29   0.171488
30   0.14513

>  <lowdin_charges>  (907) 
30
1   -0.229443
2   -0.205493
3   -0.21081
4   -0.223171
5   -0.229363
6   -0.219274
7   -0.231812
8   0.037895
9   0.14108
10   -0.001935
11   -0.030453
12   0.136747
13   -0.112627
14   -0.113509
15   -0.137865
16   -0.250218
17   -0.237819
18   0.160519
19   0.166502
20   0.167386
21   0.165429
22   0.166343
23   0.166401
24   0.162678
25   0.152259
26   0.149323
27   0.16007
28   0.164717
29   0.164279
30   0.172166

$$$$
PCCDB-ID:  6260
     RDKit          3D

 28 29  0  0  1  0  0  0  0  0999 V2000
   -3.1245    0.9589    1.8891 C   0  0  0  0  0  0  0  0  0  0  0  0
   -7.8777   -4.2701   -2.7450 C   0  0  0  0  0  0  0  0  0  0  0  0
   -3.5401   -0.1712    1.1913 C   0  0  0  0  0  0  0  0  0  0  0  0
   -6.7891   -4.8479   -1.8292 C   0  0  0  0  0  0  0  0  0  0  0  0
   -3.1686    0.9354    3.2847 C   0  0  0  0  0  0  0  0  0  0  0  0
   -7.2734   -2.9129   -3.1149 C   0  0  0  0  0  0  0  0  0  0  0  0
   -3.9921   -1.1934    3.3209 C   0  0  0  0  0  0  0  0  0  0  0  0
   -4.7874   -3.6626   -0.7860 C   0  0  0  0  0  0  0  0  0  0  0  0
   -3.9853   -1.2790    1.9214 C   0  0  0  0  0  0  0  0  0  0  0  0
   -6.2764   -3.5935   -1.0975 C   0  0  1  0  0  0  0  0  0  0  0  0
   -4.4592   -2.5384    1.2838 C   0  0  0  0  0  0  0  0  0  0  0  0
   -3.5930   -0.1150    4.0009 N   0  0  0  0  0  0  0  0  0  0  0  0
   -4.8999   -3.4912    1.8976 O   0  0  0  0  0  0  0  0  0  0  0  0
   -6.5505   -2.4782   -1.9592 O   0  0  0  0  0  0  0  0  0  0  0  0
   -4.3355   -2.4999   -0.0625 O   0  0  0  0  0  0  0  0  0  0  0  0
   -2.7721    1.8428    1.3661 H   0  0  0  0  0  0  0  0  0  0  0  0
   -8.8109   -4.1322   -2.1867 H   0  0  0  0  0  0  0  0  0  0  0  0
   -8.0909   -4.8969   -3.6164 H   0  0  0  0  0  0  0  0  0  0  0  0
   -3.5273   -0.2035    0.1074 H   0  0  0  0  0  0  0  0  0  0  0  0
   -5.9863   -5.2964   -2.4302 H   0  0  0  0  0  0  0  0  0  0  0  0
   -7.1552   -5.6115   -1.1372 H   0  0  0  0  0  0  0  0  0  0  0  0
   -2.8494    1.8040    3.8586 H   0  0  0  0  0  0  0  0  0  0  0  0
   -8.0213   -2.1504   -3.3578 H   0  0  0  0  0  0  0  0  0  0  0  0
   -6.5908   -3.0069   -3.9745 H   0  0  0  0  0  0  0  0  0  0  0  0
   -4.3379   -2.0441    3.9026 H   0  0  0  0  0  0  0  0  0  0  0  0
   -4.2081   -3.6590   -1.7125 H   0  0  0  0  0  0  0  0  0  0  0  0
   -4.5624   -4.5588   -0.2014 H   0  0  0  0  0  0  0  0  0  0  0  0
   -6.8236   -3.4438   -0.1571 H   0  0  0  0  0  0  0  0  0  0  0  0
  1  5  2  0
  2 17  1  0
  2  4  1  0
  3  1  1  0
  3  9  2  0
  4 21  1  0
  4 10  1  0
  5 22  1  0
  5 12  1  0
  6  2  1  0
  6 14  1  0
  7 25  1  0
  7 12  2  0
  8 27  1  0
  8 15  1  0
  9  7  1  0
 10  8  1  0
 10 28  1  1
 11 13  2  0
 11  9  1  0
 14 10  1  0
 15 11  1  0
 16  1  1  0
 18  2  1  0
 19  3  1  0
 20  4  1  0
 23  6  1  0
 24  6  1  0
 26  8  1  0
M  END
>  <HBA>  (908) 
4

>  <HBD>  (908) 
0

>  <TPSA>  (908) 
48.42

>  <cid>  (908) 
6260

>  <dipole>  (908) 
3.87

>  <excitation_energy_1>  (908) 
4.282

>  <excitation_energy_2>  (908) 
4.632

>  <excitation_energy_3>  (908) 
4.925

>  <excitation_energy_4>  (908) 
4.965

>  <homo_energy>  (908) 
-6.743

>  <homo_lumo_gap>  (908) 
5.287

>  <logP>  (908) 
1.417

>  <lumo_energy>  (908) 
-1.456

>  <melting_point>  (908) 
55.74

>  <molecular_refractivity>  (908) 
53.72

>  <oscillator_strength_1>  (908) 
0.0008

>  <oscillator_strength_2>  (908) 
0.0106

>  <oscillator_strength_3>  (908) 
0.003

>  <oscillator_strength_4>  (908) 
0.0005

>  <open_babel_can_smiles>  (908) 
O=C(c1cccnc1)OC[C@@H]1CCCO1

>  <mulliken_charges>  (908) 
28
1   -0.148005
2   -0.303074
3   -0.122211
4   -0.321648
5   0.050311
6   -0.010299
7   0.024951
8   -0.051423
9   0.024353
10   0.148619
11   0.600254
12   -0.414056
13   -0.492011
14   -0.501122
15   -0.476333
16   0.144755
17   0.153356
18   0.147244
19   0.175537
20   0.142769
21   0.159671
22   0.149125
23   0.145265
24   0.125445
25   0.175226
26   0.153738
27   0.168812
28   0.150754

>  <lowdin_charges>  (908) 
28
1   -0.176289
2   -0.292735
3   -0.10778
4   -0.294026
5   -0.074674
6   -0.130618
7   -0.065495
8   -0.143974
9   -0.063216
10   -0.009018
11   0.201735
12   -0.145361
13   -0.271986
14   -0.287127
15   -0.18368
16   0.168348
17   0.151595
18   0.155179
19   0.178155
20   0.147612
21   0.161676
22   0.16108
23   0.148014
24   0.129136
25   0.175947
26   0.157669
27   0.16307
28   0.146764

$$$$
PCCDB-ID:  6261
     RDKit          3D

 15 14  0  0  0  0  0  0  0  0999 V2000
    2.1399   -1.7738   -0.6787 C   0  0  0  0  0  0  0  0  0  0  0  0
    2.7108    0.0780    0.9281 C   0  0  0  0  0  0  0  0  0  0  0  0
    3.9406   -0.0862    0.6790 N   0  0  0  0  0  0  0  0  0  0  0  0
    2.0817    0.9439    1.8474 N   0  0  0  0  0  0  0  0  0  0  0  0
    0.4396   -0.4370    0.4641 N   0  0  0  0  0  2  0  0  0  0  0  0
    1.7466   -0.7140    0.2479 N   0  0  0  0  0  0  0  0  0  0  0  0
    2.6924    2.0309    2.4551 N   0  0  0  0  0  0  0  0  0  0  0  0
   -0.3366   -1.1397   -0.1598 O   0  0  0  0  0  1  0  0  0  0  0  0
    3.9172    2.1026    2.4347 O   0  0  0  0  0  0  0  0  0  0  0  0
    1.9185    2.8120    2.9906 O   0  0  0  0  0  0  0  0  0  0  0  0
    1.6926   -2.7163   -0.3529 H   0  0  0  0  0  0  0  0  0  0  0  0
    3.2254   -1.8281   -0.6742 H   0  0  0  0  0  0  0  0  0  0  0  0
    1.7661   -1.5374   -1.6785 H   0  0  0  0  0  0  0  0  0  0  0  0
    4.5158    0.5354    1.2449 H   0  0  0  0  0  0  0  0  0  0  0  0
    1.0703    1.0341    1.8289 H   0  0  0  0  0  0  0  0  0  0  0  0
  1 12  1  0
  1 11  1  0
  1  6  1  0
  2  4  1  0
  3  2  2  0
  3 14  1  0
  4  7  1  0
  6  5  1  0
  6  2  1  0
  7 10  1  0
  8  5  1  0
  9  7  2  0
 13  1  1  0
 15  4  1  0
M  CHG  2   7   1  10  -1
M  RAD  2   5   2   8   2
M  END
>  <HBA>  (909) 
5

>  <HBD>  (909) 
1

>  <TPSA>  (909) 
116.87

>  <cid>  (909) 
6261

>  <dipole>  (909) 
2.05

>  <excitation_energy_1>  (909) 
3.133

>  <excitation_energy_2>  (909) 
4.147

>  <excitation_energy_3>  (909) 
4.548

>  <excitation_energy_4>  (909) 
4.747

>  <homo_energy>  (909) 
-7.276

>  <homo_lumo_gap>  (909) 
4.827

>  <logP>  (909) 
0.33

>  <lumo_energy>  (909) 
-2.449

>  <melting_point>  (909) 
100.65

>  <molecular_refractivity>  (909) 
33.86

>  <oscillator_strength_1>  (909) 
0.001

>  <oscillator_strength_2>  (909) 
0.0014

>  <oscillator_strength_3>  (909) 
0.0011

>  <oscillator_strength_4>  (909) 
0.0132

>  <open_babel_can_smiles>  (909) 
[O][N]N(C(=N)NN(=O)=O)C

>  <mulliken_charges>  (909) 
15
1   -0.328894
2   0.742408
3   -0.623991
4   -0.518993
5   0.166386
6   -0.311907
7   0.659688
8   -0.346631
9   -0.404273
10   -0.383801
11   0.192539
12   0.226216
13   0.192843
14   0.347764
15   0.390647

>  <lowdin_charges>  (909) 
15
1   -0.362952
2   0.133282
3   -0.388322
4   -0.222018
5   0.053967
6   -0.020196
7   0.349764
8   -0.213983
9   -0.242989
10   -0.236563
11   0.176225
12   0.19641
13   0.175564
14   0.28794
15   0.313871

$$$$
PCCDB-ID:  6263
     RDKit          3D

 16 15  0  0  0  0  0  0  0  0999 V2000
    2.6169    1.5442    0.1321 C   0  0  0  0  0  0  0  0  0  0  0  0
    2.2241   -3.8731    0.1956 C   0  0  0  0  0  0  0  0  0  0  0  0
    2.7224    0.1863   -0.5563 C   0  0  0  0  0  0  0  0  0  0  0  0
    2.5231   -2.5608   -0.5241 C   0  0  0  0  0  0  0  0  0  0  0  0
    2.8973   -1.1831    1.7864 O   0  0  0  0  0  0  0  0  0  0  0  0
    2.0310   -1.1317    0.5426 S   0  0  0  0  0  0  0  0  0  0  0  0
    3.0808    2.3206   -0.4855 H   0  0  0  0  0  0  0  0  0  0  0  0
    3.1309    1.5168    1.0975 H   0  0  0  0  0  0  0  0  0  0  0  0
    1.5725    1.8261    0.3061 H   0  0  0  0  0  0  0  0  0  0  0  0
    2.5706   -4.7221   -0.4032 H   0  0  0  0  0  0  0  0  0  0  0  0
    1.1502   -3.9974    0.3739 H   0  0  0  0  0  0  0  0  0  0  0  0
    2.7376   -3.8992    1.1616 H   0  0  0  0  0  0  0  0  0  0  0  0
    3.7676   -0.0752   -0.7576 H   0  0  0  0  0  0  0  0  0  0  0  0
    2.1576    0.1527   -1.4958 H   0  0  0  0  0  0  0  0  0  0  0  0
    1.9676   -2.4670   -1.4651 H   0  0  0  0  0  0  0  0  0  0  0  0
    3.5947   -2.4578   -0.7295 H   0  0  0  0  0  0  0  0  0  0  0  0
  1  9  1  0
  1  8  1  0
  2 11  1  0
  2 12  1  0
  3  1  1  0
  3  6  1  0
  4  2  1  0
  4  6  1  0
  6  5  2  0
  7  1  1  0
 10  2  1  0
 13  3  1  0
 14  3  1  0
 15  4  1  0
 16  4  1  0
M  END
>  <HBA>  (910) 
1

>  <HBD>  (910) 
0

>  <TPSA>  (910) 
36.28

>  <cid>  (910) 
6263

>  <dipole>  (910) 
3.75

>  <excitation_energy_1>  (910) 
5.477

>  <excitation_energy_2>  (910) 
5.487

>  <excitation_energy_3>  (910) 
5.702

>  <excitation_energy_4>  (910) 
6.173

>  <homo_energy>  (910) 
-5.902

>  <homo_lumo_gap>  (910) 
6.993

>  <logP>  (910) 
1.641

>  <lumo_energy>  (910) 
1.091

>  <melting_point>  (910) 
-5.93

>  <molecular_refractivity>  (910) 
29.62

>  <oscillator_strength_1>  (910) 
0.0487

>  <oscillator_strength_2>  (910) 
0.0166

>  <oscillator_strength_3>  (910) 
0.0207

>  <oscillator_strength_4>  (910) 
0.089

>  <open_babel_can_smiles>  (910) 
CCS(=O)CC

>  <mulliken_charges>  (910) 
16
1   -0.460684
2   -0.460536
3   -0.443742
4   -0.443448
5   -0.641934
6   0.756804
7   0.157871
8   0.188876
9   0.159382
10   0.157786
11   0.159264
12   0.188964
13   0.178655
14   0.162133
15   0.161954
16   0.178655

>  <lowdin_charges>  (910) 
16
1   -0.448145
2   -0.447281
3   -0.418923
4   -0.418289
5   -0.68315
6   0.792725
7   0.160641
8   0.17161
9   0.155604
10   0.160213
11   0.155047
12   0.171648
13   0.161836
14   0.162614
15   0.162503
16   0.161347

$$$$
PCCDB-ID:  6267
     RDKit          3D

 17 16  0  0  1  0  0  0  0  0999 V2000
    1.0609    0.0210    0.0349 C   0  0  0  0  0  0  0  0  0  0  0  0
    0.4020   -1.0361   -0.8926 C   0  0  1  0  0  0  0  0  0  0  0  0
    2.4982    0.3998   -0.3333 C   0  0  0  0  0  0  0  0  0  0  0  0
    0.7357   -2.4813   -0.4612 C   0  0  0  0  0  0  0  0  0  0  0  0
   -1.0639   -0.9381   -1.0142 N   0  0  0  0  0  0  0  0  0  0  0  0
    2.9047    1.5740   -0.6156 N   0  0  0  0  0  0  0  0  0  0  0  0
    3.3870   -0.6092   -0.3520 O   0  0  0  0  0  0  0  0  0  0  0  0
    1.8096   -2.8033    0.0153 O   0  0  0  0  0  0  0  0  0  0  0  0
   -0.2444   -3.3525   -0.6644 O   0  0  0  0  0  0  0  0  0  0  0  0
    1.0353   -0.3399    1.0721 H   0  0  0  0  0  0  0  0  0  0  0  0
    0.4519    0.9289   -0.0097 H   0  0  0  0  0  0  0  0  0  0  0  0
    0.8115   -0.9261   -1.9052 H   0  0  0  0  0  0  0  0  0  0  0  0
   -1.4832   -0.6472   -0.1317 H   0  0  0  0  0  0  0  0  0  0  0  0
   -1.3339   -0.2542   -1.7165 H   0  0  0  0  0  0  0  0  0  0  0  0
    2.1301    2.2365   -0.5631 H   0  0  0  0  0  0  0  0  0  0  0  0
    2.9494   -1.4609   -0.1200 H   0  0  0  0  0  0  0  0  0  0  0  0
   -1.0013   -2.8048   -1.0048 H   0  0  0  0  0  0  0  0  0  0  0  0
  1 10  1  0
  2 12  1  6
  2  4  1  0
  2  1  1  0
  3  1  1  0
  4  8  2  0
  5  2  1  0
  5 13  1  0
  6 15  1  0
  6  3  2  0
  7  3  1  0
  7 16  1  0
  9  4  1  0
 11  1  1  0
 14  5  1  0
 17  9  1  0
M  END
>  <HBA>  (911) 
5

>  <HBD>  (911) 
3

>  <TPSA>  (911) 
106.41

>  <cid>  (911) 
6267

>  <dipole>  (911) 
7.31

>  <excitation_energy_1>  (911) 
5.344

>  <excitation_energy_2>  (911) 
5.413

>  <excitation_energy_3>  (911) 
5.745

>  <excitation_energy_4>  (911) 
5.997

>  <homo_energy>  (911) 
-6.904

>  <homo_lumo_gap>  (911) 
6.37

>  <logP>  (911) 
-0.326

>  <lumo_energy>  (911) 
-0.533

>  <melting_point>  (911) 
181.81

>  <molecular_refractivity>  (911) 
28.73

>  <oscillator_strength_1>  (911) 
0.0102

>  <oscillator_strength_2>  (911) 
0.0059

>  <oscillator_strength_3>  (911) 
0.0057

>  <oscillator_strength_4>  (911) 
0.001

>  <open_babel_can_smiles>  (911) 
OC(=N)C[C@@H](C(=O)O)N

>  <mulliken_charges>  (911) 
17
1   -0.37908
2   -0.095528
3   0.477748
4   0.635506
5   -0.774148
6   -0.585556
7   -0.599387
8   -0.480646
9   -0.558761
10   0.181554
11   0.148187
12   0.206171
13   0.330558
14   0.335873
15   0.27117
16   0.445033
17   0.441306

>  <lowdin_charges>  (911) 
17
1   -0.321019
2   -0.110398
3   0.119502
4   0.187614
5   -0.540826
6   -0.408709
7   -0.371883
8   -0.262943
9   -0.324906
10   0.16857
11   0.157541
12   0.180126
13   0.272745
14   0.280184
15   0.248619
16   0.359234
17   0.366549

$$$$
PCCDB-ID:  6268
     RDKit          3D

 15 14  0  0  1  0  0  0  0  0999 V2000
   -0.0051   -0.8332   -0.4421 C   0  0  0  0  0  0  0  0  0  0  0  0
   -0.0577    0.0909   -1.6753 C   0  0  1  0  0  0  0  0  0  0  0  0
   -1.1208   -1.8833   -0.4270 C   0  0  0  0  0  0  0  0  0  0  0  0
    0.2027   -0.6806   -2.9863 C   0  0  0  0  0  0  0  0  0  0  0  0
   -2.1474   -1.7307    0.1945 O   0  0  0  0  0  0  0  0  0  0  0  0
   -0.9111   -2.9841   -1.1725 O   0  0  0  0  0  0  0  0  0  0  0  0
    0.7900   -1.7451   -2.9901 O   0  0  0  0  0  0  0  0  0  0  0  0
   -0.1795   -0.0986   -4.1227 O   0  0  0  0  0  0  0  0  0  0  0  0
   -1.5427    1.1938   -1.7370 S   0  0  0  0  0  0  0  0  0  0  0  0
   -0.1143   -0.2262    0.4578 H   0  0  0  0  0  0  0  0  0  0  0  0
    0.9760   -1.3186   -0.4241 H   0  0  0  0  0  0  0  0  0  0  0  0
    0.7695    0.8080   -1.5917 H   0  0  0  0  0  0  0  0  0  0  0  0
   -0.1027   -2.8700   -1.7160 H   0  0  0  0  0  0  0  0  0  0  0  0
   -0.7393    0.6782   -3.9076 H   0  0  0  0  0  0  0  0  0  0  0  0
   -2.4640    0.2307   -1.5161 H   0  0  0  0  0  0  0  0  0  0  0  0
  1  3  1  0
  1 11  1  0
  1 10  1  0
  2 12  1  1
  2  1  1  0
  3  5  2  0
  4  2  1  0
  6  3  1  0
  7  4  2  0
  8 14  1  0
  8  4  1  0
  9  2  1  0
  9 15  1  0
 13  6  1  0
M  END
>  <HBA>  (912) 
5

>  <HBD>  (912) 
3

>  <TPSA>  (912) 
113.4

>  <cid>  (912) 
6268

>  <dipole>  (912) 
3.83

>  <excitation_energy_1>  (912) 
5.164

>  <excitation_energy_2>  (912) 
5.411

>  <excitation_energy_3>  (912) 
5.664

>  <excitation_energy_4>  (912) 
5.751

>  <homo_energy>  (912) 
-7.546

>  <homo_lumo_gap>  (912) 
6.504

>  <logP>  (912) 
-0.156

>  <lumo_energy>  (912) 
-1.042

>  <melting_point>  (912) 
149.34

>  <molecular_refractivity>  (912) 
32.81

>  <oscillator_strength_1>  (912) 
0.0025

>  <oscillator_strength_2>  (912) 
0.0005

>  <oscillator_strength_3>  (912) 
0.0012

>  <oscillator_strength_4>  (912) 
0.0027

>  <open_babel_can_smiles>  (912) 
OC(=O)C[C@@H](C(=O)O)S

>  <mulliken_charges>  (912) 
15
1   -0.362679
2   -0.392842
3   0.572503
4   0.633694
5   -0.444359
6   -0.568902
7   -0.471393
8   -0.543463
9   -0.074283
10   0.200831
11   0.188791
12   0.228276
13   0.443786
14   0.43426
15   0.155779

>  <lowdin_charges>  (912) 
15
1   -0.314128
2   -0.26434
3   0.183016
4   0.189866
5   -0.249617
6   -0.350673
7   -0.262504
8   -0.317714
9   -0.05241
10   0.186775
11   0.176329
12   0.198075
13   0.364753
14   0.36385
15   0.148722

$$$$
PCCDB-ID:  6269
     RDKit          3D

 20 20  0  0  0  0  0  0  0  0999 V2000
    0.9632   -0.1065   -0.0392 C   0  0  0  0  0  0  0  0  0  0  0  0
    3.1859   -1.1103   -0.7171 C   0  0  0  0  0  0  0  0  0  0  0  0
    3.1945    0.9501    0.5315 C   0  0  0  0  0  0  0  0  0  0  0  0
    4.5786   -1.0923   -0.7746 C   0  0  0  0  0  0  0  0  0  0  0  0
    4.5853    0.9844    0.4859 C   0  0  0  0  0  0  0  0  0  0  0  0
    2.4729   -0.0912   -0.0712 C   0  0  0  0  0  0  0  0  0  0  0  0
    5.2676   -0.0382   -0.1756 C   0  0  0  0  0  0  0  0  0  0  0  0
    7.3909    1.1519   -1.4210 N   0  0  0  0  0  0  0  0  0  0  0  0
    7.5490    0.5699    1.0264 O   0  0  0  0  0  0  0  0  0  0  0  0
    7.5045   -1.3265   -0.7008 O   0  0  0  0  0  0  0  0  0  0  0  0
    7.0568   -0.0126   -0.2254 S   0  0  0  0  0  0  0  0  0  0  0  0
    0.5743   -1.1281    0.0269 H   0  0  0  0  0  0  0  0  0  0  0  0
    0.5460    0.3414   -0.9510 H   0  0  0  0  0  0  0  0  0  0  0  0
    0.5739    0.4618    0.8113 H   0  0  0  0  0  0  0  0  0  0  0  0
    2.6453   -1.9345   -1.1762 H   0  0  0  0  0  0  0  0  0  0  0  0
    2.6591    1.7413    1.0507 H   0  0  0  0  0  0  0  0  0  0  0  0
    5.1301   -1.8899   -1.2606 H   0  0  0  0  0  0  0  0  0  0  0  0
    5.1370    1.7841    0.9690 H   0  0  0  0  0  0  0  0  0  0  0  0
    8.1515    1.7395   -1.0830 H   0  0  0  0  0  0  0  0  0  0  0  0
    7.6546    0.6904   -2.2901 H   0  0  0  0  0  0  0  0  0  0  0  0
  1 12  1  0
  1 14  1  0
  2  6  2  0
  3 16  1  0
  4  2  1  0
  4  7  2  0
  5  3  2  0
  5 18  1  0
  6  1  1  0
  6  3  1  0
  7  5  1  0
  8 19  1  0
  8 11  1  0
 10 11  2  0
 11  7  1  0
 11  9  2  0
 13  1  1  0
 15  2  1  0
 17  4  1  0
 20  8  1  0
M  END
>  <HBA>  (913) 
3

>  <HBD>  (913) 
1

>  <TPSA>  (913) 
68.54

>  <cid>  (913) 
6269

>  <dipole>  (913) 
4.18

>  <excitation_energy_1>  (913) 
5.164

>  <excitation_energy_2>  (913) 
5.512

>  <excitation_energy_3>  (913) 
6.177

>  <excitation_energy_4>  (913) 
6.239

>  <homo_energy>  (913) 
-6.983

>  <homo_lumo_gap>  (913) 
6.055

>  <logP>  (913) 
2.424

>  <lumo_energy>  (913) 
-0.928

>  <melting_point>  (913) 
96.55

>  <molecular_refractivity>  (913) 
42.4

>  <oscillator_strength_1>  (913) 
0.0036

>  <oscillator_strength_2>  (913) 
0.1757

>  <oscillator_strength_3>  (913) 
0.0022

>  <oscillator_strength_4>  (913) 
0.0048

>  <open_babel_can_smiles>  (913) 
Cc1ccc(cc1)S(=O)(=O)N

>  <mulliken_charges>  (913) 
20
1   -0.531076
2   -0.17419
3   -0.177207
4   -0.141685
5   -0.126451
6   0.181637
7   -0.143212
8   -0.815641
9   -0.542898
10   -0.527317
11   1.164585
12   0.165278
13   0.173484
14   0.163326
15   0.136165
16   0.136606
17   0.178687
18   0.172324
19   0.356831
20   0.350754

>  <lowdin_charges>  (913) 
20
1   -0.44276
2   -0.162747
3   -0.162195
4   -0.138719
5   -0.129132
6   0.018997
7   -0.187672
8   -0.696323
9   -0.593349
10   -0.593569
11   1.307085
12   0.16225
13   0.167559
14   0.162519
15   0.162724
16   0.163036
17   0.184068
18   0.181412
19   0.300601
20   0.296214

$$$$
PCCDB-ID:  6270
     RDKit          3D

 22 22  0  0  0  0  0  0  0  0999 V2000
    4.6889    0.7181    0.0569 C   0  0  0  0  0  0  0  0  0  0  0  0
    3.8584    1.8794    0.6000 C   0  0  0  0  0  0  0  0  0  0  0  0
    1.9375    3.8275    1.8546 C   0  0  0  0  0  0  0  0  0  0  0  0
    0.4645    2.0241    2.4699 C   0  0  0  0  0  0  0  0  0  0  0  0
    1.0622    4.7425    2.4249 C   0  0  0  0  0  0  0  0  0  0  0  0
   -0.4152    2.9263    3.0434 C   0  0  0  0  0  0  0  0  0  0  0  0
    1.6596    2.4503    1.8627 C   0  0  0  0  0  0  0  0  0  0  0  0
   -0.1317    4.3073    3.0303 C   0  0  0  0  0  0  0  0  0  0  0  0
    2.5572    1.4243    1.2623 C   0  0  0  0  0  0  0  0  0  0  0  0
   -0.9833    5.2103    3.6500 N   0  0  0  0  0  0  0  0  0  0  0  0
    2.2625    0.2355    1.2935 O   0  0  0  0  0  0  0  0  0  0  0  0
    5.6051    1.0891   -0.4150 H   0  0  0  0  0  0  0  0  0  0  0  0
    4.1234    0.1452   -0.6836 H   0  0  0  0  0  0  0  0  0  0  0  0
    4.9665    0.0267    0.8579 H   0  0  0  0  0  0  0  0  0  0  0  0
    3.6084    2.5852   -0.2053 H   0  0  0  0  0  0  0  0  0  0  0  0
    4.4381    2.4617    1.3302 H   0  0  0  0  0  0  0  0  0  0  0  0
    2.8477    4.2001    1.3947 H   0  0  0  0  0  0  0  0  0  0  0  0
    0.2477    0.9606    2.4749 H   0  0  0  0  0  0  0  0  0  0  0  0
    1.2989    5.8040    2.4105 H   0  0  0  0  0  0  0  0  0  0  0  0
   -1.3320    2.5741    3.5114 H   0  0  0  0  0  0  0  0  0  0  0  0
   -0.9152    6.1725    3.3455 H   0  0  0  0  0  0  0  0  0  0  0  0
   -1.9401    4.9074    3.7769 H   0  0  0  0  0  0  0  0  0  0  0  0
  1  2  1  0
  1 14  1  0
  2  9  1  0
  2 16  1  0
  3  7  2  0
  3  5  1  0
  4 18  1  0
  4  6  2  0
  5  8  2  0
  6 20  1  0
  7  4  1  0
  8  6  1  0
  8 10  1  0
  9 11  2  0
  9  7  1  0
 10 22  1  0
 12  1  1  0
 13  1  1  0
 15  2  1  0
 17  3  1  0
 19  5  1  0
 21 10  1  0
M  END
>  <HBA>  (914) 
2

>  <HBD>  (914) 
1

>  <TPSA>  (914) 
43.09

>  <cid>  (914) 
6270

>  <dipole>  (914) 
4.7

>  <excitation_energy_1>  (914) 
3.882

>  <excitation_energy_2>  (914) 
4.458

>  <excitation_energy_3>  (914) 
4.653

>  <excitation_energy_4>  (914) 
4.932

>  <homo_energy>  (914) 
-5.75

>  <homo_lumo_gap>  (914) 
4.77

>  <logP>  (914) 
2.443

>  <lumo_energy>  (914) 
-0.98

>  <melting_point>  (914) 
87.71

>  <molecular_refractivity>  (914) 
45.85

>  <oscillator_strength_1>  (914) 
0.0

>  <oscillator_strength_2>  (914) 
0.4082

>  <oscillator_strength_3>  (914) 
0.0047

>  <oscillator_strength_4>  (914) 
0.0029

>  <open_babel_can_smiles>  (914) 
CCC(=O)c1ccc(cc1)N

>  <mulliken_charges>  (914) 
22
1   -0.43026
2   -0.360607
3   -0.191378
4   -0.165947
5   -0.179576
6   -0.176309
7   0.077163
8   0.334141
9   0.401145
10   -0.790375
11   -0.479163
12   0.133596
13   0.16019
14   0.159161
15   0.157334
16   0.157339
17   0.132842
18   0.160747
19   0.12071
20   0.123676
21   0.327295
22   0.328279

>  <lowdin_charges>  (914) 
22
1   -0.44133
2   -0.311129
3   -0.138362
4   -0.114387
5   -0.203445
6   -0.199466
7   -0.07944
8   0.075463
9   0.153961
10   -0.470992
11   -0.259038
12   0.147139
13   0.159892
14   0.158921
15   0.159565
16   0.159828
17   0.161234
18   0.17456
19   0.152649
20   0.155489
21   0.279227
22   0.279662

$$$$
PCCDB-ID:  6271
     RDKit          3D

 21 21  0  0  0  0  0  0  0  0999 V2000
    3.0557   -0.8069    0.5040 C   0  0  0  0  0  0  0  0  0  0  0  0
    2.0304    0.3185    0.6296 C   0  0  0  0  0  0  0  0  0  0  0  0
    2.3224    4.1706    0.3262 C   0  0  0  0  0  0  0  0  0  0  0  0
    0.3734    2.8272    0.7929 C   0  0  0  0  0  0  0  0  0  0  0  0
    1.5549    5.3242    0.4098 C   0  0  0  0  0  0  0  0  0  0  0  0
   -0.4068    3.9738    0.8789 C   0  0  0  0  0  0  0  0  0  0  0  0
    1.7495    2.9027    0.5160 C   0  0  0  0  0  0  0  0  0  0  0  0
    0.1838    5.2289    0.6875 C   0  0  0  0  0  0  0  0  0  0  0  0
    2.6361    1.7043    0.4129 C   0  0  0  0  0  0  0  0  0  0  0  0
   -0.6232    6.3221    0.7840 O   0  0  0  0  0  0  0  0  0  0  0  0
    3.8270    1.8293    0.1600 O   0  0  0  0  0  0  0  0  0  0  0  0
    2.5781   -1.7800    0.6601 H   0  0  0  0  0  0  0  0  0  0  0  0
    3.8565   -0.6907    1.2400 H   0  0  0  0  0  0  0  0  0  0  0  0
    3.5221   -0.8029   -0.4854 H   0  0  0  0  0  0  0  0  0  0  0  0
    1.5521    0.2991    1.6193 H   0  0  0  0  0  0  0  0  0  0  0  0
    1.2126    0.1805   -0.0923 H   0  0  0  0  0  0  0  0  0  0  0  0
    3.3848    4.2247    0.1119 H   0  0  0  0  0  0  0  0  0  0  0  0
   -0.1028    1.8635    0.9437 H   0  0  0  0  0  0  0  0  0  0  0  0
    2.0122    6.3009    0.2604 H   0  0  0  0  0  0  0  0  0  0  0  0
   -1.4695    3.9207    1.0922 H   0  0  0  0  0  0  0  0  0  0  0  0
   -0.0967    7.1215    0.6255 H   0  0  0  0  0  0  0  0  0  0  0  0
  1  2  1  0
  1 12  1  0
  1 13  1  0
  2 15  1  0
  3  5  2  0
  3  7  1  0
  4  6  1  0
  4 18  1  0
  5  8  1  0
  6 20  1  0
  7  4  2  0
  8 10  1  0
  8  6  2  0
  9  7  1  0
  9  2  1  0
 11  9  2  0
 14  1  1  0
 16  2  1  0
 17  3  1  0
 19  5  1  0
 21 10  1  0
M  END
>  <HBA>  (915) 
2

>  <HBD>  (915) 
1

>  <TPSA>  (915) 
37.3

>  <cid>  (915) 
6271

>  <dipole>  (915) 
2.46

>  <excitation_energy_1>  (915) 
3.859

>  <excitation_energy_2>  (915) 
4.77

>  <excitation_energy_3>  (915) 
4.837

>  <excitation_energy_4>  (915) 
5.344

>  <homo_energy>  (915) 
-6.327

>  <homo_lumo_gap>  (915) 
5.121

>  <logP>  (915) 
1.985

>  <lumo_energy>  (915) 
-1.205

>  <melting_point>  (915) 
78.52

>  <molecular_refractivity>  (915) 
43.47

>  <oscillator_strength_1>  (915) 
0.0

>  <oscillator_strength_2>  (915) 
0.2992

>  <oscillator_strength_3>  (915) 
0.0282

>  <oscillator_strength_4>  (915) 
0.0001

>  <open_babel_can_smiles>  (915) 
CCC(=O)c1ccc(cc1)O

>  <mulliken_charges>  (915) 
21
1   -0.431081
2   -0.362048
3   -0.163292
4   -0.188881
5   -0.196274
6   -0.164109
7   0.077156
8   0.361464
9   0.405235
10   -0.633462
11   -0.473138
12   0.136369
13   0.160404
14   0.161069
15   0.160114
16   0.160233
17   0.166179
18   0.138546
19   0.127295
20   0.145861
21   0.412358

>  <lowdin_charges>  (915) 
21
1   -0.43863
2   -0.30785
3   -0.113292
4   -0.137753
5   -0.211896
6   -0.185378
7   -0.070861
8   0.115124
9   0.154738
10   -0.365884
11   -0.252169
12   0.148104
13   0.159315
14   0.158627
15   0.159714
16   0.160752
17   0.176844
18   0.163739
19   0.156503
20   0.168544
21   0.361709

$$$$
PCCDB-ID:  6274
     RDKit          3D

 20 20  0  0  1  0  0  0  0  0999 V2000
    0.9194    0.2553   -0.4442 C   0  0  0  0  0  0  0  0  0  0  0  0
   -0.8687    1.5610    0.9799 C   0  0  0  0  0  0  0  0  0  0  0  0
    0.1588    3.4238    1.1876 C   0  0  0  0  0  0  0  0  0  0  0  0
    0.3269    1.3987    0.3164 C   0  0  0  0  0  0  0  0  0  0  0  0
    2.3992   -0.0341   -0.0688 C   0  0  1  0  0  0  0  0  0  0  0  0
    2.8499   -1.3559   -0.7156 C   0  0  0  0  0  0  0  0  0  0  0  0
    3.2457    1.0903   -0.4780 N   0  0  0  0  0  0  0  0  0  0  0  0
   -0.9675    2.8248    1.5175 N   0  0  0  0  0  0  0  0  0  0  0  0
    0.9722    2.6122    0.4532 N   0  0  0  0  0  0  0  0  0  0  0  0
    3.5847   -1.4061   -1.6711 O   0  0  0  0  0  0  0  0  0  0  0  0
    2.3397   -2.4935   -0.1792 O   0  0  0  0  0  0  0  0  0  0  0  0
    0.8885    0.4346   -1.5297 H   0  0  0  0  0  0  0  0  0  0  0  0
    0.3049   -0.6354   -0.2682 H   0  0  0  0  0  0  0  0  0  0  0  0
   -1.6669    0.8382    1.0935 H   0  0  0  0  0  0  0  0  0  0  0  0
    0.4353    4.4359    1.4518 H   0  0  0  0  0  0  0  0  0  0  0  0
    2.4656   -0.1302    1.0232 H   0  0  0  0  0  0  0  0  0  0  0  0
    4.1649    0.9911   -0.0479 H   0  0  0  0  0  0  0  0  0  0  0  0
    3.4177    0.9926   -1.4807 H   0  0  0  0  0  0  0  0  0  0  0  0
    1.9260    2.7535    0.1327 H   0  0  0  0  0  0  0  0  0  0  0  0
    1.7931   -2.2859    0.5976 H   0  0  0  0  0  0  0  0  0  0  0  0
  1 13  1  0
  1  5  1  0
  1  4  1  0
  2 14  1  0
  2  8  1  0
  3 15  1  0
  3  8  2  0
  4  9  1  0
  4  2  2  0
  5 16  1  1
  6 11  1  0
  6  5  1  0
  7  5  1  0
  7 17  1  0
  9  3  1  0
 10  6  2  0
 11 20  1  0
 12  1  1  0
 18  7  1  0
 19  9  1  0
M  END
>  <HBA>  (916) 
4

>  <HBD>  (916) 
3

>  <TPSA>  (916) 
92.0

>  <cid>  (916) 
6274

>  <dipole>  (916) 
2.37

>  <excitation_energy_1>  (916) 
4.804

>  <excitation_energy_2>  (916) 
4.947

>  <excitation_energy_3>  (916) 
5.448

>  <excitation_energy_4>  (916) 
5.67

>  <homo_energy>  (916) 
-5.94

>  <homo_lumo_gap>  (916) 
5.649

>  <logP>  (916) 
0.064

>  <lumo_energy>  (916) 
-0.291

>  <melting_point>  (916) 
200.01

>  <molecular_refractivity>  (916) 
37.65

>  <oscillator_strength_1>  (916) 
0.0057

>  <oscillator_strength_2>  (916) 
0.0298

>  <oscillator_strength_3>  (916) 
0.0056

>  <oscillator_strength_4>  (916) 
0.0013

>  <open_babel_can_smiles>  (916) 
N[C@H](C(=O)O)Cc1cnc[nH]1

>  <mulliken_charges>  (916) 
20
1   -0.349144
2   -0.087931
3   0.204054
4   0.320127
5   -0.115561
6   0.592869
7   -0.720193
8   -0.42817
9   -0.592236
10   -0.440063
11   -0.559839
12   0.172043
13   0.153081
14   0.124419
15   0.150455
16   0.157399
17   0.318813
18   0.326566
19   0.356692
20   0.41662

>  <lowdin_charges>  (916) 
20
1   -0.271646
2   -0.177174
3   -0.09658
4   -0.025085
5   -0.110369
6   0.173415
7   -0.52908
8   -0.19112
9   -0.181345
10   -0.238103
11   -0.345773
12   0.16099
13   0.159563
14   0.157378
15   0.16375
16   0.15364
17   0.26784
18   0.269191
19   0.297496
20   0.363013

$$$$
PCCDB-ID:  6276
     RDKit          3D

 18 17  0  0  0  0  0  0  0  0999 V2000
    0.9764   -0.2434   -0.3652 C   0  0  0  0  0  0  0  0  0  0  0  0
    2.5076   -0.2899   -0.3869 C   0  0  0  0  0  0  0  0  0  0  0  0
    3.1586    0.9742    0.1899 C   0  0  0  0  0  0  0  0  0  0  0  0
    4.6908    0.9254    0.1780 C   0  0  0  0  0  0  0  0  0  0  0  0
    5.3336    2.1878    0.7379 C   0  0  0  0  0  0  0  0  0  0  0  0
    6.7479    2.0240    0.6835 O   0  0  0  0  0  0  0  0  0  0  0  0
    0.5421   -1.1525   -0.7965 H   0  0  0  0  0  0  0  0  0  0  0  0
    0.5975    0.6114   -0.9392 H   0  0  0  0  0  0  0  0  0  0  0  0
    0.5973   -0.1467    0.6597 H   0  0  0  0  0  0  0  0  0  0  0  0
    2.8562   -0.4368   -1.4188 H   0  0  0  0  0  0  0  0  0  0  0  0
    2.8560   -1.1654    0.1789 H   0  0  0  0  0  0  0  0  0  0  0  0
    2.8028    1.1240    1.2203 H   0  0  0  0  0  0  0  0  0  0  0  0
    2.8133    1.8493   -0.3810 H   0  0  0  0  0  0  0  0  0  0  0  0
    5.0569    0.7763   -0.8465 H   0  0  0  0  0  0  0  0  0  0  0  0
    5.0467    0.0681    0.7647 H   0  0  0  0  0  0  0  0  0  0  0  0
    4.9926    2.3520    1.7742 H   0  0  0  0  0  0  0  0  0  0  0  0
    5.0127    3.0631    0.1478 H   0  0  0  0  0  0  0  0  0  0  0  0
    7.1543    2.8255    1.0461 H   0  0  0  0  0  0  0  0  0  0  0  0
  1  9  1  0
  2  1  1  0
  2 11  1  0
  2  3  1  0
  3 12  1  0
  4  3  1  0
  4  5  1  0
  4 15  1  0
  5 16  1  0
  6  5  1  0
  6 18  1  0
  7  1  1  0
  8  1  1  0
 10  2  1  0
 13  3  1  0
 14  4  1  0
 17  5  1  0
M  END
>  <HBA>  (917) 
1

>  <HBD>  (917) 
1

>  <TPSA>  (917) 
20.23

>  <cid>  (917) 
6276

>  <dipole>  (917) 
1.46

>  <excitation_energy_1>  (917) 
6.327

>  <excitation_energy_2>  (917) 
7.379

>  <excitation_energy_3>  (917) 
7.539

>  <excitation_energy_4>  (917) 
7.666

>  <homo_energy>  (917) 
-7.102

>  <homo_lumo_gap>  (917) 
9.225

>  <logP>  (917) 
1.169

>  <lumo_energy>  (917) 
2.123

>  <melting_point>  (917) 
-7.28

>  <molecular_refractivity>  (917) 
27.31

>  <oscillator_strength_1>  (917) 
0.0006

>  <oscillator_strength_2>  (917) 
0.0144

>  <oscillator_strength_3>  (917) 
0.0081

>  <oscillator_strength_4>  (917) 
0.017

>  <open_babel_can_smiles>  (917) 
CCCCCO

>  <mulliken_charges>  (917) 
18
1   -0.442046
2   -0.245131
3   -0.254545
4   -0.25959
5   -0.027703
6   -0.620244
7   0.142557
8   0.140947
9   0.141088
10   0.132568
11   0.132604
12   0.127279
13   0.127135
14   0.143341
15   0.143533
16   0.114292
17   0.11442
18   0.389496

>  <lowdin_charges>  (917) 
18
1   -0.445187
2   -0.270186
3   -0.274383
4   -0.280039
5   -0.13179
6   -0.476356
7   0.150188
8   0.146765
9   0.145256
10   0.139076
11   0.14073
12   0.136271
13   0.137733
14   0.146469
15   0.148221
16   0.12112
17   0.122739
18   0.343372

$$$$
PCCDB-ID:  6287
     RDKit          3D

 19 18  0  0  1  0  0  0  0  0999 V2000
    0.8722   -0.0840    0.0428 C   0  0  0  0  0  0  0  0  0  0  0  0
    2.9585   -0.2984    1.4435 C   0  0  0  0  0  0  0  0  0  0  0  0
    2.4068    0.0130    0.0456 C   0  0  0  0  0  0  0  0  0  0  0  0
    3.0447   -0.9151   -1.0365 C   0  0  1  0  0  0  0  0  0  0  0  0
    2.5336   -0.4866   -2.4196 C   0  0  0  0  0  0  0  0  0  0  0  0
    4.5021   -0.9096   -1.1349 N   0  0  0  0  0  0  0  0  0  0  0  0
    2.9568    0.4919   -2.9845 O   0  0  0  0  0  0  0  0  0  0  0  0
    1.5445   -1.2271   -2.9788 O   0  0  0  0  0  0  0  0  0  0  0  0
    0.4393    0.2007   -0.9218 H   0  0  0  0  0  0  0  0  0  0  0  0
    0.5418   -1.1059    0.2757 H   0  0  0  0  0  0  0  0  0  0  0  0
    0.4422    0.5759    0.8040 H   0  0  0  0  0  0  0  0  0  0  0  0
    2.5102    0.3676    2.1890 H   0  0  0  0  0  0  0  0  0  0  0  0
    4.0439   -0.1624    1.5018 H   0  0  0  0  0  0  0  0  0  0  0  0
    2.7276   -1.3304    1.7396 H   0  0  0  0  0  0  0  0  0  0  0  0
    2.6904    1.0400   -0.2242 H   0  0  0  0  0  0  0  0  0  0  0  0
    2.7267   -1.9481   -0.8206 H   0  0  0  0  0  0  0  0  0  0  0  0
    4.9269   -1.0192   -0.2182 H   0  0  0  0  0  0  0  0  0  0  0  0
    4.7974   -0.0115   -1.5159 H   0  0  0  0  0  0  0  0  0  0  0  0
    1.3491   -1.9921   -2.4135 H   0  0  0  0  0  0  0  0  0  0  0  0
  1  3  1  0
  1 10  1  0
  1 11  1  0
  2 13  1  0
  2 14  1  0
  2 12  1  0
  3  2  1  0
  4 16  1  1
  4  3  1  0
  5  4  1  0
  6  4  1  0
  6 17  1  0
  7  5  2  0
  8  5  1  0
  8 19  1  0
  9  1  1  0
 15  3  1  0
 18  6  1  0
M  END
>  <HBA>  (918) 
3

>  <HBD>  (918) 
2

>  <TPSA>  (918) 
63.32

>  <cid>  (918) 
6287

>  <dipole>  (918) 
4.21

>  <excitation_energy_1>  (918) 
5.451

>  <excitation_energy_2>  (918) 
5.75

>  <excitation_energy_3>  (918) 
5.867

>  <excitation_energy_4>  (918) 
6.171

>  <homo_energy>  (918) 
-6.569

>  <homo_lumo_gap>  (918) 
6.765

>  <logP>  (918) 
0.755

>  <lumo_energy>  (918) 
0.196

>  <melting_point>  (918) 
105.51

>  <molecular_refractivity>  (918) 
30.63

>  <oscillator_strength_1>  (918) 
0.003

>  <oscillator_strength_2>  (918) 
0.0047

>  <oscillator_strength_3>  (918) 
0.0022

>  <oscillator_strength_4>  (918) 
0.0226

>  <open_babel_can_smiles>  (918) 
N[C@H](C(=O)O)C(C)C

>  <mulliken_charges>  (918) 
19
1   -0.47375
2   -0.455569
3   -0.076652
4   -0.061388
5   0.61679
6   -0.720718
7   -0.454707
8   -0.564774
9   0.167811
10   0.1334
11   0.155061
12   0.154565
13   0.13875
14   0.143161
15   0.147348
16   0.11607
17   0.303863
18   0.319827
19   0.410912

>  <lowdin_charges>  (918) 
19
1   -0.454613
2   -0.446704
3   -0.135477
4   -0.102873
5   0.198601
6   -0.541573
7   -0.243873
8   -0.346648
9   0.159252
10   0.141464
11   0.158523
12   0.158376
13   0.144331
14   0.146447
15   0.148675
16   0.132133
17   0.25661
18   0.268145
19   0.359205

$$$$
PCCDB-ID:  6293
     RDKit          3D

 26 28  0  0  0  0  0  0  0  0999 V2000
    3.6909    0.7246    0.0016 C   0  0  0  0  0  0  0  0  0  0  0  0
    3.6976   -0.6759    0.0009 C   0  0  0  0  0  0  0  0  0  0  0  0
    2.4826    1.4145    0.0023 C   0  0  0  0  0  0  0  0  0  0  0  0
    2.4978   -1.3816    0.0005 C   0  0  0  0  0  0  0  0  0  0  0  0
   -2.4704    1.3986    0.0012 C   0  0  0  0  0  0  0  0  0  0  0  0
   -3.6932    0.7297    0.0004 C   0  0  0  0  0  0  0  0  0  0  0  0
    1.2720    0.7102    0.0034 C   0  0  0  0  0  0  0  0  0  0  0  0
    1.2773   -0.6956    0.0022 C   0  0  0  0  0  0  0  0  0  0  0  0
   -1.2757    0.6820    0.0025 C   0  0  0  0  0  0  0  0  0  0  0  0
   -3.7103   -0.6570   -0.0001 C   0  0  0  0  0  0  0  0  0  0  0  0
   -1.2758   -0.7395    0.0022 C   0  0  0  0  0  0  0  0  0  0  0  0
   -0.0082    1.4661    0.0036 C   0  0  0  0  0  0  0  0  0  0  0  0
    0.0096   -1.4944    0.0024 C   0  0  0  0  0  0  0  0  0  0  0  0
   -2.5126   -1.4104    0.0002 C   0  0  0  0  0  0  0  0  0  0  0  0
   -4.8515   -1.4184   -0.0022 O   0  0  0  0  0  0  0  0  0  0  0  0
   -0.0206    2.6943    0.0045 O   0  0  0  0  0  0  0  0  0  0  0  0
    0.0578   -2.7182    0.0026 O   0  0  0  0  0  0  0  0  0  0  0  0
   -2.6019   -2.7573   -0.0032 O   0  0  0  0  0  0  0  0  0  0  0  0
    4.6289    1.2730    0.0013 H   0  0  0  0  0  0  0  0  0  0  0  0
    4.6416   -1.2141    0.0007 H   0  0  0  0  0  0  0  0  0  0  0  0
    2.4465    2.4989    0.0016 H   0  0  0  0  0  0  0  0  0  0  0  0
    2.4766   -2.4662   -0.0018 H   0  0  0  0  0  0  0  0  0  0  0  0
   -2.4218    2.4814   -0.0002 H   0  0  0  0  0  0  0  0  0  0  0  0
   -4.6294    1.2846    0.0002 H   0  0  0  0  0  0  0  0  0  0  0  0
   -5.6340   -0.8466    0.0014 H   0  0  0  0  0  0  0  0  0  0  0  0
   -3.5494   -2.9845    0.0024 H   0  0  0  0  0  0  0  0  0  0  0  0
  1  3  2  0
  2  1  1  0
  3  7  1  0
  4  2  2  0
  4  8  1  0
  5  9  2  0
  6  5  1  0
  7 12  1  0
  8 13  1  0
  8  7  2  0
  9 12  1  0
 10 14  1  0
 10  6  2  0
 11 13  1  0
 11  9  1  0
 12 16  2  0
 13 17  2  0
 14 11  2  0
 15 10  1  0
 15 25  1  0
 18 14  1  0
 18 26  1  0
 19  1  1  0
 20  2  1  0
 21  3  1  0
 22  4  1  0
 23  5  1  0
 24  6  1  0
M  END
>  <HBA>  (919) 
4

>  <HBD>  (919) 
2

>  <TPSA>  (919) 
74.6

>  <cid>  (919) 
6293

>  <dipole>  (919) 
3.19

>  <excitation_energy_1>  (919) 
2.881

>  <excitation_energy_2>  (919) 
3.219

>  <excitation_energy_3>  (919) 
3.222

>  <excitation_energy_4>  (919) 
3.683

>  <homo_energy>  (919) 
-6.212

>  <homo_lumo_gap>  (919) 
3.695

>  <logP>  (919) 
1.873

>  <lumo_energy>  (919) 
-2.517

>  <melting_point>  (919) 
204.83

>  <molecular_refractivity>  (919) 
63.8

>  <oscillator_strength_1>  (919) 
0.0

>  <oscillator_strength_2>  (919) 
0.1179

>  <oscillator_strength_3>  (919) 
0.0053

>  <oscillator_strength_4>  (919) 
0.002

>  <open_babel_can_smiles>  (919) 
O=C1c2ccccc2C(=O)c2c1ccc(c2O)O

>  <mulliken_charges>  (919) 
26
1   -0.12724
2   -0.124658
3   -0.171707
4   -0.175057
5   -0.18702
6   -0.188306
7   0.04962
8   0.046048
9   0.028243
10   0.329333
11   0.023298
12   0.338152
13   0.35323
14   0.257979
15   -0.67375
16   -0.488964
17   -0.46227
18   -0.609138
19   0.142094
20   0.142478
21   0.165388
22   0.168062
23   0.169577
24   0.136782
25   0.425706
26   0.432119

>  <lowdin_charges>  (919) 
26
1   -0.142586
2   -0.140286
3   -0.126604
4   -0.127627
5   -0.134089
6   -0.188831
7   -0.037724
8   -0.033638
9   -0.044838
10   0.069708
11   -0.063821
12   0.149588
13   0.148405
14   0.104693
15   -0.386251
16   -0.251179
17   -0.224933
18   -0.331283
19   0.164031
20   0.16415
21   0.176289
22   0.177585
23   0.180288
24   0.162553
25   0.371875
26   0.364525

$$$$
PCCDB-ID:  6305
     RDKit          3D

 27 28  0  0  1  0  0  0  0  0999 V2000
    2.3114    0.1507   -1.5296 C   0  0  0  0  0  0  0  0  0  0  0  0
    2.1204    1.4727   -1.0754 C   0  0  0  0  0  0  0  0  0  0  0  0
    1.3799   -0.8425   -1.2604 C   0  0  0  0  0  0  0  0  0  0  0  0
    0.9934    1.8282   -0.3456 C   0  0  0  0  0  0  0  0  0  0  0  0
   -1.2069   -2.7230   -0.3637 C   0  0  0  0  0  0  0  0  0  0  0  0
   -1.7165   -0.3795    0.6178 C   0  0  0  0  0  0  0  0  0  0  0  0
   -0.9148   -1.2737   -0.0622 C   0  0  0  0  0  0  0  0  0  0  0  0
    0.2290   -0.5158   -0.5213 C   0  0  0  0  0  0  0  0  0  0  0  0
   -1.7607   -3.5630    0.8134 C   0  0  2  0  0  0  0  0  0  0  0  0
    0.0560    0.8238   -0.0803 C   0  0  0  0  0  0  0  0  0  0  0  0
   -0.7026   -3.8404    1.9082 C   0  0  0  0  0  0  0  0  0  0  0  0
   -2.3607   -4.7867    0.2931 N   0  0  0  0  0  0  0  0  0  0  0  0
   -1.1409    0.8746    0.6054 N   0  0  0  0  0  0  0  0  0  0  0  0
   -0.4938   -4.9480    2.3447 O   0  0  0  0  0  0  0  0  0  0  0  0
   -0.0352   -2.7704    2.3936 O   0  0  0  0  0  0  0  0  0  0  0  0
    3.2045   -0.0908   -2.0988 H   0  0  0  0  0  0  0  0  0  0  0  0
    2.8688    2.2272   -1.3008 H   0  0  0  0  0  0  0  0  0  0  0  0
    1.5401   -1.8568   -1.6161 H   0  0  0  0  0  0  0  0  0  0  0  0
    0.8457    2.8467    0.0035 H   0  0  0  0  0  0  0  0  0  0  0  0
   -0.2931   -3.2021   -0.7392 H   0  0  0  0  0  0  0  0  0  0  0  0
   -1.9459   -2.8054   -1.1702 H   0  0  0  0  0  0  0  0  0  0  0  0
   -2.6750   -0.5321    1.0955 H   0  0  0  0  0  0  0  0  0  0  0  0
   -2.5638   -2.9877    1.2981 H   0  0  0  0  0  0  0  0  0  0  0  0
   -2.6159   -5.3744    1.0868 H   0  0  0  0  0  0  0  0  0  0  0  0
   -1.6327   -5.3221   -0.1830 H   0  0  0  0  0  0  0  0  0  0  0  0
   -1.5136    1.6869    1.0722 H   0  0  0  0  0  0  0  0  0  0  0  0
   -0.2843   -1.9692    1.8883 H   0  0  0  0  0  0  0  0  0  0  0  0
  1  3  2  0
  1  2  1  0
  2  4  2  0
  3  8  1  0
  4 10  1  0
  4 19  1  0
  5  7  1  0
  5  9  1  0
  6 22  1  0
  7  6  2  0
  8 10  2  0
  8  7  1  0
  9 23  1  1
  9 11  1  0
 10 13  1  0
 11 14  2  0
 11 15  1  0
 12  9  1  0
 12 24  1  0
 13  6  1  0
 13 26  1  0
 16  1  1  0
 17  2  1  0
 18  3  1  0
 20  5  1  0
 21  5  1  0
 25 12  1  0
 27 15  1  0
M  END
>  <HBA>  (920) 
3

>  <HBD>  (920) 
3

>  <TPSA>  (920) 
79.11

>  <cid>  (920) 
6305

>  <dipole>  (920) 
5.1

>  <excitation_energy_1>  (920) 
4.667

>  <excitation_energy_2>  (920) 
4.863

>  <excitation_energy_3>  (920) 
4.943

>  <excitation_energy_4>  (920) 
5.266

>  <homo_energy>  (920) 
-5.894

>  <homo_lumo_gap>  (920) 
5.257

>  <logP>  (920) 
1.823

>  <lumo_energy>  (920) 
-0.637

>  <melting_point>  (920) 
229.84

>  <molecular_refractivity>  (920) 
57.36

>  <oscillator_strength_1>  (920) 
0.069

>  <oscillator_strength_2>  (920) 
0.0452

>  <oscillator_strength_3>  (920) 
0.0011

>  <oscillator_strength_4>  (920) 
0.005

>  <open_babel_can_smiles>  (920) 
OC(=O)[C@@H](Cc1c[nH]c2c1cccc2)N

>  <mulliken_charges>  (920) 
27
1   -0.138619
2   -0.148357
3   -0.199713
4   -0.159856
5   -0.333036
6   -0.002341
7   -0.026929
8   0.094426
9   -0.111473
10   0.315128
11   0.574095
12   -0.696591
13   -0.684062
14   -0.455551
15   -0.576684
16   0.128987
17   0.130546
18   0.132758
19   0.127902
20   0.153528
21   0.18666
22   0.162398
23   0.159117
24   0.313338
25   0.300607
26   0.333677
27   0.420044

>  <lowdin_charges>  (920) 
27
1   -0.169467
2   -0.158197
3   -0.156878
4   -0.183424
5   -0.274879
6   -0.142537
7   -0.084883
8   -0.038818
9   -0.112941
10   0.032751
11   0.169363
12   -0.535825
13   -0.193978
14   -0.254808
15   -0.359181
16   0.159044
17   0.160457
18   0.158293
19   0.157786
20   0.155322
21   0.173388
22   0.169103
23   0.155412
24   0.265651
25   0.258959
26   0.296163
27   0.354126

$$$$
PCCDB-ID:  6324
     RDKit          3D

  8  7  0  0  0  0  0  0  0  0999 V2000
    0.9478   -0.0873   -0.0132 C   0  0  0  0  0  0  0  0  0  0  0  0
    2.4784   -0.0873   -0.0132 C   0  0  0  0  0  0  0  0  0  0  0  0
    0.5487   -0.1011   -1.0340 H   0  0  0  0  0  0  0  0  0  0  0  0
    0.5488    0.8036    0.4853 H   0  0  0  0  0  0  0  0  0  0  0  0
    0.5488   -0.9645    0.5092 H   0  0  0  0  0  0  0  0  0  0  0  0
    2.8774    0.7898   -0.5356 H   0  0  0  0  0  0  0  0  0  0  0  0
    2.8774   -0.9783   -0.5117 H   0  0  0  0  0  0  0  0  0  0  0  0
    2.8775   -0.0735    1.0076 H   0  0  0  0  0  0  0  0  0  0  0  0
  1  2  1  0
  1  4  1  0
  1  5  1  0
  2  8  1  0
  3  1  1  0
  6  2  1  0
  7  2  1  0
M  END
>  <HBA>  (921) 
0

>  <HBD>  (921) 
0

>  <TPSA>  (921) 
0.0

>  <cid>  (921) 
6324

>  <dipole>  (921) 
0.0

>  <excitation_energy_1>  (921) 
8.827

>  <excitation_energy_2>  (921) 
8.827

>  <excitation_energy_3>  (921) 
9.314

>  <excitation_energy_4>  (921) 
9.315

>  <homo_energy>  (921) 
-9.255

>  <homo_lumo_gap>  (921) 
12.106

>  <logP>  (921) 
1.026

>  <lumo_energy>  (921) 
2.852

>  <melting_point>  (921) 
-23.91

>  <molecular_refractivity>  (921) 
11.73

>  <oscillator_strength_1>  (921) 
0.0

>  <oscillator_strength_2>  (921) 
0.0

>  <oscillator_strength_3>  (921) 
0.0607

>  <oscillator_strength_4>  (921) 
0.0607

>  <open_babel_can_smiles>  (921) 
CC

>  <mulliken_charges>  (921) 
8
1   -0.432786
2   -0.432866
3   0.144294
4   0.144266
5   0.14426
6   0.144262
7   0.14427
8   0.144301

>  <lowdin_charges>  (921) 
8
1   -0.4429
2   -0.442913
3   0.146704
4   0.148059
5   0.148144
6   0.148143
7   0.148058
8   0.146706

$$$$
PCCDB-ID:  6329
     RDKit          3D

  7  6  0  0  0  0  0  0  0  0999 V2000
    0.9788    0.0984    0.0568 C   0  0  0  0  0  0  0  0  0  0  0  0
    2.4437    0.0782    0.0323 N   0  0  0  0  0  0  0  0  0  0  0  0
    0.5200    0.7372    0.8322 H   0  0  0  0  0  0  0  0  0  0  0  0
    0.6092   -0.9223    0.2044 H   0  0  0  0  0  0  0  0  0  0  0  0
    0.6091    0.4384   -0.9168 H   0  0  0  0  0  0  0  0  0  0  0  0
    2.7967   -0.2287    0.9373 H   0  0  0  0  0  0  0  0  0  0  0  0
    2.7967    1.0251   -0.0958 H   0  0  0  0  0  0  0  0  0  0  0  0
  1  4  1  0
  1  3  1  0
  2  1  1  0
  2  6  1  0
  5  1  1  0
  7  2  1  0
M  END
>  <HBA>  (922) 
1

>  <HBD>  (922) 
1

>  <TPSA>  (922) 
26.02

>  <cid>  (922) 
6329

>  <dipole>  (922) 
1.47

>  <excitation_energy_1>  (922) 
5.545

>  <excitation_energy_2>  (922) 
6.537

>  <excitation_energy_3>  (922) 
6.922

>  <excitation_energy_4>  (922) 
7.257

>  <homo_energy>  (922) 
-6.223

>  <homo_lumo_gap>  (922) 
8.523

>  <logP>  (922) 
0.275

>  <lumo_energy>  (922) 
2.299

>  <melting_point>  (922) 
31.01

>  <molecular_refractivity>  (922) 
9.63

>  <oscillator_strength_1>  (922) 
0.0105

>  <oscillator_strength_2>  (922) 
0.0411

>  <oscillator_strength_3>  (922) 
0.0013

>  <oscillator_strength_4>  (922) 
0.0471

>  <open_babel_can_smiles>  (922) 
CN

>  <mulliken_charges>  (922) 
7
1   -0.309026
2   -0.705344
3   0.120353
4   0.152828
5   0.152838
6   0.294176
7   0.294175

>  <lowdin_charges>  (922) 
7
1   -0.363166
2   -0.558902
3   0.121706
4   0.148438
5   0.149065
6   0.251692
7   0.251168

$$$$
PCCDB-ID:  6334
     RDKit          3D

 11 10  0  0  0  0  0  0  0  0999 V2000
    0.9782   -0.0935   -0.0578 C   0  0  0  0  0  0  0  0  0  0  0  0
    3.0640   -0.2100    1.4126 C   0  0  0  0  0  0  0  0  0  0  0  0
    2.5096   -0.0971   -0.0113 C   0  0  0  0  0  0  0  0  0  0  0  0
    0.6069   -0.0120   -1.0859 H   0  0  0  0  0  0  0  0  0  0  0  0
    0.5673    0.7486    0.5131 H   0  0  0  0  0  0  0  0  0  0  0  0
    0.5673   -1.0150    0.3733 H   0  0  0  0  0  0  0  0  0  0  0  0
    4.1602   -0.2107    1.4189 H   0  0  0  0  0  0  0  0  0  0  0  0
    2.7269   -1.1356    1.8957 H   0  0  0  0  0  0  0  0  0  0  0  0
    2.7274    0.6280    2.0358 H   0  0  0  0  0  0  0  0  0  0  0  0
    2.8911    0.8204   -0.4796 H   0  0  0  0  0  0  0  0  0  0  0  0
    2.8910   -0.9295   -0.6182 H   0  0  0  0  0  0  0  0  0  0  0  0
  1  3  1  0
  1  6  1  0
  1  5  1  0
  2  7  1  0
  2  8  1  0
  2  9  1  0
  3  2  1  0
  4  1  1  0
 10  3  1  0
 11  3  1  0
M  END
>  <HBA>  (923) 
0

>  <HBD>  (923) 
0

>  <TPSA>  (923) 
0.0

>  <cid>  (923) 
6334

>  <dipole>  (923) 
0.06

>  <excitation_energy_1>  (923) 
8.414

>  <excitation_energy_2>  (923) 
8.689

>  <excitation_energy_3>  (923) 
8.702

>  <excitation_energy_4>  (923) 
8.947

>  <homo_energy>  (923) 
-8.83

>  <homo_lumo_gap>  (923) 
11.445

>  <logP>  (923) 
1.416

>  <lumo_energy>  (923) 
2.615

>  <melting_point>  (923) 
-24.57

>  <molecular_refractivity>  (923) 
16.54

>  <oscillator_strength_1>  (923) 
0.001

>  <oscillator_strength_2>  (923) 
0.0574

>  <oscillator_strength_3>  (923) 
0.0032

>  <oscillator_strength_4>  (923) 
0.0

>  <open_babel_can_smiles>  (923) 
CCC

>  <mulliken_charges>  (923) 
11
1   -0.434696
2   -0.43484
3   -0.240993
4   0.14104
5   0.140572
6   0.140579
7   0.141072
8   0.140588
9   0.140588
10   0.133039
11   0.133051

>  <lowdin_charges>  (923) 
11
1   -0.445473
2   -0.44403
3   -0.270694
4   0.147612
5   0.146588
6   0.146091
7   0.146438
8   0.145997
9   0.146512
10   0.140216
11   0.140743

$$$$
PCCDB-ID:  6335
     RDKit          3D

  7  6  0  0  0  0  0  0  0  0999 V2000
    1.0842    0.0174   -0.0121 C   0  0  0  0  0  0  0  0  0  0  0  0
    3.7519    0.0175   -0.0121 C   0  0  0  0  0  0  0  0  0  0  0  0
    2.2912    0.0178   -0.0122 C   0  0  0  0  0  0  0  0  0  0  0  0
    0.0182    0.0171   -0.0120 H   0  0  0  0  0  0  0  0  0  0  0  0
    4.1479    0.7282    0.7230 H   0  0  0  0  0  0  0  0  0  0  0  0
    4.1480    0.2982   -0.9952 H   0  0  0  0  0  0  0  0  0  0  0  0
    4.1470   -0.9747    0.2362 H   0  0  0  0  0  0  0  0  0  0  0  0
  1  4  1  0
  2  7  1  0
  2  5  1  0
  3  2  1  0
  3  1  3  0
  6  2  1  0
M  END
>  <HBA>  (924) 
0

>  <HBD>  (924) 
0

>  <TPSA>  (924) 
0.0

>  <cid>  (924) 
6335

>  <dipole>  (924) 
0.69

>  <excitation_energy_1>  (924) 
6.568

>  <excitation_energy_2>  (924) 
6.721

>  <excitation_energy_3>  (924) 
6.721

>  <excitation_energy_4>  (924) 
6.777

>  <homo_energy>  (924) 
-7.061

>  <homo_lumo_gap>  (924) 
8.751

>  <logP>  (924) 
0.639

>  <lumo_energy>  (924) 
1.69

>  <melting_point>  (924) 
-7.22

>  <molecular_refractivity>  (924) 
14.7

>  <oscillator_strength_1>  (924) 
0.0

>  <oscillator_strength_2>  (924) 
0.0016

>  <oscillator_strength_3>  (924) 
0.0014

>  <oscillator_strength_4>  (924) 
0.0152

>  <open_babel_can_smiles>  (924) 
CC#C

>  <mulliken_charges>  (924) 
7
1   -0.460181
2   -0.574514
3   0.303838
4   0.183367
5   0.182458
6   0.182515
7   0.182517

>  <lowdin_charges>  (924) 
7
1   -0.26157
2   -0.426498
3   -0.03943
4   0.200771
5   0.176461
6   0.175187
7   0.17508

$$$$
PCCDB-ID:  6341
     RDKit          3D

 10  9  0  0  0  0  0  0  0  0999 V2000
    0.9418    0.0018   -0.0775 C   0  0  0  0  0  0  0  0  0  0  0  0
    2.4688   -0.0194   -0.0698 C   0  0  0  0  0  0  0  0  0  0  0  0
    2.9694   -1.1138   -0.9114 N   0  0  0  0  0  0  0  0  0  0  0  0
    0.5575    0.8469    0.5049 H   0  0  0  0  0  0  0  0  0  0  0  0
    0.5331   -0.9174    0.3621 H   0  0  0  0  0  0  0  0  0  0  0  0
    0.5670    0.0796   -1.1030 H   0  0  0  0  0  0  0  0  0  0  0  0
    2.8259   -0.0589    0.9761 H   0  0  0  0  0  0  0  0  0  0  0  0
    2.8472    0.9200   -0.4921 H   0  0  0  0  0  0  0  0  0  0  0  0
    2.6976   -2.0068   -0.5001 H   0  0  0  0  0  0  0  0  0  0  0  0
    3.9885   -1.1081   -0.9148 H   0  0  0  0  0  0  0  0  0  0  0  0
  1  2  1  0
  1  5  1  0
  1  4  1  0
  2  7  1  0
  3  9  1  0
  3  2  1  0
  6  1  1  0
  8  2  1  0
 10  3  1  0
M  END
>  <HBA>  (925) 
1

>  <HBD>  (925) 
1

>  <TPSA>  (925) 
26.02

>  <cid>  (925) 
6341

>  <dipole>  (925) 
1.4

>  <excitation_energy_1>  (925) 
5.631

>  <excitation_energy_2>  (925) 
6.59

>  <excitation_energy_3>  (925) 
6.653

>  <excitation_energy_4>  (925) 
7.028

>  <homo_energy>  (925) 
-6.229

>  <homo_lumo_gap>  (925) 
8.498

>  <logP>  (925) 
0.665

>  <lumo_energy>  (925) 
2.269

>  <melting_point>  (925) 
30.34

>  <molecular_refractivity>  (925) 
14.44

>  <oscillator_strength_1>  (925) 
0.0108

>  <oscillator_strength_2>  (925) 
0.0178

>  <oscillator_strength_3>  (925) 
0.0254

>  <oscillator_strength_4>  (925) 
0.0649

>  <open_babel_can_smiles>  (925) 
CCN

>  <mulliken_charges>  (925) 
10
1   -0.43369
2   -0.127675
3   -0.708652
4   0.139739
5   0.135724
6   0.159822
7   0.111492
8   0.140434
9   0.289359
10   0.293448

>  <lowdin_charges>  (925) 
10
1   -0.448576
2   -0.199394
3   -0.558066
4   0.15072
5   0.14402
6   0.155766
7   0.113794
8   0.141458
9   0.24979
10   0.250489

$$$$
PCCDB-ID:  6342
     RDKit          3D

  6  5  0  0  0  0  0  0  0  0999 V2000
    0.9901   -0.0171    0.0981 C   0  0  0  0  0  0  0  0  0  0  0  0
    2.4515   -0.0171    0.0981 C   0  0  0  0  0  0  0  0  0  0  0  0
    3.6117   -0.0171    0.0981 N   0  0  0  0  0  0  0  0  0  0  0  0
    0.6101   -0.9727    0.4728 H   0  0  0  0  0  0  0  0  0  0  0  0
    0.6101    0.1363   -0.9168 H   0  0  0  0  0  0  0  0  0  0  0  0
    0.6102    0.7852    0.7384 H   0  0  0  0  0  0  0  0  0  0  0  0
  1  4  1  0
  1  6  1  0
  2  1  1  0
  3  2  3  0
  5  1  1  0
M  END
>  <HBA>  (926) 
1

>  <HBD>  (926) 
0

>  <TPSA>  (926) 
23.79

>  <cid>  (926) 
6342

>  <dipole>  (926) 
3.81

>  <excitation_energy_1>  (926) 
7.726

>  <excitation_energy_2>  (926) 
7.988

>  <excitation_energy_3>  (926) 
7.988

>  <excitation_energy_4>  (926) 
8.015

>  <homo_energy>  (926) 
-8.882

>  <homo_lumo_gap>  (926) 
9.881

>  <logP>  (926) 
0.53

>  <lumo_energy>  (926) 
0.999

>  <melting_point>  (926) 
9.99

>  <molecular_refractivity>  (926) 
11.48

>  <oscillator_strength_1>  (926) 
0.0

>  <oscillator_strength_2>  (926) 
0.0054

>  <oscillator_strength_3>  (926) 
0.0053

>  <oscillator_strength_4>  (926) 
0.0011

>  <open_babel_can_smiles>  (926) 
CC#N

>  <mulliken_charges>  (926) 
6
1   -0.520362
2   0.351178
3   -0.456347
4   0.208501
5   0.208508
6   0.208521

>  <lowdin_charges>  (926) 
6
1   -0.436108
2   -0.016677
3   -0.124365
4   0.192311
5   0.191637
6   0.193203

$$$$
PCCDB-ID:  6343
     RDKit          3D

  9  8  0  0  0  0  0  0  0  0999 V2000
    1.0153   -0.0436   -0.0826 C   0  0  0  0  0  0  0  0  0  0  0  0
    2.5410   -0.0004   -0.0726 C   0  0  0  0  0  0  0  0  0  0  0  0
    3.2615    1.0421    1.2682 S   0  0  0  0  0  0  0  0  0  0  0  0
    0.6601   -0.7139   -0.8756 H   0  0  0  0  0  0  0  0  0  0  0  0
    0.5912    0.9494   -0.2701 H   0  0  0  0  0  0  0  0  0  0  0  0
    0.6247   -0.4021    0.8747 H   0  0  0  0  0  0  0  0  0  0  0  0
    2.9362    0.3372   -1.0356 H   0  0  0  0  0  0  0  0  0  0  0  0
    2.9562   -0.9960    0.1143 H   0  0  0  0  0  0  0  0  0  0  0  0
    2.7050    2.2095    0.8761 H   0  0  0  0  0  0  0  0  0  0  0  0
  1  2  1  0
  1  6  1  0
  2  8  1  0
  2  3  1  0
  4  1  1  0
  5  1  1  0
  7  2  1  0
  9  3  1  0
M  END
>  <HBA>  (927) 
1

>  <HBD>  (927) 
1

>  <TPSA>  (927) 
38.8

>  <cid>  (927) 
6343

>  <dipole>  (927) 
1.83

>  <excitation_energy_1>  (927) 
5.263

>  <excitation_energy_2>  (927) 
5.91

>  <excitation_energy_3>  (927) 
6.421

>  <excitation_energy_4>  (927) 
6.646

>  <homo_energy>  (927) 
-6.392

>  <homo_lumo_gap>  (927) 
7.159

>  <logP>  (927) 
0.936

>  <lumo_energy>  (927) 
0.767

>  <melting_point>  (927) 
-3.65

>  <molecular_refractivity>  (927) 
19.66

>  <oscillator_strength_1>  (927) 
0.0148

>  <oscillator_strength_2>  (927) 
0.0357

>  <oscillator_strength_3>  (927) 
0.0292

>  <oscillator_strength_4>  (927) 
0.0044

>  <open_babel_can_smiles>  (927) 
CCS

>  <mulliken_charges>  (927) 
9
1   -0.43059
2   -0.401674
3   -0.085289
4   0.150773
5   0.150164
6   0.167493
7   0.177884
8   0.180432
9   0.090806

>  <lowdin_charges>  (927) 
9
1   -0.447208
2   -0.366083
3   -0.091611
4   0.154928
5   0.151318
6   0.160827
7   0.159224
8   0.1676
9   0.111006

$$$$
PCCDB-ID:  6347
     RDKit          3D

  4  3  0  0  0  0  0  0  0  0999 V2000
    0.9436    0.0176    0.0126 C   0  0  0  0  0  0  0  0  0  0  0  0
   -0.2747    0.0426   -0.0204 N   0  0  0  0  0  0  0  0  0  0  0  0
    2.1108    0.0025   -0.1160 O   0  0  0  0  0  0  0  0  0  0  0  0
   -0.8719    0.0093    0.7920 H   0  0  0  0  0  0  0  0  0  0  0  0
  2  1  2  3
  2  4  1  0
  3  1  2  0
M  END
>  <HBA>  (928) 
2

>  <HBD>  (928) 
1

>  <TPSA>  (928) 
40.92

>  <cid>  (928) 
6347

>  <dipole>  (928) 
2.23

>  <excitation_energy_1>  (928) 
6.41

>  <excitation_energy_2>  (928) 
7.075

>  <excitation_energy_3>  (928) 
7.58

>  <excitation_energy_4>  (928) 
7.784

>  <homo_energy>  (928) 
-8.221

>  <homo_lumo_gap>  (928) 
8.302

>  <logP>  (928) 
0.001

>  <lumo_energy>  (928) 
0.082

>  <melting_point>  (928) 
40.97

>  <molecular_refractivity>  (928) 
9.08

>  <oscillator_strength_1>  (928) 
0.0029

>  <oscillator_strength_2>  (928) 
0.0121

>  <oscillator_strength_3>  (928) 
0.0159

>  <oscillator_strength_4>  (928) 
0.0101

>  <open_babel_can_smiles>  (928) 
N=C=O

>  <mulliken_charges>  (928) 
4
1   0.641206
2   -0.621083
3   -0.385796
4   0.365672

>  <lowdin_charges>  (928) 
4
1   0.187915
2   -0.375782
3   -0.13442
4   0.322287

$$$$
