PCCDB-ID:  3445 
public computational chemistry database (PCCDB) project, http://pccdb.org 
 
 19 19  0  0  1  0  0  0  0  0999 V2000 
   -0.3565    1.3666   -0.0873 C   0  0  0  0  0  0  0  0  0  0  0  0 
    1.0264    0.9323    0.0702 C   0  0  0  0  0  0  0  0  0  0  0  0 
   -1.3658    0.4761   -0.1147 C   0  0  0  0  0  0  0  0  0  0  0  0 
    0.3105   -1.3856   -0.4241 C   0  0  0  0  0  0  0  0  0  0  0  0 
    1.3639   -0.3725   -0.0476 C   0  0  0  0  0  0  0  0  0  0  0  0 
   -1.1086   -1.0057    0.0632 C   0  0  1  0  0  0  0  0  0  0  0  0 
    2.7466   -0.8552    0.1281 C   0  0  0  0  0  0  0  0  0  0  0  0 
   -1.4326   -1.3259    1.4618 N   0  0  0  0  0  0  0  0  0  0  0  0 
    3.6472    0.1320    0.3934 O   0  0  0  0  0  0  0  0  0  0  0  0 
    3.0860   -2.0226    0.0490 O   0  0  0  0  0  0  0  0  0  0  0  0 
   -0.5573    2.4341   -0.1335 H   0  0  0  0  0  0  0  0  0  0  0  0 
    1.7866    1.6747    0.2925 H   0  0  0  0  0  0  0  0  0  0  0  0 
   -2.4011    0.8041   -0.1502 H   0  0  0  0  0  0  0  0  0  0  0  0 
    0.5887   -2.3778   -0.0535 H   0  0  0  0  0  0  0  0  0  0  0  0 
    0.2937   -1.4676   -1.5230 H   0  0  0  0  0  0  0  0  0  0  0  0 
   -1.8267   -1.5656   -0.5486 H   0  0  0  0  0  0  0  0  0  0  0  0 
   -0.7578   -0.8746    2.0784 H   0  0  0  0  0  0  0  0  0  0  0  0 
   -1.3453   -2.3303    1.6163 H   0  0  0  0  0  0  0  0  0  0  0  0 
    4.5051   -0.3213    0.4846 H   0  0  0  0  0  0  0  0  0  0  0  0 
  1  2  1  0  0  0  0 
  2 12  1  0  0  0  0 
  3  1  2  0  0  0  0 
  3  6  1  0  0  0  0 
  4 14  1  0  0  0  0 
  4  5  1  0  0  0  0 
  4  6  1  0  0  0  0 
  5  2  2  0  0  0  0 
  5  7  1  0  0  0  0 
  6 16  1  6  0  0  0 
  6  8  1  0  0  0  0 
  7  9  1  0  0  0  0 
  8 18  1  0  0  0  0 
  8 17  1  0  0  0  0 
  9 19  1  0  0  0  0 
 10  7  2  0  0  0  0 
 11  1  1  0  0  0  0 
 13  3  1  0  0  0  0 
 15  4  1  0  0  0  0 
M  END 
>  <HBA> 
3 
 
>  <HBD> 
2 
 
>  <TPSA> 
63.32 
 
>  <cid> 
3445 
 
>  <dipole> 
1.16 
 
>  <excitation_energy_1> 
3.916 
 
>  <excitation_energy_2> 
4.276 
 
>  <excitation_energy_3> 
4.494 
 
>  <excitation_energy_4> 
5.663 
 
>  <homo_energy> 
-6.31 
 
>  <homo_lumo_gap> 
4.563 
 
>  <logP> 
0.985 
 
>  <lumo_energy> 
-1.747 
 
>  <melting_point> 
149.76 
 
>  <molecular_refractivity> 
37.18 
 
>  <oscillator_strength_1> 
0.0138 
 
>  <oscillator_strength_2> 
0.2669 
 
>  <oscillator_strength_3> 
0.004 
 
>  <oscillator_strength_4> 
0.0135 
 
>  <open_babel_can_smiles> 
N[C@H]1C=CC=C(C1)C(=O)O 
 
>  <mulliken_charges> 
19 
1   -0.121586 
2   -0.159382 
3   -0.09577 
4   -0.342688 
5   0.069926 
6   -0.039786 
7   0.534276 
8   -0.703601 
9   -0.58681 
10   -0.481824 
11   0.136686 
12   0.164197 
13   0.147794 
14   0.165675 
15   0.159628 
16   0.143728 
17   0.302001 
18   0.29824 
19   0.409295 
 
>  <lowdin_charges> 
19 
1   -0.173659 
2   -0.132396 
3   -0.131015 
4   -0.28733 
5   -0.054269 
6   -0.068409 
7   0.184973 
8   -0.544566 
9   -0.367336 
10   -0.279275 
11   0.159745 
12   0.175406 
13   0.16453 
14   0.165658 
15   0.160255 
16   0.153352 
17   0.259001 
18   0.253583 
19   0.361752 
 
$$$$ 
 
