PCCDB-ID:  2779 
public computational chemistry database (PCCDB) project, http://pccdb.org 
 
 30 31  0  0  1  0  0  0  0  0999 V2000 
    5.1993    1.7024   -1.4413 C   0  0  0  0  0  0  0  0  0  0  0  0 
    3.5213    3.3013   -2.4289 C   0  0  0  0  0  0  0  0  0  0  0  0 
    2.8514    6.4903    0.4494 C   0  0  0  0  0  0  0  0  0  0  0  0 
    4.0947    2.7243   -1.1253 C   0  0  0  0  0  0  0  0  0  0  0  0 
    1.9019    5.4182    1.0100 C   0  0  2  0  0  0  0  0  0  0  0  0 
    3.0254    2.0516   -0.2203 C   0  0  1  0  0  0  0  0  0  0  0  0 
    2.5992    4.1395    1.4808 C   0  0  2  0  0  0  0  0  0  0  0  0 
    0.9647    4.8423   -0.0517 C   0  0  0  0  0  0  0  0  0  0  0  0 
    1.4592    2.4555    1.8317 C   0  0  0  0  0  0  0  0  0  0  0  0 
    2.0901    3.0152    0.5300 C   0  0  2  0  0  0  0  0  0  0  0  0 
    1.0728    3.6019   -0.3368 N   0  0  0  0  0  0  0  0  0  0  0  0 
    2.2367    1.1114   -0.9313 O   0  0  0  0  0  0  0  0  0  0  0  0 
    0.0645    5.6153   -0.6895 O   0  0  0  0  0  0  0  0  0  0  0  0 
    0.8128    1.5216    2.1890 O   0  0  0  0  0  0  0  0  0  0  0  0 
    1.9153    3.5097    2.6107 O   0  0  0  0  0  0  0  0  0  0  0  0 
    5.9666    2.1414   -2.0892 H   0  0  0  0  0  0  0  0  0  0  0  0 
    4.7745    0.8330   -1.9547 H   0  0  0  0  0  0  0  0  0  0  0  0 
    5.6923    1.3465   -0.5285 H   0  0  0  0  0  0  0  0  0  0  0  0 
    4.3212    3.7546   -3.0256 H   0  0  0  0  0  0  0  0  0  0  0  0 
    2.7530    4.0599   -2.2560 H   0  0  0  0  0  0  0  0  0  0  0  0 
    3.0707    2.5035   -3.0290 H   0  0  0  0  0  0  0  0  0  0  0  0 
    3.5174    6.8593    1.2359 H   0  0  0  0  0  0  0  0  0  0  0  0 
    2.3011    7.3524    0.0543 H   0  0  0  0  0  0  0  0  0  0  0  0 
    3.4670    6.0900   -0.3633 H   0  0  0  0  0  0  0  0  0  0  0  0 
    4.5494    3.5433   -0.5452 H   0  0  0  0  0  0  0  0  0  0  0  0 
    1.3204    5.8390    1.8417 H   0  0  0  0  0  0  0  0  0  0  0  0 
    3.5655    1.4719    0.5404 H   0  0  0  0  0  0  0  0  0  0  0  0 
    3.6663    4.2355    1.6896 H   0  0  0  0  0  0  0  0  0  0  0  0 
    1.4845    1.6074   -1.3009 H   0  0  0  0  0  0  0  0  0  0  0  0 
    0.1191    6.5229   -0.3525 H   0  0  0  0  0  0  0  0  0  0  0  0 
  1  4  1  0  0  0  0 
  1 18  1  0  0  0  0 
  2 20  1  0  0  0  0 
  2  4  1  0  0  0  0 
  3  5  1  0  0  0  0 
  3 22  1  0  0  0  0 
  4 25  1  0  0  0  0 
  4  6  1  0  0  0  0 
  5  7  1  0  0  0  0 
  5 26  1  1  0  0  0 
  6 27  1  1  0  0  0 
  7 28  1  1  0  0  0 
  7 15  1  0  0  0  0 
  8  5  1  0  0  0  0 
  9 14  2  0  0  0  0 
  9 15  1  0  0  0  0 
 10  6  1  6  0  0  0 
 10  7  1  0  0  0  0 
 10  9  1  0  0  0  0 
 11  8  2  0  0  0  0 
 11 10  1  0  0  0  0 
 12  6  1  0  0  0  0 
 13 30  1  0  0  0  0 
 13  8  1  0  0  0  0 
 16  1  1  0  0  0  0 
 17  1  1  0  0  0  0 
 19  2  1  0  0  0  0 
 21  2  1  0  0  0  0 
 23  3  1  0  0  0  0 
 24  3  1  0  0  0  0 
 29 12  1  0  0  0  0 
M  END 
>  <HBA> 
5 
 
>  <HBD> 
2 
 
>  <TPSA> 
75.63 
 
>  <cid> 
2779 
 
>  <dipole> 
7.3 
 
>  <excitation_energy_1> 
5.278 
 
>  <excitation_energy_2> 
5.686 
 
>  <excitation_energy_3> 
5.835 
 
>  <excitation_energy_4> 
6.08 
 
>  <homo_energy> 
-6.8 
 
>  <homo_lumo_gap> 
6.427 
 
>  <logP> 
-0.238 
 
>  <lumo_energy> 
-0.373 
 
>  <melting_point> 
106.59 
 
>  <molecular_refractivity> 
55.36 
 
>  <oscillator_strength_1> 
0.0277 
 
>  <oscillator_strength_2> 
0.0009 
 
>  <oscillator_strength_3> 
0.0162 
 
>  <oscillator_strength_4> 
0.0127 
 
>  <open_babel_can_smiles> 
CC([C@@H]([C@@]12N=C([C@@H]([C@H]2OC1=O)C)O)O)C 
 
>  <mulliken_charges> 
30 
1   -0.452546 
2   -0.465486 
3   -0.465617 
4   -0.081299 
5   -0.204906 
6   0.140352 
7   0.120377 
8   0.515299 
9   0.64373 
10   -0.014281 
11   -0.445214 
12   -0.630351 
13   -0.580409 
14   -0.414071 
15   -0.48153 
16   0.139635 
17   0.169782 
18   0.138502 
19   0.139012 
20   0.151038 
21   0.158683 
22   0.174068 
23   0.146187 
24   0.178225 
25   0.105975 
26   0.181205 
27   0.136373 
28   0.157363 
29   0.418563 
30   0.421342 
 
>  <lowdin_charges> 
30 
1   -0.447663 
2   -0.458617 
3   -0.445891 
4   -0.139174 
5   -0.172252 
6   -0.004775 
7   -0.006515 
8   0.126739 
9   0.189489 
10   0.004099 
11   -0.200098 
12   -0.448578 
13   -0.331272 
14   -0.184452 
15   -0.209444 
16   0.149556 
17   0.161714 
18   0.146866 
19   0.149908 
20   0.151321 
21   0.157593 
22   0.16702 
23   0.152713 
24   0.165087 
25   0.129806 
26   0.172143 
27   0.149522 
28   0.15593 
29   0.352918 
30   0.36631 
 
$$$$ 
 
