PCCDB-ID:  2438 
public computational chemistry database (PCCDB) project, http://pccdb.org 
 
 35 37  0  0  0  0  0  0  0  0999 V2000 
    0.9195   -0.0473    0.2737 C   0  0  0  0  0  0  0  0  0  0  0  0 
    9.6694   -1.2650    3.7671 C   0  0  0  0  0  0  0  0  0  0  0  0 
    9.9041   -0.6570    2.5383 C   0  0  0  0  0  0  0  0  0  0  0  0 
    4.4419   -1.1264    1.0879 C   0  0  0  0  0  0  0  0  0  0  0  0 
    4.4397    1.2958    0.4543 C   0  0  0  0  0  0  0  0  0  0  0  0 
    2.9150   -1.0612    1.1778 C   0  0  0  0  0  0  0  0  0  0  0  0 
    2.9134    1.2774    0.5731 C   0  0  0  0  0  0  0  0  0  0  0  0 
    7.2574   -0.9767    3.5360 C   0  0  0  0  0  0  0  0  0  0  0  0 
    7.3932    0.6750    0.2921 C   0  0  0  0  0  0  0  0  0  0  0  0 
    5.0818    0.2501    1.3813 C   0  0  0  0  0  0  0  0  0  0  0  0 
    8.3566   -1.4220    4.2611 C   0  0  0  0  0  0  0  0  0  0  0  0 
    7.4711   -0.3622    2.2906 C   0  0  0  0  0  0  0  0  0  0  0  0 
    6.5857    0.2113    1.3032 C   0  0  0  0  0  0  0  0  0  0  0  0 
    8.8007   -0.2100    1.8097 C   0  0  0  0  0  0  0  0  0  0  0  0 
    8.7206    0.4236    0.5836 N   0  0  0  0  0  0  0  0  0  0  0  0 
    2.3733   -0.0476    0.2732 N   0  0  0  0  0  0  0  0  0  0  0  0 
    8.1144   -2.0221    5.4757 O   0  0  0  0  0  0  0  0  0  0  0  0 
    0.5491   -1.0390   -0.0094 H   0  0  0  0  0  0  0  0  0  0  0  0 
    0.5488    0.6768   -0.4608 H   0  0  0  0  0  0  0  0  0  0  0  0 
    0.4811    0.2117    1.2587 H   0  0  0  0  0  0  0  0  0  0  0  0 
   10.5097   -1.6256    4.3579 H   0  0  0  0  0  0  0  0  0  0  0  0 
   10.9183   -0.5380    2.1663 H   0  0  0  0  0  0  0  0  0  0  0  0 
    4.7319   -1.4440    0.0783 H   0  0  0  0  0  0  0  0  0  0  0  0 
    4.8211   -1.8809    1.7872 H   0  0  0  0  0  0  0  0  0  0  0  0 
    4.8161    2.2986    0.6922 H   0  0  0  0  0  0  0  0  0  0  0  0 
    4.7090    1.0804   -0.5883 H   0  0  0  0  0  0  0  0  0  0  0  0 
    2.6151   -0.8628    2.2298 H   0  0  0  0  0  0  0  0  0  0  0  0 
    2.4825   -2.0315    0.9037 H   0  0  0  0  0  0  0  0  0  0  0  0 
    2.4744    1.9938   -0.1323 H   0  0  0  0  0  0  0  0  0  0  0  0 
    2.6207    1.6117    1.5921 H   0  0  0  0  0  0  0  0  0  0  0  0 
    6.2620   -1.1124    3.9473 H   0  0  0  0  0  0  0  0  0  0  0  0 
    7.1279    1.1754   -0.6286 H   0  0  0  0  0  0  0  0  0  0  0  0 
    4.8090    0.5198    2.4150 H   0  0  0  0  0  0  0  0  0  0  0  0 
    9.5032    0.6890    0.0078 H   0  0  0  0  0  0  0  0  0  0  0  0 
    8.9627   -2.2680    5.8741 H   0  0  0  0  0  0  0  0  0  0  0  0 
  1 20  1  0  0  0  0 
  2 11  1  0  0  0  0 
  2 21  1  0  0  0  0 
  3  2  2  0  0  0  0 
  4  6  1  0  0  0  0 
  4 10  1  0  0  0  0 
  4 24  1  0  0  0  0 
  5  7  1  0  0  0  0 
  5 25  1  0  0  0  0 
  5 10  1  0  0  0  0 
  6 27  1  0  0  0  0 
  7 30  1  0  0  0  0 
  8 31  1  0  0  0  0 
  8 11  2  0  0  0  0 
  9 15  1  0  0  0  0 
  9 13  2  0  0  0  0 
 10 33  1  0  0  0  0 
 11 17  1  0  0  0  0 
 12  8  1  0  0  0  0 
 13 10  1  0  0  0  0 
 13 12  1  0  0  0  0 
 14 12  2  0  0  0  0 
 14  3  1  0  0  0  0 
 15 14  1  0  0  0  0 
 16  1  1  0  0  0  0 
 16  7  1  0  0  0  0 
 16  6  1  0  0  0  0 
 17 35  1  0  0  0  0 
 18  1  1  0  0  0  0 
 19  1  1  0  0  0  0 
 22  3  1  0  0  0  0 
 23  4  1  0  0  0  0 
 26  5  1  0  0  0  0 
 28  6  1  0  0  0  0 
 29  7  1  0  0  0  0 
 32  9  1  0  0  0  0 
 34 15  1  0  0  0  0 
M  END 
>  <HBA> 
2 
 
>  <HBD> 
2 
 
>  <TPSA> 
39.26 
 
>  <cid> 
2438 
 
>  <dipole> 
2.59 
 
>  <excitation_energy_1> 
4.293 
 
>  <excitation_energy_2> 
4.554 
 
>  <excitation_energy_3> 
4.66 
 
>  <excitation_energy_4> 
4.689 
 
>  <homo_energy> 
-5.089 
 
>  <homo_lumo_gap> 
4.98 
 
>  <logP> 
2.621 
 
>  <lumo_energy> 
-0.109 
 
>  <melting_point> 
162.63 
 
>  <molecular_refractivity> 
74.02 
 
>  <oscillator_strength_1> 
0.0596 
 
>  <oscillator_strength_2> 
0.0001 
 
>  <oscillator_strength_3> 
0.0858 
 
>  <oscillator_strength_4> 
0.0001 
 
>  <open_babel_can_smiles> 
CN1CCC(CC1)c1c[nH]c2c1cc(O)cc2 
 
>  <mulliken_charges> 
35 
1   -0.288776 
2   -0.218835 
3   -0.167477 
4   -0.260792 
5   -0.268863 
6   -0.117085 
7   -0.118489 
8   -0.259785 
9   -0.008618 
10   -0.169405 
11   0.353877 
12   0.07675 
13   0.076014 
14   0.317915 
15   -0.705113 
16   -0.378864 
17   -0.656265 
18   0.14605 
19   0.144844 
20   0.115504 
21   0.110486 
22   0.122494 
23   0.139094 
24   0.140217 
25   0.134247 
26   0.136458 
27   0.103099 
28   0.135096 
29   0.132731 
30   0.10412 
31   0.131977 
32   0.146881 
33   0.12518 
34   0.323285 
35   0.402046 
 
>  <lowdin_charges> 
35 
1   -0.35575 
2   -0.219447 
3   -0.176716 
4   -0.279891 
5   -0.277418 
6   -0.199339 
7   -0.19992 
8   -0.200506 
9   -0.136089 
10   -0.120265 
11   0.092021 
12   -0.023016 
13   -0.063325 
14   0.018884 
15   -0.208124 
16   -0.188116 
17   -0.393833 
18   0.148278 
19   0.149008 
20   0.11902 
21   0.15153 
22   0.155426 
23   0.145882 
24   0.151068 
25   0.146305 
26   0.141698 
27   0.11025 
28   0.14432 
29   0.14481 
30   0.111453 
31   0.164111 
32   0.163706 
33   0.140011 
34   0.290671 
35   0.353304 
 
$$$$ 
 
