PCCDB-ID:  6168 
public computational chemistry database (PCCDB) project, http://pccdb.org 
 
 29 29  0  0  0  0  0  0  0  0999 V2000 
    4.0198   -1.5018   -0.8832 C   0  0  0  0  0  0  0  0  0  0  0  0 
    4.8188    4.7010   -3.0056 C   0  0  0  0  0  0  0  0  0  0  0  0 
    2.5741    2.7684    3.0009 C   0  0  0  0  0  0  0  0  0  0  0  0 
    2.6842   -0.7728   -1.0307 C   0  0  0  0  0  0  0  0  0  0  0  0 
    2.8958    1.0917   -2.6677 C   0  0  0  0  0  0  0  0  0  0  0  0 
    3.0850    2.8563   -1.4660 C   0  0  0  0  0  0  0  0  0  0  0  0 
    2.9501    1.7783   -0.5791 C   0  0  0  0  0  0  0  0  0  0  0  0 
    3.2672    4.3265   -1.2178 C   0  0  0  0  0  0  0  0  0  0  0  0 
    2.9011    1.7532    0.8806 C   0  0  0  0  0  0  0  0  0  0  0  0 
    3.9932    5.1205   -1.8933 N   0  0  0  0  0  0  0  0  0  0  0  0 
    2.5249    2.7777    1.5478 N   0  0  0  0  0  0  0  0  0  0  0  0 
    3.0488    2.3945   -2.7572 N   0  0  0  0  0  0  0  0  0  0  0  0 
    2.8369    0.6458   -1.3855 N   0  0  0  0  0  0  0  0  0  0  0  0 
    2.5238    4.8604   -0.2172 O   0  0  0  0  0  0  0  0  0  0  0  0 
    3.3035    0.5640    1.4240 O   0  0  0  0  0  0  0  0  0  0  0  0 
    3.8397   -2.5568   -0.6476 H   0  0  0  0  0  0  0  0  0  0  0  0 
    4.6133   -1.0628   -0.0779 H   0  0  0  0  0  0  0  0  0  0  0  0 
    4.5978   -1.4537   -1.8121 H   0  0  0  0  0  0  0  0  0  0  0  0 
    5.6838    5.3733   -3.0587 H   0  0  0  0  0  0  0  0  0  0  0  0 
    4.2684    4.8006   -3.9501 H   0  0  0  0  0  0  0  0  0  0  0  0 
    5.1822    3.6661   -2.9528 H   0  0  0  0  0  0  0  0  0  0  0  0 
    3.5547    2.4564    3.3954 H   0  0  0  0  0  0  0  0  0  0  0  0 
    1.8010    2.1147    3.4343 H   0  0  0  0  0  0  0  0  0  0  0  0 
    2.3844    3.7804    3.3653 H   0  0  0  0  0  0  0  0  0  0  0  0 
    2.1021   -0.8358   -0.1113 H   0  0  0  0  0  0  0  0  0  0  0  0 
    2.0881   -1.2246   -1.8300 H   0  0  0  0  0  0  0  0  0  0  0  0 
    2.8068    0.4128   -3.5066 H   0  0  0  0  0  0  0  0  0  0  0  0 
    2.2963    4.1563    0.4390 H   0  0  0  0  0  0  0  0  0  0  0  0 
    3.1960    0.6031    2.3890 H   0  0  0  0  0  0  0  0  0  0  0  0 
  1 16  1  0  0  0  0 
  1 17  1  0  0  0  0 
  2 21  1  0  0  0  0 
  2 10  1  0  0  0  0 
  3 24  1  0  0  0  0 
  3 22  1  0  0  0  0 
  3 23  1  0  0  0  0 
  4  1  1  0  0  0  0 
  4 25  1  0  0  0  0 
  5 13  1  0  0  0  0 
  6  8  1  0  0  0  0 
  6  7  2  0  0  0  0 
  7  9  1  0  0  0  0 
  8 14  1  0  0  0  0 
  9 15  1  0  0  0  0 
  9 11  2  0  0  0  0 
 10  8  2  0  0  0  0 
 11  3  1  0  0  0  0 
 12  5  2  0  0  0  0 
 12  6  1  0  0  0  0 
 13  4  1  0  0  0  0 
 13  7  1  0  0  0  0 
 14 28  1  0  0  0  0 
 15 29  1  0  0  0  0 
 18  1  1  0  0  0  0 
 19  2  1  0  0  0  0 
 20  2  1  0  0  0  0 
 26  4  1  0  0  0  0 
 27  5  1  0  0  0  0 
M  END 
>  <HBA> 
6 
 
>  <HBD> 
2 
 
>  <TPSA> 
76.02 
 
>  <cid> 
6168 
 
>  <dipole> 
9.56 
 
>  <excitation_energy_1> 
3.745 
 
>  <excitation_energy_2> 
3.964 
 
>  <excitation_energy_3> 
4.796 
 
>  <excitation_energy_4> 
4.847 
 
>  <homo_energy> 
-5.753 
 
>  <homo_lumo_gap> 
4.523 
 
>  <logP> 
0.404 
 
>  <lumo_energy> 
-1.23 
 
>  <melting_point> 
146.48 
 
>  <molecular_refractivity> 
54.29 
 
>  <oscillator_strength_1> 
0.0019 
 
>  <oscillator_strength_2> 
0.0753 
 
>  <oscillator_strength_3> 
0.0243 
 
>  <oscillator_strength_4> 
0.1903 
 
>  <open_babel_can_smiles> 
CCn1cnc(c1/C(=N/C)/O)/C(=N\C)/O 
 
>  <mulliken_charges> 
29 
1   -0.44613 
2   -0.298218 
3   -0.369095 
4   -0.145592 
5   0.212148 
6   0.11373 
7   0.268206 
8   0.452505 
9   0.505958 
10   -0.416142 
11   -0.501031 
12   -0.466269 
13   -0.452783 
14   -0.631098 
15   -0.617292 
16   0.154135 
17   0.179463 
18   0.159375 
19   0.138313 
20   0.155049 
21   0.128367 
22   0.153477 
23   0.158638 
24   0.194291 
25   0.17604 
26   0.164554 
27   0.163365 
28   0.439161 
29   0.426873 
 
>  <lowdin_charges> 
29 
1   -0.450287 
2   -0.354665 
3   -0.372154 
4   -0.190885 
5   -0.085369 
6   -0.00839 
7   -0.038846 
8   0.120694 
9   0.14262 
10   -0.199773 
11   -0.230734 
12   -0.163809 
13   0.00205 
14   -0.395126 
15   -0.365055 
16   0.157734 
17   0.167027 
18   0.157066 
19   0.142292 
20   0.153317 
21   0.131959 
22   0.144829 
23   0.150371 
24   0.175021 
25   0.166003 
26   0.160118 
27   0.171712 
28   0.347536 
29   0.364744 
 
$$$$ 
 
