PCCDB-ID:  3470 
public computational chemistry database (PCCDB) project, http://pccdb.org 
 
 39 39  0  0  1  0  0  0  0  0999 V2000 
    1.1731    0.9055   -0.5598 C   0  0  0  0  0  0  0  0  0  0  0  0 
    2.1265   -0.9809   -1.8416 C   0  0  0  0  0  0  0  0  0  0  0  0 
    2.0525   -0.1501    4.7128 C   0  0  0  0  0  0  0  0  0  0  0  0 
    5.3349    1.0207    3.5963 C   0  0  0  0  0  0  0  0  0  0  0  0 
    2.5481    2.8468    4.1097 C   0  0  0  0  0  0  0  0  0  0  0  0 
    1.5227    1.9663    3.4531 C   0  0  0  0  0  0  0  0  0  0  0  0 
    3.7937    3.0294    3.1619 C   0  0  0  0  0  0  0  0  0  0  0  0 
    0.6050   -0.1913    2.6122 C   0  0  0  0  0  0  0  0  0  0  0  0 
    3.7634    1.1350    1.6104 C   0  0  0  0  0  0  0  0  0  0  0  0 
    1.4310   -1.2515    1.8262 C   0  0  0  0  0  0  0  0  0  0  0  0 
    3.8289   -0.2777    1.1084 C   0  0  0  0  0  0  0  0  0  0  0  0 
    1.8594   -0.2442   -0.5480 C   0  0  0  0  0  0  0  0  0  0  0  0 
    1.3915    0.6382    3.6045 C   0  0  0  0  0  0  0  0  0  0  0  0 
    4.3272    1.6904    2.6954 C   0  0  0  0  0  0  0  0  0  0  0  0 
    2.4530   -0.9124    0.6939 C   0  0  2  0  0  0  0  0  0  0  0  0 
    0.7957    1.3208   -1.4917 H   0  0  0  0  0  0  0  0  0  0  0  0 
    0.9650    1.4796    0.3350 H   0  0  0  0  0  0  0  0  0  0  0  0 
    1.7372   -0.4408   -2.7104 H   0  0  0  0  0  0  0  0  0  0  0  0 
    1.6696   -1.9804   -1.8273 H   0  0  0  0  0  0  0  0  0  0  0  0 
    3.2044   -1.1350   -1.9920 H   0  0  0  0  0  0  0  0  0  0  0  0 
    2.3948    0.4833    5.5348 H   0  0  0  0  0  0  0  0  0  0  0  0 
    2.9207   -0.7168    4.3524 H   0  0  0  0  0  0  0  0  0  0  0  0 
    1.3494   -0.8839    5.1299 H   0  0  0  0  0  0  0  0  0  0  0  0 
    4.9856    0.9791    4.6371 H   0  0  0  0  0  0  0  0  0  0  0  0 
    6.2740    1.5921    3.6089 H   0  0  0  0  0  0  0  0  0  0  0  0 
    5.5775    0.0015    3.2820 H   0  0  0  0  0  0  0  0  0  0  0  0 
    2.8867    2.4281    5.0634 H   0  0  0  0  0  0  0  0  0  0  0  0 
    2.1409    3.8427    4.3285 H   0  0  0  0  0  0  0  0  0  0  0  0 
    0.9832    2.4330    2.6263 H   0  0  0  0  0  0  0  0  0  0  0  0 
    4.5548    3.6130    3.6970 H   0  0  0  0  0  0  0  0  0  0  0  0 
    3.4783    3.6279    2.2986 H   0  0  0  0  0  0  0  0  0  0  0  0 
   -0.1628   -0.7679    3.1521 H   0  0  0  0  0  0  0  0  0  0  0  0 
    0.0630    0.4549    1.9152 H   0  0  0  0  0  0  0  0  0  0  0  0 
    3.0949    1.7703    1.0329 H   0  0  0  0  0  0  0  0  0  0  0  0 
    0.6935   -1.9176    1.3580 H   0  0  0  0  0  0  0  0  0  0  0  0 
    1.9652   -1.8781    2.5535 H   0  0  0  0  0  0  0  0  0  0  0  0 
    4.2923   -0.9398    1.8505 H   0  0  0  0  0  0  0  0  0  0  0  0 
    4.4687   -0.3326    0.2130 H   0  0  0  0  0  0  0  0  0  0  0  0 
    2.7509   -1.9164    0.3572 H   0  0  0  0  0  0  0  0  0  0  0  0 
  1 12  2  0  0  0  0 
  1 17  1  0  0  0  0 
  2 19  1  0  0  0  0 
  2 12  1  0  0  0  0 
  3 23  1  0  0  0  0 
  3 21  1  0  0  0  0 
  4 25  1  0  0  0  0 
  4 24  1  0  0  0  0 
  5 28  1  0  0  0  0 
  5 27  1  0  0  0  0 
  6 13  2  0  0  0  0 
  6  5  1  0  0  0  0 
  7 30  1  0  0  0  0 
  7  5  1  0  0  0  0 
  8 32  1  0  0  0  0 
  8 13  1  0  0  0  0 
  9 14  2  0  0  0  0 
 10 36  1  0  0  0  0 
 10  8  1  0  0  0  0 
 11  9  1  0  0  0  0 
 11 37  1  0  0  0  0 
 12 15  1  0  0  0  0 
 13  3  1  0  0  0  0 
 14  7  1  0  0  0  0 
 14  4  1  0  0  0  0 
 15 39  1  6  0  0  0 
 15 11  1  0  0  0  0 
 15 10  1  0  0  0  0 
 16  1  1  0  0  0  0 
 18  2  1  0  0  0  0 
 20  2  1  0  0  0  0 
 22  3  1  0  0  0  0 
 26  4  1  0  0  0  0 
 29  6  1  0  0  0  0 
 31  7  1  0  0  0  0 
 33  8  1  0  0  0  0 
 34  9  1  0  0  0  0 
 35 10  1  0  0  0  0 
 38 11  1  0  0  0  0 
M  END 
>  <HBA> 
0 
 
>  <HBD> 
0 
 
>  <TPSA> 
0.0 
 
>  <cid> 
3470 
 
>  <dipole> 
0.86 
 
>  <excitation_energy_1> 
5.144 
 
>  <excitation_energy_2> 
5.248 
 
>  <excitation_energy_3> 
5.323 
 
>  <excitation_energy_4> 
5.348 
 
>  <homo_energy> 
-5.627 
 
>  <homo_lumo_gap> 
6.212 
 
>  <logP> 
5.035 
 
>  <lumo_energy> 
0.585 
 
>  <melting_point> 
-0.72 
 
>  <molecular_refractivity> 
70.68 
 
>  <oscillator_strength_1> 
0.0011 
 
>  <oscillator_strength_2> 
0.0058 
 
>  <oscillator_strength_3> 
0.0331 
 
>  <oscillator_strength_4> 
0.0072 
 
>  <open_babel_can_smiles> 
C/C/1=C\CC/C(=C/C[C@@H](CC1)C(=C)C)/C 
 
>  <mulliken_charges> 
39 
1   -0.401773 
2   -0.515815 
3   -0.524798 
4   -0.520327 
5   -0.300455 
6   -0.173772 
7   -0.333244 
8   -0.329397 
9   -0.134608 
10   -0.265213 
11   -0.311815 
12   0.219649 
13   0.22052 
14   0.182103 
15   -0.154161 
16   0.129606 
17   0.14459 
18   0.151017 
19   0.153258 
20   0.153663 
21   0.152607 
22   0.160347 
23   0.145124 
24   0.148395 
25   0.151614 
26   0.148796 
27   0.136772 
28   0.135527 
29   0.108589 
30   0.129458 
31   0.141304 
32   0.129585 
33   0.14178 
34   0.117568 
35   0.134234 
36   0.130723 
37   0.132111 
38   0.14017 
39   0.126267 
 
>  <lowdin_charges> 
39 
1   -0.371776 
2   -0.439367 
3   -0.450435 
4   -0.443465 
5   -0.274931 
6   -0.188797 
7   -0.274671 
8   -0.279208 
9   -0.185854 
10   -0.276428 
11   -0.272561 
12   0.007331 
13   -0.00695 
14   -0.019936 
15   -0.123814 
16   0.153442 
17   0.156935 
18   0.154837 
19   0.153709 
20   0.152335 
21   0.155968 
22   0.157653 
23   0.153245 
24   0.14978 
25   0.155252 
26   0.1517 
27   0.144296 
28   0.146687 
29   0.142213 
30   0.143641 
31   0.148573 
32   0.145476 
33   0.151518 
34   0.152944 
35   0.14814 
36   0.143362 
37   0.144738 
38   0.148846 
39   0.145571 
 
$$$$ 
 
