PCCDB-ID:  6293 
public computational chemistry database (PCCDB) project, http://pccdb.org 
 
 26 28  0  0  0  0  0  0  0  0999 V2000 
    3.6909    0.7246    0.0016 C   0  0  0  0  0  0  0  0  0  0  0  0 
    3.6976   -0.6759    0.0009 C   0  0  0  0  0  0  0  0  0  0  0  0 
    2.4826    1.4145    0.0023 C   0  0  0  0  0  0  0  0  0  0  0  0 
    2.4978   -1.3816    0.0005 C   0  0  0  0  0  0  0  0  0  0  0  0 
   -2.4704    1.3986    0.0012 C   0  0  0  0  0  0  0  0  0  0  0  0 
   -3.6932    0.7297    0.0004 C   0  0  0  0  0  0  0  0  0  0  0  0 
    1.2720    0.7102    0.0034 C   0  0  0  0  0  0  0  0  0  0  0  0 
    1.2773   -0.6956    0.0022 C   0  0  0  0  0  0  0  0  0  0  0  0 
   -1.2757    0.6820    0.0025 C   0  0  0  0  0  0  0  0  0  0  0  0 
   -3.7103   -0.6570   -0.0001 C   0  0  0  0  0  0  0  0  0  0  0  0 
   -1.2758   -0.7395    0.0022 C   0  0  0  0  0  0  0  0  0  0  0  0 
   -0.0082    1.4661    0.0036 C   0  0  0  0  0  0  0  0  0  0  0  0 
    0.0096   -1.4944    0.0024 C   0  0  0  0  0  0  0  0  0  0  0  0 
   -2.5126   -1.4104    0.0002 C   0  0  0  0  0  0  0  0  0  0  0  0 
   -4.8515   -1.4184   -0.0022 O   0  0  0  0  0  0  0  0  0  0  0  0 
   -0.0206    2.6943    0.0045 O   0  0  0  0  0  0  0  0  0  0  0  0 
    0.0578   -2.7182    0.0026 O   0  0  0  0  0  0  0  0  0  0  0  0 
   -2.6019   -2.7573   -0.0032 O   0  0  0  0  0  0  0  0  0  0  0  0 
    4.6289    1.2730    0.0013 H   0  0  0  0  0  0  0  0  0  0  0  0 
    4.6416   -1.2141    0.0007 H   0  0  0  0  0  0  0  0  0  0  0  0 
    2.4465    2.4989    0.0016 H   0  0  0  0  0  0  0  0  0  0  0  0 
    2.4766   -2.4662   -0.0018 H   0  0  0  0  0  0  0  0  0  0  0  0 
   -2.4218    2.4814   -0.0002 H   0  0  0  0  0  0  0  0  0  0  0  0 
   -4.6294    1.2846    0.0002 H   0  0  0  0  0  0  0  0  0  0  0  0 
   -5.6340   -0.8466    0.0014 H   0  0  0  0  0  0  0  0  0  0  0  0 
   -3.5494   -2.9845    0.0024 H   0  0  0  0  0  0  0  0  0  0  0  0 
  1  3  2  0  0  0  0 
  2  1  1  0  0  0  0 
  3  7  1  0  0  0  0 
  4  2  2  0  0  0  0 
  4  8  1  0  0  0  0 
  5  9  1  0  0  0  0 
  6  5  2  0  0  0  0 
  7 12  1  0  0  0  0 
  8 13  1  0  0  0  0 
  8  7  2  0  0  0  0 
  9 12  1  0  0  0  0 
 10 14  2  0  0  0  0 
 10  6  1  0  0  0  0 
 11 13  1  0  0  0  0 
 11  9  2  0  0  0  0 
 12 16  2  0  0  0  0 
 13 17  2  0  0  0  0 
 14 11  1  0  0  0  0 
 15 10  1  0  0  0  0 
 15 25  1  0  0  0  0 
 18 14  1  0  0  0  0 
 18 26  1  0  0  0  0 
 19  1  1  0  0  0  0 
 20  2  1  0  0  0  0 
 21  3  1  0  0  0  0 
 22  4  1  0  0  0  0 
 23  5  1  0  0  0  0 
 24  6  1  0  0  0  0 
M  END 
>  <HBA> 
4 
 
>  <HBD> 
2 
 
>  <TPSA> 
74.6 
 
>  <cid> 
6293 
 
>  <dipole> 
3.19 
 
>  <excitation_energy_1> 
2.881 
 
>  <excitation_energy_2> 
3.219 
 
>  <excitation_energy_3> 
3.222 
 
>  <excitation_energy_4> 
3.683 
 
>  <homo_energy> 
-6.212 
 
>  <homo_lumo_gap> 
3.695 
 
>  <logP> 
1.873 
 
>  <lumo_energy> 
-2.517 
 
>  <melting_point> 
204.83 
 
>  <molecular_refractivity> 
63.8 
 
>  <oscillator_strength_1> 
0.0 
 
>  <oscillator_strength_2> 
0.1179 
 
>  <oscillator_strength_3> 
0.0053 
 
>  <oscillator_strength_4> 
0.002 
 
>  <open_babel_can_smiles> 
O=C1c2ccccc2C(=O)c2c1ccc(c2O)O 
 
>  <mulliken_charges> 
26 
1   -0.12724 
2   -0.124658 
3   -0.171707 
4   -0.175057 
5   -0.18702 
6   -0.188306 
7   0.04962 
8   0.046048 
9   0.028243 
10   0.329333 
11   0.023298 
12   0.338152 
13   0.35323 
14   0.257979 
15   -0.67375 
16   -0.488964 
17   -0.46227 
18   -0.609138 
19   0.142094 
20   0.142478 
21   0.165388 
22   0.168062 
23   0.169577 
24   0.136782 
25   0.425706 
26   0.432119 
 
>  <lowdin_charges> 
26 
1   -0.142586 
2   -0.140286 
3   -0.126604 
4   -0.127627 
5   -0.134089 
6   -0.188831 
7   -0.037724 
8   -0.033638 
9   -0.044838 
10   0.069708 
11   -0.063821 
12   0.149588 
13   0.148405 
14   0.104693 
15   -0.386251 
16   -0.251179 
17   -0.224933 
18   -0.331283 
19   0.164031 
20   0.16415 
21   0.176289 
22   0.177585 
23   0.180288 
24   0.162553 
25   0.371875 
26   0.364525 
 
$$$$ 
 
