PCCDB-ID:  49 
public computational chemistry database (PCCDB) project, http://pccdb.org 
 
 16 15  0  0  0  0  0  0  0  0999 V2000 
    2.0632   -0.3846   -0.8160 C   0  0  0  0  0  0  0  0  0  0  0  0 
    2.3391    1.8610    0.3637 C   0  0  0  0  0  0  0  0  0  0  0  0 
    2.8669    0.4309    0.2246 C   0  0  0  0  0  0  0  0  0  0  0  0 
    2.8298   -0.2942    1.5589 C   0  0  0  0  0  0  0  0  0  0  0  0 
    3.7120   -1.5655    1.6516 C   0  0  0  0  0  0  0  0  0  0  0  0 
    2.1715    0.0512    2.5151 O   0  0  0  0  0  0  0  0  0  0  0  0 
    3.5076   -2.2405    2.7939 O   0  0  0  0  0  0  0  0  0  0  0  0 
    4.5019   -1.9001    0.7949 O   0  0  0  0  0  0  0  0  0  0  0  0 
    2.1068    0.1178   -1.7881 H   0  0  0  0  0  0  0  0  0  0  0  0 
    1.0102   -0.4615   -0.5214 H   0  0  0  0  0  0  0  0  0  0  0  0 
    2.4695   -1.3927   -0.9380 H   0  0  0  0  0  0  0  0  0  0  0  0 
    2.3838    2.3743   -0.6027 H   0  0  0  0  0  0  0  0  0  0  0  0 
    2.9285    2.4362    1.0850 H   0  0  0  0  0  0  0  0  0  0  0  0 
    1.3008    1.8624    0.7096 H   0  0  0  0  0  0  0  0  0  0  0  0 
    3.9128    0.4394   -0.1071 H   0  0  0  0  0  0  0  0  0  0  0  0 
    4.1091   -3.0092    2.7693 H   0  0  0  0  0  0  0  0  0  0  0  0 
  1 10  1  0  0  0  0 
  1  3  1  0  0  0  0 
  2 14  1  0  0  0  0 
  2 13  1  0  0  0  0 
  3  2  1  0  0  0  0 
  3  4  1  0  0  0  0 
  4  5  1  0  0  0  0 
  4  6  2  0  0  0  0 
  5  7  1  0  0  0  0 
  8  5  2  0  0  0  0 
  9  1  1  0  0  0  0 
 11  1  1  0  0  0  0 
 12  2  1  0  0  0  0 
 15  3  1  0  0  0  0 
 16  7  1  0  0  0  0 
M  END 
>  <HBA> 
3 
 
>  <HBD> 
1 
 
>  <TPSA> 
54.37 
 
>  <cid> 
49 
 
>  <dipole> 
1.27 
 
>  <excitation_energy_1> 
3.202 
 
>  <excitation_energy_2> 
5.044 
 
>  <excitation_energy_3> 
6.085 
 
>  <excitation_energy_4> 
6.245 
 
>  <homo_energy> 
-6.963 
 
>  <homo_lumo_gap> 
4.838 
 
>  <logP> 
0.296 
 
>  <lumo_energy> 
-2.125 
 
>  <melting_point> 
72.65 
 
>  <molecular_refractivity> 
28.12 
 
>  <oscillator_strength_1> 
0.0001 
 
>  <oscillator_strength_2> 
0.0008 
 
>  <oscillator_strength_3> 
0.006 
 
>  <oscillator_strength_4> 
0.0281 
 
>  <open_babel_can_smiles> 
CC(C(=O)C(=O)O)C 
 
>  <mulliken_charges> 
16 
1   -0.462524 
2   -0.440246 
3   -0.162321 
4   0.405144 
5   0.525628 
6   -0.414015 
7   -0.537131 
8   -0.449552 
9   0.160818 
10   0.157554 
11   0.169516 
12   0.144507 
13   0.154719 
14   0.163178 
15   0.168708 
16   0.416018 
 
>  <lowdin_charges> 
16 
1   -0.437418 
2   -0.439561 
3   -0.148854 
4   0.136702 
5   0.160543 
6   -0.181565 
7   -0.319721 
8   -0.247509 
9   0.159964 
10   0.152997 
11   0.161309 
12   0.152475 
13   0.15845 
14   0.158781 
15   0.165927 
16   0.367481 
 
$$$$ 
 
