PCCDB-ID:  4756 
public computational chemistry database (PCCDB) project, http://pccdb.org 
 
 27 28  0  0  0  0  0  0  0  0999 V2000 
   -1.1556   -0.4799    0.6863 C   0  0  0  0  0  0  0  0  0  0  0  0 
   -0.7007    0.7240    0.1455 C   0  0  0  0  0  0  0  0  0  0  0  0 
   -0.2490   -1.5229    0.9097 C   0  0  0  0  0  0  0  0  0  0  0  0 
    0.6474    0.8833   -0.1692 C   0  0  0  0  0  0  0  0  0  0  0  0 
    1.0978   -1.3715    0.5981 C   0  0  0  0  0  0  0  0  0  0  0  0 
    5.9060   -1.8194   -0.1552 C   0  0  0  0  0  0  0  0  0  0  0  0 
    7.2411   -1.7921   -0.4120 C   0  0  0  0  0  0  0  0  0  0  0  0 
    1.5593   -0.1599    0.0523 C   0  0  0  0  0  0  0  0  0  0  0  0 
    5.0345   -0.7099   -0.4000 C   0  0  0  0  0  0  0  0  0  0  0  0 
    7.8656   -0.6063   -0.9614 C   0  0  0  0  0  0  0  0  0  0  0  0 
    5.6306    0.4651   -0.9408 C   0  0  0  0  0  0  0  0  0  0  0  0 
    9.0906   -0.3630   -1.2766 N   0  0  0  0  0  0  0  0  0  0  0  0 
    4.9127    1.5658   -1.2101 N   0  0  0  0  0  0  0  0  0  0  0  0 
    6.9641    0.4624   -1.1881 N   0  0  0  0  0  0  0  0  0  0  0  0 
    2.9031    0.0999   -0.2988 N   0  0  0  0  0  0  0  0  0  0  0  0 
    3.7118   -0.8740   -0.0910 N   0  0  0  0  0  0  0  0  0  0  0  0 
   -2.2061   -0.6068    0.9330 H   0  0  0  0  0  0  0  0  0  0  0  0 
   -1.3959    1.5403   -0.0322 H   0  0  0  0  0  0  0  0  0  0  0  0 
   -0.5987   -2.4623    1.3308 H   0  0  0  0  0  0  0  0  0  0  0  0 
    1.0146    1.8149   -0.5909 H   0  0  0  0  0  0  0  0  0  0  0  0 
    1.8084   -2.1724    0.7671 H   0  0  0  0  0  0  0  0  0  0  0  0 
    5.4365   -2.7079    0.2574 H   0  0  0  0  0  0  0  0  0  0  0  0 
    7.8742   -2.6502   -0.2143 H   0  0  0  0  0  0  0  0  0  0  0  0 
    9.6675   -1.1829   -1.0834 H   0  0  0  0  0  0  0  0  0  0  0  0 
    3.9094    1.4887   -0.9992 H   0  0  0  0  0  0  0  0  0  0  0  0 
    5.3334    2.4011   -1.5900 H   0  0  0  0  0  0  0  0  0  0  0  0 
    7.4121    1.2880   -1.5721 H   0  0  0  0  0  0  0  0  0  0  0  0 
  1  3  1  0  0  0  0 
  1 17  1  0  0  0  0 
  2  1  2  0  0  0  0 
  3 19  1  0  0  0  0 
  4  8  2  0  0  0  0 
  4  2  1  0  0  0  0 
  5 21  1  0  0  0  0 
  5  3  2  0  0  0  0 
  6 22  1  0  0  0  0 
  7 23  1  0  0  0  0 
  7  6  2  0  0  0  0 
  8  5  1  0  0  0  0 
  9  6  1  0  0  0  0 
  9 16  1  0  0  0  0 
 10  7  1  0  0  0  0 
 11  9  2  0  0  0  0 
 12 24  1  0  0  0  0 
 12 10  2  0  0  0  0 
 13 25  1  0  0  0  0 
 13 11  1  0  0  0  0 
 14 10  1  0  0  0  0 
 14 11  1  0  0  0  0 
 15 16  1  0  0  0  0 
 15  8  1  0  0  0  0 
 18  2  1  0  0  0  0 
 20  4  1  0  0  0  0 
 26 13  1  0  0  0  0 
 27 14  1  0  0  0  0 
M  RAD  2  15   2  16   2 
M  END 
>  <HBA> 
5 
 
>  <HBD> 
2 
 
>  <TPSA> 
89.65 
 
>  <cid> 
4756 
 
>  <dipole> 
1.79 
 
>  <excitation_energy_1> 
3.088 
 
>  <excitation_energy_2> 
3.127 
 
>  <excitation_energy_3> 
3.822 
 
>  <excitation_energy_4> 
4.158 
 
>  <homo_energy> 
-5.015 
 
>  <homo_lumo_gap> 
3.29 
 
>  <logP> 
3.824 
 
>  <lumo_energy> 
-1.725 
 
>  <melting_point> 
176.63 
 
>  <molecular_refractivity> 
63.66 
 
>  <oscillator_strength_1> 
0.0044 
 
>  <oscillator_strength_2> 
0.7586 
 
>  <oscillator_strength_3> 
0.2642 
 
>  <oscillator_strength_4> 
0.0035 
 
>  <open_babel_can_smiles> 
N=c1ccc(c([nH]1)N)[N][N]c1ccccc1 
 
>  <mulliken_charges> 
27 
1   -0.124246 
2   -0.139395 
3   -0.145021 
4   -0.152074 
5   -0.139298 
6   -0.097504 
7   -0.221897 
8   0.306705 
9   0.225414 
10   0.499711 
11   0.646462 
12   -0.671215 
13   -0.796029 
14   -0.73048 
15   -0.425038 
16   -0.322969 
17   0.12727 
18   0.127889 
19   0.129803 
20   0.119343 
21   0.147376 
22   0.152584 
23   0.134583 
24   0.285726 
25   0.39256 
26   0.335529 
27   0.334213 
 
>  <lowdin_charges> 
27 
1   -0.159518 
2   -0.158003 
3   -0.152207 
4   -0.165145 
5   -0.166238 
6   -0.113302 
7   -0.240062 
8   0.022387 
9   -0.083975 
10   0.095142 
11   0.151406 
12   -0.453378 
13   -0.436575 
14   -0.199211 
15   -0.159849 
16   -0.073089 
17   0.155549 
18   0.157936 
19   0.157198 
20   0.155369 
21   0.170548 
22   0.174524 
23   0.167071 
24   0.257122 
25   0.30957 
26   0.29012 
27   0.29661 
 
$$$$ 
 
