PCCDB-ID:  1733 
public computational chemistry database (PCCDB) project, http://pccdb.org 
 
 21 22  0  0  0  0  0  0  0  0999 V2000 
    0.9443   -0.0390    0.1681 C   0  0  0  0  0  0  0  0  0  0  0  0 
    7.3769    1.1107   -0.1512 C   0  0  0  0  0  0  0  0  0  0  0  0 
    6.7246    2.3673   -0.1197 C   0  0  0  0  0  0  0  0  0  0  0  0 
    6.6374   -0.0499   -0.1117 C   0  0  0  0  0  0  0  0  0  0  0  0 
    5.3502    2.4540   -0.0500 C   0  0  0  0  0  0  0  0  0  0  0  0 
    2.4300    2.5066    0.0952 C   0  0  0  0  0  0  0  0  0  0  0  0 
    4.4081   -1.1533    0.0024 C   0  0  0  0  0  0  0  0  0  0  0  0 
    2.4439    0.0509    0.0967 C   0  0  0  0  0  0  0  0  0  0  0  0 
    5.2229    0.0097   -0.0404 C   0  0  0  0  0  0  0  0  0  0  0  0 
    4.5674    1.2734   -0.0095 C   0  0  0  0  0  0  0  0  0  0  0  0 
    3.1346    1.2613    0.0616 C   0  0  0  0  0  0  0  0  0  0  0  0 
    1.8786    3.5318    0.1216 N   0  0  0  0  0  0  0  0  0  0  0  0 
    3.0952   -1.1466    0.0669 N   0  0  0  0  0  0  0  0  0  0  0  0 
    0.4677    0.9416    0.2254 H   0  0  0  0  0  0  0  0  0  0  0  0 
    0.6520   -0.6310    1.0424 H   0  0  0  0  0  0  0  0  0  0  0  0 
    0.5636   -0.5678   -0.7135 H   0  0  0  0  0  0  0  0  0  0  0  0 
    8.4607    1.0687   -0.2068 H   0  0  0  0  0  0  0  0  0  0  0  0 
    7.3180    3.2768   -0.1506 H   0  0  0  0  0  0  0  0  0  0  0  0 
    7.1232   -1.0223   -0.1341 H   0  0  0  0  0  0  0  0  0  0  0  0 
    4.8570    3.4209   -0.0254 H   0  0  0  0  0  0  0  0  0  0  0  0 
    4.8876   -2.1331   -0.0185 H   0  0  0  0  0  0  0  0  0  0  0  0 
  1 14  1  0  0  0  0 
  1 15  1  0  0  0  0 
  2  3  2  0  0  0  0 
  2  4  1  0  0  0  0 
  3  5  1  0  0  0  0 
  4  9  2  0  0  0  0 
  5 20  1  0  0  0  0 
  5 10  2  0  0  0  0 
  6 12  3  0  0  0  0 
  7 13  2  0  0  0  0 
  8  1  1  0  0  0  0 
  9 10  1  0  0  0  0 
  9  7  1  0  0  0  0 
 10 11  1  0  0  0  0 
 11  6  1  0  0  0  0 
 11  8  2  0  0  0  0 
 13  8  1  0  0  0  0 
 16  1  1  0  0  0  0 
 17  2  1  0  0  0  0 
 18  3  1  0  0  0  0 
 19  4  1  0  0  0  0 
 21  7  1  0  0  0  0 
M  END 
>  <HBA> 
2 
 
>  <HBD> 
0 
 
>  <TPSA> 
36.68 
 
>  <cid> 
1733 
 
>  <dipole> 
4.05 
 
>  <excitation_energy_1> 
4.017 
 
>  <excitation_energy_2> 
4.088 
 
>  <excitation_energy_3> 
4.461 
 
>  <excitation_energy_4> 
5.144 
 
>  <homo_energy> 
-6.577 
 
>  <homo_lumo_gap> 
4.476 
 
>  <logP> 
2.415 
 
>  <lumo_energy> 
-2.101 
 
>  <melting_point> 
106.73 
 
>  <molecular_refractivity> 
51.42 
 
>  <oscillator_strength_1> 
0.0979 
 
>  <oscillator_strength_2> 
0.0004 
 
>  <oscillator_strength_3> 
0.0059 
 
>  <oscillator_strength_4> 
0.0019 
 
>  <open_babel_can_smiles> 
N#Cc1c(C)ncc2c1cccc2 
 
>  <mulliken_charges> 
21 
1   -0.508566 
2   -0.128828 
3   -0.129781 
4   -0.191912 
5   -0.183211 
6   0.216709 
7   0.009793 
8   0.284975 
9   0.093757 
10   0.15672 
11   0.054877 
12   -0.500676 
13   -0.47035 
14   0.177771 
15   0.18034 
16   0.180407 
17   0.14414 
18   0.148294 
19   0.146184 
20   0.166485 
21   0.152872 
 
>  <lowdin_charges> 
21 
1   -0.445762 
2   -0.149934 
3   -0.134382 
4   -0.141309 
5   -0.156418 
6   -0.012306 
7   -0.064262 
8   0.076667 
9   -0.025179 
10   0.025516 
11   -0.057405 
12   -0.124307 
13   -0.150358 
14   0.171475 
15   0.175878 
16   0.17589 
17   0.163643 
18   0.167907 
19   0.165532 
20   0.177692 
21   0.161421 
 
$$$$ 
 
