PCCDB-ID:  5942 
public computational chemistry database (PCCDB) project, http://pccdb.org 
 
 26 25  0  0  0  0  0  0  0  0999 V2000 
    1.0329   -0.1384    0.0352 C   0  0  0  0  0  0  0  0  0  0  0  0 
    5.0635    2.0637    1.8291 C   0  0  0  0  0  0  0  0  0  0  0  0 
    0.4206   -1.2489   -0.8203 C   0  0  0  0  0  0  0  0  0  0  0  0 
    6.5893    2.1515    1.8909 C   0  0  0  0  0  0  0  0  0  0  0  0 
    2.5622   -0.1682    0.0544 C   0  0  0  0  0  0  0  0  0  0  0  0 
    4.5604    0.9231    0.9428 C   0  0  0  0  0  0  0  0  0  0  0  0 
   -1.0438   -1.1413   -0.8315 N   0  0  0  0  0  0  0  0  0  0  0  0 
    7.0047    3.2122    2.8174 N   0  0  0  0  0  0  0  0  0  0  0  0 
    3.1020    0.9251    0.8592 N   0  0  0  0  0  0  0  0  0  0  0  0 
    0.6571   -0.2334    1.0669 H   0  0  0  0  0  0  0  0  0  0  0  0 
    0.6892    0.8339   -0.3339 H   0  0  0  0  0  0  0  0  0  0  0  0 
    4.6490    3.0079    1.4500 H   0  0  0  0  0  0  0  0  0  0  0  0 
    4.6843    1.9428    2.8529 H   0  0  0  0  0  0  0  0  0  0  0  0 
    0.7949   -2.2288   -0.4679 H   0  0  0  0  0  0  0  0  0  0  0  0 
    0.7672   -1.1392   -1.8564 H   0  0  0  0  0  0  0  0  0  0  0  0 
    6.9862    2.2717    0.8651 H   0  0  0  0  0  0  0  0  0  0  0  0 
    6.9941    1.2043    2.2710 H   0  0  0  0  0  0  0  0  0  0  0  0 
    2.9423   -0.0468   -0.9698 H   0  0  0  0  0  0  0  0  0  0  0  0 
    2.9126   -1.1638    0.3964 H   0  0  0  0  0  0  0  0  0  0  0  0 
    4.9672   -0.0404    1.3129 H   0  0  0  0  0  0  0  0  0  0  0  0 
    4.9522    1.0475   -0.0768 H   0  0  0  0  0  0  0  0  0  0  0  0 
   -1.4028   -1.3243    0.1055 H   0  0  0  0  0  0  0  0  0  0  0  0 
   -1.4369   -1.8695   -1.4261 H   0  0  0  0  0  0  0  0  0  0  0  0 
    6.7149    4.1165    2.4455 H   0  0  0  0  0  0  0  0  0  0  0  0 
    8.0220    3.2456    2.8672 H   0  0  0  0  0  0  0  0  0  0  0  0 
    2.7207    0.8561    1.8031 H   0  0  0  0  0  0  0  0  0  0  0  0 
  1  5  1  0  0  0  0 
  1 10  1  0  0  0  0 
  2  4  1  0  0  0  0 
  2 13  1  0  0  0  0 
  3 14  1  0  0  0  0 
  3  1  1  0  0  0  0 
  4 17  1  0  0  0  0 
  4  8  1  0  0  0  0 
  5 19  1  0  0  0  0 
  5  9  1  0  0  0  0 
  6 20  1  0  0  0  0 
  6  2  1  0  0  0  0 
  7  3  1  0  0  0  0 
  7 22  1  0  0  0  0 
  8 25  1  0  0  0  0 
  9  6  1  0  0  0  0 
  9 26  1  0  0  0  0 
 11  1  1  0  0  0  0 
 12  2  1  0  0  0  0 
 15  3  1  0  0  0  0 
 16  4  1  0  0  0  0 
 18  5  1  0  0  0  0 
 21  6  1  0  0  0  0 
 23  7  1  0  0  0  0 
 24  8  1  0  0  0  0 
M  END 
>  <HBA> 
3 
 
>  <HBD> 
3 
 
>  <TPSA> 
64.07 
 
>  <cid> 
5942 
 
>  <dipole> 
1.87 
 
>  <excitation_energy_1> 
5.432 
 
>  <excitation_energy_2> 
5.563 
 
>  <excitation_energy_3> 
5.609 
 
>  <excitation_energy_4> 
5.704 
 
>  <homo_energy> 
-5.823 
 
>  <homo_lumo_gap> 
8.082 
 
>  <logP> 
1.065 
 
>  <lumo_energy> 
2.259 
 
>  <melting_point> 
109.11 
 
>  <molecular_refractivity> 
39.17 
 
>  <oscillator_strength_1> 
0.0043 
 
>  <oscillator_strength_2> 
0.0095 
 
>  <oscillator_strength_3> 
0.0152 
 
>  <oscillator_strength_4> 
0.0037 
 
>  <open_babel_can_smiles> 
NCCCNCCCN 
 
>  <mulliken_charges> 
26 
1   -0.259047 
2   -0.261559 
3   -0.135581 
4   -0.135305 
5   -0.108532 
6   -0.108586 
7   -0.714017 
8   -0.715336 
9   -0.559257 
10   0.116342 
11   0.163919 
12   0.140632 
13   0.141969 
14   0.109722 
15   0.139126 
16   0.111344 
17   0.137207 
18   0.135781 
19   0.103825 
20   0.105521 
21   0.133887 
22   0.290266 
23   0.294286 
24   0.291866 
25   0.2942 
26   0.287329 
 
>  <lowdin_charges> 
26 
1   -0.280413 
2   -0.282462 
3   -0.201988 
4   -0.202712 
5   -0.198765 
6   -0.199014 
7   -0.558759 
8   -0.555679 
9   -0.361297 
10   0.131242 
11   0.157532 
12   0.145274 
13   0.144933 
14   0.114344 
15   0.140028 
16   0.11455 
17   0.139958 
18   0.138206 
19   0.110998 
20   0.112737 
21   0.137333 
22   0.249599 
23   0.254691 
24   0.250984 
25   0.251203 
26   0.247476 
 
$$$$ 
 
