PCCDB-ID:  931 
public computational chemistry database (PCCDB) project, http://pccdb.org 
 
 18 19  0  0  0  0  0  0  0  0999 V2000 
    2.4473   -0.6762    0.0151 C   0  0  0  0  0  0  0  0  0  0  0  0 
    2.4253    0.7405    0.0074 C   0  0  0  0  0  0  0  0  0  0  0  0 
   -2.4192   -0.7522   -0.0162 C   0  0  0  0  0  0  0  0  0  0  0  0 
   -2.4412    0.6645   -0.0243 C   0  0  0  0  0  0  0  0  0  0  0  0 
    1.2695   -1.3888    0.0113 C   0  0  0  0  0  0  0  0  0  0  0  0 
    1.2259    1.4159   -0.0039 C   0  0  0  0  0  0  0  0  0  0  0  0 
   -1.2197   -1.4276   -0.0044 C   0  0  0  0  0  0  0  0  0  0  0  0 
   -1.2633    1.3771   -0.0204 C   0  0  0  0  0  0  0  0  0  0  0  0 
    0.0142   -0.7226   -0.0003 C   0  0  0  0  0  0  0  0  0  0  0  0 
   -0.0080    0.7110   -0.0083 C   0  0  0  0  0  0  0  0  0  0  0  0 
    3.4002   -1.1985    0.0242 H   0  0  0  0  0  0  0  0  0  0  0  0 
    3.3615    1.2922    0.0112 H   0  0  0  0  0  0  0  0  0  0  0  0 
   -3.3554   -1.3039   -0.0185 H   0  0  0  0  0  0  0  0  0  0  0  0 
   -3.3941    1.1868   -0.0332 H   0  0  0  0  0  0  0  0  0  0  0  0 
    1.2837   -2.4763    0.0184 H   0  0  0  0  0  0  0  0  0  0  0  0 
    1.2061    2.5034   -0.0086 H   0  0  0  0  0  0  0  0  0  0  0  0 
   -1.2000   -2.5151    0.0031 H   0  0  0  0  0  0  0  0  0  0  0  0 
   -1.2775    2.4646   -0.0254 H   0  0  0  0  0  0  0  0  0  0  0  0 
  1 11  1  0  0  0  0 
  2 12  1  0  0  0  0 
  2  1  2  0  0  0  0 
  3  7  2  0  0  0  0 
  4  8  2  0  0  0  0 
  4  3  1  0  0  0  0 
  5  1  1  0  0  0  0 
  5 15  1  0  0  0  0 
  6  2  1  0  0  0  0 
  7  9  1  0  0  0  0 
  7 17  1  0  0  0  0 
  8 10  1  0  0  0  0 
  9  5  2  0  0  0  0 
 10  6  2  0  0  0  0 
 10  9  1  0  0  0  0 
 13  3  1  0  0  0  0 
 14  4  1  0  0  0  0 
 16  6  1  0  0  0  0 
 18  8  1  0  0  0  0 
M  END 
>  <HBA> 
0 
 
>  <HBD> 
0 
 
>  <TPSA> 
0.0 
 
>  <cid> 
931 
 
>  <dipole> 
0.0 
 
>  <excitation_energy_1> 
4.374 
 
>  <excitation_energy_2> 
4.453 
 
>  <excitation_energy_3> 
5.474 
 
>  <excitation_energy_4> 
5.52 
 
>  <homo_energy> 
-5.788 
 
>  <homo_lumo_gap> 
4.83 
 
>  <logP> 
2.84 
 
>  <lumo_energy> 
-0.958 
 
>  <melting_point> 
47.65 
 
>  <molecular_refractivity> 
43.95 
 
>  <oscillator_strength_1> 
0.0606 
 
>  <oscillator_strength_2> 
0.0 
 
>  <oscillator_strength_3> 
0.0 
 
>  <oscillator_strength_4> 
0.0 
 
>  <open_babel_can_smiles> 
c1ccc2c(c1)cccc2 
 
>  <mulliken_charges> 
18 
1   -0.134837 
2   -0.135124 
3   -0.134981 
4   -0.135027 
5   -0.190813 
6   -0.19084 
7   -0.190822 
8   -0.190748 
9   0.134293 
10   0.134382 
11   0.129492 
12   0.129523 
13   0.129516 
14   0.129491 
15   0.12911 
16   0.129139 
17   0.129125 
18   0.129119 
 
>  <lowdin_charges> 
18 
1   -0.159059 
2   -0.159293 
3   -0.159288 
4   -0.159066 
5   -0.154084 
6   -0.154084 
7   -0.154084 
8   -0.154082 
9   -0.000629 
10   -0.000627 
11   0.158393 
12   0.158577 
13   0.158576 
14   0.158394 
15   0.155084 
16   0.155093 
17   0.155093 
18   0.155084 
 
$$$$ 
 
