PCCDB-ID:  4109 
public computational chemistry database (PCCDB) project, http://pccdb.org 
 
 20 19  0  0  1  0  0  0  0  0999 V2000 
    1.6129    1.9713    0.2731 C   0  0  0  0  0  0  0  0  0  0  0  0 
    1.7709   -2.4239    2.7083 C   0  0  0  0  0  0  0  0  0  0  0  0 
    4.1137   -1.2391   -0.8091 C   0  0  0  0  0  0  0  0  0  0  0  0 
    2.4424    0.7150    0.2880 C   0  0  2  0  0  0  0  0  0  0  0  0 
    2.1746   -0.2369    3.5769 C   0  0  0  0  0  0  0  0  0  0  0  0 
    2.1162   -1.4835    3.7574 N   0  0  0  0  0  0  0  0  0  0  0  0 
    2.6641   -0.0314    1.3093 N   0  0  0  0  0  0  0  0  0  0  0  0 
    2.3678    0.6210    4.6055 O   0  0  0  0  0  0  0  0  0  0  0  0 
    2.0136    0.5351    2.4535 O   0  0  0  0  0  0  0  0  0  0  0  0 
    3.1745    0.2606   -1.2573 S   0  0  0  0  0  0  0  0  0  0  0  0 
    2.0499    2.7111    0.9518 H   0  0  0  0  0  0  0  0  0  0  0  0 
    0.6031    1.7543    0.6358 H   0  0  0  0  0  0  0  0  0  0  0  0 
    1.5504    2.3978   -0.7308 H   0  0  0  0  0  0  0  0  0  0  0  0 
    2.6753   -2.8288    2.2381 H   0  0  0  0  0  0  0  0  0  0  0  0 
    1.1434   -1.9987    1.9155 H   0  0  0  0  0  0  0  0  0  0  0  0 
    1.2335   -3.2621    3.1659 H   0  0  0  0  0  0  0  0  0  0  0  0 
    4.6191   -1.5621   -1.7223 H   0  0  0  0  0  0  0  0  0  0  0  0 
    3.4409   -2.0229   -0.4565 H   0  0  0  0  0  0  0  0  0  0  0  0 
    4.8474   -1.0109   -0.0338 H   0  0  0  0  0  0  0  0  0  0  0  0 
    2.3470    0.0617    5.4020 H   0  0  0  0  0  0  0  0  0  0  0  0 
  1  4  1  0  0  0  0 
  1 12  1  0  0  0  0 
  1 11  1  0  0  0  0 
  2 16  1  0  0  0  0 
  2  6  1  0  0  0  0 
  3 18  1  0  0  0  0 
  3 19  1  0  0  0  0 
  4 10  1  1  0  0  0 
  4  7  1  0  0  0  0 
  5  6  2  0  0  0  0 
  5  8  1  0  0  0  0 
  7  9  1  0  0  0  0 
  8 20  1  0  0  0  0 
  9  5  1  0  0  0  0 
 10  3  1  0  0  0  0 
 13  1  1  0  0  0  0 
 14  2  1  0  0  0  0 
 15  2  1  0  0  0  0 
 17  3  1  0  0  0  0 
M  RAD  2   4   2   7   2 
M  END 
>  <HBA> 
5 
 
>  <HBD> 
1 
 
>  <TPSA> 
75.99 
 
>  <cid> 
4109 
 
>  <dipole> 
1.43 
 
>  <excitation_energy_1> 
5.068 
 
>  <excitation_energy_2> 
5.411 
 
>  <excitation_energy_3> 
5.661 
 
>  <excitation_energy_4> 
5.686 
 
>  <homo_energy> 
-6.196 
 
>  <homo_lumo_gap> 
5.989 
 
>  <logP> 
1.43 
 
>  <lumo_energy> 
-0.207 
 
>  <melting_point> 
53.24 
 
>  <molecular_refractivity> 
41.9 
 
>  <oscillator_strength_1> 
0.008 
 
>  <oscillator_strength_2> 
0.2086 
 
>  <oscillator_strength_3> 
0.0146 
 
>  <oscillator_strength_4> 
0.0003 
 
>  <open_babel_can_smiles> 
CS[C]([N]O/C(=N/C)/O)C 
 
>  <mulliken_charges> 
20 
1   -0.486609 
2   -0.304964 
3   -0.59015 
4   0.112028 
5   0.683369 
6   -0.442807 
7   -0.178672 
8   -0.574744 
9   -0.405455 
10   0.162762 
11   0.200245 
12   0.193973 
13   0.172097 
14   0.155452 
15   0.143539 
16   0.148954 
17   0.185028 
18   0.202539 
19   0.20594 
20   0.417473 
 
>  <lowdin_charges> 
20 
1   -0.448284 
2   -0.352821 
3   -0.541191 
4   -0.079649 
5   0.179639 
6   -0.251933 
7   -0.080025 
8   -0.355661 
9   -0.147223 
10   0.190495 
11   0.185994 
12   0.180853 
13   0.170834 
14   0.152469 
15   0.14192 
16   0.149343 
17   0.178524 
18   0.178156 
19   0.180756 
20   0.367805 
 
$$$$ 
 
