PCCDB-ID:  5781 
public computational chemistry database (PCCDB) project, http://pccdb.org 
 
 12 12  0  0  0  0  0  0  0  0999 V2000 
    1.4282   -0.2558   -0.0414 C   0  0  0  0  0  0  0  0  0  0  0  0 
    0.8505    1.1223   -0.0066 C   0  0  0  0  0  0  0  0  0  0  0  0 
    0.4083   -1.3479   -0.0089 C   0  0  0  0  0  0  0  0  0  0  0  0 
   -1.2977    0.2322    0.0785 C   0  0  0  0  0  0  0  0  0  0  0  0 
   -0.4067    1.3475    0.0491 N   0  0  0  0  0  0  0  0  0  0  0  0 
   -0.8489   -1.1229    0.0467 N   0  0  0  0  0  0  0  0  0  0  0  0 
    2.6309   -0.4711   -0.0927 O   0  0  0  0  0  0  0  0  0  0  0  0 
    1.7376    2.1173   -0.0359 O   0  0  0  0  0  0  0  0  0  0  0  0 
    0.8948   -2.5889   -0.0410 O   0  0  0  0  0  0  0  0  0  0  0  0 
   -2.4870    0.4451    0.1328 O   0  0  0  0  0  0  0  0  0  0  0  0 
    2.6304    1.7202   -0.0763 H   0  0  0  0  0  0  0  0  0  0  0  0 
    1.8701   -2.5264   -0.0804 H   0  0  0  0  0  0  0  0  0  0  0  0 
  1  3  1  0  0  0  0 
  1  2  1  0  0  0  0 
  2  5  2  0  0  0  0 
  3  6  2  0  0  0  0 
  4 10  2  0  0  0  0 
  5  4  2  0  0  0  0 
  6  4  1  0  0  0  0 
  7  1  2  0  0  0  0 
  8  2  1  0  0  0  0 
  9  3  1  0  0  0  0 
 11  8  1  0  0  0  0 
 12  9  1  0  0  0  0 
M  END 
>  <HBA> 
6 
 
>  <HBD> 
2 
 
>  <TPSA> 
92.34 
 
>  <cid> 
5781 
 
>  <dipole> 
6.0 
 
>  <excitation_energy_1> 
1.847 
 
>  <excitation_energy_2> 
2.447 
 
>  <excitation_energy_3> 
3.472 
 
>  <excitation_energy_4> 
4.005 
 
>  <homo_energy> 
-7.597 
 
>  <homo_lumo_gap> 
3.129 
 
>  <logP> 
-1.421 
 
>  <lumo_energy> 
-4.468 
 
>  <melting_point> 
147.6 
 
>  <molecular_refractivity> 
33.85 
 
>  <oscillator_strength_1> 
0.0 
 
>  <oscillator_strength_2> 
0.0 
 
>  <oscillator_strength_3> 
0.0012 
 
>  <oscillator_strength_4> 
0.001 
 
>  <open_babel_can_smiles> 
O=[C]1=[N]=C(C(=O)C(=N1)O)O 
 
>  <mulliken_charges> 
12 
1   0.344058 
2   0.523615 
3   0.523522 
4   0.628601 
5   -0.458685 
6   -0.45864 
7   -0.470483 
8   -0.563371 
9   -0.563356 
10   -0.383306 
11   0.439024 
12   0.439021 
 
>  <lowdin_charges> 
12 
1   0.103364 
2   0.110797 
3   0.11075 
4   0.178 
5   -0.149715 
6   -0.149637 
7   -0.200566 
8   -0.299344 
9   -0.298269 
10   -0.154958 
11   0.375731 
12   0.373848 
 
$$$$ 
 
