PCCDB-ID:  6137 
public computational chemistry database (PCCDB) project, http://pccdb.org 
 
 20 19  0  0  1  0  0  0  0  0999 V2000 
    1.5941   -0.5855   -0.3750 C   0  0  0  0  0  0  0  0  0  0  0  0 
    4.6105   -1.3193    1.0558 C   0  0  0  0  0  0  0  0  0  0  0  0 
    3.2482   -1.4335    1.7484 C   0  0  0  0  0  0  0  0  0  0  0  0 
    5.6375   -2.4040    1.4640 C   0  0  1  0  0  0  0  0  0  0  0  0 
    5.1459   -3.7899    1.0029 C   0  0  0  0  0  0  0  0  0  0  0  0 
    6.9373   -2.0623    0.8927 N   0  0  0  0  0  0  0  0  0  0  0  0 
    5.4050   -4.2459   -0.0836 O   0  0  0  0  0  0  0  0  0  0  0  0 
    4.3592   -4.4881    1.8670 O   0  0  0  0  0  0  0  0  0  0  0  0 
    2.0660   -0.0947    1.3217 S   0  0  0  0  0  0  0  0  0  0  0  0 
    2.4386   -0.5338   -1.0674 H   0  0  0  0  0  0  0  0  0  0  0  0 
    1.1657   -1.5925   -0.3882 H   0  0  0  0  0  0  0  0  0  0  0  0 
    0.8311    0.1253   -0.7031 H   0  0  0  0  0  0  0  0  0  0  0  0 
    5.0640   -0.3501    1.2831 H   0  0  0  0  0  0  0  0  0  0  0  0 
    4.4850   -1.3681   -0.0333 H   0  0  0  0  0  0  0  0  0  0  0  0 
    3.3678   -1.3528    2.8363 H   0  0  0  0  0  0  0  0  0  0  0  0 
    2.7650   -2.3953    1.5422 H   0  0  0  0  0  0  0  0  0  0  0  0 
    5.7405   -2.3965    2.5591 H   0  0  0  0  0  0  0  0  0  0  0  0 
    6.8889   -2.2358   -0.1125 H   0  0  0  0  0  0  0  0  0  0  0  0 
    7.6404   -2.7155    1.2380 H   0  0  0  0  0  0  0  0  0  0  0  0 
    4.2686   -3.9981    2.7012 H   0  0  0  0  0  0  0  0  0  0  0  0 
  1  9  1  0  0  0  0 
  2 13  1  0  0  0  0 
  2  4  1  0  0  0  0 
  2  3  1  0  0  0  0 
  3 15  1  0  0  0  0 
  4 17  1  1  0  0  0 
  5  4  1  0  0  0  0 
  5  8  1  0  0  0  0 
  6 19  1  0  0  0  0 
  6  4  1  0  0  0  0 
  7  5  2  0  0  0  0 
  8 20  1  0  0  0  0 
  9  3  1  0  0  0  0 
 10  1  1  0  0  0  0 
 11  1  1  0  0  0  0 
 12  1  1  0  0  0  0 
 14  2  1  0  0  0  0 
 16  3  1  0  0  0  0 
 18  6  1  0  0  0  0 
M  END 
>  <HBA> 
4 
 
>  <HBD> 
2 
 
>  <TPSA> 
88.62 
 
>  <cid> 
6137 
 
>  <dipole> 
1.62 
 
>  <excitation_energy_1> 
4.927 
 
>  <excitation_energy_2> 
5.205 
 
>  <excitation_energy_3> 
5.329 
 
>  <excitation_energy_4> 
5.482 
 
>  <homo_energy> 
-6.155 
 
>  <homo_lumo_gap> 
6.076 
 
>  <logP> 
0.852 
 
>  <lumo_energy> 
-0.079 
 
>  <melting_point> 
114.48 
 
>  <molecular_refractivity> 
38.22 
 
>  <oscillator_strength_1> 
0.0105 
 
>  <oscillator_strength_2> 
0.0023 
 
>  <oscillator_strength_3> 
0.0034 
 
>  <oscillator_strength_4> 
0.0022 
 
>  <open_babel_can_smiles> 
CSCC[C@@H](C(=O)O)N 
 
>  <mulliken_charges> 
20 
1   -0.586941 
2   -0.242072 
3   -0.451844 
4   -0.100038 
5   0.579451 
6   -0.691262 
7   -0.445107 
8   -0.561426 
9   0.099784 
10   0.183371 
11   0.181273 
12   0.187769 
13   0.183483 
14   0.156505 
15   0.166568 
16   0.178994 
17   0.131217 
18   0.315296 
19   0.304804 
20   0.410176 
 
>  <lowdin_charges> 
20 
1   -0.547758 
2   -0.27746 
3   -0.38888 
4   -0.10828 
5   0.171765 
6   -0.528045 
7   -0.243061 
8   -0.352227 
9   0.105306 
10   0.163405 
11   0.163433 
12   0.179648 
13   0.170378 
14   0.152137 
15   0.159298 
16   0.15837 
17   0.139362 
18   0.263678 
19   0.261603 
20   0.357327 
 
$$$$ 
 
