PCCDB-ID:  3136 
public computational chemistry database (PCCDB) project, http://pccdb.org 
 
 26 27  0  0  0  0  0  0  0  0999 V2000 
    2.1848    0.7242   -0.8747 C   0  0  0  0  0  0  0  0  0  0  0  0 
    3.7032   -3.1757    2.3854 C   0  0  0  0  0  0  0  0  0  0  0  0 
    4.8030    3.5889    4.5519 C   0  0  0  0  0  0  0  0  0  0  0  0 
    5.4990    2.5847    5.2310 C   0  0  0  0  0  0  0  0  0  0  0  0 
    4.0409    3.2745    3.4264 C   0  0  0  0  0  0  0  0  0  0  0  0 
    5.4330    1.2639    4.7869 C   0  0  0  0  0  0  0  0  0  0  0  0 
    3.9744    1.9536    2.9775 C   0  0  0  0  0  0  0  0  0  0  0  0 
    4.6684    0.9448    3.6625 C   0  0  0  0  0  0  0  0  0  0  0  0 
    3.1421    1.6270    1.7834 C   0  0  0  0  0  0  0  0  0  0  0  0 
    4.6180   -0.4682    3.1871 C   0  0  0  0  0  0  0  0  0  0  0  0 
    3.1335    0.2217    1.3071 C   0  0  0  0  0  0  0  0  0  0  0  0 
    3.7576   -0.7764    2.0189 C   0  0  0  0  0  0  0  0  0  0  0  0 
    2.4693    2.4927    1.2281 O   0  0  0  0  0  0  0  0  0  0  0  0 
    5.2856   -1.3425    3.7351 O   0  0  0  0  0  0  0  0  0  0  0  0 
    2.4002   -0.1537    0.2407 O   0  0  0  0  0  0  0  0  0  0  0  0 
    3.6767   -2.0276    1.5235 O   0  0  0  0  0  0  0  0  0  0  0  0 
    3.0940    1.2776   -1.1279 H   0  0  0  0  0  0  0  0  0  0  0  0 
    1.3777    1.4295   -0.6750 H   0  0  0  0  0  0  0  0  0  0  0  0 
    1.9182    0.0607   -1.7007 H   0  0  0  0  0  0  0  0  0  0  0  0 
    3.2292   -3.9705    1.8046 H   0  0  0  0  0  0  0  0  0  0  0  0 
    3.1291   -2.9997    3.3003 H   0  0  0  0  0  0  0  0  0  0  0  0 
    4.7250   -3.4505    2.6482 H   0  0  0  0  0  0  0  0  0  0  0  0 
    4.8538    4.6167    4.9004 H   0  0  0  0  0  0  0  0  0  0  0  0 
    6.0937    2.8319    6.1060 H   0  0  0  0  0  0  0  0  0  0  0  0 
    3.4896    4.0355    2.8841 H   0  0  0  0  0  0  0  0  0  0  0  0 
    5.9660    0.4671    5.2951 H   0  0  0  0  0  0  0  0  0  0  0  0 
  1 18  1  0  0  0  0 
  1 15  1  0  0  0  0 
  2 22  1  0  0  0  0 
  2 21  1  0  0  0  0 
  3 23  1  0  0  0  0 
  3  4  2  0  0  0  0 
  4 24  1  0  0  0  0 
  5  3  1  0  0  0  0 
  6  4  1  0  0  0  0 
  6 26  1  0  0  0  0 
  7  5  2  0  0  0  0 
  7  8  1  0  0  0  0 
  8  6  2  0  0  0  0 
  9  7  1  0  0  0  0 
 10  8  1  0  0  0  0 
 10 14  2  0  0  0  0 
 11  9  1  0  0  0  0 
 11 12  2  0  0  0  0 
 12 10  1  0  0  0  0 
 13  9  2  0  0  0  0 
 15 11  1  0  0  0  0 
 16 12  1  0  0  0  0 
 16  2  1  0  0  0  0 
 17  1  1  0  0  0  0 
 19  1  1  0  0  0  0 
 20  2  1  0  0  0  0 
 25  5  1  0  0  0  0 
M  END 
>  <HBA> 
4 
 
>  <HBD> 
0 
 
>  <TPSA> 
52.6 
 
>  <cid> 
3136 
 
>  <dipole> 
1.22 
 
>  <excitation_energy_1> 
2.49 
 
>  <excitation_energy_2> 
2.94 
 
>  <excitation_energy_3> 
2.985 
 
>  <excitation_energy_4> 
3.687 
 
>  <homo_energy> 
-5.965 
 
>  <homo_lumo_gap> 
3.069 
 
>  <logP> 
1.57 
 
>  <lumo_energy> 
-2.895 
 
>  <melting_point> 
94.09 
 
>  <molecular_refractivity> 
56.03 
 
>  <oscillator_strength_1> 
0.0377 
 
>  <oscillator_strength_2> 
0.0021 
 
>  <oscillator_strength_3> 
0.0 
 
>  <oscillator_strength_4> 
0.0494 
 
>  <open_babel_can_smiles> 
COC1=C(OC)C(=O)c2c(C1=O)cccc2 
 
>  <mulliken_charges> 
26 
1   -0.204009 
2   -0.204689 
3   -0.124702 
4   -0.124906 
5   -0.176 
6   -0.176147 
7   0.046099 
8   0.046979 
9   0.368454 
10   0.369023 
11   0.260779 
12   0.258336 
13   -0.487283 
14   -0.487326 
15   -0.492723 
16   -0.492666 
17   0.155073 
18   0.182249 
19   0.160994 
20   0.160945 
21   0.153775 
22   0.182843 
23   0.144928 
24   0.144999 
25   0.167429 
26   0.167546 
 
>  <lowdin_charges> 
26 
1   -0.271481 
2   -0.27032 
3   -0.139981 
4   -0.139991 
5   -0.130754 
6   -0.130874 
7   -0.037041 
8   -0.037082 
9   0.136042 
10   0.136021 
11   0.046074 
12   0.042768 
13   -0.241379 
14   -0.241812 
15   -0.176314 
16   -0.178257 
17   0.152001 
18   0.163808 
19   0.157179 
20   0.157468 
21   0.150939 
22   0.162608 
23   0.164324 
24   0.165582 
25   0.180242 
26   0.180228 
 
$$$$ 
 
