PCCDB-ID:  6129 
public computational chemistry database (PCCDB) project, http://pccdb.org 
 
 26 27  0  0  0  0  0  0  0  0999 V2000 
    4.6422    1.2874   -3.2016 C   0  0  0  0  0  0  0  0  0  0  0  0 
    7.8904    1.8095    4.2602 C   0  0  0  0  0  0  0  0  0  0  0  0 
    7.3274    0.6720    3.6326 C   0  0  0  0  0  0  0  0  0  0  0  0 
    5.6012    4.6948    1.0868 C   0  0  0  0  0  0  0  0  0  0  0  0 
    7.6053    3.0709    3.7898 C   0  0  0  0  0  0  0  0  0  0  0  0 
    6.4392    4.5506    2.1678 C   0  0  0  0  0  0  0  0  0  0  0  0 
    6.4900    0.8140    2.5487 C   0  0  0  0  0  0  0  0  0  0  0  0 
    5.0280    3.5675    0.4520 C   0  0  0  0  0  0  0  0  0  0  0  0 
    6.7472    3.2596    2.6730 C   0  0  0  0  0  0  0  0  0  0  0  0 
    6.1801    2.1043    2.0419 C   0  0  0  0  0  0  0  0  0  0  0  0 
    5.3212    2.3089    0.9227 C   0  0  0  0  0  0  0  0  0  0  0  0 
    4.5705    0.9071   -0.8965 C   0  0  0  0  0  0  0  0  0  0  0  0 
    4.8621    1.7125   -1.8287 N   0  0  0  0  0  0  0  0  0  0  0  0 
    4.0408   -0.3406   -0.9813 O   0  0  0  0  0  0  0  0  0  0  0  0 
    4.7456    1.1445    0.4215 O   0  0  0  0  0  0  0  0  0  0  0  0 
    4.9967    2.0697   -3.8777 H   0  0  0  0  0  0  0  0  0  0  0  0 
    3.5756    1.1238   -3.4293 H   0  0  0  0  0  0  0  0  0  0  0  0 
    5.1908    0.3658   -3.4591 H   0  0  0  0  0  0  0  0  0  0  0  0 
    8.5479    1.6825    5.1161 H   0  0  0  0  0  0  0  0  0  0  0  0 
    7.5589   -0.3201    4.0106 H   0  0  0  0  0  0  0  0  0  0  0  0 
    5.3673    5.6847    0.7051 H   0  0  0  0  0  0  0  0  0  0  0  0 
    8.0344    3.9480    4.2686 H   0  0  0  0  0  0  0  0  0  0  0  0 
    6.8758    5.4215    2.6500 H   0  0  0  0  0  0  0  0  0  0  0  0 
    6.0541   -0.0547    2.0683 H   0  0  0  0  0  0  0  0  0  0  0  0 
    4.3803    3.6878   -0.4050 H   0  0  0  0  0  0  0  0  0  0  0  0 
    3.8743   -0.5368   -1.9167 H   0  0  0  0  0  0  0  0  0  0  0  0 
  1 13  1  0  0  0  0 
  2 19  1  0  0  0  0 
  3 20  1  0  0  0  0 
  3  2  2  0  0  0  0 
  4  6  2  0  0  0  0 
  5  2  1  0  0  0  0 
  5 22  1  0  0  0  0 
  6 23  1  0  0  0  0 
  6  9  1  0  0  0  0 
  7  3  1  0  0  0  0 
  8 11  2  0  0  0  0 
  8  4  1  0  0  0  0 
  9  5  2  0  0  0  0 
 10  7  2  0  0  0  0 
 10  9  1  0  0  0  0 
 11 10  1  0  0  0  0 
 12 15  1  0  0  0  0 
 13 12  2  0  0  0  0 
 14 12  1  0  0  0  0 
 15 11  1  0  0  0  0 
 16  1  1  0  0  0  0 
 17  1  1  0  0  0  0 
 18  1  1  0  0  0  0 
 21  4  1  0  0  0  0 
 24  7  1  0  0  0  0 
 25  8  1  0  0  0  0 
 26 14  1  0  0  0  0 
M  END 
>  <HBA> 
3 
 
>  <HBD> 
1 
 
>  <TPSA> 
38.33 
 
>  <cid> 
6129 
 
>  <dipole> 
1.92 
 
>  <excitation_energy_1> 
4.191 
 
>  <excitation_energy_2> 
4.388 
 
>  <excitation_energy_3> 
4.993 
 
>  <excitation_energy_4> 
5.284 
 
>  <homo_energy> 
-5.587 
 
>  <homo_lumo_gap> 
4.675 
 
>  <logP> 
2.949 
 
>  <lumo_energy> 
-0.912 
 
>  <melting_point> 
112.0 
 
>  <molecular_refractivity> 
58.64 
 
>  <oscillator_strength_1> 
0.1044 
 
>  <oscillator_strength_2> 
0.0023 
 
>  <oscillator_strength_3> 
0.0019 
 
>  <oscillator_strength_4> 
0.0087 
 
>  <open_babel_can_smiles> 
C/N=C(/Oc1cccc2c1cccc2)\O 
 
>  <mulliken_charges> 
26 
1   -0.360629 
2   -0.130135 
3   -0.137274 
4   -0.151439 
5   -0.197839 
6   -0.182374 
7   -0.174818 
8   -0.138104 
9   0.129211 
10   0.071842 
11   0.285289 
12   0.673614 
13   -0.430311 
14   -0.589156 
15   -0.516454 
16   0.176951 
17   0.144572 
18   0.143306 
19   0.129044 
20   0.129685 
21   0.132503 
22   0.129312 
23   0.127672 
24   0.15112 
25   0.15838 
26   0.426032 
 
>  <lowdin_charges> 
26 
1   -0.36531 
2   -0.156981 
3   -0.157812 
4   -0.153001 
5   -0.158006 
6   -0.166345 
7   -0.154883 
8   -0.172945 
9   0.003698 
10   -0.015864 
11   0.104383 
12   0.197415 
13   -0.261886 
14   -0.357412 
15   -0.135818 
16   0.166403 
17   0.137527 
18   0.138146 
19   0.158332 
20   0.158037 
21   0.159792 
22   0.158311 
23   0.158647 
24   0.17065 
25   0.178776 
26   0.366144 
 
$$$$ 
 
