PCCDB-ID:  604 
public computational chemistry database (PCCDB) project, http://pccdb.org 
 
 25 24  0  0  1  0  0  0  0  0999 V2000 
    1.1849    0.2940    0.2105 C   0  0  0  0  0  0  0  0  0  0  0  0 
    0.5010    1.2364   -0.7821 C   0  0  1  0  0  0  0  0  0  0  0  0 
    1.0978    1.1485   -2.1931 C   0  0  1  0  0  0  0  0  0  0  0  0 
    0.3551    2.0629   -3.1940 C   0  0  1  0  0  0  0  0  0  0  0  0 
    0.9117    1.9576   -4.6319 C   0  0  1  0  0  0  0  0  0  0  0  0 
    0.2895    3.0189   -5.5597 C   0  0  0  0  0  0  0  0  0  0  0  0 
    0.4286    0.2678    1.4289 O   0  0  0  0  0  0  0  0  0  0  0  0 
   -0.8885    0.9043   -0.8295 O   0  0  0  0  0  0  0  0  0  0  0  0 
    2.4493    1.5389   -2.0386 O   0  0  0  0  0  0  0  0  0  0  0  0 
   -1.0208    1.6975   -3.3355 O   0  0  0  0  0  0  0  0  0  0  0  0 
    2.3156    2.1031   -4.6773 O   0  0  0  0  0  0  0  0  0  0  0  0 
    1.0100    3.6877   -6.2740 O   0  0  0  0  0  0  0  0  0  0  0  0 
   -1.0338    3.1465   -5.5410 O   0  0  0  0  0  0  0  0  0  0  0  0 
    2.2274    0.5831    0.3740 H   0  0  0  0  0  0  0  0  0  0  0  0 
    1.1584   -0.7303   -0.1741 H   0  0  0  0  0  0  0  0  0  0  0  0 
    0.6250    2.2758   -0.4325 H   0  0  0  0  0  0  0  0  0  0  0  0 
    1.0052    0.1080   -2.5513 H   0  0  0  0  0  0  0  0  0  0  0  0 
    0.4538    3.1013   -2.8382 H   0  0  0  0  0  0  0  0  0  0  0  0 
    0.6231    0.9649   -5.0122 H   0  0  0  0  0  0  0  0  0  0  0  0 
    0.6552    1.0624    1.9380 H   0  0  0  0  0  0  0  0  0  0  0  0 
   -1.1312    0.6643    0.0848 H   0  0  0  0  0  0  0  0  0  0  0  0 
    2.7993    1.7235   -2.9324 H   0  0  0  0  0  0  0  0  0  0  0  0 
   -1.3818    1.5022   -2.4448 H   0  0  0  0  0  0  0  0  0  0  0  0 
    2.4770    2.8087   -5.3412 H   0  0  0  0  0  0  0  0  0  0  0  0 
   -1.3933    2.5936   -4.8020 H   0  0  0  0  0  0  0  0  0  0  0  0 
  1 14  1  0  0  0  0 
  1  7  1  0  0  0  0 
  2 16  1  1  0  0  0 
  2  1  1  0  0  0  0 
  3 17  1  6  0  0  0 
  3  9  1  0  0  0  0 
  3  2  1  0  0  0  0 
  4 18  1  1  0  0  0 
  4  3  1  0  0  0  0 
  5 19  1  6  0  0  0 
  5  4  1  0  0  0  0 
  6 13  1  0  0  0  0 
  6  5  1  0  0  0  0 
  7 20  1  0  0  0  0 
  8  2  1  0  0  0  0 
  8 21  1  0  0  0  0 
 10  4  1  0  0  0  0 
 10 23  1  0  0  0  0 
 11  5  1  0  0  0  0 
 12  6  2  0  0  0  0 
 13 25  1  0  0  0  0 
 15  1  1  0  0  0  0 
 22  9  1  0  0  0  0 
 24 11  1  0  0  0  0 
M  END 
>  <HBA> 
7 
 
>  <HBD> 
6 
 
>  <TPSA> 
138.45 
 
>  <cid> 
604 
 
>  <dipole> 
4.31 
 
>  <excitation_energy_1> 
5.942 
 
>  <excitation_energy_2> 
6.462 
 
>  <excitation_energy_3> 
6.589 
 
>  <excitation_energy_4> 
6.679 
 
>  <homo_energy> 
-7.41 
 
>  <homo_lumo_gap> 
7.404 
 
>  <logP> 
-3.493 
 
>  <lumo_energy> 
-0.005 
 
>  <melting_point> 
143.69 
 
>  <molecular_refractivity> 
38.54 
 
>  <oscillator_strength_1> 
0.0019 
 
>  <oscillator_strength_2> 
0.0035 
 
>  <oscillator_strength_3> 
0.0131 
 
>  <oscillator_strength_4> 
0.0093 
 
>  <open_babel_can_smiles> 
OC[C@@H]([C@@H]([C@@H]([C@@H](C(=O)O)O)O)O)O 
 
>  <mulliken_charges> 
25 
1   -0.07067 
2   0.12086 
3   0.123893 
4   0.087772 
5   0.05023 
6   0.589649 
7   -0.624441 
8   -0.677582 
9   -0.669277 
10   -0.69435 
11   -0.668497 
12   -0.476232 
13   -0.575544 
14   0.170973 
15   0.16291 
16   0.123038 
17   0.125254 
18   0.137618 
19   0.1718 
20   0.40139 
21   0.421385 
22   0.437896 
23   0.451589 
24   0.427426 
25   0.45291 
 
>  <lowdin_charges> 
25 
1   -0.148378 
2   -0.023887 
3   -0.017921 
4   -0.026374 
5   -0.05229 
6   0.183785 
7   -0.464703 
8   -0.472179 
9   -0.473293 
10   -0.47908 
11   -0.456872 
12   -0.260848 
13   -0.337466 
14   0.157121 
15   0.15611 
16   0.128956 
17   0.131976 
18   0.137706 
19   0.1598 
20   0.350448 
21   0.354788 
22   0.354708 
23   0.364369 
24   0.361737 
25   0.371788 
 
$$$$ 
 
