PCCDB-ID:  36 
public computational chemistry database (PCCDB) project, http://pccdb.org 
 
 24 23  0  0  1  0  0  0  0  0999 V2000 
    2.6874    0.7969    1.3755 C   0  0  0  0  0  0  0  0  0  0  0  0 
    2.6548    0.7597   -1.1552 C   0  0  0  0  0  0  0  0  0  0  0  0 
    2.4331   -0.0608    0.1242 C   0  0  0  0  0  0  0  0  0  0  0  0 
    3.2240   -1.4160    0.1282 C   0  0  1  0  0  0  0  0  0  0  0  0 
    2.6124   -2.4028   -0.9149 C   0  0  1  0  0  0  0  0  0  0  0  0 
    4.7144   -1.1982   -0.1043 C   0  0  0  0  0  0  0  0  0  0  0  0 
    3.1705   -3.8394   -0.7940 C   0  0  0  0  0  0  0  0  0  0  0  0 
    1.2187   -2.4710   -0.7420 O   0  0  0  0  0  0  0  0  0  0  0  0 
    5.3035   -1.5096   -1.1242 O   0  0  0  0  0  0  0  0  0  0  0  0 
    5.4072   -0.5989    0.8827 O   0  0  0  0  0  0  0  0  0  0  0  0 
    2.4557   -4.7258   -0.3705 O   0  0  0  0  0  0  0  0  0  0  0  0 
    4.4230   -4.0642   -1.1824 O   0  0  0  0  0  0  0  0  0  0  0  0 
    1.9436    1.5987    1.4349 H   0  0  0  0  0  0  0  0  0  0  0  0 
    3.6684    1.2885    1.3556 H   0  0  0  0  0  0  0  0  0  0  0  0 
    2.5986    0.2110    2.3006 H   0  0  0  0  0  0  0  0  0  0  0  0 
    2.0197    1.6522   -1.1411 H   0  0  0  0  0  0  0  0  0  0  0  0 
    2.3995    0.1925   -2.0557 H   0  0  0  0  0  0  0  0  0  0  0  0 
    3.6948    1.0954   -1.2510 H   0  0  0  0  0  0  0  0  0  0  0  0 
    1.3864   -0.3780    0.1523 H   0  0  0  0  0  0  0  0  0  0  0  0 
    3.0895   -1.8669    1.1226 H   0  0  0  0  0  0  0  0  0  0  0  0 
    2.8412   -2.0310   -1.9221 H   0  0  0  0  0  0  0  0  0  0  0  0 
    1.0506   -3.3867   -0.4349 H   0  0  0  0  0  0  0  0  0  0  0  0 
    4.8226   -0.3984    1.6327 H   0  0  0  0  0  0  0  0  0  0  0  0 
    4.8477   -3.2132   -1.4442 H   0  0  0  0  0  0  0  0  0  0  0  0 
  1 13  1  0  0  0  0 
  1 15  1  0  0  0  0 
  2 16  1  0  0  0  0 
  2  3  1  0  0  0  0 
  3  4  1  0  0  0  0 
  3 19  1  0  0  0  0 
  3  1  1  0  0  0  0 
  4 20  1  1  0  0  0 
  5 21  1  6  0  0  0 
  5  7  1  0  0  0  0 
  5  8  1  0  0  0  0 
  5  4  1  0  0  0  0 
  6  4  1  0  0  0  0 
  6 10  1  0  0  0  0 
  7 11  2  0  0  0  0 
  8 22  1  0  0  0  0 
  9  6  2  0  0  0  0 
 10 23  1  0  0  0  0 
 12  7  1  0  0  0  0 
 14  1  1  0  0  0  0 
 17  2  1  0  0  0  0 
 18  2  1  0  0  0  0 
 24 12  1  0  0  0  0 
M  END 
>  <HBA> 
5 
 
>  <HBD> 
3 
 
>  <TPSA> 
94.83 
 
>  <cid> 
36 
 
>  <dipole> 
4.72 
 
>  <excitation_energy_1> 
5.593 
 
>  <excitation_energy_2> 
5.889 
 
>  <excitation_energy_3> 
6.094 
 
>  <excitation_energy_4> 
6.284 
 
>  <homo_energy> 
-7.717 
 
>  <homo_lumo_gap> 
6.898 
 
>  <logP> 
-0.211 
 
>  <lumo_energy> 
-0.819 
 
>  <melting_point> 
145.71 
 
>  <molecular_refractivity> 
40.47 
 
>  <oscillator_strength_1> 
0.0033 
 
>  <oscillator_strength_2> 
0.0011 
 
>  <oscillator_strength_3> 
0.0071 
 
>  <oscillator_strength_4> 
0.0027 
 
>  <open_babel_can_smiles> 
CC([C@@H]([C@@H](C(=O)O)O)C(=O)O)C 
 
>  <mulliken_charges> 
24 
1   -0.497812 
2   -0.467403 
3   -0.074531 
4   -0.246759 
5   0.046146 
6   0.627806 
7   0.577817 
8   -0.642932 
9   -0.488853 
10   -0.551276 
11   -0.471745 
12   -0.574441 
13   0.170686 
14   0.150922 
15   0.145713 
16   0.155996 
17   0.166756 
18   0.15779 
19   0.190828 
20   0.158014 
21   0.167498 
22   0.418458 
23   0.42753 
24   0.453791 
 
>  <lowdin_charges> 
24 
1   -0.462185 
2   -0.449699 
3   -0.121321 
4   -0.183981 
5   -0.042924 
6   0.210003 
7   0.180537 
8   -0.452291 
9   -0.270454 
10   -0.325456 
11   -0.260792 
12   -0.335213 
13   0.167028 
14   0.147725 
15   0.147966 
16   0.159144 
17   0.160221 
18   0.1523 
19   0.171078 
20   0.161168 
21   0.157111 
22   0.354179 
23   0.366933 
24   0.368923 
 
$$$$ 
 
