PCCDB-ID:  1044 
public computational chemistry database (PCCDB) project, http://pccdb.org 
 
 13 14  0  0  0  0  0  0  0  0999 V2000 
    0.9387   -1.3683    0.0018 C   0  0  0  0  0  0  0  0  0  0  0  0 
    1.9935    0.6767    0.0009 C   0  0  0  0  0  0  0  0  0  0  0  0 
   -2.3024   -0.0262   -0.0014 C   0  0  0  0  0  0  0  0  0  0  0  0 
   -0.2893   -0.7078    0.0004 C   0  0  0  0  0  0  0  0  0  0  0  0 
   -0.2193    0.7035   -0.0003 C   0  0  0  0  0  0  0  0  0  0  0  0 
    2.0780   -0.6662    0.0018 N   0  0  0  0  0  0  0  0  0  0  0  0 
   -1.6093   -1.1359   -0.0001 N   0  0  0  0  0  0  0  0  0  0  0  0 
    0.8898    1.4361    0.0002 N   0  0  0  0  0  0  0  0  0  0  0  0 
   -1.5311    1.1203   -0.0006 N   0  0  0  0  0  0  0  0  0  0  0  0 
    1.0131   -2.4541    0.0022 H   0  0  0  0  0  0  0  0  0  0  0  0 
    2.9398    1.2122    0.0007 H   0  0  0  0  0  0  0  0  0  0  0  0 
   -3.3838    0.0283   -0.0023 H   0  0  0  0  0  0  0  0  0  0  0  0 
   -1.8514    2.0784   -0.0049 H   0  0  0  0  0  0  0  0  0  0  0  0 
  1  6  1  0  0  0  0 
  1 10  1  0  0  0  0 
  2  6  2  0  0  0  0 
  3  9  1  0  0  0  0 
  3  7  2  0  0  0  0 
  4  1  1  0  0  0  0 
  5  8  1  0  0  0  0 
  5  4  2  0  0  0  0 
  7  4  1  0  0  0  0 
  8  2  1  0  0  0  0 
  9  5  1  0  0  0  0 
 11  2  1  0  0  0  0 
 12  3  1  0  0  0  0 
 13  9  1  0  0  0  0 
M  RAD  2   1   2   8   2 
M  END 
>  <HBA> 
3 
 
>  <HBD> 
1 
 
>  <TPSA> 
54.46 
 
>  <cid> 
1044 
 
>  <dipole> 
3.68 
 
>  <excitation_energy_1> 
4.283 
 
>  <excitation_energy_2> 
5.201 
 
>  <excitation_energy_3> 
5.278 
 
>  <excitation_energy_4> 
5.374 
 
>  <homo_energy> 
-6.874 
 
>  <homo_lumo_gap> 
5.587 
 
>  <logP> 
0.353 
 
>  <lumo_energy> 
-1.287 
 
>  <melting_point> 
141.44 
 
>  <molecular_refractivity> 
31.68 
 
>  <oscillator_strength_1> 
0.0019 
 
>  <oscillator_strength_2> 
0.1397 
 
>  <oscillator_strength_3> 
0.0019 
 
>  <oscillator_strength_4> 
0.0001 
 
>  <open_babel_can_smiles> 
C1=N[CH]c2c([N]1)[nH]cn2 
 
>  <mulliken_charges> 
13 
1   0.029492 
2   0.160234 
3   0.234371 
4   0.226459 
5   0.518148 
6   -0.406815 
7   -0.488561 
8   -0.472443 
9   -0.642562 
10   0.16396 
11   0.155303 
12   0.17496 
13   0.347455 
 
>  <lowdin_charges> 
13 
1   -0.055505 
2   -0.042146 
3   -0.041809 
4   -0.026561 
5   0.066246 
6   -0.170599 
7   -0.177137 
8   -0.16922 
9   -0.192975 
10   0.167782 
11   0.163073 
12   0.173681 
13   0.305169 
 
$$$$ 
 
