PCCDB-ID:  5918 
public computational chemistry database (PCCDB) project, http://pccdb.org 
 
 15 15  0  0  0  0  0  0  0  0999 V2000 
   -0.7947    1.1416   -0.0705 C   0  0  0  0  0  0  0  0  0  0  0  0 
   -1.3824   -0.0879   -0.0671 C   0  0  0  0  0  0  0  0  0  0  0  0 
    0.7574   -1.1621   -0.0325 C   0  0  0  0  0  0  0  0  0  0  0  0 
    0.6457    1.3015   -0.0664 C   0  0  0  0  0  0  0  0  0  0  0  0 
    1.4082    0.0359   -0.0301 C   0  0  0  0  0  0  0  0  0  0  0  0 
    1.3361    2.4031   -0.1036 N   0  0  0  0  0  0  0  0  0  0  0  0 
    2.7836    0.1776    0.0459 N   0  0  0  0  0  0  0  0  0  0  0  0 
   -0.6299   -1.2229   -0.0562 N   0  0  0  0  0  0  0  0  0  0  0  0 
   -1.4222    2.0275   -0.0927 H   0  0  0  0  0  0  0  0  0  0  0  0 
   -2.4578   -0.2285   -0.0779 H   0  0  0  0  0  0  0  0  0  0  0  0 
    1.2724   -2.1154   -0.0063 H   0  0  0  0  0  0  0  0  0  0  0  0 
    0.7152    3.2160   -0.1354 H   0  0  0  0  0  0  0  0  0  0  0  0 
    3.3424   -0.5401   -0.3960 H   0  0  0  0  0  0  0  0  0  0  0  0 
    3.0575    1.1304   -0.1837 H   0  0  0  0  0  0  0  0  0  0  0  0 
   -1.0795   -2.1247   -0.0462 H   0  0  0  0  0  0  0  0  0  0  0  0 
  1  2  2  0  0  0  0 
  1  4  1  0  0  0  0 
  2  8  1  0  0  0  0 
  3  5  2  0  0  0  0 
  3 11  1  0  0  0  0 
  4  5  1  0  0  0  0 
  5  7  1  0  0  0  0 
  6  4  2  0  0  0  0 
  8 15  1  0  0  0  0 
  8  3  1  0  0  0  0 
  9  1  1  0  0  0  0 
 10  2  1  0  0  0  0 
 12  6  1  0  0  0  0 
 13  7  1  0  0  0  0 
 14  7  1  0  0  0  0 
M  END 
>  <HBA> 
3 
 
>  <HBD> 
2 
 
>  <TPSA> 
64.93 
 
>  <cid> 
5918 
 
>  <dipole> 
4.6 
 
>  <excitation_energy_1> 
3.738 
 
>  <excitation_energy_2> 
4.288 
 
>  <excitation_energy_3> 
4.415 
 
>  <excitation_energy_4> 
4.595 
 
>  <homo_energy> 
-4.612 
 
>  <homo_lumo_gap> 
4.759 
 
>  <logP> 
1.408 
 
>  <lumo_energy> 
0.147 
 
>  <melting_point> 
118.13 
 
>  <molecular_refractivity> 
33.05 
 
>  <oscillator_strength_1> 
0.0002 
 
>  <oscillator_strength_2> 
0.0572 
 
>  <oscillator_strength_3> 
0.1329 
 
>  <oscillator_strength_4> 
0.0383 
 
>  <open_babel_can_smiles> 
N=c1cc[nH]cc1N 
 
>  <mulliken_charges> 
15 
1   -0.23166 
2   0.084481 
3   -0.00354 
4   0.324634 
5   0.2686 
6   -0.72267 
7   -0.80271 
8   -0.60324 
9   0.125212 
10   0.153071 
11   0.141854 
12   0.266223 
13   0.308766 
14   0.355447 
15   0.335531 
 
>  <lowdin_charges> 
15 
1   -0.243809 
2   -0.098983 
3   -0.176208 
4   0.041342 
5   0.031745 
6   -0.472751 
7   -0.48485 
8   -0.185619 
9   0.161978 
10   0.162677 
11   0.160939 
12   0.243118 
13   0.272676 
14   0.293783 
15   0.293961 
 
$$$$ 
 
