PCCDB-ID:  5365 
public computational chemistry database (PCCDB) project, http://pccdb.org 
 
 22 21  0  0  1  0  0  0  0  0999 V2000 
    0.6473   -0.5180    0.6184 C   0  0  0  0  0  0  0  0  0  0  0  0 
    1.6269   -1.4066   -1.5447 C   0  0  0  0  0  0  0  0  0  0  0  0 
    0.3335   -1.0026   -0.8180 C   0  0  1  0  0  0  0  0  0  0  0  0 
    1.5407   -1.5385   -3.0767 C   0  0  1  0  0  0  0  0  0  0  0  0 
   -0.6933   -2.1362   -0.7446 C   0  0  0  0  0  0  0  0  0  0  0  0 
    2.9795   -1.4582   -3.6608 C   0  0  0  0  0  0  0  0  0  0  0  0 
    0.8985   -2.7780   -3.5561 N   0  0  0  0  0  0  0  0  0  0  0  0 
   -0.4667   -3.3001   -0.9867 O   0  0  0  0  0  0  0  0  0  0  0  0 
   -1.9378   -1.7779   -0.3397 O   0  0  0  0  0  0  0  0  0  0  0  0 
    3.7228   -0.5316   -3.4255 O   0  0  0  0  0  0  0  0  0  0  0  0 
    3.2965   -2.4968   -4.4356 O   0  0  0  0  0  0  0  0  0  0  0  0 
    1.3389    0.3291    0.5846 H   0  0  0  0  0  0  0  0  0  0  0  0 
    1.1166   -1.3190    1.1994 H   0  0  0  0  0  0  0  0  0  0  0  0 
   -0.2504   -0.1971    1.1589 H   0  0  0  0  0  0  0  0  0  0  0  0 
    2.0028   -2.3453   -1.1189 H   0  0  0  0  0  0  0  0  0  0  0  0 
    2.3810   -0.6394   -1.3456 H   0  0  0  0  0  0  0  0  0  0  0  0 
   -0.1349   -0.1691   -1.3647 H   0  0  0  0  0  0  0  0  0  0  0  0 
    1.0208   -0.6556   -3.4737 H   0  0  0  0  0  0  0  0  0  0  0  0 
    0.5466   -3.3329   -2.7775 H   0  0  0  0  0  0  0  0  0  0  0  0 
    0.1161   -2.5859   -4.1750 H   0  0  0  0  0  0  0  0  0  0  0  0 
   -1.9772   -0.8211   -0.1751 H   0  0  0  0  0  0  0  0  0  0  0  0 
    2.4820   -3.0740   -4.3956 H   0  0  0  0  0  0  0  0  0  0  0  0 
  1 14  1  0  0  0  0 
  1 13  1  0  0  0  0 
  2 16  1  0  0  0  0 
  2 15  1  0  0  0  0 
  2  3  1  0  0  0  0 
  3 17  1  6  0  0  0 
  3  5  1  0  0  0  0 
  3  1  1  0  0  0  0 
  4 18  1  6  0  0  0 
  4  2  1  0  0  0  0 
  5  9  1  0  0  0  0 
  6 10  2  0  0  0  0 
  6  4  1  0  0  0  0 
  7  4  1  0  0  0  0 
  7 19  1  0  0  0  0 
  8  5  2  0  0  0  0 
  9 21  1  0  0  0  0 
 11 22  1  0  0  0  0 
 11  6  1  0  0  0  0 
 12  1  1  0  0  0  0 
 20  7  1  0  0  0  0 
M  END 
>  <HBA> 
5 
 
>  <HBD> 
3 
 
>  <TPSA> 
100.62 
 
>  <cid> 
5365 
 
>  <dipole> 
5.62 
 
>  <excitation_energy_1> 
5.394 
 
>  <excitation_energy_2> 
5.439 
 
>  <excitation_energy_3> 
5.661 
 
>  <excitation_energy_4> 
5.791 
 
>  <homo_energy> 
-6.634 
 
>  <homo_lumo_gap> 
6.172 
 
>  <logP> 
0.209 
 
>  <lumo_energy> 
-0.463 
 
>  <melting_point> 
182.0 
 
>  <molecular_refractivity> 
37.21 
 
>  <oscillator_strength_1> 
0.0022 
 
>  <oscillator_strength_2> 
0.0004 
 
>  <oscillator_strength_3> 
0.0016 
 
>  <oscillator_strength_4> 
0.0016 
 
>  <open_babel_can_smiles> 
OC(=O)[C@H](C[C@@H](C(=O)O)N)C 
 
>  <mulliken_charges> 
22 
1   -0.458338 
2   -0.286579 
3   -0.21835 
4   -0.070744 
5   0.61815 
6   0.602383 
7   -0.808653 
8   -0.455619 
9   -0.56106 
10   -0.476853 
11   -0.578565 
12   0.176381 
13   0.177889 
14   0.141959 
15   0.167379 
16   0.185289 
17   0.146008 
18   0.157842 
19   0.367635 
20   0.321562 
21   0.41618 
22   0.436103 
 
>  <lowdin_charges> 
22 
1   -0.441779 
2   -0.280607 
3   -0.168503 
4   -0.108567 
5   0.198628 
6   0.170726 
7   -0.560178 
8   -0.250133 
9   -0.342218 
10   -0.271601 
11   -0.352962 
12   0.167123 
13   0.167203 
14   0.148722 
15   0.162634 
16   0.176161 
17   0.151817 
18   0.156187 
19   0.285278 
20   0.272288 
21   0.359462 
22   0.360316 
 
$$$$ 
 
