PCCDB-ID:  919 
public computational chemistry database (PCCDB) project, http://pccdb.org 
 
 31 30  0  0  1  0  0  0  0  0999 V2000 
    0.1002    2.3607    2.4349 C   0  0  0  0  0  0  0  0  0  0  0  0 
   -0.1250    1.4280    1.2352 C   0  0  0  0  0  0  0  0  0  0  0  0 
    1.3012   -1.8596    0.8972 C   0  0  0  0  0  0  0  0  0  0  0  0 
    1.2053   -3.2092    1.6484 C   0  0  0  0  0  0  0  0  0  0  0  0 
    0.8133    1.6948    3.6152 C   0  0  0  0  0  0  0  0  0  0  0  0 
   -0.8677    0.1026    1.5467 C   0  0  1  0  0  0  0  0  0  0  0  0 
    0.0332   -1.5783    0.1110 C   0  0  0  0  0  0  0  0  0  0  0  0 
    2.5028   -3.6282    2.3110 C   0  0  0  0  0  0  0  0  0  0  0  0 
   -2.3211    0.3956    1.9632 C   0  0  0  0  0  0  0  0  0  0  0  0 
   -0.8963   -0.7518    0.3671 N   0  0  0  0  0  0  0  0  0  0  0  0 
    1.9655    0.9326    3.2328 O   0  0  0  0  0  0  0  0  0  0  0  0 
   -0.1416   -2.3513   -0.9985 O   0  0  0  0  0  0  0  0  0  0  0  0 
    2.6165   -4.0178    3.4486 O   0  0  0  0  0  0  0  0  0  0  0  0 
    3.5547   -3.5459    1.4536 O   0  0  0  0  0  0  0  0  0  0  0  0 
   -2.6006    0.9164    3.0208 O   0  0  0  0  0  0  0  0  0  0  0  0 
   -3.2427    0.0612    1.0497 O   0  0  0  0  0  0  0  0  0  0  0  0 
   -0.8544    2.7556    2.7977 H   0  0  0  0  0  0  0  0  0  0  0  0 
    0.6902    3.2209    2.0848 H   0  0  0  0  0  0  0  0  0  0  0  0 
    0.8455    1.1511    0.8088 H   0  0  0  0  0  0  0  0  0  0  0  0 
   -0.6726    1.9582    0.4467 H   0  0  0  0  0  0  0  0  0  0  0  0 
    2.1475   -1.8936    0.1999 H   0  0  0  0  0  0  0  0  0  0  0  0 
    1.5086   -1.0535    1.6053 H   0  0  0  0  0  0  0  0  0  0  0  0 
    0.9203   -4.0088    0.9512 H   0  0  0  0  0  0  0  0  0  0  0  0 
    0.4415   -3.1709    2.4281 H   0  0  0  0  0  0  0  0  0  0  0  0 
    0.1430    0.9832    4.1037 H   0  0  0  0  0  0  0  0  0  0  0  0 
    1.0844    2.4518    4.3659 H   0  0  0  0  0  0  0  0  0  0  0  0 
   -0.3936   -0.3803    2.4083 H   0  0  0  0  0  0  0  0  0  0  0  0 
    2.6128    1.5498    2.8566 H   0  0  0  0  0  0  0  0  0  0  0  0 
    0.6597   -2.8734   -1.1602 H   0  0  0  0  0  0  0  0  0  0  0  0 
    4.3365   -3.8433    1.9564 H   0  0  0  0  0  0  0  0  0  0  0  0 
   -2.7418   -0.3805    0.3203 H   0  0  0  0  0  0  0  0  0  0  0  0 
  1 17  1  0  0  0  0 
  1  5  1  0  0  0  0 
  2  6  1  0  0  0  0 
  2  1  1  0  0  0  0 
  3 22  1  0  0  0  0 
  3  4  1  0  0  0  0 
  4  8  1  0  0  0  0 
  4 24  1  0  0  0  0 
  5 25  1  0  0  0  0 
  5 26  1  0  0  0  0 
  6  9  1  0  0  0  0 
  6 27  1  1  0  0  0 
  7 10  2  0  0  0  0 
  7  3  1  0  0  0  0 
  8 13  2  0  0  0  0 
  9 15  2  0  0  0  0 
 10  6  1  0  0  0  0 
 11  5  1  0  0  0  0 
 12  7  1  0  0  0  0 
 14 30  1  0  0  0  0 
 14  8  1  0  0  0  0 
 16  9  1  0  0  0  0 
 18  1  1  0  0  0  0 
 19  2  1  0  0  0  0 
 20  2  1  0  0  0  0 
 21  3  1  0  0  0  0 
 23  4  1  0  0  0  0 
 28 11  1  0  0  0  0 
 29 12  1  0  0  0  0 
 31 16  1  0  0  0  0 
M  END 
>  <HBA> 
7 
 
>  <HBD> 
4 
 
>  <TPSA> 
123.93 
 
>  <cid> 
919 
 
>  <dipole> 
7.27 
 
>  <excitation_energy_1> 
5.495 
 
>  <excitation_energy_2> 
5.612 
 
>  <excitation_energy_3> 
5.729 
 
>  <excitation_energy_4> 
5.818 
 
>  <homo_energy> 
-6.817 
 
>  <homo_lumo_gap> 
6.305 
 
>  <logP> 
-0.416 
 
>  <lumo_energy> 
-0.512 
 
>  <melting_point> 
192.95 
 
>  <molecular_refractivity> 
53.08 
 
>  <oscillator_strength_1> 
0.028 
 
>  <oscillator_strength_2> 
0.0021 
 
>  <oscillator_strength_3> 
0.0087 
 
>  <oscillator_strength_4> 
0.0015 
 
>  <open_babel_can_smiles> 
OCCC[C@@H](C(=O)O)/N=C(\CCC(=O)O)/O 
 
>  <mulliken_charges> 
31 
1   -0.296685 
2   -0.246525 
3   -0.409216 
4   -0.351462 
5   -0.051495 
6   -0.090699 
7   0.5109 
8   0.579308 
9   0.606517 
10   -0.479537 
11   -0.618226 
12   -0.577978 
13   -0.443869 
14   -0.568029 
15   -0.47607 
16   -0.578093 
17   0.178656 
18   0.125467 
19   0.135277 
20   0.15343 
21   0.177715 
22   0.220912 
23   0.174501 
24   0.199601 
25   0.173152 
26   0.131688 
27   0.16999 
28   0.389244 
29   0.414715 
30   0.415747 
31   0.431062 
 
>  <lowdin_charges> 
31 
1   -0.301254 
2   -0.273162 
3   -0.317634 
4   -0.294806 
5   -0.143767 
6   -0.105592 
7   0.144304 
8   0.192808 
9   0.179574 
10   -0.220525 
11   -0.47809 
12   -0.356758 
13   -0.245677 
14   -0.366773 
15   -0.267002 
16   -0.34871 
17   0.170097 
18   0.140624 
19   0.144212 
20   0.156366 
21   0.168585 
22   0.185975 
23   0.169607 
24   0.181437 
25   0.158087 
26   0.136514 
27   0.160622 
28   0.343449 
29   0.360536 
30   0.366089 
31   0.360864 
 
$$$$ 
 
