PCCDB-ID:  655 
public computational chemistry database (PCCDB) project, http://pccdb.org 
 
 20 19  0  0  0  0  0  0  0  0999 V2000 
    1.2078   -0.3069   -1.7652 C   0  0  0  0  0  0  0  0  0  0  0  0 
    4.6646    2.6822    2.7233 C   0  0  0  0  0  0  0  0  0  0  0  0 
    2.6888   -0.0852   -2.0076 C   0  0  0  0  0  0  0  0  0  0  0  0 
    4.4945    1.6062    1.6683 C   0  0  0  0  0  0  0  0  0  0  0  0 
    4.9193    2.4800   -2.0777 O   0  0  0  0  0  0  0  0  0  0  0  0 
    3.1511    0.8996   -1.0474 O   0  0  0  0  0  0  0  0  0  0  0  0 
    4.6801    2.2243    0.3682 O   0  0  0  0  0  0  0  0  0  0  0  0 
    4.7164    1.3182   -0.9672 P   0  0  0  0  0  0  0  0  0  0  0  0 
    6.0048   -0.1140   -1.1112 S   0  0  0  0  0  0  0  0  0  0  0  0 
    0.8265   -1.0560   -2.4678 H   0  0  0  0  0  0  0  0  0  0  0  0 
    0.6427    0.6198   -1.9071 H   0  0  0  0  0  0  0  0  0  0  0  0 
    1.0329   -0.6677   -0.7466 H   0  0  0  0  0  0  0  0  0  0  0  0 
    4.5179    2.2498    3.7192 H   0  0  0  0  0  0  0  0  0  0  0  0 
    3.9331    3.4845    2.5835 H   0  0  0  0  0  0  0  0  0  0  0  0 
    5.6689    3.1144    2.6771 H   0  0  0  0  0  0  0  0  0  0  0  0 
    2.8761    0.2948   -3.0185 H   0  0  0  0  0  0  0  0  0  0  0  0 
    3.2658   -1.0051   -1.8711 H   0  0  0  0  0  0  0  0  0  0  0  0 
    3.4931    1.1636    1.7003 H   0  0  0  0  0  0  0  0  0  0  0  0 
    5.2369    0.8095    1.7834 H   0  0  0  0  0  0  0  0  0  0  0  0 
    4.4025    3.2723   -1.8471 H   0  0  0  0  0  0  0  0  0  0  0  0 
  1 12  1  0  0  0  0 
  2 13  1  0  0  0  0 
  3 17  1  0  0  0  0 
  3  1  1  0  0  0  0 
  3  6  1  0  0  0  0 
  4 18  1  0  0  0  0 
  4 19  1  0  0  0  0 
  4  2  1  0  0  0  0 
  5 20  1  0  0  0  0 
  5  8  1  0  0  0  0 
  6  8  1  0  0  0  0 
  7  4  1  0  0  0  0 
  8  7  1  0  0  0  0 
  9  8  1  0  0  0  0 
 10  1  1  0  0  0  0 
 11  1  1  0  0  0  0 
 14  2  1  0  0  0  0 
 15  2  1  0  0  0  0 
 16  3  1  0  0  0  0 
M  RAD  1   9   2 
M  END 
>  <HBA> 
4 
 
>  <HBD> 
1 
 
>  <TPSA> 
80.59 
 
>  <cid> 
655 
 
>  <dipole> 
4.43 
 
>  <excitation_energy_1> 
5.486 
 
>  <excitation_energy_2> 
5.639 
 
>  <excitation_energy_3> 
6.181 
 
>  <excitation_energy_4> 
6.36 
 
>  <homo_energy> 
-6.463 
 
>  <homo_lumo_gap> 
7.336 
 
>  <logP> 
1.927 
 
>  <lumo_energy> 
0.873 
 
>  <melting_point> 
8.73 
 
>  <molecular_refractivity> 
40.24 
 
>  <oscillator_strength_1> 
0.0193 
 
>  <oscillator_strength_2> 
0.0283 
 
>  <oscillator_strength_3> 
0.0231 
 
>  <oscillator_strength_4> 
0.0175 
 
>  <open_babel_can_smiles> 
CCOP(OCC)([S])O 
 
>  <mulliken_charges> 
20 
1   -0.455675 
2   -0.457396 
3   -0.044426 
4   -0.038206 
5   -0.616759 
6   -0.518422 
7   -0.514342 
8   0.955877 
9   -0.393492 
10   0.155646 
11   0.161228 
12   0.164011 
13   0.154692 
14   0.161769 
15   0.170466 
16   0.160144 
17   0.180279 
18   0.161295 
19   0.176062 
20   0.437249 
 
>  <lowdin_charges> 
20 
1   -0.447834 
2   -0.446723 
3   -0.117749 
4   -0.115454 
5   -0.555559 
6   -0.410351 
7   -0.403746 
8   0.910787 
9   -0.385059 
10   0.162473 
11   0.158609 
12   0.159442 
13   0.160743 
14   0.159525 
15   0.162761 
16   0.150368 
17   0.162558 
18   0.151109 
19   0.161868 
20   0.382233 
 
$$$$ 
 
