PCCDB-ID:  833 
public computational chemistry database (PCCDB) project, http://pccdb.org 
 
 25 24  0  0  1  0  0  0  0  0999 V2000 
    1.3015   -0.3552   -0.1453 C   0  0  0  0  0  0  0  0  0  0  0  0 
    1.8390   -1.4244   -1.1118 C   0  0  0  0  0  0  0  0  0  0  0  0 
    2.0592    0.9780   -0.1220 C   0  0  0  0  0  0  0  0  0  0  0  0 
    3.2362   -2.0310   -0.8256 C   0  0  1  0  0  0  0  0  0  0  0  0 
    3.3022   -2.6114    0.6041 C   0  0  0  0  0  0  0  0  0  0  0  0 
    4.2117    1.9368    0.5788 C   0  0  0  0  0  0  0  0  0  0  0  0 
    3.5601   -2.9574   -1.9015 N   0  0  0  0  0  0  0  0  0  0  0  0 
    4.1097    3.1161    0.0890 N   0  0  0  0  0  0  0  0  0  0  0  0 
    3.3892    0.8449    0.4499 N   0  0  0  0  0  0  0  0  0  0  0  0 
    3.3071   -1.9232    1.6037 O   0  0  0  0  0  0  0  0  0  0  0  0 
    3.3376   -3.9552    0.6973 O   0  0  0  0  0  0  0  0  0  0  0  0 
    5.2990    1.6219    1.3353 O   0  0  0  0  0  0  0  0  0  0  0  0 
    1.2416   -0.7558    0.8722 H   0  0  0  0  0  0  0  0  0  0  0  0 
    0.2714   -0.1329   -0.4502 H   0  0  0  0  0  0  0  0  0  0  0  0 
    1.8907   -1.0132   -2.1270 H   0  0  0  0  0  0  0  0  0  0  0  0 
    1.1127   -2.2506   -1.1475 H   0  0  0  0  0  0  0  0  0  0  0  0 
    1.4593    1.7133    0.4397 H   0  0  0  0  0  0  0  0  0  0  0  0 
    2.1503    1.3651   -1.1473 H   0  0  0  0  0  0  0  0  0  0  0  0 
    3.9691   -1.2189   -0.8443 H   0  0  0  0  0  0  0  0  0  0  0  0 
    2.8397   -3.6289   -2.1450 H   0  0  0  0  0  0  0  0  0  0  0  0 
    4.4850   -3.3705   -1.8733 H   0  0  0  0  0  0  0  0  0  0  0  0 
    3.2507    3.2382   -0.4445 H   0  0  0  0  0  0  0  0  0  0  0  0 
    3.5196    0.0976    1.1282 H   0  0  0  0  0  0  0  0  0  0  0  0 
    3.3803   -4.2997   -0.2161 H   0  0  0  0  0  0  0  0  0  0  0  0 
    5.8213    2.4425    1.3635 H   0  0  0  0  0  0  0  0  0  0  0  0 
  1  3  1  0  0  0  0 
  1 13  1  0  0  0  0 
  2  4  1  0  0  0  0 
  2  1  1  0  0  0  0 
  3 17  1  0  0  0  0 
  3  9  1  0  0  0  0 
  4 19  1  6  0  0  0 
  4  5  1  0  0  0  0 
  5 11  1  0  0  0  0 
  5 10  2  0  0  0  0 
  6 12  1  0  0  0  0 
  7 21  1  0  0  0  0 
  7  4  1  0  0  0  0 
  8  6  2  0  0  0  0 
  9  6  1  0  0  0  0 
  9 23  1  0  0  0  0 
 12 25  1  0  0  0  0 
 14  1  1  0  0  0  0 
 15  2  1  0  0  0  0 
 16  2  1  0  0  0  0 
 18  3  1  0  0  0  0 
 20  7  1  0  0  0  0 
 22  8  1  0  0  0  0 
 24 11  1  0  0  0  0 
M  END 
>  <HBA> 
6 
 
>  <HBD> 
4 
 
>  <TPSA> 
118.44 
 
>  <cid> 
833 
 
>  <dipole> 
5.56 
 
>  <excitation_energy_1> 
5.075 
 
>  <excitation_energy_2> 
5.161 
 
>  <excitation_energy_3> 
5.319 
 
>  <excitation_energy_4> 
5.55 
 
>  <homo_energy> 
-5.973 
 
>  <homo_lumo_gap> 
5.872 
 
>  <logP> 
0.638 
 
>  <lumo_energy> 
-0.101 
 
>  <melting_point> 
218.0 
 
>  <molecular_refractivity> 
41.53 
 
>  <oscillator_strength_1> 
0.0012 
 
>  <oscillator_strength_2> 
0.0066 
 
>  <oscillator_strength_3> 
0.0041 
 
>  <oscillator_strength_4> 
0.0175 
 
>  <open_babel_can_smiles> 
OC(=N)NCCC[C@@H](C(=O)O)N 
 
>  <mulliken_charges> 
25 
1   -0.303178 
2   -0.26638 
3   -0.118276 
4   -0.068063 
5   0.586968 
6   0.640402 
7   -0.754361 
8   -0.673515 
9   -0.629183 
10   -0.458848 
11   -0.554539 
12   -0.607512 
13   0.173665 
14   0.146633 
15   0.16599 
16   0.132385 
17   0.146172 
18   0.14505 
19   0.204786 
20   0.312379 
21   0.323621 
22   0.279252 
23   0.372969 
24   0.38754 
25   0.416045 
 
>  <lowdin_charges> 
25 
1   -0.282948 
2   -0.270199 
3   -0.19339 
4   -0.111817 
5   0.183776 
6   0.156468 
7   -0.554556 
8   -0.502927 
9   -0.314945 
10   -0.258689 
11   -0.344415 
12   -0.384387 
13   0.160404 
14   0.154866 
15   0.158789 
16   0.143195 
17   0.140679 
18   0.140264 
19   0.182207 
20   0.266466 
21   0.271953 
22   0.254254 
23   0.296669 
24   0.343321 
25   0.364961 
 
$$$$ 
 
