PCCDB-ID:  266 
public computational chemistry database (PCCDB) project, http://pccdb.org 
 
 19 18  0  0  0  0  0  0  0  0999 V2000 
    0.8117    0.3140   -0.0113 C   0  0  0  0  0  0  0  0  0  0  0  0 
    2.3264    0.1164    0.0934 C   0  0  0  0  0  0  0  0  0  0  0  0 
    3.0913    1.0248   -0.8952 C   0  0  0  0  0  0  0  0  0  0  0  0 
    4.5803    0.8372   -0.7906 C   0  0  0  0  0  0  0  0  0  0  0  0 
    5.3488    1.6225   -0.2654 O   0  0  0  0  0  0  0  0  0  0  0  0 
    6.7865   -1.7696   -2.4335 O   0  0  0  0  0  0  0  0  0  0  0  0 
    7.4611    0.3357   -1.2646 O   0  0  0  0  0  0  0  0  0  0  0  0 
    6.6080   -1.7585    0.1458 O   0  0  0  0  0  0  0  0  0  0  0  0 
    4.9877   -0.3423   -1.3453 O   0  0  0  0  0  0  0  0  0  0  0  0 
    6.5346   -0.9554   -1.0802 P   0  0  0  0  0  0  0  0  0  0  0  0 
    0.2866   -0.3324    0.6998 H   0  0  0  0  0  0  0  0  0  0  0  0 
    0.4479    0.0706   -1.0166 H   0  0  0  0  0  0  0  0  0  0  0  0 
    0.5284    1.3505    0.2066 H   0  0  0  0  0  0  0  0  0  0  0  0 
    2.5864   -0.9289   -0.1064 H   0  0  0  0  0  0  0  0  0  0  0  0 
    2.6619    0.3373    1.1141 H   0  0  0  0  0  0  0  0  0  0  0  0 
    2.8772    2.0777   -0.6918 H   0  0  0  0  0  0  0  0  0  0  0  0 
    2.7809    0.7927   -1.9208 H   0  0  0  0  0  0  0  0  0  0  0  0 
    6.9974   -1.1873   -3.1824 H   0  0  0  0  0  0  0  0  0  0  0  0 
    7.0544    1.0811   -0.7583 H   0  0  0  0  0  0  0  0  0  0  0  0 
  1  2  1  0  0  0  0 
  1 13  1  0  0  0  0 
  1 11  1  0  0  0  0 
  2 15  1  0  0  0  0 
  3  4  1  0  0  0  0 
  3 16  1  0  0  0  0 
  3  2  1  0  0  0  0 
  4  5  2  0  0  0  0 
  6 10  1  0  0  0  0 
  7 10  1  0  0  0  0 
  7 19  1  0  0  0  0 
  9 10  1  0  0  0  0 
  9  4  1  0  0  0  0 
 10  8  2  0  0  0  0 
 12  1  1  0  0  0  0 
 14  2  1  0  0  0  0 
 17  3  1  0  0  0  0 
 18  6  1  0  0  0  0 
M  END 
>  <HBA> 
5 
 
>  <HBD> 
2 
 
>  <TPSA> 
93.64 
 
>  <cid> 
266 
 
>  <dipole> 
4.98 
 
>  <excitation_energy_1> 
5.742 
 
>  <excitation_energy_2> 
6.584 
 
>  <excitation_energy_3> 
6.727 
 
>  <excitation_energy_4> 
7.053 
 
>  <homo_energy> 
-8.248 
 
>  <homo_lumo_gap> 
7.358 
 
>  <logP> 
0.422 
 
>  <lumo_energy> 
-0.89 
 
>  <melting_point> 
75.88 
 
>  <molecular_refractivity> 
33.61 
 
>  <oscillator_strength_1> 
0.003 
 
>  <oscillator_strength_2> 
0.0338 
 
>  <oscillator_strength_3> 
0.0102 
 
>  <oscillator_strength_4> 
0.0123 
 
>  <open_babel_can_smiles> 
CCCC(=O)OP(=O)(O)O 
 
>  <mulliken_charges> 
19 
1   -0.445379 
2   -0.27007 
3   -0.326492 
4   0.614031 
5   -0.483449 
6   -0.608018 
7   -0.669299 
8   -0.490955 
9   -0.521611 
10   1.155872 
11   0.15881 
12   0.149475 
13   0.150357 
14   0.172046 
15   0.161416 
16   0.175512 
17   0.172741 
18   0.443939 
19   0.461072 
 
>  <lowdin_charges> 
19 
1   -0.442221 
2   -0.263992 
3   -0.288246 
4   0.233333 
5   -0.261337 
6   -0.539723 
7   -0.577072 
8   -0.539457 
9   -0.343003 
10   1.135792 
11   0.160487 
12   0.150121 
13   0.150069 
14   0.158057 
15   0.153621 
16   0.168978 
17   0.169716 
18   0.39005 
19   0.384825 
 
$$$$ 
 
