PCCDB-ID:  887 
public computational chemistry database (PCCDB) project, http://pccdb.org 
 
  6  5  0  0  0  0  0  0  0  0999 V2000 
    0.9323   -0.0210   -0.0383 C   0  0  0  0  0  0  0  0  0  0  0  0 
    2.3501   -0.0347   -0.0816 O   0  0  0  0  0  0  0  0  0  0  0  0 
    0.5229    0.9805    0.1670 H   0  0  0  0  0  0  0  0  0  0  0  0 
    0.5229   -0.7226    0.7053 H   0  0  0  0  0  0  0  0  0  0  0  0 
    0.5848   -0.3335   -1.0268 H   0  0  0  0  0  0  0  0  0  0  0  0 
    2.6735    0.2405    0.7891 H   0  0  0  0  0  0  0  0  0  0  0  0 
  1  3  1  0  0  0  0 
  1  4  1  0  0  0  0 
  2  1  1  0  0  0  0 
  2  6  1  0  0  0  0 
  5  1  1  0  0  0  0 
M  END 
>  <HBA> 
1 
 
>  <HBD> 
1 
 
>  <TPSA> 
20.23 
 
>  <cid> 
887 
 
>  <dipole> 
1.69 
 
>  <excitation_energy_1> 
6.432 
 
>  <excitation_energy_2> 
7.341 
 
>  <excitation_energy_3> 
8.093 
 
>  <excitation_energy_4> 
8.182 
 
>  <homo_energy> 
-7.197 
 
>  <homo_lumo_gap> 
9.247 
 
>  <logP> 
-0.392 
 
>  <lumo_energy> 
2.049 
 
>  <melting_point> 
-4.62 
 
>  <molecular_refractivity> 
8.08 
 
>  <oscillator_strength_1> 
0.0006 
 
>  <oscillator_strength_2> 
0.0295 
 
>  <oscillator_strength_3> 
0.0062 
 
>  <oscillator_strength_4> 
0.0247 
 
>  <open_babel_can_smiles> 
CO 
 
>  <mulliken_charges> 
6 
1   -0.204995 
2   -0.605231 
3   0.129204 
4   0.129216 
5   0.161362 
6   0.390443 
 
>  <lowdin_charges> 
6 
1   -0.283203 
2   -0.47306 
3   0.129434 
4   0.131031 
5   0.153954 
6   0.341844 
 
$$$$ 
 
