PCCDB-ID:  419 
public computational chemistry database (PCCDB) project, http://pccdb.org 
 
 17 16  0  0  0  0  0  0  0  0999 V2000 
    0.6004   -0.0548   -0.3707 C   0  0  0  0  0  0  0  0  0  0  0  0 
    0.1404   -1.2019    0.1469 C   0  0  0  0  0  0  0  0  0  0  0  0 
    2.2904    1.8667   -0.5246 C   0  0  0  0  0  0  0  0  0  0  0  0 
    1.8186    0.6034    0.1695 C   0  0  0  0  0  0  0  0  0  0  0  0 
   -1.0852   -1.8513   -0.4162 C   0  0  0  0  0  0  0  0  0  0  0  0 
    3.1142    2.8773    0.2990 C   0  0  0  0  0  0  0  0  0  0  0  0 
    2.4299    0.1173    1.1203 O   0  0  0  0  0  0  0  0  0  0  0  0 
   -1.7043   -1.4036   -1.3508 O   0  0  0  0  0  0  0  0  0  0  0  0 
   -1.4780   -2.9985    0.1898 O   0  0  0  0  0  0  0  0  0  0  0  0 
    3.1487    4.0401   -0.0179 O   0  0  0  0  0  0  0  0  0  0  0  0 
    3.8154    2.3854    1.3276 O   0  0  0  0  0  0  0  0  0  0  0  0 
    0.0772    0.4036   -1.2056 H   0  0  0  0  0  0  0  0  0  0  0  0 
    0.6692   -1.6552    0.9839 H   0  0  0  0  0  0  0  0  0  0  0  0 
    1.4569    2.4071   -0.9805 H   0  0  0  0  0  0  0  0  0  0  0  0 
    2.9324    1.5465   -1.3612 H   0  0  0  0  0  0  0  0  0  0  0  0 
   -0.8814   -3.2287    0.9212 H   0  0  0  0  0  0  0  0  0  0  0  0 
    3.5735    1.4378    1.4593 H   0  0  0  0  0  0  0  0  0  0  0  0 
  1  2  2  0  0  0  0 
  1  4  1  0  0  0  0 
  2 13  1  0  0  0  0 
  3  4  1  0  0  0  0 
  3  6  1  0  0  0  0 
  4  7  2  0  0  0  0 
  5  2  1  0  0  0  0 
  5  9  1  0  0  0  0 
  6 11  1  0  0  0  0 
  8  5  2  0  0  0  0 
  9 16  1  0  0  0  0 
 10  6  2  0  0  0  0 
 11 17  1  0  0  0  0 
 12  1  1  0  0  0  0 
 14  3  1  0  0  0  0 
 15  3  1  0  0  0  0 
M  END 
>  <HBA> 
5 
 
>  <HBD> 
2 
 
>  <TPSA> 
91.67 
 
>  <cid> 
419 
 
>  <dipole> 
4.21 
 
>  <excitation_energy_1> 
3.324 
 
>  <excitation_energy_2> 
3.591 
 
>  <excitation_energy_3> 
3.749 
 
>  <excitation_energy_4> 
4.476 
 
>  <homo_energy> 
-7.51 
 
>  <homo_lumo_gap> 
4.025 
 
>  <logP> 
-0.329 
 
>  <lumo_energy> 
-3.486 
 
>  <melting_point> 
158.94 
 
>  <molecular_refractivity> 
34.23 
 
>  <oscillator_strength_1> 
0.0129 
 
>  <oscillator_strength_2> 
0.0037 
 
>  <oscillator_strength_3> 
0.0101 
 
>  <oscillator_strength_4> 
0.0009 
 
>  <open_babel_can_smiles> 
OC(=O)/C=C/C(=O)CC(=O)O 
 
>  <mulliken_charges> 
17 
1   -0.147583 
2   -0.190809 
3   -0.498541 
4   0.452769 
5   0.613195 
6   0.609939 
7   -0.486327 
8   -0.432765 
9   -0.566755 
10   -0.441904 
11   -0.574318 
12   0.192825 
13   0.177513 
14   0.208888 
15   0.226652 
16   0.417965 
17   0.439254 
 
>  <lowdin_charges> 
17 
1   -0.148563 
2   -0.149046 
3   -0.351279 
4   0.172233 
5   0.193642 
6   0.18934 
7   -0.247475 
8   -0.223997 
9   -0.340211 
10   -0.239811 
11   -0.348761 
12   0.190452 
13   0.178618 
14   0.192439 
15   0.207292 
16   0.364529 
17   0.3606 
 
$$$$ 
 
