PCCDB-ID:  75 
public computational chemistry database (PCCDB) project, http://pccdb.org 
 
 12 11  0  0  0  0  0  0  0  0999 V2000 
    1.0111    0.0880    0.1683 C   0  0  0  0  0  0  0  0  0  0  0  0 
    0.3989    1.4849    0.2444 C   0  0  0  0  0  0  0  0  0  0  0  0 
    2.5161    0.0790    0.0548 C   0  0  0  0  0  0  0  0  0  0  0  0 
   -1.0495    1.3859    0.4595 N   0  0  0  0  0  0  0  0  0  0  0  0 
    3.2143    1.0700    0.0481 O   0  0  0  0  0  0  0  0  0  0  0  0 
    0.6102   -0.4806   -0.6869 H   0  0  0  0  0  0  0  0  0  0  0  0 
    0.7279   -0.4983    1.0554 H   0  0  0  0  0  0  0  0  0  0  0  0 
    0.6914    2.0559   -0.6527 H   0  0  0  0  0  0  0  0  0  0  0  0 
    0.8350    2.0138    1.0984 H   0  0  0  0  0  0  0  0  0  0  0  0 
    2.9739   -0.9341   -0.0206 H   0  0  0  0  0  0  0  0  0  0  0  0 
   -1.4994    1.0325   -0.3848 H   0  0  0  0  0  0  0  0  0  0  0  0 
   -1.4353    2.3166    0.6100 H   0  0  0  0  0  0  0  0  0  0  0  0 
  1  2  1  0  0  0  0 
  1  7  1  0  0  0  0 
  2  4  1  0  0  0  0 
  2  9  1  0  0  0  0 
  3  1  1  0  0  0  0 
  4 12  1  0  0  0  0 
  5  3  2  0  0  0  0 
  6  1  1  0  0  0  0 
  8  2  1  0  0  0  0 
 10  3  1  0  0  0  0 
 11  4  1  0  0  0  0 
M  END 
>  <HBA> 
2 
 
>  <HBD> 
1 
 
>  <TPSA> 
43.09 
 
>  <cid> 
75 
 
>  <dipole> 
2.24 
 
>  <excitation_energy_1> 
4.302 
 
>  <excitation_energy_2> 
5.159 
 
>  <excitation_energy_3> 
5.661 
 
>  <excitation_energy_4> 
6.345 
 
>  <homo_energy> 
-6.441 
 
>  <homo_lumo_gap> 
5.894 
 
>  <logP> 
0.234 
 
>  <lumo_energy> 
-0.547 
 
>  <melting_point> 
61.4 
 
>  <molecular_refractivity> 
19.44 
 
>  <oscillator_strength_1> 
0.0002 
 
>  <oscillator_strength_2> 
0.0007 
 
>  <oscillator_strength_3> 
0.0166 
 
>  <oscillator_strength_4> 
0.0076 
 
>  <open_babel_can_smiles> 
NCCC=O 
 
>  <mulliken_charges> 
12 
1   -0.339805 
2   -0.13347 
3   0.25201 
4   -0.719787 
5   -0.385499 
6   0.154373 
7   0.180603 
8   0.132945 
9   0.159737 
10   0.105923 
11   0.29208 
12   0.30089 
 
>  <lowdin_charges> 
12 
1   -0.319105 
2   -0.20286 
3   0.059966 
4   -0.558647 
5   -0.222985 
6   0.161146 
7   0.17482 
8   0.129499 
9   0.154708 
10   0.115509 
11   0.251383 
12   0.256565 
 
$$$$ 
 
