PCCDB-ID:  855 
public computational chemistry database (PCCDB) project, http://pccdb.org 
 
 11 10  0  0  1  0  0  0  0  0999 V2000 
    0.9889    0.1768    0.0285 C   0  0  0  0  0  0  0  0  0  0  0  0 
    2.9288   -1.4184    0.0410 C   0  0  0  0  0  0  0  0  0  0  0  0 
    2.5072    0.0272   -0.1403 C   0  0  1  0  0  0  0  0  0  0  0  0 
    3.5584   -2.0130   -0.8101 O   0  0  0  0  0  0  0  0  0  0  0  0 
    2.9228    0.5027   -1.3961 O   0  0  0  0  0  0  0  0  0  0  0  0 
    0.6629   -0.1473    1.0239 H   0  0  0  0  0  0  0  0  0  0  0  0 
    0.4614   -0.4113   -0.7295 H   0  0  0  0  0  0  0  0  0  0  0  0 
    0.7145    1.2273   -0.1011 H   0  0  0  0  0  0  0  0  0  0  0  0 
    2.6348   -1.9078    0.9920 H   0  0  0  0  0  0  0  0  0  0  0  0 
    3.0040    0.5955    0.6692 H   0  0  0  0  0  0  0  0  0  0  0  0 
    3.4313   -0.2276   -1.8000 H   0  0  0  0  0  0  0  0  0  0  0  0 
  1  6  1  0  0  0  0 
  2  9  1  0  0  0  0 
  3  1  1  0  0  0  0 
  3  2  1  0  0  0  0 
  3 10  1  1  0  0  0 
  4  2  2  0  0  0  0 
  5  3  1  0  0  0  0 
  7  1  1  0  0  0  0 
  8  1  1  0  0  0  0 
 11  5  1  0  0  0  0 
M  END 
>  <HBA> 
2 
 
>  <HBD> 
1 
 
>  <TPSA> 
37.3 
 
>  <cid> 
855 
 
>  <dipole> 
2.35 
 
>  <excitation_energy_1> 
4.468 
 
>  <excitation_energy_2> 
5.358 
 
>  <excitation_energy_3> 
7.053 
 
>  <excitation_energy_4> 
7.175 
 
>  <homo_energy> 
-7.429 
 
>  <homo_lumo_gap> 
6.297 
 
>  <logP> 
-0.434 
 
>  <lumo_energy> 
-1.132 
 
>  <melting_point> 
25.77 
 
>  <molecular_refractivity> 
17.9 
 
>  <oscillator_strength_1> 
0.0 
 
>  <oscillator_strength_2> 
0.0249 
 
>  <oscillator_strength_3> 
0.0219 
 
>  <oscillator_strength_4> 
0.0056 
 
>  <open_babel_can_smiles> 
C[C@@H](C=O)O 
 
>  <mulliken_charges> 
11 
1   -0.457599 
2   0.231916 
3   0.093792 
4   -0.39643 
5   -0.633235 
6   0.142973 
7   0.163894 
8   0.177032 
9   0.124707 
10   0.145301 
11   0.407647 
 
>  <lowdin_charges> 
11 
1   -0.44869 
2   0.045812 
3   -0.032321 
4   -0.218391 
5   -0.458587 
6   0.152394 
7   0.161475 
8   0.168481 
9   0.132121 
10   0.149149 
11   0.348558 
 
$$$$ 
 
