PCCDB-ID:  403 
public computational chemistry database (PCCDB) project, http://pccdb.org 
 
 15 15  0  0  0  0  0  0  0  0999 V2000 
   -0.7530    1.1676   -0.0114 C   0  0  0  0  0  0  0  0  0  0  0  0 
    1.3883    0.0701   -0.0005 C   0  0  0  0  0  0  0  0  0  0  0  0 
   -1.3871   -0.0748   -0.0446 C   0  0  0  0  0  0  0  0  0  0  0  0 
    0.7592   -1.1704   -0.0332 C   0  0  0  0  0  0  0  0  0  0  0  0 
    0.6451    1.2622    0.0108 C   0  0  0  0  0  0  0  0  0  0  0  0 
   -0.6358   -1.2517   -0.0551 C   0  0  0  0  0  0  0  0  0  0  0  0 
    1.2864    2.5121    0.1088 N   0  0  0  0  0  0  0  0  0  0  0  0 
   -1.2025   -2.5040   -0.0910 O   0  0  0  0  0  0  0  0  0  0  0  0 
   -1.3542    2.0741    0.0015 H   0  0  0  0  0  0  0  0  0  0  0  0 
    2.4750    0.1176    0.0210 H   0  0  0  0  0  0  0  0  0  0  0  0 
   -2.4749   -0.1223   -0.0643 H   0  0  0  0  0  0  0  0  0  0  0  0 
    1.3396   -2.0878   -0.0438 H   0  0  0  0  0  0  0  0  0  0  0  0 
    0.7497    3.2769   -0.2845 H   0  0  0  0  0  0  0  0  0  0  0  0 
    2.2261    2.5168   -0.2715 H   0  0  0  0  0  0  0  0  0  0  0  0 
   -2.1669   -2.4075   -0.0893 H   0  0  0  0  0  0  0  0  0  0  0  0 
  1  9  1  0  0  0  0 
  1  5  2  0  0  0  0 
  2  5  1  0  0  0  0 
  2 10  1  0  0  0  0 
  3  1  1  0  0  0  0 
  4  2  2  0  0  0  0 
  5  7  1  0  0  0  0 
  6  3  2  0  0  0  0 
  6  4  1  0  0  0  0 
  8 15  1  0  0  0  0 
  8  6  1  0  0  0  0 
 11  3  1  0  0  0  0 
 12  4  1  0  0  0  0 
 13  7  1  0  0  0  0 
 14  7  1  0  0  0  0 
M  END 
>  <HBA> 
2 
 
>  <HBD> 
2 
 
>  <TPSA> 
46.25 
 
>  <cid> 
403 
 
>  <dipole> 
2.11 
 
>  <excitation_energy_1> 
4.337 
 
>  <excitation_energy_2> 
4.475 
 
>  <excitation_energy_3> 
4.552 
 
>  <excitation_energy_4> 
5.223 
 
>  <homo_energy> 
-4.991 
 
>  <homo_lumo_gap> 
5.113 
 
>  <logP> 
1.556 
 
>  <lumo_energy> 
0.122 
 
>  <melting_point> 
93.45 
 
>  <molecular_refractivity> 
32.87 
 
>  <oscillator_strength_1> 
0.0517 
 
>  <oscillator_strength_2> 
0.0036 
 
>  <oscillator_strength_3> 
0.0004 
 
>  <oscillator_strength_4> 
0.0003 
 
>  <open_babel_can_smiles> 
Nc1ccc(cc1)O 
 
>  <mulliken_charges> 
15 
1   -0.177382 
2   -0.176696 
3   -0.199303 
4   -0.164565 
5   0.296602 
6   0.342398 
7   -0.786005 
8   -0.652951 
9   0.117672 
10   0.11861 
11   0.114297 
12   0.136343 
13   0.313725 
14   0.314402 
15   0.402852 
 
>  <lowdin_charges> 
15 
1   -0.189913 
2   -0.183309 
3   -0.201364 
4   -0.175852 
5   0.040587 
6   0.080598 
7   -0.498519 
8   -0.389153 
9   0.153706 
10   0.151783 
11   0.149419 
12   0.16639 
13   0.272259 
14   0.270801 
15   0.352568 
 
$$$$ 
 
