PCCDB-ID:  5320 
public computational chemistry database (PCCDB) project, http://pccdb.org 
 
 24 24  0  0  0  0  0  0  0  0999 V2000 
    2.8497    3.2332   -0.3271 C   0  0  0  0  0  0  0  0  0  0  0  0 
    0.8800   -2.4555   -3.6204 C   0  0  0  0  0  0  0  0  0  0  0  0 
   -0.2495   -0.7702   -4.9490 C   0  0  0  0  0  0  0  0  0  0  0  0 
    1.5972   -1.4617   -2.9684 C   0  0  0  0  0  0  0  0  0  0  0  0 
    0.4673    0.2245   -4.2974 C   0  0  0  0  0  0  0  0  0  0  0  0 
    1.6121    2.3649   -0.3094 C   0  0  0  0  0  0  0  0  0  0  0  0 
   -0.0576   -2.1258   -4.6184 C   0  0  0  0  0  0  0  0  0  0  0  0 
    1.3848   -0.1220   -3.3028 C   0  0  0  0  0  0  0  0  0  0  0  0 
   -0.7367   -3.1233   -5.3047 N   0  0  0  0  0  0  0  0  0  0  0  0 
    1.2731    1.4576   -1.1506 N   0  0  0  0  0  0  0  0  0  0  0  0 
    0.7474    2.5461    0.7111 O   0  0  0  0  0  0  0  0  0  0  0  0 
    2.3445    2.3384   -3.3356 O   0  0  0  0  0  0  0  0  0  0  0  0 
    3.5576    0.5658   -1.9691 O   0  0  0  0  0  0  0  0  0  0  0  0 
    2.2997    1.1498   -2.4661 S   0  0  0  0  0  0  0  0  0  0  0  0 
    3.7374    2.5966   -0.2628 H   0  0  0  0  0  0  0  0  0  0  0  0 
    2.8632    3.9562    0.4949 H   0  0  0  0  0  0  0  0  0  0  0  0 
    2.9051    3.7677   -1.2796 H   0  0  0  0  0  0  0  0  0  0  0  0 
    1.0490   -3.4996   -3.3682 H   0  0  0  0  0  0  0  0  0  0  0  0 
   -0.9585   -0.5040   -5.7291 H   0  0  0  0  0  0  0  0  0  0  0  0 
    2.3262   -1.7175   -2.2069 H   0  0  0  0  0  0  0  0  0  0  0  0 
    0.3261    1.2675   -4.5596 H   0  0  0  0  0  0  0  0  0  0  0  0 
   -0.8156   -4.0143   -4.8324 H   0  0  0  0  0  0  0  0  0  0  0  0 
   -1.5984   -2.8461   -5.7561 H   0  0  0  0  0  0  0  0  0  0  0  0 
    1.0784    3.2455    1.2954 H   0  0  0  0  0  0  0  0  0  0  0  0 
  1  6  1  0  0  0  0 
  1 15  1  0  0  0  0 
  1 16  1  0  0  0  0 
  2 18  1  0  0  0  0 
  2  4  2  0  0  0  0 
  3  7  2  0  0  0  0 
  3  5  1  0  0  0  0 
  4 20  1  0  0  0  0 
  5  8  2  0  0  0  0 
  6 11  1  0  0  0  0 
  7  2  1  0  0  0  0 
  8  4  1  0  0  0  0 
  8 14  1  0  0  0  0 
  9 22  1  0  0  0  0 
  9  7  1  0  0  0  0 
 10  6  2  0  0  0  0 
 11 24  1  0  0  0  0 
 12 14  2  0  0  0  0 
 14 13  2  0  0  0  0 
 14 10  1  0  0  0  0 
 17  1  1  0  0  0  0 
 19  3  1  0  0  0  0 
 21  5  1  0  0  0  0 
 23  9  1  0  0  0  0 
M  END 
>  <HBA> 
5 
 
>  <HBD> 
2 
 
>  <TPSA> 
97.64 
 
>  <cid> 
5320 
 
>  <dipole> 
3.67 
 
>  <excitation_energy_1> 
4.576 
 
>  <excitation_energy_2> 
4.882 
 
>  <excitation_energy_3> 
4.996 
 
>  <excitation_energy_4> 
5.157 
 
>  <homo_energy> 
-5.861 
 
>  <homo_lumo_gap> 
5.35 
 
>  <logP> 
2.147 
 
>  <lumo_energy> 
-0.512 
 
>  <melting_point> 
134.86 
 
>  <molecular_refractivity> 
51.75 
 
>  <oscillator_strength_1> 
0.0077 
 
>  <oscillator_strength_2> 
0.008 
 
>  <oscillator_strength_3> 
0.0946 
 
>  <oscillator_strength_4> 
0.2497 
 
>  <open_babel_can_smiles> 
C/C(=N\S(=O)(=O)c1ccc(cc1)N)/O 
 
>  <mulliken_charges> 
24 
1   -0.55532 
2   -0.169505 
3   -0.169482 
4   -0.13968 
5   -0.141199 
6   0.482684 
7   0.328664 
8   -0.155496 
9   -0.788562 
10   -0.523106 
11   -0.539871 
12   -0.552811 
13   -0.551437 
14   1.188188 
15   0.23206 
16   0.143144 
17   0.235332 
18   0.12818 
19   0.128058 
20   0.173463 
21   0.173653 
22   0.328152 
23   0.328096 
24   0.416796 
 
>  <lowdin_charges> 
24 
1   -0.486272 
2   -0.19676 
3   -0.196991 
4   -0.118716 
5   -0.118007 
6   0.177595 
7   0.076484 
8   -0.203191 
9   -0.474456 
10   -0.387062 
11   -0.329796 
12   -0.604438 
13   -0.60253 
14   1.297796 
15   0.20232 
16   0.15682 
17   0.203279 
18   0.157162 
19   0.158937 
20   0.182172 
21   0.180494 
22   0.280744 
23   0.280651 
24   0.363765 
 
$$$$ 
 
