PCCDB-ID:  945 
public computational chemistry database (PCCDB) project, http://pccdb.org 
 
  3  2  0  0  0  0  0  0  0  0999 V2000 
    1.0130   -0.0423    0.0387 N   0  0  0  0  0  0  0  0  0  0  0  0 
    2.2191   -0.0807    0.0798 O   0  0  0  0  0  0  0  0  0  0  0  0 
    0.6287   -0.7239    0.7696 H   0  0  0  0  0  0  0  0  0  0  0  0 
  1  2  2  0  0  0  0 
  1  3  1  0  0  0  0 
M  END 
>  <HBA> 
2 
 
>  <HBD> 
1 
 
>  <TPSA> 
40.92 
 
>  <cid> 
945 
 
>  <dipole> 
1.65 
 
>  <excitation_energy_1> 
1.588 
 
>  <excitation_energy_2> 
6.279 
 
>  <excitation_energy_3> 
7.224 
 
>  <excitation_energy_4> 
7.681 
 
>  <homo_energy> 
-6.629 
 
>  <homo_lumo_gap> 
3.752 
 
>  <logP> 
0.431 
 
>  <lumo_energy> 
-2.876 
 
>  <melting_point> 
9.91 
 
>  <molecular_refractivity> 
6.76 
 
>  <oscillator_strength_1> 
0.0004 
 
>  <oscillator_strength_2> 
0.0445 
 
>  <oscillator_strength_3> 
0.0031 
 
>  <oscillator_strength_4> 
0.0271 
 
>  <open_babel_can_smiles> 
N=O 
 
>  <mulliken_charges> 
3 
1   -0.060553 
2   -0.216295 
3   0.276848 
 
>  <lowdin_charges> 
3 
1   -0.086021 
2   -0.127665 
3   0.213687 
 
$$$$ 
 
