PCCDB-ID:  2773 
public computational chemistry database (PCCDB) project, http://pccdb.org 
 
 19 19  0  0  1  0  0  0  0  0999 V2000 
    4.6733    0.6858    1.6604 C   0  0  0  0  0  0  0  0  0  0  0  0 
   -0.3406   -1.1351    2.1083 C   0  0  0  0  0  0  0  0  0  0  0  0 
    0.5423   -2.2922    1.6245 C   0  0  0  0  0  0  0  0  0  0  0  0 
    3.4420    0.6416    0.7751 C   0  0  0  0  0  0  0  0  0  0  0  0 
    0.5450   -0.0444    2.7200 C   0  0  0  0  0  0  0  0  0  0  0  0 
    2.0383   -0.2856    2.4146 C   0  0  2  0  0  0  0  0  0  0  0  0 
    2.2866    0.2114    1.0853 N   0  0  0  0  0  0  0  0  0  0  0  0 
    3.5864    1.1042   -0.4958 O   0  0  0  0  0  0  0  0  0  0  0  0 
    0.1427    0.8805    3.3859 O   0  0  0  0  0  0  0  0  0  0  0  0 
    2.1600   -2.1278    2.5234 S   0  0  0  0  0  0  0  0  0  0  0  0 
    4.5172    1.3648    2.5060 H   0  0  0  0  0  0  0  0  0  0  0  0 
    5.5641    1.0224    1.1208 H   0  0  0  0  0  0  0  0  0  0  0  0 
    4.8806   -0.3094    2.0671 H   0  0  0  0  0  0  0  0  0  0  0  0 
   -1.0470   -1.4556    2.8811 H   0  0  0  0  0  0  0  0  0  0  0  0 
   -0.9262   -0.6935    1.2939 H   0  0  0  0  0  0  0  0  0  0  0  0 
    0.7327   -2.2381    0.5508 H   0  0  0  0  0  0  0  0  0  0  0  0 
    0.1275   -3.2731    1.8644 H   0  0  0  0  0  0  0  0  0  0  0  0 
    2.6480    0.1561    3.2109 H   0  0  0  0  0  0  0  0  0  0  0  0 
    4.4974    1.4034   -0.6312 H   0  0  0  0  0  0  0  0  0  0  0  0 
  1 13  1  0  0  0  0 
  1 11  1  0  0  0  0 
  2  5  1  0  0  0  0 
  2 14  1  0  0  0  0 
  3 17  1  0  0  0  0 
  3  2  1  0  0  0  0 
  3 10  1  0  0  0  0 
  4  7  2  0  0  0  0 
  4  1  1  0  0  0  0 
  5  9  2  0  0  0  0 
  6 10  1  0  0  0  0 
  6  5  1  0  0  0  0 
  6 18  1  1  0  0  0 
  7  6  1  0  0  0  0 
  8  4  1  0  0  0  0 
 12  1  1  0  0  0  0 
 15  2  1  0  0  0  0 
 16  3  1  0  0  0  0 
 19  8  1  0  0  0  0 
M  END 
>  <HBA> 
4 
 
>  <HBD> 
1 
 
>  <TPSA> 
71.47 
 
>  <cid> 
2773 
 
>  <dipole> 
3.51 
 
>  <excitation_energy_1> 
4.136 
 
>  <excitation_energy_2> 
4.467 
 
>  <excitation_energy_3> 
5.117 
 
>  <excitation_energy_4> 
5.28 
 
>  <homo_energy> 
-6.174 
 
>  <homo_lumo_gap> 
5.494 
 
>  <logP> 
0.545 
 
>  <lumo_energy> 
-0.68 
 
>  <melting_point> 
74.95 
 
>  <molecular_refractivity> 
39.63 
 
>  <oscillator_strength_1> 
0.0074 
 
>  <oscillator_strength_2> 
0.014 
 
>  <oscillator_strength_3> 
0.0074 
 
>  <oscillator_strength_4> 
0.0152 
 
>  <open_babel_can_smiles> 
O=C1CCS[C@H]1/N=C(/O)\C 
 
>  <mulliken_charges> 
19 
1   -0.553486 
2   -0.3332 
3   -0.42546 
4   0.49269 
5   0.467995 
6   -0.228573 
7   -0.395684 
8   -0.563695 
9   -0.430447 
10   0.082293 
11   0.199186 
12   0.151526 
13   0.206014 
14   0.184311 
15   0.190551 
16   0.198175 
17   0.179221 
18   0.170497 
19   0.408085 
 
>  <lowdin_charges> 
19 
1   -0.479232 
2   -0.311421 
3   -0.365732 
4   0.14576 
5   0.15987 
6   -0.192339 
7   -0.21376 
8   -0.350327 
9   -0.216714 
10   0.081443 
11   0.182927 
12   0.160396 
13   0.185741 
14   0.178001 
15   0.182087 
16   0.167824 
17   0.169562 
18   0.160331 
19   0.355586 
 
$$$$ 
 
