PCCDB-ID:  1031 
public computational chemistry database (PCCDB) project, http://pccdb.org 
 
 12 11  0  0  0  0  0  0  0  0999 V2000 
    0.9137    0.0890    0.0053 C   0  0  0  0  0  0  0  0  0  0  0  0 
    2.4442    0.0750   -0.0648 C   0  0  0  0  0  0  0  0  0  0  0  0 
    2.9762   -0.6302   -1.3132 C   0  0  0  0  0  0  0  0  0  0  0  0 
    4.3976   -0.6929   -1.3556 O   0  0  0  0  0  0  0  0  0  0  0  0 
    0.5627    0.6064    0.9045 H   0  0  0  0  0  0  0  0  0  0  0  0 
    0.5082   -0.9298    0.0286 H   0  0  0  0  0  0  0  0  0  0  0  0 
    0.4782    0.5990   -0.8629 H   0  0  0  0  0  0  0  0  0  0  0  0 
    2.8639   -0.4211    0.8192 H   0  0  0  0  0  0  0  0  0  0  0  0 
    2.8224    1.1087   -0.0510 H   0  0  0  0  0  0  0  0  0  0  0  0 
    2.5725   -0.1465   -2.2194 H   0  0  0  0  0  0  0  0  0  0  0  0 
    2.6390   -1.6727   -1.3293 H   0  0  0  0  0  0  0  0  0  0  0  0 
    4.7269    0.2191   -1.3769 H   0  0  0  0  0  0  0  0  0  0  0  0 
  1  6  1  0  0  0  0 
  1  5  1  0  0  0  0 
  2  9  1  0  0  0  0 
  2  1  1  0  0  0  0 
  2  8  1  0  0  0  0 
  3  2  1  0  0  0  0 
  4  3  1  0  0  0  0 
  7  1  1  0  0  0  0 
 10  3  1  0  0  0  0 
 11  3  1  0  0  0  0 
 12  4  1  0  0  0  0 
M  END 
>  <HBA> 
1 
 
>  <HBD> 
1 
 
>  <TPSA> 
20.23 
 
>  <cid> 
1031 
 
>  <dipole> 
1.71 
 
>  <excitation_energy_1> 
6.472 
 
>  <excitation_energy_2> 
7.169 
 
>  <excitation_energy_3> 
7.491 
 
>  <excitation_energy_4> 
7.719 
 
>  <homo_energy> 
-7.102 
 
>  <homo_lumo_gap> 
9.198 
 
>  <logP> 
0.389 
 
>  <lumo_energy> 
2.095 
 
>  <melting_point> 
-5.95 
 
>  <molecular_refractivity> 
17.7 
 
>  <oscillator_strength_1> 
0.0086 
 
>  <oscillator_strength_2> 
0.005 
 
>  <oscillator_strength_3> 
0.0226 
 
>  <oscillator_strength_4> 
0.0245 
 
>  <open_babel_can_smiles> 
CCCO 
 
>  <mulliken_charges> 
12 
1   -0.449578 
2   -0.27047 
3   -0.020737 
4   -0.614928 
5   0.149078 
6   0.147298 
7   0.143957 
8   0.148449 
9   0.122007 
10   0.115661 
11   0.144453 
12   0.38481 
 
>  <lowdin_charges> 
12 
1   -0.445983 
2   -0.290925 
3   -0.134337 
4   -0.468164 
5   0.154403 
6   0.148634 
7   0.148262 
8   0.149199 
9   0.133638 
10   0.123247 
11   0.144122 
12   0.337903 
 
$$$$ 
 
