PCCDB-ID:  4581 
public computational chemistry database (PCCDB) project, http://pccdb.org 
 
 22 22  0  0  1  0  0  0  0  0999 V2000 
   -0.9381    0.8339    0.2713 C   0  0  0  0  0  0  0  0  0  0  0  0 
    1.0156   -0.4290   -0.3207 C   0  0  0  0  0  0  0  0  0  0  0  0 
   -1.6845   -0.3448    0.3297 C   0  0  0  0  0  0  0  0  0  0  0  0 
    0.2862   -1.6123   -0.2656 C   0  0  0  0  0  0  0  0  0  0  0  0 
    1.7222    2.3910   -1.5782 C   0  0  0  0  0  0  0  0  0  0  0  0 
    0.4182    0.8144   -0.0605 C   0  0  0  0  0  0  0  0  0  0  0  0 
   -1.0749   -1.5719    0.0586 C   0  0  0  0  0  0  0  0  0  0  0  0 
    1.2354    2.1054   -0.1388 C   0  0  2  0  0  0  0  0  0  0  0  0 
    0.5639    2.8341   -2.3665 N   0  0  0  0  0  0  0  0  0  0  0  0 
   -1.7497   -2.7631    0.0988 O   0  0  0  0  0  0  0  0  0  0  0  0 
    0.5151    3.2360    0.3174 O   0  0  0  0  0  0  0  0  0  0  0  0 
   -1.4041    1.7852    0.5049 H   0  0  0  0  0  0  0  0  0  0  0  0 
    2.0758   -0.4791   -0.5627 H   0  0  0  0  0  0  0  0  0  0  0  0 
   -2.7407   -0.3083    0.5935 H   0  0  0  0  0  0  0  0  0  0  0  0 
    0.7518   -2.5731   -0.4624 H   0  0  0  0  0  0  0  0  0  0  0  0 
    2.2442    1.5152   -1.9924 H   0  0  0  0  0  0  0  0  0  0  0  0 
    2.4352    3.2219   -1.5410 H   0  0  0  0  0  0  0  0  0  0  0  0 
    2.1168    2.0026    0.5083 H   0  0  0  0  0  0  0  0  0  0  0  0 
   -0.0172    2.0359   -2.6168 H   0  0  0  0  0  0  0  0  0  0  0  0 
    0.8591    3.2779   -3.2321 H   0  0  0  0  0  0  0  0  0  0  0  0 
   -2.6696   -2.5919    0.3535 H   0  0  0  0  0  0  0  0  0  0  0  0 
    0.0791    3.5737   -0.4932 H   0  0  0  0  0  0  0  0  0  0  0  0 
  1  3  1  0  0  0  0 
  1 12  1  0  0  0  0 
  2  4  2  0  0  0  0 
  2  6  1  0  0  0  0 
  3 14  1  0  0  0  0 
  4  7  1  0  0  0  0 
  5 17  1  0  0  0  0 
  5  8  1  0  0  0  0 
  6  1  2  0  0  0  0 
  7 10  1  0  0  0  0 
  7  3  2  0  0  0  0 
  8  6  1  0  0  0  0 
  8 11  1  0  0  0  0 
  8 18  1  1  0  0  0 
  9  5  1  0  0  0  0 
 10 21  1  0  0  0  0 
 13  2  1  0  0  0  0 
 15  4  1  0  0  0  0 
 16  5  1  0  0  0  0 
 19  9  1  0  0  0  0 
 20  9  1  0  0  0  0 
 22 11  1  0  0  0  0 
M  END 
>  <HBA> 
3 
 
>  <HBD> 
3 
 
>  <TPSA> 
66.48 
 
>  <cid> 
4581 
 
>  <dipole> 
2.55 
 
>  <excitation_energy_1> 
4.951 
 
>  <excitation_energy_2> 
5.122 
 
>  <excitation_energy_3> 
5.382 
 
>  <excitation_energy_4> 
5.603 
 
>  <homo_energy> 
-5.799 
 
>  <homo_lumo_gap> 
5.823 
 
>  <logP> 
1.085 
 
>  <lumo_energy> 
0.024 
 
>  <melting_point> 
120.33 
 
>  <molecular_refractivity> 
42.11 
 
>  <oscillator_strength_1> 
0.0317 
 
>  <oscillator_strength_2> 
0.0008 
 
>  <oscillator_strength_3> 
0.0234 
 
>  <oscillator_strength_4> 
0.0645 
 
>  <open_babel_can_smiles> 
NC[C@H](c1ccc(cc1)O)O 
 
>  <mulliken_charges> 
22 
1   -0.188902 
2   -0.190699 
3   -0.196016 
4   -0.161623 
5   -0.16767 
6   0.120431 
7   0.349905 
8   0.086704 
9   -0.75027 
10   -0.645301 
11   -0.645488 
12   0.143363 
13   0.122162 
14   0.116522 
15   0.137051 
16   0.13093 
17   0.152011 
18   0.140705 
19   0.316159 
20   0.312917 
21   0.406256 
22   0.410852 
 
>  <lowdin_charges> 
22 
1   -0.154085 
2   -0.157369 
3   -0.212433 
4   -0.186108 
5   -0.225277 
6   -0.048847 
7   0.097782 
8   -0.006283 
9   -0.556591 
10   -0.380271 
11   -0.464955 
12   0.167509 
13   0.151684 
14   0.150258 
15   0.165767 
16   0.132315 
17   0.150607 
18   0.14768 
19   0.26524 
20   0.265066 
21   0.355795 
22   0.342517 
 
$$$$ 
 
