PCCDB-ID:  2537 
public computational chemistry database (PCCDB) project, http://pccdb.org 
 
 27 28  0  0  1  0  0  0  0  0999 V2000 
    0.9766    0.0296    0.0612 C   0  0  0  0  0  0  0  0  0  0  0  0 
    2.9869    0.0416    1.5127 C   0  0  0  0  0  0  0  0  0  0  0  0 
    2.8796    2.6651   -0.3992 C   0  0  0  0  0  0  0  0  0  0  0  0 
    2.6564   -0.7109   -2.2606 C   0  0  0  0  0  0  0  0  0  0  0  0 
    2.6842    0.8485   -2.2539 C   0  0  0  0  0  0  0  0  0  0  0  0 
    4.6572   -0.7156   -0.7995 C   0  0  0  0  0  0  0  0  0  0  0  0 
    3.1551   -1.0677   -0.8391 C   0  0  1  0  0  0  0  0  0  0  0  0 
    4.6188    0.8227   -0.7816 C   0  0  0  0  0  0  0  0  0  0  0  0 
    2.5137    0.0546    0.0461 C   0  0  0  0  0  0  0  0  0  0  0  0 
    3.1366    1.2239   -0.8017 C   0  0  1  0  0  0  0  0  0  0  0  0 
    5.5730    1.5699   -0.7644 O   0  0  0  0  0  0  0  0  0  0  0  0 
    0.6209   -0.8844    0.5533 H   0  0  0  0  0  0  0  0  0  0  0  0 
    0.5255    0.0636   -0.9334 H   0  0  0  0  0  0  0  0  0  0  0  0 
    0.5832    0.8798    0.6307 H   0  0  0  0  0  0  0  0  0  0  0  0 
    2.6948   -0.8964    2.0008 H   0  0  0  0  0  0  0  0  0  0  0  0 
    2.5198    0.8595    2.0732 H   0  0  0  0  0  0  0  0  0  0  0  0 
    4.0694    0.1524    1.6274 H   0  0  0  0  0  0  0  0  0  0  0  0 
    3.4454    3.3464   -1.0434 H   0  0  0  0  0  0  0  0  0  0  0  0 
    3.2011    2.8563    0.6304 H   0  0  0  0  0  0  0  0  0  0  0  0 
    1.8163    2.9186   -0.4811 H   0  0  0  0  0  0  0  0  0  0  0  0 
    3.3061   -1.1376   -3.0322 H   0  0  0  0  0  0  0  0  0  0  0  0 
    1.6489   -1.0952   -2.4457 H   0  0  0  0  0  0  0  0  0  0  0  0 
    1.6952    1.2760   -2.4508 H   0  0  0  0  0  0  0  0  0  0  0  0 
    3.3634    1.2673   -3.0043 H   0  0  0  0  0  0  0  0  0  0  0  0 
    5.2214   -1.0807   -1.6651 H   0  0  0  0  0  0  0  0  0  0  0  0 
    5.1707   -1.0834    0.0956 H   0  0  0  0  0  0  0  0  0  0  0  0 
    2.9251   -2.0907   -0.5247 H   0  0  0  0  0  0  0  0  0  0  0  0 
  1 12  1  0  0  0  0 
  1 14  1  0  0  0  0 
  2 17  1  0  0  0  0 
  2 15  1  0  0  0  0 
  2 16  1  0  0  0  0 
  3 19  1  0  0  0  0 
  4  5  1  0  0  0  0 
  4  7  1  0  0  0  0 
  5 10  1  0  0  0  0 
  6  8  1  0  0  0  0 
  6 26  1  0  0  0  0 
  7  6  1  0  0  0  0 
  7 27  1  1  0  0  0 
  7  9  1  0  0  0  0 
  8 11  2  0  0  0  0 
  9  1  1  0  0  0  0 
  9  2  1  0  0  0  0 
 10  8  1  0  0  0  0 
 10  3  1  1  0  0  0 
 10  9  1  0  0  0  0 
 13  1  1  0  0  0  0 
 18  3  1  0  0  0  0 
 20  3  1  0  0  0  0 
 21  4  1  0  0  0  0 
 22  4  1  0  0  0  0 
 23  5  1  0  0  0  0 
 24  5  1  0  0  0  0 
 25  6  1  0  0  0  0 
M  END 
>  <HBA> 
1 
 
>  <HBD> 
0 
 
>  <TPSA> 
17.07 
 
>  <cid> 
2537 
 
>  <dipole> 
2.96 
 
>  <excitation_energy_1> 
4.217 
 
>  <excitation_energy_2> 
5.865 
 
>  <excitation_energy_3> 
6.205 
 
>  <excitation_energy_4> 
6.295 
 
>  <homo_energy> 
-6.234 
 
>  <homo_lumo_gap> 
6.006 
 
>  <logP> 
2.402 
 
>  <lumo_energy> 
-0.229 
 
>  <melting_point> 
74.7 
 
>  <molecular_refractivity> 
45.64 
 
>  <oscillator_strength_1> 
0.0003 
 
>  <oscillator_strength_2> 
0.0044 
 
>  <oscillator_strength_3> 
0.0116 
 
>  <oscillator_strength_4> 
0.0064 
 
>  <open_babel_can_smiles> 
O=C1C[C@H]2C([C@]1(C)CC2)(C)C 
 
>  <mulliken_charges> 
27 
1   -0.466946 
2   -0.47176 
3   -0.477019 
4   -0.280341 
5   -0.301734 
6   -0.359058 
7   -0.112511 
8   0.441434 
9   0.086737 
10   0.02618 
11   -0.463731 
12   0.144234 
13   0.14697 
14   0.147352 
15   0.144676 
16   0.149665 
17   0.15413 
18   0.163043 
19   0.151834 
20   0.138742 
21   0.138738 
22   0.143227 
23   0.149323 
24   0.152945 
25   0.164 
26   0.171693 
27   0.118176 
 
>  <lowdin_charges> 
27 
1   -0.446477 
2   -0.447735 
3   -0.439793 
4   -0.286889 
5   -0.282297 
6   -0.318653 
7   -0.133796 
8   0.155461 
9   0.005042 
10   -0.030118 
11   -0.233969 
12   0.152125 
13   0.151636 
14   0.152921 
15   0.151859 
16   0.154374 
17   0.152584 
18   0.164752 
19   0.155077 
20   0.147661 
21   0.147561 
22   0.146728 
23   0.151062 
24   0.153952 
25   0.166158 
26   0.169487 
27   0.141286 
 
$$$$ 
 
