PCCDB-ID:  2039 
public computational chemistry database (PCCDB) project, http://pccdb.org 
 
 16 15  0  0  0  0  0  0  0  0999 V2000 
    1.4262    0.3720   -0.1845 C   0  0  0  0  0  0  0  0  0  0  0  0 
    0.5023   -0.6180   -0.8937 C   0  0  0  0  0  0  0  0  0  0  0  0 
   -1.8978   -1.9187   -0.1404 C   0  0  0  0  0  0  0  0  0  0  0  0 
    1.4429    0.1362    1.2588 N   0  0  0  0  0  0  0  0  0  0  0  0 
   -1.1394   -2.9412   -0.1792 N   0  0  0  0  0  0  0  0  0  0  0  0 
   -3.2349   -1.8596    0.2317 N   0  0  0  0  0  0  0  0  0  0  0  0 
   -1.2706   -0.2717   -0.5259 S   0  0  0  0  0  0  0  0  0  0  0  0 
    1.1535    1.4029   -0.4790 H   0  0  0  0  0  0  0  0  0  0  0  0 
    2.4403    0.1992   -0.5688 H   0  0  0  0  0  0  0  0  0  0  0  0 
    0.6799   -1.6425   -0.5558 H   0  0  0  0  0  0  0  0  0  0  0  0 
    0.6360   -0.5641   -1.9775 H   0  0  0  0  0  0  0  0  0  0  0  0 
    0.5039    0.2780    1.6299 H   0  0  0  0  0  0  0  0  0  0  0  0 
    2.0385    0.8268    1.7123 H   0  0  0  0  0  0  0  0  0  0  0  0 
   -1.6402   -3.7948    0.0831 H   0  0  0  0  0  0  0  0  0  0  0  0 
   -3.7444   -2.7316    0.1517 H   0  0  0  0  0  0  0  0  0  0  0  0 
   -3.7653   -1.0622   -0.0987 H   0  0  0  0  0  0  0  0  0  0  0  0 
  1  4  1  0  0  0  0 
  2 10  1  0  0  0  0 
  2  7  1  0  0  0  0 
  2  1  1  0  0  0  0 
  3  6  2  0  0  0  0 
  4 12  1  0  0  0  0 
  4 13  1  0  0  0  0 
  5  3  1  0  0  0  0 
  5 14  1  0  0  0  0 
  7  3  1  0  0  0  0 
  8  1  1  0  0  0  0 
  9  1  1  0  0  0  0 
 11  2  1  0  0  0  0 
 15  6  1  0  0  0  0 
 16  6  1  0  0  0  0 
M  RAD  1   5   2 
M  END 
>  <HBA> 
4 
 
>  <HBD> 
3 
 
>  <TPSA> 
101.19 
 
>  <cid> 
2039 
 
>  <dipole> 
2.42 
 
>  <excitation_energy_1> 
5.255 
 
>  <excitation_energy_2> 
5.377 
 
>  <excitation_energy_3> 
5.643 
 
>  <excitation_energy_4> 
5.769 
 
>  <homo_energy> 
-6.071 
 
>  <homo_lumo_gap> 
6.768 
 
>  <logP> 
1.072 
 
>  <lumo_energy> 
0.697 
 
>  <melting_point> 
124.2 
 
>  <molecular_refractivity> 
33.13 
 
>  <oscillator_strength_1> 
0.0061 
 
>  <oscillator_strength_2> 
0.0024 
 
>  <oscillator_strength_3> 
0.001 
 
>  <oscillator_strength_4> 
0.0026 
 
>  <open_babel_can_smiles> 
NCCSC(=[NH2])[NH] 
 
>  <mulliken_charges> 
16 
1   -0.135606 
2   -0.424731 
3   0.290058 
4   -0.711465 
5   -0.602076 
6   -0.728147 
7   0.076587 
8   0.121075 
9   0.148897 
10   0.242855 
11   0.172819 
12   0.312704 
13   0.294751 
14   0.277284 
15   0.325886 
16   0.339109 
 
>  <lowdin_charges> 
16 
1   -0.2027 
2   -0.370747 
3   -0.001585 
4   -0.55939 
5   -0.443049 
6   -0.492887 
7   0.103335 
8   0.118918 
9   0.148293 
10   0.199011 
11   0.161659 
12   0.258993 
13   0.255833 
14   0.254717 
15   0.280482 
16   0.28912 
 
$$$$ 
 
