PCCDB-ID:  119 
public computational chemistry database (PCCDB) project, http://pccdb.org 
 
 16 15  0  0  0  0  0  0  0  0999 V2000 
    1.2356    0.0042   -0.0762 C   0  0  0  0  0  0  0  0  0  0  0  0 
    0.7316   -0.9659   -1.1706 C   0  0  0  0  0  0  0  0  0  0  0  0 
    2.7544    0.0131    0.1542 C   0  0  0  0  0  0  0  0  0  0  0  0 
    1.4525   -0.8475   -2.5159 C   0  0  0  0  0  0  0  0  0  0  0  0 
    3.3072   -1.3577    0.1537 N   0  0  0  0  0  0  0  0  0  0  0  0 
    0.9475   -0.3542   -3.4983 O   0  0  0  0  0  0  0  0  0  0  0  0 
    2.7070   -1.3404   -2.5396 O   0  0  0  0  0  0  0  0  0  0  0  0 
    0.7241   -0.2546    0.8610 H   0  0  0  0  0  0  0  0  0  0  0  0 
    0.9269    1.0270   -0.3221 H   0  0  0  0  0  0  0  0  0  0  0  0 
   -0.3286   -0.7772   -1.3546 H   0  0  0  0  0  0  0  0  0  0  0  0 
    0.8279   -1.9990   -0.8144 H   0  0  0  0  0  0  0  0  0  0  0  0 
    2.9741    0.5633    1.0815 H   0  0  0  0  0  0  0  0  0  0  0  0 
    3.2489    0.5489   -0.6630 H   0  0  0  0  0  0  0  0  0  0  0  0 
    2.8924   -1.9127    0.9018 H   0  0  0  0  0  0  0  0  0  0  0  0 
    4.3101   -1.3334    0.3310 H   0  0  0  0  0  0  0  0  0  0  0  0 
    2.9695   -1.6244   -1.6200 H   0  0  0  0  0  0  0  0  0  0  0  0 
  1  3  1  0  0  0  0 
  1  8  1  0  0  0  0 
  2 11  1  0  0  0  0 
  2  1  1  0  0  0  0 
  3 12  1  0  0  0  0 
  4  2  1  0  0  0  0 
  5  3  1  0  0  0  0 
  5 15  1  0  0  0  0 
  5 14  1  0  0  0  0 
  6  4  2  0  0  0  0 
  7  4  1  0  0  0  0 
  7 16  1  0  0  0  0 
  9  1  1  0  0  0  0 
 10  2  1  0  0  0  0 
 13  3  1  0  0  0  0 
M  END 
>  <HBA> 
3 
 
>  <HBD> 
2 
 
>  <TPSA> 
63.32 
 
>  <cid> 
119 
 
>  <dipole> 
6.63 
 
>  <excitation_energy_1> 
5.49 
 
>  <excitation_energy_2> 
5.994 
 
>  <excitation_energy_3> 
6.359 
 
>  <excitation_energy_4> 
6.747 
 
>  <homo_energy> 
-6.629 
 
>  <homo_lumo_gap> 
7.372 
 
>  <logP> 
0.51 
 
>  <lumo_energy> 
0.743 
 
>  <melting_point> 
106.17 
 
>  <molecular_refractivity> 
25.82 
 
>  <oscillator_strength_1> 
0.002 
 
>  <oscillator_strength_2> 
0.0049 
 
>  <oscillator_strength_3> 
0.0132 
 
>  <oscillator_strength_4> 
0.0017 
 
>  <open_babel_can_smiles> 
NCCCC(=O)O 
 
>  <mulliken_charges> 
16 
1   -0.276516 
2   -0.363268 
3   -0.158173 
4   0.579373 
5   -0.761936 
6   -0.458916 
7   -0.60181 
8   0.143008 
9   0.165791 
10   0.172907 
11   0.151132 
12   0.141702 
13   0.174505 
14   0.317524 
15   0.326236 
16   0.448443 
 
>  <lowdin_charges> 
16 
1   -0.277955 
2   -0.316199 
3   -0.217243 
4   0.186507 
5   -0.54219 
6   -0.262568 
7   -0.38431 
8   0.146676 
9   0.159895 
10   0.169927 
11   0.154177 
12   0.138388 
13   0.157918 
14   0.266438 
15   0.269732 
16   0.350807 
 
$$$$ 
 
