PCCDB-ID:  503 
public computational chemistry database (PCCDB) project, http://pccdb.org 
 
 15 14  0  0  1  0  0  0  0  0999 V2000 
    1.0163    0.3481    0.3241 C   0  0  0  0  0  0  0  0  0  0  0  0 
    0.8365   -1.0396    0.9381 C   0  0  2  0  0  0  0  0  0  0  0  0 
    3.0911   -1.5723    1.1994 C   0  0  0  0  0  0  0  0  0  0  0  0 
    1.0796    0.3484   -1.1390 N   0  0  0  0  0  0  0  0  0  0  0  0 
    3.9752   -1.6578    2.1115 N   0  0  0  0  0  0  0  0  0  0  0  0 
    1.7367   -1.8607    1.3128 N   0  0  0  0  0  0  0  0  0  0  0  0 
   -0.4441   -1.4784    1.0348 O   0  0  0  0  0  0  0  0  0  0  0  0 
    3.4797   -1.2417   -0.0724 O   0  0  0  0  0  0  0  0  0  0  0  0 
    1.9361    0.7954    0.7068 H   0  0  0  0  0  0  0  0  0  0  0  0 
    0.1874    0.9956    0.6440 H   0  0  0  0  0  0  0  0  0  0  0  0 
    1.9013   -0.1853   -1.4180 H   0  0  0  0  0  0  0  0  0  0  0  0 
    0.2691   -0.1280   -1.5325 H   0  0  0  0  0  0  0  0  0  0  0  0 
    3.5442   -1.9471    2.9896 H   0  0  0  0  0  0  0  0  0  0  0  0 
   -1.0512   -0.7476    0.8378 H   0  0  0  0  0  0  0  0  0  0  0  0 
    4.4487   -1.1450   -0.0219 H   0  0  0  0  0  0  0  0  0  0  0  0 
  1 10  1  0  0  0  0 
  1  9  1  0  0  0  0 
  1  2  1  0  0  0  0 
  2  7  1  6  0  0  0 
  2  6  1  0  0  0  0 
  3  6  2  0  0  0  0 
  3  5  1  0  0  0  0 
  4  1  1  0  0  0  0 
  5 13  1  0  0  0  0 
  8 15  1  0  0  0  0 
  8  3  1  0  0  0  0 
 11  4  1  0  0  0  0 
 12  4  1  0  0  0  0 
 14  7  1  0  0  0  0 
M  RAD  2   2   2   5   2 
M  END 
>  <HBA> 
5 
 
>  <HBD> 
3 
 
>  <TPSA> 
98.21 
 
>  <cid> 
503 
 
>  <dipole> 
3.18 
 
>  <excitation_energy_1> 
4.826 
 
>  <excitation_energy_2> 
5.469 
 
>  <excitation_energy_3> 
5.694 
 
>  <excitation_energy_4> 
5.79 
 
>  <homo_energy> 
-6.539 
 
>  <homo_lumo_gap> 
5.938 
 
>  <logP> 
-0.068 
 
>  <lumo_energy> 
-0.601 
 
>  <melting_point> 
164.22 
 
>  <molecular_refractivity> 
25.54 
 
>  <oscillator_strength_1> 
0.0612 
 
>  <oscillator_strength_2> 
0.0019 
 
>  <oscillator_strength_3> 
0.0137 
 
>  <oscillator_strength_4> 
0.0785 
 
>  <open_babel_can_smiles> 
NC[C](/N=C(/O)\[NH])O 
 
>  <mulliken_charges> 
15 
1   -0.219908 
2   0.477777 
3   0.567023 
4   -0.699324 
5   -0.625811 
6   -0.437739 
7   -0.561053 
8   -0.596983 
9   0.188334 
10   0.145062 
11   0.335484 
12   0.296582 
13   0.298303 
14   0.412987 
15   0.419266 
 
>  <lowdin_charges> 
15 
1   -0.235842 
2   0.144924 
3   0.152233 
4   -0.537962 
5   -0.444563 
6   -0.191455 
7   -0.345637 
8   -0.387149 
9   0.174306 
10   0.150158 
11   0.271636 
12   0.2561 
13   0.268202 
14   0.360456 
15   0.364593 
 
$$$$ 
 
