PCCDB-ID:  3966 
public computational chemistry database (PCCDB) project, http://pccdb.org 
 
 43 46  0  0  1  0  0  0  0  0999 V2000 
   -3.9862    0.2598    0.1156 C   0  0  0  0  0  0  0  0  0  0  0  0 
    4.3002   -0.5099    0.3740 C   0  0  0  0  0  0  0  0  0  0  0  0 
   -3.8444    1.7561    0.4144 C   0  0  0  0  0  0  0  0  0  0  0  0 
    3.5728   -1.8159    0.7312 C   0  0  0  0  0  0  0  0  0  0  0  0 
   -2.8332   -0.2032   -0.7809 C   0  0  0  0  0  0  0  0  0  0  0  0 
    3.3857    0.4294   -0.4315 C   0  0  0  0  0  0  0  0  0  0  0  0 
   -2.4516    2.0595    0.9701 C   0  0  0  0  0  0  0  0  0  0  0  0 
    2.2240   -1.5084    1.4101 C   0  0  0  0  0  0  0  0  0  0  0  0 
    0.4699    0.9463   -1.6471 C   0  0  0  0  0  0  0  0  0  0  0  0 
    0.6755   -1.2503   -0.4813 C   0  0  0  0  0  0  0  0  0  0  0  0 
   -0.0824    2.0403    0.5472 C   0  0  0  0  0  0  0  0  0  0  0  0 
   -0.3093   -0.2800   -1.1538 C   0  0  1  0  0  0  0  0  0  0  0  0 
    1.0743    1.6117   -0.4032 C   0  0  1  0  0  0  0  0  0  0  0  0 
   -1.4594    0.1560   -0.1915 C   0  0  1  0  0  0  0  0  0  0  0  0 
    2.0493    0.6506    0.3121 C   0  0  1  0  0  0  0  0  0  0  0  0 
   -1.3970    1.6070    0.0647 N   0  0  1  0  0  0  0  0  0  0  0  0 
    1.3612   -0.6106    0.6412 N   0  0  2  0  0  0  0  0  0  0  0  0 
   -4.9535    0.0451   -0.3560 H   0  0  0  0  0  0  0  0  0  0  0  0 
   -3.9625   -0.3034    1.0602 H   0  0  0  0  0  0  0  0  0  0  0  0 
    5.2228   -0.7195   -0.1820 H   0  0  0  0  0  0  0  0  0  0  0  0 
    4.6039   -0.0038    1.3030 H   0  0  0  0  0  0  0  0  0  0  0  0 
   -4.6061    2.0877    1.1316 H   0  0  0  0  0  0  0  0  0  0  0  0 
   -3.9913    2.3326   -0.5084 H   0  0  0  0  0  0  0  0  0  0  0  0 
    4.1907   -2.4332    1.3966 H   0  0  0  0  0  0  0  0  0  0  0  0 
    3.4048   -2.4076   -0.1792 H   0  0  0  0  0  0  0  0  0  0  0  0 
   -2.9222    0.2697   -1.7692 H   0  0  0  0  0  0  0  0  0  0  0  0 
   -2.8766   -1.2892   -0.9387 H   0  0  0  0  0  0  0  0  0  0  0  0 
    3.2049   -0.0011   -1.4250 H   0  0  0  0  0  0  0  0  0  0  0  0 
    3.8809    1.3962   -0.5943 H   0  0  0  0  0  0  0  0  0  0  0  0 
   -2.3473    1.5919    1.9729 H   0  0  0  0  0  0  0  0  0  0  0  0 
   -2.3317    3.1408    1.1148 H   0  0  0  0  0  0  0  0  0  0  0  0 
    2.4183   -1.0314    2.3826 H   0  0  0  0  0  0  0  0  0  0  0  0 
    1.6694   -2.4329    1.6127 H   0  0  0  0  0  0  0  0  0  0  0  0 
   -0.1928    1.6449   -2.1659 H   0  0  0  0  0  0  0  0  0  0  0  0 
    1.2511    0.6429   -2.3549 H   0  0  0  0  0  0  0  0  0  0  0  0 
    1.3618   -1.6415   -1.2575 H   0  0  0  0  0  0  0  0  0  0  0  0 
    0.1311   -2.1168   -0.0813 H   0  0  0  0  0  0  0  0  0  0  0  0 
   -0.1164    3.1344    0.6228 H   0  0  0  0  0  0  0  0  0  0  0  0 
    0.1140    1.6542    1.5657 H   0  0  0  0  0  0  0  0  0  0  0  0 
   -0.7493   -0.8058   -2.0114 H   0  0  0  0  0  0  0  0  0  0  0  0 
    1.6469    2.5011   -0.6947 H   0  0  0  0  0  0  0  0  0  0  0  0 
   -1.3414   -0.3936    0.7643 H   0  0  0  0  0  0  0  0  0  0  0  0 
    2.3042    1.1111    1.2811 H   0  0  0  0  0  0  0  0  0  0  0  0 
  1  3  1  0  0  0  0 
  1 19  1  0  0  0  0 
  2  4  1  0  0  0  0 
  2 21  1  0  0  0  0 
  3  7  1  0  0  0  0 
  3 22  1  0  0  0  0 
  4 24  1  0  0  0  0 
  4  8  1  0  0  0  0 
  5 14  1  0  0  0  0 
  5  1  1  0  0  0  0 
  6 15  1  0  0  0  0 
  6  2  1  0  0  0  0 
  7 31  1  0  0  0  0 
  7 30  1  0  0  0  0 
  8 33  1  0  0  0  0 
  8 32  1  0  0  0  0 
  9 12  1  0  0  0  0 
  9 13  1  0  0  0  0 
 10 37  1  0  0  0  0 
 11 38  1  0  0  0  0 
 11 39  1  0  0  0  0 
 12 40  1  6  0  0  0 
 12 10  1  0  0  0  0 
 12 14  1  0  0  0  0 
 13 41  1  6  0  0  0 
 13 15  1  0  0  0  0 
 13 11  1  0  0  0  0 
 14 16  1  0  0  0  0 
 14 42  1  1  0  0  0 
 15 17  1  0  0  0  0 
 15 43  1  1  0  0  0 
 16 11  1  1  0  0  0 
 16  7  1  0  0  0  0 
 17 10  1  6  0  0  0 
 17  8  1  0  0  0  0 
 18  1  1  0  0  0  0 
 20  2  1  0  0  0  0 
 23  3  1  0  0  0  0 
 25  4  1  0  0  0  0 
 26  5  1  0  0  0  0 
 27  5  1  0  0  0  0 
 28  6  1  0  0  0  0 
 29  6  1  0  0  0  0 
 34  9  1  0  0  0  0 
 35  9  1  0  0  0  0 
 36 10  1  0  0  0  0 
M  END 
>  <HBA> 
2 
 
>  <HBD> 
0 
 
>  <TPSA> 
6.48 
 
>  <cid> 
3966 
 
>  <dipole> 
0.77 
 
>  <excitation_energy_1> 
4.756 
 
>  <excitation_energy_2> 
5.007 
 
>  <excitation_energy_3> 
5.043 
 
>  <excitation_energy_4> 
5.153 
 
>  <homo_energy> 
-5.252 
 
>  <homo_lumo_gap> 
7.358 
 
>  <logP> 
2.221 
 
>  <lumo_energy> 
2.106 
 
>  <melting_point> 
63.05 
 
>  <molecular_refractivity> 
79.39 
 
>  <oscillator_strength_1> 
0.013 
 
>  <oscillator_strength_2> 
0.0003 
 
>  <oscillator_strength_3> 
0.0159 
 
>  <oscillator_strength_4> 
0.0171 
 
>  <open_babel_can_smiles> 
C1CC[C@@H]2N(C1)C[C@@H]1C[C@H]2CN2[C@H]1CCCC2 
 
>  <mulliken_charges> 
43 
1   -0.266697 
2   -0.263644 
3   -0.259442 
4   -0.265478 
5   -0.274527 
6   -0.269038 
7   -0.110232 
8   -0.133534 
9   -0.263569 
10   -0.12837 
11   -0.106623 
12   -0.134222 
13   -0.120047 
14   0.088929 
15   0.029522 
16   -0.428702 
17   -0.392136 
18   0.130251 
19   0.127718 
20   0.131241 
21   0.126644 
22   0.127394 
23   0.136831 
24   0.128771 
25   0.133966 
26   0.133747 
27   0.125884 
28   0.133834 
29   0.127104 
30   0.104017 
31   0.130391 
32   0.13147 
33   0.132023 
34   0.150232 
35   0.125428 
36   0.109267 
37   0.131717 
38   0.126703 
39   0.122185 
40   0.122448 
41   0.120294 
42   0.110299 
43   0.117953 
 
>  <lowdin_charges> 
43 
1   -0.279427 
2   -0.277891 
3   -0.282207 
4   -0.2967 
5   -0.279529 
6   -0.295333 
7   -0.195101 
8   -0.203512 
9   -0.282136 
10   -0.204635 
11   -0.197591 
12   -0.137943 
13   -0.138816 
14   -0.062198 
15   -0.067058 
16   -0.193363 
17   -0.191741 
18   0.142958 
19   0.137609 
20   0.143358 
21   0.136715 
22   0.144729 
23   0.143617 
24   0.146062 
25   0.14006 
26   0.140658 
27   0.139738 
28   0.139536 
29   0.143331 
30   0.111211 
31   0.140177 
32   0.137595 
33   0.143395 
34   0.155009 
35   0.140861 
36   0.116469 
37   0.141003 
38   0.137182 
39   0.123359 
40   0.144413 
41   0.143067 
42   0.119848 
43   0.133219 
 
$$$$ 
 
