PCCDB-ID:  913 
public computational chemistry database (PCCDB) project, http://pccdb.org 
 
 24 24  0  0  1  0  0  0  0  0999 V2000 
    1.1479    0.0762   -2.4533 C   0  0  0  0  0  0  0  0  0  0  0  0 
    5.6830   -3.0694    2.5122 C   0  0  0  0  0  0  0  0  0  0  0  0 
    5.4769   -3.6878    1.2773 C   0  0  0  0  0  0  0  0  0  0  0  0 
    5.5299   -1.6862    2.6250 C   0  0  0  0  0  0  0  0  0  0  0  0 
    5.1137   -2.9314    0.1623 C   0  0  0  0  0  0  0  0  0  0  0  0 
    5.1732   -0.9304    1.5077 C   0  0  0  0  0  0  0  0  0  0  0  0 
    2.9756   -0.5334   -0.9280 C   0  0  0  0  0  0  0  0  0  0  0  0 
    4.9570   -1.5447    0.2685 C   0  0  0  0  0  0  0  0  0  0  0  0 
    4.5078   -0.7220   -0.9222 C   0  0  1  0  0  0  0  0  0  0  0  0 
    2.5843    0.1105   -2.1844 N   0  0  0  0  0  0  0  0  0  0  0  0 
    4.8927   -1.3467   -2.1330 O   0  0  0  0  0  0  0  0  0  0  0  0 
    0.9409    0.6030   -3.3904 H   0  0  0  0  0  0  0  0  0  0  0  0 
    0.5312    0.5278   -1.6570 H   0  0  0  0  0  0  0  0  0  0  0  0 
    0.8287   -0.9646   -2.5744 H   0  0  0  0  0  0  0  0  0  0  0  0 
    5.9690   -3.6595    3.3789 H   0  0  0  0  0  0  0  0  0  0  0  0 
    5.6039   -4.7631    1.1804 H   0  0  0  0  0  0  0  0  0  0  0  0 
    5.6977   -1.1943    3.5797 H   0  0  0  0  0  0  0  0  0  0  0  0 
    4.9666   -3.4005   -0.8048 H   0  0  0  0  0  0  0  0  0  0  0  0 
    5.0702    0.1496    1.5975 H   0  0  0  0  0  0  0  0  0  0  0  0 
    2.6486    0.0116   -0.0259 H   0  0  0  0  0  0  0  0  0  0  0  0 
    2.5076   -1.5248   -0.9002 H   0  0  0  0  0  0  0  0  0  0  0  0 
    4.9714    0.2801   -0.8476 H   0  0  0  0  0  0  0  0  0  0  0  0 
    2.9002    1.0800   -2.1730 H   0  0  0  0  0  0  0  0  0  0  0  0 
    4.2459   -1.0088   -2.7857 H   0  0  0  0  0  0  0  0  0  0  0  0 
  1 10  1  0  0  0  0 
  1 13  1  0  0  0  0 
  2  4  1  0  0  0  0 
  2 15  1  0  0  0  0 
  3  2  2  0  0  0  0 
  4 17  1  0  0  0  0 
  5  8  2  0  0  0  0 
  5  3  1  0  0  0  0 
  6 19  1  0  0  0  0 
  6  4  2  0  0  0  0 
  7  9  1  0  0  0  0 
  7 21  1  0  0  0  0 
  7 20  1  0  0  0  0 
  8  6  1  0  0  0  0 
  9 22  1  1  0  0  0 
  9  8  1  0  0  0  0 
 10 23  1  0  0  0  0 
 10  7  1  0  0  0  0 
 11  9  1  0  0  0  0 
 12  1  1  0  0  0  0 
 14  1  1  0  0  0  0 
 16  3  1  0  0  0  0 
 18  5  1  0  0  0  0 
 24 11  1  0  0  0  0 
M  END 
>  <HBA> 
2 
 
>  <HBD> 
2 
 
>  <TPSA> 
32.26 
 
>  <cid> 
913 
 
>  <dipole> 
2.95 
 
>  <excitation_energy_1> 
5.283 
 
>  <excitation_energy_2> 
5.628 
 
>  <excitation_energy_3> 
5.753 
 
>  <excitation_energy_4> 
5.912 
 
>  <homo_energy> 
-6.264 
 
>  <homo_lumo_gap> 
6.414 
 
>  <logP> 
1.33 
 
>  <lumo_energy> 
0.15 
 
>  <melting_point> 
51.62 
 
>  <molecular_refractivity> 
44.99 
 
>  <oscillator_strength_1> 
0.0011 
 
>  <oscillator_strength_2> 
0.0112 
 
>  <oscillator_strength_3> 
0.0559 
 
>  <oscillator_strength_4> 
0.0014 
 
>  <open_babel_can_smiles> 
CNC[C@@H](c1ccccc1)O 
 
>  <mulliken_charges> 
24 
1   -0.29989 
2   -0.127899 
3   -0.132778 
4   -0.132475 
5   -0.169347 
6   -0.180128 
7   -0.148696 
8   0.138492 
9   0.082897 
10   -0.571492 
11   -0.648753 
12   0.154627 
13   0.131356 
14   0.161148 
15   0.12559 
16   0.127221 
17   0.125697 
18   0.148731 
19   0.116803 
20   0.126257 
21   0.153978 
22   0.1091 
23   0.303796 
24   0.405767 
 
>  <lowdin_charges> 
24 
1   -0.35837 
2   -0.16201 
3   -0.152966 
4   -0.157766 
5   -0.157325 
6   -0.16686 
7   -0.224038 
8   -0.011427 
9   -0.001381 
10   -0.361436 
11   -0.46916 
12   0.153852 
13   0.129952 
14   0.152767 
15   0.156592 
16   0.154254 
17   0.155652 
18   0.168568 
19   0.149298 
20   0.131099 
21   0.151081 
22   0.122512 
23   0.255072 
24   0.34204 
 
$$$$ 
 
