PCCDB-ID:  523 
public computational chemistry database (PCCDB) project, http://pccdb.org 
 
 15 14  0  0  0  0  0  0  0  0999 V2000 
    0.8537    0.3340   -0.2710 C   0  0  0  0  0  0  0  0  0  0  0  0 
    0.0118   -0.6210    0.5670 C   0  0  0  0  0  0  0  0  0  0  0  0 
    2.3385    0.0802   -0.1576 C   0  0  0  0  0  0  0  0  0  0  0  0 
   -1.4535   -0.2547    0.5694 C   0  0  0  0  0  0  0  0  0  0  0  0 
   -2.3650   -1.2402    1.3367 C   0  0  0  0  0  0  0  0  0  0  0  0 
    2.8431   -0.7504    0.5659 O   0  0  0  0  0  0  0  0  0  0  0  0 
   -1.9214    0.7238    0.0297 O   0  0  0  0  0  0  0  0  0  0  0  0 
   -3.6448   -0.8373    1.3558 O   0  0  0  0  0  0  0  0  0  0  0  0 
   -1.9554   -2.2558    1.8541 O   0  0  0  0  0  0  0  0  0  0  0  0 
    0.6657    1.3795    0.0141 H   0  0  0  0  0  0  0  0  0  0  0  0 
    0.5771    0.2883   -1.3342 H   0  0  0  0  0  0  0  0  0  0  0  0 
    0.3669   -0.6491    1.6059 H   0  0  0  0  0  0  0  0  0  0  0  0 
    0.1171   -1.6589    0.2279 H   0  0  0  0  0  0  0  0  0  0  0  0 
    2.9713    0.7324   -0.8003 H   0  0  0  0  0  0  0  0  0  0  0  0 
   -4.1397   -1.5148    1.8551 H   0  0  0  0  0  0  0  0  0  0  0  0 
  1  3  1  0  0  0  0 
  1 10  1  0  0  0  0 
  1  2  1  0  0  0  0 
  2  4  1  0  0  0  0 
  2 12  1  0  0  0  0 
  3  6  2  0  0  0  0 
  4  5  1  0  0  0  0 
  5  8  1  0  0  0  0 
  5  9  2  0  0  0  0 
  7  4  2  0  0  0  0 
  8 15  1  0  0  0  0 
 11  1  1  0  0  0  0 
 13  2  1  0  0  0  0 
 14  3  1  0  0  0  0 
M  END 
>  <HBA> 
4 
 
>  <HBD> 
1 
 
>  <TPSA> 
71.44 
 
>  <cid> 
523 
 
>  <dipole> 
1.47 
 
>  <excitation_energy_1> 
3.301 
 
>  <excitation_energy_2> 
4.134 
 
>  <excitation_energy_3> 
4.36 
 
>  <excitation_energy_4> 
5.044 
 
>  <homo_energy> 
-7.173 
 
>  <homo_lumo_gap> 
4.871 
 
>  <logP> 
-0.381 
 
>  <lumo_energy> 
-2.302 
 
>  <melting_point> 
104.37 
 
>  <molecular_refractivity> 
28.32 
 
>  <oscillator_strength_1> 
0.0 
 
>  <oscillator_strength_2> 
0.0007 
 
>  <oscillator_strength_3> 
0.0002 
 
>  <oscillator_strength_4> 
0.0 
 
>  <open_babel_can_smiles> 
O=CCCC(=O)C(=O)O 
 
>  <mulliken_charges> 
15 
1   -0.351107 
2   -0.351364 
3   0.250467 
4   0.397085 
5   0.52835 
6   -0.380337 
7   -0.415059 
8   -0.538022 
9   -0.441806 
10   0.187397 
11   0.178618 
12   0.203542 
13   0.19908 
14   0.114417 
15   0.418739 
 
>  <lowdin_charges> 
15 
1   -0.307712 
2   -0.297962 
3   0.055256 
4   0.136197 
5   0.159872 
6   -0.216923 
7   -0.18394 
8   -0.321015 
9   -0.239807 
10   0.177483 
11   0.172377 
12   0.18754 
13   0.185316 
14   0.1231 
15   0.370219 
 
$$$$ 
 
