PCCDB-ID:  157 
public computational chemistry database (PCCDB) project, http://pccdb.org 
 
 23 22  0  0  1  0  0  0  0  0999 V2000 
    1.2773   -1.4706    4.3883 C   0  0  0  0  0  0  0  0  0  0  0  0 
    2.1904   -1.8672    3.2252 C   0  0  0  0  0  0  0  0  0  0  0  0 
    1.5301   -2.1307    1.8650 C   0  0  1  0  0  0  0  0  0  0  0  0 
    1.2639   -3.6341    1.5737 C   0  0  1  0  0  0  0  0  0  0  0  0 
    2.3951   -4.6240    1.8808 C   0  0  1  0  0  0  0  0  0  0  0  0 
    3.7429   -4.2082    1.2838 C   0  0  0  0  0  0  0  0  0  0  0  0 
    0.6806   -0.1919    4.1005 O   0  0  0  0  0  0  0  0  0  0  0  0 
    3.3985   -1.8910    3.3516 O   0  0  0  0  0  0  0  0  0  0  0  0 
    0.2381   -1.5340    1.7505 O   0  0  0  0  0  0  0  0  0  0  0  0 
    0.1616   -4.0790    2.3566 O   0  0  0  0  0  0  0  0  0  0  0  0 
    2.5388   -4.8243    3.2802 O   0  0  0  0  0  0  0  0  0  0  0  0 
    3.8404   -3.8356    0.1381 O   0  0  0  0  0  0  0  0  0  0  0  0 
    4.7943   -4.3511    2.0997 O   0  0  0  0  0  0  0  0  0  0  0  0 
    1.8609   -1.4455    5.3144 H   0  0  0  0  0  0  0  0  0  0  0  0 
    0.4490   -2.1764    4.4908 H   0  0  0  0  0  0  0  0  0  0  0  0 
    2.2189   -1.7541    1.0982 H   0  0  0  0  0  0  0  0  0  0  0  0 
    1.0312   -3.6970    0.5027 H   0  0  0  0  0  0  0  0  0  0  0  0 
    2.1222   -5.5739    1.3946 H   0  0  0  0  0  0  0  0  0  0  0  0 
    1.3774    0.4809    4.1716 H   0  0  0  0  0  0  0  0  0  0  0  0 
    0.2030   -0.7518    2.3351 H   0  0  0  0  0  0  0  0  0  0  0  0 
   -0.4865   -3.3512    2.2970 H   0  0  0  0  0  0  0  0  0  0  0  0 
    1.6363   -4.9460    3.6252 H   0  0  0  0  0  0  0  0  0  0  0  0 
    4.4535   -4.5682    2.9906 H   0  0  0  0  0  0  0  0  0  0  0  0 
  1 15  1  0  0  0  0 
  1 14  1  0  0  0  0 
  2  8  2  0  0  0  0 
  2  1  1  0  0  0  0 
  3 16  1  6  0  0  0 
  3  2  1  0  0  0  0 
  4 17  1  6  0  0  0 
  4  3  1  0  0  0  0 
  4  5  1  0  0  0  0 
  4 10  1  0  0  0  0 
  5 18  1  6  0  0  0 
  5 11  1  0  0  0  0 
  6  5  1  0  0  0  0 
  6 13  1  0  0  0  0 
  7 19  1  0  0  0  0 
  7  1  1  0  0  0  0 
  9  3  1  0  0  0  0 
  9 20  1  0  0  0  0 
 11 22  1  0  0  0  0 
 12  6  2  0  0  0  0 
 13 23  1  0  0  0  0 
 21 10  1  0  0  0  0 
M  END 
>  <HBA> 
7 
 
>  <HBD> 
5 
 
>  <TPSA> 
135.29 
 
>  <cid> 
157 
 
>  <dipole> 
5.12 
 
>  <excitation_energy_1> 
3.823 
 
>  <excitation_energy_2> 
5.015 
 
>  <excitation_energy_3> 
5.548 
 
>  <excitation_energy_4> 
5.683 
 
>  <homo_energy> 
-7.056 
 
>  <homo_lumo_gap> 
5.521 
 
>  <logP> 
-3.285 
 
>  <lumo_energy> 
-1.535 
 
>  <melting_point> 
146.46 
 
>  <molecular_refractivity> 
37.58 
 
>  <oscillator_strength_1> 
0.0001 
 
>  <oscillator_strength_2> 
0.0093 
 
>  <oscillator_strength_3> 
0.0187 
 
>  <oscillator_strength_4> 
0.0013 
 
>  <open_babel_can_smiles> 
OCC(=O)[C@@H]([C@@H]([C@@H](C(=O)O)O)O)O 
 
>  <mulliken_charges> 
23 
1   -0.127098 
2   0.405973 
3   0.039017 
4   0.121115 
5   0.009266 
6   0.624775 
7   -0.61929 
8   -0.429507 
9   -0.676516 
10   -0.66445 
11   -0.66739 
12   -0.469639 
13   -0.570897 
14   0.174516 
15   0.176654 
16   0.183869 
17   0.168521 
18   0.179619 
19   0.415957 
20   0.430799 
21   0.42323 
22   0.426912 
23   0.444564 
 
>  <lowdin_charges> 
23 
1   -0.163252 
2   0.120493 
3   -0.051913 
4   -0.013892 
5   -0.046181 
6   0.179797 
7   -0.450916 
8   -0.209413 
9   -0.472299 
10   -0.472564 
11   -0.467472 
12   -0.253887 
13   -0.325504 
14   0.161538 
15   0.167343 
16   0.172533 
17   0.158459 
18   0.16731 
19   0.359944 
20   0.353341 
21   0.355649 
22   0.35927 
23   0.371618 
 
$$$$ 
 
