PCCDB-ID:  3332 
public computational chemistry database (PCCDB) project, http://pccdb.org 
 
 28 29  0  0  0  0  0  0  0  0999 V2000 
   -1.8920   -0.5259    0.5262 C   0  0  0  0  0  0  0  0  0  0  0  0 
   -1.4093    0.7171    0.1127 C   0  0  0  0  0  0  0  0  0  0  0  0 
   -1.0009   -1.5861    0.7017 C   0  0  0  0  0  0  0  0  0  0  0  0 
   -0.0475    0.8981   -0.1232 C   0  0  0  0  0  0  0  0  0  0  0  0 
    0.3609   -1.4048    0.4653 C   0  0  0  0  0  0  0  0  0  0  0  0 
    4.3189    1.4106   -0.0845 C   0  0  0  0  0  0  0  0  0  0  0  0 
    4.4480   -0.7942   -1.0338 C   0  0  0  0  0  0  0  0  0  0  0  0 
    2.9586    1.2297    0.1505 C   0  0  0  0  0  0  0  0  0  0  0  0 
    3.0856   -0.9746   -0.8025 C   0  0  0  0  0  0  0  0  0  0  0  0 
    6.5625    0.6072   -0.9591 C   0  0  0  0  0  0  0  0  0  0  0  0 
    5.0918    0.4014   -0.6785 C   0  0  0  0  0  0  0  0  0  0  0  0 
    0.8613   -0.1597    0.0486 C   0  0  0  0  0  0  0  0  0  0  0  0 
    2.3118    0.0331   -0.2037 C   0  0  0  0  0  0  0  0  0  0  0  0 
    6.9262    1.1530   -2.3542 C   0  0  0  0  0  0  0  0  0  0  0  0 
    8.0488    1.4873   -2.6371 O   0  0  0  0  0  0  0  0  0  0  0  0 
    5.9281    1.2219   -3.2649 O   0  0  0  0  0  0  0  0  0  0  0  0 
   -2.9535   -0.6670    0.7101 H   0  0  0  0  0  0  0  0  0  0  0  0 
   -2.0953    1.5470   -0.0346 H   0  0  0  0  0  0  0  0  0  0  0  0 
   -1.3648   -2.5555    1.0314 H   0  0  0  0  0  0  0  0  0  0  0  0 
    0.3138    1.8625   -0.4697 H   0  0  0  0  0  0  0  0  0  0  0  0 
    1.0488   -2.2293    0.6310 H   0  0  0  0  0  0  0  0  0  0  0  0 
    4.7933    2.3437    0.2107 H   0  0  0  0  0  0  0  0  0  0  0  0 
    5.0218   -1.5954   -1.4949 H   0  0  0  0  0  0  0  0  0  0  0  0 
    2.3932    2.0173    0.6403 H   0  0  0  0  0  0  0  0  0  0  0  0 
    2.6120   -1.9035   -1.1069 H   0  0  0  0  0  0  0  0  0  0  0  0 
    7.1137   -0.3354   -0.8549 H   0  0  0  0  0  0  0  0  0  0  0  0 
    7.0097    1.2998   -0.2389 H   0  0  0  0  0  0  0  0  0  0  0  0 
    5.0948    0.9264   -2.8545 H   0  0  0  0  0  0  0  0  0  0  0  0 
  1  3  1  0  0  0  0 
  1 17  1  0  0  0  0 
  2  1  2  0  0  0  0 
  3 19  1  0  0  0  0 
  4 12  2  0  0  0  0 
  4  2  1  0  0  0  0 
  5 21  1  0  0  0  0 
  5  3  2  0  0  0  0 
  6  8  1  0  0  0  0 
  6 22  1  0  0  0  0 
  7  9  2  0  0  0  0 
  7 11  1  0  0  0  0 
  8 24  1  0  0  0  0 
  9 13  1  0  0  0  0 
 10 26  1  0  0  0  0 
 10 11  1  0  0  0  0 
 10 27  1  0  0  0  0 
 11  6  2  0  0  0  0 
 12  5  1  0  0  0  0 
 13 12  1  0  0  0  0 
 13  8  2  0  0  0  0 
 14 10  1  0  0  0  0 
 15 14  2  0  0  0  0 
 16 28  1  0  0  0  0 
 16 14  1  0  0  0  0 
 18  2  1  0  0  0  0 
 20  4  1  0  0  0  0 
 23  7  1  0  0  0  0 
 25  9  1  0  0  0  0 
M  END 
>  <HBA> 
2 
 
>  <HBD> 
1 
 
>  <TPSA> 
37.3 
 
>  <cid> 
3332 
 
>  <dipole> 
5.35 
 
>  <excitation_energy_1> 
4.709 
 
>  <excitation_energy_2> 
4.777 
 
>  <excitation_energy_3> 
4.906 
 
>  <excitation_energy_4> 
5.483 
 
>  <homo_energy> 
-6.378 
 
>  <homo_lumo_gap> 
5.184 
 
>  <logP> 
2.981 
 
>  <lumo_energy> 
-1.195 
 
>  <melting_point> 
121.92 
 
>  <molecular_refractivity> 
63.42 
 
>  <oscillator_strength_1> 
0.5828 
 
>  <oscillator_strength_2> 
0.002 
 
>  <oscillator_strength_3> 
0.0012 
 
>  <oscillator_strength_4> 
0.0044 
 
>  <open_babel_can_smiles> 
OC(=O)Cc1ccc(cc1)c1ccccc1 
 
>  <mulliken_charges> 
28 
1   -0.125104 
2   -0.133125 
3   -0.133184 
4   -0.173344 
5   -0.172798 
6   -0.17048 
7   -0.189847 
8   -0.171236 
9   -0.169465 
10   -0.454843 
11   0.089926 
12   0.088643 
13   0.088996 
14   0.586538 
15   -0.441316 
16   -0.563614 
17   0.134408 
18   0.135131 
19   0.134833 
20   0.134237 
21   0.134273 
22   0.140885 
23   0.141017 
24   0.142682 
25   0.142555 
26   0.194057 
27   0.192799 
28   0.417374 
 
>  <lowdin_charges> 
28 
1   -0.151647 
2   -0.153544 
3   -0.152021 
4   -0.159977 
5   -0.16145 
6   -0.160574 
7   -0.172949 
8   -0.156487 
9   -0.157072 
10   -0.317138 
11   -0.033947 
12   -0.004181 
13   0.003808 
14   0.18909 
15   -0.244815 
16   -0.352022 
17   0.158719 
18   0.161275 
19   0.160044 
20   0.159807 
21   0.160906 
22   0.162741 
23   0.163012 
24   0.165885 
25   0.164757 
26   0.182692 
27   0.183764 
28   0.361324 
 
$$$$ 
 
