PCCDB-ID:  362 
public computational chemistry database (PCCDB) project, http://pccdb.org 
 
 22 23  0  0  1  0  0  0  0  0999 V2000 
   -2.4944   -0.6989   -0.2112 C   0  0  0  0  0  0  0  0  0  0  0  0 
   -2.4954    0.6954   -0.2743 C   0  0  0  0  0  0  0  0  0  0  0  0 
   -1.2986   -1.3875   -0.0074 C   0  0  0  0  0  0  0  0  0  0  0  0 
   -1.2952    1.3960   -0.1272 C   0  0  0  0  0  0  0  0  0  0  0  0 
    1.1861   -1.4006    0.3309 C   0  0  0  0  0  0  0  0  0  0  0  0 
    2.3646   -0.7688    0.2196 C   0  0  0  0  0  0  0  0  0  0  0  0 
   -0.0873   -0.6953    0.1262 C   0  0  0  0  0  0  0  0  0  0  0  0 
   -0.0929    0.7172    0.0657 C   0  0  0  0  0  0  0  0  0  0  0  0 
    2.4416    0.6924   -0.1717 C   0  0  1  0  0  0  0  0  0  0  0  0 
    1.2007    1.4638    0.3191 C   0  0  2  0  0  0  0  0  0  0  0  0 
    3.6197    1.3199    0.3063 O   0  0  0  0  0  0  0  0  0  0  0  0 
    1.3635    1.7576    1.7248 O   0  0  0  0  0  0  0  0  0  0  0  0 
   -3.4242   -1.2505   -0.3209 H   0  0  0  0  0  0  0  0  0  0  0  0 
   -3.4241    1.2357   -0.4347 H   0  0  0  0  0  0  0  0  0  0  0  0 
   -1.2979   -2.4741    0.0409 H   0  0  0  0  0  0  0  0  0  0  0  0 
   -1.2921    2.4830   -0.1598 H   0  0  0  0  0  0  0  0  0  0  0  0 
    1.1409   -2.4646    0.5557 H   0  0  0  0  0  0  0  0  0  0  0  0 
    3.3098   -1.2882    0.3547 H   0  0  0  0  0  0  0  0  0  0  0  0 
    2.4784    0.7533   -1.2703 H   0  0  0  0  0  0  0  0  0  0  0  0 
    1.1843    2.4478   -0.1575 H   0  0  0  0  0  0  0  0  0  0  0  0 
    3.3819    1.6359    1.1983 H   0  0  0  0  0  0  0  0  0  0  0  0 
    1.1731    0.9357    2.2083 H   0  0  0  0  0  0  0  0  0  0  0  0 
  1  3  1  0  0  0  0 
  2  1  2  0  0  0  0 
  2  4  1  0  0  0  0 
  3 15  1  0  0  0  0 
  3  7  2  0  0  0  0 
  4  8  2  0  0  0  0 
  5 17  1  0  0  0  0 
  6  5  2  0  0  0  0 
  6 18  1  0  0  0  0 
  7  5  1  0  0  0  0 
  8  7  1  0  0  0  0 
  8 10  1  0  0  0  0 
  9 19  1  6  0  0  0 
  9  6  1  0  0  0  0 
  9 11  1  0  0  0  0 
  9 10  1  0  0  0  0 
 10 20  1  6  0  0  0 
 10 12  1  0  0  0  0 
 11 21  1  0  0  0  0 
 12 22  1  0  0  0  0 
 13  1  1  0  0  0  0 
 14  2  1  0  0  0  0 
 16  4  1  0  0  0  0 
M  END 
>  <HBA> 
2 
 
>  <HBD> 
2 
 
>  <TPSA> 
40.46 
 
>  <cid> 
362 
 
>  <dipole> 
2.72 
 
>  <excitation_energy_1> 
4.419 
 
>  <excitation_energy_2> 
4.692 
 
>  <excitation_energy_3> 
5.136 
 
>  <excitation_energy_4> 
5.552 
 
>  <homo_energy> 
-6.128 
 
>  <homo_lumo_gap> 
4.999 
 
>  <logP> 
1.108 
 
>  <lumo_energy> 
-1.129 
 
>  <melting_point> 
90.83 
 
>  <molecular_refractivity> 
46.52 
 
>  <oscillator_strength_1> 
0.118 
 
>  <oscillator_strength_2> 
0.0187 
 
>  <oscillator_strength_3> 
0.0225 
 
>  <oscillator_strength_4> 
0.3473 
 
>  <open_babel_can_smiles> 
O[C@H]1C=Cc2c([C@H]1O)cccc2 
 
>  <mulliken_charges> 
22 
1   -0.12719 
2   -0.12967 
3   -0.195557 
4   -0.184312 
5   -0.14959 
6   -0.180746 
7   0.109689 
8   0.092332 
9   0.126157 
10   -0.010071 
11   -0.643904 
12   -0.627871 
13   0.134516 
14   0.134559 
15   0.132115 
16   0.13683 
17   0.132139 
18   0.146253 
19   0.153058 
20   0.152557 
21   0.401087 
22   0.397618 
 
>  <lowdin_charges> 
22 
1   -0.150463 
2   -0.156803 
3   -0.157741 
4   -0.147087 
5   -0.173743 
6   -0.176391 
7   -0.011799 
8   -0.033261 
9   -0.018 
10   -0.012848 
11   -0.460732 
12   -0.461662 
13   0.16069 
14   0.161047 
15   0.156305 
16   0.159452 
17   0.157377 
18   0.167006 
19   0.152887 
20   0.156819 
21   0.341936 
22   0.347009 
 
$$$$ 
 
