PCCDB-ID:  368 
public computational chemistry database (PCCDB) project, http://pccdb.org 
 
 32 31  0  0  0  0  0  0  0  0999 V2000 
   -3.7405   -0.8474    3.1301 C   0  0  0  0  0  0  0  0  0  0  0  0 
    0.7994    3.2233    0.5945 C   0  0  0  0  0  0  0  0  0  0  0  0 
   -2.6874    0.0030    2.4067 C   0  0  0  0  0  0  0  0  0  0  0  0 
   -0.5854    3.8062    0.9235 C   0  0  0  0  0  0  0  0  0  0  0  0 
   -4.1922   -2.0880    2.3525 C   0  0  0  0  0  0  0  0  0  0  0  0 
    0.8209    2.2636   -0.5986 C   0  0  0  0  0  0  0  0  0  0  0  0 
   -2.3086    1.2702    3.1976 C   0  0  0  0  0  0  0  0  0  0  0  0 
   -1.6451    2.7852    1.3606 C   0  0  0  0  0  0  0  0  0  0  0  0 
   -3.0911   -3.0456    2.1826 N   0  0  0  0  0  0  0  0  0  0  0  0 
    2.1798    1.7519   -0.8156 N   0  0  0  0  0  0  0  0  0  0  0  0 
   -1.2803    2.1335    2.6173 N   0  0  0  0  0  0  0  0  0  0  0  0 
   -4.6247   -0.2265    3.3349 H   0  0  0  0  0  0  0  0  0  0  0  0 
   -3.3455   -1.1730    4.1014 H   0  0  0  0  0  0  0  0  0  0  0  0 
    1.2222    2.7091    1.4668 H   0  0  0  0  0  0  0  0  0  0  0  0 
    1.4848    4.0576    0.3837 H   0  0  0  0  0  0  0  0  0  0  0  0 
   -3.0639    0.2820    1.4121 H   0  0  0  0  0  0  0  0  0  0  0  0 
   -1.7753   -0.5905    2.2459 H   0  0  0  0  0  0  0  0  0  0  0  0 
   -0.9686    4.3429    0.0436 H   0  0  0  0  0  0  0  0  0  0  0  0 
   -0.4754    4.5460    1.7256 H   0  0  0  0  0  0  0  0  0  0  0  0 
   -4.6544   -1.7665    1.3995 H   0  0  0  0  0  0  0  0  0  0  0  0 
   -4.9789   -2.5948    2.9248 H   0  0  0  0  0  0  0  0  0  0  0  0 
    0.3855    2.7750   -1.4783 H   0  0  0  0  0  0  0  0  0  0  0  0 
    0.1773    1.3983   -0.3948 H   0  0  0  0  0  0  0  0  0  0  0  0 
   -1.9640    0.9724    4.1973 H   0  0  0  0  0  0  0  0  0  0  0  0 
   -3.2070    1.8846    3.3515 H   0  0  0  0  0  0  0  0  0  0  0  0 
   -1.8450    2.0795    0.5325 H   0  0  0  0  0  0  0  0  0  0  0  0 
   -2.5891    3.3188    1.5362 H   0  0  0  0  0  0  0  0  0  0  0  0 
   -2.4253   -2.6875    1.4999 H   0  0  0  0  0  0  0  0  0  0  0  0 
   -3.4508   -3.9131    1.7878 H   0  0  0  0  0  0  0  0  0  0  0  0 
    2.7934    2.5228   -1.0789 H   0  0  0  0  0  0  0  0  0  0  0  0 
    2.1854    1.1092   -1.6063 H   0  0  0  0  0  0  0  0  0  0  0  0 
   -0.4245    1.5958    2.4905 H   0  0  0  0  0  0  0  0  0  0  0  0 
  1 12  1  0  0  0  0 
  1 13  1  0  0  0  0 
  2  4  1  0  0  0  0 
  2 14  1  0  0  0  0 
  3  1  1  0  0  0  0 
  3  7  1  0  0  0  0 
  4  8  1  0  0  0  0 
  4 19  1  0  0  0  0 
  5 21  1  0  0  0  0 
  5  1  1  0  0  0  0 
  6 23  1  0  0  0  0 
  6  2  1  0  0  0  0 
  7 25  1  0  0  0  0 
  7 24  1  0  0  0  0 
  8 27  1  0  0  0  0 
  8 11  1  0  0  0  0 
  9  5  1  0  0  0  0 
 10  6  1  0  0  0  0 
 11  7  1  0  0  0  0 
 15  2  1  0  0  0  0 
 16  3  1  0  0  0  0 
 17  3  1  0  0  0  0 
 18  4  1  0  0  0  0 
 20  5  1  0  0  0  0 
 22  6  1  0  0  0  0 
 26  8  1  0  0  0  0 
 28  9  1  0  0  0  0 
 29  9  1  0  0  0  0 
 30 10  1  0  0  0  0 
 31 10  1  0  0  0  0 
 32 11  1  0  0  0  0 
M  END 
>  <HBA> 
3 
 
>  <HBD> 
3 
 
>  <TPSA> 
64.07 
 
>  <cid> 
368 
 
>  <dipole> 
3.08 
 
>  <excitation_energy_1> 
5.167 
 
>  <excitation_energy_2> 
5.475 
 
>  <excitation_energy_3> 
5.541 
 
>  <excitation_energy_4> 
5.571 
 
>  <homo_energy> 
-5.657 
 
>  <homo_lumo_gap> 
7.685 
 
>  <logP> 
1.845 
 
>  <lumo_energy> 
2.027 
 
>  <melting_point> 
107.79 
 
>  <molecular_refractivity> 
48.79 
 
>  <oscillator_strength_1> 
0.0055 
 
>  <oscillator_strength_2> 
0.007 
 
>  <oscillator_strength_3> 
0.0045 
 
>  <oscillator_strength_4> 
0.0128 
 
>  <open_babel_can_smiles> 
NCCCCNCCCCN 
 
>  <mulliken_charges> 
32 
1   -0.240103 
2   -0.261784 
3   -0.275566 
4   -0.259645 
5   -0.140289 
6   -0.133717 
7   -0.128587 
8   -0.123762 
9   -0.715542 
10   -0.716873 
11   -0.552553 
12   0.124534 
13   0.143825 
14   0.149256 
15   0.125552 
16   0.128573 
17   0.127761 
18   0.123248 
19   0.144546 
20   0.108744 
21   0.13668 
22   0.109753 
23   0.137768 
24   0.137443 
25   0.133144 
26   0.112774 
27   0.133208 
28   0.295355 
29   0.295257 
30   0.291108 
31   0.293685 
32   0.29621 
 
>  <lowdin_charges> 
32 
1   -0.279281 
2   -0.285171 
3   -0.298242 
4   -0.281877 
5   -0.206103 
6   -0.209215 
7   -0.205388 
8   -0.205567 
9   -0.562335 
10   -0.560475 
11   -0.363624 
12   0.140597 
13   0.14737 
14   0.14824 
15   0.140778 
16   0.136329 
17   0.137173 
18   0.140338 
19   0.151484 
20   0.114587 
21   0.144235 
22   0.115836 
23   0.139491 
24   0.142094 
25   0.139285 
26   0.114703 
27   0.141476 
28   0.25194 
29   0.254829 
30   0.251571 
31   0.253467 
32   0.251456 
 
$$$$ 
 
