PCCDB-ID:  6090 
public computational chemistry database (PCCDB) project, http://pccdb.org 
 
 36 37  0  0  0  0  0  0  0  0999 V2000 
    3.0515    1.6009    0.6876 C   0  0  0  0  0  0  0  0  0  0  0  0 
    3.1924   -2.0389   -0.3350 C   0  0  0  0  0  0  0  0  0  0  0  0 
    3.4161    0.3449    1.5016 C   0  0  0  0  0  0  0  0  0  0  0  0 
    4.3755   -1.0700   -0.2752 C   0  0  0  0  0  0  0  0  0  0  0  0 
   10.4423   -1.5731    2.2853 C   0  0  0  0  0  0  0  0  0  0  0  0 
   11.5283   -0.6819    2.4049 C   0  0  0  0  0  0  0  0  0  0  0  0 
    9.1312   -1.1188    2.3541 C   0  0  0  0  0  0  0  0  0  0  0  0 
   11.3244    0.6796    2.5990 C   0  0  0  0  0  0  0  0  0  0  0  0 
    6.2725    0.5684    2.5782 C   0  0  0  0  0  0  0  0  0  0  0  0 
    5.8509    0.2412    1.1309 C   0  0  0  0  0  0  0  0  0  0  0  0 
    8.1137    2.3446    2.8546 C   0  0  0  0  0  0  0  0  0  0  0  0 
    7.6924    1.0521    2.6678 C   0  0  0  0  0  0  0  0  0  0  0  0 
    8.8901    0.2535    2.5450 C   0  0  0  0  0  0  0  0  0  0  0  0 
   10.0023    1.1321    2.6670 C   0  0  0  0  0  0  0  0  0  0  0  0 
    9.4969    2.4024    2.8515 N   0  0  0  0  0  0  0  0  0  0  0  0 
    4.5619   -0.4476    1.0392 N   0  0  0  0  0  0  0  0  0  0  0  0 
    2.1893    2.1030    1.1425 H   0  0  0  0  0  0  0  0  0  0  0  0 
    2.7830    1.3553   -0.3459 H   0  0  0  0  0  0  0  0  0  0  0  0 
    3.8750    2.3231    0.6553 H   0  0  0  0  0  0  0  0  0  0  0  0 
    3.2109   -2.5881   -1.2831 H   0  0  0  0  0  0  0  0  0  0  0  0 
    2.2255   -1.5280   -0.2751 H   0  0  0  0  0  0  0  0  0  0  0  0 
    3.2491   -2.7624    0.4854 H   0  0  0  0  0  0  0  0  0  0  0  0 
    2.5465   -0.3197    1.5410 H   0  0  0  0  0  0  0  0  0  0  0  0 
    3.6098    0.6349    2.5400 H   0  0  0  0  0  0  0  0  0  0  0  0 
    4.2805   -0.3266   -1.0909 H   0  0  0  0  0  0  0  0  0  0  0  0 
    5.2923   -1.6333   -0.4883 H   0  0  0  0  0  0  0  0  0  0  0  0 
   10.6377   -2.6320    2.1390 H   0  0  0  0  0  0  0  0  0  0  0  0 
   12.5433   -1.0658    2.3476 H   0  0  0  0  0  0  0  0  0  0  0  0 
    8.3024   -1.8168    2.2650 H   0  0  0  0  0  0  0  0  0  0  0  0 
   12.1624    1.3655    2.6944 H   0  0  0  0  0  0  0  0  0  0  0  0 
    6.1378   -0.3385    3.1828 H   0  0  0  0  0  0  0  0  0  0  0  0 
    5.6089    1.3301    3.0041 H   0  0  0  0  0  0  0  0  0  0  0  0 
    6.6040   -0.4296    0.7018 H   0  0  0  0  0  0  0  0  0  0  0  0 
    5.8948    1.1682    0.5277 H   0  0  0  0  0  0  0  0  0  0  0  0 
    7.5291    3.2443    2.9945 H   0  0  0  0  0  0  0  0  0  0  0  0 
   10.0455    3.2358    2.9922 H   0  0  0  0  0  0  0  0  0  0  0  0 
  1 17  1  0  0  0  0 
  1  3  1  0  0  0  0 
  2  4  1  0  0  0  0 
  2 21  1  0  0  0  0 
  2 22  1  0  0  0  0 
  3 23  1  0  0  0  0 
  3 24  1  0  0  0  0 
  4 16  1  0  0  0  0 
  5  7  2  0  0  0  0 
  5  6  1  0  0  0  0 
  6  8  2  0  0  0  0 
  7 13  1  0  0  0  0 
  8 14  1  0  0  0  0 
  8 30  1  0  0  0  0 
  9 12  1  0  0  0  0 
  9 32  1  0  0  0  0 
  9 31  1  0  0  0  0 
 10  9  1  0  0  0  0 
 11 35  1  0  0  0  0 
 12 11  2  0  0  0  0 
 13 14  2  0  0  0  0 
 13 12  1  0  0  0  0 
 14 15  1  0  0  0  0 
 15 11  1  0  0  0  0 
 15 36  1  0  0  0  0 
 16 10  1  0  0  0  0 
 16  3  1  0  0  0  0 
 18  1  1  0  0  0  0 
 19  1  1  0  0  0  0 
 20  2  1  0  0  0  0 
 25  4  1  0  0  0  0 
 26  4  1  0  0  0  0 
 27  5  1  0  0  0  0 
 28  6  1  0  0  0  0 
 29  7  1  0  0  0  0 
 33 10  1  0  0  0  0 
 34 10  1  0  0  0  0 
M  END 
>  <HBA> 
1 
 
>  <HBD> 
1 
 
>  <TPSA> 
19.03 
 
>  <cid> 
6090 
 
>  <dipole> 
2.38 
 
>  <excitation_energy_1> 
4.529 
 
>  <excitation_energy_2> 
4.623 
 
>  <excitation_energy_3> 
4.686 
 
>  <excitation_energy_4> 
4.823 
 
>  <homo_energy> 
-5.271 
 
>  <homo_lumo_gap> 
5.216 
 
>  <logP> 
3.052 
 
>  <lumo_energy> 
-0.054 
 
>  <melting_point> 
99.08 
 
>  <molecular_refractivity> 
70.2 
 
>  <oscillator_strength_1> 
0.0589 
 
>  <oscillator_strength_2> 
0.0113 
 
>  <oscillator_strength_3> 
0.0013 
 
>  <oscillator_strength_4> 
0.0251 
 
>  <open_babel_can_smiles> 
CCN(CCc1c[nH]c2c1cccc2)CC 
 
>  <mulliken_charges> 
36 
1   -0.459829 
2   -0.457303 
3   -0.137886 
4   -0.103916 
5   -0.140943 
6   -0.151392 
7   -0.211909 
8   -0.163436 
9   -0.353503 
10   -0.109868 
11   -0.005654 
12   0.070451 
13   0.080116 
14   0.312611 
15   -0.691663 
16   -0.386024 
17   0.140459 
18   0.148658 
19   0.147226 
20   0.142065 
21   0.146346 
22   0.155089 
23   0.141843 
24   0.142415 
25   0.110864 
26   0.136105 
27   0.118872 
28   0.120887 
29   0.128171 
30   0.118573 
31   0.151752 
32   0.137012 
33   0.143111 
34   0.112586 
35   0.143343 
36   0.324774 
 
>  <lowdin_charges> 
36 
1   -0.46682 
2   -0.452111 
3   -0.206393 
4   -0.197496 
5   -0.175277 
6   -0.164219 
7   -0.166106 
8   -0.190139 
9   -0.275811 
10   -0.202038 
11   -0.138723 
12   -0.058776 
13   -0.034958 
14   0.032873 
15   -0.205446 
16   -0.193402 
17   0.152565 
18   0.148233 
19   0.149006 
20   0.152693 
21   0.147048 
22   0.154798 
23   0.145974 
24   0.143062 
25   0.11612 
26   0.143771 
27   0.152264 
28   0.153965 
29   0.157911 
30   0.154921 
31   0.154567 
32   0.147926 
33   0.14888 
34   0.117859 
35   0.162636 
36   0.290645 
 
$$$$ 
 
