PCCDB-ID:  5895 
public computational chemistry database (PCCDB) project, http://pccdb.org 
 
 26 28  0  0  0  0  0  0  0  0999 V2000 
   -3.5023    0.1018   -0.0851 C   0  0  0  0  0  0  0  0  0  0  0  0 
   -3.0494   -1.2200   -0.1504 C   0  0  0  0  0  0  0  0  0  0  0  0 
   -2.5906    1.1597    0.0172 C   0  0  0  0  0  0  0  0  0  0  0  0 
   -1.6831   -1.5085   -0.1152 C   0  0  0  0  0  0  0  0  0  0  0  0 
    2.9864   -1.1853    0.0743 C   0  0  0  0  0  0  0  0  0  0  0  0 
    1.6286   -1.4857    0.0092 C   0  0  0  0  0  0  0  0  0  0  0  0 
   -0.0511    1.8267    0.1585 C   0  0  0  0  0  0  0  0  0  0  0  0 
    2.4907    1.1937    0.2218 C   0  0  0  0  0  0  0  0  0  0  0  0 
   -1.2303    0.8788    0.0528 C   0  0  0  0  0  0  0  0  0  0  0  0 
    1.1386    0.8863    0.1489 C   0  0  0  0  0  0  0  0  0  0  0  0 
    3.4233    0.1470    0.1850 C   0  0  0  0  0  0  0  0  0  0  0  0 
   -0.7719   -0.4547   -0.0132 C   0  0  0  0  0  0  0  0  0  0  0  0 
    0.6946   -0.4474    0.0452 C   0  0  0  0  0  0  0  0  0  0  0  0 
    4.8114    0.3830    0.3487 N   0  0  0  0  0  0  0  0  0  0  0  0 
    5.2069    1.6820   -0.1014 O   0  0  0  0  0  0  0  0  0  0  0  0 
   -4.5686    0.3095   -0.1138 H   0  0  0  0  0  0  0  0  0  0  0  0 
   -3.7680   -2.0317   -0.2293 H   0  0  0  0  0  0  0  0  0  0  0  0 
   -2.9479    2.1859    0.0674 H   0  0  0  0  0  0  0  0  0  0  0  0 
   -1.3398   -2.5389   -0.1663 H   0  0  0  0  0  0  0  0  0  0  0  0 
    3.7204   -1.9880    0.0477 H   0  0  0  0  0  0  0  0  0  0  0  0 
    1.3103   -2.5215   -0.0772 H   0  0  0  0  0  0  0  0  0  0  0  0 
   -0.0886    2.4315    1.0753 H   0  0  0  0  0  0  0  0  0  0  0  0 
   -0.0171    2.5373   -0.6791 H   0  0  0  0  0  0  0  0  0  0  0  0 
    2.8414    2.2174    0.2877 H   0  0  0  0  0  0  0  0  0  0  0  0 
    5.3596   -0.2720   -0.2060 H   0  0  0  0  0  0  0  0  0  0  0  0 
    5.5783    2.0795    0.7030 H   0  0  0  0  0  0  0  0  0  0  0  0 
  1  3  2  0  0  0  0 
  2  4  2  0  0  0  0 
  2  1  1  0  0  0  0 
  3  9  1  0  0  0  0 
  3 18  1  0  0  0  0 
  4 12  1  0  0  0  0 
  5 11  2  0  0  0  0 
  6 13  2  0  0  0  0 
  6  5  1  0  0  0  0 
  7 22  1  0  0  0  0 
  8 24  1  0  0  0  0 
  9  7  1  0  0  0  0 
 10  7  1  0  0  0  0 
 10  8  2  0  0  0  0 
 11  8  1  0  0  0  0 
 11 14  1  0  0  0  0 
 12 13  1  0  0  0  0 
 12  9  2  0  0  0  0 
 13 10  1  0  0  0  0 
 15 14  1  0  0  0  0 
 15 26  1  0  0  0  0 
 16  1  1  0  0  0  0 
 17  2  1  0  0  0  0 
 19  4  1  0  0  0  0 
 20  5  1  0  0  0  0 
 21  6  1  0  0  0  0 
 23  7  1  0  0  0  0 
 25 14  1  0  0  0  0 
M  END 
>  <HBA> 
2 
 
>  <HBD> 
2 
 
>  <TPSA> 
32.26 
 
>  <cid> 
5895 
 
>  <dipole> 
1.36 
 
>  <excitation_energy_1> 
4.145 
 
>  <excitation_energy_2> 
4.337 
 
>  <excitation_energy_3> 
4.678 
 
>  <excitation_energy_4> 
4.811 
 
>  <homo_energy> 
-5.211 
 
>  <homo_lumo_gap> 
4.697 
 
>  <logP> 
3.132 
 
>  <lumo_energy> 
-0.514 
 
>  <melting_point> 
163.63 
 
>  <molecular_refractivity> 
60.12 
 
>  <oscillator_strength_1> 
0.1174 
 
>  <oscillator_strength_2> 
0.4581 
 
>  <oscillator_strength_3> 
0.0055 
 
>  <oscillator_strength_4> 
0.0032 
 
>  <open_babel_can_smiles> 
ONc1ccc2c(c1)Cc1c2cccc1 
 
>  <mulliken_charges> 
26 
1   -0.131441 
2   -0.137474 
3   -0.203948 
4   -0.194349 
5   -0.193521 
6   -0.198325 
7   -0.420408 
8   -0.237024 
9   0.105164 
10   0.101025 
11   0.318096 
12   0.088609 
13   0.085751 
14   -0.435452 
15   -0.513312 
16   0.123996 
17   0.12484 
18   0.122076 
19   0.124864 
20   0.119907 
21   0.129694 
22   0.170652 
23   0.172594 
24   0.130903 
25   0.329537 
26   0.417545 
 
>  <lowdin_charges> 
26 
1   -0.161043 
2   -0.158503 
3   -0.163565 
4   -0.16584 
5   -0.193387 
6   -0.150763 
7   -0.274674 
8   -0.192621 
9   -0.007743 
10   0.005608 
11   0.043348 
12   -0.008761 
13   -0.030153 
14   -0.197412 
15   -0.40531 
16   0.154179 
17   0.156766 
18   0.15403 
19   0.154353 
20   0.155293 
21   0.156955 
22   0.168215 
23   0.169525 
24   0.163091 
25   0.273079 
26   0.355336 
 
$$$$ 
 
