PCCDB-ID:  849 
public computational chemistry database (PCCDB) project, http://pccdb.org 
 
 20 20  0  0  1  0  0  0  0  0999 V2000 
    0.8075    1.2724   -0.3066 C   0  0  0  0  0  0  0  0  0  0  0  0 
    1.5088   -0.0294    0.1204 C   0  0  0  0  0  0  0  0  0  0  0  0 
   -0.5914    1.3960    0.3221 C   0  0  0  0  0  0  0  0  0  0  0  0 
    0.6103   -1.2548   -0.1176 C   0  0  0  0  0  0  0  0  0  0  0  0 
   -1.3943    0.1216    0.0427 C   0  0  2  0  0  0  0  0  0  0  0  0 
   -2.8251    0.1478    0.6004 C   0  0  0  0  0  0  0  0  0  0  0  0 
   -0.7214   -1.1119    0.5010 N   0  0  0  0  0  0  0  0  0  0  0  0 
   -3.4655    1.1578    0.7660 O   0  0  0  0  0  0  0  0  0  0  0  0 
   -3.3182   -1.0803    0.8552 O   0  0  0  0  0  0  0  0  0  0  0  0 
    0.7099    1.2859   -1.4022 H   0  0  0  0  0  0  0  0  0  0  0  0 
    1.4222    2.1397   -0.0388 H   0  0  0  0  0  0  0  0  0  0  0  0 
    1.7605    0.0236    1.1901 H   0  0  0  0  0  0  0  0  0  0  0  0 
    2.4568   -0.1516   -0.4187 H   0  0  0  0  0  0  0  0  0  0  0  0 
   -1.1297    2.2660   -0.0663 H   0  0  0  0  0  0  0  0  0  0  0  0 
   -0.5098    1.5362    1.4095 H   0  0  0  0  0  0  0  0  0  0  0  0 
    1.0739   -2.1674    0.2730 H   0  0  0  0  0  0  0  0  0  0  0  0 
    0.4546   -1.4073   -1.1938 H   0  0  0  0  0  0  0  0  0  0  0  0 
   -1.5052    0.0141   -1.0485 H   0  0  0  0  0  0  0  0  0  0  0  0 
   -0.5866   -1.0342    1.5125 H   0  0  0  0  0  0  0  0  0  0  0  0 
   -2.5787   -1.7064    0.6667 H   0  0  0  0  0  0  0  0  0  0  0  0 
  1 11  1  0  0  0  0 
  1  2  1  0  0  0  0 
  1  3  1  0  0  0  0 
  2 12  1  0  0  0  0 
  3 15  1  0  0  0  0 
  4  2  1  0  0  0  0 
  4 16  1  0  0  0  0 
  4  7  1  0  0  0  0 
  5 18  1  6  0  0  0 
  5  3  1  0  0  0  0 
  5  7  1  0  0  0  0 
  5  6  1  0  0  0  0 
  6  8  2  0  0  0  0 
  6  9  1  0  0  0  0 
  7 19  1  0  0  0  0 
 10  1  1  0  0  0  0 
 13  2  1  0  0  0  0 
 14  3  1  0  0  0  0 
 17  4  1  0  0  0  0 
 20  9  1  0  0  0  0 
M  END 
>  <HBA> 
3 
 
>  <HBD> 
2 
 
>  <TPSA> 
49.33 
 
>  <cid> 
849 
 
>  <dipole> 
5.09 
 
>  <excitation_energy_1> 
5.509 
 
>  <excitation_energy_2> 
5.923 
 
>  <excitation_energy_3> 
6.277 
 
>  <excitation_energy_4> 
6.398 
 
>  <homo_energy> 
-6.833 
 
>  <homo_lumo_gap> 
7.208 
 
>  <logP> 
0.542 
 
>  <lumo_energy> 
0.376 
 
>  <melting_point> 
100.35 
 
>  <molecular_refractivity> 
37.33 
 
>  <oscillator_strength_1> 
0.0007 
 
>  <oscillator_strength_2> 
0.0102 
 
>  <oscillator_strength_3> 
0.005 
 
>  <oscillator_strength_4> 
0.007 
 
>  <open_babel_can_smiles> 
OC(=O)[C@H]1CCCCN1 
 
>  <mulliken_charges> 
20 
1   -0.27027 
2   -0.271645 
3   -0.255151 
4   -0.142743 
5   -0.090515 
6   0.601312 
7   -0.592446 
8   -0.460325 
9   -0.581915 
10   0.135592 
11   0.145313 
12   0.133236 
13   0.142175 
14   0.168088 
15   0.137183 
16   0.150943 
17   0.149781 
18   0.171272 
19   0.306621 
20   0.423493 
 
>  <lowdin_charges> 
20 
1   -0.278628 
2   -0.291744 
3   -0.283198 
4   -0.20658 
5   -0.110173 
6   0.180469 
7   -0.360116 
8   -0.249577 
9   -0.359145 
10   0.139444 
11   0.151739 
12   0.138467 
13   0.151283 
14   0.166742 
15   0.143049 
16   0.151949 
17   0.144676 
18   0.159958 
19   0.254545 
20   0.356839 
 
$$$$ 
 
