PCCDB-ID:  675 
public computational chemistry database (PCCDB) project, http://pccdb.org 
 
 21 22  0  0  0  0  0  0  0  0999 V2000 
    0.9302    0.1185   -0.0267 C   0  0  0  0  0  0  0  0  0  0  0  0 
    2.3647   -2.4489    0.0031 C   0  0  0  0  0  0  0  0  0  0  0  0 
    3.1495    1.2968   -0.0294 C   0  0  0  0  0  0  0  0  0  0  0  0 
    4.5318   -1.1828   -0.0024 C   0  0  0  0  0  0  0  0  0  0  0  0 
    6.6329    1.7385   -0.0199 C   0  0  0  0  0  0  0  0  0  0  0  0 
    2.4422    0.0967   -0.0212 C   0  0  0  0  0  0  0  0  0  0  0  0 
    3.1371   -1.1498   -0.0073 C   0  0  0  0  0  0  0  0  0  0  0  0 
    4.5494    1.2735   -0.0247 C   0  0  0  0  0  0  0  0  0  0  0  0 
    5.2192    0.0314   -0.0117 C   0  0  0  0  0  0  0  0  0  0  0  0 
    5.4630    2.3227   -0.0306 N   0  0  0  0  0  0  0  0  0  0  0  0 
    6.5645    0.3624   -0.0083 N   0  0  0  0  0  0  0  0  0  0  0  0 
    0.5538    1.1460   -0.0339 H   0  0  0  0  0  0  0  0  0  0  0  0 
    0.5091   -0.3826    0.8551 H   0  0  0  0  0  0  0  0  0  0  0  0 
    0.5154   -0.3924   -0.9059 H   0  0  0  0  0  0  0  0  0  0  0  0 
    3.0410   -3.3094    0.0119 H   0  0  0  0  0  0  0  0  0  0  0  0 
    1.7154   -2.5451   -0.8768 H   0  0  0  0  0  0  0  0  0  0  0  0 
    1.7130   -2.5293    0.8829 H   0  0  0  0  0  0  0  0  0  0  0  0 
    2.6267    2.2491   -0.0404 H   0  0  0  0  0  0  0  0  0  0  0  0 
    5.0571   -2.1347    0.0080 H   0  0  0  0  0  0  0  0  0  0  0  0 
    7.5864    2.2521   -0.0210 H   0  0  0  0  0  0  0  0  0  0  0  0 
    7.3458   -0.2760    0.0007 H   0  0  0  0  0  0  0  0  0  0  0  0 
  1  6  1  0  0  0  0 
  1 13  1  0  0  0  0 
  2 15  1  0  0  0  0 
  2 17  1  0  0  0  0 
  3  8  2  0  0  0  0 
  3  6  1  0  0  0  0 
  4 19  1  0  0  0  0 
  5 11  1  0  0  0  0 
  6  7  2  0  0  0  0 
  7  4  1  0  0  0  0 
  7  2  1  0  0  0  0 
  8  9  1  0  0  0  0 
  9 11  1  0  0  0  0 
  9  4  2  0  0  0  0 
 10  8  1  0  0  0  0 
 10  5  2  0  0  0  0 
 11 21  1  0  0  0  0 
 12  1  1  0  0  0  0 
 14  1  1  0  0  0  0 
 16  2  1  0  0  0  0 
 18  3  1  0  0  0  0 
 20  5  1  0  0  0  0 
M  END 
>  <HBA> 
1 
 
>  <HBD> 
1 
 
>  <TPSA> 
28.68 
 
>  <cid> 
675 
 
>  <dipole> 
3.34 
 
>  <excitation_energy_1> 
4.834 
 
>  <excitation_energy_2> 
5.129 
 
>  <excitation_energy_3> 
5.167 
 
>  <excitation_energy_4> 
5.26 
 
>  <homo_energy> 
-5.802 
 
>  <homo_lumo_gap> 
5.625 
 
>  <logP> 
2.18 
 
>  <lumo_energy> 
-0.177 
 
>  <melting_point> 
120.11 
 
>  <molecular_refractivity> 
46.03 
 
>  <oscillator_strength_1> 
0.082 
 
>  <oscillator_strength_2> 
0.0907 
 
>  <oscillator_strength_3> 
0.0013 
 
>  <oscillator_strength_4> 
0.0001 
 
>  <open_babel_can_smiles> 
Cc1cc2[nH]cnc2cc1C 
 
>  <mulliken_charges> 
21 
1   -0.533595 
2   -0.532759 
3   -0.245099 
4   -0.235061 
5   0.225213 
6   0.125968 
7   0.117214 
8   0.2334 
9   0.353005 
10   -0.496418 
11   -0.685124 
12   0.156389 
13   0.155117 
14   0.155198 
15   0.15044 
16   0.15878 
17   0.158828 
18   0.131792 
19   0.118362 
20   0.157746 
21   0.330603 
 
>  <lowdin_charges> 
21 
1   -0.440796 
2   -0.440758 
3   -0.166804 
4   -0.198558 
5   -0.062022 
6   -0.018664 
7   -0.008307 
8   0.004157 
9   0.015681 
10   -0.191429 
11   -0.211017 
12   0.156679 
13   0.155953 
14   0.155985 
15   0.154767 
16   0.157932 
17   0.157923 
18   0.163025 
19   0.1537 
20   0.16716 
21   0.295393 
 
$$$$ 
 
