PCCDB-ID:  951 
public computational chemistry database (PCCDB) project, http://pccdb.org 
 
 23 23  0  0  1  0  0  0  0  0999 V2000 
   -1.0616    0.6699   -0.0076 C   0  0  0  0  0  0  0  0  0  0  0  0 
   -0.4220    1.9119   -0.0038 C   0  0  0  0  0  0  0  0  0  0  0  0 
    1.0819   -0.4157   -0.0352 C   0  0  0  0  0  0  0  0  0  0  0  0 
   -1.8406   -2.0904   -1.3191 C   0  0  0  0  0  0  0  0  0  0  0  0 
   -0.3140   -0.5110   -0.0285 C   0  0  0  0  0  0  0  0  0  0  0  0 
    0.9693    2.0031   -0.0183 C   0  0  0  0  0  0  0  0  0  0  0  0 
    1.7291    0.8187   -0.0304 C   0  0  0  0  0  0  0  0  0  0  0  0 
   -0.9987   -1.8799   -0.0407 C   0  0  2  0  0  0  0  0  0  0  0  0 
   -0.9136   -2.3127   -2.4376 N   0  0  0  0  0  0  0  0  0  0  0  0 
    1.6510    3.1896   -0.0157 O   0  0  0  0  0  0  0  0  0  0  0  0 
    3.0903    0.9487   -0.0357 O   0  0  0  0  0  0  0  0  0  0  0  0 
   -0.0777   -2.9517    0.0641 O   0  0  0  0  0  0  0  0  0  0  0  0 
   -2.1481    0.6336    0.0165 H   0  0  0  0  0  0  0  0  0  0  0  0 
   -1.0109    2.8279    0.0167 H   0  0  0  0  0  0  0  0  0  0  0  0 
    1.6653   -1.3328   -0.0170 H   0  0  0  0  0  0  0  0  0  0  0  0 
   -2.5369   -1.2513   -1.4669 H   0  0  0  0  0  0  0  0  0  0  0  0 
   -2.4332   -3.0031   -1.1930 H   0  0  0  0  0  0  0  0  0  0  0  0 
   -1.6673   -1.9460    0.8279 H   0  0  0  0  0  0  0  0  0  0  0  0 
   -0.4964   -1.4291   -2.7260 H   0  0  0  0  0  0  0  0  0  0  0  0 
   -1.4001   -2.6951   -3.2442 H   0  0  0  0  0  0  0  0  0  0  0  0 
    1.0049    3.9121    0.0130 H   0  0  0  0  0  0  0  0  0  0  0  0 
    3.4779    0.0600   -0.0102 H   0  0  0  0  0  0  0  0  0  0  0  0 
    0.1356   -3.1632   -0.8695 H   0  0  0  0  0  0  0  0  0  0  0  0 
  1  2  1  0  0  0  0 
  1 13  1  0  0  0  0 
  2 14  1  0  0  0  0 
  3  7  2  0  0  0  0 
  3  5  1  0  0  0  0 
  3 15  1  0  0  0  0 
  4 17  1  0  0  0  0 
  4  8  1  0  0  0  0 
  5  1  2  0  0  0  0 
  6 10  1  0  0  0  0 
  6  2  2  0  0  0  0 
  7  6  1  0  0  0  0 
  8  5  1  0  0  0  0 
  8 12  1  0  0  0  0 
  8 18  1  1  0  0  0 
  9  4  1  0  0  0  0 
 10 21  1  0  0  0  0 
 11  7  1  0  0  0  0 
 11 22  1  0  0  0  0 
 16  4  1  0  0  0  0 
 19  9  1  0  0  0  0 
 20  9  1  0  0  0  0 
 23 12  1  0  0  0  0 
M  END 
>  <HBA> 
4 
 
>  <HBD> 
4 
 
>  <TPSA> 
86.71 
 
>  <cid> 
951 
 
>  <dipole> 
3.5 
 
>  <excitation_energy_1> 
4.748 
 
>  <excitation_energy_2> 
4.838 
 
>  <excitation_energy_3> 
5.056 
 
>  <excitation_energy_4> 
5.17 
 
>  <homo_energy> 
-5.434 
 
>  <homo_lumo_gap> 
5.72 
 
>  <logP> 
0.79 
 
>  <lumo_energy> 
0.286 
 
>  <melting_point> 
161.3 
 
>  <molecular_refractivity> 
44.13 
 
>  <oscillator_strength_1> 
0.002 
 
>  <oscillator_strength_2> 
0.0516 
 
>  <oscillator_strength_3> 
0.0021 
 
>  <oscillator_strength_4> 
0.0124 
 
>  <open_babel_can_smiles> 
NC[C@H](c1ccc(c(c1)O)O)O 
 
>  <mulliken_charges> 
23 
1   -0.199619 
2   -0.200447 
3   -0.26637 
4   -0.168108 
5   0.117256 
6   0.317492 
7   0.332052 
8   0.086101 
9   -0.750468 
10   -0.634009 
11   -0.636149 
12   -0.645802 
13   0.117603 
14   0.115677 
15   0.133566 
16   0.131675 
17   0.152045 
18   0.142957 
19   0.317069 
20   0.313101 
21   0.405377 
22   0.408135 
23   0.410866 
 
>  <lowdin_charges> 
23 
1   -0.184168 
2   -0.206454 
3   -0.215072 
4   -0.22379 
5   -0.037582 
6   0.072729 
7   0.079411 
8   -0.0054 
9   -0.556889 
10   -0.373082 
11   -0.371919 
12   -0.4642 
13   0.150472 
14   0.152589 
15   0.164565 
16   0.132493 
17   0.150186 
18   0.149042 
19   0.264936 
20   0.2659 
21   0.357867 
22   0.35764 
23   0.340726 
 
$$$$ 
 
