PCCDB-ID:  3637 
public computational chemistry database (PCCDB) project, http://pccdb.org 
 
 20 21  0  0  1  0  0  0  0  0999 V2000 
   -2.4122   -0.7656    0.0080 C   0  0  0  0  0  0  0  0  0  0  0  0 
   -2.4418    0.6376   -0.0207 C   0  0  0  0  0  0  0  0  0  0  0  0 
   -1.1968   -1.4362    0.0252 C   0  0  0  0  0  0  0  0  0  0  0  0 
   -1.2583    1.3659   -0.0309 C   0  0  0  0  0  0  0  0  0  0  0  0 
    1.3040   -1.3651    0.0080 C   0  0  0  0  0  0  0  0  0  0  0  0 
    0.0097   -0.7140    0.0130 C   0  0  1  0  0  0  0  0  0  0  0  0 
   -0.0272    0.6971   -0.0151 C   0  0  0  0  0  0  0  0  0  0  0  0 
    1.2491    1.4215   -0.0282 C   0  0  0  0  0  0  0  0  0  0  0  0 
    2.6583    3.2000   -0.0605 N   0  0  0  0  0  0  0  0  0  0  0  0 
    2.4352   -0.7335   -0.0044 N   0  0  0  0  0  0  0  0  0  0  0  0 
    1.2932    2.7160   -0.0732 N   0  0  0  0  0  0  0  0  0  0  0  0 
    2.3810    0.6201    0.0270 N   0  0  0  0  0  0  0  0  0  0  0  0 
   -3.3418   -1.3279    0.0180 H   0  0  0  0  0  0  0  0  0  0  0  0 
   -3.3955    1.1577   -0.0331 H   0  0  0  0  0  0  0  0  0  0  0  0 
   -1.1660   -2.5228    0.0479 H   0  0  0  0  0  0  0  0  0  0  0  0 
   -1.2594    2.4503   -0.0468 H   0  0  0  0  0  0  0  0  0  0  0  0 
    1.3697   -2.4502    0.0032 H   0  0  0  0  0  0  0  0  0  0  0  0 
    2.5965    4.1498   -0.4226 H   0  0  0  0  0  0  0  0  0  0  0  0 
    2.9257    3.3141    0.9229 H   0  0  0  0  0  0  0  0  0  0  0  0 
    3.2634    1.0975   -0.1176 H   0  0  0  0  0  0  0  0  0  0  0  0 
  1 13  1  0  0  0  0 
  1  3  2  0  0  0  0 
  2  1  1  0  0  0  0 
  3 15  1  0  0  0  0 
  4  2  2  0  0  0  0 
  4  7  1  0  0  0  0 
  5  6  1  0  0  0  0 
  6  7  1  6  0  0  0 
  6  3  1  0  0  0  0 
  8  7  2  0  0  0  0 
  8 12  1  0  0  0  0 
  9 19  1  0  0  0  0 
 10  5  2  0  0  0  0 
 10 12  1  0  0  0  0 
 11  9  1  0  0  0  0 
 11  8  1  0  0  0  0 
 14  2  1  0  0  0  0 
 16  4  1  0  0  0  0 
 17  5  1  0  0  0  0 
 18  9  1  0  0  0  0 
 20 12  1  0  0  0  0 
M  RAD  2   6   2  11   2 
M  END 
>  <HBA> 
4 
 
>  <HBD> 
2 
 
>  <TPSA> 
63.83 
 
>  <cid> 
3637 
 
>  <dipole> 
1.42 
 
>  <excitation_energy_1> 
3.344 
 
>  <excitation_energy_2> 
3.787 
 
>  <excitation_energy_3> 
4.359 
 
>  <excitation_energy_4> 
4.509 
 
>  <homo_energy> 
-5.271 
 
>  <homo_lumo_gap> 
4.057 
 
>  <logP> 
1.689 
 
>  <lumo_energy> 
-1.214 
 
>  <melting_point> 
169.13 
 
>  <molecular_refractivity> 
46.74 
 
>  <oscillator_strength_1> 
0.0265 
 
>  <oscillator_strength_2> 
0.0875 
 
>  <oscillator_strength_3> 
0.0321 
 
>  <oscillator_strength_4> 
0.0119 
 
>  <open_babel_can_smiles> 
N[N]C1=C2C=CC=C[C]2C=NN1 
 
>  <mulliken_charges> 
20 
1   -0.123604 
2   -0.131998 
3   -0.206548 
4   -0.175069 
5   -0.02733 
6   0.132238 
7   0.0774 
8   0.560098 
9   -0.622963 
10   -0.225506 
11   -0.462189 
12   -0.52954 
13   0.13813 
14   0.139347 
15   0.139243 
16   0.167299 
17   0.151957 
18   0.325002 
19   0.30981 
20   0.364224 
 
>  <lowdin_charges> 
20 
1   -0.147981 
2   -0.146489 
3   -0.149453 
4   -0.133256 
5   -0.136837 
6   -0.01742 
7   -0.00728 
8   0.063264 
9   -0.479591 
10   -0.082835 
11   -0.22733 
12   -0.179814 
13   0.16272 
14   0.162951 
15   0.160088 
16   0.177442 
17   0.163288 
18   0.264711 
19   0.253683 
20   0.30014 
 
$$$$ 
 
