PCCDB-ID:  5906 
public computational chemistry database (PCCDB) project, http://pccdb.org 
 
 25 25  0  0  1  0  0  0  0  0999 V2000 
    0.9200    0.0527    0.2510 C   0  0  0  0  0  0  0  0  0  0  0  0 
    6.6409   -0.0713    1.9393 C   0  0  0  0  0  0  0  0  0  0  0  0 
    5.2508   -0.1550    1.9662 C   0  0  0  0  0  0  0  0  0  0  0  0 
    7.3870   -0.8287    1.0340 C   0  0  0  0  0  0  0  0  0  0  0  0 
    5.3295   -1.7790    0.1773 C   0  0  0  0  0  0  0  0  0  0  0  0 
    2.4513    0.0615    0.1889 C   0  0  1  0  0  0  0  0  0  0  0  0 
    4.5856   -1.0139    1.0785 C   0  0  0  0  0  0  0  0  0  0  0  0 
    6.7255   -1.6855    0.1509 C   0  0  0  0  0  0  0  0  0  0  0  0 
    3.0707   -1.0742    1.0638 C   0  0  1  0  0  0  0  0  0  0  0  0 
    2.8586    0.0240   -1.2185 N   0  0  0  0  0  0  0  0  0  0  0  0 
    7.3859   -2.4654   -0.7604 O   0  0  0  0  0  0  0  0  0  0  0  0 
    2.6297   -0.9903    2.4204 O   0  0  0  0  0  0  0  0  0  0  0  0 
    0.5480    0.2442    1.2634 H   0  0  0  0  0  0  0  0  0  0  0  0 
    0.5145   -0.9105   -0.0905 H   0  0  0  0  0  0  0  0  0  0  0  0 
    0.5231    0.8326   -0.4049 H   0  0  0  0  0  0  0  0  0  0  0  0 
    7.1566    0.5893    2.6313 H   0  0  0  0  0  0  0  0  0  0  0  0 
    4.6754    0.4216    2.6817 H   0  0  0  0  0  0  0  0  0  0  0  0 
    8.4734   -0.7595    1.0184 H   0  0  0  0  0  0  0  0  0  0  0  0 
    4.8443   -2.4691   -0.5073 H   0  0  0  0  0  0  0  0  0  0  0  0 
    2.8096    1.0128    0.6036 H   0  0  0  0  0  0  0  0  0  0  0  0 
    2.7594   -2.0372    0.6206 H   0  0  0  0  0  0  0  0  0  0  0  0 
    2.5471   -0.8499   -1.6446 H   0  0  0  0  0  0  0  0  0  0  0  0 
    3.8753    0.0250   -1.2865 H   0  0  0  0  0  0  0  0  0  0  0  0 
    8.3396   -2.3165   -0.6670 H   0  0  0  0  0  0  0  0  0  0  0  0 
    1.6673   -1.0997    2.4216 H   0  0  0  0  0  0  0  0  0  0  0  0 
  1 13  1  0  0  0  0 
  2  3  1  0  0  0  0 
  2 16  1  0  0  0  0 
  3 17  1  0  0  0  0 
  4  2  2  0  0  0  0 
  5  7  1  0  0  0  0 
  6  1  1  0  0  0  0 
  6 20  1  1  0  0  0 
  6  9  1  0  0  0  0 
  7  3  2  0  0  0  0 
  8  5  2  0  0  0  0 
  8  4  1  0  0  0  0 
  9 21  1  6  0  0  0 
  9  7  1  0  0  0  0 
  9 12  1  0  0  0  0 
 10  6  1  0  0  0  0 
 11 24  1  0  0  0  0 
 11  8  1  0  0  0  0 
 12 25  1  0  0  0  0 
 14  1  1  0  0  0  0 
 15  1  1  0  0  0  0 
 18  4  1  0  0  0  0 
 19  5  1  0  0  0  0 
 22 10  1  0  0  0  0 
 23 10  1  0  0  0  0 
M  END 
>  <HBA> 
3 
 
>  <HBD> 
3 
 
>  <TPSA> 
66.48 
 
>  <cid> 
5906 
 
>  <dipole> 
0.85 
 
>  <excitation_energy_1> 
4.968 
 
>  <excitation_energy_2> 
5.202 
 
>  <excitation_energy_3> 
5.286 
 
>  <excitation_energy_4> 
5.572 
 
>  <homo_energy> 
-5.938 
 
>  <homo_lumo_gap> 
5.859 
 
>  <logP> 
1.473 
 
>  <lumo_energy> 
-0.079 
 
>  <melting_point> 
119.66 
 
>  <molecular_refractivity> 
46.91 
 
>  <oscillator_strength_1> 
0.0541 
 
>  <oscillator_strength_2> 
0.0002 
 
>  <oscillator_strength_3> 
0.0126 
 
>  <oscillator_strength_4> 
0.012 
 
>  <open_babel_can_smiles> 
C[C@@H]([C@@H](c1cccc(c1)O)O)N 
 
>  <mulliken_charges> 
25 
1   -0.467829 
2   -0.136112 
3   -0.169496 
4   -0.194295 
5   -0.234489 
6   0.016301 
7   0.145024 
8   0.353488 
9   0.061185 
10   -0.712489 
11   -0.644748 
12   -0.633216 
13   0.137733 
14   0.134202 
15   0.174264 
16   0.131998 
17   0.145723 
18   0.117255 
19   0.129351 
20   0.143222 
21   0.104433 
22   0.285991 
23   0.308047 
24   0.407305 
25   0.397155 
 
>  <lowdin_charges> 
25 
1   -0.456921 
2   -0.143634 
3   -0.179152 
4   -0.216246 
5   -0.205985 
6   -0.079819 
7   0.00092 
8   0.101853 
9   -0.016452 
10   -0.545195 
11   -0.378405 
12   -0.456792 
13   0.146261 
14   0.142664 
15   0.169354 
16   0.160439 
17   0.169398 
18   0.150851 
19   0.1629 
20   0.146493 
21   0.124179 
22   0.24843 
23   0.257685 
24   0.355798 
25   0.341377 
 
$$$$ 
 
