PCCDB-ID:  423 
public computational chemistry database (PCCDB) project, http://pccdb.org 
 
 18 17  0  0  1  0  0  0  0  0999 V2000 
    2.1766    1.8909    0.5742 C   0  0  0  0  0  0  0  0  0  0  0  0 
    2.0728   -0.6754    0.8382 C   0  0  0  0  0  0  0  0  0  0  0  0 
    1.3674    0.6184    0.4741 C   0  0  0  0  0  0  0  0  0  0  0  0 
    1.1518   -1.8725    1.1777 C   0  0  1  0  0  0  0  0  0  0  0  0 
    0.6110   -2.5629   -0.0995 C   0  0  0  0  0  0  0  0  0  0  0  0 
    1.8770   -2.7966    2.0446 N   0  0  0  0  0  0  0  0  0  0  0  0 
    0.1910    0.6493    0.1310 O   0  0  0  0  0  0  0  0  0  0  0  0 
    0.9445   -3.6858   -0.4064 O   0  0  0  0  0  0  0  0  0  0  0  0 
   -0.2419   -1.8499   -0.8479 O   0  0  0  0  0  0  0  0  0  0  0  0 
    3.1525    1.7734    0.0889 H   0  0  0  0  0  0  0  0  0  0  0  0 
    2.3719    2.1166    1.6305 H   0  0  0  0  0  0  0  0  0  0  0  0 
    1.6292    2.7210    0.1242 H   0  0  0  0  0  0  0  0  0  0  0  0 
    2.7146   -0.4988    1.7097 H   0  0  0  0  0  0  0  0  0  0  0  0 
    2.7592   -0.9267    0.0145 H   0  0  0  0  0  0  0  0  0  0  0  0 
    0.2939   -1.4805    1.7386 H   0  0  0  0  0  0  0  0  0  0  0  0 
    2.4526   -3.3909    1.4453 H   0  0  0  0  0  0  0  0  0  0  0  0 
    1.2064   -3.4437    2.4584 H   0  0  0  0  0  0  0  0  0  0  0  0 
   -0.3313   -0.9399   -0.4731 H   0  0  0  0  0  0  0  0  0  0  0  0 
  1 11  1  0  0  0  0 
  2  4  1  0  0  0  0 
  2 13  1  0  0  0  0 
  3  1  1  0  0  0  0 
  3  2  1  0  0  0  0 
  4 15  1  1  0  0  0 
  4  6  1  0  0  0  0 
  5  4  1  0  0  0  0 
  6 17  1  0  0  0  0 
  7  3  2  0  0  0  0 
  8  5  2  0  0  0  0 
  9 18  1  0  0  0  0 
  9  5  1  0  0  0  0 
 10  1  1  0  0  0  0 
 12  1  1  0  0  0  0 
 14  2  1  0  0  0  0 
 16  6  1  0  0  0  0 
M  END 
>  <HBA> 
4 
 
>  <HBD> 
2 
 
>  <TPSA> 
80.39 
 
>  <cid> 
423 
 
>  <dipole> 
4.82 
 
>  <excitation_energy_1> 
4.553 
 
>  <excitation_energy_2> 
4.845 
 
>  <excitation_energy_3> 
5.371 
 
>  <excitation_energy_4> 
5.659 
 
>  <homo_energy> 
-6.838 
 
>  <homo_lumo_gap> 
5.491 
 
>  <logP> 
0.078 
 
>  <lumo_energy> 
-1.347 
 
>  <melting_point> 
126.9 
 
>  <molecular_refractivity> 
30.83 
 
>  <oscillator_strength_1> 
0.0002 
 
>  <oscillator_strength_2> 
0.0047 
 
>  <oscillator_strength_3> 
0.005 
 
>  <oscillator_strength_4> 
0.0031 
 
>  <open_babel_can_smiles> 
CC(=O)C[C@@H](C(=O)O)N 
 
>  <mulliken_charges> 
18 
1   -0.530642 
2   -0.366791 
3   0.471017 
4   -0.10957 
5   0.571085 
6   -0.700265 
7   -0.464574 
8   -0.459202 
9   -0.587049 
10   0.179871 
11   0.188842 
12   0.19207 
13   0.195373 
14   0.188633 
15   0.165042 
16   0.313291 
17   0.309891 
18   0.442979 
 
>  <lowdin_charges> 
18 
1   -0.466227 
2   -0.315914 
3   0.185276 
4   -0.112341 
5   0.164781 
6   -0.536797 
7   -0.249372 
8   -0.261723 
9   -0.357606 
10   0.175583 
11   0.181257 
12   0.180601 
13   0.183138 
14   0.179331 
15   0.160841 
16   0.265567 
17   0.265099 
18   0.358507 
 
$$$$ 
 
