PCCDB-ID:  3081 
public computational chemistry database (PCCDB) project, http://pccdb.org 
 
 16 16  0  0  0  0  0  0  0  0999 V2000 
    1.1296    0.0609   -0.1905 C   0  0  0  0  0  0  0  0  0  0  0  0 
    3.0115   -0.0910    1.5298 C   0  0  0  0  0  0  0  0  0  0  0  0 
    3.2215   -1.2841   -0.7027 C   0  0  0  0  0  0  0  0  0  0  0  0 
    4.1695    0.4306   -1.5935 C   0  0  0  0  0  0  0  0  0  0  0  0 
    2.6386   -0.0899    0.0419 C   0  0  0  0  0  0  0  0  0  0  0  0 
    4.0712   -0.9838   -1.6104 N   0  0  0  0  0  0  0  0  0  0  0  0 
    2.8779   -2.5457   -0.4364 O   0  0  0  0  0  0  0  0  0  0  0  0 
    4.8562    1.1216   -2.2885 O   0  0  0  0  0  0  0  0  0  0  0  0 
    3.3294    0.9732   -0.6203 O   0  0  0  0  0  0  0  0  0  0  0  0 
    0.5689   -0.7614    0.2702 H   0  0  0  0  0  0  0  0  0  0  0  0 
    0.9054    0.0800   -1.2609 H   0  0  0  0  0  0  0  0  0  0  0  0 
    0.7831    0.9979    0.2548 H   0  0  0  0  0  0  0  0  0  0  0  0 
    2.5384   -0.9256    2.0612 H   0  0  0  0  0  0  0  0  0  0  0  0 
    2.6720    0.8401    1.9928 H   0  0  0  0  0  0  0  0  0  0  0  0 
    4.0955   -0.1670    1.6539 H   0  0  0  0  0  0  0  0  0  0  0  0 
    2.2264   -2.5685    0.2832 H   0  0  0  0  0  0  0  0  0  0  0  0 
  1  5  1  0  0  0  0 
  1 12  1  0  0  0  0 
  1 10  1  0  0  0  0 
  2 15  1  0  0  0  0 
  2 14  1  0  0  0  0 
  2 13  1  0  0  0  0 
  3  7  1  0  0  0  0 
  3  5  1  0  0  0  0 
  4  9  1  0  0  0  0 
  5  2  1  0  0  0  0 
  6  4  2  0  0  0  0 
  6  3  2  0  0  0  0 
  7 16  1  0  0  0  0 
  8  4  2  0  0  0  0 
  9  5  1  0  0  0  0 
 11  1  1  0  0  0  0 
M  END 
>  <HBA> 
4 
 
>  <HBD> 
1 
 
>  <TPSA> 
55.4 
 
>  <cid> 
3081 
 
>  <dipole> 
7.3 
 
>  <excitation_energy_1> 
5.207 
 
>  <excitation_energy_2> 
5.663 
 
>  <excitation_energy_3> 
6.35 
 
>  <excitation_energy_4> 
6.424 
 
>  <homo_energy> 
-7.627 
 
>  <homo_lumo_gap> 
6.593 
 
>  <logP> 
0.36 
 
>  <lumo_energy> 
-1.034 
 
>  <melting_point> 
79.05 
 
>  <molecular_refractivity> 
32.66 
 
>  <oscillator_strength_1> 
0.0002 
 
>  <oscillator_strength_2> 
0.0 
 
>  <oscillator_strength_3> 
0.1052 
 
>  <oscillator_strength_4> 
0.0008 
 
>  <open_babel_can_smiles> 
OC1=[N]=[C](=O)OC1(C)C 
 
>  <mulliken_charges> 
16 
1   -0.450296 
2   -0.45025 
3   0.526492 
4   0.712183 
5   0.20625 
6   -0.469256 
7   -0.571111 
8   -0.449672 
9   -0.488116 
10   0.13738 
11   0.182354 
12   0.183888 
13   0.137051 
14   0.183655 
15   0.182513 
16   0.426935 
 
>  <lowdin_charges> 
16 
1   -0.444797 
2   -0.444325 
3   0.137089 
4   0.211293 
5   0.09095 
6   -0.186398 
7   -0.306722 
8   -0.215164 
9   -0.20521 
10   0.151475 
11   0.170538 
12   0.174092 
13   0.151243 
14   0.174029 
15   0.170399 
16   0.371507 
 
$$$$ 
 
