PCCDB-ID:  836 
public computational chemistry database (PCCDB) project, http://pccdb.org 
 
 25 25  0  0  1  0  0  0  0  0999 V2000 
   -0.9907    0.8332    0.3434 C   0  0  0  0  0  0  0  0  0  0  0  0 
   -0.2780    2.0381    0.3939 C   0  0  0  0  0  0  0  0  0  0  0  0 
   -1.0988   -1.6746   -0.1013 C   0  0  0  0  0  0  0  0  0  0  0  0 
    1.0125   -0.2990   -0.3563 C   0  0  0  0  0  0  0  0  0  0  0  0 
   -0.3563   -0.3549   -0.0312 C   0  0  0  0  0  0  0  0  0  0  0  0 
   -0.7632   -2.6937    1.0245 C   0  0  1  0  0  0  0  0  0  0  0  0 
    1.0743    2.0845    0.0716 C   0  0  0  0  0  0  0  0  0  0  0  0 
    1.7287    0.8925   -0.3122 C   0  0  0  0  0  0  0  0  0  0  0  0 
   -1.4110   -2.3219    2.3775 C   0  0  0  0  0  0  0  0  0  0  0  0 
   -1.1223   -4.0375    0.5846 N   0  0  0  0  0  0  0  0  0  0  0  0 
    1.8255    3.2218    0.0983 O   0  0  0  0  0  0  0  0  0  0  0  0 
    3.0519    0.9898   -0.6248 O   0  0  0  0  0  0  0  0  0  0  0  0 
   -2.1203   -3.0819    2.9930 O   0  0  0  0  0  0  0  0  0  0  0  0 
   -1.1282   -1.0952    2.8760 O   0  0  0  0  0  0  0  0  0  0  0  0 
   -2.0492    0.8300    0.5887 H   0  0  0  0  0  0  0  0  0  0  0  0 
   -0.7864    2.9554    0.6849 H   0  0  0  0  0  0  0  0  0  0  0  0 
   -0.8565   -2.1869   -1.0389 H   0  0  0  0  0  0  0  0  0  0  0  0 
   -2.1808   -1.4919   -0.1129 H   0  0  0  0  0  0  0  0  0  0  0  0 
    1.5275   -1.2084   -0.6649 H   0  0  0  0  0  0  0  0  0  0  0  0 
    0.3255   -2.6760    1.1786 H   0  0  0  0  0  0  0  0  0  0  0  0 
   -2.1376   -4.0793    0.4832 H   0  0  0  0  0  0  0  0  0  0  0  0 
   -0.9284   -4.6848    1.3487 H   0  0  0  0  0  0  0  0  0  0  0  0 
    1.2610    3.9605    0.3746 H   0  0  0  0  0  0  0  0  0  0  0  0 
    3.3789    0.1109   -0.8725 H   0  0  0  0  0  0  0  0  0  0  0  0 
   -0.6177   -0.5715    2.2290 H   0  0  0  0  0  0  0  0  0  0  0  0 
  1  2  1  0  0  0  0 
  1 15  1  0  0  0  0 
  2 16  1  0  0  0  0 
  3  5  1  0  0  0  0 
  3  6  1  0  0  0  0 
  4  8  2  0  0  0  0 
  4  5  1  0  0  0  0 
  5  1  2  0  0  0  0 
  6 20  1  1  0  0  0 
  6  9  1  0  0  0  0 
  7 11  1  0  0  0  0 
  7  2  2  0  0  0  0 
  8  7  1  0  0  0  0 
  9 14  1  0  0  0  0 
  9 13  2  0  0  0  0 
 10  6  1  0  0  0  0 
 10 22  1  0  0  0  0 
 11 23  1  0  0  0  0 
 12  8  1  0  0  0  0 
 17  3  1  0  0  0  0 
 18  3  1  0  0  0  0 
 19  4  1  0  0  0  0 
 21 10  1  0  0  0  0 
 24 12  1  0  0  0  0 
 25 14  1  0  0  0  0 
M  END 
>  <HBA> 
5 
 
>  <HBD> 
4 
 
>  <TPSA> 
103.78 
 
>  <cid> 
836 
 
>  <dipole> 
3.3 
 
>  <excitation_energy_1> 
4.77 
 
>  <excitation_energy_2> 
5.022 
 
>  <excitation_energy_3> 
5.268 
 
>  <excitation_energy_4> 
5.402 
 
>  <homo_energy> 
-6.046 
 
>  <homo_lumo_gap> 
5.589 
 
>  <logP> 
0.752 
 
>  <lumo_energy> 
-0.457 
 
>  <melting_point> 
219.18 
 
>  <molecular_refractivity> 
49.55 
 
>  <oscillator_strength_1> 
0.079 
 
>  <oscillator_strength_2> 
0.0006 
 
>  <oscillator_strength_3> 
0.0004 
 
>  <oscillator_strength_4> 
0.0263 
 
>  <open_babel_can_smiles> 
OC(=O)[C@H](Cc1ccc(c(c1)O)O)N 
 
>  <mulliken_charges> 
25 
1   -0.219108 
2   -0.189129 
3   -0.351257 
4   -0.251736 
5   0.104187 
6   -0.102697 
7   0.322115 
8   0.333498 
9   0.568412 
10   -0.694419 
11   -0.625608 
12   -0.627251 
13   -0.451182 
14   -0.575628 
15   0.143566 
16   0.130777 
17   0.181447 
18   0.154686 
19   0.128368 
20   0.161089 
21   0.30367 
22   0.311977 
23   0.411478 
24   0.411615 
25   0.421129 
 
>  <lowdin_charges> 
25 
1   -0.187172 
2   -0.204646 
3   -0.276156 
4   -0.218174 
5   -0.036455 
6   -0.111899 
7   0.080229 
8   0.085777 
9   0.17259 
10   -0.530964 
11   -0.362447 
12   -0.361757 
13   -0.253097 
14   -0.361178 
15   0.16318 
16   0.160422 
17   0.171908 
18   0.153261 
19   0.158533 
20   0.15399 
21   0.257037 
22   0.26501 
23   0.362669 
24   0.360569 
25   0.358769 
 
$$$$ 
 
