PCCDB-ID:  905 
public computational chemistry database (PCCDB) project, http://pccdb.org 
 
 23 22  0  0  1  0  0  0  0  0999 V2000 
    2.6190    0.3406   -5.0170 C   0  0  0  0  0  0  0  0  0  0  0  0 
    0.9387   -3.2669   -3.3848 C   0  0  0  0  0  0  0  0  0  0  0  0 
    0.9471   -1.8253   -2.8586 C   0  0  0  0  0  0  0  0  0  0  0  0 
    1.0618   -3.4017   -4.8863 C   0  0  0  0  0  0  0  0  0  0  0  0 
    3.4670   -0.8313   -4.5872 C   0  0  0  0  0  0  0  0  0  0  0  0 
    2.3581   -1.2911   -2.5136 C   0  0  1  0  0  0  0  0  0  0  0  0 
    2.8410   -1.9715   -1.2087 C   0  0  0  0  0  0  0  0  0  0  0  0 
    3.3558   -1.5432   -3.5405 N   0  0  0  0  0  0  0  0  0  0  0  0 
    1.0167   -2.4872   -5.6831 O   0  0  0  0  0  0  0  0  0  0  0  0 
    4.4510   -1.1947   -5.4496 O   0  0  0  0  0  0  0  0  0  0  0  0 
    2.2304   -1.8776   -0.1687 O   0  0  0  0  0  0  0  0  0  0  0  0 
    3.9656   -2.6880   -1.3400 O   0  0  0  0  0  0  0  0  0  0  0  0 
    2.1197    0.8108   -4.1674 H   0  0  0  0  0  0  0  0  0  0  0  0 
    1.8480   -0.0184   -5.7080 H   0  0  0  0  0  0  0  0  0  0  0  0 
    3.2246    1.1021   -5.5214 H   0  0  0  0  0  0  0  0  0  0  0  0 
   -0.0042   -3.7713   -3.1198 H   0  0  0  0  0  0  0  0  0  0  0  0 
    1.7227   -3.8842   -2.9241 H   0  0  0  0  0  0  0  0  0  0  0  0 
    0.3557   -1.7551   -1.9414 H   0  0  0  0  0  0  0  0  0  0  0  0 
    0.4811   -1.1752   -3.6058 H   0  0  0  0  0  0  0  0  0  0  0  0 
    1.1670   -4.4485   -5.2473 H   0  0  0  0  0  0  0  0  0  0  0  0 
    2.2622   -0.2227   -2.2710 H   0  0  0  0  0  0  0  0  0  0  0  0 
    4.4179   -0.6291   -6.2363 H   0  0  0  0  0  0  0  0  0  0  0  0 
    4.2358   -2.5686   -2.2864 H   0  0  0  0  0  0  0  0  0  0  0  0 
  1  5  1  0  0  0  0 
  1 13  1  0  0  0  0 
  2 16  1  0  0  0  0 
  2 17  1  0  0  0  0 
  2  3  1  0  0  0  0 
  3  6  1  0  0  0  0 
  3 18  1  0  0  0  0 
  4  2  1  0  0  0  0 
  5  8  2  0  0  0  0 
  6 21  1  1  0  0  0 
  6  7  1  0  0  0  0 
  7 11  2  0  0  0  0 
  8  6  1  0  0  0  0 
  9  4  2  0  0  0  0 
 10  5  1  0  0  0  0 
 12  7  1  0  0  0  0 
 14  1  1  0  0  0  0 
 15  1  1  0  0  0  0 
 19  3  1  0  0  0  0 
 20  4  1  0  0  0  0 
 22 10  1  0  0  0  0 
 23 12  1  0  0  0  0 
M  END 
>  <HBA> 
5 
 
>  <HBD> 
2 
 
>  <TPSA> 
83.47 
 
>  <cid> 
905 
 
>  <dipole> 
5.48 
 
>  <excitation_energy_1> 
4.387 
 
>  <excitation_energy_2> 
5.263 
 
>  <excitation_energy_3> 
5.505 
 
>  <excitation_energy_4> 
5.682 
 
>  <homo_energy> 
-6.792 
 
>  <homo_lumo_gap> 
5.905 
 
>  <logP> 
-0.054 
 
>  <lumo_energy> 
-0.887 
 
>  <melting_point> 
130.23 
 
>  <molecular_refractivity> 
40.74 
 
>  <oscillator_strength_1> 
0.0001 
 
>  <oscillator_strength_2> 
0.0024 
 
>  <oscillator_strength_3> 
0.0018 
 
>  <oscillator_strength_4> 
0.012 
 
>  <open_babel_can_smiles> 
C/C(=N\[C@H](C(=O)O)CCC=O)/O 
 
>  <mulliken_charges> 
23 
1   -0.561809 
2   -0.354875 
3   -0.278022 
4   0.267634 
5   0.523499 
6   -0.076228 
7   0.599219 
8   -0.488295 
9   -0.402819 
10   -0.567364 
11   -0.473364 
12   -0.581974 
13   0.185621 
14   0.225438 
15   0.161325 
16   0.176847 
17   0.181221 
18   0.179681 
19   0.159698 
20   0.11639 
21   0.16114 
22   0.415989 
23   0.431049 
 
>  <lowdin_charges> 
23 
1   -0.485142 
2   -0.316796 
3   -0.280998 
4   0.071389 
5   0.162178 
6   -0.100518 
7   0.176159 
8   -0.239749 
9   -0.238682 
10   -0.349477 
11   -0.264688 
12   -0.351839 
13   0.177648 
14   0.196689 
15   0.165429 
16   0.176295 
17   0.174969 
18   0.171868 
19   0.15751 
20   0.121879 
21   0.15559 
22   0.362948 
23   0.357339 
 
$$$$ 
 
