PCCDB-ID:  1663 
public computational chemistry database (PCCDB) project, http://pccdb.org 
 
 20 20  0  0  0  0  0  0  0  0999 V2000 
   -0.4403    1.6395    0.0962 C   0  0  0  0  0  0  0  0  0  0  0  0 
   -1.1250    0.4271    0.0628 C   0  0  0  0  0  0  0  0  0  0  0  0 
    0.9545    1.6747    0.0329 C   0  0  0  0  0  0  0  0  0  0  0  0 
    0.9833   -0.7441   -0.1104 C   0  0  0  0  0  0  0  0  0  0  0  0 
   -1.1396   -2.1035   -0.0596 C   0  0  0  0  0  0  0  0  0  0  0  0 
   -0.4102   -0.7769   -0.0390 C   0  0  0  0  0  0  0  0  0  0  0  0 
    1.6659    0.4768   -0.0700 C   0  0  0  0  0  0  0  0  0  0  0  0 
   -2.8030   -3.4362   -1.1210 N   0  0  0  0  0  0  0  0  0  0  0  0 
   -2.2711   -2.0613   -0.9965 N   0  0  0  0  0  0  0  0  0  0  0  0 
    3.0327    0.4312   -0.1410 O   0  0  0  0  0  0  0  0  0  0  0  0 
   -0.9928    2.5725    0.1723 H   0  0  0  0  0  0  0  0  0  0  0  0 
   -2.2089    0.3999    0.1014 H   0  0  0  0  0  0  0  0  0  0  0  0 
    1.4852    2.6251    0.0602 H   0  0  0  0  0  0  0  0  0  0  0  0 
    1.5603   -1.6602   -0.1985 H   0  0  0  0  0  0  0  0  0  0  0  0 
   -1.5555   -2.3128    0.9384 H   0  0  0  0  0  0  0  0  0  0  0  0 
   -0.4404   -2.9245   -0.2879 H   0  0  0  0  0  0  0  0  0  0  0  0 
   -3.6688   -3.3107   -1.6525 H   0  0  0  0  0  0  0  0  0  0  0  0 
   -3.1443   -3.6500   -0.1791 H   0  0  0  0  0  0  0  0  0  0  0  0 
   -1.8629   -1.8846   -1.9171 H   0  0  0  0  0  0  0  0  0  0  0  0 
    3.3775    1.3372   -0.1147 H   0  0  0  0  0  0  0  0  0  0  0  0 
  1 11  1  0  0  0  0 
  2  1  1  0  0  0  0 
  2 12  1  0  0  0  0 
  3 13  1  0  0  0  0 
  3  1  2  0  0  0  0 
  4  7  2  0  0  0  0 
  4  6  1  0  0  0  0 
  5  6  1  0  0  0  0 
  5 15  1  0  0  0  0 
  6  2  2  0  0  0  0 
  7  3  1  0  0  0  0 
  8  9  1  0  0  0  0 
  8 18  1  0  0  0  0 
  9  5  1  0  0  0  0 
 10 20  1  0  0  0  0 
 10  7  1  0  0  0  0 
 14  4  1  0  0  0  0 
 16  5  1  0  0  0  0 
 17  8  1  0  0  0  0 
 19  9  1  0  0  0  0 
M  END 
>  <HBA> 
3 
 
>  <HBD> 
3 
 
>  <TPSA> 
58.28 
 
>  <cid> 
1663 
 
>  <dipole> 
1.52 
 
>  <excitation_energy_1> 
4.495 
 
>  <excitation_energy_2> 
4.763 
 
>  <excitation_energy_3> 
5.012 
 
>  <excitation_energy_4> 
5.095 
 
>  <homo_energy> 
-5.358 
 
>  <homo_lumo_gap> 
5.361 
 
>  <logP> 
1.447 
 
>  <lumo_energy> 
0.003 
 
>  <melting_point> 
129.55 
 
>  <molecular_refractivity> 
38.94 
 
>  <oscillator_strength_1> 
0.0013 
 
>  <oscillator_strength_2> 
0.0121 
 
>  <oscillator_strength_3> 
0.0318 
 
>  <oscillator_strength_4> 
0.0082 
 
>  <open_babel_can_smiles> 
NNCc1cccc(c1)O 
 
>  <mulliken_charges> 
20 
1   -0.135363 
2   -0.168448 
3   -0.195695 
4   -0.223384 
5   -0.19387 
6   0.127913 
7   0.354815 
8   -0.5926 
9   -0.466431 
10   -0.644492 
11   0.129832 
12   0.139986 
13   0.11563 
14   0.135675 
15   0.148338 
16   0.141288 
17   0.305971 
18   0.303058 
19   0.31151 
20   0.406265 
 
>  <lowdin_charges> 
20 
1   -0.144876 
2   -0.180654 
3   -0.218946 
4   -0.19738 
5   -0.205031 
6   -0.0027 
7   0.105271 
8   -0.494769 
9   -0.318642 
10   -0.381093 
11   0.15824 
12   0.163347 
13   0.152172 
14   0.1658 
15   0.14518 
16   0.136076 
17   0.254759 
18   0.251855 
19   0.255754 
20   0.355636 
 
$$$$ 
 
