PCCDB-ID:  4389 
public computational chemistry database (PCCDB) project, http://pccdb.org 
 
 28 28  0  0  1  0  0  0  0  0999 V2000 
   -0.1481   -1.5704   -0.2088 C   0  0  0  0  0  0  0  0  0  0  0  0 
    1.2073   -1.2111    0.4202 C   0  0  0  0  0  0  0  0  0  0  0  0 
   -1.5172    2.6096   -0.2562 C   0  0  0  0  0  0  0  0  0  0  0  0 
   -1.6022    4.1291   -0.3709 C   0  0  0  0  0  0  0  0  0  0  0  0 
   -0.9339   -0.2538   -0.1424 C   0  0  0  0  0  0  0  0  0  0  0  0 
    1.4775    0.2045   -0.1005 C   0  0  1  0  0  0  0  0  0  0  0  0 
   -0.0817    2.1139   -0.3168 C   0  0  0  0  0  0  0  0  0  0  0  0 
   -3.0344    4.6263   -0.2334 C   0  0  0  0  0  0  0  0  0  0  0  0 
    2.2603    0.2087   -1.4388 C   0  0  0  0  0  0  0  0  0  0  0  0 
    0.1163    0.7767   -0.2608 N   0  0  0  0  0  0  0  0  0  0  0  0 
    0.8734    2.9076   -0.4079 O   0  0  0  0  0  0  0  0  0  0  0  0 
   -3.9872    3.9201   -0.0143 O   0  0  0  0  0  0  0  0  0  0  0  0 
   -3.1979    5.9694   -0.3690 O   0  0  0  0  0  0  0  0  0  0  0  0 
    2.6406   -0.8051   -1.9787 O   0  0  0  0  0  0  0  0  0  0  0  0 
    2.5016    1.4223   -1.9462 O   0  0  0  0  0  0  0  0  0  0  0  0 
   -0.6653   -2.3825    0.3092 H   0  0  0  0  0  0  0  0  0  0  0  0 
    0.0014   -1.8683   -1.2516 H   0  0  0  0  0  0  0  0  0  0  0  0 
    2.0042   -1.8954    0.1269 H   0  0  0  0  0  0  0  0  0  0  0  0 
    1.1339   -1.1941    1.5136 H   0  0  0  0  0  0  0  0  0  0  0  0 
   -2.1068    2.1402   -1.0526 H   0  0  0  0  0  0  0  0  0  0  0  0 
   -1.9860    2.2792    0.6788 H   0  0  0  0  0  0  0  0  0  0  0  0 
   -1.1895    4.4639   -1.3310 H   0  0  0  0  0  0  0  0  0  0  0  0 
   -0.9792    4.6034    0.3976 H   0  0  0  0  0  0  0  0  0  0  0  0 
   -1.4618   -0.1492    0.8152 H   0  0  0  0  0  0  0  0  0  0  0  0 
   -1.6696   -0.1571   -0.9467 H   0  0  0  0  0  0  0  0  0  0  0  0 
    2.0304    0.8270    0.6129 H   0  0  0  0  0  0  0  0  0  0  0  0 
   -2.3423    6.3966   -0.5427 H   0  0  0  0  0  0  0  0  0  0  0  0 
    2.0742    2.1151   -1.3762 H   0  0  0  0  0  0  0  0  0  0  0  0 
  1  5  1  0  0  0  0 
  1 16  1  0  0  0  0 
  1  2  1  0  0  0  0 
  2 19  1  0  0  0  0 
  3 21  1  0  0  0  0 
  4  3  1  0  0  0  0 
  4  8  1  0  0  0  0 
  4 23  1  0  0  0  0 
  5 24  1  0  0  0  0 
  6  2  1  0  0  0  0 
  6 26  1  1  0  0  0 
  7 10  1  0  0  0  0 
  7  3  1  0  0  0  0 
  8 12  2  0  0  0  0 
  9  6  1  0  0  0  0 
 10  5  1  0  0  0  0 
 10  6  1  0  0  0  0 
 11  7  2  0  0  0  0 
 13  8  1  0  0  0  0 
 14  9  2  0  0  0  0 
 15  9  1  0  0  0  0 
 15 28  1  0  0  0  0 
 17  1  1  0  0  0  0 
 18  2  1  0  0  0  0 
 20  3  1  0  0  0  0 
 22  4  1  0  0  0  0 
 25  5  1  0  0  0  0 
 27 13  1  0  0  0  0 
M  END 
>  <HBA> 
6 
 
>  <HBD> 
2 
 
>  <TPSA> 
94.91 
 
>  <cid> 
4389 
 
>  <dipole> 
2.88 
 
>  <excitation_energy_1> 
5.419 
 
>  <excitation_energy_2> 
5.737 
 
>  <excitation_energy_3> 
5.789 
 
>  <excitation_energy_4> 
5.976 
 
>  <homo_energy> 
-6.923 
 
>  <homo_lumo_gap> 
6.599 
 
>  <logP> 
-0.135 
 
>  <lumo_energy> 
-0.324 
 
>  <melting_point> 
172.37 
 
>  <molecular_refractivity> 
53.82 
 
>  <oscillator_strength_1> 
0.0091 
 
>  <oscillator_strength_2> 
0.0005 
 
>  <oscillator_strength_3> 
0.0006 
 
>  <oscillator_strength_4> 
0.03 
 
>  <open_babel_can_smiles> 
OC(=O)CCC(=O)N1CCC[C@H]1C(=O)O 
 
>  <mulliken_charges> 
28 
1   -0.309758 
2   -0.293534 
3   -0.365961 
4   -0.402909 
5   -0.123693 
6   -0.095212 
7   0.618759 
8   0.614835 
9   0.61558 
10   -0.446093 
11   -0.570606 
12   -0.442591 
13   -0.567942 
14   -0.455465 
15   -0.592336 
16   0.158898 
17   0.181916 
18   0.191181 
19   0.146985 
20   0.189746 
21   0.192492 
22   0.185847 
23   0.192448 
24   0.1618 
25   0.17081 
26   0.183231 
27   0.413808 
28   0.447764 
 
>  <lowdin_charges> 
28 
1   -0.280718 
2   -0.278127 
3   -0.296013 
4   -0.318597 
5   -0.194855 
6   -0.098052 
7   0.16965 
8   0.199315 
9   0.181227 
10   -0.094218 
11   -0.348277 
12   -0.242596 
13   -0.355442 
14   -0.254711 
15   -0.358281 
16   0.161077 
17   0.164056 
18   0.17906 
19   0.149084 
20   0.178022 
21   0.178156 
22   0.17396 
23   0.178644 
24   0.149443 
25   0.160406 
26   0.171315 
27   0.360989 
28   0.365485 
 
$$$$ 
 
