PCCDB-ID:  994 
public computational chemistry database (PCCDB) project, http://pccdb.org 
 
 23 23  0  0  1  0  0  0  0  0999 V2000 
   -2.7524   -1.2961    0.2173 C   0  0  0  0  0  0  0  0  0  0  0  0 
   -2.2879   -1.0980   -1.0829 C   0  0  0  0  0  0  0  0  0  0  0  0 
   -1.8368   -1.4727    1.2580 C   0  0  0  0  0  0  0  0  0  0  0  0 
   -0.9150   -1.0785   -1.3420 C   0  0  0  0  0  0  0  0  0  0  0  0 
   -0.4673   -1.4512    0.9970 C   0  0  0  0  0  0  0  0  0  0  0  0 
    1.5095   -1.2304   -0.5742 C   0  0  0  0  0  0  0  0  0  0  0  0 
    0.0169   -1.2548   -0.3077 C   0  0  0  0  0  0  0  0  0  0  0  0 
    2.2350   -2.5990   -0.4413 C   0  0  1  0  0  0  0  0  0  0  0  0 
    1.9029   -3.5552   -1.6091 C   0  0  0  0  0  0  0  0  0  0  0  0 
    3.6675   -2.3710   -0.2963 N   0  0  0  0  0  0  0  0  0  0  0  0 
    2.7455   -4.0015   -2.3503 O   0  0  0  0  0  0  0  0  0  0  0  0 
    0.6022   -3.9007   -1.7663 O   0  0  0  0  0  0  0  0  0  0  0  0 
   -3.8195   -1.3113    0.4204 H   0  0  0  0  0  0  0  0  0  0  0  0 
   -2.9913   -0.9570   -1.8989 H   0  0  0  0  0  0  0  0  0  0  0  0 
   -2.1897   -1.6226    2.2747 H   0  0  0  0  0  0  0  0  0  0  0  0 
   -0.5605   -0.9222   -2.3580 H   0  0  0  0  0  0  0  0  0  0  0  0 
    0.2387   -1.5761    1.8153 H   0  0  0  0  0  0  0  0  0  0  0  0 
    2.0034   -0.5678    0.1449 H   0  0  0  0  0  0  0  0  0  0  0  0 
    1.7049   -0.8167   -1.5718 H   0  0  0  0  0  0  0  0  0  0  0  0 
    1.8789   -3.0785    0.4818 H   0  0  0  0  0  0  0  0  0  0  0  0 
    4.0192   -1.9888   -1.1755 H   0  0  0  0  0  0  0  0  0  0  0  0 
    4.1315   -3.2760   -0.2204 H   0  0  0  0  0  0  0  0  0  0  0  0 
    0.0400   -3.4031   -1.1446 H   0  0  0  0  0  0  0  0  0  0  0  0 
  1 13  1  0  0  0  0 
  1  3  2  0  0  0  0 
  2  1  1  0  0  0  0 
  3 15  1  0  0  0  0 
  4  2  2  0  0  0  0 
  4  7  1  0  0  0  0 
  5  3  1  0  0  0  0 
  5 17  1  0  0  0  0 
  6  8  1  0  0  0  0 
  6  7  1  0  0  0  0 
  6 18  1  0  0  0  0 
  7  5  2  0  0  0  0 
  8 10  1  0  0  0  0 
  8 20  1  1  0  0  0 
  9  8  1  0  0  0  0 
 10 22  1  0  0  0  0 
 11  9  2  0  0  0  0 
 12  9  1  0  0  0  0 
 12 23  1  0  0  0  0 
 14  2  1  0  0  0  0 
 16  4  1  0  0  0  0 
 19  6  1  0  0  0  0 
 21 10  1  0  0  0  0 
M  END 
>  <HBA> 
3 
 
>  <HBD> 
2 
 
>  <TPSA> 
63.32 
 
>  <cid> 
994 
 
>  <dipole> 
3.75 
 
>  <excitation_energy_1> 
5.276 
 
>  <excitation_energy_2> 
5.419 
 
>  <excitation_energy_3> 
5.643 
 
>  <excitation_energy_4> 
5.746 
 
>  <homo_energy> 
-6.743 
 
>  <homo_lumo_gap> 
6.128 
 
>  <logP> 
1.341 
 
>  <lumo_energy> 
-0.615 
 
>  <melting_point> 
137.23 
 
>  <molecular_refractivity> 
45.5 
 
>  <oscillator_strength_1> 
0.0009 
 
>  <oscillator_strength_2> 
0.013 
 
>  <oscillator_strength_3> 
0.0017 
 
>  <oscillator_strength_4> 
0.0145 
 
>  <open_babel_can_smiles> 
N[C@H](C(=O)O)Cc1ccccc1 
 
>  <mulliken_charges> 
23 
1   -0.129275 
2   -0.122531 
3   -0.126785 
4   -0.187998 
5   -0.176767 
6   -0.342368 
7   0.095775 
8   -0.10823 
9   0.570663 
10   -0.691976 
11   -0.449486 
12   -0.571109 
13   0.139175 
14   0.14165 
15   0.139518 
16   0.143129 
17   0.139298 
18   0.184616 
19   0.154263 
20   0.160842 
21   0.3055 
22   0.311147 
23   0.420946 
 
>  <lowdin_charges> 
23 
1   -0.151596 
2   -0.152876 
3   -0.150003 
4   -0.169829 
5   -0.169822 
6   -0.278069 
7   -0.028311 
8   -0.114183 
9   0.174166 
10   -0.53074 
11   -0.251137 
12   -0.359347 
13   0.160784 
14   0.164574 
15   0.161567 
16   0.162486 
17   0.161913 
18   0.175051 
19   0.154419 
20   0.156444 
21   0.260199 
22   0.263776 
23   0.360536 
 
$$$$ 
 
