PCCDB-ID:  3284 
public computational chemistry database (PCCDB) project, http://pccdb.org 
 
 25 25  0  0  0  0  0  0  0  0999 V2000 
    0.9444    0.0689    0.0419 C   0  0  0  0  0  0  0  0  0  0  0  0 
    2.1511    0.0626    0.0475 C   0  0  0  0  0  0  0  0  0  0  0  0 
    4.2879   -0.4054    2.9654 C   0  0  0  0  0  0  0  0  0  0  0  0 
    3.7537   -1.5478    2.0887 C   0  0  0  0  0  0  0  0  0  0  0  0 
    3.7748    0.9568    2.4746 C   0  0  0  0  0  0  0  0  0  0  0  0 
    4.1179   -1.3320    0.6105 C   0  0  0  0  0  0  0  0  0  0  0  0 
    4.1385    1.1925    0.9989 C   0  0  0  0  0  0  0  0  0  0  0  0 
    5.2686    0.3203   -1.7131 C   0  0  0  0  0  0  0  0  0  0  0  0 
    3.6224    0.0429    0.1036 C   0  0  0  0  0  0  0  0  0  0  0  0 
    6.3006    0.1866   -0.9753 N   0  0  0  0  0  0  0  0  0  0  0  0 
    5.2162    0.5530   -3.0546 O   0  0  0  0  0  0  0  0  0  0  0  0 
    3.9998    0.2562   -1.3014 O   0  0  0  0  0  0  0  0  0  0  0  0 
   -0.1219    0.0784    0.0246 H   0  0  0  0  0  0  0  0  0  0  0  0 
    5.3870   -0.4095    2.9300 H   0  0  0  0  0  0  0  0  0  0  0  0 
    4.0054   -0.5649    4.0137 H   0  0  0  0  0  0  0  0  0  0  0  0 
    2.6625   -1.6134    2.1928 H   0  0  0  0  0  0  0  0  0  0  0  0 
    4.1615   -2.5102    2.4216 H   0  0  0  0  0  0  0  0  0  0  0  0 
    4.1975    1.7666    3.0819 H   0  0  0  0  0  0  0  0  0  0  0  0 
    2.6847    1.0053    2.5976 H   0  0  0  0  0  0  0  0  0  0  0  0 
    3.6848   -2.1158   -0.0209 H   0  0  0  0  0  0  0  0  0  0  0  0 
    5.2037   -1.3551    0.4870 H   0  0  0  0  0  0  0  0  0  0  0  0 
    5.2250    1.2333    0.8850 H   0  0  0  0  0  0  0  0  0  0  0  0 
    3.7199    2.1374    0.6354 H   0  0  0  0  0  0  0  0  0  0  0  0 
    7.1659    0.2762   -1.5077 H   0  0  0  0  0  0  0  0  0  0  0  0 
    6.1247    0.5961   -3.3906 H   0  0  0  0  0  0  0  0  0  0  0  0 
  1  2  3  0  0  0  0 
  2  9  1  0  0  0  0 
  3 15  1  0  0  0  0 
  4 16  1  0  0  0  0 
  4 17  1  0  0  0  0 
  4  3  1  0  0  0  0 
  5 19  1  0  0  0  0 
  5  3  1  0  0  0  0 
  5 18  1  0  0  0  0 
  6  4  1  0  0  0  0 
  7  5  1  0  0  0  0 
  8 12  1  0  0  0  0 
  8 10  2  0  0  0  0 
  9  6  1  0  0  0  0 
  9  7  1  0  0  0  0 
 11  8  1  0  0  0  0 
 12  9  1  0  0  0  0 
 13  1  1  0  0  0  0 
 14  3  1  0  0  0  0 
 20  6  1  0  0  0  0 
 21  6  1  0  0  0  0 
 22  7  1  0  0  0  0 
 23  7  1  0  0  0  0 
 24 10  1  0  0  0  0 
 25 11  1  0  0  0  0 
M  END 
>  <HBA> 
3 
 
>  <HBD> 
1 
 
>  <TPSA> 
52.32 
 
>  <cid> 
3284 
 
>  <dipole> 
1.38 
 
>  <excitation_energy_1> 
5.831 
 
>  <excitation_energy_2> 
6.129 
 
>  <excitation_energy_3> 
6.324 
 
>  <excitation_energy_4> 
6.543 
 
>  <homo_energy> 
-6.925 
 
>  <homo_lumo_gap> 
7.695 
 
>  <logP> 
2.118 
 
>  <lumo_energy> 
0.77 
 
>  <melting_point> 
99.42 
 
>  <molecular_refractivity> 
45.84 
 
>  <oscillator_strength_1> 
0.0022 
 
>  <oscillator_strength_2> 
0.0006 
 
>  <oscillator_strength_3> 
0.0623 
 
>  <oscillator_strength_4> 
0.0006 
 
>  <open_babel_can_smiles> 
C#CC1(CCCCC1)OC(=N)O 
 
>  <mulliken_charges> 
25 
1   -0.544502 
2   0.385927 
3   -0.257749 
4   -0.270897 
5   -0.27054 
6   -0.293471 
7   -0.294361 
8   0.665329 
9   0.214503 
10   -0.632887 
11   -0.567025 
12   -0.494848 
13   0.195394 
14   0.136595 
15   0.131012 
16   0.143201 
17   0.135349 
18   0.135257 
19   0.143241 
20   0.145026 
21   0.185023 
22   0.184552 
23   0.145227 
24   0.274998 
25   0.405646 
 
>  <lowdin_charges> 
25 
1   -0.240893 
2   -0.031954 
3   -0.274377 
4   -0.276442 
5   -0.277528 
6   -0.287019 
7   -0.286266 
8   0.199768 
9   0.153561 
10   -0.476184 
11   -0.363366 
12   -0.17127 
13   0.20536 
14   0.139343 
15   0.143218 
16   0.143973 
17   0.147464 
18   0.148572 
19   0.14402 
20   0.155037 
21   0.168632 
22   0.168427 
23   0.154071 
24   0.256192 
25   0.35766 
 
$$$$ 
 
