PCCDB-ID:  4255 
public computational chemistry database (PCCDB) project, http://pccdb.org 
 
 33 34  0  0  1  0  0  0  0  0999 V2000 
    1.0404   -1.0525   -1.6930 C   0  0  0  0  0  0  0  0  0  0  0  0 
    1.6062   -1.7646   -0.4716 C   0  0  0  0  0  0  0  0  0  0  0  0 
    8.9387    2.8593    1.1364 C   0  0  0  0  0  0  0  0  0  0  0  0 
    7.8718    3.9256    3.0571 C   0  0  0  0  0  0  0  0  0  0  0  0 
    8.7239    4.1626    0.3615 C   0  0  0  0  0  0  0  0  0  0  0  0 
    7.7233    5.1982    2.2178 C   0  0  0  0  0  0  0  0  0  0  0  0 
    4.5560    1.9524    1.6547 C   0  0  0  0  0  0  0  0  0  0  0  0 
    6.6085    1.0247    1.1407 C   0  0  0  0  0  0  0  0  0  0  0  0 
    5.2341    0.7664    0.9701 C   0  0  0  0  0  0  0  0  0  0  0  0 
    3.3668   -0.3806    0.3154 C   0  0  0  0  0  0  0  0  0  0  0  0 
    5.6244    2.8202    2.1488 N   0  0  0  0  0  0  0  0  0  0  0  0 
    4.7437   -0.2881    0.3694 N   0  0  0  0  0  0  0  0  0  0  0  0 
    7.9508    2.7051    2.2294 N   0  0  0  0  0  0  0  0  0  0  0  0 
    6.7144    2.2064    1.8161 N   0  0  1  0  0  0  0  0  0  0  0  0 
    2.5367    0.4125    0.7581 O   0  0  0  0  0  0  0  0  0  0  0  0 
    8.7558    5.2790    1.2365 O   0  0  0  0  0  0  0  0  0  0  0  0 
    3.0174   -1.5241   -0.3235 O   0  0  0  0  0  0  0  0  0  0  0  0 
   -0.0152   -1.3174   -1.8275 H   0  0  0  0  0  0  0  0  0  0  0  0 
    1.5864   -1.3410   -2.5974 H   0  0  0  0  0  0  0  0  0  0  0  0 
    1.1098    0.0318   -1.5681 H   0  0  0  0  0  0  0  0  0  0  0  0 
    1.5259   -2.8504   -0.5754 H   0  0  0  0  0  0  0  0  0  0  0  0 
    1.0889   -1.4493    0.4385 H   0  0  0  0  0  0  0  0  0  0  0  0 
    9.9202    2.8755    1.6210 H   0  0  0  0  0  0  0  0  0  0  0  0 
    8.9012    1.9913    0.4766 H   0  0  0  0  0  0  0  0  0  0  0  0 
    7.0529    3.8155    3.7682 H   0  0  0  0  0  0  0  0  0  0  0  0 
    8.8198    3.9570    3.6048 H   0  0  0  0  0  0  0  0  0  0  0  0 
    7.7669    4.1260   -0.1856 H   0  0  0  0  0  0  0  0  0  0  0  0 
    9.5292    4.3076   -0.3654 H   0  0  0  0  0  0  0  0  0  0  0  0 
    7.8304    6.0832    2.8518 H   0  0  0  0  0  0  0  0  0  0  0  0 
    6.7353    5.2226    1.7385 H   0  0  0  0  0  0  0  0  0  0  0  0 
    3.9046    1.6369    2.4785 H   0  0  0  0  0  0  0  0  0  0  0  0 
    3.9089    2.5154    0.9722 H   0  0  0  0  0  0  0  0  0  0  0  0 
    7.4641    0.4127    0.9122 H   0  0  0  0  0  0  0  0  0  0  0  0 
  1 20  1  0  0  0  0 
  1  2  1  0  0  0  0 
  2 17  1  0  0  0  0 
  2 22  1  0  0  0  0 
  3 23  1  0  0  0  0 
  3 13  1  0  0  0  0 
  4 26  1  0  0  0  0 
  4 25  1  0  0  0  0 
  5  3  1  0  0  0  0 
  5 16  1  0  0  0  0 
  6 29  1  0  0  0  0 
  6  4  1  0  0  0  0 
  7 11  1  0  0  0  0 
  7 31  1  0  0  0  0 
  8 14  1  0  0  0  0 
  9  8  1  0  0  0  0 
  9  7  1  0  0  0  0 
 10 12  1  0  0  0  0 
 10 15  2  0  0  0  0 
 12  9  2  0  0  0  0 
 13  4  1  0  0  0  0 
 14 11  1  0  0  0  0 
 14 13  1  1  0  0  0 
 16  6  1  0  0  0  0 
 17 10  1  0  0  0  0 
 18  1  1  0  0  0  0 
 19  1  1  0  0  0  0 
 21  2  1  0  0  0  0 
 24  3  1  0  0  0  0 
 27  5  1  0  0  0  0 
 28  5  1  0  0  0  0 
 30  6  1  0  0  0  0 
 32  7  1  0  0  0  0 
 33  8  1  0  0  0  0 
M  RAD  2   8   2  11   2 
M  END 
>  <HBA> 
6 
 
>  <HBD> 
0 
 
>  <TPSA> 
72.49 
 
>  <cid> 
4255 
 
>  <dipole> 
4.32 
 
>  <excitation_energy_1> 
3.425 
 
>  <excitation_energy_2> 
3.638 
 
>  <excitation_energy_3> 
4.35 
 
>  <excitation_energy_4> 
4.739 
 
>  <homo_energy> 
-5.633 
 
>  <homo_lumo_gap> 
3.834 
 
>  <logP> 
-0.291 
 
>  <lumo_energy> 
-1.799 
 
>  <melting_point> 
39.51 
 
>  <molecular_refractivity> 
70.34 
 
>  <oscillator_strength_1> 
0.0002 
 
>  <oscillator_strength_2> 
0.3994 
 
>  <oscillator_strength_3> 
0.0389 
 
>  <oscillator_strength_4> 
0.0058 
 
>  <open_babel_can_smiles> 
CCOC(=O)/N=C/1\C[N]N([CH]1)N1CCOCC1 
 
>  <mulliken_charges> 
33 
1   -0.459906 
2   -0.032648 
3   -0.17724 
4   -0.164393 
5   -0.035885 
6   -0.047085 
7   -0.202458 
8   -0.00341 
9   0.287498 
10   0.709793 
11   -0.293631 
12   -0.566464 
13   -0.282825 
14   -0.00454 
15   -0.530843 
16   -0.462006 
17   -0.46345 
18   0.140692 
19   0.153979 
20   0.171002 
21   0.144087 
22   0.160592 
23   0.179604 
24   0.174504 
25   0.195945 
26   0.170362 
27   0.143873 
28   0.16173 
29   0.158003 
30   0.162068 
31   0.216472 
32   0.215196 
33   0.181385 
 
>  <lowdin_charges> 
33 
1   -0.453629 
2   -0.125845 
3   -0.22094 
4   -0.22259 
5   -0.145126 
6   -0.146129 
7   -0.237019 
8   -0.228813 
9   0.073675 
10   0.197231 
11   -0.212147 
12   -0.233221 
13   -0.08673 
14   0.196812 
15   -0.331157 
16   -0.271384 
17   -0.187472 
18   0.15219 
19   0.154414 
20   0.160858 
21   0.145445 
22   0.153948 
23   0.165918 
24   0.168795 
25   0.181815 
26   0.162903 
27   0.138329 
28   0.161676 
29   0.159815 
30   0.147 
31   0.196794 
32   0.197319 
33   0.187267 
 
$$$$ 
 
