PCCDB-ID:  3045 
public computational chemistry database (PCCDB) project, http://pccdb.org 
 
 19 19  0  0  0  0  0  0  0  0999 V2000 
   -1.3485   -0.1073   -0.0585 C   0  0  0  0  0  0  0  0  0  0  0  0 
   -0.7813    1.1672   -0.0537 C   0  0  0  0  0  0  0  0  0  0  0  0 
    0.8648   -1.0740   -0.0978 C   0  0  0  0  0  0  0  0  0  0  0  0 
   -0.5318   -1.2467   -0.0783 C   0  0  0  0  0  0  0  0  0  0  0  0 
    0.6018    1.3351   -0.0776 C   0  0  0  0  0  0  0  0  0  0  0  0 
    1.4322    0.1939   -0.0992 C   0  0  0  0  0  0  0  0  0  0  0  0 
   -1.1616   -2.5858   -0.1266 C   0  0  0  0  0  0  0  0  0  0  0  0 
   -0.7664   -3.7108    0.3499 N   0  0  0  0  0  0  0  0  0  0  0  0 
    1.2158    2.5507   -0.0781 O   0  0  0  0  0  0  0  0  0  0  0  0 
    2.7790    0.4118   -0.1244 O   0  0  0  0  0  0  0  0  0  0  0  0 
   -2.3852   -2.6594   -0.7434 O   0  0  0  0  0  0  0  0  0  0  0  0 
    0.4302   -3.5942    1.0965 O   0  0  0  0  0  0  0  0  0  0  0  0 
   -2.4279   -0.2112   -0.0096 H   0  0  0  0  0  0  0  0  0  0  0  0 
   -1.4222    2.0465   -0.0241 H   0  0  0  0  0  0  0  0  0  0  0  0 
    1.5091   -1.9462   -0.1042 H   0  0  0  0  0  0  0  0  0  0  0  0 
    0.5358    3.2421   -0.0514 H   0  0  0  0  0  0  0  0  0  0  0  0 
    3.2287   -0.4476   -0.1096 H   0  0  0  0  0  0  0  0  0  0  0  0 
   -2.4205   -1.9547   -1.4095 H   0  0  0  0  0  0  0  0  0  0  0  0 
    0.5389   -4.5035    1.4138 H   0  0  0  0  0  0  0  0  0  0  0  0 
  1  2  1  0  0  0  0 
  1 13  1  0  0  0  0 
  2 14  1  0  0  0  0 
  3  4  1  0  0  0  0 
  4  1  2  0  0  0  0 
  5  2  2  0  0  0  0 
  6  3  2  0  0  0  0 
  6  5  1  0  0  0  0 
  7  4  1  0  0  0  0 
  7  8  2  0  0  0  0 
  8 12  1  0  0  0  0 
  9  5  1  0  0  0  0 
  9 16  1  0  0  0  0 
 10 17  1  0  0  0  0 
 10  6  1  0  0  0  0 
 11  7  1  0  0  0  0 
 12 19  1  0  0  0  0 
 15  3  1  0  0  0  0 
 18 11  1  0  0  0  0 
M  END 
>  <HBA> 
5 
 
>  <HBD> 
4 
 
>  <TPSA> 
89.79 
 
>  <cid> 
3045 
 
>  <dipole> 
2.01 
 
>  <excitation_energy_1> 
4.515 
 
>  <excitation_energy_2> 
4.758 
 
>  <excitation_energy_3> 
4.962 
 
>  <excitation_energy_4> 
5.048 
 
>  <homo_energy> 
-5.717 
 
>  <homo_lumo_gap> 
4.972 
 
>  <logP> 
0.608 
 
>  <lumo_energy> 
-0.746 
 
>  <melting_point> 
201.91 
 
>  <molecular_refractivity> 
39.41 
 
>  <oscillator_strength_1> 
0.15 
 
>  <oscillator_strength_2> 
0.1192 
 
>  <oscillator_strength_3> 
0.001 
 
>  <oscillator_strength_4> 
0.0434 
 
>  <open_babel_can_smiles> 
O/N=C(\c1ccc(c(c1)O)O)/O 
 
>  <mulliken_charges> 
19 
1   -0.20956 
2   -0.19971 
3   -0.224424 
4   0.082617 
5   0.327692 
6   0.323966 
7   0.443658 
8   -0.250515 
9   -0.623455 
10   -0.631734 
11   -0.593697 
12   -0.520067 
13   0.144549 
14   0.126555 
15   0.156313 
16   0.410873 
17   0.411946 
18   0.405301 
19   0.419692 
 
>  <lowdin_charges> 
19 
1   -0.173372 
2   -0.206906 
3   -0.190946 
4   -0.049371 
5   0.087081 
6   0.081087 
7   0.100237 
8   -0.095167 
9   -0.359265 
10   -0.366322 
11   -0.372131 
12   -0.386732 
13   0.163172 
14   0.158451 
15   0.175261 
16   0.361784 
17   0.361002 
18   0.356716 
19   0.355422 
 
$$$$ 
 
