PCCDB-ID:  499 
public computational chemistry database (PCCDB) project, http://pccdb.org 
 
 16 16  0  0  1  0  0  0  0  0999 V2000 
   -1.3376    0.3209   -0.5261 C   0  0  0  0  0  0  0  0  0  0  0  0 
   -0.2619    1.3008   -0.0150 C   0  0  0  0  0  0  0  0  0  0  0  0 
   -0.8741   -1.0366    0.0741 C   0  0  1  0  0  0  0  0  0  0  0  0 
    0.8474    0.3411    0.3787 C   0  0  0  0  0  0  0  0  0  0  0  0 
   -1.0674   -2.2269   -0.8734 C   0  0  0  0  0  0  0  0  0  0  0  0 
    0.5420   -0.8948    0.4392 N   0  0  0  0  0  0  0  0  0  0  0  0 
    2.0910    0.7637    0.6774 O   0  0  0  0  0  0  0  0  0  0  0  0 
   -2.0663   -2.3823   -1.5348 O   0  0  0  0  0  0  0  0  0  0  0  0 
   -0.0415   -3.0962   -0.8830 O   0  0  0  0  0  0  0  0  0  0  0  0 
   -1.3317    0.2655   -1.6182 H   0  0  0  0  0  0  0  0  0  0  0  0 
   -2.3496    0.5905   -0.2186 H   0  0  0  0  0  0  0  0  0  0  0  0 
   -0.5915    1.8695    0.8656 H   0  0  0  0  0  0  0  0  0  0  0  0 
    0.0667    2.0284   -0.7673 H   0  0  0  0  0  0  0  0  0  0  0  0 
   -1.4472   -1.2780    0.9819 H   0  0  0  0  0  0  0  0  0  0  0  0 
    2.1461    1.7217    0.5394 H   0  0  0  0  0  0  0  0  0  0  0  0 
    0.6634   -2.7050   -0.3194 H   0  0  0  0  0  0  0  0  0  0  0  0 
  1 11  1  0  0  0  0 
  1  2  1  0  0  0  0 
  1  3  1  0  0  0  0 
  2  4  1  0  0  0  0 
  2 12  1  0  0  0  0 
  3  6  1  0  0  0  0 
  3 14  1  1  0  0  0 
  4  6  2  0  0  0  0 
  4  7  1  0  0  0  0 
  5  3  1  0  0  0  0 
  8  5  2  0  0  0  0 
  9  5  1  0  0  0  0 
  9 16  1  0  0  0  0 
 10  1  1  0  0  0  0 
 13  2  1  0  0  0  0 
 15  7  1  0  0  0  0 
M  END 
>  <HBA> 
4 
 
>  <HBD> 
2 
 
>  <TPSA> 
66.4 
 
>  <cid> 
499 
 
>  <dipole> 
6.51 
 
>  <excitation_energy_1> 
5.552 
 
>  <excitation_energy_2> 
5.845 
 
>  <excitation_energy_3> 
6.216 
 
>  <excitation_energy_4> 
6.378 
 
>  <homo_energy> 
-6.887 
 
>  <homo_lumo_gap> 
6.833 
 
>  <logP> 
-0.322 
 
>  <lumo_energy> 
-0.054 
 
>  <melting_point> 
122.41 
 
>  <molecular_refractivity> 
32.72 
 
>  <oscillator_strength_1> 
0.0021 
 
>  <oscillator_strength_2> 
0.0014 
 
>  <oscillator_strength_3> 
0.0611 
 
>  <oscillator_strength_4> 
0.002 
 
>  <open_babel_can_smiles> 
OC(=O)[C@@H]1CCC(=N1)O 
 
>  <mulliken_charges> 
16 
1   -0.287947 
2   -0.380979 
3   -0.077962 
4   0.511679 
5   0.597124 
6   -0.473089 
7   -0.573944 
8   -0.461424 
9   -0.576461 
10   0.179078 
11   0.166164 
12   0.178428 
13   0.164719 
14   0.181592 
15   0.420489 
16   0.432532 
 
>  <lowdin_charges> 
16 
1   -0.274416 
2   -0.315652 
3   -0.102426 
4   0.12993 
5   0.179909 
6   -0.233315 
7   -0.334644 
8   -0.254966 
9   -0.349709 
10   0.164656 
11   0.163823 
12   0.167839 
13   0.162219 
14   0.167847 
15   0.365597 
16   0.363309 
 
$$$$ 
 
