PCCDB-ID:  725 
public computational chemistry database (PCCDB) project, http://pccdb.org 
 
 25 24  0  0  0  0  0  0  0  0999 V2000 
    0.9715    0.1221    0.4134 C   0  0  0  0  0  0  0  0  0  0  0  0 
    3.3159    0.5858    1.0192 C   0  0  0  0  0  0  0  0  0  0  0  0 
    2.7575   -1.4025   -0.2746 C   0  0  0  0  0  0  0  0  0  0  0  0 
    2.3313    2.2841   -1.3992 C   0  0  0  0  0  0  0  0  0  0  0  0 
    3.6393    3.0405   -1.7271 C   0  0  0  0  0  0  0  0  0  0  0  0 
    2.5526    0.7576   -1.4077 C   0  0  0  0  0  0  0  0  0  0  0  0 
    4.6992    2.5919   -0.6814 C   0  0  0  0  0  0  0  0  0  0  0  0 
    2.3911    0.0363   -0.0523 N   0  0  0  0  0  0  0  0  0  0  0  0 
    5.2844    1.4938   -0.9580 O   0  0  0  0  0  0  0  0  0  0  0  0 
    4.7382    3.2425    0.3830 O   0  0  0  0  0  0  0  0  0  0  0  0 
    0.8668   -0.4336    1.3476 H   0  0  0  0  0  0  0  0  0  0  0  0 
    0.3172   -0.3038   -0.3505 H   0  0  0  0  0  0  0  0  0  0  0  0 
    0.7167    1.1683    0.5794 H   0  0  0  0  0  0  0  0  0  0  0  0 
    3.1538   -0.0073    1.9221 H   0  0  0  0  0  0  0  0  0  0  0  0 
    3.0967    1.6376    1.1935 H   0  0  0  0  0  0  0  0  0  0  0  0 
    4.3422    0.5352    0.6416 H   0  0  0  0  0  0  0  0  0  0  0  0 
    2.6320   -1.9509    0.6611 H   0  0  0  0  0  0  0  0  0  0  0  0 
    3.7992   -1.4413   -0.5951 H   0  0  0  0  0  0  0  0  0  0  0  0 
    2.1095   -1.8243   -1.0455 H   0  0  0  0  0  0  0  0  0  0  0  0 
    1.5356    2.5279   -2.1143 H   0  0  0  0  0  0  0  0  0  0  0  0 
    1.9792    2.6357   -0.4212 H   0  0  0  0  0  0  0  0  0  0  0  0 
    3.4516    4.1167   -1.6627 H   0  0  0  0  0  0  0  0  0  0  0  0 
    3.9609    2.7912   -2.7453 H   0  0  0  0  0  0  0  0  0  0  0  0 
    3.5910    0.5630   -1.6960 H   0  0  0  0  0  0  0  0  0  0  0  0 
    1.8498    0.2394   -2.0672 H   0  0  0  0  0  0  0  0  0  0  0  0 
  1 13  1  0  0  0  0 
  1 11  1  0  0  0  0 
  2 15  1  0  0  0  0 
  2 14  1  0  0  0  0 
  3  8  1  0  0  0  0 
  3 17  1  0  0  0  0 
  4 21  1  0  0  0  0 
  5 22  1  0  0  0  0 
  5  4  1  0  0  0  0 
  5  7  1  0  0  0  0 
  6  4  1  0  0  0  0 
  6  8  1  0  0  0  0 
  7 10  1  0  0  0  0 
  8  1  1  0  0  0  0 
  8  2  1  0  0  0  0 
  9  7  2  0  0  0  0 
 12  1  1  0  0  0  0 
 16  2  1  0  0  0  0 
 18  3  1  0  0  0  0 
 19  3  1  0  0  0  0 
 20  4  1  0  0  0  0 
 23  5  1  0  0  0  0 
 24  6  1  0  0  0  0 
 25  6  1  0  0  0  0 
M  RAD  1  10   2 
M  END 
>  <HBA> 
2 
 
>  <HBD> 
0 
 
>  <TPSA> 
40.13 
 
>  <cid> 
725 
 
>  <dipole> 
12.18 
 
>  <excitation_energy_1> 
3.717 
 
>  <excitation_energy_2> 
3.836 
 
>  <excitation_energy_3> 
4.27 
 
>  <excitation_energy_4> 
4.383 
 
>  <homo_energy> 
-4.435 
 
>  <homo_lumo_gap> 
5.021 
 
>  <logP> 
-0.777 
 
>  <lumo_energy> 
0.585 
 
>  <melting_point> 
79.56 
 
>  <molecular_refractivity> 
37.97 
 
>  <oscillator_strength_1> 
0.0008 
 
>  <oscillator_strength_2> 
0.0013 
 
>  <oscillator_strength_3> 
0.0026 
 
>  <oscillator_strength_4> 
0.0015 
 
>  <open_babel_can_smiles> 
[O]C(=O)CCC[N](C)(C)C 
 
>  <mulliken_charges> 
25 
1   -0.311868 
2   -0.360088 
3   -0.318411 
4   -0.315798 
5   -0.312326 
6   -0.163301 
7   0.54767 
8   -0.36305 
9   -0.615368 
10   -0.586184 
11   0.187868 
12   0.185477 
13   0.211921 
14   0.15725 
15   0.229051 
16   0.26789 
17   0.185317 
18   0.233714 
19   0.184757 
20   0.144814 
21   0.154201 
22   0.137261 
23   0.127163 
24   0.24573 
25   0.14631 
 
>  <lowdin_charges> 
25 
1   -0.353244 
2   -0.373255 
3   -0.349947 
4   -0.286465 
5   -0.317031 
6   -0.215259 
7   0.124984 
8   0.077326 
9   -0.469186 
10   -0.414309 
11   0.172391 
12   0.17224 
13   0.183645 
14   0.157416 
15   0.19448 
16   0.217581 
17   0.171355 
18   0.195523 
19   0.171698 
20   0.149008 
21   0.14984 
22   0.148864 
23   0.139681 
24   0.202528 
25   0.150137 
 
$$$$ 
 
