PCCDB-ID:  5576 
public computational chemistry database (PCCDB) project, http://pccdb.org 
 
 19 19  0  0  0  0  0  0  0  0999 V2000 
    1.1193    0.2221   -0.1780 C   0  0  0  0  0  0  0  0  0  0  0  0 
    2.8933    0.0779    1.6447 C   0  0  0  0  0  0  0  0  0  0  0  0 
    5.2233    1.1664   -2.3091 C   0  0  0  0  0  0  0  0  0  0  0  0 
    3.4180    1.1930   -0.5570 C   0  0  0  0  0  0  0  0  0  0  0  0 
    4.0837   -0.8567   -1.3641 C   0  0  0  0  0  0  0  0  0  0  0  0 
    2.6073    0.0977    0.1442 C   0  0  0  0  0  0  0  0  0  0  0  0 
    4.2603    0.5302   -1.4251 N   0  0  0  0  0  0  0  0  0  0  0  0 
    3.3366    2.3919   -0.3851 O   0  0  0  0  0  0  0  0  0  0  0  0 
    4.6807   -1.6788   -2.0083 O   0  0  0  0  0  0  0  0  0  0  0  0 
    3.1185   -1.1313   -0.4501 O   0  0  0  0  0  0  0  0  0  0  0  0 
    0.7448    1.1840    0.1841 H   0  0  0  0  0  0  0  0  0  0  0  0 
    0.5617   -0.5853    0.3060 H   0  0  0  0  0  0  0  0  0  0  0  0 
    0.9492    0.1655   -1.2576 H   0  0  0  0  0  0  0  0  0  0  0  0 
    2.5781    1.0258    2.0905 H   0  0  0  0  0  0  0  0  0  0  0  0 
    3.9619   -0.0601    1.8360 H   0  0  0  0  0  0  0  0  0  0  0  0 
    2.3456   -0.7416    2.1196 H   0  0  0  0  0  0  0  0  0  0  0  0 
    5.1329    2.2440   -2.1638 H   0  0  0  0  0  0  0  0  0  0  0  0 
    5.0091    0.9069   -3.3491 H   0  0  0  0  0  0  0  0  0  0  0  0 
    6.2369    0.8382   -2.0637 H   0  0  0  0  0  0  0  0  0  0  0  0 
  1  6  1  0  0  0  0 
  1 11  1  0  0  0  0 
  1 12  1  0  0  0  0 
  2 15  1  0  0  0  0 
  2 14  1  0  0  0  0 
  2 16  1  0  0  0  0 
  3 17  1  0  0  0  0 
  3 19  1  0  0  0  0 
  3  7  1  0  0  0  0 
  4  8  2  0  0  0  0 
  4  6  1  0  0  0  0 
  5 10  1  0  0  0  0 
  6  2  1  0  0  0  0 
  7  5  1  0  0  0  0 
  7  4  1  0  0  0  0 
  9  5  2  0  0  0  0 
 10  6  1  0  0  0  0 
 13  1  1  0  0  0  0 
 18  3  1  0  0  0  0 
M  END 
>  <HBA> 
4 
 
>  <HBD> 
0 
 
>  <TPSA> 
46.61 
 
>  <cid> 
5576 
 
>  <dipole> 
1.73 
 
>  <excitation_energy_1> 
5.303 
 
>  <excitation_energy_2> 
6.318 
 
>  <excitation_energy_3> 
6.713 
 
>  <excitation_energy_4> 
6.819 
 
>  <homo_energy> 
-7.418 
 
>  <homo_lumo_gap> 
6.934 
 
>  <logP> 
0.311 
 
>  <lumo_energy> 
-0.484 
 
>  <melting_point> 
53.84 
 
>  <molecular_refractivity> 
37.56 
 
>  <oscillator_strength_1> 
0.0019 
 
>  <oscillator_strength_2> 
0.0 
 
>  <oscillator_strength_3> 
0.1781 
 
>  <oscillator_strength_4> 
0.0053 
 
>  <open_babel_can_smiles> 
O=C1OC(C(=O)N1C)(C)C 
 
>  <mulliken_charges> 
19 
1   -0.446155 
2   -0.445894 
3   -0.324329 
4   0.592747 
5   0.777322 
6   0.199378 
7   -0.488463 
8   -0.494292 
9   -0.474511 
10   -0.492078 
11   0.17742 
12   0.169766 
13   0.164793 
14   0.177228 
15   0.164582 
16   0.170136 
17   0.197743 
18   0.187587 
19   0.187021 
 
>  <lowdin_charges> 
19 
1   -0.438118 
2   -0.438303 
3   -0.342128 
4   0.148818 
5   0.213884 
6   0.107552 
7   -0.082186 
8   -0.26129 
9   -0.250096 
10   -0.183266 
11   0.172353 
12   0.167328 
13   0.162043 
14   0.172417 
15   0.16208 
16   0.167449 
17   0.180219 
18   0.170731 
19   0.170514 
 
$$$$ 
 
