PCCDB-ID:  6093 
public computational chemistry database (PCCDB) project, http://pccdb.org 
 
 20 21  0  0  0  0  0  0  0  0999 V2000 
   -0.5338    1.1592    0.0918 C   0  0  0  0  0  0  0  0  0  0  0  0 
   -1.0846   -0.2998    0.1324 C   0  0  0  0  0  0  0  0  0  0  0  0 
   -0.7226   -4.4536    0.2112 C   0  0  0  0  0  0  0  0  0  0  0  0 
    0.5949   -4.8187    0.1521 C   0  0  0  0  0  0  0  0  0  0  0  0 
    1.2213   -0.1728    0.0197 C   0  0  0  0  0  0  0  0  0  0  0  0 
    0.1780   -2.4452    0.1267 C   0  0  0  0  0  0  0  0  0  0  0  0 
    0.9313    1.0660    0.0063 N   0  0  0  0  0  0  0  0  0  0  0  0 
   -0.9603   -3.1152    0.1973 N   0  0  0  0  0  0  0  0  0  0  0  0 
    0.1664   -1.0823    0.1005 N   0  0  0  0  0  0  0  0  0  0  0  0 
    1.1267   -6.1368    0.1521 N   0  0  0  0  0  0  0  0  0  0  0  0 
    2.4524   -0.6998   -0.0359 O   0  0  0  0  0  0  0  0  0  0  0  0 
    0.3285   -7.0768    0.2128 O   0  0  0  0  0  0  0  0  0  0  0  0 
    2.3586   -6.2465    0.0907 O   0  0  0  0  0  0  0  0  0  0  0  0 
    1.6493   -3.4229    0.0717 S   0  0  0  0  0  0  0  0  0  0  0  0 
   -0.8142    1.7212    0.9893 H   0  0  0  0  0  0  0  0  0  0  0  0 
   -0.9196    1.7116   -0.7716 H   0  0  0  0  0  0  0  0  0  0  0  0 
   -1.7055   -0.5608   -0.7290 H   0  0  0  0  0  0  0  0  0  0  0  0 
   -1.6471   -0.5356    1.0395 H   0  0  0  0  0  0  0  0  0  0  0  0 
   -1.5454   -5.1558    0.2654 H   0  0  0  0  0  0  0  0  0  0  0  0 
    3.0770    0.0457   -0.0837 H   0  0  0  0  0  0  0  0  0  0  0  0 
  1  2  1  0  0  0  0 
  1 15  1  0  0  0  0 
  2 18  1  0  0  0  0 
  3 19  1  0  0  0  0 
  4  3  2  0  0  0  0 
  5  9  1  0  0  0  0 
  6  8  2  0  0  0  0 
  7  5  2  0  0  0  0 
  7  1  1  0  0  0  0 
  8  3  1  0  0  0  0 
  9  6  1  0  0  0  0 
  9  2  1  0  0  0  0 
 10  4  1  0  0  0  0 
 10 12  2  0  0  0  0 
 11  5  1  0  0  0  0 
 13 10  2  0  0  0  0 
 14  6  1  0  0  0  0 
 14  4  1  0  0  0  0 
 16  1  1  0  0  0  0 
 17  2  1  0  0  0  0 
 20 11  1  0  0  0  0 
M  END 
>  <HBA> 
5 
 
>  <HBD> 
1 
 
>  <TPSA> 
119.29 
 
>  <cid> 
6093 
 
>  <dipole> 
5.93 
 
>  <excitation_energy_1> 
3.444 
 
>  <excitation_energy_2> 
3.713 
 
>  <excitation_energy_3> 
4.126 
 
>  <excitation_energy_4> 
4.787 
 
>  <homo_energy> 
-6.332 
 
>  <homo_lumo_gap> 
3.853 
 
>  <logP> 
1.498 
 
>  <lumo_energy> 
-2.479 
 
>  <melting_point> 
148.01 
 
>  <molecular_refractivity> 
58.08 
 
>  <oscillator_strength_1> 
0.3608 
 
>  <oscillator_strength_2> 
0.0001 
 
>  <oscillator_strength_3> 
0.0006 
 
>  <oscillator_strength_4> 
0.0281 
 
>  <open_babel_can_smiles> 
OC1=NCCN1c1ncc(s1)N(=O)=O 
 
>  <mulliken_charges> 
20 
1   -0.17726 
2   -0.135331 
3   0.086881 
4   0.020292 
5   0.719558 
6   0.319346 
7   -0.48332 
8   -0.472083 
9   -0.532127 
10   0.377633 
11   -0.601555 
12   -0.411784 
13   -0.396367 
14   0.334612 
15   0.16927 
16   0.169304 
17   0.186948 
18   0.187965 
19   0.196936 
20   0.441083 
 
>  <lowdin_charges> 
20 
1   -0.200406 
2   -0.191943 
3   -0.076629 
4   -0.185291 
5   0.15123 
6   -0.016173 
7   -0.251846 
8   -0.196016 
9   -0.062274 
10   0.311393 
11   -0.333396 
12   -0.25913 
13   -0.256731 
14   0.333905 
15   0.158409 
16   0.159217 
17   0.168098 
18   0.168915 
19   0.192501 
20   0.386168 
 
$$$$ 
 
