PCCDB-ID:  5976 
public computational chemistry database (PCCDB) project, http://pccdb.org 
 
 12 11  0  0  0  0  0  0  0  0999 V2000 
    0.8776    0.2128   -0.1999 C   0  0  0  0  0  0  0  0  0  0  0  0 
    2.9940    0.4049   -1.3028 C   0  0  0  0  0  0  0  0  0  0  0  0 
    2.6966    1.2500    0.8713 N   0  0  0  0  0  0  0  0  0  0  0  0 
    2.3256    0.1418   -0.0324 N   0  0  0  0  0  0  0  0  0  0  0  0 
    0.5673   -0.5604   -0.9095 H   0  0  0  0  0  0  0  0  0  0  0  0 
    0.5362    1.1993   -0.5603 H   0  0  0  0  0  0  0  0  0  0  0  0 
    0.3869    0.0055    0.7588 H   0  0  0  0  0  0  0  0  0  0  0  0 
    2.7035   -0.3690   -2.0201 H   0  0  0  0  0  0  0  0  0  0  0  0 
    4.0803    0.3444   -1.1650 H   0  0  0  0  0  0  0  0  0  0  0  0 
    2.7500    1.3992   -1.7167 H   0  0  0  0  0  0  0  0  0  0  0  0 
    3.6975    1.1070    1.0362 H   0  0  0  0  0  0  0  0  0  0  0  0 
    2.2760    0.9870    1.7675 H   0  0  0  0  0  0  0  0  0  0  0  0 
  1  4  1  0  0  0  0 
  1  7  1  0  0  0  0 
  2  9  1  0  0  0  0 
  2  4  1  0  0  0  0 
  3 11  1  0  0  0  0 
  3 12  1  0  0  0  0 
  4  3  1  0  0  0  0 
  5  1  1  0  0  0  0 
  6  1  1  0  0  0  0 
  8  2  1  0  0  0  0 
 10  2  1  0  0  0  0 
M  END 
>  <HBA> 
2 
 
>  <HBD> 
1 
 
>  <TPSA> 
29.26 
 
>  <cid> 
5976 
 
>  <dipole> 
0.61 
 
>  <excitation_energy_1> 
4.707 
 
>  <excitation_energy_2> 
5.504 
 
>  <excitation_energy_3> 
5.607 
 
>  <excitation_energy_4> 
5.901 
 
>  <homo_energy> 
-5.148 
 
>  <homo_lumo_gap> 
7.203 
 
>  <logP> 
0.122 
 
>  <lumo_energy> 
2.054 
 
>  <melting_point> 
32.98 
 
>  <molecular_refractivity> 
17.33 
 
>  <oscillator_strength_1> 
0.0093 
 
>  <oscillator_strength_2> 
0.011 
 
>  <oscillator_strength_3> 
0.004 
 
>  <oscillator_strength_4> 
0.0734 
 
>  <open_babel_can_smiles> 
CN(N)C 
 
>  <mulliken_charges> 
12 
1   -0.280671 
2   -0.280104 
3   -0.582275 
4   -0.306327 
5   0.149183 
6   0.134093 
7   0.140809 
8   0.148964 
9   0.14085 
10   0.134106 
11   0.30077 
12   0.300602 
 
>  <lowdin_charges> 
12 
1   -0.362831 
2   -0.360979 
3   -0.484195 
4   -0.149398 
5   0.153263 
6   0.130349 
7   0.145026 
8   0.153108 
9   0.143024 
10   0.130193 
11   0.250516 
12   0.251925 
 
$$$$ 
 
