PCCDB-ID:  515 
public computational chemistry database (PCCDB) project, http://pccdb.org 
 
 24 23  0  0  1  0  0  0  0  0999 V2000 
    1.7883   -1.7022    0.7117 C   0  0  0  0  0  0  0  0  0  0  0  0 
    0.9055    0.1064   -1.5934 C   0  0  0  0  0  0  0  0  0  0  0  0 
    1.5580   -0.1879    0.9022 C   0  0  1  0  0  0  0  0  0  0  0  0 
   -0.5628   -0.1584   -1.3155 C   0  0  0  0  0  0  0  0  0  0  0  0 
    2.4976    0.3020    1.9980 C   0  0  0  0  0  0  0  0  0  0  0  0 
    1.5657    2.1419   -0.1467 C   0  0  0  0  0  0  0  0  0  0  0  0 
    1.7849    0.6202   -0.4199 C   0  0  2  0  0  0  0  0  0  0  0  0 
   -1.2318    0.4346   -0.4893 O   0  0  0  0  0  0  0  0  0  0  0  0 
   -1.1558   -1.1012   -2.0695 O   0  0  0  0  0  0  0  0  0  0  0  0 
    3.6008    0.7802    1.8419 O   0  0  0  0  0  0  0  0  0  0  0  0 
    1.9636    0.0957    3.2239 O   0  0  0  0  0  0  0  0  0  0  0  0 
    2.4985    2.9096   -0.1797 O   0  0  0  0  0  0  0  0  0  0  0  0 
    0.3294    2.5421    0.1695 O   0  0  0  0  0  0  0  0  0  0  0  0 
    3.0931    0.4401   -0.9055 O   0  0  0  0  0  0  0  0  0  0  0  0 
    1.7318   -2.2183    1.6744 H   0  0  0  0  0  0  0  0  0  0  0  0 
    2.7703   -1.8831    0.2666 H   0  0  0  0  0  0  0  0  0  0  0  0 
    1.0205   -2.1392    0.0643 H   0  0  0  0  0  0  0  0  0  0  0  0 
    0.9670    0.8384   -2.4101 H   0  0  0  0  0  0  0  0  0  0  0  0 
    1.3907   -0.8014   -1.9675 H   0  0  0  0  0  0  0  0  0  0  0  0 
    0.5369   -0.0303    1.2598 H   0  0  0  0  0  0  0  0  0  0  0  0 
   -0.5176   -1.5015   -2.6837 H   0  0  0  0  0  0  0  0  0  0  0  0 
    2.6330    0.3953    3.8688 H   0  0  0  0  0  0  0  0  0  0  0  0 
   -0.3278    1.8095    0.0658 H   0  0  0  0  0  0  0  0  0  0  0  0 
    3.6551    1.0421   -0.3799 H   0  0  0  0  0  0  0  0  0  0  0  0 
  1  3  1  0  0  0  0 
  1 15  1  0  0  0  0 
  2  4  1  0  0  0  0 
  2  7  1  0  0  0  0 
  3 20  1  1  0  0  0 
  3  5  1  0  0  0  0 
  4  8  2  0  0  0  0 
  5 11  1  0  0  0  0 
  6 13  1  0  0  0  0 
  7 14  1  6  0  0  0 
  7  6  1  0  0  0  0 
  7  3  1  0  0  0  0 
  9  4  1  0  0  0  0 
 10  5  2  0  0  0  0 
 11 22  1  0  0  0  0 
 12  6  2  0  0  0  0 
 14 24  1  0  0  0  0 
 16  1  1  0  0  0  0 
 17  1  1  0  0  0  0 
 18  2  1  0  0  0  0 
 19  2  1  0  0  0  0 
 21  9  1  0  0  0  0 
 23 13  1  0  0  0  0 
M  END 
>  <HBA> 
7 
 
>  <HBD> 
4 
 
>  <TPSA> 
132.13 
 
>  <cid> 
515 
 
>  <dipole> 
5.29 
 
>  <excitation_energy_1> 
5.482 
 
>  <excitation_energy_2> 
5.586 
 
>  <excitation_energy_3> 
5.649 
 
>  <excitation_energy_4> 
5.714 
 
>  <homo_energy> 
-7.342 
 
>  <homo_lumo_gap> 
6.332 
 
>  <logP> 
-1.002 
 
>  <lumo_energy> 
-1.01 
 
>  <melting_point> 
233.89 
 
>  <molecular_refractivity> 
42.28 
 
>  <oscillator_strength_1> 
0.002 
 
>  <oscillator_strength_2> 
0.0005 
 
>  <oscillator_strength_3> 
0.0006 
 
>  <oscillator_strength_4> 
0.0002 
 
>  <open_babel_can_smiles> 
OC(=O)C[C@]([C@H](C(=O)O)C)(C(=O)O)O 
 
>  <mulliken_charges> 
24 
1   -0.46889 
2   -0.455818 
3   -0.177609 
4   0.642651 
5   0.580614 
6   0.576296 
7   0.219978 
8   -0.468351 
9   -0.546812 
10   -0.460686 
11   -0.564509 
12   -0.451374 
13   -0.594615 
14   -0.652556 
15   0.175537 
16   0.187816 
17   0.143723 
18   0.221219 
19   0.185401 
20   0.178887 
21   0.426158 
22   0.415476 
23   0.453242 
24   0.434221 
 
>  <lowdin_charges> 
24 
1   -0.441285 
2   -0.32898 
3   -0.171045 
4   0.212881 
5   0.197983 
6   0.169154 
7   0.084261 
8   -0.255465 
9   -0.322815 
10   -0.257074 
11   -0.349844 
12   -0.240611 
13   -0.355672 
14   -0.439494 
15   0.167746 
16   0.169564 
17   0.150924 
18   0.196878 
19   0.176646 
20   0.172023 
21   0.371217 
22   0.366496 
23   0.363774 
24   0.362738 
 
$$$$ 
 
