PCCDB-ID:  1420 
public computational chemistry database (PCCDB) project, http://pccdb.org 
 
 42 41  0  0  0  0  0  0  0  0999 V2000 
    0.0110    8.3811    2.1566 C   0  0  0  0  0  0  0  0  0  0  0  0 
    7.2607    5.2993    3.0636 C   0  0  0  0  0  0  0  0  0  0  0  0 
    7.2267    4.8711    4.5375 C   0  0  0  0  0  0  0  0  0  0  0  0 
    6.3793    4.4514    2.1289 C   0  0  0  0  0  0  0  0  0  0  0  0 
    8.1798    5.6831    5.4246 C   0  0  0  0  0  0  0  0  0  0  0  0 
    4.8635    4.5103    2.3898 C   0  0  0  0  0  0  0  0  0  0  0  0 
    8.1547    5.2545    6.8971 C   0  0  0  0  0  0  0  0  0  0  0  0 
    4.2317    5.8931    2.1744 C   0  0  0  0  0  0  0  0  0  0  0  0 
    9.0992    6.0822    7.7783 C   0  0  0  0  0  0  0  0  0  0  0  0 
    2.7082    5.8873    2.3553 C   0  0  0  0  0  0  0  0  0  0  0  0 
    9.0854    5.6686    9.2538 C   0  0  0  0  0  0  0  0  0  0  0  0 
    2.0801    7.2585    2.1408 C   0  0  0  0  0  0  0  0  0  0  0  0 
    9.7613    4.3253    9.5154 C   0  0  0  0  0  0  0  0  0  0  0  0 
   10.4197    3.7137    8.7124 O   0  0  0  0  0  0  0  0  0  0  0  0 
    9.6045    3.8326   10.7770 O   0  0  0  0  0  0  0  0  0  0  0  0 
    0.6815    7.1546    2.3378 O   0  0  0  0  0  0  0  0  0  0  0  0 
   -1.0543    8.1961    2.3196 H   0  0  0  0  0  0  0  0  0  0  0  0 
    0.1519    8.7795    1.1380 H   0  0  0  0  0  0  0  0  0  0  0  0 
    0.3538    9.1461    2.8732 H   0  0  0  0  0  0  0  0  0  0  0  0 
    8.2979    5.2411    2.7043 H   0  0  0  0  0  0  0  0  0  0  0  0 
    6.9787    6.3589    2.9862 H   0  0  0  0  0  0  0  0  0  0  0  0 
    7.4854    3.8043    4.6102 H   0  0  0  0  0  0  0  0  0  0  0  0 
    6.2052    4.9642    4.9320 H   0  0  0  0  0  0  0  0  0  0  0  0 
    6.7049    3.4035    2.1952 H   0  0  0  0  0  0  0  0  0  0  0  0 
    6.5686    4.7614    1.0912 H   0  0  0  0  0  0  0  0  0  0  0  0 
    7.9253    6.7512    5.3494 H   0  0  0  0  0  0  0  0  0  0  0  0 
    9.2050    5.5864    5.0387 H   0  0  0  0  0  0  0  0  0  0  0  0 
    4.6440    4.1674    3.4103 H   0  0  0  0  0  0  0  0  0  0  0  0 
    4.3704    3.7907    1.7212 H   0  0  0  0  0  0  0  0  0  0  0  0 
    8.4320    4.1958    6.9718 H   0  0  0  0  0  0  0  0  0  0  0  0 
    7.1274    5.3407    7.2834 H   0  0  0  0  0  0  0  0  0  0  0  0 
    4.4804    6.2495    1.1635 H   0  0  0  0  0  0  0  0  0  0  0  0 
    4.6746    6.6188    2.8708 H   0  0  0  0  0  0  0  0  0  0  0  0 
    8.8263    7.1438    7.7126 H   0  0  0  0  0  0  0  0  0  0  0  0 
   10.1249    5.9915    7.4024 H   0  0  0  0  0  0  0  0  0  0  0  0 
    2.4502    5.5398    3.3644 H   0  0  0  0  0  0  0  0  0  0  0  0 
    2.2481    5.1791    1.6538 H   0  0  0  0  0  0  0  0  0  0  0  0 
    8.0543    5.6303    9.6357 H   0  0  0  0  0  0  0  0  0  0  0  0 
    9.6091    6.4171    9.8669 H   0  0  0  0  0  0  0  0  0  0  0  0 
    2.2958    7.6253    1.1211 H   0  0  0  0  0  0  0  0  0  0  0  0 
    2.5109    7.9942    2.8440 H   0  0  0  0  0  0  0  0  0  0  0  0 
    9.0489    4.4338   11.3004 H   0  0  0  0  0  0  0  0  0  0  0  0 
  1 17  1  0  0  0  0 
  1 16  1  0  0  0  0 
  1 19  1  0  0  0  0 
  2  3  1  0  0  0  0 
  3 22  1  0  0  0  0 
  3 23  1  0  0  0  0 
  3  5  1  0  0  0  0 
  4 24  1  0  0  0  0 
  4  6  1  0  0  0  0 
  4  2  1  0  0  0  0 
  5  7  1  0  0  0  0 
  6 28  1  0  0  0  0 
  7 30  1  0  0  0  0 
  7 31  1  0  0  0  0 
  7  9  1  0  0  0  0 
  8 10  1  0  0  0  0 
  8  6  1  0  0  0  0 
  8 33  1  0  0  0  0 
  9 11  1  0  0  0  0 
 10 36  1  0  0  0  0 
 11 13  1  0  0  0  0 
 11 38  1  0  0  0  0 
 11 39  1  0  0  0  0 
 12 16  1  0  0  0  0 
 12 10  1  0  0  0  0 
 12 41  1  0  0  0  0 
 13 15  1  0  0  0  0 
 14 13  2  0  0  0  0 
 15 42  1  0  0  0  0 
 18  1  1  0  0  0  0 
 20  2  1  0  0  0  0 
 21  2  1  0  0  0  0 
 25  4  1  0  0  0  0 
 26  5  1  0  0  0  0 
 27  5  1  0  0  0  0 
 29  6  1  0  0  0  0 
 32  8  1  0  0  0  0 
 34  9  1  0  0  0  0 
 35  9  1  0  0  0  0 
 37 10  1  0  0  0  0 
 40 12  1  0  0  0  0 
M  END 
>  <HBA> 
3 
 
>  <HBD> 
1 
 
>  <TPSA> 
46.53 
 
>  <cid> 
1420 
 
>  <dipole> 
4.24 
 
>  <excitation_energy_1> 
5.721 
 
>  <excitation_energy_2> 
6.335 
 
>  <excitation_energy_3> 
6.4 
 
>  <excitation_energy_4> 
6.497 
 
>  <homo_energy> 
-6.806 
 
>  <homo_lumo_gap> 
7.086 
 
>  <logP> 
3.618 
 
>  <lumo_energy> 
0.28 
 
>  <melting_point> 
37.0 
 
>  <molecular_refractivity> 
67.46 
 
>  <oscillator_strength_1> 
0.0005 
 
>  <oscillator_strength_2> 
0.0 
 
>  <oscillator_strength_3> 
0.0145 
 
>  <oscillator_strength_4> 
0.0252 
 
>  <open_babel_can_smiles> 
COCCCCCCCCCCCC(=O)O 
 
>  <mulliken_charges> 
42 
1   -0.189241 
2   -0.257373 
3   -0.255615 
4   -0.258688 
5   -0.25492 
6   -0.255117 
7   -0.261418 
8   -0.263605 
9   -0.248097 
10   -0.270403 
11   -0.405354 
12   -0.004286 
13   0.609046 
14   -0.438394 
15   -0.566843 
16   -0.462891 
17   0.156324 
18   0.127126 
19   0.126269 
20   0.129466 
21   0.129393 
22   0.132163 
23   0.129636 
24   0.12902 
25   0.126256 
26   0.123256 
27   0.135061 
28   0.133736 
29   0.13001 
30   0.158492 
31   0.119778 
32   0.128346 
33   0.132323 
34   0.130115 
35   0.161017 
36   0.142644 
37   0.143838 
38   0.15376 
39   0.172025 
40   0.113446 
41   0.111665 
42   0.408034 
 
>  <lowdin_charges> 
42 
1   -0.278052 
2   -0.275404 
3   -0.273939 
4   -0.273727 
5   -0.269921 
6   -0.277228 
7   -0.27628 
8   -0.277381 
9   -0.267683 
10   -0.280006 
11   -0.325684 
12   -0.12849 
13   0.199454 
14   -0.239176 
15   -0.363084 
16   -0.272711 
17   0.15212 
18   0.128996 
19   0.130245 
20   0.140564 
21   0.135753 
22   0.138523 
23   0.136636 
24   0.140022 
25   0.138652 
26   0.133523 
27   0.140498 
28   0.138893 
29   0.143422 
30   0.15139 
31   0.132347 
32   0.137179 
33   0.139789 
34   0.142028 
35   0.156767 
36   0.146558 
37   0.148864 
38   0.154535 
39   0.169181 
40   0.121496 
41   0.122638 
42   0.358694 
 
$$$$ 
 
