PCCDB-ID:  6183 
public computational chemistry database (PCCDB) project, http://pccdb.org 
 
 25 25  0  0  1  0  0  0  0  0999 V2000 
    0.8119   -0.0879    0.1050 C   0  0  0  0  0  0  0  0  0  0  0  0 
    3.5037    2.0524   -3.7023 C   0  0  0  0  0  0  0  0  0  0  0  0 
    3.9999    2.4242   -2.4525 C   0  0  0  0  0  0  0  0  0  0  0  0 
    2.6230    0.9731   -3.7972 C   0  0  0  0  0  0  0  0  0  0  0  0 
    3.6168    1.7200   -1.3095 C   0  0  0  0  0  0  0  0  0  0  0  0 
    2.2420    0.2741   -2.6516 C   0  0  0  0  0  0  0  0  0  0  0  0 
    2.8870   -1.5656   -0.1767 C   0  0  0  0  0  0  0  0  0  0  0  0 
    2.3346   -0.1256   -0.1308 C   0  0  1  0  0  0  0  0  0  0  0  0 
    2.7335    0.6353   -1.3877 C   0  0  0  0  0  0  0  0  0  0  0  0 
    3.1728   -3.6458    0.9454 N   0  0  0  0  0  0  0  0  0  0  0  0 
    2.6948   -2.2523    1.1047 N   0  0  0  0  0  0  0  0  0  0  0  0 
    0.5489   -0.5153    1.0795 H   0  0  0  0  0  0  0  0  0  0  0  0 
    0.2702   -0.6458   -0.6685 H   0  0  0  0  0  0  0  0  0  0  0  0 
    0.4450    0.9436    0.0897 H   0  0  0  0  0  0  0  0  0  0  0  0 
    3.7985    2.5991   -4.5941 H   0  0  0  0  0  0  0  0  0  0  0  0 
    4.6850    3.2637   -2.3649 H   0  0  0  0  0  0  0  0  0  0  0  0 
    2.2298    0.6746   -4.7658 H   0  0  0  0  0  0  0  0  0  0  0  0 
    4.0096    2.0161   -0.3391 H   0  0  0  0  0  0  0  0  0  0  0  0 
    1.5549   -0.5631   -2.7452 H   0  0  0  0  0  0  0  0  0  0  0  0 
    3.9683   -1.5149   -0.3644 H   0  0  0  0  0  0  0  0  0  0  0  0 
    2.4448   -2.1246   -1.0200 H   0  0  0  0  0  0  0  0  0  0  0  0 
    2.8157    0.3655    0.7244 H   0  0  0  0  0  0  0  0  0  0  0  0 
    3.1704   -4.0089    1.9026 H   0  0  0  0  0  0  0  0  0  0  0  0 
    4.1720   -3.5374    0.7483 H   0  0  0  0  0  0  0  0  0  0  0  0 
    1.6873   -2.3793    1.2132 H   0  0  0  0  0  0  0  0  0  0  0  0 
  1 12  1  0  0  0  0 
  2  3  1  0  0  0  0 
  3 16  1  0  0  0  0 
  3  5  2  0  0  0  0 
  4  2  2  0  0  0  0 
  4  6  1  0  0  0  0 
  5 18  1  0  0  0  0 
  6  9  2  0  0  0  0 
  7  8  1  0  0  0  0 
  7 11  1  0  0  0  0 
  8  1  1  0  0  0  0 
  8 22  1  1  0  0  0 
  9  5  1  0  0  0  0 
  9  8  1  0  0  0  0 
 10 11  1  0  0  0  0 
 10 23  1  0  0  0  0 
 11 25  1  0  0  0  0 
 13  1  1  0  0  0  0 
 14  1  1  0  0  0  0 
 15  2  1  0  0  0  0 
 17  4  1  0  0  0  0 
 19  6  1  0  0  0  0 
 20  7  1  0  0  0  0 
 21  7  1  0  0  0  0 
 24 10  1  0  0  0  0 
M  END 
>  <HBA> 
2 
 
>  <HBD> 
2 
 
>  <TPSA> 
38.05 
 
>  <cid> 
6183 
 
>  <dipole> 
0.41 
 
>  <excitation_energy_1> 
4.745 
 
>  <excitation_energy_2> 
4.803 
 
>  <excitation_energy_3> 
4.898 
 
>  <excitation_energy_4> 
5.321 
 
>  <homo_energy> 
-5.317 
 
>  <homo_lumo_gap> 
5.382 
 
>  <logP> 
2.345 
 
>  <lumo_energy> 
0.065 
 
>  <melting_point> 
87.25 
 
>  <molecular_refractivity> 
46.53 
 
>  <oscillator_strength_1> 
0.0014 
 
>  <oscillator_strength_2> 
0.0061 
 
>  <oscillator_strength_3> 
0.0032 
 
>  <oscillator_strength_4> 
0.0027 
 
>  <open_babel_can_smiles> 
NNC[C@@H](c1ccccc1)C 
 
>  <mulliken_charges> 
25 
1   -0.460272 
2   -0.131004 
3   -0.126145 
4   -0.129934 
5   -0.195065 
6   -0.183625 
7   -0.115117 
8   -0.172329 
9   0.176731 
10   -0.594502 
11   -0.478697 
12   0.145712 
13   0.145734 
14   0.156426 
15   0.127393 
16   0.127711 
17   0.128069 
18   0.1249 
19   0.126354 
20   0.138057 
21   0.129433 
22   0.141557 
23   0.30411 
24   0.302482 
25   0.312022 
 
>  <lowdin_charges> 
25 
1   -0.44782 
2   -0.162219 
3   -0.155033 
4   -0.155138 
5   -0.169438 
6   -0.166458 
7   -0.209486 
8   -0.125654 
9   -0.000194 
10   -0.493075 
11   -0.321326 
12   0.148947 
13   0.149457 
14   0.156685 
15   0.157294 
16   0.156892 
17   0.156517 
18   0.154436 
19   0.154821 
20   0.139964 
21   0.128323 
22   0.150383 
23   0.25249 
24   0.249796 
25   0.249836 
 
$$$$ 
 
