PCCDB-ID:  6088 
public computational chemistry database (PCCDB) project, http://pccdb.org 
 
 27 28  0  0  0  0  0  0  0  0999 V2000 
    6.2465   -0.7125    1.3863 C   0  0  0  0  0  0  0  0  0  0  0  0 
    6.5244    0.0233   -5.5591 C   0  0  0  0  0  0  0  0  0  0  0  0 
    6.8789    1.1317   -6.3558 C   0  0  0  0  0  0  0  0  0  0  0  0 
    5.9506    0.1953   -4.3058 C   0  0  0  0  0  0  0  0  0  0  0  0 
    6.6635    2.4326   -5.9157 C   0  0  0  0  0  0  0  0  0  0  0  0 
    4.6494    1.2568   -1.4340 C   0  0  0  0  0  0  0  0  0  0  0  0 
    5.7723    0.6728   -0.5598 C   0  0  0  0  0  0  0  0  0  0  0  0 
    5.1942    3.4014   -2.7464 C   0  0  0  0  0  0  0  0  0  0  0  0 
    5.1544    2.0361   -2.6145 C   0  0  0  0  0  0  0  0  0  0  0  0 
    5.7227    1.4986   -3.8291 C   0  0  0  0  0  0  0  0  0  0  0  0 
    6.0865    2.6003   -4.6524 C   0  0  0  0  0  0  0  0  0  0  0  0 
    5.2227   -0.1495    0.5140 N   0  0  0  0  0  0  0  0  0  0  0  0 
    5.7537    3.7485   -3.9637 N   0  0  0  0  0  0  0  0  0  0  0  0 
    5.7694   -1.2690    2.2001 H   0  0  0  0  0  0  0  0  0  0  0  0 
    6.9304    0.0346    1.8326 H   0  0  0  0  0  0  0  0  0  0  0  0 
    6.8604   -1.4195    0.8153 H   0  0  0  0  0  0  0  0  0  0  0  0 
    6.7037   -0.9802   -5.9354 H   0  0  0  0  0  0  0  0  0  0  0  0 
    7.3255    0.9665   -7.3325 H   0  0  0  0  0  0  0  0  0  0  0  0 
    5.6776   -0.6672   -3.7030 H   0  0  0  0  0  0  0  0  0  0  0  0 
    6.9331    3.2868   -6.5319 H   0  0  0  0  0  0  0  0  0  0  0  0 
    4.0141    1.9042   -0.8128 H   0  0  0  0  0  0  0  0  0  0  0  0 
    4.0120    0.4268   -1.7651 H   0  0  0  0  0  0  0  0  0  0  0  0 
    6.4138    1.4983   -0.1927 H   0  0  0  0  0  0  0  0  0  0  0  0 
    6.4189    0.0340   -1.1756 H   0  0  0  0  0  0  0  0  0  0  0  0 
    4.8612    4.1680   -2.0593 H   0  0  0  0  0  0  0  0  0  0  0  0 
    4.5882    0.4206    1.0722 H   0  0  0  0  0  0  0  0  0  0  0  0 
    5.8768    4.6898   -4.3014 H   0  0  0  0  0  0  0  0  0  0  0  0 
  1 15  1  0  0  0  0 
  1 14  1  0  0  0  0 
  2  4  2  0  0  0  0 
  3  5  2  0  0  0  0 
  3  2  1  0  0  0  0 
  4 10  1  0  0  0  0 
  4 19  1  0  0  0  0 
  5 11  1  0  0  0  0 
  6 21  1  0  0  0  0 
  6  7  1  0  0  0  0 
  7 23  1  0  0  0  0 
  7 12  1  0  0  0  0 
  8  9  2  0  0  0  0 
  8 25  1  0  0  0  0 
  9  6  1  0  0  0  0 
 10  9  1  0  0  0  0 
 11 13  1  0  0  0  0 
 11 10  2  0  0  0  0 
 12 26  1  0  0  0  0 
 12  1  1  0  0  0  0 
 13  8  1  0  0  0  0 
 16  1  1  0  0  0  0 
 17  2  1  0  0  0  0 
 18  3  1  0  0  0  0 
 20  5  1  0  0  0  0 
 22  6  1  0  0  0  0 
 24  7  1  0  0  0  0 
 27 13  1  0  0  0  0 
M  END 
>  <HBA> 
1 
 
>  <HBD> 
2 
 
>  <TPSA> 
27.82 
 
>  <cid> 
6088 
 
>  <dipole> 
2.87 
 
>  <excitation_energy_1> 
4.557 
 
>  <excitation_energy_2> 
4.699 
 
>  <excitation_energy_3> 
4.823 
 
>  <excitation_energy_4> 
5.092 
 
>  <homo_energy> 
-5.287 
 
>  <homo_lumo_gap> 
5.23 
 
>  <logP> 
2.321 
 
>  <lumo_energy> 
-0.057 
 
>  <melting_point> 
125.61 
 
>  <molecular_refractivity> 
55.68 
 
>  <oscillator_strength_1> 
0.0689 
 
>  <oscillator_strength_2> 
0.0013 
 
>  <oscillator_strength_3> 
0.0252 
 
>  <oscillator_strength_4> 
0.0012 
 
>  <open_babel_can_smiles> 
CNCCc1c[nH]c2c1cccc2 
 
>  <mulliken_charges> 
27 
1   -0.298052 
2   -0.140661 
3   -0.151426 
4   -0.211449 
5   -0.163429 
6   -0.35301 
7   -0.110486 
8   -0.006326 
9   0.076231 
10   0.077959 
11   0.312926 
12   -0.539382 
13   -0.691083 
14   0.145868 
15   0.117695 
16   0.151427 
17   0.119171 
18   0.120996 
19   0.128806 
20   0.118573 
21   0.127575 
22   0.156397 
23   0.108799 
24   0.145926 
25   0.14309 
26   0.289035 
27   0.32483 
 
>  <lowdin_charges> 
27 
1   -0.363848 
2   -0.176673 
3   -0.163785 
4   -0.165376 
5   -0.189893 
6   -0.273882 
7   -0.203955 
8   -0.141152 
9   -0.059427 
10   -0.034194 
11   0.031114 
12   -0.366086 
13   -0.200851 
14   0.150272 
15   0.120844 
16   0.149543 
17   0.153427 
18   0.154173 
19   0.158255 
20   0.154854 
21   0.1444 
22   0.157115 
23   0.116339 
24   0.145877 
25   0.163162 
26   0.250452 
27   0.289295 
 
$$$$ 
 
