PCCDB-ID:  48 
public computational chemistry database (PCCDB) project, http://pccdb.org 
 
 17 16  0  0  0  0  0  0  0  0999 V2000 
    1.2355   -0.3481   -0.0578 C   0  0  0  0  0  0  0  0  0  0  0  0 
    0.7633   -1.5391   -0.9145 C   0  0  0  0  0  0  0  0  0  0  0  0 
    2.7225   -0.0917   -0.0874 C   0  0  0  0  0  0  0  0  0  0  0  0 
    0.6627   -1.2517   -2.4110 C   0  0  0  0  0  0  0  0  0  0  0  0 
    3.2295    0.9268    0.9579 C   0  0  0  0  0  0  0  0  0  0  0  0 
   -0.4070   -1.1664   -3.0940 N   0  0  0  0  0  0  0  0  0  0  0  0 
    3.5089   -0.6263   -0.8450 O   0  0  0  0  0  0  0  0  0  0  0  0 
    1.8413   -1.0688   -3.0516 O   0  0  0  0  0  0  0  0  0  0  0  0 
    4.5394    1.1706    0.8286 O   0  0  0  0  0  0  0  0  0  0  0  0 
    2.5045    1.4333    1.7847 O   0  0  0  0  0  0  0  0  0  0  0  0 
    0.9550   -0.4901    0.9933 H   0  0  0  0  0  0  0  0  0  0  0  0 
    0.7279    0.5819   -0.3532 H   0  0  0  0  0  0  0  0  0  0  0  0 
   -0.2241   -1.8436   -0.5564 H   0  0  0  0  0  0  0  0  0  0  0  0 
    1.4372   -2.3908   -0.7516 H   0  0  0  0  0  0  0  0  0  0  0  0 
   -1.2177   -1.3290   -2.4956 H   0  0  0  0  0  0  0  0  0  0  0  0 
    2.5766   -1.1394   -2.4132 H   0  0  0  0  0  0  0  0  0  0  0  0 
    4.7752    1.8191    1.5196 H   0  0  0  0  0  0  0  0  0  0  0  0 
  1 11  1  0  0  0  0 
  2 14  1  0  0  0  0 
  2 13  1  0  0  0  0 
  2  1  1  0  0  0  0 
  3  1  1  0  0  0  0 
  3  5  1  0  0  0  0 
  4  2  1  0  0  0  0 
  5 10  2  0  0  0  0 
  6 15  1  0  0  0  0 
  6  4  2  0  0  0  0 
  7  3  2  0  0  0  0 
  8 16  1  0  0  0  0 
  8  4  1  0  0  0  0 
  9  5  1  0  0  0  0 
  9 17  1  0  0  0  0 
 12  1  1  0  0  0  0 
M  END 
>  <HBA> 
5 
 
>  <HBD> 
2 
 
>  <TPSA> 
97.46 
 
>  <cid> 
48 
 
>  <dipole> 
5.49 
 
>  <excitation_energy_1> 
3.334 
 
>  <excitation_energy_2> 
3.441 
 
>  <excitation_energy_3> 
3.48 
 
>  <excitation_energy_4> 
4.983 
 
>  <homo_energy> 
-6.977 
 
>  <homo_lumo_gap> 
4.063 
 
>  <logP> 
-0.394 
 
>  <lumo_energy> 
-2.914 
 
>  <melting_point> 
148.29 
 
>  <molecular_refractivity> 
31.03 
 
>  <oscillator_strength_1> 
0.0001 
 
>  <oscillator_strength_2> 
0.0005 
 
>  <oscillator_strength_3> 
0.0014 
 
>  <oscillator_strength_4> 
0.0001 
 
>  <open_babel_can_smiles> 
OC(=N)CCC(=O)C(=O)O 
 
>  <mulliken_charges> 
17 
1   -0.359353 
2   -0.372073 
3   0.411686 
4   0.474422 
5   0.538246 
6   -0.580608 
7   -0.430989 
8   -0.593246 
9   -0.532785 
10   -0.435872 
11   0.201293 
12   0.208621 
13   0.161327 
14   0.173683 
15   0.276518 
16   0.434149 
17   0.424981 
 
>  <lowdin_charges> 
17 
1   -0.302154 
2   -0.309716 
3   0.152646 
4   0.122511 
5   0.16361 
6   -0.404181 
7   -0.190365 
8   -0.374343 
9   -0.313317 
10   -0.23423 
11   0.186701 
12   0.190714 
13   0.164928 
14   0.166306 
15   0.25268 
16   0.354069 
17   0.374141 
 
$$$$ 
 
