PCCDB-ID:  6275 
public computational chemistry database (PCCDB) project, http://pccdb.org 
 
 11 11  0  0  0  0  0  0  0  0999 V2000 
   -0.6316    1.0859    0.0011 C   0  0  0  0  0  0  0  0  0  0  0  0 
   -0.6130   -1.1534    0.0017 C   0  0  0  0  0  0  0  0  0  0  0  0 
    1.3052   -0.0382   -0.0022 C   0  0  0  0  0  0  0  0  0  0  0  0 
   -1.3564   -0.0323    0.0033 N   0  0  0  0  0  0  0  0  0  0  0  0 
    0.6988    1.1626   -0.0020 N   0  0  0  0  0  0  0  0  0  0  0  0 
    0.7147   -1.2298   -0.0009 N   0  0  0  0  0  0  0  0  0  0  0  0 
   -1.2673   -2.3163    0.0032 O   0  0  0  0  0  0  0  0  0  0  0  0 
    2.6396   -0.0450   -0.0037 O   0  0  0  0  0  0  0  0  0  0  0  0 
   -1.1785    2.0267    0.0023 H   0  0  0  0  0  0  0  0  0  0  0  0 
   -2.2166   -2.0965    0.0055 H   0  0  0  0  0  0  0  0  0  0  0  0 
    2.9181    0.8888   -0.0050 H   0  0  0  0  0  0  0  0  0  0  0  0 
  1  9  1  0  0  0  0 
  1  4  2  0  0  0  0 
  2  7  1  0  0  0  0 
  2  4  2  0  0  0  0 
  3  5  2  0  0  0  0 
  3  6  1  0  0  0  0 
  5  1  1  0  0  0  0 
  6  2  1  0  0  0  0 
  7 10  1  0  0  0  0 
  8  3  1  0  0  0  0 
 11  8  1  0  0  0  0 
M  RAD  1   6   2 
M  END 
>  <HBA> 
3 
 
>  <HBD> 
2 
 
>  <TPSA> 
78.61 
 
>  <cid> 
6275 
 
>  <dipole> 
2.34 
 
>  <excitation_energy_1> 
5.085 
 
>  <excitation_energy_2> 
5.333 
 
>  <excitation_energy_3> 
5.562 
 
>  <excitation_energy_4> 
5.754 
 
>  <homo_energy> 
-7.666 
 
>  <homo_lumo_gap> 
6.468 
 
>  <logP> 
-1.542 
 
>  <lumo_energy> 
-1.197 
 
>  <melting_point> 
183.25 
 
>  <molecular_refractivity> 
25.48 
 
>  <oscillator_strength_1> 
0.0067 
 
>  <oscillator_strength_2> 
0.0 
 
>  <oscillator_strength_3> 
0.0 
 
>  <oscillator_strength_4> 
0.0315 
 
>  <open_babel_can_smiles> 
OC1=NC=[N]=C([N]1)O 
 
>  <mulliken_charges> 
11 
1   0.200152 
2   0.641683 
3   0.641542 
4   -0.463799 
5   -0.463807 
6   -0.442256 
7   -0.567883 
8   -0.567831 
9   0.17083 
10   0.425694 
11   0.425675 
 
>  <lowdin_charges> 
11 
1   0.000364 
2   0.175542 
3   0.1775 
4   -0.229182 
5   -0.229244 
6   -0.178399 
7   -0.31145 
8   -0.313795 
9   0.169254 
10   0.3698 
11   0.369611 
 
$$$$ 
 
