PCCDB-ID:  4727 
public computational chemistry database (PCCDB) project, http://pccdb.org 
 
 20 19  0  0  1  0  0  0  0  0999 V2000 
    0.7798    0.0537    0.1227 C   0  0  0  0  0  0  0  0  0  0  0  0 
    2.6004   -0.3526   -1.5815 C   0  0  0  0  0  0  0  0  0  0  0  0 
    3.0448    1.1181    0.4729 C   0  0  2  0  0  0  0  0  0  0  0  0 
    4.5872    0.9944    0.4062 C   0  0  0  0  0  0  0  0  0  0  0  0 
    2.2885   -0.1377   -0.0966 C   0  0  0  0  0  0  0  0  0  0  0  0 
    2.6022    2.3173   -0.2382 N   0  0  0  0  0  0  0  0  0  0  0  0 
    5.2475    1.6103   -0.3994 O   0  0  0  0  0  0  0  0  0  0  0  0 
    5.1800    0.1840    1.3052 O   0  0  0  0  0  0  0  0  0  0  0  0 
    2.7230   -1.6822    0.8868 S   0  0  0  0  0  0  0  0  0  0  0  0 
    0.4690    0.9889   -0.3495 H   0  0  0  0  0  0  0  0  0  0  0  0 
    0.5330    0.1109    1.1899 H   0  0  0  0  0  0  0  0  0  0  0  0 
    0.2201   -0.7798   -0.3120 H   0  0  0  0  0  0  0  0  0  0  0  0 
    2.2759    0.5275   -2.1470 H   0  0  0  0  0  0  0  0  0  0  0  0 
    2.0640   -1.2248   -1.9663 H   0  0  0  0  0  0  0  0  0  0  0  0 
    3.6718   -0.4946   -1.7621 H   0  0  0  0  0  0  0  0  0  0  0  0 
    2.7584    1.2023    1.5286 H   0  0  0  0  0  0  0  0  0  0  0  0 
    3.3063    2.5291   -0.9463 H   0  0  0  0  0  0  0  0  0  0  0  0 
    2.6075    3.1111    0.3985 H   0  0  0  0  0  0  0  0  0  0  0  0 
    4.4924   -0.3343    1.7735 H   0  0  0  0  0  0  0  0  0  0  0  0 
    3.7869   -2.0780    0.1554 H   0  0  0  0  0  0  0  0  0  0  0  0 
  1 11  1  0  0  0  0 
  2  5  1  0  0  0  0 
  3 16  1  1  0  0  0 
  4  3  1  0  0  0  0 
  4  8  1  0  0  0  0 
  5  1  1  0  0  0  0 
  5  3  1  0  0  0  0 
  5  9  1  0  0  0  0 
  6 18  1  0  0  0  0 
  6  3  1  0  0  0  0 
  7  4  2  0  0  0  0 
  8 19  1  0  0  0  0 
 10  1  1  0  0  0  0 
 12  1  1  0  0  0  0 
 13  2  1  0  0  0  0 
 14  2  1  0  0  0  0 
 15  2  1  0  0  0  0 
 17  6  1  0  0  0  0 
 20  9  1  0  0  0  0 
M  END 
>  <HBA> 
4 
 
>  <HBD> 
3 
 
>  <TPSA> 
102.12 
 
>  <cid> 
4727 
 
>  <dipole> 
2.29 
 
>  <excitation_energy_1> 
5.436 
 
>  <excitation_energy_2> 
5.599 
 
>  <excitation_energy_3> 
5.744 
 
>  <excitation_energy_4> 
5.969 
 
>  <homo_energy> 
-6.789 
 
>  <homo_lumo_gap> 
6.724 
 
>  <logP> 
0.807 
 
>  <lumo_energy> 
-0.065 
 
>  <melting_point> 
136.79 
 
>  <molecular_refractivity> 
38.6 
 
>  <oscillator_strength_1> 
0.0043 
 
>  <oscillator_strength_2> 
0.0048 
 
>  <oscillator_strength_3> 
0.0024 
 
>  <oscillator_strength_4> 
0.003 
 
>  <open_babel_can_smiles> 
N[C@@H](C(S)(C)C)C(=O)O 
 
>  <mulliken_charges> 
20 
1   -0.448073 
2   -0.466879 
3   -0.088859 
4   0.583147 
5   -0.057648 
6   -0.713475 
7   -0.455723 
8   -0.568398 
9   -0.132167 
10   0.193207 
11   0.147917 
12   0.162744 
13   0.180349 
14   0.165996 
15   0.163281 
16   0.151422 
17   0.328555 
18   0.311393 
19   0.422799 
20   0.12041 
 
>  <lowdin_charges> 
20 
1   -0.447411 
2   -0.450443 
3   -0.117227 
4   0.17598 
5   -0.067475 
6   -0.539847 
7   -0.253047 
8   -0.352269 
9   -0.09548 
10   0.175137 
11   0.151737 
12   0.162004 
13   0.170052 
14   0.16365 
15   0.156773 
16   0.153955 
17   0.271279 
18   0.266404 
19   0.350656 
20   0.125571 
 
$$$$ 
 
