PCCDB-ID:  1639 
public computational chemistry database (PCCDB) project, http://pccdb.org 
 
 10 10  0  0  0  0  0  0  0  0999 V2000 
   -1.0861    0.0153   -0.1193 C   0  0  0  0  0  0  0  0  0  0  0  0 
    0.9386   -0.6873    0.0899 C   0  0  0  0  0  0  0  0  0  0  0  0 
    1.9968   -1.3930    0.0896 N   0  0  0  0  0  0  0  0  0  0  0  0 
   -0.4196   -1.0827   -0.0160 N   0  0  0  0  0  0  0  0  0  0  0  0 
   -0.3305    1.1727   -0.1663 N   0  0  0  0  0  0  0  0  0  0  0  0 
    0.9769    0.7367    0.1944 N   0  0  0  0  0  0  0  0  0  0  0  0 
   -2.1675    0.0797   -0.1928 H   0  0  0  0  0  0  0  0  0  0  0  0 
    1.7385   -2.3768    0.0026 H   0  0  0  0  0  0  0  0  0  0  0  0 
   -0.6553    1.9529    0.4017 H   0  0  0  0  0  0  0  0  0  0  0  0 
    1.6902    1.1636   -0.3898 H   0  0  0  0  0  0  0  0  0  0  0  0 
  1  4  1  0  0  0  0 
  2  6  1  0  0  0  0 
  3  2  1  0  0  0  0 
  4  2  2  0  0  0  0 
  5  1  1  0  0  0  0 
  5  6  1  0  0  0  0 
  5  9  1  0  0  0  0 
  7  1  1  0  0  0  0 
  8  3  1  0  0  0  0 
 10  6  1  0  0  0  0 
M  RAD  2   1   2   3   2 
M  END 
>  <HBA> 
3 
 
>  <HBD> 
2 
 
>  <TPSA> 
67.59 
 
>  <cid> 
1639 
 
>  <dipole> 
4.33 
 
>  <excitation_energy_1> 
4.732 
 
>  <excitation_energy_2> 
5.183 
 
>  <excitation_energy_3> 
5.353 
 
>  <excitation_energy_4> 
5.78 
 
>  <homo_energy> 
-5.976 
 
>  <homo_lumo_gap> 
5.284 
 
>  <logP> 
-0.032 
 
>  <lumo_energy> 
-0.691 
 
>  <melting_point> 
130.76 
 
>  <molecular_refractivity> 
20.79 
 
>  <oscillator_strength_1> 
0.1063 
 
>  <oscillator_strength_2> 
0.0026 
 
>  <oscillator_strength_3> 
0.007 
 
>  <oscillator_strength_4> 
0.0038 
 
>  <open_babel_can_smiles> 
[NH]C1=N[CH]NN1 
 
>  <mulliken_charges> 
10 
1   0.238201 
2   0.560171 
3   -0.65628 
4   -0.440682 
5   -0.423196 
6   -0.456831 
7   0.177562 
8   0.29744 
9   0.350086 
10   0.35353 
 
>  <lowdin_charges> 
10 
1   -0.026877 
2   0.100205 
3   -0.428482 
4   -0.201641 
5   -0.219863 
6   -0.249267 
7   0.173919 
8   0.266341 
9   0.29173 
10   0.293935 
 
$$$$ 
 
