PCCDB-ID:  204 
public computational chemistry database (PCCDB) project, http://pccdb.org 
 
 17 17  0  0  1  0  0  0  0  0999 V2000 
    0.0666    0.7848   -0.0717 C   0  0  1  0  0  0  0  0  0  0  0  0 
    0.8853   -0.3838    0.5146 C   0  0  0  0  0  0  0  0  0  0  0  0 
    1.6368    2.2754   -1.3267 C   0  0  0  0  0  0  0  0  0  0  0  0 
   -1.0561   -1.0486    0.0916 C   0  0  0  0  0  0  0  0  0  0  0  0 
    2.0292    3.0707   -2.2402 N   0  0  0  0  0  0  0  0  0  0  0  0 
    0.6343    1.3415   -1.3017 N   0  0  0  0  0  0  0  0  0  0  0  0 
   -1.2122    0.1627   -0.3473 N   0  0  0  0  0  0  0  0  0  0  0  0 
    0.1753   -1.4571    0.6294 N   0  0  0  0  0  0  0  0  0  0  0  0 
    2.1482   -0.2945    0.8871 O   0  0  0  0  0  0  0  0  0  0  0  0 
    2.3307    2.2673   -0.1347 O   0  0  0  0  0  0  0  0  0  0  0  0 
   -2.0173   -1.9701    0.0659 O   0  0  0  0  0  0  0  0  0  0  0  0 
   -0.0392    1.5713    0.6915 H   0  0  0  0  0  0  0  0  0  0  0  0 
    1.4425    3.0351   -3.0725 H   0  0  0  0  0  0  0  0  0  0  0  0 
   -0.0137    1.3401   -2.0772 H   0  0  0  0  0  0  0  0  0  0  0  0 
    2.4750    0.6012    0.6473 H   0  0  0  0  0  0  0  0  0  0  0  0 
    3.0252    2.9425   -0.2445 H   0  0  0  0  0  0  0  0  0  0  0  0 
   -2.8012   -1.5419   -0.3225 H   0  0  0  0  0  0  0  0  0  0  0  0 
  1  2  1  0  0  0  0 
  1 12  1  1  0  0  0 
  2  8  2  0  0  0  0 
  2  9  1  0  0  0  0 
  3  6  1  0  0  0  0 
  3 10  1  0  0  0  0 
  4  8  2  0  0  0  0 
  5  3  2  0  0  0  0 
  6  1  1  0  0  0  0 
  7  1  1  0  0  0  0 
  7  4  2  0  0  0  0 
 11  4  1  0  0  0  0 
 13  5  1  0  0  0  0 
 14  6  1  0  0  0  0 
 15  9  1  0  0  0  0 
 16 10  1  0  0  0  0 
 17 11  1  0  0  0  0 
M  END 
>  <HBA> 
7 
 
>  <HBD> 
4 
 
>  <TPSA> 
113.32 
 
>  <cid> 
204 
 
>  <dipole> 
3.13 
 
>  <excitation_energy_1> 
4.774 
 
>  <excitation_energy_2> 
5.266 
 
>  <excitation_energy_3> 
5.458 
 
>  <excitation_energy_4> 
5.774 
 
>  <homo_energy> 
-6.7 
 
>  <homo_lumo_gap> 
5.785 
 
>  <logP> 
-0.431 
 
>  <lumo_energy> 
-0.914 
 
>  <melting_point> 
217.97 
 
>  <molecular_refractivity> 
39.55 
 
>  <oscillator_strength_1> 
0.0046 
 
>  <oscillator_strength_2> 
0.0236 
 
>  <oscillator_strength_3> 
0.016 
 
>  <oscillator_strength_4> 
0.0027 
 
>  <open_babel_can_smiles> 
OC(=N)N[C@H]1N=[C](=[N]=C1O)O 
 
>  <mulliken_charges> 
17 
1   0.068461 
2   0.541847 
3   0.677775 
4   0.635694 
5   -0.652333 
6   -0.613864 
7   -0.522778 
8   -0.470454 
9   -0.586701 
10   -0.636267 
11   -0.580878 
12   0.188525 
13   0.289261 
14   0.348378 
15   0.452892 
16   0.437978 
17   0.422465 
 
>  <lowdin_charges> 
17 
1   -0.026001 
2   0.143215 
3   0.166844 
4   0.158553 
5   -0.469997 
6   -0.292948 
7   -0.307926 
8   -0.199993 
9   -0.309675 
10   -0.394793 
11   -0.31761 
12   0.166162 
13   0.265687 
14   0.298847 
15   0.367702 
16   0.378832 
17   0.3731 
 
$$$$ 
 
