PCCDB-ID:  5447 
public computational chemistry database (PCCDB) project, http://pccdb.org 
 
 17 16  0  0  0  0  0  0  0  0999 V2000 
    1.3263   -1.0206    0.0494 C   0  0  0  0  0  0  0  0  0  0  0  0 
   -3.0334   -3.9235   -0.7603 C   0  0  0  0  0  0  0  0  0  0  0  0 
    0.8548   -2.4106   -0.3863 C   0  0  0  0  0  0  0  0  0  0  0  0 
   -1.5049   -3.9690   -0.8377 C   0  0  0  0  0  0  0  0  0  0  0  0 
    0.5234    0.0215   -0.4699 O   0  0  0  0  0  0  0  0  0  0  0  0 
   -3.5730   -2.6959   -1.2103 O   0  0  0  0  0  0  0  0  0  0  0  0 
   -0.7776   -2.7929    0.3836 S   0  0  0  0  0  0  0  0  0  0  0  0 
    2.3339   -0.8539   -0.3469 H   0  0  0  0  0  0  0  0  0  0  0  0 
    1.3955   -0.9751    1.1489 H   0  0  0  0  0  0  0  0  0  0  0  0 
   -3.3648   -4.1655    0.2631 H   0  0  0  0  0  0  0  0  0  0  0  0 
   -3.4392   -4.6945   -1.4243 H   0  0  0  0  0  0  0  0  0  0  0  0 
    1.5841   -3.1738   -0.0945 H   0  0  0  0  0  0  0  0  0  0  0  0 
    0.7361   -2.4267   -1.4743 H   0  0  0  0  0  0  0  0  0  0  0  0 
   -1.1852   -3.6691   -1.8408 H   0  0  0  0  0  0  0  0  0  0  0  0 
   -1.1396   -4.9810   -0.6329 H   0  0  0  0  0  0  0  0  0  0  0  0 
   -0.3889   -0.1579   -0.1869 H   0  0  0  0  0  0  0  0  0  0  0  0 
   -3.1703   -1.9951   -0.6708 H   0  0  0  0  0  0  0  0  0  0  0  0 
  1  9  1  0  0  0  0 
  2 10  1  0  0  0  0 
  3 12  1  0  0  0  0 
  3  1  1  0  0  0  0 
  3  7  1  0  0  0  0 
  4  2  1  0  0  0  0 
  4 15  1  0  0  0  0 
  4  7  1  0  0  0  0 
  5 16  1  0  0  0  0 
  5  1  1  0  0  0  0 
  6  2  1  0  0  0  0 
  6 17  1  0  0  0  0 
  8  1  1  0  0  0  0 
 11  2  1  0  0  0  0 
 13  3  1  0  0  0  0 
 14  4  1  0  0  0  0 
M  END 
>  <HBA> 
3 
 
>  <HBD> 
2 
 
>  <TPSA> 
65.76 
 
>  <cid> 
5447 
 
>  <dipole> 
2.5 
 
>  <excitation_energy_1> 
5.243 
 
>  <excitation_energy_2> 
5.81 
 
>  <excitation_energy_3> 
6.042 
 
>  <excitation_energy_4> 
6.553 
 
>  <homo_energy> 
-6.517 
 
>  <homo_lumo_gap> 
6.983 
 
>  <logP> 
-0.296 
 
>  <lumo_energy> 
0.465 
 
>  <melting_point> 
20.97 
 
>  <molecular_refractivity> 
31.26 
 
>  <oscillator_strength_1> 
0.0017 
 
>  <oscillator_strength_2> 
0.0284 
 
>  <oscillator_strength_3> 
0.0167 
 
>  <oscillator_strength_4> 
0.0137 
 
>  <open_babel_can_smiles> 
OCCSCCO 
 
>  <mulliken_charges> 
17 
1   -0.035094 
2   -0.03584 
3   -0.420566 
4   -0.419945 
5   -0.611505 
6   -0.611225 
7   0.029367 
8   0.15756 
9   0.13831 
10   0.138627 
11   0.157827 
12   0.173447 
13   0.182165 
14   0.182356 
15   0.173207 
16   0.400699 
17   0.400612 
 
>  <lowdin_charges> 
17 
1   -0.132161 
2   -0.134721 
3   -0.386975 
4   -0.386555 
5   -0.462842 
6   -0.46576 
7   0.055992 
8   0.154045 
9   0.131488 
10   0.133223 
11   0.156372 
12   0.162903 
13   0.163384 
14   0.164708 
15   0.1611 
16   0.341671 
17   0.344128 
 
$$$$ 
 
