PCCDB-ID:  866 
public computational chemistry database (PCCDB) project, http://pccdb.org 
 
 24 23  0  0  1  0  0  0  0  0999 V2000 
    1.2104   -0.0970   -0.5385 C   0  0  0  0  0  0  0  0  0  0  0  0 
   -0.0975   -0.1422   -1.3735 C   0  0  0  0  0  0  0  0  0  0  0  0 
    2.1908    1.0202   -0.9334 C   0  0  0  0  0  0  0  0  0  0  0  0 
   -1.3830    0.0110   -0.5551 C   0  0  0  0  0  0  0  0  0  0  0  0 
    1.7530    2.4679   -0.6108 C   0  0  1  0  0  0  0  0  0  0  0  0 
    1.7087    2.6781    0.9198 C   0  0  0  0  0  0  0  0  0  0  0  0 
   -1.5089    1.3772    0.0011 N   0  0  0  0  0  0  0  0  0  0  0  0 
    2.6775    3.3935   -1.2688 N   0  0  0  0  0  0  0  0  0  0  0  0 
    2.6668    3.1187    1.5212 O   0  0  0  0  0  0  0  0  0  0  0  0 
    0.5848    2.3251    1.5582 O   0  0  0  0  0  0  0  0  0  0  0  0 
    1.7341   -1.0539   -0.6479 H   0  0  0  0  0  0  0  0  0  0  0  0 
    0.9700   -0.0134    0.5281 H   0  0  0  0  0  0  0  0  0  0  0  0 
   -0.1630   -1.0944   -1.9138 H   0  0  0  0  0  0  0  0  0  0  0  0 
   -0.0809    0.6343   -2.1521 H   0  0  0  0  0  0  0  0  0  0  0  0 
    2.3851    0.9846   -2.0122 H   0  0  0  0  0  0  0  0  0  0  0  0 
    3.1549    0.8470   -0.4364 H   0  0  0  0  0  0  0  0  0  0  0  0 
   -1.3668   -0.6849    0.2917 H   0  0  0  0  0  0  0  0  0  0  0  0 
   -2.2536   -0.2543   -1.1742 H   0  0  0  0  0  0  0  0  0  0  0  0 
    0.7537    2.6424   -1.0292 H   0  0  0  0  0  0  0  0  0  0  0  0 
   -2.2982    1.4223    0.6451 H   0  0  0  0  0  0  0  0  0  0  0  0 
   -1.7237    2.0314   -0.7518 H   0  0  0  0  0  0  0  0  0  0  0  0 
    3.5495    3.3664   -0.7368 H   0  0  0  0  0  0  0  0  0  0  0  0 
    2.3358    4.3457   -1.1342 H   0  0  0  0  0  0  0  0  0  0  0  0 
   -0.1243    1.9930    0.9289 H   0  0  0  0  0  0  0  0  0  0  0  0 
  1 12  1  0  0  0  0 
  2  4  1  0  0  0  0 
  2  1  1  0  0  0  0 
  3  5  1  0  0  0  0 
  3  1  1  0  0  0  0 
  3 16  1  0  0  0  0 
  4  7  1  0  0  0  0 
  4 17  1  0  0  0  0 
  5 19  1  6  0  0  0 
  5  6  1  0  0  0  0 
  6  9  2  0  0  0  0 
  6 10  1  0  0  0  0 
  7 20  1  0  0  0  0 
  8 23  1  0  0  0  0 
  8 22  1  0  0  0  0 
  8  5  1  0  0  0  0 
 11  1  1  0  0  0  0 
 13  2  1  0  0  0  0 
 14  2  1  0  0  0  0 
 15  3  1  0  0  0  0 
 18  4  1  0  0  0  0 
 21  7  1  0  0  0  0 
 24 10  1  0  0  0  0 
M  END 
>  <HBA> 
4 
 
>  <HBD> 
3 
 
>  <TPSA> 
89.34 
 
>  <cid> 
866 
 
>  <dipole> 
6.25 
 
>  <excitation_energy_1> 
5.563 
 
>  <excitation_energy_2> 
5.602 
 
>  <excitation_energy_3> 
6.032 
 
>  <excitation_energy_4> 
6.112 
 
>  <homo_energy> 
-6.28 
 
>  <homo_lumo_gap> 
7.151 
 
>  <logP> 
0.928 
 
>  <lumo_energy> 
0.871 
 
>  <melting_point> 
159.09 
 
>  <molecular_refractivity> 
38.14 
 
>  <oscillator_strength_1> 
0.0015 
 
>  <oscillator_strength_2> 
0.0003 
 
>  <oscillator_strength_3> 
0.0088 
 
>  <oscillator_strength_4> 
0.007 
 
>  <open_babel_can_smiles> 
NCCCC[C@@H](C(=O)O)N 
 
>  <mulliken_charges> 
24 
1   -0.282377 
2   -0.261193 
3   -0.262086 
4   -0.149265 
5   -0.0882 
6   0.569247 
7   -0.763188 
8   -0.699571 
9   -0.475307 
10   -0.620488 
11   0.14308 
12   0.154002 
13   0.146163 
14   0.141125 
15   0.156087 
16   0.14761 
17   0.160052 
18   0.135635 
19   0.119036 
20   0.329324 
21   0.32146 
22   0.310197 
23   0.296124 
24   0.472536 
 
>  <lowdin_charges> 
24 
1   -0.286264 
2   -0.286107 
3   -0.273406 
4   -0.205979 
5   -0.113901 
6   0.167737 
7   -0.531095 
8   -0.536571 
9   -0.278713 
10   -0.382782 
11   0.150896 
12   0.148832 
13   0.152604 
14   0.144637 
15   0.15257 
16   0.151593 
17   0.151679 
18   0.134796 
19   0.136145 
20   0.272871 
21   0.266577 
22   0.261836 
23   0.254271 
24   0.347773 
 
$$$$ 
 
