PCCDB-ID:  3858 
public computational chemistry database (PCCDB) project, http://pccdb.org 
 
 27 27  0  0  1  0  0  0  0  0999 V2000 
   -1.4822    0.2780    0.7190 C   0  0  0  0  0  0  0  0  0  0  0  0 
   -0.7753    1.0078   -0.2365 C   0  0  0  0  0  0  0  0  0  0  0  0 
   -0.7963   -0.6022    1.5597 C   0  0  0  0  0  0  0  0  0  0  0  0 
    0.6082    0.8543   -0.3528 C   0  0  0  0  0  0  0  0  0  0  0  0 
    0.5850   -0.7512    1.4414 C   0  0  0  0  0  0  0  0  0  0  0  0 
    2.8067   -0.2066    0.3449 C   0  0  0  0  0  0  0  0  0  0  0  0 
    2.5842   -1.9181   -1.6014 C   0  0  0  0  0  0  0  0  0  0  0  0 
    1.3081   -0.0276    0.4808 C   0  0  0  0  0  0  0  0  0  0  0  0 
    3.2140   -1.5948   -0.2266 C   0  0  1  0  0  0  0  0  0  0  0  0 
    2.7764   -0.9000   -2.7016 C   0  0  0  0  0  0  0  0  0  0  0  0 
    4.7415   -1.7752   -0.1480 C   0  0  0  0  0  0  0  0  0  0  0  0 
    3.6715   -0.0705   -2.7759 O   0  0  0  0  0  0  0  0  0  0  0  0 
    1.8400   -1.0059   -3.6572 O   0  0  0  0  0  0  0  0  0  0  0  0 
    5.2498   -2.5131    0.6648 O   0  0  0  0  0  0  0  0  0  0  0  0 
    5.4944   -1.0424   -0.9874 O   0  0  0  0  0  0  0  0  0  0  0  0 
   -2.5580    0.3977    0.8136 H   0  0  0  0  0  0  0  0  0  0  0  0 
   -1.2978    1.7019   -0.8895 H   0  0  0  0  0  0  0  0  0  0  0  0 
   -1.3374   -1.1694    2.3125 H   0  0  0  0  0  0  0  0  0  0  0  0 
    1.1540    1.4349   -1.0937 H   0  0  0  0  0  0  0  0  0  0  0  0 
    1.1109   -1.4305    2.1093 H   0  0  0  0  0  0  0  0  0  0  0  0 
    3.2830   -0.1095    1.3284 H   0  0  0  0  0  0  0  0  0  0  0  0 
    3.2182    0.5890   -0.2839 H   0  0  0  0  0  0  0  0  0  0  0  0 
    1.5071   -2.0664   -1.4803 H   0  0  0  0  0  0  0  0  0  0  0  0 
    2.9790   -2.8717   -1.9797 H   0  0  0  0  0  0  0  0  0  0  0  0 
    2.8317   -2.3581    0.4567 H   0  0  0  0  0  0  0  0  0  0  0  0 
    2.0589   -0.3468   -4.3442 H   0  0  0  0  0  0  0  0  0  0  0  0 
    4.9292   -0.5330   -1.6134 H   0  0  0  0  0  0  0  0  0  0  0  0 
  1 16  1  0  0  0  0 
  1  3  2  0  0  0  0 
  2  1  1  0  0  0  0 
  3 18  1  0  0  0  0 
  4  2  2  0  0  0  0 
  4  8  1  0  0  0  0 
  5  3  1  0  0  0  0 
  5 20  1  0  0  0  0 
  6  8  1  0  0  0  0 
  6 21  1  0  0  0  0 
  7 23  1  0  0  0  0 
  7  9  1  0  0  0  0 
  8  5  2  0  0  0  0 
  9 11  1  0  0  0  0 
  9  6  1  0  0  0  0 
  9 25  1  1  0  0  0 
 10  7  1  0  0  0  0 
 11 14  2  0  0  0  0 
 12 10  2  0  0  0  0 
 13 10  1  0  0  0  0 
 15 11  1  0  0  0  0 
 17  2  1  0  0  0  0 
 19  4  1  0  0  0  0 
 22  6  1  0  0  0  0 
 24  7  1  0  0  0  0 
 26 13  1  0  0  0  0 
 27 15  1  0  0  0  0 
M  END 
>  <HBA> 
4 
 
>  <HBD> 
2 
 
>  <TPSA> 
74.6 
 
>  <cid> 
3858 
 
>  <dipole> 
5.93 
 
>  <excitation_energy_1> 
5.118 
 
>  <excitation_energy_2> 
5.347 
 
>  <excitation_energy_3> 
5.454 
 
>  <excitation_energy_4> 
5.493 
 
>  <homo_energy> 
-6.754 
 
>  <homo_lumo_gap> 
5.94 
 
>  <logP> 
1.405 
 
>  <lumo_energy> 
-0.814 
 
>  <melting_point> 
158.81 
 
>  <molecular_refractivity> 
54.18 
 
>  <oscillator_strength_1> 
0.0051 
 
>  <oscillator_strength_2> 
0.0007 
 
>  <oscillator_strength_3> 
0.0002 
 
>  <oscillator_strength_4> 
0.0276 
 
>  <open_babel_can_smiles> 
OC(=O)[C@@H](Cc1ccccc1)CC(=O)O 
 
>  <mulliken_charges> 
27 
1   -0.13 
2   -0.125119 
3   -0.127978 
4   -0.19624 
5   -0.18454 
6   -0.377323 
7   -0.386882 
8   0.168677 
9   -0.194625 
10   0.608966 
11   0.580688 
12   -0.494061 
13   -0.545155 
14   -0.454216 
15   -0.597922 
16   0.133459 
17   0.132473 
18   0.135259 
19   0.128575 
20   0.13565 
21   0.174977 
22   0.162509 
23   0.204603 
24   0.205995 
25   0.174056 
26   0.420739 
27   0.447435 
 
>  <lowdin_charges> 
27 
1   -0.155694 
2   -0.154134 
3   -0.152449 
4   -0.174665 
5   -0.168048 
6   -0.279826 
7   -0.307524 
8   -0.008652 
9   -0.161138 
10   0.213306 
11   0.18243 
12   -0.284868 
13   -0.328528 
14   -0.256735 
15   -0.366767 
16   0.157811 
17   0.160372 
18   0.161464 
19   0.156859 
20   0.160247 
21   0.167548 
22   0.158722 
23   0.186607 
24   0.188836 
25   0.17392 
26   0.369988 
27   0.360918 
 
$$$$ 
 
