PCCDB-ID:  1050 
public computational chemistry database (PCCDB) project, http://pccdb.org 
 
 21 21  0  0  0  0  0  0  0  0999 V2000 
    0.8438   -0.1156   -0.0520 C   0  0  0  0  0  0  0  0  0  0  0  0 
    4.3950   -1.0743   -0.1900 C   0  0  0  0  0  0  0  0  0  0  0  0 
    6.6311    0.0897   -0.2454 C   0  0  0  0  0  0  0  0  0  0  0  0 
    5.0351    2.6599   -0.1447 C   0  0  0  0  0  0  0  0  0  0  0  0 
    2.3494   -0.0062   -0.1020 C   0  0  0  0  0  0  0  0  0  0  0  0 
    5.1209    0.1180   -0.1937 C   0  0  0  0  0  0  0  0  0  0  0  0 
    4.3900    1.3286   -0.1479 C   0  0  0  0  0  0  0  0  0  0  0  0 
    2.9859    1.2497   -0.1034 C   0  0  0  0  0  0  0  0  0  0  0  0 
    3.0564   -1.1359   -0.1442 N   0  0  0  0  0  0  0  0  0  0  0  0 
    7.0685   -1.2635   -0.2847 O   0  0  0  0  0  0  0  0  0  0  0  0 
    6.2422    2.8416   -0.1821 O   0  0  0  0  0  0  0  0  0  0  0  0 
    2.2725    2.4126   -0.0626 O   0  0  0  0  0  0  0  0  0  0  0  0 
    0.3622    0.3669   -0.9148 H   0  0  0  0  0  0  0  0  0  0  0  0 
    0.4237    0.3307    0.8611 H   0  0  0  0  0  0  0  0  0  0  0  0 
    0.5696   -1.1720   -0.0639 H   0  0  0  0  0  0  0  0  0  0  0  0 
    4.9206   -2.0211   -0.2245 H   0  0  0  0  0  0  0  0  0  0  0  0 
    7.0379    0.6198    0.6277 H   0  0  0  0  0  0  0  0  0  0  0  0 
    6.9776    0.6509   -1.1251 H   0  0  0  0  0  0  0  0  0  0  0  0 
    4.3429    3.5195   -0.1055 H   0  0  0  0  0  0  0  0  0  0  0  0 
    8.0355   -1.2507   -0.3244 H   0  0  0  0  0  0  0  0  0  0  0  0 
    1.3263    2.2042   -0.0275 H   0  0  0  0  0  0  0  0  0  0  0  0 
  1 14  1  0  0  0  0 
  2  9  1  0  0  0  0 
  3  6  1  0  0  0  0 
  3 17  1  0  0  0  0 
  4 19  1  0  0  0  0 
  5  1  1  0  0  0  0 
  6  2  2  0  0  0  0 
  6  7  1  0  0  0  0 
  7  4  1  0  0  0  0 
  7  8  2  0  0  0  0 
  8  5  1  0  0  0  0 
  8 12  1  0  0  0  0 
  9  5  2  0  0  0  0 
 10  3  1  0  0  0  0 
 11  4  2  0  0  0  0 
 12 21  1  0  0  0  0 
 13  1  1  0  0  0  0 
 15  1  1  0  0  0  0 
 16  2  1  0  0  0  0 
 18  3  1  0  0  0  0 
 20 10  1  0  0  0  0 
M  END 
>  <HBA> 
4 
 
>  <HBD> 
2 
 
>  <TPSA> 
70.42 
 
>  <cid> 
1050 
 
>  <dipole> 
2.05 
 
>  <excitation_energy_1> 
3.382 
 
>  <excitation_energy_2> 
3.839 
 
>  <excitation_energy_3> 
4.052 
 
>  <excitation_energy_4> 
4.665 
 
>  <homo_energy> 
-6.457 
 
>  <homo_lumo_gap> 
4.484 
 
>  <logP> 
0.4 
 
>  <lumo_energy> 
-1.973 
 
>  <melting_point> 
121.86 
 
>  <molecular_refractivity> 
42.74 
 
>  <oscillator_strength_1> 
0.0 
 
>  <oscillator_strength_2> 
0.0935 
 
>  <oscillator_strength_3> 
0.002 
 
>  <oscillator_strength_4> 
0.0359 
 
>  <open_babel_can_smiles> 
O=Cc1c(CO)cnc(c1O)C 
 
>  <mulliken_charges> 
21 
1   -0.569953 
2   -0.007851 
3   -0.083197 
4   0.196029 
5   0.290496 
6   0.042684 
7   0.055291 
8   0.2363 
9   -0.462429 
10   -0.626463 
11   -0.418105 
12   -0.645291 
13   0.162319 
14   0.162412 
15   0.199589 
16   0.176854 
17   0.1587 
18   0.158548 
19   0.146367 
20   0.401794 
21   0.425904 
 
>  <lowdin_charges> 
21 
1   -0.462514 
2   -0.115318 
3   -0.137185 
4   0.045168 
5   0.000981 
6   0.004899 
7   -0.072748 
8   0.088807 
9   -0.130364 
10   -0.465893 
11   -0.230098 
12   -0.368004 
13   0.158989 
14   0.158691 
15   0.184628 
16   0.176746 
17   0.153027 
18   0.152932 
19   0.143649 
20   0.348955 
21   0.364651 
 
$$$$ 
 
