PCCDB-ID:  244 
public computational chemistry database (PCCDB) project, http://pccdb.org 
 
 16 16  0  0  0  0  0  0  0  0999 V2000 
   -1.4538    0.0065   -0.0332 C   0  0  0  0  0  0  0  0  0  0  0  0 
   -0.7395    1.1942    0.1410 C   0  0  0  0  0  0  0  0  0  0  0  0 
   -0.7644   -1.1966   -0.1936 C   0  0  0  0  0  0  0  0  0  0  0  0 
    0.6553    1.1796    0.1491 C   0  0  0  0  0  0  0  0  0  0  0  0 
    0.6313   -1.2096   -0.1781 C   0  0  0  0  0  0  0  0  0  0  0  0 
    2.8720   -0.0308   -0.0300 C   0  0  0  0  0  0  0  0  0  0  0  0 
    1.3551   -0.0231   -0.0130 C   0  0  0  0  0  0  0  0  0  0  0  0 
    3.4582    0.9360    0.8338 O   0  0  0  0  0  0  0  0  0  0  0  0 
   -2.5405    0.0183   -0.0385 H   0  0  0  0  0  0  0  0  0  0  0  0 
   -1.2705    2.1341    0.2691 H   0  0  0  0  0  0  0  0  0  0  0  0 
   -1.3126   -2.1264   -0.3218 H   0  0  0  0  0  0  0  0  0  0  0  0 
    1.2163    2.0993    0.2884 H   0  0  0  0  0  0  0  0  0  0  0  0 
    1.1641   -2.1517   -0.2929 H   0  0  0  0  0  0  0  0  0  0  0  0 
    3.2429    0.2266   -1.0295 H   0  0  0  0  0  0  0  0  0  0  0  0 
    3.2395   -1.0453    0.1942 H   0  0  0  0  0  0  0  0  0  0  0  0 
    3.1140    0.7692    1.7258 H   0  0  0  0  0  0  0  0  0  0  0  0 
  1  2  2  0  0  0  0 
  2  4  1  0  0  0  0 
  2 10  1  0  0  0  0 
  3  5  2  0  0  0  0 
  3  1  1  0  0  0  0 
  4 12  1  0  0  0  0 
  5  7  1  0  0  0  0 
  6  7  1  0  0  0  0 
  6 15  1  0  0  0  0 
  6  8  1  0  0  0  0 
  7  4  2  0  0  0  0 
  8 16  1  0  0  0  0 
  9  1  1  0  0  0  0 
 11  3  1  0  0  0  0 
 13  5  1  0  0  0  0 
 14  6  1  0  0  0  0 
M  END 
>  <HBA> 
1 
 
>  <HBD> 
1 
 
>  <TPSA> 
20.23 
 
>  <cid> 
244 
 
>  <dipole> 
1.53 
 
>  <excitation_energy_1> 
5.273 
 
>  <excitation_energy_2> 
5.804 
 
>  <excitation_energy_3> 
6.141 
 
>  <excitation_energy_4> 
6.327 
 
>  <homo_energy> 
-6.577 
 
>  <homo_lumo_gap> 
6.476 
 
>  <logP> 
1.179 
 
>  <lumo_energy> 
-0.101 
 
>  <melting_point> 
25.77 
 
>  <molecular_refractivity> 
32.57 
 
>  <oscillator_strength_1> 
0.0002 
 
>  <oscillator_strength_2> 
0.0553 
 
>  <oscillator_strength_3> 
0.0096 
 
>  <oscillator_strength_4> 
0.0497 
 
>  <open_babel_can_smiles> 
OCc1ccccc1 
 
>  <mulliken_charges> 
16 
1   -0.128966 
2   -0.128901 
3   -0.12803 
4   -0.173626 
5   -0.181178 
6   -0.091547 
7   0.102441 
8   -0.60895 
9   0.129462 
10   0.130497 
11   0.129768 
12   0.142951 
13   0.123268 
14   0.165062 
15   0.128947 
16   0.388802 
 
>  <lowdin_charges> 
16 
1   -0.155817 
2   -0.154463 
3   -0.155445 
4   -0.164353 
5   -0.167897 
6   -0.131469 
7   -0.031952 
8   -0.460005 
9   0.155463 
10   0.157878 
11   0.157859 
12   0.164901 
13   0.154462 
14   0.157193 
15   0.131598 
16   0.342046 
 
$$$$ 
 
