PCCDB-ID:  907 
public computational chemistry database (PCCDB) project, http://pccdb.org 
 
 26 25  0  0  1  0  0  0  0  0999 V2000 
    1.5289    0.7358    0.0377 C   0  0  0  0  0  0  0  0  0  0  0  0 
    2.0904   -3.6698   -1.4004 C   0  0  0  0  0  0  0  0  0  0  0  0 
    1.3488   -2.8875   -0.3091 C   0  0  0  0  0  0  0  0  0  0  0  0 
    1.1472   -4.4359   -2.3346 C   0  0  0  0  0  0  0  0  0  0  0  0 
    2.8276    0.0181   -0.2543 C   0  0  0  0  0  0  0  0  0  0  0  0 
    2.2707   -2.1236    0.6698 C   0  0  1  0  0  0  0  0  0  0  0  0 
    3.1457   -3.1363    1.4415 C   0  0  0  0  0  0  0  0  0  0  0  0 
    0.3123   -5.3808   -1.5839 N   0  0  0  0  0  0  0  0  0  0  0  0 
    3.1518   -1.1821   -0.0054 N   0  0  0  0  0  0  0  0  0  0  0  0 
    3.7694    0.7757   -0.8854 O   0  0  0  0  0  0  0  0  0  0  0  0 
    2.6741   -3.9454    2.2059 O   0  0  0  0  0  0  0  0  0  0  0  0 
    4.4584   -3.0626    1.1711 O   0  0  0  0  0  0  0  0  0  0  0  0 
    0.8386    0.1235    0.6185 H   0  0  0  0  0  0  0  0  0  0  0  0 
    1.0323    1.0101   -0.9013 H   0  0  0  0  0  0  0  0  0  0  0  0 
    1.7229    1.6592    0.5975 H   0  0  0  0  0  0  0  0  0  0  0  0 
    2.7851   -4.3829   -0.9330 H   0  0  0  0  0  0  0  0  0  0  0  0 
    2.7079   -2.9903   -2.0004 H   0  0  0  0  0  0  0  0  0  0  0  0 
    0.7320   -3.5735    0.2776 H   0  0  0  0  0  0  0  0  0  0  0  0 
    0.6676   -2.1626   -0.7766 H   0  0  0  0  0  0  0  0  0  0  0  0 
    1.7518   -4.9060   -3.1316 H   0  0  0  0  0  0  0  0  0  0  0  0 
    0.4731   -3.7256   -2.8329 H   0  0  0  0  0  0  0  0  0  0  0  0 
    1.6379   -1.6442    1.4295 H   0  0  0  0  0  0  0  0  0  0  0  0 
    0.9031   -6.0948   -1.1584 H   0  0  0  0  0  0  0  0  0  0  0  0 
   -0.3146   -5.8720   -2.2188 H   0  0  0  0  0  0  0  0  0  0  0  0 
    3.4276    1.6731   -1.0201 H   0  0  0  0  0  0  0  0  0  0  0  0 
    4.5539   -2.3096    0.5382 H   0  0  0  0  0  0  0  0  0  0  0  0 
  1 15  1  0  0  0  0 
  1 13  1  0  0  0  0 
  2 16  1  0  0  0  0 
  2  3  1  0  0  0  0 
  3 18  1  0  0  0  0 
  3  6  1  0  0  0  0 
  4  8  1  0  0  0  0 
  4  2  1  0  0  0  0 
  5  9  2  0  0  0  0 
  5  1  1  0  0  0  0 
  6 22  1  1  0  0  0 
  6  7  1  0  0  0  0 
  7 11  2  0  0  0  0 
  8 23  1  0  0  0  0 
  9  6  1  0  0  0  0 
 10  5  1  0  0  0  0 
 12  7  1  0  0  0  0 
 14  1  1  0  0  0  0 
 17  2  1  0  0  0  0 
 19  3  1  0  0  0  0 
 20  4  1  0  0  0  0 
 21  4  1  0  0  0  0 
 24  8  1  0  0  0  0 
 25 10  1  0  0  0  0 
 26 12  1  0  0  0  0 
M  END 
>  <HBA> 
5 
 
>  <HBD> 
3 
 
>  <TPSA> 
92.42 
 
>  <cid> 
907 
 
>  <dipole> 
6.93 
 
>  <excitation_energy_1> 
5.403 
 
>  <excitation_energy_2> 
5.519 
 
>  <excitation_energy_3> 
5.57 
 
>  <excitation_energy_4> 
5.698 
 
>  <homo_energy> 
-6.264 
 
>  <homo_lumo_gap> 
6.117 
 
>  <logP> 
0.406 
 
>  <lumo_energy> 
-0.147 
 
>  <melting_point> 
152.75 
 
>  <molecular_refractivity> 
43.24 
 
>  <oscillator_strength_1> 
0.0083 
 
>  <oscillator_strength_2> 
0.0054 
 
>  <oscillator_strength_3> 
0.0007 
 
>  <oscillator_strength_4> 
0.0034 
 
>  <open_babel_can_smiles> 
C/C(=N\[C@H](C(=O)O)CCCN)/O 
 
>  <mulliken_charges> 
26 
1   -0.560519 
2   -0.278024 
3   -0.247619 
4   -0.135791 
5   0.50803 
6   -0.089126 
7   0.601146 
8   -0.713648 
9   -0.465462 
10   -0.571111 
11   -0.473024 
12   -0.583255 
13   0.195948 
14   0.187296 
15   0.178501 
16   0.148796 
17   0.145191 
18   0.192269 
19   0.121096 
20   0.116132 
21   0.132415 
22   0.152644 
23   0.299113 
24   0.296712 
25   0.412267 
26   0.430025 
 
>  <lowdin_charges> 
26 
1   -0.482288 
2   -0.289759 
3   -0.275506 
4   -0.205719 
5   0.145418 
6   -0.105217 
7   0.179065 
8   -0.561705 
9   -0.221924 
10   -0.356433 
11   -0.263095 
12   -0.355477 
13   0.181946 
14   0.177048 
15   0.172285 
16   0.148948 
17   0.151164 
18   0.176064 
19   0.138885 
20   0.121559 
21   0.138684 
22   0.154794 
23   0.25657 
24   0.256862 
25   0.35891 
26   0.358922 
 
$$$$ 
 
