PCCDB-ID:  4989 
public computational chemistry database (PCCDB) project, http://pccdb.org 
 
 28 29  0  0  0  0  0  0  0  0999 V2000 
    0.9964   -0.6610    0.0893 C   0  0  0  0  0  0  0  0  0  0  0  0 
   -0.0459    6.0471   -0.4051 C   0  0  0  0  0  0  0  0  0  0  0  0 
    4.6943   -1.2089   -0.4539 C   0  0  0  0  0  0  0  0  0  0  0  0 
    0.4382    4.7172   -0.5301 C   0  0  0  0  0  0  0  0  0  0  0  0 
    2.3501    3.2545    0.3862 C   0  0  0  0  0  0  0  0  0  0  0  0 
    2.0666    2.0530   -0.1532 C   0  0  0  0  0  0  0  0  0  0  0  0 
    5.1053   -0.0224    0.4218 C   0  0  0  0  0  0  0  0  0  0  0  0 
    3.2419   -1.5597   -0.1505 C   0  0  0  0  0  0  0  0  0  0  0  0 
    0.7086    6.8125    0.4461 C   0  0  0  0  0  0  0  0  0  0  0  0 
    1.5639    4.4629    0.2288 C   0  0  0  0  0  0  0  0  0  0  0  0 
    2.9645    0.8852    0.0116 C   0  0  0  0  0  0  0  0  0  0  0  0 
    4.2093    1.1146    0.2656 N   0  0  0  0  0  0  0  0  0  0  0  0 
    2.3911   -0.3727   -0.2046 N   0  0  0  0  0  0  0  0  0  0  0  0 
    2.0271    5.9097    1.1089 S   0  0  0  0  0  0  0  0  0  0  0  0 
    0.5878   -1.3495   -0.6618 H   0  0  0  0  0  0  0  0  0  0  0  0 
    0.3930    0.2455    0.0897 H   0  0  0  0  0  0  0  0  0  0  0  0 
    0.8851   -1.1379    1.0773 H   0  0  0  0  0  0  0  0  0  0  0  0 
   -0.9172    6.4234   -0.9305 H   0  0  0  0  0  0  0  0  0  0  0  0 
    5.3323   -2.0831   -0.2789 H   0  0  0  0  0  0  0  0  0  0  0  0 
    4.7959   -0.9312   -1.5102 H   0  0  0  0  0  0  0  0  0  0  0  0 
   -0.0258    3.9695   -1.1644 H   0  0  0  0  0  0  0  0  0  0  0  0 
    3.2562    3.3220    0.9843 H   0  0  0  0  0  0  0  0  0  0  0  0 
    1.1790    1.9264   -0.7664 H   0  0  0  0  0  0  0  0  0  0  0  0 
    6.1216    0.3061    0.1728 H   0  0  0  0  0  0  0  0  0  0  0  0 
    5.1329   -0.3314    1.4800 H   0  0  0  0  0  0  0  0  0  0  0  0 
    3.1687   -2.0290    0.8463 H   0  0  0  0  0  0  0  0  0  0  0  0 
    2.8533   -2.2925   -0.8718 H   0  0  0  0  0  0  0  0  0  0  0  0 
    0.5664    7.8493    0.7192 H   0  0  0  0  0  0  0  0  0  0  0  0 
  1 16  1  0  0  0  0 
  1 17  1  0  0  0  0 
  2  9  2  0  0  0  0 
  3 19  1  0  0  0  0 
  3  8  1  0  0  0  0 
  3  7  1  0  0  0  0 
  4  2  1  0  0  0  0 
  4 10  2  0  0  0  0 
  5 22  1  0  0  0  0 
  6 11  1  0  0  0  0 
  6  5  2  0  0  0  0 
  7 25  1  0  0  0  0 
  8 26  1  0  0  0  0 
  9 28  1  0  0  0  0 
  9 14  1  0  0  0  0 
 10  5  1  0  0  0  0 
 10 14  1  0  0  0  0 
 11 12  2  0  0  0  0 
 12  7  1  0  0  0  0 
 13  8  1  0  0  0  0 
 13 11  1  0  0  0  0 
 13  1  1  0  0  0  0 
 15  1  1  0  0  0  0 
 18  2  1  0  0  0  0 
 20  3  1  0  0  0  0 
 21  4  1  0  0  0  0 
 23  6  1  0  0  0  0 
 24  7  1  0  0  0  0 
 27  8  1  0  0  0  0 
M  END 
>  <HBA> 
3 
 
>  <HBD> 
0 
 
>  <TPSA> 
43.84 
 
>  <cid> 
4989 
 
>  <dipole> 
2.87 
 
>  <excitation_energy_1> 
3.529 
 
>  <excitation_energy_2> 
4.056 
 
>  <excitation_energy_3> 
4.126 
 
>  <excitation_energy_4> 
4.816 
 
>  <homo_energy> 
-5.323 
 
>  <homo_lumo_gap> 
4.019 
 
>  <logP> 
1.869 
 
>  <lumo_energy> 
-1.303 
 
>  <melting_point> 
65.83 
 
>  <molecular_refractivity> 
70.15 
 
>  <oscillator_strength_1> 
0.1148 
 
>  <oscillator_strength_2> 
0.416 
 
>  <oscillator_strength_3> 
0.1946 
 
>  <oscillator_strength_4> 
0.0074 
 
>  <open_babel_can_smiles> 
CN1CCCN=C1/C=C/c1cccs1 
 
>  <mulliken_charges> 
28 
1   -0.309626 
2   -0.098696 
3   -0.299925 
4   -0.12144 
5   -0.116962 
6   -0.183328 
7   -0.139406 
8   -0.114101 
9   -0.346771 
10   -0.139343 
11   0.494527 
12   -0.484212 
13   -0.46067 
14   0.256241 
15   0.152317 
16   0.166392 
17   0.147084 
18   0.141578 
19   0.137156 
20   0.154198 
21   0.136632 
22   0.16822 
23   0.135007 
24   0.141766 
25   0.134133 
26   0.133829 
27   0.142271 
28   0.173127 
 
>  <lowdin_charges> 
28 
1   -0.350571 
2   -0.178352 
3   -0.291331 
4   -0.185669 
5   -0.127126 
6   -0.180313 
7   -0.202894 
8   -0.193377 
9   -0.319286 
10   -0.150155 
11   0.085786 
12   -0.253314 
13   -0.136611 
14   0.319835 
15   0.149454 
16   0.164503 
17   0.139853 
18   0.165982 
19   0.151914 
20   0.149983 
21   0.165008 
22   0.180044 
23   0.155808 
24   0.145151 
25   0.136471 
26   0.131049 
27   0.146328 
28   0.181832 
 
$$$$ 
 
