PCCDB-ID:  3200 
public computational chemistry database (PCCDB) project, http://pccdb.org 
 
 24 25  0  0  1  0  0  0  0  0999 V2000 
    0.9248   -0.2196    0.0501 C   0  0  0  0  0  0  0  0  0  0  0  0 
    6.4635    2.5119   -3.5011 C   0  0  0  0  0  0  0  0  0  0  0  0 
    5.0759    2.5921   -3.3845 C   0  0  0  0  0  0  0  0  0  0  0  0 
    7.2041    1.8791   -2.4997 C   0  0  0  0  0  0  0  0  0  0  0  0 
    4.4286    2.0416   -2.2761 C   0  0  0  0  0  0  0  0  0  0  0  0 
    6.5615    1.3330   -1.3895 C   0  0  0  0  0  0  0  0  0  0  0  0 
    3.3026   -1.3574    0.0560 C   0  0  0  0  0  0  0  0  0  0  0  0 
    2.4201   -0.1275    0.0186 C   0  0  0  0  0  0  0  0  0  0  0  0 
    5.1667    1.4093   -1.2706 C   0  0  0  0  0  0  0  0  0  0  0  0 
    4.6984   -0.7336    0.0524 C   0  0  0  0  0  0  0  0  0  0  0  0 
    4.4820    0.7977   -0.0537 C   0  0  2  0  0  0  0  0  0  0  0  0 
    3.0303    0.9986   -0.0348 N   0  0  0  0  0  0  0  0  0  0  0  0 
    5.7566   -1.3100    0.1426 O   0  0  0  0  0  0  0  0  0  0  0  0 
    0.5854   -0.7182    0.9673 H   0  0  0  0  0  0  0  0  0  0  0  0 
    0.5549   -0.8186   -0.7920 H   0  0  0  0  0  0  0  0  0  0  0  0 
    0.4851    0.7793    0.0021 H   0  0  0  0  0  0  0  0  0  0  0  0 
    6.9660    2.9409   -4.3640 H   0  0  0  0  0  0  0  0  0  0  0  0 
    4.4915    3.0857   -4.1569 H   0  0  0  0  0  0  0  0  0  0  0  0 
    8.2857    1.8109   -2.5817 H   0  0  0  0  0  0  0  0  0  0  0  0 
    3.3507    2.1127   -2.1768 H   0  0  0  0  0  0  0  0  0  0  0  0 
    7.1384    0.8295   -0.6197 H   0  0  0  0  0  0  0  0  0  0  0  0 
    3.1593   -2.0170   -0.8106 H   0  0  0  0  0  0  0  0  0  0  0  0 
    3.1504   -1.9768    0.9494 H   0  0  0  0  0  0  0  0  0  0  0  0 
    4.9095    1.2569    0.8504 H   0  0  0  0  0  0  0  0  0  0  0  0 
  1 14  1  0  0  0  0 
  2  3  2  0  0  0  0 
  2  4  1  0  0  0  0 
  3  5  1  0  0  0  0 
  4  6  2  0  0  0  0 
  5 20  1  0  0  0  0 
  5  9  2  0  0  0  0 
  6  9  1  0  0  0  0 
  6 21  1  0  0  0  0 
  7 23  1  0  0  0  0 
  8  1  1  0  0  0  0 
  8  7  1  0  0  0  0 
  9 11  1  0  0  0  0 
 10  7  1  0  0  0  0 
 10 13  2  0  0  0  0 
 11 12  1  0  0  0  0 
 11 10  1  0  0  0  0 
 11 24  1  1  0  0  0 
 12  8  2  0  0  0  0 
 15  1  1  0  0  0  0 
 16  1  1  0  0  0  0 
 17  2  1  0  0  0  0 
 18  3  1  0  0  0  0 
 19  4  1  0  0  0  0 
 22  7  1  0  0  0  0 
M  END 
>  <HBA> 
2 
 
>  <HBD> 
0 
 
>  <TPSA> 
29.43 
 
>  <cid> 
3200 
 
>  <dipole> 
2.48 
 
>  <excitation_energy_1> 
3.876 
 
>  <excitation_energy_2> 
4.83 
 
>  <excitation_energy_3> 
4.86 
 
>  <excitation_energy_4> 
4.903 
 
>  <homo_energy> 
-6.237 
 
>  <homo_lumo_gap> 
5.347 
 
>  <logP> 
1.597 
 
>  <lumo_energy> 
-0.89 
 
>  <melting_point> 
66.33 
 
>  <molecular_refractivity> 
55.73 
 
>  <oscillator_strength_1> 
0.0048 
 
>  <oscillator_strength_2> 
0.0115 
 
>  <oscillator_strength_3> 
0.006 
 
>  <oscillator_strength_4> 
0.0056 
 
>  <open_babel_can_smiles> 
O=C1CC(=N[C@@H]1c1ccccc1)C 
 
>  <mulliken_charges> 
24 
1   -0.515308 
2   -0.125344 
3   -0.133801 
4   -0.135318 
5   -0.173326 
6   -0.165339 
7   -0.42833 
8   0.330096 
9   0.137461 
10   0.443349 
11   -0.148165 
12   -0.414421 
13   -0.437751 
14   0.165611 
15   0.165094 
16   0.183505 
17   0.127214 
18   0.127714 
19   0.13016 
20   0.145966 
21   0.146567 
22   0.196085 
23   0.192532 
24   0.185748 
 
>  <lowdin_charges> 
24 
1   -0.450129 
2   -0.159718 
3   -0.157651 
4   -0.152371 
5   -0.163172 
6   -0.162409 
7   -0.335037 
8   0.062097 
9   -0.010135 
10   0.161464 
11   -0.104159 
12   -0.175073 
13   -0.212215 
14   0.166703 
15   0.166837 
16   0.174394 
17   0.157425 
18   0.157906 
19   0.155877 
20   0.16502 
21   0.16787 
22   0.185997 
23   0.184076 
24   0.176404 
 
$$$$ 
 
