PCCDB-ID:  3297 
public computational chemistry database (PCCDB) project, http://pccdb.org 
 
 20 19  0  0  1  0  0  0  0  0999 V2000 
    2.6535    3.0475   -1.9727 C   0  0  0  0  0  0  0  0  0  0  0  0 
    3.8895    3.4056   -1.1624 C   0  0  0  0  0  0  0  0  0  0  0  0 
    6.7630    0.8014    0.8760 C   0  0  0  0  0  0  0  0  0  0  0  0 
    5.6277    0.2937   -0.0554 C   0  0  2  0  0  0  0  0  0  0  0  0 
    4.5644    1.3894   -0.0882 C   0  0  0  0  0  0  0  0  0  0  0  0 
    4.9730   -0.9459    0.3290 N   0  0  0  0  0  0  0  0  0  0  0  0 
    3.6601    1.4714    0.7168 O   0  0  0  0  0  0  0  0  0  0  0  0 
    4.8012    2.2796   -1.0701 O   0  0  0  0  0  0  0  0  0  0  0  0 
    8.1775   -0.3630    1.0535 S   0  0  0  0  0  0  0  0  0  0  0  0 
    2.0183    3.9332   -2.0894 H   0  0  0  0  0  0  0  0  0  0  0  0 
    2.0726    2.2720   -1.4661 H   0  0  0  0  0  0  0  0  0  0  0  0 
    2.9314    2.6892   -2.9691 H   0  0  0  0  0  0  0  0  0  0  0  0 
    3.6241    3.7248   -0.1516 H   0  0  0  0  0  0  0  0  0  0  0  0 
    4.4783    4.1867   -1.6493 H   0  0  0  0  0  0  0  0  0  0  0  0 
    6.3656    1.0388    1.8678 H   0  0  0  0  0  0  0  0  0  0  0  0 
    7.2016    1.7163    0.4645 H   0  0  0  0  0  0  0  0  0  0  0  0 
    6.0433    0.1757   -1.0608 H   0  0  0  0  0  0  0  0  0  0  0  0 
    4.4575   -0.8078    1.1965 H   0  0  0  0  0  0  0  0  0  0  0  0 
    5.6641   -1.6792    0.4686 H   0  0  0  0  0  0  0  0  0  0  0  0 
    7.5940   -1.2024    1.9359 H   0  0  0  0  0  0  0  0  0  0  0  0 
  1 11  1  0  0  0  0 
  1  2  1  0  0  0  0 
  2  8  1  0  0  0  0 
  2 13  1  0  0  0  0 
  3  9  1  0  0  0  0 
  3 15  1  0  0  0  0 
  4 17  1  6  0  0  0 
  4  6  1  0  0  0  0 
  4  3  1  0  0  0  0 
  5  4  1  0  0  0  0 
  5  7  2  0  0  0  0 
  6 19  1  0  0  0  0 
  6 18  1  0  0  0  0 
  8  5  1  0  0  0  0 
  9 20  1  0  0  0  0 
 10  1  1  0  0  0  0 
 12  1  1  0  0  0  0 
 14  2  1  0  0  0  0 
 16  3  1  0  0  0  0 
M  END 
>  <HBA> 
4 
 
>  <HBD> 
2 
 
>  <TPSA> 
91.12 
 
>  <cid> 
3297 
 
>  <dipole> 
1.33 
 
>  <excitation_energy_1> 
5.2 
 
>  <excitation_energy_2> 
5.331 
 
>  <excitation_energy_3> 
5.67 
 
>  <excitation_energy_4> 
5.814 
 
>  <homo_energy> 
-6.463 
 
>  <homo_lumo_gap> 
6.338 
 
>  <logP> 
0.507 
 
>  <lumo_energy> 
-0.125 
 
>  <melting_point> 
61.05 
 
>  <molecular_refractivity> 
38.07 
 
>  <oscillator_strength_1> 
0.013 
 
>  <oscillator_strength_2> 
0.0073 
 
>  <oscillator_strength_3> 
0.0009 
 
>  <oscillator_strength_4> 
0.0032 
 
>  <open_babel_can_smiles> 
CCOC(=O)[C@@H](CS)N 
 
>  <mulliken_charges> 
20 
1   -0.462208 
2   -0.049934 
3   -0.446542 
4   -0.030518 
5   0.633724 
6   -0.712784 
7   -0.485551 
8   -0.458782 
9   -0.069403 
10   0.152052 
11   0.181304 
12   0.161232 
13   0.171037 
14   0.155792 
15   0.188445 
16   0.191213 
17   0.171896 
18   0.31192 
19   0.30344 
20   0.093666 
 
>  <lowdin_charges> 
20 
1   -0.455046 
2   -0.128083 
3   -0.391701 
4   -0.09245 
5   0.197948 
6   -0.541328 
7   -0.269388 
8   -0.187396 
9   -0.077943 
10   0.16034 
11   0.169243 
12   0.157854 
13   0.158335 
14   0.155376 
15   0.166809 
16   0.17566 
17   0.163639 
18   0.263803 
19   0.260794 
20   0.113536 
 
$$$$ 
 
