PCCDB-ID:  1841 
public computational chemistry database (PCCDB) project, http://pccdb.org 
 
 24 23  0  0  1  0  0  0  0  0999 V2000 
    0.0968    0.0763    0.8673 C   0  0  0  0  0  0  0  0  0  0  0  0 
    1.4203   -0.9570    6.0825 C   0  0  0  0  0  0  0  0  0  0  0  0 
    1.4678   -0.1232    1.4903 C   0  0  1  0  0  0  0  0  0  0  0  0 
    0.5825    0.0923    5.3440 C   0  0  2  0  0  0  0  0  0  0  0  0 
    1.5861    0.3786    2.9486 C   0  0  1  0  0  0  0  0  0  0  0  0 
    0.4510   -0.1703    3.8255 C   0  0  2  0  0  0  0  0  0  0  0  0 
   -0.5268   -0.8788    0.4403 O   0  0  0  0  0  0  0  0  0  0  0  0 
    0.8295   -2.2326    5.8236 O   0  0  0  0  0  0  0  0  0  0  0  0 
    1.8128   -1.4938    1.4547 O   0  0  0  0  0  0  0  0  0  0  0  0 
    2.8688    0.0210    3.4412 O   0  0  0  0  0  0  0  0  0  0  0  0 
   -0.7345    0.4451    3.3050 O   0  0  0  0  0  0  0  0  0  0  0  0 
    1.1191    1.7972    5.8042 S   0  0  0  0  0  0  0  0  0  0  0  0 
   -0.2699    1.1106    0.7634 H   0  0  0  0  0  0  0  0  0  0  0  0 
    1.4076   -0.7240    7.1561 H   0  0  0  0  0  0  0  0  0  0  0  0 
    2.4590   -0.9175    5.7308 H   0  0  0  0  0  0  0  0  0  0  0  0 
    2.1928    0.4537    0.8919 H   0  0  0  0  0  0  0  0  0  0  0  0 
   -0.4347    0.0334    5.7481 H   0  0  0  0  0  0  0  0  0  0  0  0 
    1.5311    1.4717    2.9651 H   0  0  0  0  0  0  0  0  0  0  0  0 
    0.4035   -1.2588    3.6971 H   0  0  0  0  0  0  0  0  0  0  0  0 
    1.3843   -2.9082    6.2414 H   0  0  0  0  0  0  0  0  0  0  0  0 
    1.0379   -1.9432    1.0578 H   0  0  0  0  0  0  0  0  0  0  0  0 
    2.9996   -0.9064    3.1708 H   0  0  0  0  0  0  0  0  0  0  0  0 
   -1.4714   -0.1773    3.3999 H   0  0  0  0  0  0  0  0  0  0  0  0 
    2.4073    1.6535    5.4237 H   0  0  0  0  0  0  0  0  0  0  0  0 
  1  3  1  0  0  0  0 
  2 14  1  0  0  0  0 
  3 16  1  6  0  0  0 
  3  5  1  0  0  0  0 
  4 17  1  1  0  0  0 
  4 12  1  0  0  0  0 
  4  2  1  0  0  0  0 
  5 18  1  6  0  0  0 
  5 10  1  0  0  0  0 
  5  6  1  0  0  0  0 
  6 19  1  6  0  0  0 
  6  4  1  0  0  0  0 
  7  1  2  0  0  0  0 
  8  2  1  0  0  0  0 
  8 20  1  0  0  0  0 
  9  3  1  0  0  0  0 
 11 23  1  0  0  0  0 
 11  6  1  0  0  0  0 
 13  1  1  0  0  0  0 
 15  2  1  0  0  0  0 
 21  9  1  0  0  0  0 
 22 10  1  0  0  0  0 
 24 12  1  0  0  0  0 
M  END 
>  <HBA> 
6 
 
>  <HBD> 
5 
 
>  <TPSA> 
136.79 
 
>  <cid> 
1841 
 
>  <dipole> 
1.8 
 
>  <excitation_energy_1> 
4.679 
 
>  <excitation_energy_2> 
4.856 
 
>  <excitation_energy_3> 
5.539 
 
>  <excitation_energy_4> 
5.626 
 
>  <homo_energy> 
-6.495 
 
>  <homo_lumo_gap> 
5.66 
 
>  <logP> 
-2.441 
 
>  <lumo_energy> 
-0.835 
 
>  <melting_point> 
99.89 
 
>  <molecular_refractivity> 
43.73 
 
>  <oscillator_strength_1> 
0.0004 
 
>  <oscillator_strength_2> 
0.001 
 
>  <oscillator_strength_3> 
0.0044 
 
>  <oscillator_strength_4> 
0.055 
 
>  <open_babel_can_smiles> 
OC[C@H]([C@H]([C@H]([C@H](C=O)O)O)O)S 
 
>  <mulliken_charges> 
24 
1   0.261046 
2   -0.042553 
3   0.044175 
4   -0.274306 
5   0.12159 
6   0.10433 
7   -0.430584 
8   -0.626567 
9   -0.66224 
10   -0.636685 
11   -0.630773 
12   -0.087704 
13   0.143799 
14   0.145137 
15   0.146119 
16   0.161181 
17   0.177859 
18   0.164747 
19   0.163797 
20   0.399047 
21   0.416139 
22   0.416276 
23   0.408116 
24   0.118053 
 
>  <lowdin_charges> 
24 
1   0.053723 
2   -0.144995 
3   -0.053075 
4   -0.235455 
5   -0.021764 
6   -0.028932 
7   -0.244566 
8   -0.481086 
9   -0.468317 
10   -0.452582 
11   -0.442608 
12   -0.078201 
13   0.143265 
14   0.140643 
15   0.138486 
16   0.161199 
17   0.169854 
18   0.157919 
19   0.151308 
20   0.350931 
21   0.352842 
22   0.351191 
23   0.356231 
24   0.123987 
 
$$$$ 
 
