PCCDB-ID:  817 
public computational chemistry database (PCCDB) project, http://pccdb.org 
 
 30 29  0  0  1  0  0  0  0  0999 V2000 
    0.3897    0.3548   -0.2385 C   0  0  0  0  0  0  0  0  0  0  0  0 
    0.6711   -3.2516   -4.5022 C   0  0  0  0  0  0  0  0  0  0  0  0 
    0.5299    0.4243   -1.7642 C   0  0  1  0  0  0  0  0  0  0  0  0 
    1.6857    0.4555    0.5217 C   0  0  0  0  0  0  0  0  0  0  0  0 
    1.6798   -2.0991   -4.5957 C   0  0  2  0  0  0  0  0  0  0  0  0 
    0.8613   -0.9447   -2.4069 C   0  0  1  0  0  0  0  0  0  0  0  0 
    1.2382   -0.8010   -3.8892 C   0  0  2  0  0  0  0  0  0  0  0  0 
    1.5373    0.7603    2.0303 C   0  0  0  0  0  0  0  0  0  0  0  0 
   -0.4560   -2.9972   -5.3444 O   0  0  0  0  0  0  0  0  0  0  0  0 
   -0.7096    0.9192   -2.2451 O   0  0  0  0  0  0  0  0  0  0  0  0 
    2.7953    0.3172    0.0423 O   0  0  0  0  0  0  0  0  0  0  0  0 
    1.8704   -1.7683   -5.9783 O   0  0  0  0  0  0  0  0  0  0  0  0 
    1.8939   -1.6473   -1.7298 O   0  0  0  0  0  0  0  0  0  0  0  0 
    0.1008   -0.2533   -4.5923 O   0  0  0  0  0  0  0  0  0  0  0  0 
    2.7230    0.7958    2.6555 O   0  0  0  0  0  0  0  0  0  0  0  0 
    0.4669    0.9346    2.5679 O   0  0  0  0  0  0  0  0  0  0  0  0 
   -0.1161   -0.5705    0.0745 H   0  0  0  0  0  0  0  0  0  0  0  0 
   -0.2719    1.1645    0.0893 H   0  0  0  0  0  0  0  0  0  0  0  0 
    0.3753   -3.4389   -3.4623 H   0  0  0  0  0  0  0  0  0  0  0  0 
    1.1284   -4.1673   -4.8892 H   0  0  0  0  0  0  0  0  0  0  0  0 
    1.3476    1.1269   -2.0060 H   0  0  0  0  0  0  0  0  0  0  0  0 
    2.6378   -2.4160   -4.1726 H   0  0  0  0  0  0  0  0  0  0  0  0 
   -0.0456   -1.5572   -2.3209 H   0  0  0  0  0  0  0  0  0  0  0  0 
    2.0759   -0.0895   -3.9660 H   0  0  0  0  0  0  0  0  0  0  0  0 
   -0.8380   -2.1532   -5.0410 H   0  0  0  0  0  0  0  0  0  0  0  0 
   -0.6847    0.8346   -3.2168 H   0  0  0  0  0  0  0  0  0  0  0  0 
    1.1126   -2.1807   -6.4360 H   0  0  0  0  0  0  0  0  0  0  0  0 
    2.5427   -0.9959   -1.4038 H   0  0  0  0  0  0  0  0  0  0  0  0 
    0.4102   -0.1599   -5.5125 H   0  0  0  0  0  0  0  0  0  0  0  0 
    2.5361    0.9867    3.5946 H   0  0  0  0  0  0  0  0  0  0  0  0 
  1 17  1  0  0  0  0 
  1 18  1  0  0  0  0 
  1  4  1  0  0  0  0 
  2 19  1  0  0  0  0 
  3 21  1  6  0  0  0 
  3  1  1  0  0  0  0 
  4  8  1  0  0  0  0 
  5  2  1  0  0  0  0 
  5 22  1  1  0  0  0 
  5  7  1  0  0  0  0 
  6 23  1  1  0  0  0 
  6  3  1  0  0  0  0 
  6 13  1  0  0  0  0 
  7 24  1  6  0  0  0 
  7  6  1  0  0  0  0 
  8 16  2  0  0  0  0 
  8 15  1  0  0  0  0 
  9 25  1  0  0  0  0 
  9  2  1  0  0  0  0 
 10  3  1  0  0  0  0 
 11  4  2  0  0  0  0 
 12  5  1  0  0  0  0 
 13 28  1  0  0  0  0 
 14  7  1  0  0  0  0 
 15 30  1  0  0  0  0 
 20  2  1  0  0  0  0 
 26 10  1  0  0  0  0 
 27 12  1  0  0  0  0 
 29 14  1  0  0  0  0 
M  END 
>  <HBA> 
8 
 
>  <HBD> 
6 
 
>  <TPSA> 
155.52 
 
>  <cid> 
817 
 
>  <dipole> 
1.53 
 
>  <excitation_energy_1> 
3.31 
 
>  <excitation_energy_2> 
3.829 
 
>  <excitation_energy_3> 
4.323 
 
>  <excitation_energy_4> 
4.44 
 
>  <homo_energy> 
-7.061 
 
>  <homo_lumo_gap> 
4.471 
 
>  <logP> 
-3.534 
 
>  <lumo_energy> 
-2.591 
 
>  <melting_point> 
163.75 
 
>  <molecular_refractivity> 
48.35 
 
>  <oscillator_strength_1> 
0.0001 
 
>  <oscillator_strength_2> 
0.0001 
 
>  <oscillator_strength_3> 
0.0006 
 
>  <oscillator_strength_4> 
0.0005 
 
>  <open_babel_can_smiles> 
OC[C@H]([C@H]([C@H]([C@H](CC(=O)C(=O)O)O)O)O)O 
 
>  <mulliken_charges> 
30 
1   -0.373446 
2   -0.090712 
3   0.123672 
4   0.411033 
5   0.114475 
6   0.107857 
7   0.089459 
8   0.536529 
9   -0.637323 
10   -0.660116 
11   -0.443561 
12   -0.658628 
13   -0.658625 
14   -0.669213 
15   -0.537264 
16   -0.436113 
17   0.20032 
18   0.212944 
19   0.158662 
20   0.163764 
21   0.1217 
22   0.153747 
23   0.142054 
24   0.136886 
25   0.406072 
26   0.424614 
27   0.408287 
28   0.420696 
29   0.410682 
30   0.42155 
 
>  <lowdin_charges> 
30 
1   -0.309277 
2   -0.152861 
3   -0.012666 
4   0.153708 
5   -0.035425 
6   -0.03173 
7   -0.03699 
8   0.161694 
9   -0.474514 
10   -0.469283 
11   -0.200312 
12   -0.475069 
13   -0.46823 
14   -0.468094 
15   -0.314532 
16   -0.234486 
17   0.190032 
18   0.196608 
19   0.147168 
20   0.157369 
21   0.129183 
22   0.158635 
23   0.144474 
24   0.140471 
25   0.341694 
26   0.346416 
27   0.346378 
28   0.349473 
29   0.350528 
30   0.369638 
 
$$$$ 
 
