PCCDB-ID:  1374 
public computational chemistry database (PCCDB) project, http://pccdb.org 
 
 24 24  0  0  1  0  0  0  0  0999 V2000 
    0.6793    1.1851   -0.4349 C   0  0  0  0  0  0  0  0  0  0  0  0 
   -2.8103    0.0320    0.3682 C   0  0  0  0  0  0  0  0  0  0  0  0 
   -1.4048   -0.0498   -0.2117 C   0  0  2  0  0  0  0  0  0  0  0  0 
    1.4558    0.0385    0.2279 C   0  0  2  0  0  0  0  0  0  0  0  0 
   -0.6676   -1.3338    0.2335 C   0  0  1  0  0  0  0  0  0  0  0  0 
    0.8170   -1.3003   -0.1944 C   0  0  2  0  0  0  0  0  0  0  0  0 
   -0.6536    1.1541    0.1724 N   0  0  0  0  0  0  0  0  0  0  0  0 
   -3.4177    1.2065   -0.1739 O   0  0  0  0  0  0  0  0  0  0  0  0 
    1.3831    0.2162    1.6573 O   0  0  0  0  0  0  0  0  0  0  0  0 
   -0.7470   -1.5873    1.6391 O   0  0  0  0  0  0  0  0  0  0  0  0 
    1.5090   -2.4213    0.3167 O   0  0  0  0  0  0  0  0  0  0  0  0 
    0.6696    1.0593   -1.5321 H   0  0  0  0  0  0  0  0  0  0  0  0 
    1.1525    2.1469   -0.2082 H   0  0  0  0  0  0  0  0  0  0  0  0 
   -2.7452    0.0782    1.4621 H   0  0  0  0  0  0  0  0  0  0  0  0 
   -3.3740   -0.8726    0.0939 H   0  0  0  0  0  0  0  0  0  0  0  0 
   -1.5014   -0.1099   -1.3135 H   0  0  0  0  0  0  0  0  0  0  0  0 
    2.5138    0.0410   -0.0542 H   0  0  0  0  0  0  0  0  0  0  0  0 
   -1.1598   -2.1903   -0.2407 H   0  0  0  0  0  0  0  0  0  0  0  0 
    0.8788   -1.3659   -1.2892 H   0  0  0  0  0  0  0  0  0  0  0  0 
   -1.2082    1.9721   -0.0668 H   0  0  0  0  0  0  0  0  0  0  0  0 
   -4.2343    1.3774    0.3179 H   0  0  0  0  0  0  0  0  0  0  0  0 
    0.6430    0.8499    1.7702 H   0  0  0  0  0  0  0  0  0  0  0  0 
   -0.1069   -0.9759    2.0548 H   0  0  0  0  0  0  0  0  0  0  0  0 
    1.1268   -2.5838    1.1972 H   0  0  0  0  0  0  0  0  0  0  0  0 
  1 13  1  0  0  0  0 
  1  7  1  0  0  0  0 
  1  4  1  0  0  0  0 
  2 14  1  0  0  0  0 
  3 16  1  6  0  0  0 
  3  7  1  0  0  0  0 
  3  5  1  0  0  0  0 
  3  2  1  0  0  0  0 
  4 17  1  6  0  0  0 
  4  9  1  0  0  0  0 
  5 18  1  6  0  0  0 
  5 10  1  0  0  0  0 
  6 19  1  6  0  0  0 
  6  4  1  0  0  0  0 
  6  5  1  0  0  0  0 
  6 11  1  0  0  0  0 
  8 21  1  0  0  0  0 
  8  2  1  0  0  0  0 
  9 22  1  0  0  0  0 
 10 23  1  0  0  0  0 
 11 24  1  0  0  0  0 
 12  1  1  0  0  0  0 
 15  2  1  0  0  0  0 
 20  7  1  0  0  0  0 
M  END 
>  <HBA> 
5 
 
>  <HBD> 
5 
 
>  <TPSA> 
92.95 
 
>  <cid> 
1374 
 
>  <dipole> 
3.67 
 
>  <excitation_energy_1> 
5.904 
 
>  <excitation_energy_2> 
6.187 
 
>  <excitation_energy_3> 
6.256 
 
>  <excitation_energy_4> 
6.45 
 
>  <homo_energy> 
-6.588 
 
>  <homo_lumo_gap> 
8.245 
 
>  <logP> 
-2.638 
 
>  <lumo_energy> 
1.657 
 
>  <melting_point> 
97.67 
 
>  <molecular_refractivity> 
40.21 
 
>  <oscillator_strength_1> 
0.0007 
 
>  <oscillator_strength_2> 
0.0112 
 
>  <oscillator_strength_3> 
0.0081 
 
>  <oscillator_strength_4> 
0.0154 
 
>  <open_babel_can_smiles> 
OC[C@H]1NC[C@H]([C@H]([C@H]1O)O)O 
 
>  <mulliken_charges> 
24 
1   -0.180349 
2   -0.034851 
3   0.020885 
4   0.13311 
5   0.09632 
6   0.111529 
7   -0.611474 
8   -0.633632 
9   -0.657348 
10   -0.65714 
11   -0.632826 
12   0.134379 
13   0.155834 
14   0.145942 
15   0.129195 
16   0.122429 
17   0.146067 
18   0.144206 
19   0.126574 
20   0.329853 
21   0.400181 
22   0.405887 
23   0.405303 
24   0.399927 
 
>  <lowdin_charges> 
24 
1   -0.221769 
2   -0.137054 
3   -0.084791 
4   -0.022136 
5   -0.025336 
6   -0.037229 
7   -0.37053 
8   -0.477955 
9   -0.476774 
10   -0.476063 
11   -0.453929 
12   0.131059 
13   0.153624 
14   0.14028 
15   0.13663 
16   0.128017 
17   0.151128 
18   0.152432 
19   0.141972 
20   0.273001 
21   0.350217 
22   0.339703 
23   0.341504 
24   0.343999 
 
$$$$ 
 
