PCCDB-ID:  548 
public computational chemistry database (PCCDB) project, http://pccdb.org 
 
 22 21  0  0  0  0  0  0  0  0999 V2000 
    1.2047    0.2081   -0.1822 C   0  0  0  0  0  0  0  0  0  0  0  0 
    0.3623   -0.5389    0.5792 C   0  0  0  0  0  0  0  0  0  0  0  0 
    3.4383   -0.6452    0.7942 C   0  0  0  0  0  0  0  0  0  0  0  0 
    3.2734    1.0170   -1.0898 C   0  0  0  0  0  0  0  0  0  0  0  0 
    2.6412    0.2015   -0.1921 C   0  0  0  0  0  0  0  0  0  0  0  0 
   -1.0818   -0.3886    0.4358 C   0  0  0  0  0  0  0  0  0  0  0  0 
    4.2982   -1.6935    0.0992 C   0  0  0  0  0  0  0  0  0  0  0  0 
   -1.9053   -1.3250    1.3477 C   0  0  0  0  0  0  0  0  0  0  0  0 
    4.5790    1.1129   -1.3181 O   0  0  0  0  0  0  0  0  0  0  0  0 
   -1.6515    0.3832   -0.3227 O   0  0  0  0  0  0  0  0  0  0  0  0 
    5.2696   -1.3858   -0.5680 O   0  0  0  0  0  0  0  0  0  0  0  0 
    3.9651   -2.9873    0.2229 O   0  0  0  0  0  0  0  0  0  0  0  0 
   -3.2265   -1.1321    1.2148 O   0  0  0  0  0  0  0  0  0  0  0  0 
   -1.4150   -2.1455    2.0973 O   0  0  0  0  0  0  0  0  0  0  0  0 
    0.7257    0.8934   -0.8822 H   0  0  0  0  0  0  0  0  0  0  0  0 
    0.7020   -1.2657    1.3081 H   0  0  0  0  0  0  0  0  0  0  0  0 
    2.7709   -1.0927    1.5342 H   0  0  0  0  0  0  0  0  0  0  0  0 
    4.1361   -0.0033    1.3475 H   0  0  0  0  0  0  0  0  0  0  0  0 
    2.6962    1.7009   -1.7085 H   0  0  0  0  0  0  0  0  0  0  0  0 
    5.0530    0.3164   -0.9634 H   0  0  0  0  0  0  0  0  0  0  0  0 
    3.1622   -3.0862    0.7606 H   0  0  0  0  0  0  0  0  0  0  0  0 
   -3.6557   -1.7644    1.8219 H   0  0  0  0  0  0  0  0  0  0  0  0 
  1  2  2  0  0  0  0 
  2 16  1  0  0  0  0 
  3 18  1  0  0  0  0 
  3 17  1  0  0  0  0 
  4  5  2  0  0  0  0 
  5  1  1  0  0  0  0 
  5  3  1  0  0  0  0 
  6  2  1  0  0  0  0 
  6  8  1  0  0  0  0 
  7 12  1  0  0  0  0 
  7  3  1  0  0  0  0 
  8 14  2  0  0  0  0 
  9  4  1  0  0  0  0 
  9 20  1  0  0  0  0 
 10  6  2  0  0  0  0 
 11  7  2  0  0  0  0 
 12 21  1  0  0  0  0 
 13  8  1  0  0  0  0 
 13 22  1  0  0  0  0 
 15  1  1  0  0  0  0 
 19  4  1  0  0  0  0 
M  END 
>  <HBA> 
6 
 
>  <HBD> 
3 
 
>  <TPSA> 
111.9 
 
>  <cid> 
548 
 
>  <dipole> 
2.77 
 
>  <excitation_energy_1> 
2.955 
 
>  <excitation_energy_2> 
3.675 
 
>  <excitation_energy_3> 
4.564 
 
>  <excitation_energy_4> 
4.856 
 
>  <homo_energy> 
-6.278 
 
>  <homo_lumo_gap> 
3.812 
 
>  <logP> 
0.113 
 
>  <lumo_energy> 
-2.465 
 
>  <melting_point> 
182.11 
 
>  <molecular_refractivity> 
44.94 
 
>  <oscillator_strength_1> 
0.0002 
 
>  <oscillator_strength_2> 
0.4597 
 
>  <oscillator_strength_3> 
0.0144 
 
>  <oscillator_strength_4> 
0.0 
 
>  <open_babel_can_smiles> 
O/C=C(\CC(=O)O)/C=C/C(=O)C(=O)O 
 
>  <mulliken_charges> 
22 
1   -0.12106 
2   -0.226785 
3   -0.483567 
4   0.096905 
5   0.10722 
6   0.364905 
7   0.620458 
8   0.528271 
9   -0.575516 
10   -0.464948 
11   -0.463724 
12   -0.53541 
13   -0.540807 
14   -0.464883 
15   0.172554 
16   0.141455 
17   0.169327 
18   0.207115 
19   0.174924 
20   0.453191 
21   0.427294 
22   0.413078 
 
>  <lowdin_charges> 
22 
1   -0.083892 
2   -0.253577 
3   -0.31544 
4   0.001419 
5   -0.092259 
6   0.114625 
7   0.212431 
8   0.168307 
9   -0.338672 
10   -0.228896 
11   -0.261615 
12   -0.318358 
13   -0.321823 
14   -0.263504 
15   0.179454 
16   0.163937 
17   0.168754 
18   0.187942 
19   0.173734 
20   0.368938 
21   0.372039 
22   0.366457 
 
$$$$ 
 
