PCCDB-ID:  5814 
public computational chemistry database (PCCDB) project, http://pccdb.org 
 
 23 23  0  0  1  0  0  0  0  0999 V2000 
   -1.3084   -0.0040    0.2096 C   0  0  0  0  0  0  0  0  0  0  0  0 
   -0.6410    1.2237    0.1892 C   0  0  0  0  0  0  0  0  0  0  0  0 
    0.7951   -1.1226   -0.1255 C   0  0  0  0  0  0  0  0  0  0  0  0 
   -1.2383   -3.1189    1.5578 C   0  0  0  0  0  0  0  0  0  0  0  0 
   -0.5940   -1.1910    0.0540 C   0  0  0  0  0  0  0  0  0  0  0  0 
    0.7404    1.2909    0.0212 C   0  0  0  0  0  0  0  0  0  0  0  0 
    1.4688    0.0962   -0.1393 C   0  0  0  0  0  0  0  0  0  0  0  0 
   -1.2854   -2.5364    0.1271 C   0  0  2  0  0  0  0  0  0  0  0  0 
   -2.0976   -4.3121    1.6036 N   0  0  0  0  0  0  0  0  0  0  0  0 
    1.4454    2.4632   -0.0073 O   0  0  0  0  0  0  0  0  0  0  0  0 
    2.8217    0.2074   -0.3129 O   0  0  0  0  0  0  0  0  0  0  0  0 
   -2.6386   -2.4202   -0.2684 O   0  0  0  0  0  0  0  0  0  0  0  0 
   -2.3856   -0.0444    0.3237 H   0  0  0  0  0  0  0  0  0  0  0  0 
   -1.2039    2.1496    0.3007 H   0  0  0  0  0  0  0  0  0  0  0  0 
    1.3684   -2.0395   -0.2661 H   0  0  0  0  0  0  0  0  0  0  0  0 
   -1.6608   -2.3739    2.2405 H   0  0  0  0  0  0  0  0  0  0  0  0 
   -0.1945   -3.2963    1.8603 H   0  0  0  0  0  0  0  0  0  0  0  0 
   -0.7532   -3.2416   -0.5405 H   0  0  0  0  0  0  0  0  0  0  0  0 
   -2.3458   -4.5460    2.5616 H   0  0  0  0  0  0  0  0  0  0  0  0 
   -1.6106   -5.1201    1.2188 H   0  0  0  0  0  0  0  0  0  0  0  0 
    0.8195    3.1958    0.1013 H   0  0  0  0  0  0  0  0  0  0  0  0 
    3.1883   -0.6835   -0.4231 H   0  0  0  0  0  0  0  0  0  0  0  0 
   -3.0732   -3.1811    0.1697 H   0  0  0  0  0  0  0  0  0  0  0  0 
  1 13  1  0  0  0  0 
  2  1  1  0  0  0  0 
  2 14  1  0  0  0  0 
  3  5  1  0  0  0  0 
  4  9  1  0  0  0  0 
  4 17  1  0  0  0  0 
  4 16  1  0  0  0  0 
  5  8  1  0  0  0  0 
  5  1  2  0  0  0  0 
  6  2  2  0  0  0  0 
  7  3  2  0  0  0  0 
  7  6  1  0  0  0  0 
  8 18  1  6  0  0  0 
  8  4  1  0  0  0  0 
  9 19  1  0  0  0  0 
 10  6  1  0  0  0  0 
 10 21  1  0  0  0  0 
 11  7  1  0  0  0  0 
 12  8  1  0  0  0  0 
 12 23  1  0  0  0  0 
 15  3  1  0  0  0  0 
 20  9  1  0  0  0  0 
 22 11  1  0  0  0  0 
M  END 
>  <HBA> 
4 
 
>  <HBD> 
4 
 
>  <TPSA> 
86.71 
 
>  <cid> 
5814 
 
>  <dipole> 
3.45 
 
>  <excitation_energy_1> 
4.725 
 
>  <excitation_energy_2> 
4.789 
 
>  <excitation_energy_3> 
4.89 
 
>  <excitation_energy_4> 
5.058 
 
>  <homo_energy> 
-5.366 
 
>  <homo_lumo_gap> 
5.66 
 
>  <logP> 
0.79 
 
>  <lumo_energy> 
0.294 
 
>  <melting_point> 
161.3 
 
>  <molecular_refractivity> 
44.13 
 
>  <oscillator_strength_1> 
0.0004 
 
>  <oscillator_strength_2> 
0.0674 
 
>  <oscillator_strength_3> 
0.0004 
 
>  <oscillator_strength_4> 
0.0021 
 
>  <open_babel_can_smiles> 
NC[C@H](c1ccc(c(c1)O)O)O 
 
>  <mulliken_charges> 
23 
1   -0.184583 
2   -0.200969 
3   -0.26083 
4   -0.166451 
5   0.13928 
6   0.318922 
7   0.324869 
8   0.097384 
9   -0.746195 
10   -0.634789 
11   -0.636358 
12   -0.650765 
13   0.146669 
14   0.116703 
15   0.105528 
16   0.155667 
17   0.127267 
18   0.104381 
19   0.314238 
20   0.307451 
21   0.405972 
22   0.405148 
23   0.41146 
 
>  <lowdin_charges> 
23 
1   -0.166716 
2   -0.20517 
3   -0.21955 
4   -0.227157 
5   -0.02041 
6   0.07416 
7   0.079426 
8   -0.002922 
9   -0.555455 
10   -0.373303 
11   -0.372808 
12   -0.469533 
13   0.167851 
14   0.153021 
15   0.148345 
16   0.153852 
17   0.13011 
18   0.122281 
19   0.264855 
20   0.260764 
21   0.35831 
22   0.355588 
23   0.344458 
 
$$$$ 
 
