PCCDB-ID:  764 
public computational chemistry database (PCCDB) project, http://pccdb.org 
 
 16 17  0  0  0  0  0  0  0  0999 V2000 
   -2.3467   -0.0725   -0.0225 C   0  0  0  0  0  0  0  0  0  0  0  0 
   -0.3022   -0.6670   -0.0075 C   0  0  0  0  0  0  0  0  0  0  0  0 
   -0.2794    0.7109   -0.0447 C   0  0  0  0  0  0  0  0  0  0  0  0 
    0.9678   -1.3318    0.0120 C   0  0  0  0  0  0  0  0  0  0  0  0 
    2.1448    0.6957   -0.0446 C   0  0  0  0  0  0  0  0  0  0  0  0 
    3.2728    1.3037   -0.0641 N   0  0  0  0  0  0  0  0  0  0  0  0 
   -1.5992   -1.1433    0.0057 N   0  0  0  0  0  0  0  0  0  0  0  0 
   -1.5898    1.1019   -0.0528 N   0  0  0  0  0  0  0  0  0  0  0  0 
    0.8845    1.4106   -0.0613 N   0  0  0  0  0  0  0  0  0  0  0  0 
    2.0914   -0.6882   -0.0053 N   0  0  0  0  0  0  0  0  0  0  0  0 
    1.0011   -2.6767    0.0493 O   0  0  0  0  0  0  0  0  0  0  0  0 
   -3.4271   -0.0423   -0.0229 H   0  0  0  0  0  0  0  0  0  0  0  0 
    3.1492    2.3190   -0.0941 H   0  0  0  0  0  0  0  0  0  0  0  0 
   -1.9500    2.0449   -0.0836 H   0  0  0  0  0  0  0  0  0  0  0  0 
    0.9059    2.4205   -0.0900 H   0  0  0  0  0  0  0  0  0  0  0  0 
    0.0799   -2.9940    0.0578 H   0  0  0  0  0  0  0  0  0  0  0  0 
  1  7  2  0  0  0  0 
  2  7  1  0  0  0  0 
  2  4  1  0  0  0  0 
  3  2  2  0  0  0  0 
  4 11  1  0  0  0  0 
  5 10  2  0  0  0  0 
  6  5  1  0  0  0  0 
  8  3  1  0  0  0  0 
  8  1  1  0  0  0  0 
  9  3  1  0  0  0  0 
  9  5  1  0  0  0  0 
 10  4  2  0  0  0  0 
 11 16  1  0  0  0  0 
 12  1  1  0  0  0  0 
 13  6  1  0  0  0  0 
 14  8  1  0  0  0  0 
 15  9  1  0  0  0  0 
M  RAD  1   6   2 
M  END 
>  <HBA> 
4 
 
>  <HBD> 
3 
 
>  <TPSA> 
100.45 
 
>  <cid> 
764 
 
>  <dipole> 
9.08 
 
>  <excitation_energy_1> 
4.092 
 
>  <excitation_energy_2> 
4.209 
 
>  <excitation_energy_3> 
4.862 
 
>  <excitation_energy_4> 
5.031 
 
>  <homo_energy> 
-5.502 
 
>  <homo_lumo_gap> 
4.879 
 
>  <logP> 
-0.19 
 
>  <lumo_energy> 
-0.623 
 
>  <melting_point> 
258.81 
 
>  <molecular_refractivity> 
38.91 
 
>  <oscillator_strength_1> 
0.0001 
 
>  <oscillator_strength_2> 
0.116 
 
>  <oscillator_strength_3> 
0.0041 
 
>  <oscillator_strength_4> 
0.1676 
 
>  <open_babel_can_smiles> 
[NH]C1=[N]=C(c2c(N1)[nH]cn2)O 
 
>  <mulliken_charges> 
16 
1   0.219098 
2   0.122847 
3   0.65455 
4   0.531589 
5   0.600578 
6   -0.615008 
7   -0.509835 
8   -0.672626 
9   -0.756422 
10   -0.508266 
11   -0.589527 
12   0.173294 
13   0.254068 
14   0.340948 
15   0.323776 
16   0.430936 
 
>  <lowdin_charges> 
16 
1   -0.076248 
2   -0.102411 
3   0.085771 
4   0.156915 
5   0.133767 
6   -0.422512 
7   -0.17531 
8   -0.198203 
9   -0.254218 
10   -0.188198 
11   -0.32808 
12   0.174485 
13   0.2363 
14   0.300705 
15   0.287918 
16   0.36932 
 
$$$$ 
 
