PCCDB-ID:  3516 
public computational chemistry database (PCCDB) project, http://pccdb.org 
 
 28 28  0  0  1  0  0  0  0  0999 V2000 
    1.9754   -2.2278   -2.2120 C   0  0  0  0  0  0  0  0  0  0  0  0 
    5.2453    0.3578   -2.9825 C   0  0  0  0  0  0  0  0  0  0  0  0 
    5.4316    1.4649   -2.1607 C   0  0  0  0  0  0  0  0  0  0  0  0 
    4.1916   -0.5330   -2.7485 C   0  0  0  0  0  0  0  0  0  0  0  0 
    4.5598    1.6776   -1.0890 C   0  0  0  0  0  0  0  0  0  0  0  0 
    1.7659    0.0847    3.6971 C   0  0  0  0  0  0  0  0  0  0  0  0 
    2.6918    0.2084    1.3275 C   0  0  0  0  0  0  0  0  0  0  0  0 
    1.7496    0.8137    2.3569 C   0  0  2  0  0  0  0  0  0  0  0  0 
    3.3112   -0.3176   -1.6838 C   0  0  0  0  0  0  0  0  0  0  0  0 
    3.5082    0.8016   -0.8441 C   0  0  0  0  0  0  0  0  0  0  0  0 
    0.9060    0.7195    4.6252 O   0  0  0  0  0  0  0  0  0  0  0  0 
    2.1310    2.1591    2.6458 O   0  0  0  0  0  0  0  0  0  0  0  0 
    2.2441   -1.1125   -1.3758 O   0  0  0  0  0  0  0  0  0  0  0  0 
    2.6302    1.0780    0.1819 O   0  0  0  0  0  0  0  0  0  0  0  0 
    1.0818   -2.7000   -1.8002 H   0  0  0  0  0  0  0  0  0  0  0  0 
    2.8041   -2.9481   -2.2037 H   0  0  0  0  0  0  0  0  0  0  0  0 
    1.7782   -1.9162   -3.2458 H   0  0  0  0  0  0  0  0  0  0  0  0 
    5.9165    0.1759   -3.8174 H   0  0  0  0  0  0  0  0  0  0  0  0 
    6.2473    2.1584   -2.3428 H   0  0  0  0  0  0  0  0  0  0  0  0 
    4.0590   -1.3857   -3.4049 H   0  0  0  0  0  0  0  0  0  0  0  0 
    4.6755    2.5320   -0.4284 H   0  0  0  0  0  0  0  0  0  0  0  0 
    2.8027    0.0456    4.0717 H   0  0  0  0  0  0  0  0  0  0  0  0 
    1.4073   -0.9431    3.5764 H   0  0  0  0  0  0  0  0  0  0  0  0 
    2.3844   -0.8062    1.0518 H   0  0  0  0  0  0  0  0  0  0  0  0 
    3.7202    0.1882    1.7130 H   0  0  0  0  0  0  0  0  0  0  0  0 
    0.7250    0.7923    1.9537 H   0  0  0  0  0  0  0  0  0  0  0  0 
    1.1263    1.6652    4.5733 H   0  0  0  0  0  0  0  0  0  0  0  0 
    2.2018    2.6094    1.7881 H   0  0  0  0  0  0  0  0  0  0  0  0 
  1 16  1  0  0  0  0 
  1 15  1  0  0  0  0 
  1 13  1  0  0  0  0 
  2  4  2  0  0  0  0 
  2  3  1  0  0  0  0 
  3  5  2  0  0  0  0 
  4  9  1  0  0  0  0 
  5 10  1  0  0  0  0 
  5 21  1  0  0  0  0 
  6 22  1  0  0  0  0 
  6 11  1  0  0  0  0 
  7 25  1  0  0  0  0 
  7  8  1  0  0  0  0 
  8 26  1  6  0  0  0 
  8 12  1  0  0  0  0 
  8  6  1  0  0  0  0 
  9 13  1  0  0  0  0 
  9 10  2  0  0  0  0 
 10 14  1  0  0  0  0 
 14  7  1  0  0  0  0 
 17  1  1  0  0  0  0 
 18  2  1  0  0  0  0 
 19  3  1  0  0  0  0 
 20  4  1  0  0  0  0 
 23  6  1  0  0  0  0 
 24  7  1  0  0  0  0 
 27 11  1  0  0  0  0 
 28 12  1  0  0  0  0 
M  END 
>  <HBA> 
4 
 
>  <HBD> 
2 
 
>  <TPSA> 
58.92 
 
>  <cid> 
3516 
 
>  <dipole> 
4.18 
 
>  <excitation_energy_1> 
5.033 
 
>  <excitation_energy_2> 
5.517 
 
>  <excitation_energy_3> 
5.644 
 
>  <excitation_energy_4> 
5.795 
 
>  <homo_energy> 
-6.014 
 
>  <homo_lumo_gap> 
5.957 
 
>  <logP> 
0.427 
 
>  <lumo_energy> 
-0.057 
 
>  <melting_point> 
50.44 
 
>  <molecular_refractivity> 
51.36 
 
>  <oscillator_strength_1> 
0.0441 
 
>  <oscillator_strength_2> 
0.0057 
 
>  <oscillator_strength_3> 
0.0659 
 
>  <oscillator_strength_4> 
0.0046 
 
>  <open_babel_can_smiles> 
OC[C@H](COc1ccccc1OC)O 
 
>  <mulliken_charges> 
28 
1   -0.217245 
2   -0.132764 
3   -0.141759 
4   -0.206871 
5   -0.171807 
6   -0.018153 
7   -0.038079 
8   0.089404 
9   0.34835 
10   0.317134 
11   -0.627 
12   -0.655241 
13   -0.508559 
14   -0.560643 
15   0.173045 
16   0.153741 
17   0.15667 
18   0.130735 
19   0.130954 
20   0.135671 
21   0.134304 
22   0.12281 
23   0.139695 
24   0.152577 
25   0.137064 
26   0.137903 
27   0.407732 
28   0.410334 
 
>  <lowdin_charges> 
28 
1   -0.276468 
2   -0.154552 
3   -0.171163 
4   -0.209796 
5   -0.170432 
6   -0.136082 
7   -0.139277 
8   -0.026646 
9   0.079708 
10   0.068369 
11   -0.4631 
12   -0.4765 
13   -0.195218 
14   -0.234592 
15   0.165134 
16   0.146499 
17   0.146849 
18   0.159703 
19   0.160355 
20   0.164132 
21   0.165339 
22   0.127992 
23   0.146434 
24   0.149132 
25   0.139268 
26   0.137619 
27   0.347176 
28   0.350117 
 
$$$$ 
 
