PCCDB-ID:  6335 
public computational chemistry database (PCCDB) project, http://pccdb.org 
 
  7  6  0  0  0  0  0  0  0  0999 V2000 
    1.0842    0.0174   -0.0121 C   0  0  0  0  0  0  0  0  0  0  0  0 
    3.7519    0.0175   -0.0121 C   0  0  0  0  0  0  0  0  0  0  0  0 
    2.2912    0.0178   -0.0122 C   0  0  0  0  0  0  0  0  0  0  0  0 
    0.0182    0.0171   -0.0120 H   0  0  0  0  0  0  0  0  0  0  0  0 
    4.1479    0.7282    0.7230 H   0  0  0  0  0  0  0  0  0  0  0  0 
    4.1480    0.2982   -0.9952 H   0  0  0  0  0  0  0  0  0  0  0  0 
    4.1470   -0.9747    0.2362 H   0  0  0  0  0  0  0  0  0  0  0  0 
  1  4  1  0  0  0  0 
  2  7  1  0  0  0  0 
  2  5  1  0  0  0  0 
  3  2  1  0  0  0  0 
  3  1  3  0  0  0  0 
  6  2  1  0  0  0  0 
M  END 
>  <HBA> 
0 
 
>  <HBD> 
0 
 
>  <TPSA> 
0.0 
 
>  <cid> 
6335 
 
>  <dipole> 
0.69 
 
>  <excitation_energy_1> 
6.568 
 
>  <excitation_energy_2> 
6.721 
 
>  <excitation_energy_3> 
6.721 
 
>  <excitation_energy_4> 
6.777 
 
>  <homo_energy> 
-7.061 
 
>  <homo_lumo_gap> 
8.751 
 
>  <logP> 
0.639 
 
>  <lumo_energy> 
1.69 
 
>  <melting_point> 
-7.22 
 
>  <molecular_refractivity> 
14.7 
 
>  <oscillator_strength_1> 
0.0 
 
>  <oscillator_strength_2> 
0.0016 
 
>  <oscillator_strength_3> 
0.0014 
 
>  <oscillator_strength_4> 
0.0152 
 
>  <open_babel_can_smiles> 
CC#C 
 
>  <mulliken_charges> 
7 
1   -0.460181 
2   -0.574514 
3   0.303838 
4   0.183367 
5   0.182458 
6   0.182515 
7   0.182517 
 
>  <lowdin_charges> 
7 
1   -0.26157 
2   -0.426498 
3   -0.03943 
4   0.200771 
5   0.176461 
6   0.175187 
7   0.17508 
 
$$$$ 
 
