PCCDB-ID:  2094 
public computational chemistry database (PCCDB) project, http://pccdb.org 
 
 14 15  0  0  0  0  0  0  0  0999 V2000 
   -1.6502    1.1184   -0.0040 C   0  0  0  0  0  0  0  0  0  0  0  0 
    1.9611   -0.6454   -0.0042 C   0  0  0  0  0  0  0  0  0  0  0  0 
   -0.2955    0.7835   -0.0042 C   0  0  0  0  0  0  0  0  0  0  0  0 
   -0.2731   -0.6528   -0.0009 C   0  0  0  0  0  0  0  0  0  0  0  0 
    0.9758    1.4232   -0.0064 C   0  0  0  0  0  0  0  0  0  0  0  0 
    0.8733   -1.3824   -0.0011 N   0  0  0  0  0  0  0  0  0  0  0  0 
    2.0777    0.7175   -0.0064 N   0  0  0  0  0  0  0  0  0  0  0  0 
   -2.2977   -0.0668   -0.0011 N   0  0  0  0  0  0  0  0  0  0  0  0 
   -1.5155   -1.1656    0.0010 N   0  0  0  0  0  0  0  0  0  0  0  0 
    1.1222    2.7670   -0.0103 O   0  0  0  0  0  0  0  0  0  0  0  0 
   -2.1875    2.0564   -0.0068 H   0  0  0  0  0  0  0  0  0  0  0  0 
    2.9106   -1.1763   -0.0054 H   0  0  0  0  0  0  0  0  0  0  0  0 
   -3.2994   -0.2026   -0.0000 H   0  0  0  0  0  0  0  0  0  0  0  0 
    0.2478    3.1870   -0.0065 H   0  0  0  0  0  0  0  0  0  0  0  0 
  1  8  1  0  0  0  0 
  2  6  2  0  0  0  0 
  3  1  2  0  0  0  0 
  3  4  1  0  0  0  0 
  4  9  1  0  0  0  0 
  5  7  2  0  0  0  0 
  5  3  1  0  0  0  0 
  6  4  2  0  0  0  0 
  7  2  1  0  0  0  0 
  8 13  1  0  0  0  0 
  8  9  1  0  0  0  0 
 10 14  1  0  0  0  0 
 10  5  1  0  0  0  0 
 11  1  1  0  0  0  0 
 12  2  1  0  0  0  0 
M  RAD  1   9   2 
M  END 
>  <HBA> 
3 
 
>  <HBD> 
2 
 
>  <TPSA> 
74.43 
 
>  <cid> 
2094 
 
>  <dipole> 
6.38 
 
>  <excitation_energy_1> 
4.278 
 
>  <excitation_energy_2> 
4.617 
 
>  <excitation_energy_3> 
5.266 
 
>  <excitation_energy_4> 
5.319 
 
>  <homo_energy> 
-6.528 
 
>  <homo_lumo_gap> 
5.031 
 
>  <logP> 
-0.354 
 
>  <lumo_energy> 
-1.497 
 
>  <melting_point> 
208.65 
 
>  <molecular_refractivity> 
34.51 
 
>  <oscillator_strength_1> 
0.0012 
 
>  <oscillator_strength_2> 
0.1063 
 
>  <oscillator_strength_3> 
0.0001 
 
>  <oscillator_strength_4> 
0.0231 
 
>  <open_babel_can_smiles> 
OC1=NC=[N]=c2c1c[nH][n]2 
 
>  <mulliken_charges> 
14 
1   0.011944 
2   0.15706 
3   -1.4e-05 
4   0.476778 
5   0.465458 
6   -0.449503 
7   -0.456834 
8   -0.376868 
9   -0.351862 
10   -0.581132 
11   0.173129 
12   0.157293 
13   0.36153 
14   0.413023 
 
>  <lowdin_charges> 
14 
1   -0.14914 
2   -0.028998 
3   -0.123332 
4   0.048403 
5   0.158608 
6   -0.161588 
7   -0.190584 
8   -0.069996 
9   -0.151893 
10   -0.333931 
11   0.176513 
12   0.163168 
13   0.302139 
14   0.360632 
 
$$$$ 
 
