PCCDB-ID:  527 
public computational chemistry database (PCCDB) project, http://pccdb.org 
 
 10  9  0  0  0  0  0  0  0  0999 V2000 
    0.9060   -0.0128   -0.1194 C   0  0  0  0  0  0  0  0  0  0  0  0 
    2.4387    0.0299   -0.0060 C   0  0  0  0  0  0  0  0  0  0  0  0 
    2.9813    1.4292   -0.1946 C   0  0  0  0  0  0  0  0  0  0  0  0 
    3.7196    1.9995    0.5769 O   0  0  0  0  0  0  0  0  0  0  0  0 
    0.5430   -1.0434   -0.0581 H   0  0  0  0  0  0  0  0  0  0  0  0 
    0.5654    0.4050   -1.0742 H   0  0  0  0  0  0  0  0  0  0  0  0 
    0.4337    0.5601    0.6859 H   0  0  0  0  0  0  0  0  0  0  0  0 
    2.8778   -0.6004   -0.7946 H   0  0  0  0  0  0  0  0  0  0  0  0 
    2.7873   -0.3495    0.9596 H   0  0  0  0  0  0  0  0  0  0  0  0 
    2.6421    1.9326   -1.1314 H   0  0  0  0  0  0  0  0  0  0  0  0 
  1  5  1  0  0  0  0 
  1  2  1  0  0  0  0 
  1  7  1  0  0  0  0 
  2  9  1  0  0  0  0 
  3  2  1  0  0  0  0 
  3  4  2  0  0  0  0 
  6  1  1  0  0  0  0 
  8  2  1  0  0  0  0 
 10  3  1  0  0  0  0 
M  END 
>  <HBA> 
1 
 
>  <HBD> 
0 
 
>  <TPSA> 
17.07 
 
>  <cid> 
527 
 
>  <dipole> 
2.74 
 
>  <excitation_energy_1> 
4.228 
 
>  <excitation_energy_2> 
6.646 
 
>  <excitation_energy_3> 
7.038 
 
>  <excitation_energy_4> 
7.122 
 
>  <homo_energy> 
-6.838 
 
>  <homo_lumo_gap> 
6.226 
 
>  <logP> 
0.595 
 
>  <lumo_energy> 
-0.612 
 
>  <melting_point> 
7.15 
 
>  <molecular_refractivity> 
16.73 
 
>  <oscillator_strength_1> 
0.0001 
 
>  <oscillator_strength_2> 
0.0101 
 
>  <oscillator_strength_3> 
0.0479 
 
>  <oscillator_strength_4> 
0.0168 
 
>  <open_babel_can_smiles> 
CCC=O 
 
>  <mulliken_charges> 
10 
1   -0.459595 
2   -0.325591 
3   0.262102 
4   -0.381157 
5   0.161687 
6   0.153309 
7   0.16391 
8   0.161087 
9   0.167928 
10   0.096319 
 
>  <lowdin_charges> 
10 
1   -0.441958 
2   -0.308501 
3   0.056712 
4   -0.215612 
5   0.159338 
6   0.152622 
7   0.158191 
8   0.165191 
9   0.162933 
10   0.111083 
 
$$$$ 
 
