PCCDB-ID:  750 
public computational chemistry database (PCCDB) project, http://pccdb.org 
 
 10  9  0  0  0  0  0  0  0  0999 V2000 
    1.0304    0.2862    0.2280 C   0  0  0  0  0  0  0  0  0  0  0  0 
    0.3748   -0.7429    1.1664 C   0  0  0  0  0  0  0  0  0  0  0  0 
    2.1863   -0.3047   -0.4631 N   0  0  0  0  0  0  0  0  0  0  0  0 
   -0.4491   -0.4400    1.9954 O   0  0  0  0  0  0  0  0  0  0  0  0 
    0.7875   -2.0010    0.9496 O   0  0  0  0  0  0  0  0  0  0  0  0 
    1.2551    1.1849    0.8139 H   0  0  0  0  0  0  0  0  0  0  0  0 
    0.2725    0.5688   -0.5108 H   0  0  0  0  0  0  0  0  0  0  0  0 
    3.0528   -0.0971    0.0277 H   0  0  0  0  0  0  0  0  0  0  0  0 
    2.2836    0.0509   -1.4098 H   0  0  0  0  0  0  0  0  0  0  0  0 
    1.4664   -1.9253    0.2323 H   0  0  0  0  0  0  0  0  0  0  0  0 
  1  6  1  0  0  0  0 
  1  2  1  0  0  0  0 
  2  4  2  0  0  0  0 
  3  8  1  0  0  0  0 
  3  1  1  0  0  0  0 
  5  2  1  0  0  0  0 
  7  1  1  0  0  0  0 
  9  3  1  0  0  0  0 
 10  5  1  0  0  0  0 
M  END 
>  <HBA> 
3 
 
>  <HBD> 
2 
 
>  <TPSA> 
63.32 
 
>  <cid> 
750 
 
>  <dipole> 
5.58 
 
>  <excitation_energy_1> 
5.572 
 
>  <excitation_energy_2> 
5.992 
 
>  <excitation_energy_3> 
6.812 
 
>  <excitation_energy_4> 
7.127 
 
>  <homo_energy> 
-6.89 
 
>  <homo_lumo_gap> 
7.391 
 
>  <logP> 
-0.27 
 
>  <lumo_energy> 
0.501 
 
>  <melting_point> 
107.5 
 
>  <molecular_refractivity> 
16.21 
 
>  <oscillator_strength_1> 
0.0029 
 
>  <oscillator_strength_2> 
0.0072 
 
>  <oscillator_strength_3> 
0.032 
 
>  <oscillator_strength_4> 
0.0324 
 
>  <open_babel_can_smiles> 
NCC(=O)O 
 
>  <mulliken_charges> 
10 
1   -0.257523 
2   0.594059 
3   -0.763287 
4   -0.457619 
5   -0.573239 
6   0.179973 
7   0.189953 
8   0.327975 
9   0.327536 
10   0.432171 
 
>  <lowdin_charges> 
10 
1   -0.252621 
2   0.171718 
3   -0.552068 
4   -0.256117 
5   -0.357483 
6   0.164615 
7   0.176807 
8   0.272565 
9   0.27367 
10   0.358914 
 
$$$$ 
 
