PCCDB-ID:  1367 
public computational chemistry database (PCCDB) project, http://pccdb.org 
 
 16 17  0  0  0  0  0  0  0  0999 V2000 
   -2.0957   -0.7704   -0.0026 C   0  0  0  0  0  0  0  0  0  0  0  0 
   -2.1696    0.6443    0.0659 C   0  0  0  0  0  0  0  0  0  0  0  0 
   -0.8789   -1.4289   -0.0715 C   0  0  0  0  0  0  0  0  0  0  0  0 
   -1.0350    1.4415    0.0667 C   0  0  0  0  0  0  0  0  0  0  0  0 
    0.2824   -0.6379   -0.0716 C   0  0  0  0  0  0  0  0  0  0  0  0 
    0.1900    0.7652   -0.0038 C   0  0  0  0  0  0  0  0  0  0  0  0 
    1.9629    2.4745    0.0177 N   0  0  0  0  0  0  0  0  0  0  0  0 
    1.6171   -0.9946   -0.1293 N   0  0  0  0  0  0  0  0  0  0  0  0 
    2.3322    0.0826   -0.1027 N   0  0  0  0  0  0  0  0  0  0  0  0 
    1.4961    1.1632   -0.0272 N   0  0  0  0  0  0  0  0  0  0  0  0 
   -3.0181   -1.3439   -0.0004 H   0  0  0  0  0  0  0  0  0  0  0  0 
   -3.1471    1.1156    0.1196 H   0  0  0  0  0  0  0  0  0  0  0  0 
   -0.8104   -2.5107   -0.1251 H   0  0  0  0  0  0  0  0  0  0  0  0 
   -1.0822    2.5237    0.1180 H   0  0  0  0  0  0  0  0  0  0  0  0 
    2.5284    2.6366   -0.8151 H   0  0  0  0  0  0  0  0  0  0  0  0 
    2.5761    2.5637    0.8275 H   0  0  0  0  0  0  0  0  0  0  0  0 
  1 11  1  0  0  0  0 
  1  2  2  0  0  0  0 
  2  4  1  0  0  0  0 
  2 12  1  0  0  0  0 
  3  1  1  0  0  0  0 
  4 14  1  0  0  0  0 
  5  3  2  0  0  0  0 
  5  6  1  0  0  0  0 
  6  4  2  0  0  0  0 
  7 16  1  0  0  0  0 
  8  9  2  0  0  0  0 
  8  5  1  0  0  0  0 
  9 10  1  0  0  0  0 
 10  6  1  0  0  0  0 
 10  7  1  0  0  0  0 
 13  3  1  0  0  0  0 
 15  7  1  0  0  0  0 
M  END 
>  <HBA> 
4 
 
>  <HBD> 
1 
 
>  <TPSA> 
56.73 
 
>  <cid> 
1367 
 
>  <dipole> 
2.92 
 
>  <excitation_energy_1> 
4.685 
 
>  <excitation_energy_2> 
4.774 
 
>  <excitation_energy_3> 
5.118 
 
>  <excitation_energy_4> 
5.854 
 
>  <homo_energy> 
-6.433 
 
>  <homo_lumo_gap> 
5.26 
 
>  <logP> 
0.726 
 
>  <lumo_energy> 
-1.173 
 
>  <melting_point> 
123.61 
 
>  <molecular_refractivity> 
37.67 
 
>  <oscillator_strength_1> 
0.0727 
 
>  <oscillator_strength_2> 
0.0042 
 
>  <oscillator_strength_3> 
0.1095 
 
>  <oscillator_strength_4> 
0.0042 
 
>  <open_babel_can_smiles> 
Nn1nnc2c1cccc2 
 
>  <mulliken_charges> 
16 
1   -0.146688 
2   -0.144198 
3   -0.149692 
4   -0.153428 
5   0.22927 
6   0.409767 
7   -0.558439 
8   -0.363698 
9   -0.054296 
10   -0.330302 
11   0.135256 
12   0.137245 
13   0.150948 
14   0.153746 
15   0.342284 
16   0.342224 
 
>  <lowdin_charges> 
16 
1   -0.167092 
2   -0.145828 
3   -0.141248 
4   -0.168639 
5   -0.015974 
6   0.018148 
7   -0.43398 
8   -0.124855 
9   -0.08277 
10   0.038457 
11   0.162046 
12   0.161954 
13   0.170133 
14   0.170572 
15   0.279576 
16   0.2795 
 
$$$$ 
 
