PCCDB-ID:  607 
public computational chemistry database (PCCDB) project, http://pccdb.org 
 
 24 23  0  0  1  0  0  0  0  0999 V2000 
    0.9197    0.5320    0.0719 C   0  0  1  0  0  0  0  0  0  0  0  0 
   -0.1985   -0.1470    0.9008 C   0  0  1  0  0  0  0  0  0  0  0  0 
    0.9449    2.0735   -0.0329 C   0  0  1  0  0  0  0  0  0  0  0  0 
   -1.5743   -0.2837    0.2091 C   0  0  1  0  0  0  0  0  0  0  0  0 
    0.6986    2.7855    1.3129 C   0  0  0  0  0  0  0  0  0  0  0  0 
   -2.1653    0.9546   -0.4902 C   0  0  0  0  0  0  0  0  0  0  0  0 
    2.1704    0.2118    0.6738 O   0  0  0  0  0  0  0  0  0  0  0  0 
    0.2572   -1.4693    1.1992 O   0  0  0  0  0  0  0  0  0  0  0  0 
    2.2130    2.4777   -0.5494 O   0  0  0  0  0  0  0  0  0  0  0  0 
   -1.4604   -1.3157   -0.7510 O   0  0  0  0  0  0  0  0  0  0  0  0 
   -0.3350    2.6624    1.9551 O   0  0  0  0  0  0  0  0  0  0  0  0 
    1.6835    3.5727    1.7091 O   0  0  0  0  0  0  0  0  0  0  0  0 
   -2.5804    0.8397   -1.6274 O   0  0  0  0  0  0  0  0  0  0  0  0 
   -2.2745    2.0947    0.1825 O   0  0  0  0  0  0  0  0  0  0  0  0 
    0.8818    0.1347   -0.9547 H   0  0  0  0  0  0  0  0  0  0  0  0 
   -0.3008    0.3591    1.8609 H   0  0  0  0  0  0  0  0  0  0  0  0 
    0.1756    2.4269   -0.7265 H   0  0  0  0  0  0  0  0  0  0  0  0 
   -2.2936   -0.5792    0.9899 H   0  0  0  0  0  0  0  0  0  0  0  0 
    2.0651   -0.7021    1.0053 H   0  0  0  0  0  0  0  0  0  0  0  0 
   -0.0018   -2.0126    0.4289 H   0  0  0  0  0  0  0  0  0  0  0  0 
    2.8276    1.7505   -0.3244 H   0  0  0  0  0  0  0  0  0  0  0  0 
   -1.8986   -0.9668   -1.5561 H   0  0  0  0  0  0  0  0  0  0  0  0 
    2.3589    3.5194    0.9904 H   0  0  0  0  0  0  0  0  0  0  0  0 
   -1.7047    2.1418    0.9954 H   0  0  0  0  0  0  0  0  0  0  0  0 
  1 15  1  6  0  0  0 
  1  7  1  0  0  0  0 
  1  2  1  0  0  0  0 
  2  8  1  0  0  0  0 
  2 16  1  1  0  0  0 
  3 17  1  6  0  0  0 
  3  1  1  0  0  0  0 
  3  5  1  0  0  0  0 
  4  2  1  0  0  0  0 
  4 18  1  1  0  0  0 
  5 12  1  0  0  0  0 
  5 11  2  0  0  0  0 
  6 14  1  0  0  0  0 
  6  4  1  0  0  0  0 
  7 19  1  0  0  0  0 
  9 21  1  0  0  0  0 
  9  3  1  0  0  0  0 
 10  4  1  0  0  0  0 
 13  6  2  0  0  0  0 
 14 24  1  0  0  0  0 
 20  8  1  0  0  0  0 
 22 10  1  0  0  0  0 
 23 12  1  0  0  0  0 
M  END 
>  <HBA> 
8 
 
>  <HBD> 
6 
 
>  <TPSA> 
155.52 
 
>  <cid> 
607 
 
>  <dipole> 
3.02 
 
>  <excitation_energy_1> 
5.658 
 
>  <excitation_energy_2> 
5.8 
 
>  <excitation_energy_3> 
6.259 
 
>  <excitation_energy_4> 
6.364 
 
>  <homo_energy> 
-7.783 
 
>  <homo_lumo_gap> 
7.067 
 
>  <logP> 
-3.401 
 
>  <lumo_energy> 
-0.716 
 
>  <melting_point> 
202.23 
 
>  <molecular_refractivity> 
39.15 
 
>  <oscillator_strength_1> 
0.0005 
 
>  <oscillator_strength_2> 
0.001 
 
>  <oscillator_strength_3> 
0.0036 
 
>  <oscillator_strength_4> 
0.0107 
 
>  <open_babel_can_smiles> 
O[C@H]([C@@H](C(=O)O)O)[C@@H]([C@@H](C(=O)O)O)O 
 
>  <mulliken_charges> 
24 
1   0.092032 
2   0.087199 
3   0.012155 
4   0.021081 
5   0.6324 
6   0.579568 
7   -0.677458 
8   -0.651611 
9   -0.662301 
10   -0.665567 
11   -0.501986 
12   -0.544214 
13   -0.468773 
14   -0.591277 
15   0.152088 
16   0.177701 
17   0.204714 
18   0.180717 
19   0.429538 
20   0.42891 
21   0.439074 
22   0.428029 
23   0.438954 
24   0.459026 
 
>  <lowdin_charges> 
24 
1   -0.030249 
2   -0.041204 
3   -0.059417 
4   -0.056834 
5   0.19652 
6   0.169779 
7   -0.475303 
8   -0.452618 
9   -0.451314 
10   -0.467731 
11   -0.280309 
12   -0.303621 
13   -0.255153 
14   -0.339905 
15   0.144277 
16   0.168107 
17   0.183512 
18   0.16756 
19   0.35902 
20   0.357847 
21   0.363697 
22   0.361734 
23   0.371963 
24   0.369642 
 
$$$$ 
 
