PCCDB-ID:  5718 
public computational chemistry database (PCCDB) project, http://pccdb.org 
 
 28 29  0  0  1  0  0  0  0  0999 V2000 
   -0.6013   -1.2178    0.0798 C   0  0  0  0  0  0  0  0  0  0  0  0 
    0.8922   -1.2566    0.4400 C   0  0  0  0  0  0  0  0  0  0  0  0 
    1.5369    0.9440   -3.6282 C   0  0  0  0  0  0  0  0  0  0  0  0 
    1.0877    0.8886   -2.3595 C   0  0  0  0  0  0  0  0  0  0  0  0 
   -1.5489    0.5131    1.7440 C   0  0  0  0  0  0  0  0  0  0  0  0 
   -0.9817    0.2439    0.3518 C   0  0  1  0  0  0  0  0  0  0  0  0 
    2.8142    0.3210   -4.0057 C   0  0  0  0  0  0  0  0  0  0  0  0 
    1.3663    0.1516    0.0510 C   0  0  1  0  0  0  0  0  0  0  0  0 
    3.0274   -0.2850   -1.7657 C   0  0  0  0  0  0  0  0  0  0  0  0 
    3.3328    0.2788   -5.1824 N   0  0  0  0  0  0  0  0  0  0  0  0 
    3.5263   -0.2760   -2.9462 N   0  0  0  0  0  0  0  0  0  0  0  0 
    1.8146    0.2340   -1.3711 N   0  0  0  0  0  0  0  0  0  0  0  0 
   -1.6920    1.8987    1.9828 O   0  0  0  0  0  0  0  0  0  0  0  0 
    3.7127   -0.8530   -0.7437 O   0  0  0  0  0  0  0  0  0  0  0  0 
    0.2624    1.0021    0.2438 O   0  0  0  0  0  0  0  0  0  0  0  0 
   -1.1973   -1.9173    0.6746 H   0  0  0  0  0  0  0  0  0  0  0  0 
   -0.7520   -1.4659   -0.9756 H   0  0  0  0  0  0  0  0  0  0  0  0 
    1.4535   -2.0414   -0.0689 H   0  0  0  0  0  0  0  0  0  0  0  0 
    1.0318   -1.3874    1.5188 H   0  0  0  0  0  0  0  0  0  0  0  0 
    0.9539    1.4666   -4.3795 H   0  0  0  0  0  0  0  0  0  0  0  0 
    0.1717    1.3520   -2.0210 H   0  0  0  0  0  0  0  0  0  0  0  0 
   -0.9056    0.0337    2.5020 H   0  0  0  0  0  0  0  0  0  0  0  0 
   -2.5477    0.0706    1.8263 H   0  0  0  0  0  0  0  0  0  0  0  0 
   -1.6692    0.6550   -0.3957 H   0  0  0  0  0  0  0  0  0  0  0  0 
    2.1971    0.5055    0.6650 H   0  0  0  0  0  0  0  0  0  0  0  0 
    2.7063    0.7515   -5.8409 H   0  0  0  0  0  0  0  0  0  0  0  0 
   -0.8276    2.2943    1.7804 H   0  0  0  0  0  0  0  0  0  0  0  0 
    4.5434   -1.1626   -1.1507 H   0  0  0  0  0  0  0  0  0  0  0  0 
  1  6  1  0  0  0  0 
  1  2  1  0  0  0  0 
  1 16  1  0  0  0  0 
  2 19  1  0  0  0  0 
  3  4  2  0  0  0  0 
  4 21  1  0  0  0  0 
  4 12  1  0  0  0  0 
  5 23  1  0  0  0  0 
  5 13  1  0  0  0  0 
  5 22  1  0  0  0  0 
  6 24  1  6  0  0  0 
  6  5  1  0  0  0  0 
  7  3  1  0  0  0  0 
  7 11  2  0  0  0  0 
  8 15  1  0  0  0  0 
  8  2  1  0  0  0  0 
  8 25  1  1  0  0  0 
  9 12  1  0  0  0  0 
  9 14  1  0  0  0  0 
 10  7  1  0  0  0  0 
 11  9  2  0  0  0  0 
 12  8  1  0  0  0  0 
 15  6  1  0  0  0  0 
 17  1  1  0  0  0  0 
 18  2  1  0  0  0  0 
 20  3  1  0  0  0  0 
 26 10  1  0  0  0  0 
 27 13  1  0  0  0  0 
 28 14  1  0  0  0  0 
M  RAD  1  10   2 
M  END 
>  <HBA> 
6 
 
>  <HBD> 
2 
 
>  <TPSA> 
90.37 
 
>  <cid> 
5718 
 
>  <dipole> 
5.0 
 
>  <excitation_energy_1> 
4.451 
 
>  <excitation_energy_2> 
4.894 
 
>  <excitation_energy_3> 
4.98 
 
>  <excitation_energy_4> 
5.178 
 
>  <homo_energy> 
-5.578 
 
>  <homo_lumo_gap> 
5.246 
 
>  <logP> 
0.077 
 
>  <lumo_energy> 
-0.332 
 
>  <melting_point> 
136.18 
 
>  <molecular_refractivity> 
53.52 
 
>  <oscillator_strength_1> 
0.0297 
 
>  <oscillator_strength_2> 
0.0127 
 
>  <oscillator_strength_3> 
0.0035 
 
>  <oscillator_strength_4> 
0.0712 
 
>  <open_babel_can_smiles> 
[NH]C1=[N]=C(N(C=C1)[C@@H]1CC[C@H](O1)CO)O 
 
>  <mulliken_charges> 
28 
1   -0.326574 
2   -0.300765 
3   -0.203828 
4   0.06791 
5   -0.029272 
6   0.116125 
7   0.412705 
8   0.287056 
9   0.720763 
10   -0.626279 
11   -0.523589 
12   -0.514904 
13   -0.617098 
14   -0.623765 
15   -0.529014 
16   0.163784 
17   0.1673 
18   0.180936 
19   0.16028 
20   0.138164 
21   0.182999 
22   0.120763 
23   0.149547 
24   0.151618 
25   0.176628 
26   0.264945 
27   0.403587 
28   0.429978 
 
>  <lowdin_charges> 
28 
1   -0.294646 
2   -0.29349 
3   -0.231693 
4   -0.091893 
5   -0.146217 
6   -0.017251 
7   0.078351 
8   0.066653 
9   0.167541 
10   -0.415454 
11   -0.219416 
12   -0.074757 
13   -0.460369 
14   -0.363251 
15   -0.267449 
16   0.164795 
17   0.15905 
18   0.172474 
19   0.156278 
20   0.169859 
21   0.18107 
22   0.129023 
23   0.152084 
24   0.150124 
25   0.163928 
26   0.243095 
27   0.345962 
28   0.375599 
 
$$$$ 
 
