PCCDB-ID:  205 
public computational chemistry database (PCCDB) project, http://pccdb.org 
 
 17 16  0  0  1  0  0  0  0  0999 V2000 
    1.4527    0.3263    0.4770 C   0  0  0  0  0  0  0  0  0  0  0  0 
    2.8588   -0.2562    0.4457 C   0  0  1  0  0  0  0  0  0  0  0  0 
    3.3734   -0.5356   -0.9854 C   0  0  1  0  0  0  0  0  0  0  0  0 
    4.7702   -1.2179   -0.9969 C   0  0  0  0  0  0  0  0  0  0  0  0 
    2.3864   -1.2913   -1.7475 N   0  0  0  0  0  0  0  0  0  0  0  0 
    3.8014    0.6823    1.0192 O   0  0  0  0  0  0  0  0  0  0  0  0 
    5.0043   -2.1713   -1.7044 O   0  0  0  0  0  0  0  0  0  0  0  0 
    5.7110   -0.6821   -0.2013 O   0  0  0  0  0  0  0  0  0  0  0  0 
    0.7373   -0.3741    0.0418 H   0  0  0  0  0  0  0  0  0  0  0  0 
    1.4171    1.2586   -0.0967 H   0  0  0  0  0  0  0  0  0  0  0  0 
    1.1539    0.5442    1.5102 H   0  0  0  0  0  0  0  0  0  0  0  0 
    2.8881   -1.1936    1.0238 H   0  0  0  0  0  0  0  0  0  0  0  0 
    3.4926    0.4490   -1.4599 H   0  0  0  0  0  0  0  0  0  0  0  0 
    2.4799   -2.2769   -1.4976 H   0  0  0  0  0  0  0  0  0  0  0  0 
    2.6584   -1.2660   -2.7287 H   0  0  0  0  0  0  0  0  0  0  0  0 
    3.6276    0.7539    1.9705 H   0  0  0  0  0  0  0  0  0  0  0  0 
    5.2851    0.0100    0.3573 H   0  0  0  0  0  0  0  0  0  0  0  0 
  1 11  1  0  0  0  0 
  2  1  1  0  0  0  0 
  2  6  1  0  0  0  0 
  2 12  1  1  0  0  0 
  3 13  1  6  0  0  0 
  3  2  1  0  0  0  0 
  4  3  1  0  0  0  0 
  4  8  1  0  0  0  0 
  5 14  1  0  0  0  0 
  5  3  1  0  0  0  0 
  6 16  1  0  0  0  0 
  7  4  2  0  0  0  0 
  8 17  1  0  0  0  0 
  9  1  1  0  0  0  0 
 10  1  1  0  0  0  0 
 15  5  1  0  0  0  0 
M  END 
>  <HBA> 
4 
 
>  <HBD> 
3 
 
>  <TPSA> 
83.55 
 
>  <cid> 
205 
 
>  <dipole> 
4.38 
 
>  <excitation_energy_1> 
5.63 
 
>  <excitation_energy_2> 
5.973 
 
>  <excitation_energy_3> 
6.102 
 
>  <excitation_energy_4> 
6.382 
 
>  <homo_energy> 
-6.808 
 
>  <homo_lumo_gap> 
7.26 
 
>  <logP> 
-0.521 
 
>  <lumo_energy> 
0.452 
 
>  <melting_point> 
124.79 
 
>  <molecular_refractivity> 
26.98 
 
>  <oscillator_strength_1> 
0.0013 
 
>  <oscillator_strength_2> 
0.0003 
 
>  <oscillator_strength_3> 
0.008 
 
>  <oscillator_strength_4> 
0.0013 
 
>  <open_babel_can_smiles> 
C[C@@H]([C@@H](C(=O)O)N)O 
 
>  <mulliken_charges> 
17 
1   -0.439374 
2   0.119775 
3   -0.108893 
4   0.570658 
5   -0.699028 
6   -0.650095 
7   -0.46148 
8   -0.586236 
9   0.183673 
10   0.158049 
11   0.13144 
12   0.134141 
13   0.17243 
14   0.308199 
15   0.317334 
16   0.411369 
17   0.438037 
 
>  <lowdin_charges> 
17 
1   -0.453049 
2   -0.002285 
3   -0.120619 
4   0.164487 
5   -0.525848 
6   -0.462694 
7   -0.260707 
8   -0.363314 
9   0.176444 
10   0.159695 
11   0.14476 
12   0.134396 
13   0.164984 
14   0.259872 
15   0.267684 
16   0.355297 
17   0.360899 
 
$$$$ 
 
