PCCDB-ID:  1531 
public computational chemistry database (PCCDB) project, http://pccdb.org 
 
 18 17  0  0  0  0  0  0  0  0999 V2000 
    0.8885   -0.2287   -0.0409 C   0  0  0  0  0  0  0  0  0  0  0  0 
    2.5894    1.6333   -0.1947 C   0  0  0  0  0  0  0  0  0  0  0  0 
    2.9815   -0.2686    1.3916 C   0  0  0  0  0  0  0  0  0  0  0  0 
    2.3808    0.1283    0.0233 C   0  0  0  0  0  0  0  0  0  0  0  0 
    3.1963   -0.5689   -0.9953 N   0  0  0  0  0  0  0  0  0  0  0  0 
    2.1912    1.9543   -1.5300 O   0  0  0  0  0  0  0  0  0  0  0  0 
    4.3831   -0.0955    1.4045 O   0  0  0  0  0  0  0  0  0  0  0  0 
    0.3287    0.2502    0.7727 H   0  0  0  0  0  0  0  0  0  0  0  0 
    0.7454   -1.3128    0.0511 H   0  0  0  0  0  0  0  0  0  0  0  0 
    0.4544    0.0998   -0.9900 H   0  0  0  0  0  0  0  0  0  0  0  0 
    3.6475    1.8695   -0.0278 H   0  0  0  0  0  0  0  0  0  0  0  0 
    1.9880    2.1910    0.5394 H   0  0  0  0  0  0  0  0  0  0  0  0 
    2.7037   -1.3176    1.6026 H   0  0  0  0  0  0  0  0  0  0  0  0 
    2.5589    0.3477    2.1944 H   0  0  0  0  0  0  0  0  0  0  0  0 
    3.0721   -0.0940   -1.8884 H   0  0  0  0  0  0  0  0  0  0  0  0 
    2.8616   -1.5243   -1.1155 H   0  0  0  0  0  0  0  0  0  0  0  0 
    2.5115    2.8455   -1.7315 H   0  0  0  0  0  0  0  0  0  0  0  0 
    4.6507   -0.3922    0.5097 H   0  0  0  0  0  0  0  0  0  0  0  0 
  1  4  1  0  0  0  0 
  1  9  1  0  0  0  0 
  1  8  1  0  0  0  0 
  2 11  1  0  0  0  0 
  2  4  1  0  0  0  0 
  2 12  1  0  0  0  0 
  3  7  1  0  0  0  0 
  3 13  1  0  0  0  0 
  3 14  1  0  0  0  0 
  4  3  1  0  0  0  0 
  5  4  1  0  0  0  0 
  6  2  1  0  0  0  0 
 10  1  1  0  0  0  0 
 15  5  1  0  0  0  0 
 16  5  1  0  0  0  0 
 17  6  1  0  0  0  0 
 18  7  1  0  0  0  0 
M  END 
>  <HBA> 
3 
 
>  <HBD> 
3 
 
>  <TPSA> 
66.48 
 
>  <cid> 
1531 
 
>  <dipole> 
2.23 
 
>  <excitation_energy_1> 
6.031 
 
>  <excitation_energy_2> 
6.348 
 
>  <excitation_energy_3> 
6.465 
 
>  <excitation_energy_4> 
6.609 
 
>  <homo_energy> 
-6.634 
 
>  <homo_lumo_gap> 
8.297 
 
>  <logP> 
-0.611 
 
>  <lumo_energy> 
1.663 
 
>  <melting_point> 
77.27 
 
>  <molecular_refractivity> 
26.41 
 
>  <oscillator_strength_1> 
0.0193 
 
>  <oscillator_strength_2> 
0.0148 
 
>  <oscillator_strength_3> 
0.0025 
 
>  <oscillator_strength_4> 
0.0072 
 
>  <open_babel_can_smiles> 
OCC(CO)(N)C 
 
>  <mulliken_charges> 
18 
1   -0.460897 
2   -0.0344 
3   -0.003864 
4   0.141807 
5   -0.76228 
6   -0.632952 
7   -0.634744 
8   0.14094 
9   0.134903 
10   0.167799 
11   0.147302 
12   0.124196 
13   0.108946 
14   0.131968 
15   0.325964 
16   0.299636 
17   0.399956 
18   0.40572 
 
>  <lowdin_charges> 
18 
1   -0.457345 
2   -0.142942 
3   -0.140589 
4   0.032972 
5   -0.549878 
6   -0.476493 
7   -0.47683 
8   0.151575 
9   0.143763 
10   0.162467 
11   0.142719 
12   0.134058 
13   0.121244 
14   0.142793 
15   0.268237 
16   0.255427 
17   0.349481 
18   0.339343 
 
$$$$ 
 
