PCCDB-ID:  2554 
public computational chemistry database (PCCDB) project, http://pccdb.org 
 
 30 32  0  0  0  0  0  0  0  0999 V2000 
   -3.7015    0.0289    0.7025 C   0  0  0  0  0  0  0  0  0  0  0  0 
    3.6855   -0.0297    0.7894 C   0  0  0  0  0  0  0  0  0  0  0  0 
   -3.3421   -1.3030    0.4759 C   0  0  0  0  0  0  0  0  0  0  0  0 
    3.3082   -1.3561    0.5594 C   0  0  0  0  0  0  0  0  0  0  0  0 
   -2.8213    1.0497    0.3633 C   0  0  0  0  0  0  0  0  0  0  0  0 
    2.8312    1.0066    0.4300 C   0  0  0  0  0  0  0  0  0  0  0  0 
   -2.1079   -1.5984   -0.0972 C   0  0  0  0  0  0  0  0  0  0  0  0 
    2.0802   -1.6294   -0.0394 C   0  0  0  0  0  0  0  0  0  0  0  0 
   -0.6550    1.8860   -0.4867 C   0  0  0  0  0  0  0  0  0  0  0  0 
    0.6965    1.8792   -0.4716 C   0  0  0  0  0  0  0  0  0  0  0  0 
   -1.5618    0.7747   -0.2042 C   0  0  0  0  0  0  0  0  0  0  0  0 
    1.5795    0.7553   -0.1652 C   0  0  0  0  0  0  0  0  0  0  0  0 
   -1.2285   -0.5731   -0.4539 C   0  0  0  0  0  0  0  0  0  0  0  0 
    1.2265   -0.5875   -0.4173 C   0  0  0  0  0  0  0  0  0  0  0  0 
    0.0656   -1.3091   -2.4315 C   0  0  0  0  0  0  0  0  0  0  0  0 
    1.0832   -1.5081   -3.1771 N   0  0  0  0  0  0  0  0  0  0  0  0 
    0.0091   -0.8909   -1.1043 N   0  0  0  0  0  0  0  0  0  0  0  0 
   -1.1769   -1.5267   -2.9322 O   0  0  0  0  0  0  0  0  0  0  0  0 
   -4.6655    0.2681    1.1428 H   0  0  0  0  0  0  0  0  0  0  0  0 
    4.6439    0.1934    1.2499 H   0  0  0  0  0  0  0  0  0  0  0  0 
   -4.0253   -2.1071    0.7341 H   0  0  0  0  0  0  0  0  0  0  0  0 
    3.9698   -2.1716    0.8370 H   0  0  0  0  0  0  0  0  0  0  0  0 
   -3.0958    2.0857    0.5469 H   0  0  0  0  0  0  0  0  0  0  0  0 
    3.1212    2.0374    0.6184 H   0  0  0  0  0  0  0  0  0  0  0  0 
   -1.8227   -2.6247   -0.3043 H   0  0  0  0  0  0  0  0  0  0  0  0 
    1.7752   -2.6516   -0.2424 H   0  0  0  0  0  0  0  0  0  0  0  0 
   -1.1411    2.8497   -0.6298 H   0  0  0  0  0  0  0  0  0  0  0  0 
    1.1985    2.8362   -0.6034 H   0  0  0  0  0  0  0  0  0  0  0  0 
    1.9580   -1.2922   -2.7033 H   0  0  0  0  0  0  0  0  0  0  0  0 
   -1.0132   -1.7918   -3.8548 H   0  0  0  0  0  0  0  0  0  0  0  0 
  1 19  1  0  0  0  0 
  2 20  1  0  0  0  0 
  3  1  1  0  0  0  0 
  3 21  1  0  0  0  0 
  4  2  1  0  0  0  0 
  4 22  1  0  0  0  0 
  5 23  1  0  0  0  0 
  5  1  2  0  0  0  0 
  6 24  1  0  0  0  0 
  6  2  2  0  0  0  0 
  7  3  2  0  0  0  0 
  8  4  2  0  0  0  0 
  9 10  2  0  0  0  0 
  9 11  1  0  0  0  0 
 10 12  1  0  0  0  0 
 11  5  1  0  0  0  0 
 12  6  1  0  0  0  0 
 13 11  2  0  0  0  0 
 13  7  1  0  0  0  0 
 14 12  2  0  0  0  0 
 14  8  1  0  0  0  0 
 15 17  1  0  0  0  0 
 16 29  1  0  0  0  0 
 16 15  2  0  0  0  0 
 17 13  1  0  0  0  0 
 17 14  1  0  0  0  0 
 18 15  1  0  0  0  0 
 25  7  1  0  0  0  0 
 26  8  1  0  0  0  0 
 27  9  1  0  0  0  0 
 28 10  1  0  0  0  0 
 30 18  1  0  0  0  0 
M  END 
>  <HBA> 
2 
 
>  <HBD> 
1 
 
>  <TPSA> 
46.33 
 
>  <cid> 
2554 
 
>  <dipole> 
2.41 
 
>  <excitation_energy_1> 
3.659 
 
>  <excitation_energy_2> 
4.244 
 
>  <excitation_energy_3> 
4.339 
 
>  <excitation_energy_4> 
4.644 
 
>  <homo_energy> 
-5.761 
 
>  <homo_lumo_gap> 
4.395 
 
>  <logP> 
4.152 
 
>  <lumo_energy> 
-1.366 
 
>  <melting_point> 
196.4 
 
>  <molecular_refractivity> 
76.05 
 
>  <oscillator_strength_1> 
0.0432 
 
>  <oscillator_strength_2> 
0.2794 
 
>  <oscillator_strength_3> 
0.0049 
 
>  <oscillator_strength_4> 
0.023 
 
>  <open_babel_can_smiles> 
OC(=N)N1c2ccccc2C=Cc2c1cccc2 
 
>  <mulliken_charges> 
30 
1   -0.118245 
2   -0.118236 
3   -0.14748 
4   -0.144787 
5   -0.211012 
6   -0.210611 
7   -0.116541 
8   -0.134912 
9   -0.189636 
10   -0.193185 
11   0.196051 
12   0.200872 
13   0.197565 
14   0.145646 
15   0.653202 
16   -0.670881 
17   -0.623813 
18   -0.60124 
19   0.132812 
20   0.13596 
21   0.135126 
22   0.138852 
23   0.133217 
24   0.136415 
25   0.139881 
26   0.147721 
27   0.137695 
28   0.137031 
29   0.292165 
30   0.420368 
 
>  <lowdin_charges> 
30 
1   -0.153909 
2   -0.15218 
3   -0.153576 
4   -0.155579 
5   -0.153169 
6   -0.152566 
7   -0.147866 
8   -0.159294 
9   -0.151948 
10   -0.159836 
11   -0.009728 
12   -0.007245 
13   0.052086 
14   0.040794 
15   0.168094 
16   -0.491334 
17   -0.099388 
18   -0.368433 
19   0.159941 
20   0.161449 
21   0.162243 
22   0.163895 
23   0.157936 
24   0.159619 
25   0.166068 
26   0.168657 
27   0.162468 
28   0.162236 
29   0.263365 
30   0.367201 
 
$$$$ 
 
