PCCDB-ID:  335 
public computational chemistry database (PCCDB) project, http://pccdb.org 
 
 16 16  0  0  0  0  0  0  0  0999 V2000 
    1.0217   -0.0481    0.0004 C   0  0  0  0  0  0  0  0  0  0  0  0 
    4.6498   -1.2759   -0.1975 C   0  0  0  0  0  0  0  0  0  0  0  0 
    5.3425   -0.0687   -0.2609 C   0  0  0  0  0  0  0  0  0  0  0  0 
    3.2545   -1.2636   -0.1140 C   0  0  0  0  0  0  0  0  0  0  0  0 
    4.6412    1.1383   -0.2397 C   0  0  0  0  0  0  0  0  0  0  0  0 
    2.5264   -0.0720   -0.0905 C   0  0  0  0  0  0  0  0  0  0  0  0 
    3.2474    1.1342   -0.1555 C   0  0  0  0  0  0  0  0  0  0  0  0 
    2.5122    2.2928   -0.1328 O   0  0  0  0  0  0  0  0  0  0  0  0 
    0.6186   -1.0631    0.0678 H   0  0  0  0  0  0  0  0  0  0  0  0 
    0.5761    0.4419   -0.8740 H   0  0  0  0  0  0  0  0  0  0  0  0 
    0.6839    0.5165    0.8777 H   0  0  0  0  0  0  0  0  0  0  0  0 
    5.1867   -2.2199   -0.2136 H   0  0  0  0  0  0  0  0  0  0  0  0 
    6.4271   -0.0575   -0.3262 H   0  0  0  0  0  0  0  0  0  0  0  0 
    2.7108   -2.2045   -0.0637 H   0  0  0  0  0  0  0  0  0  0  0  0 
    5.1759    2.0859   -0.2887 H   0  0  0  0  0  0  0  0  0  0  0  0 
    3.1188    3.0482   -0.1746 H   0  0  0  0  0  0  0  0  0  0  0  0 
  1  9  1  0  0  0  0 
  1 11  1  0  0  0  0 
  2  4  2  0  0  0  0 
  3  5  2  0  0  0  0 
  3  2  1  0  0  0  0 
  4  6  1  0  0  0  0 
  4 14  1  0  0  0  0 
  5  7  1  0  0  0  0 
  6  1  1  0  0  0  0 
  7  8  1  0  0  0  0 
  7  6  2  0  0  0  0 
 10  1  1  0  0  0  0 
 12  2  1  0  0  0  0 
 13  3  1  0  0  0  0 
 15  5  1  0  0  0  0 
 16  8  1  0  0  0  0 
M  END 
>  <HBA> 
1 
 
>  <HBD> 
1 
 
>  <TPSA> 
20.23 
 
>  <cid> 
335 
 
>  <dipole> 
1.16 
 
>  <excitation_energy_1> 
5.051 
 
>  <excitation_energy_2> 
5.122 
 
>  <excitation_energy_3> 
5.752 
 
>  <excitation_energy_4> 
5.773 
 
>  <homo_energy> 
-5.823 
 
>  <homo_lumo_gap> 
6.003 
 
>  <logP> 
1.701 
 
>  <lumo_energy> 
0.18 
 
>  <melting_point> 
48.13 
 
>  <molecular_refractivity> 
33.43 
 
>  <oscillator_strength_1> 
0.0391 
 
>  <oscillator_strength_2> 
0.0004 
 
>  <oscillator_strength_3> 
0.0048 
 
>  <oscillator_strength_4> 
0.019 
 
>  <open_babel_can_smiles> 
Cc1ccccc1O 
 
>  <mulliken_charges> 
16 
1   -0.513116 
2   -0.129797 
3   -0.138704 
4   -0.191932 
5   -0.189462 
6   0.141466 
7   0.293503 
8   -0.643533 
9   0.146593 
10   0.16599 
11   0.166355 
12   0.123406 
13   0.12723 
14   0.121487 
15   0.11403 
16   0.406484 
 
>  <lowdin_charges> 
16 
1   -0.437388 
2   -0.179675 
3   -0.149537 
4   -0.158357 
5   -0.214495 
6   -0.026865 
7   0.093562 
8   -0.383597 
9   0.153264 
10   0.163841 
11   0.164003 
12   0.156376 
13   0.155026 
14   0.155011 
15   0.151065 
16   0.357766 
 
$$$$ 
 
