PCCDB-ID:  4032 
public computational chemistry database (PCCDB) project, http://pccdb.org 
 
 33 34  0  0  1  0  0  0  0  0999 V2000 
    0.8977    0.3211   -0.0974 C   0  0  0  0  0  0  0  0  0  0  0  0 
    2.8409    0.7305   -1.5426 C   0  0  0  0  0  0  0  0  0  0  0  0 
    3.8128   -1.9300   -0.9798 C   0  0  0  0  0  0  0  0  0  0  0  0 
    1.1081   -2.5782    1.5199 C   0  0  0  0  0  0  0  0  0  0  0  0 
    4.6173    1.0494    0.9039 C   0  0  0  0  0  0  0  0  0  0  0  0 
    5.0666   -0.4085    1.2395 C   0  0  0  0  0  0  0  0  0  0  0  0 
    2.9367   -0.0229    2.1961 C   0  0  0  0  0  0  0  0  0  0  0  0 
    3.0753    0.9733    1.0262 C   0  0  2  0  0  0  0  0  0  0  0  0 
    3.7251   -1.1438    1.4815 C   0  0  1  0  0  0  0  0  0  0  0  0 
    2.4336    0.1795   -0.1615 C   0  0  0  0  0  0  0  0  0  0  0  0 
    2.9378   -1.3401    0.1454 C   0  0  1  0  0  0  0  0  0  0  0  0 
    1.8872   -2.3696    0.3102 N   0  0  0  0  0  0  0  0  0  0  0  0 
    0.6144    1.3571   -0.3205 H   0  0  0  0  0  0  0  0  0  0  0  0 
    0.4774    0.0739    0.8795 H   0  0  0  0  0  0  0  0  0  0  0  0 
    0.4025   -0.3130   -0.8425 H   0  0  0  0  0  0  0  0  0  0  0  0 
    2.5226    1.7768   -1.6351 H   0  0  0  0  0  0  0  0  0  0  0  0 
    2.3499    0.1716   -2.3485 H   0  0  0  0  0  0  0  0  0  0  0  0 
    3.9148    0.7002   -1.7364 H   0  0  0  0  0  0  0  0  0  0  0  0 
    4.6196   -1.2719   -1.3090 H   0  0  0  0  0  0  0  0  0  0  0  0 
    3.1986   -2.1548   -1.8605 H   0  0  0  0  0  0  0  0  0  0  0  0 
    4.2490   -2.8740   -0.6387 H   0  0  0  0  0  0  0  0  0  0  0  0 
    0.5112   -3.4870    1.3782 H   0  0  0  0  0  0  0  0  0  0  0  0 
    0.4103   -1.7720    1.8079 H   0  0  0  0  0  0  0  0  0  0  0  0 
    1.7681   -2.7626    2.3721 H   0  0  0  0  0  0  0  0  0  0  0  0 
    4.9621    1.3890   -0.0762 H   0  0  0  0  0  0  0  0  0  0  0  0 
    5.0120    1.7607    1.6386 H   0  0  0  0  0  0  0  0  0  0  0  0 
    5.6581   -0.4310    2.1620 H   0  0  0  0  0  0  0  0  0  0  0  0 
    5.6829   -0.8627    0.4604 H   0  0  0  0  0  0  0  0  0  0  0  0 
    1.9054   -0.2760    2.4465 H   0  0  0  0  0  0  0  0  0  0  0  0 
    3.4340    0.3224    3.1107 H   0  0  0  0  0  0  0  0  0  0  0  0 
    2.6056    1.9530    1.1719 H   0  0  0  0  0  0  0  0  0  0  0  0 
    3.8525   -2.0848    2.0248 H   0  0  0  0  0  0  0  0  0  0  0  0 
    1.2832   -2.3771   -0.5054 H   0  0  0  0  0  0  0  0  0  0  0  0 
  1 14  1  0  0  0  0 
  2 10  1  0  0  0  0 
  3 21  1  0  0  0  0 
  4 23  1  0  0  0  0 
  4 24  1  0  0  0  0 
  5  8  1  0  0  0  0 
  5  6  1  0  0  0  0 
  5 26  1  0  0  0  0 
  6  9  1  0  0  0  0 
  6 27  1  0  0  0  0 
  7 29  1  0  0  0  0 
  7 30  1  0  0  0  0 
  8 31  1  1  0  0  0 
  8  7  1  0  0  0  0 
  9 32  1  1  0  0  0 
  9  7  1  0  0  0  0 
 10  1  1  0  0  0  0 
 10 11  1  0  0  0  0 
 10  8  1  0  0  0  0 
 11  3  1  6  0  0  0 
 11 12  1  0  0  0  0 
 11  9  1  0  0  0  0 
 12  4  1  0  0  0  0 
 13  1  1  0  0  0  0 
 15  1  1  0  0  0  0 
 16  2  1  0  0  0  0 
 17  2  1  0  0  0  0 
 18  2  1  0  0  0  0 
 19  3  1  0  0  0  0 
 20  3  1  0  0  0  0 
 22  4  1  0  0  0  0 
 25  5  1  0  0  0  0 
 28  6  1  0  0  0  0 
 33 12  1  0  0  0  0 
M  END 
>  <HBA> 
1 
 
>  <HBD> 
1 
 
>  <TPSA> 
12.03 
 
>  <cid> 
4032 
 
>  <dipole> 
0.61 
 
>  <excitation_energy_1> 
4.928 
 
>  <excitation_energy_2> 
5.239 
 
>  <excitation_energy_3> 
5.4 
 
>  <excitation_energy_4> 
5.533 
 
>  <homo_energy> 
-5.415 
 
>  <homo_lumo_gap> 
7.344 
 
>  <logP> 
2.812 
 
>  <lumo_energy> 
1.929 
 
>  <melting_point> 
72.16 
 
>  <molecular_refractivity> 
53.34 
 
>  <oscillator_strength_1> 
0.0005 
 
>  <oscillator_strength_2> 
0.0086 
 
>  <oscillator_strength_3> 
0.0122 
 
>  <oscillator_strength_4> 
0.0394 
 
>  <open_babel_can_smiles> 
CN[C@]1(C)[C@H]2CC[C@@H](C1(C)C)C2 
 
>  <mulliken_charges> 
33 
1   -0.4588 
2   -0.461956 
3   -0.446803 
4   -0.29774 
5   -0.279441 
6   -0.281863 
7   -0.289561 
8   -0.099692 
9   -0.119247 
10   0.094559 
11   0.229778 
12   -0.579778 
13   0.137536 
14   0.14708 
15   0.127173 
16   0.136731 
17   0.13537 
18   0.144966 
19   0.136101 
20   0.128581 
21   0.151135 
22   0.143598 
23   0.120762 
24   0.155116 
25   0.135131 
26   0.132662 
27   0.133502 
28   0.139488 
29   0.138831 
30   0.128187 
31   0.106855 
32   0.121145 
33   0.290591 
 
>  <lowdin_charges> 
33 
1   -0.444223 
2   -0.444404 
3   -0.446479 
4   -0.362422 
5   -0.29026 
6   -0.287676 
7   -0.288524 
8   -0.132664 
9   -0.135782 
10   -0.008303 
11   0.063629 
12   -0.362107 
13   0.145922 
14   0.14878 
15   0.14231 
16   0.145965 
17   0.146858 
18   0.145774 
19   0.144674 
20   0.144656 
21   0.155184 
22   0.148911 
23   0.118254 
24   0.150414 
25   0.143621 
26   0.145131 
27   0.144548 
28   0.147948 
29   0.145524 
30   0.142409 
31   0.135991 
32   0.143185 
33   0.253157 
 
$$$$ 
 
