PCCDB-ID:  4376 
public computational chemistry database (PCCDB) project, http://pccdb.org 
 
 19 18  0  0  1  0  0  0  0  0999 V2000 
    5.9282    0.3251    0.2743 C   0  0  0  0  0  0  0  0  0  0  0  0 
    3.2148   -0.0463   -2.3392 C   0  0  0  0  0  0  0  0  0  0  0  0 
    4.3542   -0.5230   -1.4109 C   0  0  1  0  0  0  0  0  0  0  0  0 
    3.6323    0.9479   -3.4127 C   0  0  0  0  0  0  0  0  0  0  0  0 
    5.2772   -1.6150   -2.0155 C   0  0  0  0  0  0  0  0  0  0  0  0 
    5.0633    0.6348   -0.8670 N   0  0  0  0  0  0  0  0  0  0  0  0 
    4.7555    1.0355   -3.8745 O   0  0  0  0  0  0  0  0  0  0  0  0 
    2.6734    1.7607   -3.8888 O   0  0  0  0  0  0  0  0  0  0  0  0 
    5.4219   -2.6859   -1.4710 O   0  0  0  0  0  0  0  0  0  0  0  0 
    5.9651   -1.2972   -3.1266 O   0  0  0  0  0  0  0  0  0  0  0  0 
    6.4241    1.2458    0.5963 H   0  0  0  0  0  0  0  0  0  0  0  0 
    6.6988   -0.4362    0.0732 H   0  0  0  0  0  0  0  0  0  0  0  0 
    5.3114   -0.0342    1.1055 H   0  0  0  0  0  0  0  0  0  0  0  0 
    2.4477    0.4178   -1.7080 H   0  0  0  0  0  0  0  0  0  0  0  0 
    2.7439   -0.9033   -2.8424 H   0  0  0  0  0  0  0  0  0  0  0  0 
    3.8750   -1.0325   -0.5701 H   0  0  0  0  0  0  0  0  0  0  0  0 
    5.6108    1.0762   -1.6027 H   0  0  0  0  0  0  0  0  0  0  0  0 
    1.8352    1.6123   -3.4199 H   0  0  0  0  0  0  0  0  0  0  0  0 
    5.6836   -0.4168   -3.4702 H   0  0  0  0  0  0  0  0  0  0  0  0 
  1 11  1  0  0  0  0 
  1 13  1  0  0  0  0 
  2 14  1  0  0  0  0 
  2  3  1  0  0  0  0 
  3  6  1  0  0  0  0 
  3 16  1  1  0  0  0 
  4  2  1  0  0  0  0 
  5  9  2  0  0  0  0 
  5  3  1  0  0  0  0 
  6  1  1  0  0  0  0 
  7  4  2  0  0  0  0 
  8 18  1  0  0  0  0 
  8  4  1  0  0  0  0 
 10  5  1  0  0  0  0 
 12  1  1  0  0  0  0 
 15  2  1  0  0  0  0 
 17  6  1  0  0  0  0 
 19 10  1  0  0  0  0 
M  END 
>  <HBA> 
5 
 
>  <HBD> 
3 
 
>  <TPSA> 
86.63 
 
>  <cid> 
4376 
 
>  <dipole> 
5.4 
 
>  <excitation_energy_1> 
4.545 
 
>  <excitation_energy_2> 
5.047 
 
>  <excitation_energy_3> 
5.198 
 
>  <excitation_energy_4> 
5.72 
 
>  <homo_energy> 
-6.283 
 
>  <homo_lumo_gap> 
5.423 
 
>  <logP> 
-0.475 
 
>  <lumo_energy> 
-0.86 
 
>  <melting_point> 
155.6 
 
>  <molecular_refractivity> 
32.49 
 
>  <oscillator_strength_1> 
0.0011 
 
>  <oscillator_strength_2> 
0.0164 
 
>  <oscillator_strength_3> 
0.0129 
 
>  <oscillator_strength_4> 
0.0007 
 
>  <open_babel_can_smiles> 
CN[C@H](C(=O)O)CC(=O)O 
 
>  <mulliken_charges> 
19 
1   -0.313695 
2   -0.41246 
3   -0.072415 
4   0.63247 
5   0.57522 
6   -0.553227 
7   -0.471016 
8   -0.540735 
9   -0.455077 
10   -0.592791 
11   0.156878 
12   0.156908 
13   0.158768 
14   0.173603 
15   0.204102 
16   0.17286 
17   0.31345 
18   0.424435 
19   0.442721 
 
>  <lowdin_charges> 
19 
1   -0.362699 
2   -0.32746 
3   -0.10004 
4   0.216427 
5   0.164685 
6   -0.360546 
7   -0.260497 
8   -0.320504 
9   -0.253283 
10   -0.36616 
11   0.157019 
12   0.141293 
13   0.153904 
14   0.171892 
15   0.185488 
16   0.171908 
17   0.261385 
18   0.369226 
19   0.357964 
 
$$$$ 
 
