PCCDB-ID:  5333 
public computational chemistry database (PCCDB) project, http://pccdb.org 
 
 19 19  0  0  0  0  0  0  0  0999 V2000 
   -0.7379    1.1928   -0.0189 C   0  0  0  0  0  0  0  0  0  0  0  0 
    1.4313    0.1180    0.0139 C   0  0  0  0  0  0  0  0  0  0  0  0 
   -1.3524   -0.0492   -0.0647 C   0  0  0  0  0  0  0  0  0  0  0  0 
    0.8166   -1.1290   -0.0312 C   0  0  0  0  0  0  0  0  0  0  0  0 
    0.6667    1.2983    0.0212 C   0  0  0  0  0  0  0  0  0  0  0  0 
   -0.5761   -1.2153   -0.0714 C   0  0  0  0  0  0  0  0  0  0  0  0 
    1.2772    2.5413    0.1199 N   0  0  0  0  0  0  0  0  0  0  0  0 
   -0.2103   -3.9223   -0.1489 N   0  0  0  0  0  0  0  0  0  0  0  0 
   -2.1974   -2.9350    1.1219 O   0  0  0  0  0  0  0  0  0  0  0  0 
   -2.1538   -2.8539   -1.4227 O   0  0  0  0  0  0  0  0  0  0  0  0 
   -1.4566   -2.7656   -0.1339 S   0  0  0  0  0  0  0  0  0  0  0  0 
   -1.3442    2.0952   -0.0100 H   0  0  0  0  0  0  0  0  0  0  0  0 
    2.5163    0.1815    0.0481 H   0  0  0  0  0  0  0  0  0  0  0  0 
   -2.4356   -0.1128   -0.0984 H   0  0  0  0  0  0  0  0  0  0  0  0 
    1.4111   -2.0350   -0.0388 H   0  0  0  0  0  0  0  0  0  0  0  0 
    0.7336    3.3310   -0.2028 H   0  0  0  0  0  0  0  0  0  0  0  0 
    2.2430    2.5886   -0.1777 H   0  0  0  0  0  0  0  0  0  0  0  0 
   -0.3144   -4.5186    0.6697 H   0  0  0  0  0  0  0  0  0  0  0  0 
   -0.2866   -4.4668   -1.0058 H   0  0  0  0  0  0  0  0  0  0  0  0 
  1 12  1  0  0  0  0 
  1  5  2  0  0  0  0 
  2  5  1  0  0  0  0 
  2 13  1  0  0  0  0 
  3  1  1  0  0  0  0 
  4  2  2  0  0  0  0 
  5  7  1  0  0  0  0 
  6  3  2  0  0  0  0 
  6  4  1  0  0  0  0 
  8 11  1  0  0  0  0 
  8 18  1  0  0  0  0 
 10 11  2  0  0  0  0 
 11  6  1  0  0  0  0 
 11  9  2  0  0  0  0 
 14  3  1  0  0  0  0 
 15  4  1  0  0  0  0 
 16  7  1  0  0  0  0 
 17  7  1  0  0  0  0 
 19  8  1  0  0  0  0 
M  END 
>  <HBA> 
4 
 
>  <HBD> 
2 
 
>  <TPSA> 
94.56 
 
>  <cid> 
5333 
 
>  <dipole> 
5.18 
 
>  <excitation_energy_1> 
4.702 
 
>  <excitation_energy_2> 
4.993 
 
>  <excitation_energy_3> 
5.204 
 
>  <excitation_energy_4> 
5.482 
 
>  <homo_energy> 
-5.935 
 
>  <homo_lumo_gap> 
5.554 
 
>  <logP> 
2.279 
 
>  <lumo_energy> 
-0.381 
 
>  <melting_point> 
141.87 
 
>  <molecular_refractivity> 
41.84 
 
>  <oscillator_strength_1> 
0.0223 
 
>  <oscillator_strength_2> 
0.0378 
 
>  <oscillator_strength_3> 
0.2758 
 
>  <oscillator_strength_4> 
0.005 
 
>  <open_babel_can_smiles> 
Nc1ccc(cc1)S(=O)(=O)N 
 
>  <mulliken_charges> 
19 
1   -0.167678 
2   -0.166371 
3   -0.144417 
4   -0.146644 
5   0.328605 
6   -0.136874 
7   -0.789135 
8   -0.833333 
9   -0.526318 
10   -0.528411 
11   1.134493 
12   0.131193 
13   0.127431 
14   0.171768 
15   0.172795 
16   0.328942 
17   0.328213 
18   0.358044 
19   0.357697 
 
>  <lowdin_charges> 
19 
1   -0.192979 
2   -0.196056 
3   -0.119215 
4   -0.135086 
5   0.074512 
6   -0.204597 
7   -0.475431 
8   -0.698865 
9   -0.594768 
10   -0.595865 
11   1.29983 
12   0.160607 
13   0.156324 
14   0.177837 
15   0.180156 
16   0.282312 
17   0.279878 
18   0.30091 
19   0.300496 
 
$$$$ 
 
