PCCDB-ID:  413 
public computational chemistry database (PCCDB) project, http://pccdb.org 
 
 22 23  0  0  1  0  0  0  0  0999 V2000 
    1.2831    0.1081   -0.6856 C   0  0  0  0  0  0  0  0  0  0  0  0 
    0.4344   -0.9588   -0.9778 C   0  0  0  0  0  0  0  0  0  0  0  0 
   -0.9942   -3.8302    0.5363 C   0  0  0  0  0  0  0  0  0  0  0  0 
   -1.4640   -4.9595   -0.3952 C   0  0  0  0  0  0  0  0  0  0  0  0 
    1.1728    0.7310    0.5574 C   0  0  0  0  0  0  0  0  0  0  0  0 
   -0.5266   -0.6568    1.1881 C   0  0  0  0  0  0  0  0  0  0  0  0 
   -0.4970   -1.3660   -0.0199 C   0  0  0  0  0  0  0  0  0  0  0  0 
   -1.4279   -2.5412   -0.2401 C   0  0  1  0  0  0  0  0  0  0  0  0 
   -1.5527   -4.2026   -1.7103 C   0  0  0  0  0  0  0  0  0  0  0  0 
    0.2818    0.3646    1.4884 N   0  0  0  0  0  0  0  0  0  0  0  0 
   -1.5266   -2.9323   -1.6542 N   0  0  0  0  0  0  0  0  0  0  0  0 
   -1.6976   -4.8454   -2.8918 O   0  0  0  0  0  0  0  0  0  0  0  0 
    2.0155    0.4539   -1.4096 H   0  0  0  0  0  0  0  0  0  0  0  0 
    0.4686   -1.4655   -1.9372 H   0  0  0  0  0  0  0  0  0  0  0  0 
    0.0967   -3.8465    0.6287 H   0  0  0  0  0  0  0  0  0  0  0  0 
   -1.4179   -3.8823    1.5429 H   0  0  0  0  0  0  0  0  0  0  0  0 
   -2.4552   -5.3480   -0.1211 H   0  0  0  0  0  0  0  0  0  0  0  0 
   -0.7786   -5.8150   -0.4402 H   0  0  0  0  0  0  0  0  0  0  0  0 
    1.8219    1.5653    0.8187 H   0  0  0  0  0  0  0  0  0  0  0  0 
   -1.2508   -0.9283    1.9578 H   0  0  0  0  0  0  0  0  0  0  0  0 
   -2.4337   -2.2414    0.0928 H   0  0  0  0  0  0  0  0  0  0  0  0 
   -1.6514   -5.8014   -2.7386 H   0  0  0  0  0  0  0  0  0  0  0  0 
  1  5  1  0  0  0  0 
  2  1  2  0  0  0  0 
  2  7  1  0  0  0  0 
  3 15  1  0  0  0  0 
  3 16  1  0  0  0  0 
  4 17  1  0  0  0  0 
  4  3  1  0  0  0  0 
  5 19  1  0  0  0  0 
  5 10  2  0  0  0  0 
  6 10  1  0  0  0  0 
  6 20  1  0  0  0  0 
  7  6  2  0  0  0  0 
  8  7  1  0  0  0  0 
  8 21  1  1  0  0  0 
  8  3  1  0  0  0  0 
  9 11  2  0  0  0  0 
  9  4  1  0  0  0  0 
 11  8  1  0  0  0  0 
 12 22  1  0  0  0  0 
 12  9  1  0  0  0  0 
 13  1  1  0  0  0  0 
 14  2  1  0  0  0  0 
 18  4  1  0  0  0  0 
M  END 
>  <HBA> 
3 
 
>  <HBD> 
1 
 
>  <TPSA> 
41.99 
 
>  <cid> 
413 
 
>  <dipole> 
4.61 
 
>  <excitation_energy_1> 
4.894 
 
>  <excitation_energy_2> 
5.147 
 
>  <excitation_energy_3> 
5.331 
 
>  <excitation_energy_4> 
5.705 
 
>  <homo_energy> 
-6.612 
 
>  <homo_lumo_gap> 
6.237 
 
>  <logP> 
1.361 
 
>  <lumo_energy> 
-0.376 
 
>  <melting_point> 
91.81 
 
>  <molecular_refractivity> 
48.43 
 
>  <oscillator_strength_1> 
0.0038 
 
>  <oscillator_strength_2> 
0.0001 
 
>  <oscillator_strength_3> 
0.0492 
 
>  <oscillator_strength_4> 
0.0097 
 
>  <open_babel_can_smiles> 
OC1=N[C@@H](CC1)c1cccnc1 
 
>  <mulliken_charges> 
22 
1   -0.143423 
2   -0.142594 
3   -0.286828 
4   -0.376079 
5   0.036926 
6   -0.006657 
7   0.132091 
8   -0.051813 
9   0.498731 
10   -0.414263 
11   -0.42807 
12   -0.583172 
13   0.13486 
14   0.163006 
15   0.160457 
16   0.150317 
17   0.171702 
18   0.154677 
19   0.137462 
20   0.129466 
21   0.15006 
22   0.413143 
 
>  <lowdin_charges> 
22 
1   -0.175658 
2   -0.133652 
3   -0.281976 
4   -0.31642 
5   -0.096097 
6   -0.105354 
7   -0.026051 
8   -0.05913 
9   0.114212 
10   -0.148691 
11   -0.207291 
12   -0.345225 
13   0.16367 
14   0.173782 
15   0.154494 
16   0.154366 
17   0.162829 
18   0.156309 
19   0.154972 
20   0.15089 
21   0.149441 
22   0.36058 
 
$$$$ 
 
