PCCDB-ID:  824 
public computational chemistry database (PCCDB) project, http://pccdb.org 
 
 19 18  0  0  1  0  0  0  0  0999 V2000 
    0.7957   -0.1821    0.3058 C   0  0  0  0  0  0  0  0  0  0  0  0 
    2.2600   -0.3908   -0.0950 C   0  0  0  0  0  0  0  0  0  0  0  0 
    3.1414    0.8101    0.2786 C   0  0  0  0  0  0  0  0  0  0  0  0 
    4.6412    0.6396   -0.0396 C   0  0  1  0  0  0  0  0  0  0  0  0 
    5.2402   -0.4501    0.8856 C   0  0  0  0  0  0  0  0  0  0  0  0 
    4.8615    0.4831   -1.4730 N   0  0  0  0  0  0  0  0  0  0  0  0 
    5.1801   -0.3871    2.0895 O   0  0  0  0  0  0  0  0  0  0  0  0 
    5.8441   -1.4913    0.2649 O   0  0  0  0  0  0  0  0  0  0  0  0 
    0.1796   -1.0429    0.0235 H   0  0  0  0  0  0  0  0  0  0  0  0 
    0.3741    0.7054   -0.1815 H   0  0  0  0  0  0  0  0  0  0  0  0 
    0.7008   -0.0433    1.3892 H   0  0  0  0  0  0  0  0  0  0  0  0 
    2.3054   -0.5706   -1.1789 H   0  0  0  0  0  0  0  0  0  0  0  0 
    2.6427   -1.2979    0.3930 H   0  0  0  0  0  0  0  0  0  0  0  0 
    3.0568    0.9998    1.3539 H   0  0  0  0  0  0  0  0  0  0  0  0 
    2.7871    1.7050   -0.2469 H   0  0  0  0  0  0  0  0  0  0  0  0 
    5.1442    1.5666    0.2615 H   0  0  0  0  0  0  0  0  0  0  0  0 
    4.3717   -0.2928   -1.9044 H   0  0  0  0  0  0  0  0  0  0  0  0 
    5.8301    0.5261   -1.7702 H   0  0  0  0  0  0  0  0  0  0  0  0 
    5.7793   -1.3265   -0.6946 H   0  0  0  0  0  0  0  0  0  0  0  0 
  1 11  1  0  0  0  0 
  2  3  1  0  0  0  0 
  2  1  1  0  0  0  0 
  2 13  1  0  0  0  0 
  3 14  1  0  0  0  0 
  4 16  1  1  0  0  0 
  4  3  1  0  0  0  0 
  4  5  1  0  0  0  0 
  5  7  2  0  0  0  0 
  6  4  1  0  0  0  0 
  8  5  1  0  0  0  0 
  9  1  1  0  0  0  0 
 10  1  1  0  0  0  0 
 12  2  1  0  0  0  0 
 15  3  1  0  0  0  0 
 17  6  1  0  0  0  0 
 18  6  1  0  0  0  0 
 19  8  1  0  0  0  0 
M  END 
>  <HBA> 
3 
 
>  <HBD> 
2 
 
>  <TPSA> 
63.32 
 
>  <cid> 
824 
 
>  <dipole> 
3.92 
 
>  <excitation_energy_1> 
5.283 
 
>  <excitation_energy_2> 
5.45 
 
>  <excitation_energy_3> 
6.514 
 
>  <excitation_energy_4> 
6.769 
 
>  <homo_energy> 
-6.555 
 
>  <homo_lumo_gap> 
6.906 
 
>  <logP> 
0.899 
 
>  <lumo_energy> 
0.351 
 
>  <melting_point> 
105.51 
 
>  <molecular_refractivity> 
30.63 
 
>  <oscillator_strength_1> 
0.0036 
 
>  <oscillator_strength_2> 
0.0116 
 
>  <oscillator_strength_3> 
0.0032 
 
>  <oscillator_strength_4> 
0.0044 
 
>  <open_babel_can_smiles> 
CCC[C@@H](C(=O)O)N 
 
>  <mulliken_charges> 
19 
1   -0.442803 
2   -0.276097 
3   -0.246581 
4   -0.072178 
5   0.577677 
6   -0.750714 
7   -0.454104 
8   -0.565581 
9   0.146357 
10   0.145744 
11   0.153061 
12   0.126411 
13   0.151037 
14   0.168112 
15   0.147737 
16   0.176371 
17   0.316162 
18   0.316677 
19   0.382711 
 
>  <lowdin_charges> 
19 
1   -0.440985 
2   -0.278937 
3   -0.271699 
4   -0.105291 
5   0.165586 
6   -0.555568 
7   -0.249335 
8   -0.353462 
9   0.152779 
10   0.149251 
11   0.150585 
12   0.132961 
13   0.147741 
14   0.161592 
15   0.152289 
16   0.171709 
17   0.264945 
18   0.266178 
19   0.339661 
 
$$$$ 
 
