PCCDB-ID:  1015 
public computational chemistry database (PCCDB) project, http://pccdb.org 
 
 16 15  0  0  0  0  0  0  0  0999 V2000 
    2.0914   -1.2807   -1.2363 C   0  0  0  0  0  0  0  0  0  0  0  0 
    1.0665   -0.5972   -0.3414 C   0  0  0  0  0  0  0  0  0  0  0  0 
    2.6729   -2.4588   -0.5941 N   0  0  0  0  0  0  0  0  0  0  0  0 
    2.3472    0.9116    2.9690 O   0  0  0  0  0  0  0  0  0  0  0  0 
    0.9931   -1.2651    2.6437 O   0  0  0  0  0  0  0  0  0  0  0  0 
    3.5232   -1.1798    2.0465 O   0  0  0  0  0  0  0  0  0  0  0  0 
    1.6721    0.2013    0.7135 O   0  0  0  0  0  0  0  0  0  0  0  0 
    2.2554   -0.4192    2.0723 P   0  0  0  0  0  0  0  0  0  0  0  0 
    2.8198   -0.5200   -1.5699 H   0  0  0  0  0  0  0  0  0  0  0  0 
    1.5469   -1.6137   -2.1300 H   0  0  0  0  0  0  0  0  0  0  0  0 
    0.3975   -1.3366    0.1080 H   0  0  0  0  0  0  0  0  0  0  0  0 
    0.4819    0.1259   -0.9157 H   0  0  0  0  0  0  0  0  0  0  0  0 
    3.3251   -2.1750    0.1378 H   0  0  0  0  0  0  0  0  0  0  0  0 
    3.2070   -2.9932   -1.2760 H   0  0  0  0  0  0  0  0  0  0  0  0 
    1.5920    1.5043    2.8227 H   0  0  0  0  0  0  0  0  0  0  0  0 
    1.3050   -2.1166    2.9924 H   0  0  0  0  0  0  0  0  0  0  0  0 
  1  3  1  0  0  0  0 
  1  2  1  0  0  0  0 
  2 11  1  0  0  0  0 
  2  7  1  0  0  0  0 
  3 13  1  0  0  0  0 
  5 16  1  0  0  0  0 
  6  8  2  0  0  0  0 
  7  8  1  0  0  0  0 
  8  5  1  0  0  0  0 
  8  4  1  0  0  0  0 
  9  1  1  0  0  0  0 
 10  1  1  0  0  0  0 
 12  2  1  0  0  0  0 
 14  3  1  0  0  0  0 
 15  4  1  0  0  0  0 
M  END 
>  <HBA> 
5 
 
>  <HBD> 
3 
 
>  <TPSA> 
102.59 
 
>  <cid> 
1015 
 
>  <dipole> 
3.06 
 
>  <excitation_energy_1> 
5.517 
 
>  <excitation_energy_2> 
6.011 
 
>  <excitation_energy_3> 
6.375 
 
>  <excitation_energy_4> 
6.535 
 
>  <homo_energy> 
-6.373 
 
>  <homo_lumo_gap> 
7.23 
 
>  <logP> 
-0.245 
 
>  <lumo_energy> 
0.857 
 
>  <melting_point> 
110.07 
 
>  <molecular_refractivity> 
26.51 
 
>  <oscillator_strength_1> 
0.0094 
 
>  <oscillator_strength_2> 
0.0032 
 
>  <oscillator_strength_3> 
0.0275 
 
>  <oscillator_strength_4> 
0.002 
 
>  <open_babel_can_smiles> 
NCCOP(=O)(O)O 
 
>  <mulliken_charges> 
16 
1   -0.14748 
2   -0.043105 
3   -0.75236 
4   -0.61475 
5   -0.652995 
6   -0.562732 
7   -0.537342 
8   1.172698 
9   0.137144 
10   0.143356 
11   0.174354 
12   0.155642 
13   0.345939 
14   0.298745 
15   0.43769 
16   0.445196 
 
>  <lowdin_charges> 
16 
1   -0.216307 
2   -0.128006 
3   -0.578229 
4   -0.548774 
5   -0.572763 
6   -0.585664 
7   -0.404193 
8   1.118037 
9   0.133554 
10   0.151303 
11   0.162756 
12   0.158344 
13   0.274518 
14   0.259784 
15   0.385316 
16   0.390325 
 
$$$$ 
 
