PCCDB-ID:  454 
public computational chemistry database (PCCDB) project, http://pccdb.org 
 
 25 24  0  0  0  0  0  0  0  0999 V2000 
    1.4339   -0.5876    1.0639 C   0  0  0  0  0  0  0  0  0  0  0  0 
    2.8938   -0.3579    0.6601 C   0  0  0  0  0  0  0  0  0  0  0  0 
    3.1010    0.9213   -0.1605 C   0  0  0  0  0  0  0  0  0  0  0  0 
    4.5600    1.1602   -0.5709 C   0  0  0  0  0  0  0  0  0  0  0  0 
    4.7546    2.4411   -1.3948 C   0  0  0  0  0  0  0  0  0  0  0  0 
    6.2134    2.7663   -1.7523 C   0  0  0  0  0  0  0  0  0  0  0  0 
    6.8689    1.7575   -2.6983 C   0  0  0  0  0  0  0  0  0  0  0  0 
    8.2762    2.1219   -3.1127 C   0  0  0  0  0  0  0  0  0  0  0  0 
    8.8760    3.1073   -2.7425 O   0  0  0  0  0  0  0  0  0  0  0  0 
    1.3208   -1.5063    1.6508 H   0  0  0  0  0  0  0  0  0  0  0  0 
    0.7871   -0.6742    0.1821 H   0  0  0  0  0  0  0  0  0  0  0  0 
    1.0551    0.2438    1.6710 H   0  0  0  0  0  0  0  0  0  0  0  0 
    3.2540   -1.2213    0.0823 H   0  0  0  0  0  0  0  0  0  0  0  0 
    3.5204   -0.3149    1.5625 H   0  0  0  0  0  0  0  0  0  0  0  0 
    2.7411    1.7854    0.4176 H   0  0  0  0  0  0  0  0  0  0  0  0 
    2.4718    0.8786   -1.0623 H   0  0  0  0  0  0  0  0  0  0  0  0 
    4.9170    0.2881   -1.1375 H   0  0  0  0  0  0  0  0  0  0  0  0 
    5.1870    1.2130    0.3320 H   0  0  0  0  0  0  0  0  0  0  0  0 
    4.3416    3.2883   -0.8299 H   0  0  0  0  0  0  0  0  0  0  0  0 
    4.1579    2.3740   -2.3171 H   0  0  0  0  0  0  0  0  0  0  0  0 
    6.8143    2.8391   -0.8368 H   0  0  0  0  0  0  0  0  0  0  0  0 
    6.2625    3.7582   -2.2171 H   0  0  0  0  0  0  0  0  0  0  0  0 
    6.2799    1.6316   -3.6219 H   0  0  0  0  0  0  0  0  0  0  0  0 
    6.9173    0.7494   -2.2583 H   0  0  0  0  0  0  0  0  0  0  0  0 
    8.7573    1.3991   -3.8119 H   0  0  0  0  0  0  0  0  0  0  0  0 
  1 10  1  0  0  0  0 
  1 12  1  0  0  0  0 
  2  1  1  0  0  0  0 
  2 14  1  0  0  0  0 
  3 15  1  0  0  0  0 
  3  2  1  0  0  0  0 
  4  3  1  0  0  0  0 
  4 18  1  0  0  0  0 
  5 19  1  0  0  0  0 
  5  4  1  0  0  0  0 
  6  5  1  0  0  0  0 
  6 21  1  0  0  0  0 
  7 24  1  0  0  0  0 
  7  6  1  0  0  0  0 
  8  9  2  0  0  0  0 
  8  7  1  0  0  0  0 
 11  1  1  0  0  0  0 
 13  2  1  0  0  0  0 
 16  3  1  0  0  0  0 
 17  4  1  0  0  0  0 
 20  5  1  0  0  0  0 
 22  6  1  0  0  0  0 
 23  7  1  0  0  0  0 
 25  8  1  0  0  0  0 
M  END 
>  <HBA> 
1 
 
>  <HBD> 
0 
 
>  <TPSA> 
17.07 
 
>  <cid> 
454 
 
>  <dipole> 
2.57 
 
>  <excitation_energy_1> 
4.335 
 
>  <excitation_energy_2> 
6.505 
 
>  <excitation_energy_3> 
6.824 
 
>  <excitation_energy_4> 
6.969 
 
>  <homo_energy> 
-6.849 
 
>  <homo_lumo_gap> 
6.357 
 
>  <logP> 
2.546 
 
>  <lumo_energy> 
-0.493 
 
>  <melting_point> 
3.83 
 
>  <molecular_refractivity> 
40.77 
 
>  <oscillator_strength_1> 
0.0002 
 
>  <oscillator_strength_2> 
0.0232 
 
>  <oscillator_strength_3> 
0.0446 
 
>  <oscillator_strength_4> 
0.0012 
 
>  <open_babel_can_smiles> 
CCCCCCCC=O 
 
>  <mulliken_charges> 
25 
1   -0.441374 
2   -0.247621 
3   -0.245615 
4   -0.255948 
5   -0.260767 
6   -0.24982 
7   -0.349939 
8   0.252097 
9   -0.382367 
10   0.142263 
11   0.141267 
12   0.142118 
13   0.128997 
14   0.131037 
15   0.128567 
16   0.126737 
17   0.126948 
18   0.129652 
19   0.134221 
20   0.126173 
21   0.147459 
22   0.149941 
23   0.158855 
24   0.164679 
25   0.102439 
 
>  <lowdin_charges> 
25 
1   -0.445854 
2   -0.273182 
3   -0.275082 
4   -0.278429 
5   -0.276231 
6   -0.272479 
7   -0.314488 
8   0.054834 
9   -0.219977 
10   0.149699 
11   0.146629 
12   0.147547 
13   0.138786 
14   0.139401 
15   0.138895 
16   0.137612 
17   0.136464 
18   0.138915 
19   0.144877 
20   0.137214 
21   0.150354 
22   0.153118 
23   0.162363 
24   0.163458 
25   0.115554 
 
$$$$ 
 
