PCCDB-ID:  3675 
public computational chemistry database (PCCDB) project, http://pccdb.org 
 
 22 22  0  0  0  0  0  0  0  0999 V2000 
   -1.4772   -0.5810    0.1923 C   0  0  0  0  0  0  0  0  0  0  0  0 
   -0.6894   -0.4530    1.3376 C   0  0  0  0  0  0  0  0  0  0  0  0 
   -0.8797   -0.4997   -1.0668 C   0  0  0  0  0  0  0  0  0  0  0  0 
    0.6860   -0.2473    1.2218 C   0  0  0  0  0  0  0  0  0  0  0  0 
    0.4961   -0.2940   -1.1767 C   0  0  0  0  0  0  0  0  0  0  0  0 
    2.7963    0.0222   -0.1604 C   0  0  0  0  0  0  0  0  0  0  0  0 
    3.5538   -1.3144   -0.1997 C   0  0  0  0  0  0  0  0  0  0  0  0 
    1.2992   -0.1645   -0.0355 C   0  0  0  0  0  0  0  0  0  0  0  0 
    5.6888   -2.3709   -0.2558 N   0  0  0  0  0  0  0  0  0  0  0  0 
    4.9841   -1.0774   -0.4168 N   0  0  0  0  0  0  0  0  0  0  0  0 
   -2.5487   -0.7396    0.2802 H   0  0  0  0  0  0  0  0  0  0  0  0 
   -1.1457   -0.5107    2.3225 H   0  0  0  0  0  0  0  0  0  0  0  0 
   -1.4851   -0.5931   -1.9648 H   0  0  0  0  0  0  0  0  0  0  0  0 
    1.2929   -0.1437    2.1190 H   0  0  0  0  0  0  0  0  0  0  0  0 
    0.9545   -0.2254   -2.1612 H   0  0  0  0  0  0  0  0  0  0  0  0 
    3.0387    0.5830   -1.0706 H   0  0  0  0  0  0  0  0  0  0  0  0 
    3.1655    0.6170    0.6866 H   0  0  0  0  0  0  0  0  0  0  0  0 
    3.1797   -1.9136   -1.0418 H   0  0  0  0  0  0  0  0  0  0  0  0 
    3.3583   -1.8963    0.7170 H   0  0  0  0  0  0  0  0  0  0  0  0 
    6.6414   -2.1635   -0.5685 H   0  0  0  0  0  0  0  0  0  0  0  0 
    5.3207   -2.9420   -1.0222 H   0  0  0  0  0  0  0  0  0  0  0  0 
    5.3071   -0.5455    0.3950 H   0  0  0  0  0  0  0  0  0  0  0  0 
  1 11  1  0  0  0  0 
  1  2  2  0  0  0  0 
  2 12  1  0  0  0  0 
  3  1  1  0  0  0  0 
  4  2  1  0  0  0  0 
  4 14  1  0  0  0  0 
  5  3  2  0  0  0  0 
  5  8  1  0  0  0  0 
  6  8  1  0  0  0  0 
  6 17  1  0  0  0  0 
  7  6  1  0  0  0  0 
  7 19  1  0  0  0  0 
  8  4  2  0  0  0  0 
 10  9  1  0  0  0  0 
 10  7  1  0  0  0  0 
 10 22  1  0  0  0  0 
 13  3  1  0  0  0  0 
 15  5  1  0  0  0  0 
 16  6  1  0  0  0  0 
 18  7  1  0  0  0  0 
 20  9  1  0  0  0  0 
 21  9  1  0  0  0  0 
M  END 
>  <HBA> 
2 
 
>  <HBD> 
2 
 
>  <TPSA> 
38.05 
 
>  <cid> 
3675 
 
>  <dipole> 
0.38 
 
>  <excitation_energy_1> 
4.72 
 
>  <excitation_energy_2> 
4.851 
 
>  <excitation_energy_3> 
4.867 
 
>  <excitation_energy_4> 
5.27 
 
>  <homo_energy> 
-5.331 
 
>  <homo_lumo_gap> 
5.407 
 
>  <logP> 
1.784 
 
>  <lumo_energy> 
0.076 
 
>  <melting_point> 
87.91 
 
>  <molecular_refractivity> 
41.72 
 
>  <oscillator_strength_1> 
0.001 
 
>  <oscillator_strength_2> 
0.0051 
 
>  <oscillator_strength_3> 
0.0026 
 
>  <oscillator_strength_4> 
0.0078 
 
>  <open_babel_can_smiles> 
NNCCc1ccccc1 
 
>  <mulliken_charges> 
22 
1   -0.130911 
2   -0.127892 
3   -0.128263 
4   -0.178677 
5   -0.180412 
6   -0.361829 
7   -0.109187 
8   0.168791 
9   -0.595105 
10   -0.469391 
11   0.127699 
12   0.128395 
13   0.128203 
14   0.122381 
15   0.124439 
16   0.157499 
17   0.138167 
18   0.138124 
19   0.135749 
20   0.304249 
21   0.302787 
22   0.305184 
 
>  <lowdin_charges> 
22 
1   -0.158349 
2   -0.154992 
3   -0.156315 
4   -0.168114 
5   -0.166984 
6   -0.277639 
7   -0.208479 
8   0.000654 
9   -0.496682 
10   -0.324306 
11   0.155036 
12   0.156687 
13   0.157452 
14   0.154608 
15   0.154558 
16   0.157111 
17   0.147004 
18   0.14022 
19   0.130767 
20   0.253032 
21   0.253126 
22   0.251606 
 
$$$$ 
 
