PCCDB-ID:  903 
public computational chemistry database (PCCDB) project, http://pccdb.org 
 
 30 31  0  0  0  0  0  0  0  0999 V2000 
    2.3917    0.1622   -4.4936 C   0  0  0  0  0  0  0  0  0  0  0  0 
   -0.8081   -6.3810   -5.3519 C   0  0  0  0  0  0  0  0  0  0  0  0 
    0.1881   -7.1519   -4.7619 C   0  0  0  0  0  0  0  0  0  0  0  0 
    2.5573   -3.4008   -2.3606 C   0  0  0  0  0  0  0  0  0  0  0  0 
    3.2773   -2.5458   -3.4278 C   0  0  0  0  0  0  0  0  0  0  0  0 
    0.0619   -4.3407   -4.3354 C   0  0  0  0  0  0  0  0  0  0  0  0 
    2.8261   -5.9481   -2.5919 C   0  0  0  0  0  0  0  0  0  0  0  0 
    3.2910   -0.1634   -3.3165 C   0  0  0  0  0  0  0  0  0  0  0  0 
    2.1768   -4.7664   -2.8554 C   0  0  0  0  0  0  0  0  0  0  0  0 
   -0.8697   -4.9870   -5.1392 C   0  0  0  0  0  0  0  0  0  0  0  0 
    1.0788   -5.0992   -3.7317 C   0  0  0  0  0  0  0  0  0  0  0  0 
    1.1250   -6.5033   -3.9558 C   0  0  0  0  0  0  0  0  0  0  0  0 
    3.6791   -1.2769   -2.8612 N   0  0  0  0  0  0  0  0  0  0  0  0 
    2.2074   -6.9942   -3.2489 N   0  0  0  0  0  0  0  0  0  0  0  0 
    3.7526    0.9501   -2.6567 O   0  0  0  0  0  0  0  0  0  0  0  0 
   -1.8513   -4.2155   -5.7194 O   0  0  0  0  0  0  0  0  0  0  0  0 
    2.0161   -0.7298   -4.9955 H   0  0  0  0  0  0  0  0  0  0  0  0 
    2.9383    0.7621   -5.2324 H   0  0  0  0  0  0  0  0  0  0  0  0 
    1.5291    0.7517   -4.1578 H   0  0  0  0  0  0  0  0  0  0  0  0 
   -1.5520   -6.8581   -5.9875 H   0  0  0  0  0  0  0  0  0  0  0  0 
    0.2261   -8.2252   -4.9289 H   0  0  0  0  0  0  0  0  0  0  0  0 
    1.6641   -2.8555   -2.0265 H   0  0  0  0  0  0  0  0  0  0  0  0 
    3.2151   -3.4782   -1.4875 H   0  0  0  0  0  0  0  0  0  0  0  0 
    2.6368   -2.4716   -4.3208 H   0  0  0  0  0  0  0  0  0  0  0  0 
    4.1844   -3.0811   -3.7382 H   0  0  0  0  0  0  0  0  0  0  0  0 
   -0.0185   -3.2682   -4.1868 H   0  0  0  0  0  0  0  0  0  0  0  0 
    3.6943   -6.1279   -1.9717 H   0  0  0  0  0  0  0  0  0  0  0  0 
    2.4795   -7.9623   -3.1896 H   0  0  0  0  0  0  0  0  0  0  0  0 
    3.3969    1.7426   -3.0867 H   0  0  0  0  0  0  0  0  0  0  0  0 
   -2.4395   -4.7941   -6.2276 H   0  0  0  0  0  0  0  0  0  0  0  0 
  1 19  1  0  0  0  0 
  1  8  1  0  0  0  0 
  2 10  2  0  0  0  0 
  2  3  1  0  0  0  0 
  3 12  2  0  0  0  0 
  4 22  1  0  0  0  0 
  4 23  1  0  0  0  0 
  5 13  1  0  0  0  0 
  5  4  1  0  0  0  0 
  6 26  1  0  0  0  0 
  6 11  2  0  0  0  0 
  7 27  1  0  0  0  0 
  8 13  2  0  0  0  0 
  8 15  1  0  0  0  0 
  9  7  2  0  0  0  0 
  9  4  1  0  0  0  0 
 10  6  1  0  0  0  0 
 11  9  1  0  0  0  0 
 12 11  1  0  0  0  0 
 12 14  1  0  0  0  0 
 14 28  1  0  0  0  0 
 14  7  1  0  0  0  0 
 16 10  1  0  0  0  0 
 17  1  1  0  0  0  0 
 18  1  1  0  0  0  0 
 20  2  1  0  0  0  0 
 21  3  1  0  0  0  0 
 24  5  1  0  0  0  0 
 25  5  1  0  0  0  0 
 29 15  1  0  0  0  0 
 30 16  1  0  0  0  0 
M  END 
>  <HBA> 
3 
 
>  <HBD> 
3 
 
>  <TPSA> 
65.12 
 
>  <cid> 
903 
 
>  <dipole> 
3.09 
 
>  <excitation_energy_1> 
4.294 
 
>  <excitation_energy_2> 
4.617 
 
>  <excitation_energy_3> 
4.646 
 
>  <excitation_energy_4> 
4.683 
 
>  <homo_energy> 
-5.121 
 
>  <homo_lumo_gap> 
4.982 
 
>  <logP> 
1.943 
 
>  <lumo_energy> 
-0.139 
 
>  <melting_point> 
187.32 
 
>  <molecular_refractivity> 
62.71 
 
>  <oscillator_strength_1> 
0.0625 
 
>  <oscillator_strength_2> 
0.0003 
 
>  <oscillator_strength_3> 
0.0861 
 
>  <oscillator_strength_4> 
0.0016 
 
>  <open_babel_can_smiles> 
Oc1ccc2c(c1)c(CC/N=C(/O)\C)c[nH]2 
 
>  <mulliken_charges> 
30 
1   -0.559551 
2   -0.21921 
3   -0.166641 
4   -0.337852 
5   -0.14836 
6   -0.258951 
7   -0.003005 
8   0.485356 
9   0.066725 
10   0.35373 
11   0.083339 
12   0.313496 
13   -0.402473 
14   -0.695408 
15   -0.580558 
16   -0.657624 
17   0.187311 
18   0.172287 
19   0.171075 
20   0.110693 
21   0.123136 
22   0.142224 
23   0.151968 
24   0.122357 
25   0.144436 
26   0.12663 
27   0.147817 
28   0.324228 
29   0.400629 
30   0.402195 
 
>  <lowdin_charges> 
30 
1   -0.488083 
2   -0.219422 
3   -0.174331 
4   -0.270978 
5   -0.1983 
6   -0.200287 
7   -0.133745 
8   0.128489 
9   -0.065171 
10   0.089598 
11   -0.023259 
12   0.01593 
13   -0.203053 
14   -0.201182 
15   -0.378143 
16   -0.395381 
17   0.175298 
18   0.168871 
19   0.167572 
20   0.151661 
21   0.154585 
22   0.149615 
23   0.157263 
24   0.124422 
25   0.147573 
26   0.160449 
27   0.164168 
28   0.288779 
29   0.351725 
30   0.355336 
 
$$$$ 
 
