PCCDB-ID:  323 
public computational chemistry database (PCCDB) project, http://pccdb.org 
 
 17 18  0  0  0  0  0  0  0  0999 V2000 
    2.4301    0.7233    0.0223 C   0  0  0  0  0  0  0  0  0  0  0  0 
    2.4211   -0.6797   -0.0061 C   0  0  0  0  0  0  0  0  0  0  0  0 
    1.2304    1.4210    0.0209 C   0  0  0  0  0  0  0  0  0  0  0  0 
    1.2215   -1.3833   -0.0354 C   0  0  0  0  0  0  0  0  0  0  0  0 
   -1.2858    1.3815   -0.0118 C   0  0  0  0  0  0  0  0  0  0  0  0 
   -2.4249    0.6542   -0.0417 C   0  0  0  0  0  0  0  0  0  0  0  0 
    0.0025    0.7344   -0.0082 C   0  0  0  0  0  0  0  0  0  0  0  0 
    0.0190   -0.6738   -0.0362 C   0  0  0  0  0  0  0  0  0  0  0  0 
   -2.4032   -0.8057   -0.0729 C   0  0  0  0  0  0  0  0  0  0  0  0 
   -3.3670   -1.5324   -0.1040 O   0  0  0  0  0  0  0  0  0  0  0  0 
   -1.1376   -1.3983   -0.0649 O   0  0  0  0  0  0  0  0  0  0  0  0 
    3.3731    1.2608    0.0451 H   0  0  0  0  0  0  0  0  0  0  0  0 
    3.3596   -1.2267   -0.0052 H   0  0  0  0  0  0  0  0  0  0  0  0 
    1.2237    2.5079    0.0416 H   0  0  0  0  0  0  0  0  0  0  0  0 
    1.1925   -2.4675   -0.0586 H   0  0  0  0  0  0  0  0  0  0  0  0 
   -1.3236    2.4684    0.0102 H   0  0  0  0  0  0  0  0  0  0  0  0 
   -3.4097    1.1066   -0.0454 H   0  0  0  0  0  0  0  0  0  0  0  0 
  1 12  1  0  0  0  0 
  2 13  1  0  0  0  0 
  2  1  2  0  0  0  0 
  3  1  1  0  0  0  0 
  3 14  1  0  0  0  0 
  4  2  1  0  0  0  0 
  5  7  1  0  0  0  0 
  5 16  1  0  0  0  0 
  6  5  2  0  0  0  0 
  7  3  2  0  0  0  0 
  8  4  2  0  0  0  0 
  8  7  1  0  0  0  0 
  9 11  1  0  0  0  0 
  9  6  1  0  0  0  0 
 10  9  2  0  0  0  0 
 11  8  1  0  0  0  0 
 15  4  1  0  0  0  0 
 17  6  1  0  0  0  0 
M  END 
>  <HBA> 
2 
 
>  <HBD> 
0 
 
>  <TPSA> 
30.21 
 
>  <cid> 
323 
 
>  <dipole> 
4.82 
 
>  <excitation_energy_1> 
4.134 
 
>  <excitation_energy_2> 
4.457 
 
>  <excitation_energy_3> 
4.594 
 
>  <excitation_energy_4> 
5.396 
 
>  <homo_energy> 
-6.495 
 
>  <homo_lumo_gap> 
4.618 
 
>  <logP> 
1.793 
 
>  <lumo_energy> 
-1.878 
 
>  <melting_point> 
82.32 
 
>  <molecular_refractivity> 
42.48 
 
>  <oscillator_strength_1> 
0.1192 
 
>  <oscillator_strength_2> 
0.0 
 
>  <oscillator_strength_3> 
0.1673 
 
>  <oscillator_strength_4> 
0.0165 
 
>  <open_babel_can_smiles> 
O=c1ccc2c(o1)cccc2 
 
>  <mulliken_charges> 
17 
1   -0.131166 
2   -0.131815 
3   -0.197467 
4   -0.16868 
5   -0.118129 
6   -0.217974 
7   0.124649 
8   0.315 
9   0.596152 
10   -0.462407 
11   -0.516302 
12   0.140204 
13   0.145162 
14   0.14191 
15   0.15861 
16   0.156345 
17   0.165908 
 
>  <lowdin_charges> 
17 
1   -0.16536 
2   -0.135374 
3   -0.141987 
4   -0.169675 
5   -0.105056 
6   -0.198612 
7   -0.040789 
8   0.11405 
9   0.198996 
10   -0.239318 
11   -0.134702 
12   0.164335 
13   0.166528 
14   0.161436 
15   0.174825 
16   0.168141 
17   0.182562 
 
$$$$ 
 
