PCCDB-ID:  5138 
public computational chemistry database (PCCDB) project, http://pccdb.org 
 
 21 21  0  0  0  0  0  0  0  0999 V2000 
   -1.8782    0.0007    0.2130 C   0  0  0  0  0  0  0  0  0  0  0  0 
   -1.1710    1.2038    0.1810 C   0  0  0  0  0  0  0  0  0  0  0  0 
   -1.1865   -1.2103    0.1411 C   0  0  0  0  0  0  0  0  0  0  0  0 
    0.2203    1.1945    0.0779 C   0  0  0  0  0  0  0  0  0  0  0  0 
    0.2044   -1.2164    0.0383 C   0  0  0  0  0  0  0  0  0  0  0  0 
    2.4269   -0.0223   -0.1148 C   0  0  0  0  0  0  0  0  0  0  0  0 
    0.9244   -0.0145    0.0023 C   0  0  0  0  0  0  0  0  0  0  0  0 
    4.9191   -0.2111    1.1360 C   0  0  0  0  0  0  0  0  0  0  0  0 
    5.2760   -0.2468   -0.0895 N   0  0  0  0  0  0  0  0  0  0  0  0 
    5.7252   -0.3112    2.2641 N   0  0  0  0  0  0  0  0  0  0  0  0 
    3.1794   -0.1043    1.5733 S   0  0  0  0  0  0  0  0  0  0  0  0 
   -2.9621    0.0064    0.2916 H   0  0  0  0  0  0  0  0  0  0  0  0 
   -1.7023    2.1504    0.2350 H   0  0  0  0  0  0  0  0  0  0  0  0 
   -1.7304   -2.1509    0.1640 H   0  0  0  0  0  0  0  0  0  0  0  0 
    0.7682    2.1336    0.0509 H   0  0  0  0  0  0  0  0  0  0  0  0 
    0.7404   -2.1609   -0.0181 H   0  0  0  0  0  0  0  0  0  0  0  0 
    2.8055    0.8775   -0.6038 H   0  0  0  0  0  0  0  0  0  0  0  0 
    2.7974   -0.8847   -0.6718 H   0  0  0  0  0  0  0  0  0  0  0  0 
    6.2943   -0.3188   -0.1794 H   0  0  0  0  0  0  0  0  0  0  0  0 
    6.7003   -0.0770    2.1184 H   0  0  0  0  0  0  0  0  0  0  0  0 
    5.3542    0.0692    3.1265 H   0  0  0  0  0  0  0  0  0  0  0  0 
  1 12  1  0  0  0  0 
  2  1  1  0  0  0  0 
  2 13  1  0  0  0  0 
  3 14  1  0  0  0  0 
  3  1  2  0  0  0  0 
  4  2  2  0  0  0  0 
  5  3  1  0  0  0  0 
  6  7  1  0  0  0  0 
  6 11  1  0  0  0  0 
  7  5  2  0  0  0  0 
  7  4  1  0  0  0  0 
  8 11  1  0  0  0  0 
  8 10  2  0  0  0  0 
  9  8  1  0  0  0  0 
 10 21  1  0  0  0  0 
 15  4  1  0  0  0  0 
 16  5  1  0  0  0  0 
 17  6  1  0  0  0  0 
 18  6  1  0  0  0  0 
 19  9  1  0  0  0  0 
 20 10  1  0  0  0  0 
M  RAD  1   9   2 
M  END 
>  <HBA> 
3 
 
>  <HBD> 
2 
 
>  <TPSA> 
75.17 
 
>  <cid> 
5138 
 
>  <dipole> 
1.93 
 
>  <excitation_energy_1> 
4.942 
 
>  <excitation_energy_2> 
5.252 
 
>  <excitation_energy_3> 
5.4 
 
>  <excitation_energy_4> 
5.423 
 
>  <homo_energy> 
-6.191 
 
>  <homo_lumo_gap> 
5.938 
 
>  <logP> 
2.613 
 
>  <lumo_energy> 
-0.253 
 
>  <melting_point> 
101.0 
 
>  <molecular_refractivity> 
50.1 
 
>  <oscillator_strength_1> 
0.0016 
 
>  <oscillator_strength_2> 
0.0007 
 
>  <oscillator_strength_3> 
0.0162 
 
>  <oscillator_strength_4> 
0.0022 
 
>  <open_babel_can_smiles> 
[NH]C(=[NH2])SCc1ccccc1 
 
>  <mulliken_charges> 
21 
1   -0.127686 
2   -0.128837 
3   -0.129312 
4   -0.164473 
5   -0.162297 
6   -0.481946 
7   0.140838 
8   0.275737 
9   -0.609402 
10   -0.728158 
11   0.117153 
12   0.130104 
13   0.130653 
14   0.131348 
15   0.131689 
16   0.135147 
17   0.196583 
18   0.20661 
19   0.27345 
20   0.324374 
21   0.338425 
 
>  <lowdin_charges> 
21 
1   -0.152856 
2   -0.155394 
3   -0.154953 
4   -0.158495 
5   -0.156077 
6   -0.351691 
7   -0.011972 
8   -0.012491 
9   -0.447251 
10   -0.489259 
11   0.126709 
12   0.15596 
13   0.158367 
14   0.158759 
15   0.159168 
16   0.16092 
17   0.175115 
18   0.180951 
19   0.248145 
20   0.278022 
21   0.288323 
 
$$$$ 
 
