PCCDB-ID:  6271 
public computational chemistry database (PCCDB) project, http://pccdb.org 
 
 21 21  0  0  0  0  0  0  0  0999 V2000 
    3.0557   -0.8069    0.5040 C   0  0  0  0  0  0  0  0  0  0  0  0 
    2.0304    0.3185    0.6296 C   0  0  0  0  0  0  0  0  0  0  0  0 
    2.3224    4.1706    0.3262 C   0  0  0  0  0  0  0  0  0  0  0  0 
    0.3734    2.8272    0.7929 C   0  0  0  0  0  0  0  0  0  0  0  0 
    1.5549    5.3242    0.4098 C   0  0  0  0  0  0  0  0  0  0  0  0 
   -0.4068    3.9738    0.8789 C   0  0  0  0  0  0  0  0  0  0  0  0 
    1.7495    2.9027    0.5160 C   0  0  0  0  0  0  0  0  0  0  0  0 
    0.1838    5.2289    0.6875 C   0  0  0  0  0  0  0  0  0  0  0  0 
    2.6361    1.7043    0.4129 C   0  0  0  0  0  0  0  0  0  0  0  0 
   -0.6232    6.3221    0.7840 O   0  0  0  0  0  0  0  0  0  0  0  0 
    3.8270    1.8293    0.1600 O   0  0  0  0  0  0  0  0  0  0  0  0 
    2.5781   -1.7800    0.6601 H   0  0  0  0  0  0  0  0  0  0  0  0 
    3.8565   -0.6907    1.2400 H   0  0  0  0  0  0  0  0  0  0  0  0 
    3.5221   -0.8029   -0.4854 H   0  0  0  0  0  0  0  0  0  0  0  0 
    1.5521    0.2991    1.6193 H   0  0  0  0  0  0  0  0  0  0  0  0 
    1.2126    0.1805   -0.0923 H   0  0  0  0  0  0  0  0  0  0  0  0 
    3.3848    4.2247    0.1119 H   0  0  0  0  0  0  0  0  0  0  0  0 
   -0.1028    1.8635    0.9437 H   0  0  0  0  0  0  0  0  0  0  0  0 
    2.0122    6.3009    0.2604 H   0  0  0  0  0  0  0  0  0  0  0  0 
   -1.4695    3.9207    1.0922 H   0  0  0  0  0  0  0  0  0  0  0  0 
   -0.0967    7.1215    0.6255 H   0  0  0  0  0  0  0  0  0  0  0  0 
  1  2  1  0  0  0  0 
  1 12  1  0  0  0  0 
  1 13  1  0  0  0  0 
  2 15  1  0  0  0  0 
  3  5  2  0  0  0  0 
  3  7  1  0  0  0  0 
  4  6  1  0  0  0  0 
  4 18  1  0  0  0  0 
  5  8  1  0  0  0  0 
  6 20  1  0  0  0  0 
  7  4  2  0  0  0  0 
  8 10  1  0  0  0  0 
  8  6  2  0  0  0  0 
  9  7  1  0  0  0  0 
  9  2  1  0  0  0  0 
 11  9  2  0  0  0  0 
 14  1  1  0  0  0  0 
 16  2  1  0  0  0  0 
 17  3  1  0  0  0  0 
 19  5  1  0  0  0  0 
 21 10  1  0  0  0  0 
M  END 
>  <HBA> 
2 
 
>  <HBD> 
1 
 
>  <TPSA> 
37.3 
 
>  <cid> 
6271 
 
>  <dipole> 
2.46 
 
>  <excitation_energy_1> 
3.859 
 
>  <excitation_energy_2> 
4.77 
 
>  <excitation_energy_3> 
4.837 
 
>  <excitation_energy_4> 
5.344 
 
>  <homo_energy> 
-6.327 
 
>  <homo_lumo_gap> 
5.121 
 
>  <logP> 
1.985 
 
>  <lumo_energy> 
-1.205 
 
>  <melting_point> 
78.52 
 
>  <molecular_refractivity> 
43.47 
 
>  <oscillator_strength_1> 
0.0 
 
>  <oscillator_strength_2> 
0.2992 
 
>  <oscillator_strength_3> 
0.0282 
 
>  <oscillator_strength_4> 
0.0001 
 
>  <open_babel_can_smiles> 
CCC(=O)c1ccc(cc1)O 
 
>  <mulliken_charges> 
21 
1   -0.431081 
2   -0.362048 
3   -0.163292 
4   -0.188881 
5   -0.196274 
6   -0.164109 
7   0.077156 
8   0.361464 
9   0.405235 
10   -0.633462 
11   -0.473138 
12   0.136369 
13   0.160404 
14   0.161069 
15   0.160114 
16   0.160233 
17   0.166179 
18   0.138546 
19   0.127295 
20   0.145861 
21   0.412358 
 
>  <lowdin_charges> 
21 
1   -0.43863 
2   -0.30785 
3   -0.113292 
4   -0.137753 
5   -0.211896 
6   -0.185378 
7   -0.070861 
8   0.115124 
9   0.154738 
10   -0.365884 
11   -0.252169 
12   0.148104 
13   0.159315 
14   0.158627 
15   0.159714 
16   0.160752 
17   0.176844 
18   0.163739 
19   0.156503 
20   0.168544 
21   0.361709 
 
$$$$ 
 
