PCCDB-ID:  568 
public computational chemistry database (PCCDB) project, http://pccdb.org 
 
 21 23  0  0  0  0  0  0  0  0999 V2000 
    3.0617    1.1014   -0.0005 C   0  0  0  0  0  0  0  0  0  0  0  0 
   -3.0585    1.1188   -0.0001 C   0  0  0  0  0  0  0  0  0  0  0  0 
    3.3986   -0.2626   -0.0008 C   0  0  0  0  0  0  0  0  0  0  0  0 
   -3.4032   -0.2433   -0.0004 C   0  0  0  0  0  0  0  0  0  0  0  0 
    1.7299    1.5128    0.0001 C   0  0  0  0  0  0  0  0  0  0  0  0 
   -1.7243    1.5226    0.0003 C   0  0  0  0  0  0  0  0  0  0  0  0 
    2.4144   -1.2530   -0.0010 C   0  0  0  0  0  0  0  0  0  0  0  0 
   -2.4246   -1.2392   -0.0007 C   0  0  0  0  0  0  0  0  0  0  0  0 
    0.7262    0.5375   -0.0000 C   0  0  0  0  0  0  0  0  0  0  0  0 
   -0.7262    0.5416    0.0001 C   0  0  0  0  0  0  0  0  0  0  0  0 
    1.0955   -0.8213   -0.0010 C   0  0  0  0  0  0  0  0  0  0  0  0 
   -1.1033   -0.8150   -0.0008 C   0  0  0  0  0  0  0  0  0  0  0  0 
   -0.0062   -1.6475   -0.0015 O   0  0  0  0  0  0  0  0  0  0  0  0 
    3.8528    1.8457   -0.0013 H   0  0  0  0  0  0  0  0  0  0  0  0 
   -3.8454    1.8676   -0.0009 H   0  0  0  0  0  0  0  0  0  0  0  0 
    4.4449   -0.5549   -0.0003 H   0  0  0  0  0  0  0  0  0  0  0  0 
   -4.4511   -0.5296    0.0001 H   0  0  0  0  0  0  0  0  0  0  0  0 
    1.4777    2.5697    0.0012 H   0  0  0  0  0  0  0  0  0  0  0  0 
   -1.4662    2.5781    0.0013 H   0  0  0  0  0  0  0  0  0  0  0  0 
    2.6590   -2.3100   -0.0011 H   0  0  0  0  0  0  0  0  0  0  0  0 
   -2.6752   -2.2948   -0.0008 H   0  0  0  0  0  0  0  0  0  0  0  0 
  1  5  1  0  0  0  0 
  2  6  1  0  0  0  0 
  3  1  2  0  0  0  0 
  3 16  1  0  0  0  0 
  4  2  2  0  0  0  0 
  4 17  1  0  0  0  0 
  5 18  1  0  0  0  0 
  6 19  1  0  0  0  0 
  7 11  2  0  0  0  0 
  7  3  1  0  0  0  0 
  8  4  1  0  0  0  0 
  9 10  1  0  0  0  0 
  9  5  2  0  0  0  0 
 10  6  2  0  0  0  0 
 11  9  1  0  0  0  0 
 12  8  2  0  0  0  0 
 12 10  1  0  0  0  0 
 13 11  1  0  0  0  0 
 13 12  1  0  0  0  0 
 14  1  1  0  0  0  0 
 15  2  1  0  0  0  0 
 20  7  1  0  0  0  0 
 21  8  1  0  0  0  0 
M  END 
>  <HBA> 
1 
 
>  <HBD> 
0 
 
>  <TPSA> 
13.14 
 
>  <cid> 
568 
 
>  <dipole> 
0.71 
 
>  <excitation_energy_1> 
4.45 
 
>  <excitation_energy_2> 
4.581 
 
>  <excitation_energy_3> 
5.239 
 
>  <excitation_energy_4> 
5.429 
 
>  <homo_energy> 
-6.008 
 
>  <homo_lumo_gap> 
5.089 
 
>  <logP> 
3.586 
 
>  <lumo_energy> 
-0.92 
 
>  <melting_point> 
92.22 
 
>  <molecular_refractivity> 
53.72 
 
>  <oscillator_strength_1> 
0.0289 
 
>  <oscillator_strength_2> 
0.2991 
 
>  <oscillator_strength_3> 
0.0324 
 
>  <oscillator_strength_4> 
0.0781 
 
>  <open_babel_can_smiles> 
c1ccc2c(c1)oc1c2cccc1 
 
>  <mulliken_charges> 
21 
1   -0.144869 
2   -0.144893 
3   -0.136756 
4   -0.13676 
5   -0.191216 
6   -0.191216 
7   -0.200229 
8   -0.200211 
9   0.083812 
10   0.083653 
11   0.318496 
12   0.318534 
13   -0.550367 
14   0.130463 
15   0.130468 
16   0.133634 
17   0.133639 
18   0.135165 
19   0.135153 
20   0.146752 
21   0.146748 
 
>  <lowdin_charges> 
21 
1   -0.168822 
2   -0.16883 
3   -0.149513 
4   -0.149475 
5   -0.151216 
6   -0.151257 
7   -0.175439 
8   -0.175469 
9   -0.034984 
10   -0.034971 
11   0.094972 
12   0.094952 
13   -0.12708 
14   0.160233 
15   0.160239 
16   0.159747 
17   0.159719 
18   0.159483 
19   0.159509 
20   0.16909 
21   0.169114 
 
$$$$ 
 
