PCCDB-ID:  617 
public computational chemistry database (PCCDB) project, http://pccdb.org 
 
 14 13  0  0  1  0  0  0  0  0999 V2000 
    0.9232   -0.1109   -0.2620 C   0  0  0  0  0  0  0  0  0  0  0  0 
    0.5375    1.1776   -0.9830 C   0  0  1  0  0  0  0  0  0  0  0  0 
    0.9924    1.1525   -2.4548 C   0  0  0  0  0  0  0  0  0  0  0  0 
   -0.8915    1.5256   -0.9258 N   0  0  0  0  0  0  0  0  0  0  0  0 
    0.5119    0.0413    1.0930 O   0  0  0  0  0  0  0  0  0  0  0  0 
    1.9877    0.5793   -2.8330 O   0  0  0  0  0  0  0  0  0  0  0  0 
    0.1902    1.8536   -3.2698 O   0  0  0  0  0  0  0  0  0  0  0  0 
    2.0048   -0.2656   -0.3569 H   0  0  0  0  0  0  0  0  0  0  0  0 
    0.4201   -0.9673   -0.7422 H   0  0  0  0  0  0  0  0  0  0  0  0 
    1.0823    2.0026   -0.5046 H   0  0  0  0  0  0  0  0  0  0  0  0 
   -1.4566    0.6864   -1.0625 H   0  0  0  0  0  0  0  0  0  0  0  0 
   -1.1237    1.8705    0.0029 H   0  0  0  0  0  0  0  0  0  0  0  0 
    0.7957   -0.7447    1.5829 H   0  0  0  0  0  0  0  0  0  0  0  0 
   -0.5534    2.1624   -2.6933 H   0  0  0  0  0  0  0  0  0  0  0  0 
  1  5  1  0  0  0  0 
  2  4  1  0  0  0  0 
  2 10  1  1  0  0  0 
  2  1  1  0  0  0  0 
  3  2  1  0  0  0  0 
  4 12  1  0  0  0  0 
  5 13  1  0  0  0  0 
  6  3  2  0  0  0  0 
  7 14  1  0  0  0  0 
  7  3  1  0  0  0  0 
  8  1  1  0  0  0  0 
  9  1  1  0  0  0  0 
 11  4  1  0  0  0  0 
M  END 
>  <HBA> 
4 
 
>  <HBD> 
3 
 
>  <TPSA> 
83.55 
 
>  <cid> 
617 
 
>  <dipole> 
4.58 
 
>  <excitation_energy_1> 
5.5 
 
>  <excitation_energy_2> 
6.251 
 
>  <excitation_energy_3> 
6.544 
 
>  <excitation_energy_4> 
6.724 
 
>  <homo_energy> 
-6.985 
 
>  <homo_lumo_gap> 
7.323 
 
>  <logP> 
-0.909 
 
>  <lumo_energy> 
0.337 
 
>  <melting_point> 
125.45 
 
>  <molecular_refractivity> 
22.18 
 
>  <oscillator_strength_1> 
0.001 
 
>  <oscillator_strength_2> 
0.0042 
 
>  <oscillator_strength_3> 
0.0051 
 
>  <oscillator_strength_4> 
0.018 
 
>  <open_babel_can_smiles> 
OC[C@@H](C(=O)O)N 
 
>  <mulliken_charges> 
14 
1   -0.035367 
2   -0.10683 
3   0.61325 
4   -0.759812 
5   -0.630164 
6   -0.467475 
7   -0.580628 
8   0.162028 
9   0.125513 
10   0.189085 
11   0.319014 
12   0.337082 
13   0.40171 
14   0.432592 
 
>  <lowdin_charges> 
14 
1   -0.143829 
2   -0.11695 
3   0.174382 
4   -0.540379 
5   -0.479987 
6   -0.256537 
7   -0.351795 
8   0.151255 
9   0.131062 
10   0.174552 
11   0.266659 
12   0.278183 
13   0.351629 
14   0.361755 
 
$$$$ 
 
