PCCDB-ID:  366 
public computational chemistry database (PCCDB) project, http://pccdb.org 
 
 26 27  0  0  0  0  0  0  0  0999 V2000 
    0.6423    0.9033    0.1326 C   0  0  0  0  0  0  0  0  0  0  0  0 
    5.7896   -6.0949   -1.1263 C   0  0  0  0  0  0  0  0  0  0  0  0 
    2.8493   -2.8711   -0.3499 C   0  0  0  0  0  0  0  0  0  0  0  0 
    2.1551   -1.6797   -0.1954 C   0  0  0  0  0  0  0  0  0  0  0  0 
    2.9038    1.9461    0.2894 C   0  0  0  0  0  0  0  0  0  0  0  0 
    4.9450   -1.6453   -0.1852 C   0  0  0  0  0  0  0  0  0  0  0  0 
    2.1455    0.8312    0.1349 C   0  0  0  0  0  0  0  0  0  0  0  0 
    4.7457   -5.0168   -1.2728 C   0  0  0  0  0  0  0  0  0  0  0  0 
    4.2510   -2.8380   -0.3480 C   0  0  0  0  0  0  0  0  0  0  0  0 
    2.8170   -0.4481   -0.0316 C   0  0  0  0  0  0  0  0  0  0  0  0 
    4.2264   -0.4611   -0.0268 C   0  0  0  0  0  0  0  0  0  0  0  0 
    4.3592    1.9290    0.3002 C   0  0  0  0  0  0  0  0  0  0  0  0 
    3.7973   -5.0386   -2.0152 O   0  0  0  0  0  0  0  0  0  0  0  0 
    5.0846    2.8846    0.4398 O   0  0  0  0  0  0  0  0  0  0  0  0 
    5.0431   -3.9777   -0.4212 O   0  0  0  0  0  0  0  0  0  0  0  0 
    4.9581    0.6772    0.1309 O   0  0  0  0  0  0  0  0  0  0  0  0 
    0.3001    1.9329    0.2634 H   0  0  0  0  0  0  0  0  0  0  0  0 
    0.2164    0.2961    0.9408 H   0  0  0  0  0  0  0  0  0  0  0  0 
    0.2299    0.5226   -0.8098 H   0  0  0  0  0  0  0  0  0  0  0  0 
    5.5440   -6.9271   -1.7865 H   0  0  0  0  0  0  0  0  0  0  0  0 
    5.8331   -6.4385   -0.0878 H   0  0  0  0  0  0  0  0  0  0  0  0 
    6.7779   -5.6970   -1.3793 H   0  0  0  0  0  0  0  0  0  0  0  0 
    2.3218   -3.8052   -0.4823 H   0  0  0  0  0  0  0  0  0  0  0  0 
    1.0704   -1.7028   -0.2008 H   0  0  0  0  0  0  0  0  0  0  0  0 
    2.4578    2.9264    0.4168 H   0  0  0  0  0  0  0  0  0  0  0  0 
    6.0285   -1.6292   -0.1760 H   0  0  0  0  0  0  0  0  0  0  0  0 
  1  7  1  0  0  0  0 
  1 17  1  0  0  0  0 
  1 18  1  0  0  0  0 
  2 21  1  0  0  0  0 
  3  9  2  0  0  0  0 
  3  4  1  0  0  0  0 
  4 10  2  0  0  0  0 
  5 12  1  0  0  0  0 
  5 25  1  0  0  0  0 
  6 26  1  0  0  0  0 
  6 11  2  0  0  0  0 
  7  5  2  0  0  0  0 
  8  2  1  0  0  0  0 
  8 15  1  0  0  0  0 
  9  6  1  0  0  0  0 
 10 11  1  0  0  0  0 
 10  7  1  0  0  0  0 
 11 16  1  0  0  0  0 
 12 14  2  0  0  0  0 
 13  8  2  0  0  0  0 
 15  9  1  0  0  0  0 
 16 12  1  0  0  0  0 
 19  1  1  0  0  0  0 
 20  2  1  0  0  0  0 
 22  2  1  0  0  0  0 
 23  3  1  0  0  0  0 
 24  4  1  0  0  0  0 
M  END 
>  <HBA> 
4 
 
>  <HBD> 
0 
 
>  <TPSA> 
56.51 
 
>  <cid> 
366 
 
>  <dipole> 
4.41 
 
>  <excitation_energy_1> 
4.144 
 
>  <excitation_energy_2> 
4.516 
 
>  <excitation_energy_3> 
4.536 
 
>  <excitation_energy_4> 
5.277 
 
>  <homo_energy> 
-6.373 
 
>  <homo_lumo_gap> 
4.585 
 
>  <logP> 
2.027 
 
>  <lumo_energy> 
-1.788 
 
>  <melting_point> 
114.0 
 
>  <molecular_refractivity> 
58.95 
 
>  <oscillator_strength_1> 
0.2424 
 
>  <oscillator_strength_2> 
0.0 
 
>  <oscillator_strength_3> 
0.1328 
 
>  <oscillator_strength_4> 
0.0454 
 
>  <open_babel_can_smiles> 
CC(=O)Oc1ccc2c(c1)oc(=O)cc2C 
 
>  <mulliken_charges> 
26 
1   -0.537484 
2   -0.52633 
3   -0.141529 
4   -0.221128 
5   -0.302755 
6   -0.230809 
7   0.203937 
8   0.59373 
9   0.362776 
10   0.090277 
11   0.317152 
12   0.606617 
13   -0.438524 
14   -0.468998 
15   -0.515153 
16   -0.520102 
17   0.173186 
18   0.175794 
19   0.177491 
20   0.188942 
21   0.189091 
22   0.190944 
23   0.165958 
24   0.144796 
25   0.156251 
26   0.165869 
 
>  <lowdin_charges> 
26 
1   -0.441493 
2   -0.461483 
3   -0.179652 
4   -0.141025 
5   -0.218004 
6   -0.187875 
7   0.044264 
8   0.213667 
9   0.118503 
10   -0.051408 
11   0.118186 
12   0.198244 
13   -0.233443 
14   -0.242174 
15   -0.162067 
16   -0.134582 
17   0.167127 
18   0.170249 
19   0.170233 
20   0.18006 
21   0.181156 
22   0.182926 
23   0.181588 
24   0.16561 
25   0.178248 
26   0.183147 
 
$$$$ 
 
