PCCDB-ID:  404 
public computational chemistry database (PCCDB) project, http://pccdb.org 
 
 25 24  0  0  1  0  0  0  0  0999 V2000 
    1.1288   -0.1608   -0.1765 C   0  0  0  0  0  0  0  0  0  0  0  0 
    0.7794   -1.5514    0.3812 C   0  0  0  0  0  0  0  0  0  0  0  0 
    2.6371    0.1056   -0.3225 C   0  0  0  0  0  0  0  0  0  0  0  0 
   -0.7237   -1.8316    0.5026 C   0  0  0  0  0  0  0  0  0  0  0  0 
    3.4057   -0.7468   -1.3616 C   0  0  1  0  0  0  0  0  0  0  0  0 
    2.8547   -0.4746   -2.7742 C   0  0  0  0  0  0  0  0  0  0  0  0 
    4.8294   -0.4398   -1.2548 N   0  0  0  0  0  0  0  0  0  0  0  0 
   -1.3340   -0.9654    1.5170 N   0  0  0  0  0  0  0  0  0  0  0  0 
    3.3045    0.3746   -3.5038 O   0  0  0  0  0  0  0  0  0  0  0  0 
    1.7901   -1.2231   -3.1757 O   0  0  0  0  0  0  0  0  0  0  0  0 
   -2.7533   -1.2522    1.5190 O   0  0  0  0  0  0  0  0  0  0  0  0 
    0.7316    0.6072    0.4991 H   0  0  0  0  0  0  0  0  0  0  0  0 
    0.6205   -0.0084   -1.1387 H   0  0  0  0  0  0  0  0  0  0  0  0 
    1.2475   -1.6794    1.3658 H   0  0  0  0  0  0  0  0  0  0  0  0 
    1.2043   -2.3381   -0.2602 H   0  0  0  0  0  0  0  0  0  0  0  0 
    3.1419   -0.0514    0.6376 H   0  0  0  0  0  0  0  0  0  0  0  0 
    2.7892    1.1599   -0.5893 H   0  0  0  0  0  0  0  0  0  0  0  0 
   -0.8799   -2.8634    0.8348 H   0  0  0  0  0  0  0  0  0  0  0  0 
   -1.2179   -1.7276   -0.4783 H   0  0  0  0  0  0  0  0  0  0  0  0 
    3.2790   -1.8115   -1.1231 H   0  0  0  0  0  0  0  0  0  0  0  0 
    4.9746    0.4944   -1.6407 H   0  0  0  0  0  0  0  0  0  0  0  0 
    5.3557   -1.0609   -1.8690 H   0  0  0  0  0  0  0  0  0  0  0  0 
   -1.3091   -0.0046    1.1728 H   0  0  0  0  0  0  0  0  0  0  0  0 
    1.5630   -1.8712   -2.4883 H   0  0  0  0  0  0  0  0  0  0  0  0 
   -2.9050   -1.5224    2.4384 H   0  0  0  0  0  0  0  0  0  0  0  0 
  1  2  1  0  0  0  0 
  1 12  1  0  0  0  0 
  2  4  1  0  0  0  0 
  2 14  1  0  0  0  0 
  3  1  1  0  0  0  0 
  3 16  1  0  0  0  0 
  4 18  1  0  0  0  0 
  4  8  1  0  0  0  0 
  5  7  1  0  0  0  0 
  5 20  1  1  0  0  0 
  5  3  1  0  0  0  0 
  6  5  1  0  0  0  0 
  8 11  1  0  0  0  0 
  9  6  2  0  0  0  0 
 10  6  1  0  0  0  0 
 10 24  1  0  0  0  0 
 11 25  1  0  0  0  0 
 13  1  1  0  0  0  0 
 15  2  1  0  0  0  0 
 17  3  1  0  0  0  0 
 19  4  1  0  0  0  0 
 21  7  1  0  0  0  0 
 22  7  1  0  0  0  0 
 23  8  1  0  0  0  0 
M  END 
>  <HBA> 
5 
 
>  <HBD> 
4 
 
>  <TPSA> 
95.58 
 
>  <cid> 
404 
 
>  <dipole> 
3.12 
 
>  <excitation_energy_1> 
5.488 
 
>  <excitation_energy_2> 
5.864 
 
>  <excitation_energy_3> 
5.907 
 
>  <excitation_energy_4> 
6.001 
 
>  <homo_energy> 
-6.7 
 
>  <homo_lumo_gap> 
6.74 
 
>  <logP> 
0.639 
 
>  <lumo_energy> 
0.041 
 
>  <melting_point> 
185.93 
 
>  <molecular_refractivity> 
38.97 
 
>  <oscillator_strength_1> 
0.0037 
 
>  <oscillator_strength_2> 
0.0019 
 
>  <oscillator_strength_3> 
0.0138 
 
>  <oscillator_strength_4> 
0.0071 
 
>  <open_babel_can_smiles> 
ONCCCC[C@@H](C(=O)O)N 
 
>  <mulliken_charges> 
25 
1   -0.301324 
2   -0.278757 
3   -0.251748 
4   -0.106998 
5   -0.102463 
6   0.578866 
7   -0.693574 
8   -0.361323 
9   -0.446478 
10   -0.565566 
11   -0.534254 
12   0.147171 
13   0.15019 
14   0.158781 
15   0.114158 
16   0.16565 
17   0.151457 
18   0.147826 
19   0.130972 
20   0.135965 
21   0.313794 
22   0.303609 
23   0.320343 
24   0.413667 
25   0.410036 
 
>  <lowdin_charges> 
25 
1   -0.293846 
2   -0.28572 
3   -0.272924 
4   -0.210431 
5   -0.111348 
6   0.176098 
7   -0.531366 
8   -0.242687 
9   -0.244432 
10   -0.35576 
11   -0.429933 
12   0.151715 
13   0.146088 
14   0.154383 
15   0.133053 
16   0.160869 
17   0.153202 
18   0.14862 
19   0.128759 
20   0.141597 
21   0.263986 
22   0.261311 
23   0.253446 
24   0.356653 
25   0.348669 
 
$$$$ 
 
