PCCDB-ID:  3608 
public computational chemistry database (PCCDB) project, http://pccdb.org 
 
 33 34  0  0  1  0  0  0  0  0999 V2000 
    0.9861    0.4081    0.1896 C   0  0  0  0  0  0  0  0  0  0  0  0 
    4.3613    2.0207   -2.6652 C   0  0  0  0  0  0  0  0  0  0  0  0 
    4.1793   -0.3131    4.1672 C   0  0  0  0  0  0  0  0  0  0  0  0 
    4.8868   -1.0494    3.0223 C   0  0  0  0  0  0  0  0  0  0  0  0 
    3.7293    1.0749    3.7014 C   0  0  0  0  0  0  0  0  0  0  0  0 
    4.1661   -0.9003    1.7057 C   0  0  0  0  0  0  0  0  0  0  0  0 
    2.7368    0.9775    2.5332 C   0  0  0  0  0  0  0  0  0  0  0  0 
    3.1797   -0.0162    1.4739 C   0  0  0  0  0  0  0  0  0  0  0  0 
    2.6232   -1.2372   -0.6741 C   0  0  0  0  0  0  0  0  0  0  0  0 
    3.1592    1.2303   -0.6959 C   0  0  0  0  0  0  0  0  0  0  0  0 
    3.6227   -0.3361   -2.5609 C   0  0  0  0  0  0  0  0  0  0  0  0 
    2.5046    0.0753    0.0845 C   0  0  1  0  0  0  0  0  0  0  0  0 
    3.0774   -1.4099   -1.8559 N   0  0  0  0  0  0  0  0  0  0  0  0 
    3.7305    0.9274   -1.9143 N   0  0  0  0  0  0  0  0  0  0  0  0 
    2.1288   -2.3249   -0.0573 O   0  0  0  0  0  0  0  0  0  0  0  0 
    3.1540    2.3684   -0.2494 O   0  0  0  0  0  0  0  0  0  0  0  0 
    4.0253   -0.4606   -3.6988 O   0  0  0  0  0  0  0  0  0  0  0  0 
    0.4603   -0.3256    0.8082 H   0  0  0  0  0  0  0  0  0  0  0  0 
    0.5287    0.4037   -0.8050 H   0  0  0  0  0  0  0  0  0  0  0  0 
    0.8534    1.3999    0.6239 H   0  0  0  0  0  0  0  0  0  0  0  0 
    4.8054    2.7161   -1.9543 H   0  0  0  0  0  0  0  0  0  0  0  0 
    3.6186    2.5531   -3.2682 H   0  0  0  0  0  0  0  0  0  0  0  0 
    5.1126    1.5918   -3.3251 H   0  0  0  0  0  0  0  0  0  0  0  0 
    4.8440   -0.2383    5.0356 H   0  0  0  0  0  0  0  0  0  0  0  0 
    3.3024   -0.8922    4.4890 H   0  0  0  0  0  0  0  0  0  0  0  0 
    4.9978   -2.1168    3.2571 H   0  0  0  0  0  0  0  0  0  0  0  0 
    5.9132   -0.6680    2.9048 H   0  0  0  0  0  0  0  0  0  0  0  0 
    4.6081    1.6492    3.3779 H   0  0  0  0  0  0  0  0  0  0  0  0 
    3.2724    1.6352    4.5255 H   0  0  0  0  0  0  0  0  0  0  0  0 
    4.5031   -1.5613    0.9078 H   0  0  0  0  0  0  0  0  0  0  0  0 
    2.6212    1.9592    2.0633 H   0  0  0  0  0  0  0  0  0  0  0  0 
    1.7426    0.6965    2.9132 H   0  0  0  0  0  0  0  0  0  0  0  0 
    2.0046   -2.1140    0.8854 H   0  0  0  0  0  0  0  0  0  0  0  0 
  1 20  1  0  0  0  0 
  1 18  1  0  0  0  0 
  2 21  1  0  0  0  0 
  2 14  1  0  0  0  0 
  3 25  1  0  0  0  0 
  3 24  1  0  0  0  0 
  4 26  1  0  0  0  0 
  4  3  1  0  0  0  0 
  5  3  1  0  0  0  0 
  5 29  1  0  0  0  0 
  6  4  1  0  0  0  0 
  7 32  1  0  0  0  0 
  7  5  1  0  0  0  0 
  8  6  2  0  0  0  0 
  8  7  1  0  0  0  0 
  9 15  1  0  0  0  0 
  9 12  1  0  0  0  0 
 10 16  2  0  0  0  0 
 10 12  1  0  0  0  0 
 11 14  1  0  0  0  0 
 11 13  1  0  0  0  0 
 12  1  1  1  0  0  0 
 12  8  1  0  0  0  0 
 13  9  2  0  0  0  0 
 14 10  1  0  0  0  0 
 15 33  1  0  0  0  0 
 17 11  2  0  0  0  0 
 19  1  1  0  0  0  0 
 22  2  1  0  0  0  0 
 23  2  1  0  0  0  0 
 27  4  1  0  0  0  0 
 28  5  1  0  0  0  0 
 30  6  1  0  0  0  0 
 31  7  1  0  0  0  0 
M  END 
>  <HBA> 
5 
 
>  <HBD> 
1 
 
>  <TPSA> 
66.48 
 
>  <cid> 
3608 
 
>  <dipole> 
5.51 
 
>  <excitation_energy_1> 
4.409 
 
>  <excitation_energy_2> 
4.657 
 
>  <excitation_energy_3> 
4.886 
 
>  <excitation_energy_4> 
5.154 
 
>  <homo_energy> 
-6.92 
 
>  <homo_lumo_gap> 
5.51 
 
>  <logP> 
1.468 
 
>  <lumo_energy> 
-1.41 
 
>  <melting_point> 
150.83 
 
>  <molecular_refractivity> 
69.35 
 
>  <oscillator_strength_1> 
0.0036 
 
>  <oscillator_strength_2> 
0.0015 
 
>  <oscillator_strength_3> 
0.0044 
 
>  <oscillator_strength_4> 
0.0184 
 
>  <open_babel_can_smiles> 
O=C1N=C(O)[C@@](C(=O)N1C)(C)C1=CCCCC1 
 
>  <mulliken_charges> 
33 
1   -0.458791 
2   -0.316315 
3   -0.265346 
4   -0.299899 
5   -0.271146 
6   -0.17984 
7   -0.340983 
8   0.116185 
9   0.536943 
10   0.655275 
11   0.700032 
12   -0.176411 
13   -0.497006 
14   -0.511443 
15   -0.568754 
16   -0.509207 
17   -0.464641 
18   0.153307 
19   0.174045 
20   0.194901 
21   0.185957 
22   0.17524 
23   0.194459 
24   0.140714 
25   0.133545 
26   0.150316 
27   0.158063 
28   0.147714 
29   0.13897 
30   0.15364 
31   0.193322 
32   0.140763 
33   0.41639 
 
>  <lowdin_charges> 
33 
1   -0.433015 
2   -0.353361 
3   -0.277025 
4   -0.2729 
5   -0.275451 
6   -0.183845 
7   -0.284897 
8   -0.030034 
9   0.15826 
10   0.169123 
11   0.182157 
12   -0.045503 
13   -0.183269 
14   -0.089169 
15   -0.318329 
16   -0.281343 
17   -0.243582 
18   0.156052 
19   0.166446 
20   0.176961 
21   0.175601 
22   0.164938 
23   0.180763 
24   0.149684 
25   0.141134 
26   0.153365 
27   0.155803 
28   0.148238 
29   0.149956 
30   0.163521 
31   0.174224 
32   0.1462 
33   0.359296 
 
$$$$ 
 
