PCCDB-ID:  4655 
public computational chemistry database (PCCDB) project, http://pccdb.org 
 
 27 27  0  0  1  0  0  0  0  0999 V2000 
    0.6856    0.0572   -0.3028 C   0  0  0  0  0  0  0  0  0  0  0  0 
    2.6373    2.2307   -1.2217 C   0  0  0  0  0  0  0  0  0  0  0  0 
    1.3680   -3.0052    1.4279 C   0  0  0  0  0  0  0  0  0  0  0  0 
    2.5540   -1.5058    2.8736 C   0  0  0  0  0  0  0  0  0  0  0  0 
    0.8373   -3.6648    2.5380 C   0  0  0  0  0  0  0  0  0  0  0  0 
    2.0344   -2.1497    3.9918 C   0  0  0  0  0  0  0  0  0  0  0  0 
    2.8012   -1.1933    0.3659 C   0  0  0  0  0  0  0  0  0  0  0  0 
    2.1642    0.1858    0.0757 C   0  0  1  0  0  0  0  0  0  0  0  0 
    2.2318   -1.9135    1.5689 C   0  0  0  0  0  0  0  0  0  0  0  0 
    1.1696   -3.2371    3.8257 C   0  0  0  0  0  0  0  0  0  0  0  0 
    2.9216    0.8138   -1.0148 N   0  0  0  0  0  0  0  0  0  0  0  0 
    0.6881   -3.8403    4.9568 O   0  0  0  0  0  0  0  0  0  0  0  0 
    0.1293   -0.4578    0.4864 H   0  0  0  0  0  0  0  0  0  0  0  0 
    0.5850   -0.5108   -1.2352 H   0  0  0  0  0  0  0  0  0  0  0  0 
    0.2198    1.0369   -0.4509 H   0  0  0  0  0  0  0  0  0  0  0  0 
    3.3577    2.6388   -1.9383 H   0  0  0  0  0  0  0  0  0  0  0  0 
    2.6843    2.8414   -0.2995 H   0  0  0  0  0  0  0  0  0  0  0  0 
    1.6398    2.3605   -1.6539 H   0  0  0  0  0  0  0  0  0  0  0  0 
    1.1029   -3.3520    0.4319 H   0  0  0  0  0  0  0  0  0  0  0  0 
    3.2310   -0.6664    3.0181 H   0  0  0  0  0  0  0  0  0  0  0  0 
    0.1689   -4.5134    2.4004 H   0  0  0  0  0  0  0  0  0  0  0  0 
    2.2907   -1.8309    4.9974 H   0  0  0  0  0  0  0  0  0  0  0  0 
    3.8811   -1.0437    0.5162 H   0  0  0  0  0  0  0  0  0  0  0  0 
    2.6970   -1.8136   -0.5326 H   0  0  0  0  0  0  0  0  0  0  0  0 
    2.2263    0.7896    1.0044 H   0  0  0  0  0  0  0  0  0  0  0  0 
    3.9147    0.7130   -0.8113 H   0  0  0  0  0  0  0  0  0  0  0  0 
    0.1065   -4.5718    4.6978 H   0  0  0  0  0  0  0  0  0  0  0  0 
  1  8  1  0  0  0  0 
  1 13  1  0  0  0  0 
  2 11  1  0  0  0  0 
  2 17  1  0  0  0  0 
  3  9  2  0  0  0  0 
  3  5  1  0  0  0  0 
  4 20  1  0  0  0  0 
  4  6  2  0  0  0  0 
  5 10  2  0  0  0  0 
  6 22  1  0  0  0  0 
  7 23  1  0  0  0  0 
  7  9  1  0  0  0  0 
  8  7  1  0  0  0  0 
  8 25  1  1  0  0  0 
  9  4  1  0  0  0  0 
 10  6  1  0  0  0  0 
 10 12  1  0  0  0  0 
 11 26  1  0  0  0  0 
 11  8  1  0  0  0  0 
 14  1  1  0  0  0  0 
 15  1  1  0  0  0  0 
 16  2  1  0  0  0  0 
 18  2  1  0  0  0  0 
 19  3  1  0  0  0  0 
 21  5  1  0  0  0  0 
 24  7  1  0  0  0  0 
 27 12  1  0  0  0  0 
M  END 
>  <HBA> 
2 
 
>  <HBD> 
2 
 
>  <TPSA> 
32.26 
 
>  <cid> 
4655 
 
>  <dipole> 
0.5 
 
>  <excitation_energy_1> 
4.929 
 
>  <excitation_energy_2> 
5.097 
 
>  <excitation_energy_3> 
5.158 
 
>  <excitation_energy_4> 
5.294 
 
>  <homo_energy> 
-5.81 
 
>  <homo_lumo_gap> 
5.807 
 
>  <logP> 
1.933 
 
>  <lumo_energy> 
-0.003 
 
>  <melting_point> 
73.31 
 
>  <molecular_refractivity> 
50.65 
 
>  <oscillator_strength_1> 
0.0295 
 
>  <oscillator_strength_2> 
0.0002 
 
>  <oscillator_strength_3> 
0.0061 
 
>  <oscillator_strength_4> 
0.0016 
 
>  <open_babel_can_smiles> 
CN[C@H](Cc1ccc(cc1)O)C 
 
>  <mulliken_charges> 
27 
1   -0.448111 
2   -0.304475 
3   -0.192635 
4   -0.186562 
5   -0.193367 
6   -0.157467 
7   -0.367407 
8   0.068045 
9   0.173886 
10   0.347633 
11   -0.546165 
12   -0.644101 
13   0.153094 
14   0.147095 
15   0.142594 
16   0.145835 
17   0.118301 
18   0.155623 
19   0.127971 
20   0.123918 
21   0.116891 
22   0.138271 
23   0.131817 
24   0.150472 
25   0.102645 
26   0.289893 
27   0.406303 
 
>  <lowdin_charges> 
27 
1   -0.453919 
2   -0.362419 
3   -0.155786 
4   -0.153694 
5   -0.214035 
6   -0.184804 
7   -0.274505 
8   -0.057347 
9   -0.022685 
10   0.098728 
11   -0.363175 
12   -0.380976 
13   0.158543 
14   0.151256 
15   0.14939 
16   0.15159 
17   0.120368 
18   0.148127 
19   0.15653 
20   0.15539 
21   0.152574 
22   0.16597 
23   0.142545 
24   0.153738 
25   0.113243 
26   0.24746 
27   0.357894 
 
$$$$ 
 
