PCCDB-ID:  558 
public computational chemistry database (PCCDB) project, http://pccdb.org 
 
 23 22  0  0  0  0  0  0  0  0999 V2000 
    0.8893    0.0376   -0.2384 C   0  0  0  0  0  0  0  0  0  0  0  0 
    0.3701    1.4748   -0.1662 C   0  0  0  0  0  0  0  0  0  0  0  0 
    2.3706   -0.1181    0.1380 C   0  0  0  0  0  0  0  0  0  0  0  0 
   -1.1216    1.5696   -0.3713 C   0  0  0  0  0  0  0  0  0  0  0  0 
   -1.6808    3.0120   -0.4348 C   0  0  0  0  0  0  0  0  0  0  0  0 
    3.7524    1.8779   -0.3671 C   0  0  0  0  0  0  0  0  0  0  0  0 
    3.4229    2.4228    0.7488 N   0  0  0  0  0  0  0  0  0  0  0  0 
    4.5444    2.4396   -1.3847 N   0  0  0  0  0  0  0  0  0  0  0  0 
    3.3101    0.6087   -0.7093 N   0  0  0  0  0  0  0  0  0  0  0  0 
   -1.8710    0.6239   -0.4881 O   0  0  0  0  0  0  0  0  0  0  0  0 
   -3.0246    3.0353   -0.4545 O   0  0  0  0  0  0  0  0  0  0  0  0 
   -0.9820    4.0009   -0.4696 O   0  0  0  0  0  0  0  0  0  0  0  0 
    0.7160   -0.3615   -1.2478 H   0  0  0  0  0  0  0  0  0  0  0  0 
    0.2975   -0.5975    0.4323 H   0  0  0  0  0  0  0  0  0  0  0  0 
    0.8600    2.1288   -0.8980 H   0  0  0  0  0  0  0  0  0  0  0  0 
    0.6198    1.9415    0.7971 H   0  0  0  0  0  0  0  0  0  0  0  0 
    2.6318   -1.1836    0.0997 H   0  0  0  0  0  0  0  0  0  0  0  0 
    2.5428    0.2325    1.1578 H   0  0  0  0  0  0  0  0  0  0  0  0 
    3.9265    3.2989    0.8919 H   0  0  0  0  0  0  0  0  0  0  0  0 
    5.0141    3.2920   -1.1042 H   0  0  0  0  0  0  0  0  0  0  0  0 
    5.1958    1.7857   -1.8075 H   0  0  0  0  0  0  0  0  0  0  0  0 
    3.2096    0.4559   -1.7055 H   0  0  0  0  0  0  0  0  0  0  0  0 
   -3.2792    3.9766   -0.4996 H   0  0  0  0  0  0  0  0  0  0  0  0 
  1  2  1  0  0  0  0 
  1  3  1  0  0  0  0 
  1 14  1  0  0  0  0 
  2 16  1  0  0  0  0 
  3 18  1  0  0  0  0 
  4  2  1  0  0  0  0 
  5  4  1  0  0  0  0 
  6  7  1  0  0  0  0 
  7 19  1  0  0  0  0 
  8 20  1  0  0  0  0 
  8  6  2  0  0  0  0 
  9  6  1  0  0  0  0 
  9  3  1  0  0  0  0 
 10  4  2  0  0  0  0 
 11  5  1  0  0  0  0 
 12  5  2  0  0  0  0 
 13  1  1  0  0  0  0 
 15  2  1  0  0  0  0 
 17  3  1  0  0  0  0 
 21  8  1  0  0  0  0 
 22  9  1  0  0  0  0 
 23 11  1  0  0  0  0 
M  RAD  1   7   2 
M  END 
>  <HBA> 
6 
 
>  <HBD> 
3 
 
>  <TPSA> 
118.77 
 
>  <cid> 
558 
 
>  <dipole> 
3.34 
 
>  <excitation_energy_1> 
3.266 
 
>  <excitation_energy_2> 
3.548 
 
>  <excitation_energy_3> 
4.353 
 
>  <excitation_energy_4> 
4.707 
 
>  <homo_energy> 
-6.046 
 
>  <homo_lumo_gap> 
4.15 
 
>  <logP> 
0.094 
 
>  <lumo_energy> 
-1.897 
 
>  <melting_point> 
198.35 
 
>  <molecular_refractivity> 
42.03 
 
>  <oscillator_strength_1> 
0.0001 
 
>  <oscillator_strength_2> 
0.0015 
 
>  <oscillator_strength_3> 
0.0021 
 
>  <oscillator_strength_4> 
0.0026 
 
>  <open_babel_can_smiles> 
[NH]C(=[NH2])NCCCC(=O)C(=O)O 
 
>  <mulliken_charges> 
23 
1   -0.266914 
2   -0.35028 
3   -0.135305 
4   0.395752 
5   0.522684 
6   0.594708 
7   -0.653306 
8   -0.757763 
9   -0.596651 
10   -0.419586 
11   -0.539855 
12   -0.444869 
13   0.136058 
14   0.155567 
15   0.187396 
16   0.204839 
17   0.139347 
18   0.190456 
19   0.266791 
20   0.320539 
21   0.321509 
22   0.314674 
23   0.414209 
 
>  <lowdin_charges> 
23 
1   -0.281934 
2   -0.307114 
3   -0.197279 
4   0.138376 
5   0.162125 
6   0.126429 
7   -0.488059 
8   -0.514572 
9   -0.304608 
10   -0.191444 
11   -0.323807 
12   -0.244846 
13   0.142168 
14   0.159103 
15   0.181543 
16   0.188891 
17   0.143032 
18   0.173558 
19   0.248321 
20   0.276745 
21   0.278535 
22   0.270873 
23   0.363962 
 
$$$$ 
 
