PCCDB-ID:  4176 
public computational chemistry database (PCCDB) project, http://pccdb.org 
 
 30 29  0  0  0  0  0  0  0  0999 V2000 
    3.3265    2.4755    3.9354 C   0  0  0  0  0  0  0  0  0  0  0  0 
    3.7631    1.2490   -1.9131 C   0  0  0  0  0  0  0  0  0  0  0  0 
    7.7045    1.8492   -3.4619 C   0  0  0  0  0  0  0  0  0  0  0  0 
    7.5014   -2.4148   -2.6629 C   0  0  0  0  0  0  0  0  0  0  0  0 
    3.0676    1.0442    3.4877 C   0  0  0  0  0  0  0  0  0  0  0  0 
    4.7587    0.4477    0.2994 C   0  0  0  0  0  0  0  0  0  0  0  0 
    4.7800    0.5873   -1.0407 C   0  0  0  0  0  0  0  0  0  0  0  0 
    3.7006    0.9481    1.1893 C   0  0  0  0  0  0  0  0  0  0  0  0 
    2.6867    1.5534    0.8821 O   0  0  0  0  0  0  0  0  0  0  0  0 
    4.9621   -0.9174   -3.9021 O   0  0  0  0  0  0  0  0  0  0  0  0 
    6.5555    1.1115   -3.9239 O   0  0  0  0  0  0  0  0  0  0  0  0 
    7.4938   -1.0652   -3.1715 O   0  0  0  0  0  0  0  0  0  0  0  0 
    4.0104    0.6294    2.4745 O   0  0  0  0  0  0  0  0  0  0  0  0 
    5.9151    0.0720   -1.6526 O   0  0  0  0  0  0  0  0  0  0  0  0 
    6.1083   -0.2637   -3.2478 P   0  0  0  0  0  0  0  0  0  0  0  0 
    2.6495    2.7377    4.7568 H   0  0  0  0  0  0  0  0  0  0  0  0 
    3.1519    3.1718    3.1106 H   0  0  0  0  0  0  0  0  0  0  0  0 
    4.3566    2.5931    4.2879 H   0  0  0  0  0  0  0  0  0  0  0  0 
    4.2392    2.0269   -2.5227 H   0  0  0  0  0  0  0  0  0  0  0  0 
    2.9805    1.6877   -1.2960 H   0  0  0  0  0  0  0  0  0  0  0  0 
    3.3305    0.5183   -2.6050 H   0  0  0  0  0  0  0  0  0  0  0  0 
    7.7153    2.7773   -4.0345 H   0  0  0  0  0  0  0  0  0  0  0  0 
    8.6179    1.2800   -3.6508 H   0  0  0  0  0  0  0  0  0  0  0  0 
    7.6172    2.0716   -2.3942 H   0  0  0  0  0  0  0  0  0  0  0  0 
    8.4960   -2.8114   -2.8696 H   0  0  0  0  0  0  0  0  0  0  0  0 
    6.7443   -3.0178   -3.1711 H   0  0  0  0  0  0  0  0  0  0  0  0 
    7.3180   -2.4097   -1.5842 H   0  0  0  0  0  0  0  0  0  0  0  0 
    2.0536    0.9317    3.0961 H   0  0  0  0  0  0  0  0  0  0  0  0 
    3.2212    0.3357    4.3059 H   0  0  0  0  0  0  0  0  0  0  0  0 
    5.5844   -0.0666    0.7780 H   0  0  0  0  0  0  0  0  0  0  0  0 
  1 18  1  0  0  0  0 
  1 16  1  0  0  0  0 
  2 20  1  0  0  0  0 
  2  7  1  0  0  0  0 
  3 24  1  0  0  0  0 
  4 27  1  0  0  0  0 
  5  1  1  0  0  0  0 
  5 29  1  0  0  0  0 
  6 30  1  0  0  0  0 
  6  8  1  0  0  0  0 
  7  6  2  0  0  0  0 
  8 13  1  0  0  0  0 
  9  8  2  0  0  0  0 
 10 15  2  0  0  0  0 
 11  3  1  0  0  0  0 
 11 15  1  0  0  0  0 
 12  4  1  0  0  0  0 
 13  5  1  0  0  0  0 
 14  7  1  0  0  0  0 
 15 12  1  0  0  0  0 
 15 14  1  0  0  0  0 
 17  1  1  0  0  0  0 
 19  2  1  0  0  0  0 
 21  2  1  0  0  0  0 
 22  3  1  0  0  0  0 
 23  3  1  0  0  0  0 
 25  4  1  0  0  0  0 
 26  4  1  0  0  0  0 
 28  5  1  0  0  0  0 
M  END 
>  <HBA> 
6 
 
>  <HBD> 
0 
 
>  <TPSA> 
80.87 
 
>  <cid> 
4176 
 
>  <dipole> 
4.31 
 
>  <excitation_energy_1> 
4.898 
 
>  <excitation_energy_2> 
5.534 
 
>  <excitation_energy_3> 
6.208 
 
>  <excitation_energy_4> 
6.377 
 
>  <homo_energy> 
-6.817 
 
>  <homo_lumo_gap> 
5.842 
 
>  <logP> 
1.871 
 
>  <lumo_energy> 
-0.974 
 
>  <melting_point> 
-11.31 
 
>  <molecular_refractivity> 
53.3 
 
>  <oscillator_strength_1> 
0.0 
 
>  <oscillator_strength_2> 
0.6172 
 
>  <oscillator_strength_3> 
0.0019 
 
>  <oscillator_strength_4> 
0.0475 
 
>  <open_babel_can_smiles> 
CCOC(=O)/C=C(/OP(=O)(OC)OC)\C 
 
>  <mulliken_charges> 
30 
1   -0.461583 
2   -0.573251 
3   -0.227254 
4   -0.224717 
5   -0.039544 
6   -0.282571 
7   0.416711 
8   0.627792 
9   -0.510195 
10   -0.5403 
11   -0.507326 
12   -0.521444 
13   -0.477127 
14   -0.583048 
15   1.264263 
16   0.148203 
17   0.175747 
18   0.15496 
19   0.175858 
20   0.221197 
21   0.217397 
22   0.178924 
23   0.181187 
24   0.171662 
25   0.176503 
26   0.188886 
27   0.173779 
28   0.169783 
29   0.150047 
30   0.15546 
 
>  <lowdin_charges> 
30 
1   -0.455597 
2   -0.475586 
3   -0.266613 
4   -0.265693 
5   -0.129213 
6   -0.253373 
7   0.162701 
8   0.202658 
9   -0.289369 
10   -0.565285 
11   -0.377812 
12   -0.38825 
13   -0.199245 
14   -0.349974 
15   1.131838 
16   0.158295 
17   0.165683 
18   0.15392 
19   0.174415 
20   0.19758 
21   0.195759 
22   0.167393 
23   0.16463 
24   0.157591 
25   0.16591 
26   0.171173 
27   0.15782 
28   0.157504 
29   0.151747 
30   0.179393 
 
$$$$ 
 
