PCCDB-ID:  1049 
public computational chemistry database (PCCDB) project, http://pccdb.org 
 
 11 11  0  0  0  0  0  0  0  0999 V2000 
   -1.4112   -0.0767   -0.0183 C   0  0  0  0  0  0  0  0  0  0  0  0 
   -0.7623    1.1574    0.0052 C   0  0  0  0  0  0  0  0  0  0  0  0 
   -0.6374   -1.2367   -0.0019 C   0  0  0  0  0  0  0  0  0  0  0  0 
    0.6333    1.1734    0.0433 C   0  0  0  0  0  0  0  0  0  0  0  0 
    0.7522   -1.1078    0.0380 C   0  0  0  0  0  0  0  0  0  0  0  0 
    1.3906    0.0692    0.0601 N   0  0  0  0  0  0  0  0  0  0  0  0 
   -2.4961   -0.1332   -0.0488 H   0  0  0  0  0  0  0  0  0  0  0  0 
   -1.3209    2.0888   -0.0054 H   0  0  0  0  0  0  0  0  0  0  0  0 
   -1.0960   -2.2211   -0.0196 H   0  0  0  0  0  0  0  0  0  0  0  0 
    1.1711    2.1204    0.0610 H   0  0  0  0  0  0  0  0  0  0  0  0 
    1.3855   -1.9937    0.0531 H   0  0  0  0  0  0  0  0  0  0  0  0 
  1  3  2  0  0  0  0 
  1  2  1  0  0  0  0 
  2  4  2  0  0  0  0 
  3  5  1  0  0  0  0 
  4  6  1  0  0  0  0 
  4 10  1  0  0  0  0 
  5 11  1  0  0  0  0 
  5  6  2  0  0  0  0 
  7  1  1  0  0  0  0 
  8  2  1  0  0  0  0 
  9  3  1  0  0  0  0 
M  END 
>  <HBA> 
1 
 
>  <HBD> 
0 
 
>  <TPSA> 
12.89 
 
>  <cid> 
1049 
 
>  <dipole> 
2.19 
 
>  <excitation_energy_1> 
4.849 
 
>  <excitation_energy_2> 
5.137 
 
>  <excitation_energy_3> 
5.518 
 
>  <excitation_energy_4> 
6.301 
 
>  <homo_energy> 
-6.874 
 
>  <homo_lumo_gap> 
6.261 
 
>  <logP> 
1.082 
 
>  <lumo_energy> 
-0.612 
 
>  <melting_point> 
17.82 
 
>  <molecular_refractivity> 
24.24 
 
>  <oscillator_strength_1> 
0.0044 
 
>  <oscillator_strength_2> 
0.0 
 
>  <oscillator_strength_3> 
0.0392 
 
>  <oscillator_strength_4> 
0.0159 
 
>  <open_babel_can_smiles> 
c1cccnc1 
 
>  <mulliken_charges> 
11 
1   -0.104033 
2   -0.136686 
3   -0.136519 
4   0.038858 
5   0.038815 
6   -0.405716 
7   0.144356 
8   0.138278 
9   0.138256 
10   0.142189 
11   0.142203 
 
>  <lowdin_charges> 
11 
1   -0.125739 
2   -0.176059 
3   -0.17522 
4   -0.087936 
5   -0.088713 
6   -0.149929 
7   0.161256 
8   0.164408 
9   0.163814 
10   0.156747 
11   0.157372 
 
$$$$ 
 
