PCCDB-ID:  310 
public computational chemistry database (PCCDB) project, http://pccdb.org 
 
 16 15  0  0  0  0  0  0  0  0999 V2000 
    1.1820   -0.0204    0.0021 C   0  0  0  0  0  0  0  0  0  0  0  0 
    0.5794   -0.5932   -1.1808 C   0  0  0  0  0  0  0  0  0  0  0  0 
    2.5115    0.1241    0.1664 C   0  0  0  0  0  0  0  0  0  0  0  0 
   -0.7502   -0.7361   -1.3459 C   0  0  0  0  0  0  0  0  0  0  0  0 
    3.0551    0.7170    1.4058 C   0  0  0  0  0  0  0  0  0  0  0  0 
   -1.2936   -1.3335   -2.5832 C   0  0  0  0  0  0  0  0  0  0  0  0 
    4.4109    0.7751    1.3731 O   0  0  0  0  0  0  0  0  0  0  0  0 
    2.4030    1.1121    2.3524 O   0  0  0  0  0  0  0  0  0  0  0  0 
   -2.6496   -1.3877   -2.5523 O   0  0  0  0  0  0  0  0  0  0  0  0 
   -0.6411   -1.7352   -3.5267 O   0  0  0  0  0  0  0  0  0  0  0  0 
    0.5271    0.3122    0.8057 H   0  0  0  0  0  0  0  0  0  0  0  0 
    1.2344   -0.9288   -1.9830 H   0  0  0  0  0  0  0  0  0  0  0  0 
    3.2220   -0.1858   -0.5944 H   0  0  0  0  0  0  0  0  0  0  0  0 
   -1.4609   -0.4228   -0.5867 H   0  0  0  0  0  0  0  0  0  0  0  0 
    4.6839    1.1742    2.2203 H   0  0  0  0  0  0  0  0  0  0  0  0 
   -2.9223   -1.7915   -3.3973 H   0  0  0  0  0  0  0  0  0  0  0  0 
  1  3  2  0  0  0  0 
  1 11  1  0  0  0  0 
  2  1  1  0  0  0  0 
  3  5  1  0  0  0  0 
  4  2  2  0  0  0  0 
  4 14  1  0  0  0  0 
  5  8  2  0  0  0  0 
  6  9  1  0  0  0  0 
  6  4  1  0  0  0  0 
  7  5  1  0  0  0  0 
  7 15  1  0  0  0  0 
 10  6  2  0  0  0  0 
 12  2  1  0  0  0  0 
 13  3  1  0  0  0  0 
 16  9  1  0  0  0  0 
M  END 
>  <HBA> 
4 
 
>  <HBD> 
2 
 
>  <TPSA> 
74.6 
 
>  <cid> 
310 
 
>  <dipole> 
0.0 
 
>  <excitation_energy_1> 
4.074 
 
>  <excitation_energy_2> 
4.122 
 
>  <excitation_energy_3> 
4.546 
 
>  <excitation_energy_4> 
5.576 
 
>  <homo_energy> 
-7.146 
 
>  <homo_lumo_gap> 
4.504 
 
>  <logP> 
0.268 
 
>  <lumo_energy> 
-2.642 
 
>  <melting_point> 
147.33 
 
>  <molecular_refractivity> 
33.55 
 
>  <oscillator_strength_1> 
0.0 
 
>  <oscillator_strength_2> 
0.0 
 
>  <oscillator_strength_3> 
0.8786 
 
>  <oscillator_strength_4> 
0.0 
 
>  <open_babel_can_smiles> 
OC(=O)/C=C/C=C/C(=O)O 
 
>  <mulliken_charges> 
16 
1   -0.081407 
2   -0.081586 
3   -0.187108 
4   -0.187044 
5   0.566448 
6   0.566454 
7   -0.578934 
8   -0.472986 
9   -0.578936 
10   -0.472987 
11   0.176729 
12   0.176733 
13   0.1647 
14   0.164698 
15   0.412613 
16   0.412613 
 
>  <lowdin_charges> 
16 
1   -0.101234 
2   -0.101247 
3   -0.183197 
4   -0.183204 
5   0.194319 
6   0.194322 
7   -0.358671 
8   -0.272425 
9   -0.358698 
10   -0.272425 
11   0.18057 
12   0.180577 
13   0.177253 
14   0.177257 
15   0.363388 
16   0.363415 
 
$$$$ 
 
