PCCDB-ID:  5530 
public computational chemistry database (PCCDB) project, http://pccdb.org 
 
 21 22  0  0  1  0  0  0  0  0999 V2000 
   -1.4372   -0.0359    0.1287 C   0  0  0  0  0  0  0  0  0  0  0  0 
   -0.8659    1.1515   -0.3363 C   0  0  0  0  0  0  0  0  0  0  0  0 
   -0.6145   -1.1159    0.4505 C   0  0  0  0  0  0  0  0  0  0  0  0 
    0.5174    1.2550   -0.4764 C   0  0  0  0  0  0  0  0  0  0  0  0 
    0.7706   -1.0086    0.3084 C   0  0  0  0  0  0  0  0  0  0  0  0 
    3.8342   -0.2750    0.6506 C   0  0  0  0  0  0  0  0  0  0  0  0 
    1.3552    0.1761   -0.1557 C   0  0  0  0  0  0  0  0  0  0  0  0 
    2.8386    0.2951   -0.3445 C   0  0  1  0  0  0  0  0  0  0  0  0 
    3.6725    1.2259    0.4928 C   0  0  2  0  0  0  0  0  0  0  0  0 
    4.6438    2.0906   -0.1398 N   0  0  0  0  0  0  0  0  0  0  0  0 
   -2.5153   -0.1165    0.2406 H   0  0  0  0  0  0  0  0  0  0  0  0 
   -1.4995    1.9987   -0.5863 H   0  0  0  0  0  0  0  0  0  0  0  0 
   -1.0497   -2.0434    0.8140 H   0  0  0  0  0  0  0  0  0  0  0  0 
    0.9613    2.1817   -0.8323 H   0  0  0  0  0  0  0  0  0  0  0  0 
    1.4081   -1.8529    0.5585 H   0  0  0  0  0  0  0  0  0  0  0  0 
    4.7339   -0.7400    0.2539 H   0  0  0  0  0  0  0  0  0  0  0  0 
    3.4494   -0.7418    1.5543 H   0  0  0  0  0  0  0  0  0  0  0  0 
    3.1563    0.2327   -1.3877 H   0  0  0  0  0  0  0  0  0  0  0  0 
    3.1462    1.7278    1.3026 H   0  0  0  0  0  0  0  0  0  0  0  0 
    5.0072    1.6517   -0.9843 H   0  0  0  0  0  0  0  0  0  0  0  0 
    5.4438    2.2235    0.4789 H   0  0  0  0  0  0  0  0  0  0  0  0 
  1 11  1  0  0  0  0 
  1  3  2  0  0  0  0 
  2  1  1  0  0  0  0 
  3 13  1  0  0  0  0 
  4  2  2  0  0  0  0 
  4  7  1  0  0  0  0 
  5  3  1  0  0  0  0 
  5 15  1  0  0  0  0 
  6 17  1  0  0  0  0 
  7  5  2  0  0  0  0 
  8 18  1  6  0  0  0 
  8  7  1  0  0  0  0 
  8  9  1  0  0  0  0 
  8  6  1  0  0  0  0 
  9  6  1  0  0  0  0 
  9 19  1  1  0  0  0 
 10 21  1  0  0  0  0 
 10  9  1  0  0  0  0 
 12  2  1  0  0  0  0 
 14  4  1  0  0  0  0 
 16  6  1  0  0  0  0 
 20 10  1  0  0  0  0 
M  END 
>  <HBA> 
1 
 
>  <HBD> 
1 
 
>  <TPSA> 
26.02 
 
>  <cid> 
5530 
 
>  <dipole> 
1.37 
 
>  <excitation_energy_1> 
5.09 
 
>  <excitation_energy_2> 
5.171 
 
>  <excitation_energy_3> 
5.461 
 
>  <excitation_energy_4> 
5.622 
 
>  <homo_energy> 
-5.875 
 
>  <homo_lumo_gap> 
5.948 
 
>  <logP> 
2.201 
 
>  <lumo_energy> 
0.073 
 
>  <melting_point> 
82.65 
 
>  <molecular_refractivity> 
41.62 
 
>  <oscillator_strength_1> 
0.012 
 
>  <oscillator_strength_2> 
0.0314 
 
>  <oscillator_strength_3> 
0.0368 
 
>  <oscillator_strength_4> 
0.0117 
 
>  <open_babel_can_smiles> 
N[C@@H]1C[C@H]1c1ccccc1 
 
>  <mulliken_charges> 
21 
1   -0.129369 
2   -0.130568 
3   -0.130981 
4   -0.174827 
5   -0.179572 
6   -0.330331 
7   0.149521 
8   -0.21026 
9   0.023223 
10   -0.713656 
11   0.126383 
12   0.127956 
13   0.126579 
14   0.136192 
15   0.125333 
16   0.138514 
17   0.149978 
18   0.152003 
19   0.152063 
20   0.293315 
21   0.298504 
 
>  <lowdin_charges> 
21 
1   -0.158534 
2   -0.157501 
3   -0.157587 
4   -0.160261 
5   -0.166761 
6   -0.344005 
7   -0.002075 
8   -0.157163 
9   -0.090916 
10   -0.534621 
11   0.154235 
12   0.15753 
13   0.156238 
14   0.161383 
15   0.157401 
16   0.154877 
17   0.160757 
18   0.157338 
19   0.157267 
20   0.254604 
21   0.257794 
 
$$$$ 
 
