PCCDB-ID:  1030 
public computational chemistry database (PCCDB) project, http://pccdb.org 
 
 13 12  0  0  1  0  0  0  0  0999 V2000 
    0.9221   -0.0109    0.1123 C   0  0  0  0  0  0  0  0  0  0  0  0 
    2.9545    1.5289    0.3051 C   0  0  0  0  0  0  0  0  0  0  0  0 
    2.4423    0.1008    0.0994 C   0  0  1  0  0  0  0  0  0  0  0  0 
    4.3671    1.5560    0.3444 O   0  0  0  0  0  0  0  0  0  0  0  0 
    3.0502   -0.7491    1.0887 O   0  0  0  0  0  0  0  0  0  0  0  0 
    0.4765    0.5832   -0.6938 H   0  0  0  0  0  0  0  0  0  0  0  0 
    0.5083    0.3545    1.0622 H   0  0  0  0  0  0  0  0  0  0  0  0 
    0.6145   -1.0533   -0.0162 H   0  0  0  0  0  0  0  0  0  0  0  0 
    2.5166    1.9353    1.2377 H   0  0  0  0  0  0  0  0  0  0  0  0 
    2.6339    2.1792   -0.5168 H   0  0  0  0  0  0  0  0  0  0  0  0 
    2.8401   -0.2733   -0.8506 H   0  0  0  0  0  0  0  0  0  0  0  0 
    4.6150    0.7653    0.8564 H   0  0  0  0  0  0  0  0  0  0  0  0 
    2.6198   -0.5550    1.9387 H   0  0  0  0  0  0  0  0  0  0  0  0 
  1  7  1  0  0  0  0 
  2  4  1  0  0  0  0 
  2  9  1  0  0  0  0 
  3 11  1  6  0  0  0 
  3  1  1  0  0  0  0 
  3  2  1  0  0  0  0 
  3  5  1  0  0  0  0 
  4 12  1  0  0  0  0 
  5 13  1  0  0  0  0 
  6  1  1  0  0  0  0 
  8  1  1  0  0  0  0 
 10  2  1  0  0  0  0 
M  END 
>  <HBA> 
2 
 
>  <HBD> 
2 
 
>  <TPSA> 
40.46 
 
>  <cid> 
1030 
 
>  <dipole> 
2.57 
 
>  <excitation_energy_1> 
6.434 
 
>  <excitation_energy_2> 
7.013 
 
>  <excitation_energy_3> 
7.132 
 
>  <excitation_energy_4> 
7.234 
 
>  <homo_energy> 
-6.974 
 
>  <homo_lumo_gap> 
8.626 
 
>  <logP> 
-0.64 
 
>  <lumo_energy> 
1.652 
 
>  <melting_point> 
12.67 
 
>  <molecular_refractivity> 
18.86 
 
>  <oscillator_strength_1> 
0.0011 
 
>  <oscillator_strength_2> 
0.0111 
 
>  <oscillator_strength_3> 
0.0239 
 
>  <oscillator_strength_4> 
0.0355 
 
>  <open_babel_can_smiles> 
OC[C@@H](O)C 
 
>  <mulliken_charges> 
13 
1   -0.46916 
2   -0.015629 
3   0.098624 
4   -0.623764 
5   -0.626336 
6   0.154644 
7   0.137048 
8   0.166072 
9   0.100361 
10   0.140262 
11   0.153092 
12   0.397401 
13   0.387385 
 
>  <lowdin_charges> 
13 
1   -0.460923 
2   -0.152907 
3   -0.018866 
4   -0.469922 
5   -0.464936 
6   0.160992 
7   0.146006 
8   0.161754 
9   0.116811 
10   0.148613 
11   0.150726 
12   0.341812 
13   0.340842 
 
$$$$ 
 
