PCCDB-ID:  6267 
public computational chemistry database (PCCDB) project, http://pccdb.org 
 
 17 16  0  0  1  0  0  0  0  0999 V2000 
    1.0609    0.0210    0.0349 C   0  0  0  0  0  0  0  0  0  0  0  0 
    0.4020   -1.0361   -0.8926 C   0  0  1  0  0  0  0  0  0  0  0  0 
    2.4982    0.3998   -0.3333 C   0  0  0  0  0  0  0  0  0  0  0  0 
    0.7357   -2.4813   -0.4612 C   0  0  0  0  0  0  0  0  0  0  0  0 
   -1.0639   -0.9381   -1.0142 N   0  0  0  0  0  0  0  0  0  0  0  0 
    2.9047    1.5740   -0.6156 N   0  0  0  0  0  0  0  0  0  0  0  0 
    3.3870   -0.6092   -0.3520 O   0  0  0  0  0  0  0  0  0  0  0  0 
    1.8096   -2.8033    0.0153 O   0  0  0  0  0  0  0  0  0  0  0  0 
   -0.2444   -3.3525   -0.6644 O   0  0  0  0  0  0  0  0  0  0  0  0 
    1.0353   -0.3399    1.0721 H   0  0  0  0  0  0  0  0  0  0  0  0 
    0.4519    0.9289   -0.0097 H   0  0  0  0  0  0  0  0  0  0  0  0 
    0.8115   -0.9261   -1.9052 H   0  0  0  0  0  0  0  0  0  0  0  0 
   -1.4832   -0.6472   -0.1317 H   0  0  0  0  0  0  0  0  0  0  0  0 
   -1.3339   -0.2542   -1.7165 H   0  0  0  0  0  0  0  0  0  0  0  0 
    2.1301    2.2365   -0.5631 H   0  0  0  0  0  0  0  0  0  0  0  0 
    2.9494   -1.4609   -0.1200 H   0  0  0  0  0  0  0  0  0  0  0  0 
   -1.0013   -2.8048   -1.0048 H   0  0  0  0  0  0  0  0  0  0  0  0 
  1 10  1  0  0  0  0 
  2 12  1  6  0  0  0 
  2  4  1  0  0  0  0 
  2  1  1  0  0  0  0 
  3  1  1  0  0  0  0 
  4  8  2  0  0  0  0 
  5  2  1  0  0  0  0 
  5 13  1  0  0  0  0 
  6 15  1  0  0  0  0 
  6  3  2  0  0  0  0 
  7  3  1  0  0  0  0 
  7 16  1  0  0  0  0 
  9  4  1  0  0  0  0 
 11  1  1  0  0  0  0 
 14  5  1  0  0  0  0 
 17  9  1  0  0  0  0 
M  END 
>  <HBA> 
5 
 
>  <HBD> 
3 
 
>  <TPSA> 
106.41 
 
>  <cid> 
6267 
 
>  <dipole> 
7.31 
 
>  <excitation_energy_1> 
5.344 
 
>  <excitation_energy_2> 
5.413 
 
>  <excitation_energy_3> 
5.745 
 
>  <excitation_energy_4> 
5.997 
 
>  <homo_energy> 
-6.904 
 
>  <homo_lumo_gap> 
6.37 
 
>  <logP> 
-0.326 
 
>  <lumo_energy> 
-0.533 
 
>  <melting_point> 
181.81 
 
>  <molecular_refractivity> 
28.73 
 
>  <oscillator_strength_1> 
0.0102 
 
>  <oscillator_strength_2> 
0.0059 
 
>  <oscillator_strength_3> 
0.0057 
 
>  <oscillator_strength_4> 
0.001 
 
>  <open_babel_can_smiles> 
OC(=N)C[C@@H](C(=O)O)N 
 
>  <mulliken_charges> 
17 
1   -0.37908 
2   -0.095528 
3   0.477748 
4   0.635506 
5   -0.774148 
6   -0.585556 
7   -0.599387 
8   -0.480646 
9   -0.558761 
10   0.181554 
11   0.148187 
12   0.206171 
13   0.330558 
14   0.335873 
15   0.27117 
16   0.445033 
17   0.441306 
 
>  <lowdin_charges> 
17 
1   -0.321019 
2   -0.110398 
3   0.119502 
4   0.187614 
5   -0.540826 
6   -0.408709 
7   -0.371883 
8   -0.262943 
9   -0.324906 
10   0.16857 
11   0.157541 
12   0.180126 
13   0.272745 
14   0.280184 
15   0.248619 
16   0.359234 
17   0.366549 
 
$$$$ 
 
