PCCDB-ID:  5174 
public computational chemistry database (PCCDB) project, http://pccdb.org 
 
 30 32  0  0  0  0  0  0  0  0999 V2000 
    2.5336   -0.1255   -0.0171 C   0  0  0  0  0  0  0  0  0  0  0  0 
    9.2762   -3.5279    0.8394 C   0  0  0  0  0  0  0  0  0  0  0  0 
    8.0920   -3.9539    0.2338 C   0  0  0  0  0  0  0  0  0  0  0  0 
    9.4185   -2.1892    1.2100 C   0  0  0  0  0  0  0  0  0  0  0  0 
    7.0618   -3.0480   -0.0088 C   0  0  0  0  0  0  0  0  0  0  0  0 
    8.3897   -1.2802    0.9684 C   0  0  0  0  0  0  0  0  0  0  0  0 
    6.6451    2.9858   -0.3472 C   0  0  0  0  0  0  0  0  0  0  0  0 
    8.2849    1.3731   -1.0176 C   0  0  0  0  0  0  0  0  0  0  0  0 
    7.5692    3.9749   -0.6739 C   0  0  0  0  0  0  0  0  0  0  0  0 
    9.1284    2.4420   -1.3081 C   0  0  0  0  0  0  0  0  0  0  0  0 
    4.0191   -0.2043   -0.0138 C   0  0  0  0  0  0  0  0  0  0  0  0 
    7.2032   -1.6946    0.3411 C   0  0  0  0  0  0  0  0  0  0  0  0 
    7.0015    1.6358   -0.5094 C   0  0  0  0  0  0  0  0  0  0  0  0 
    6.0839   -0.7708    0.0937 C   0  0  0  0  0  0  0  0  0  0  0  0 
    6.0492    0.5752   -0.2002 C   0  0  0  0  0  0  0  0  0  0  0  0 
    8.7993    3.7307   -1.1441 N   0  0  0  0  0  0  0  0  0  0  0  0 
    4.7733   -1.2394    0.1884 N   0  0  0  0  0  0  0  0  0  0  0  0 
    4.7142    0.9379   -0.2483 O   0  0  0  0  0  0  0  0  0  0  0  0 
    2.1258   -1.1188    0.1769 H   0  0  0  0  0  0  0  0  0  0  0  0 
    2.1604    0.2338   -0.9829 H   0  0  0  0  0  0  0  0  0  0  0  0 
    2.1745    0.5647    0.7549 H   0  0  0  0  0  0  0  0  0  0  0  0 
   10.0784   -4.2357    1.0298 H   0  0  0  0  0  0  0  0  0  0  0  0 
    7.9693   -4.9959   -0.0492 H   0  0  0  0  0  0  0  0  0  0  0  0 
   10.3281   -1.8521    1.6999 H   0  0  0  0  0  0  0  0  0  0  0  0 
    6.1348   -3.3764   -0.4672 H   0  0  0  0  0  0  0  0  0  0  0  0 
    8.4997   -0.2474    1.2842 H   0  0  0  0  0  0  0  0  0  0  0  0 
    5.6642    3.2552    0.0285 H   0  0  0  0  0  0  0  0  0  0  0  0 
    8.6167    0.3566   -1.1954 H   0  0  0  0  0  0  0  0  0  0  0  0 
    7.3059    5.0241   -0.5479 H   0  0  0  0  0  0  0  0  0  0  0  0 
   10.1246    2.2506   -1.7037 H   0  0  0  0  0  0  0  0  0  0  0  0 
  1 11  1  0  0  0  0 
  1 19  1  0  0  0  0 
  1 21  1  0  0  0  0 
  2 22  1  0  0  0  0 
  2  4  2  0  0  0  0 
  3  2  1  0  0  0  0 
  4 24  1  0  0  0  0 
  5  3  2  0  0  0  0 
  5 12  1  0  0  0  0 
  6  4  1  0  0  0  0 
  6 26  1  0  0  0  0 
  7 27  1  0  0  0  0 
  8 13  2  0  0  0  0 
  9 29  1  0  0  0  0 
  9  7  2  0  0  0  0 
 10 16  2  0  0  0  0 
 10  8  1  0  0  0  0 
 11 17  2  0  0  0  0 
 12  6  2  0  0  0  0 
 13  7  1  0  0  0  0 
 13 15  1  0  0  0  0 
 14 17  1  0  0  0  0 
 14 12  1  0  0  0  0 
 15 14  2  0  0  0  0 
 16  9  1  0  0  0  0 
 18 15  1  0  0  0  0 
 18 11  1  0  0  0  0 
 20  1  1  0  0  0  0 
 23  3  1  0  0  0  0 
 25  5  1  0  0  0  0 
 28  8  1  0  0  0  0 
 30 10  1  0  0  0  0 
M  END 
>  <HBA> 
3 
 
>  <HBD> 
0 
 
>  <TPSA> 
38.92 
 
>  <cid> 
5174 
 
>  <dipole> 
2.07 
 
>  <excitation_energy_1> 
3.862 
 
>  <excitation_energy_2> 
4.334 
 
>  <excitation_energy_3> 
4.531 
 
>  <excitation_energy_4> 
4.656 
 
>  <homo_energy> 
-5.91 
 
>  <homo_lumo_gap> 
4.343 
 
>  <logP> 
3.712 
 
>  <lumo_energy> 
-1.567 
 
>  <melting_point> 
113.94 
 
>  <molecular_refractivity> 
70.14 
 
>  <oscillator_strength_1> 
0.3549 
 
>  <oscillator_strength_2> 
0.0077 
 
>  <oscillator_strength_3> 
0.0045 
 
>  <oscillator_strength_4> 
0.0036 
 
>  <open_babel_can_smiles> 
Cc1oc(c(n1)c1ccccc1)c1ccncc1 
 
>  <mulliken_charges> 
30 
1   -0.530053 
2   -0.123575 
3   -0.135685 
4   -0.139021 
5   -0.156455 
6   -0.178294 
7   -0.174929 
8   -0.184168 
9   0.037679 
10   0.031105 
11   0.521016 
12   0.099593 
13   0.098937 
14   0.11423 
15   0.238552 
16   -0.409198 
17   -0.48997 
18   -0.467559 
19   0.193689 
20   0.182575 
21   0.181818 
22   0.132455 
23   0.133715 
24   0.134302 
25   0.15237 
26   0.144125 
27   0.149225 
28   0.158183 
29   0.142037 
30   0.143301 
 
>  <lowdin_charges> 
30 
1   -0.443712 
2   -0.154556 
3   -0.152671 
4   -0.156805 
5   -0.144776 
6   -0.158424 
7   -0.175517 
8   -0.177849 
9   -0.087086 
10   -0.08863 
11   0.119505 
12   -0.010259 
13   0.009823 
14   0.008882 
15   0.046448 
16   -0.151719 
17   -0.18137 
18   -0.107722 
19   0.183663 
20   0.175606 
21   0.176358 
22   0.160253 
23   0.15844 
24   0.160216 
25   0.170877 
26   0.163263 
27   0.170147 
28   0.173907 
29   0.156385 
30   0.157324 
 
$$$$ 
 
