PCCDB-ID:  2366 
public computational chemistry database (PCCDB) project, http://pccdb.org 
 
 22 22  0  0  0  0  0  0  0  0999 V2000 
    1.0189   -0.1015   -0.0848 C   0  0  0  0  0  0  0  0  0  0  0  0 
    5.6004    4.4000    2.7890 C   0  0  0  0  0  0  0  0  0  0  0  0 
    5.6610    5.3412    1.7628 C   0  0  0  0  0  0  0  0  0  0  0  0 
    5.1944    3.1020    2.4853 C   0  0  0  0  0  0  0  0  0  0  0  0 
    4.3900    1.3972    0.7785 C   0  0  0  0  0  0  0  0  0  0  0  0 
    5.3096    4.9300    0.4763 C   0  0  0  0  0  0  0  0  0  0  0  0 
    2.8720    1.3465    0.5403 C   0  0  0  0  0  0  0  0  0  0  0  0 
    4.8623    2.7800    1.1626 C   0  0  0  0  0  0  0  0  0  0  0  0 
    2.4552    0.0033    0.1479 N   0  0  0  0  0  0  0  0  0  0  0  0 
    4.9201    3.6877    0.1712 N   0  0  0  0  0  0  0  0  0  0  0  0 
    0.7784   -1.1102   -0.4371 H   0  0  0  0  0  0  0  0  0  0  0  0 
    0.6195    0.6256   -0.8170 H   0  0  0  0  0  0  0  0  0  0  0  0 
    0.4858    0.0564    0.8605 H   0  0  0  0  0  0  0  0  0  0  0  0 
    5.8666    4.6702    3.8077 H   0  0  0  0  0  0  0  0  0  0  0  0 
    5.9739    6.3643    1.9487 H   0  0  0  0  0  0  0  0  0  0  0  0 
    5.1377    2.3416    3.2593 H   0  0  0  0  0  0  0  0  0  0  0  0 
    4.9025    1.1006   -0.1460 H   0  0  0  0  0  0  0  0  0  0  0  0 
    4.6528    0.6676    1.5521 H   0  0  0  0  0  0  0  0  0  0  0  0 
    5.3462    5.6338   -0.3544 H   0  0  0  0  0  0  0  0  0  0  0  0 
    2.6004    2.1240   -0.1978 H   0  0  0  0  0  0  0  0  0  0  0  0 
    2.3483    1.6015    1.4720 H   0  0  0  0  0  0  0  0  0  0  0  0 
    2.9484   -0.2536   -0.7064 H   0  0  0  0  0  0  0  0  0  0  0  0 
  1  9  1  0  0  0  0 
  1 13  1  0  0  0  0 
  2 14  1  0  0  0  0 
  3 15  1  0  0  0  0 
  3  2  2  0  0  0  0 
  4  2  1  0  0  0  0 
  4 16  1  0  0  0  0 
  5  8  1  0  0  0  0 
  5 18  1  0  0  0  0 
  6  3  1  0  0  0  0 
  7  5  1  0  0  0  0 
  7 21  1  0  0  0  0 
  8  4  2  0  0  0  0 
  9  7  1  0  0  0  0 
 10  6  2  0  0  0  0 
 10  8  1  0  0  0  0 
 11  1  1  0  0  0  0 
 12  1  1  0  0  0  0 
 17  5  1  0  0  0  0 
 19  6  1  0  0  0  0 
 20  7  1  0  0  0  0 
 22  9  1  0  0  0  0 
M  END 
>  <HBA> 
2 
 
>  <HBD> 
1 
 
>  <TPSA> 
24.92 
 
>  <cid> 
2366 
 
>  <dipole> 
1.23 
 
>  <excitation_energy_1> 
4.578 
 
>  <excitation_energy_2> 
4.888 
 
>  <excitation_energy_3> 
4.938 
 
>  <excitation_energy_4> 
5.229 
 
>  <homo_energy> 
-5.853 
 
>  <homo_lumo_gap> 
5.29 
 
>  <logP> 
1.234 
 
>  <lumo_energy> 
-0.563 
 
>  <melting_point> 
48.51 
 
>  <molecular_refractivity> 
41.62 
 
>  <oscillator_strength_1> 
0.0127 
 
>  <oscillator_strength_2> 
0.003 
 
>  <oscillator_strength_3> 
0.0004 
 
>  <oscillator_strength_4> 
0.0002 
 
>  <open_babel_can_smiles> 
CNCCc1ccccn1 
 
>  <mulliken_charges> 
22 
1   -0.298932 
2   -0.101795 
3   -0.142758 
4   -0.17068 
5   -0.327059 
6   0.036786 
7   -0.114875 
8   0.293507 
9   -0.542832 
10   -0.46218 
11   0.14688 
12   0.120826 
13   0.150102 
14   0.141468 
15   0.135888 
16   0.135157 
17   0.150369 
18   0.149315 
19   0.13858 
20   0.133756 
21   0.135994 
22   0.292484 
 
>  <lowdin_charges> 
22 
1   -0.360079 
2   -0.126521 
3   -0.180125 
4   -0.185259 
5   -0.282162 
6   -0.088783 
7   -0.199849 
8   0.056506 
9   -0.364644 
10   -0.161219 
11   0.149318 
12   0.12237 
13   0.147619 
14   0.161561 
15   0.162302 
16   0.163307 
17   0.15635 
18   0.154062 
19   0.156195 
20   0.128153 
21   0.140138 
22   0.250759 
 
$$$$ 
 
