PCCDB-ID:  546 
public computational chemistry database (PCCDB) project, http://pccdb.org 
 
 13 12  0  0  0  0  0  0  0  0999 V2000 
    1.1763    0.4065   -0.1335 C   0  0  0  0  0  0  0  0  0  0  0  0 
    0.5808    0.6141    1.2688 C   0  0  0  0  0  0  0  0  0  0  0  0 
    0.1273    1.6717    1.6201 O   0  0  0  0  0  0  0  0  0  0  0  0 
    0.5423   -0.4726    2.0666 O   0  0  0  0  0  0  0  0  0  0  0  0 
    2.3464   -1.8929    0.4246 O   0  0  0  0  0  0  0  0  0  0  0  0 
    2.9147   -0.7269   -1.8151 O   0  0  0  0  0  0  0  0  0  0  0  0 
    3.9846    0.1539    0.3981 O   0  0  0  0  0  0  0  0  0  0  0  0 
    2.7797   -0.4437   -0.2236 P   0  0  0  0  0  0  0  0  0  0  0  0 
    1.2819    1.3875   -0.6007 H   0  0  0  0  0  0  0  0  0  0  0  0 
    0.4698   -0.1792   -0.7362 H   0  0  0  0  0  0  0  0  0  0  0  0 
    0.9932   -1.2281    1.6389 H   0  0  0  0  0  0  0  0  0  0  0  0 
    3.1186   -2.3359    0.8188 H   0  0  0  0  0  0  0  0  0  0  0  0 
    3.8295   -0.5696   -2.1062 H   0  0  0  0  0  0  0  0  0  0  0  0 
  1  2  1  0  0  0  0 
  2  3  2  0  0  0  0 
  2  4  1  0  0  0  0 
  5 12  1  0  0  0  0 
  6  8  1  0  0  0  0 
  8  1  1  0  0  0  0 
  8  7  2  0  0  0  0 
  8  5  1  0  0  0  0 
  9  1  1  0  0  0  0 
 10  1  1  0  0  0  0 
 11  4  1  0  0  0  0 
 13  6  1  0  0  0  0 
M  END 
>  <HBA> 
5 
 
>  <HBD> 
3 
 
>  <TPSA> 
104.64 
 
>  <cid> 
546 
 
>  <dipole> 
5.39 
 
>  <excitation_energy_1> 
5.638 
 
>  <excitation_energy_2> 
6.35 
 
>  <excitation_energy_3> 
7.003 
 
>  <excitation_energy_4> 
7.109 
 
>  <homo_energy> 
-7.581 
 
>  <homo_lumo_gap> 
7.524 
 
>  <logP> 
-0.751 
 
>  <lumo_energy> 
-0.057 
 
>  <melting_point> 
139.58 
 
>  <molecular_refractivity> 
24.49 
 
>  <oscillator_strength_1> 
0.0027 
 
>  <oscillator_strength_2> 
0.0121 
 
>  <oscillator_strength_3> 
0.0177 
 
>  <oscillator_strength_4> 
0.0453 
 
>  <open_babel_can_smiles> 
OC(=O)CP(=O)(O)O 
 
>  <mulliken_charges> 
13 
1   -0.606991 
2   0.59913 
3   -0.423419 
4   -0.572103 
5   -0.684632 
6   -0.639578 
7   -0.524145 
8   1.05326 
9   0.233097 
10   0.228213 
11   0.437731 
12   0.45122 
13   0.448218 
 
>  <lowdin_charges> 
13 
1   -0.496961 
2   0.19912 
3   -0.227863 
4   -0.355687 
5   -0.587892 
6   -0.570727 
7   -0.580338 
8   1.058699 
9   0.211225 
10   0.210937 
11   0.362045 
12   0.389369 
13   0.388072 
 
$$$$ 
 
