PCCDB-ID:  3448 
public computational chemistry database (PCCDB) project, http://pccdb.org 
 
 18 19  0  0  0  0  0  0  0  0999 V2000 
   -0.6830    1.7419   -0.0874 C   0  0  0  0  0  0  0  0  0  0  0  0 
   -2.0017    1.0232    0.3090 C   0  0  0  0  0  0  0  0  0  0  0  0 
   -1.1481   -1.2614    0.0370 C   0  0  0  0  0  0  0  0  0  0  0  0 
    0.4261    0.7308   -0.0486 C   0  0  0  0  0  0  0  0  0  0  0  0 
    0.2011   -0.6086    0.0015 C   0  0  0  0  0  0  0  0  0  0  0  0 
    1.8548    0.8057   -0.0375 C   0  0  0  0  0  0  0  0  0  0  0  0 
   -2.1974   -0.2919   -0.3129 N   0  0  0  0  0  0  0  0  0  0  0  0 
    2.4330   -0.3736    0.0227 N   0  0  0  0  0  0  0  0  0  0  0  0 
    2.6337    1.9113   -0.0731 O   0  0  0  0  0  0  0  0  0  0  0  0 
    1.3558   -1.2928    0.0489 O   0  0  0  0  0  0  0  0  0  0  0  0 
   -0.5017    2.5782    0.6036 H   0  0  0  0  0  0  0  0  0  0  0  0 
   -0.7838    2.1838   -1.0906 H   0  0  0  0  0  0  0  0  0  0  0  0 
   -2.8630    1.6511    0.0579 H   0  0  0  0  0  0  0  0  0  0  0  0 
   -2.0133    0.8752    1.3960 H   0  0  0  0  0  0  0  0  0  0  0  0 
   -1.3483   -1.6596    1.0420 H   0  0  0  0  0  0  0  0  0  0  0  0 
   -1.1998   -2.1113   -0.6523 H   0  0  0  0  0  0  0  0  0  0  0  0 
   -2.2166   -0.1813   -1.3258 H   0  0  0  0  0  0  0  0  0  0  0  0 
    2.0582    2.6898   -0.1159 H   0  0  0  0  0  0  0  0  0  0  0  0 
  1  4  1  0  0  0  0 
  1  2  1  0  0  0  0 
  1 11  1  0  0  0  0 
  2 14  1  0  0  0  0 
  3 15  1  0  0  0  0 
  4  6  1  0  0  0  0 
  4  5  2  0  0  0  0 
  5  3  1  0  0  0  0 
  5 10  1  0  0  0  0 
  6  8  2  0  0  0  0 
  7  3  1  0  0  0  0 
  7  2  1  0  0  0  0 
  8 10  1  0  0  0  0 
  9  6  1  0  0  0  0 
 12  1  1  0  0  0  0 
 13  2  1  0  0  0  0 
 16  3  1  0  0  0  0 
 17  7  1  0  0  0  0 
 18  9  1  0  0  0  0 
M  END 
>  <HBA> 
3 
 
>  <HBD> 
2 
 
>  <TPSA> 
58.03 
 
>  <cid> 
3448 
 
>  <dipole> 
4.78 
 
>  <excitation_energy_1> 
5.429 
 
>  <excitation_energy_2> 
5.496 
 
>  <excitation_energy_3> 
5.629 
 
>  <excitation_energy_4> 
5.806 
 
>  <homo_energy> 
-6.514 
 
>  <homo_lumo_gap> 
6.485 
 
>  <logP> 
-0.058 
 
>  <lumo_energy> 
-0.03 
 
>  <melting_point> 
143.03 
 
>  <molecular_refractivity> 
38.67 
 
>  <oscillator_strength_1> 
0.0091 
 
>  <oscillator_strength_2> 
0.0074 
 
>  <oscillator_strength_3> 
0.0067 
 
>  <oscillator_strength_4> 
0.0024 
 
>  <open_babel_can_smiles> 
Oc1noc2c1CCNC2 
 
>  <mulliken_charges> 
18 
1   -0.362713 
2   -0.157604 
3   -0.224332 
4   0.003736 
5   0.365388 
6   0.4564 
7   -0.528028 
8   -0.230787 
9   -0.610288 
10   -0.39356 
11   0.143836 
12   0.151057 
13   0.152397 
14   0.159209 
15   0.179704 
16   0.175248 
17   0.302057 
18   0.418281 
 
>  <lowdin_charges> 
18 
1   -0.292911 
2   -0.200906 
3   -0.203625 
4   -0.13087 
5   0.061586 
6   0.093049 
7   -0.347346 
8   -0.1091 
9   -0.351312 
10   -0.075903 
11   0.151367 
12   0.148006 
13   0.154043 
14   0.148915 
15   0.163458 
16   0.168936 
17   0.254814 
18   0.367799 
 
$$$$ 
 
