PCCDB-ID:  791 
public computational chemistry database (PCCDB) project, http://pccdb.org 
 
 22 21  0  0  1  0  0  0  0  0999 V2000 
    1.0123    0.1577    0.4970 C   0  0  0  0  0  0  0  0  0  0  0  0 
    2.1880   -0.0862   -2.3887 C   0  0  0  0  0  0  0  0  0  0  0  0 
    2.4686    0.4342    0.1055 C   0  0  0  0  0  0  0  0  0  0  0  0 
    2.9666   -0.3903   -1.0970 C   0  0  2  0  0  0  0  0  0  0  0  0 
    4.4964   -0.2124   -1.2939 C   0  0  1  0  0  0  0  0  0  0  0  0 
    5.0247   -1.3344   -2.2235 C   0  0  0  0  0  0  0  0  0  0  0  0 
    4.8393    1.1562   -1.6625 N   0  0  0  0  0  0  0  0  0  0  0  0 
    4.8476   -2.5070   -1.9976 O   0  0  0  0  0  0  0  0  0  0  0  0 
    5.7105   -0.9262   -3.3175 O   0  0  0  0  0  0  0  0  0  0  0  0 
    0.7474    0.7029    1.4100 H   0  0  0  0  0  0  0  0  0  0  0  0 
    0.8467   -0.9098    0.6884 H   0  0  0  0  0  0  0  0  0  0  0  0 
    0.3093    0.4693   -0.2832 H   0  0  0  0  0  0  0  0  0  0  0  0 
    1.1344   -0.3612   -2.2843 H   0  0  0  0  0  0  0  0  0  0  0  0 
    2.5834   -0.6499   -3.2422 H   0  0  0  0  0  0  0  0  0  0  0  0 
    2.2154    0.9832   -2.6371 H   0  0  0  0  0  0  0  0  0  0  0  0 
    3.1142    0.2138    0.9671 H   0  0  0  0  0  0  0  0  0  0  0  0 
    2.6033    1.5018   -0.1081 H   0  0  0  0  0  0  0  0  0  0  0  0 
    2.8325   -1.4543   -0.8668 H   0  0  0  0  0  0  0  0  0  0  0  0 
    4.9719   -0.4099   -0.3250 H   0  0  0  0  0  0  0  0  0  0  0  0 
    4.4117    1.5004   -2.5147 H   0  0  0  0  0  0  0  0  0  0  0  0 
    5.8240    1.3903   -1.6107 H   0  0  0  0  0  0  0  0  0  0  0  0 
    5.7372    0.0489   -3.2878 H   0  0  0  0  0  0  0  0  0  0  0  0 
  1 11  1  0  0  0  0 
  1 10  1  0  0  0  0 
  2 13  1  0  0  0  0 
  2  4  1  0  0  0  0 
  3  1  1  0  0  0  0 
  3 16  1  0  0  0  0 
  4 18  1  1  0  0  0 
  4  3  1  0  0  0  0 
  5  4  1  0  0  0  0 
  5 19  1  1  0  0  0 
  6  8  2  0  0  0  0 
  6  5  1  0  0  0  0 
  7 21  1  0  0  0  0 
  7  5  1  0  0  0  0 
  9 22  1  0  0  0  0 
  9  6  1  0  0  0  0 
 12  1  1  0  0  0  0 
 14  2  1  0  0  0  0 
 15  2  1  0  0  0  0 
 17  3  1  0  0  0  0 
 20  7  1  0  0  0  0 
M  END 
>  <HBA> 
3 
 
>  <HBD> 
2 
 
>  <TPSA> 
63.32 
 
>  <cid> 
791 
 
>  <dipole> 
4.0 
 
>  <excitation_energy_1> 
5.272 
 
>  <excitation_energy_2> 
5.411 
 
>  <excitation_energy_3> 
6.482 
 
>  <excitation_energy_4> 
6.645 
 
>  <homo_energy> 
-6.536 
 
>  <homo_lumo_gap> 
6.879 
 
>  <logP> 
1.145 
 
>  <lumo_energy> 
0.343 
 
>  <melting_point> 
104.84 
 
>  <molecular_refractivity> 
35.44 
 
>  <oscillator_strength_1> 
0.0046 
 
>  <oscillator_strength_2> 
0.0084 
 
>  <oscillator_strength_3> 
0.0052 
 
>  <oscillator_strength_4> 
0.0019 
 
>  <open_babel_can_smiles> 
CC[C@H]([C@@H](C(=O)O)N)C 
 
>  <mulliken_charges> 
22 
1   -0.451181 
2   -0.483665 
3   -0.247484 
4   -0.068402 
5   -0.070755 
6   0.578161 
7   -0.755093 
8   -0.454465 
9   -0.567386 
10   0.145392 
11   0.145502 
12   0.145288 
13   0.16273 
14   0.157314 
15   0.136902 
16   0.12892 
17   0.146169 
18   0.161418 
19   0.172074 
20   0.317232 
21   0.318613 
22   0.382714 
 
>  <lowdin_charges> 
22 
1   -0.446537 
2   -0.45341 
3   -0.272045 
4   -0.121902 
5   -0.106909 
6   0.167499 
7   -0.552563 
8   -0.249614 
9   -0.353983 
10   0.152415 
11   0.146699 
12   0.14826 
13   0.159494 
14   0.15583 
15   0.141037 
16   0.142029 
17   0.14535 
18   0.157802 
19   0.168686 
20   0.265511 
21   0.267444 
22   0.338907 
 
$$$$ 
 
