PCCDB-ID:  30 
public computational chemistry database (PCCDB) project, http://pccdb.org 
 
 17 16  0  0  0  0  0  0  0  0999 V2000 
    1.2176   -0.9484    1.4071 C   0  0  0  0  0  0  0  0  0  0  0  0 
   -0.0120   -0.8863    0.8338 C   0  0  0  0  0  0  0  0  0  0  0  0 
    2.4012   -0.3429    0.8622 C   0  0  0  0  0  0  0  0  0  0  0  0 
   -1.1758   -1.4943    1.4713 C   0  0  0  0  0  0  0  0  0  0  0  0 
    3.6744   -0.3873    1.3661 C   0  0  0  0  0  0  0  0  0  0  0  0 
    4.1314   -1.2384    2.5309 C   0  0  0  0  0  0  0  0  0  0  0  0 
    4.7189    0.3347    0.8531 N   0  0  0  0  0  0  0  0  0  0  0  0 
   -2.3058   -1.4804    1.0117 O   0  0  0  0  0  0  0  0  0  0  0  0 
    5.0446   -0.8911    3.2433 O   0  0  0  0  0  0  0  0  0  0  0  0 
    3.5075   -2.4185    2.7245 O   0  0  0  0  0  0  0  0  0  0  0  0 
    1.2874   -1.4549    2.3703 H   0  0  0  0  0  0  0  0  0  0  0  0 
   -0.1768   -0.3819   -0.1160 H   0  0  0  0  0  0  0  0  0  0  0  0 
    2.2505    0.2830   -0.0172 H   0  0  0  0  0  0  0  0  0  0  0  0 
   -0.9628   -1.9958    2.4445 H   0  0  0  0  0  0  0  0  0  0  0  0 
    4.5095    1.1469    0.2891 H   0  0  0  0  0  0  0  0  0  0  0  0 
    5.5198    0.4219    1.4676 H   0  0  0  0  0  0  0  0  0  0  0  0 
    2.9220   -2.6083    1.9714 H   0  0  0  0  0  0  0  0  0  0  0  0 
  1 11  1  0  0  0  0 
  2  1  2  0  0  0  0 
  2  4  1  0  0  0  0 
  3  5  2  0  0  0  0 
  3  1  1  0  0  0  0 
  4 14  1  0  0  0  0 
  5  6  1  0  0  0  0 
  6 10  1  0  0  0  0 
  6  9  2  0  0  0  0 
  7  5  1  0  0  0  0 
  7 16  1  0  0  0  0 
  8  4  2  0  0  0  0 
 12  2  1  0  0  0  0 
 13  3  1  0  0  0  0 
 15  7  1  0  0  0  0 
 17 10  1  0  0  0  0 
M  END 
>  <HBA> 
4 
 
>  <HBD> 
2 
 
>  <TPSA> 
80.39 
 
>  <cid> 
30 
 
>  <dipole> 
4.5 
 
>  <excitation_energy_1> 
3.193 
 
>  <excitation_energy_2> 
3.763 
 
>  <excitation_energy_3> 
4.657 
 
>  <excitation_energy_4> 
4.826 
 
>  <homo_energy> 
-6.182 
 
>  <homo_lumo_gap> 
3.731 
 
>  <logP> 
0.369 
 
>  <lumo_energy> 
-2.452 
 
>  <melting_point> 
159.57 
 
>  <molecular_refractivity> 
34.69 
 
>  <oscillator_strength_1> 
0.0006 
 
>  <oscillator_strength_2> 
0.6143 
 
>  <oscillator_strength_3> 
0.0009 
 
>  <oscillator_strength_4> 
0.1729 
 
>  <open_babel_can_smiles> 
O=C/C=C/C=C(\C(=O)O)/N 
 
>  <mulliken_charges> 
17 
1   -0.146068 
2   -0.169852 
3   -0.206317 
4   0.222604 
5   0.254762 
6   0.570393 
7   -0.762397 
8   -0.424793 
9   -0.442448 
10   -0.557887 
11   0.153908 
12   0.145744 
13   0.139709 
14   0.092604 
15   0.341872 
16   0.364607 
17   0.42356 
 
>  <lowdin_charges> 
17 
1   -0.139636 
2   -0.205184 
3   -0.22318 
4   0.031647 
5   0.024398 
6   0.191824 
7   -0.438458 
8   -0.239675 
9   -0.232014 
10   -0.331288 
11   0.161549 
12   0.166354 
13   0.165293 
14   0.109064 
15   0.289955 
16   0.302418 
17   0.366932 
 
$$$$ 
 
