PCCDB-ID:  5094 
public computational chemistry database (PCCDB) project, http://pccdb.org 
 
 22 22  0  0  0  0  0  0  0  0999 V2000 
    0.9714    0.3136   -0.1796 C   0  0  0  0  0  0  0  0  0  0  0  0 
    4.6069    0.7312   -0.1893 C   0  0  0  0  0  0  0  0  0  0  0  0 
    2.6559   -2.2529    0.1766 C   0  0  0  0  0  0  0  0  0  0  0  0 
    3.1986   -0.8695    0.0237 C   0  0  0  0  0  0  0  0  0  0  0  0 
    3.3457    1.2854   -0.2847 C   0  0  0  0  0  0  0  0  0  0  0  0 
    1.3137   -3.4953    1.6593 C   0  0  0  0  0  0  0  0  0  0  0  0 
    1.5021   -4.5229    0.9352 N   0  0  0  0  0  0  0  0  0  0  0  0 
    4.5037   -0.6063    0.0045 N   0  0  0  0  0  0  0  0  0  0  0  0 
    2.4353    0.2488   -0.1505 N   0  0  0  0  0  0  0  0  0  0  0  0 
    3.0020    2.6520   -0.4778 N   0  0  0  0  0  0  0  0  0  0  0  0 
    0.5974   -3.3410    2.8009 O   0  0  0  0  0  0  0  0  0  0  0  0 
    3.9378    3.4481   -0.5805 O   0  0  0  0  0  0  0  0  0  0  0  0 
    1.8029    2.9572   -0.5326 O   0  0  0  0  0  0  0  0  0  0  0  0 
    1.8450   -2.2954    1.3676 O   0  0  0  0  0  0  0  0  0  0  0  0 
    0.5867   -0.6930   -0.0274 H   0  0  0  0  0  0  0  0  0  0  0  0 
    0.6329    0.7146   -1.1356 H   0  0  0  0  0  0  0  0  0  0  0  0 
    0.6104    0.9627    0.6186 H   0  0  0  0  0  0  0  0  0  0  0  0 
    5.5535    1.2479   -0.2484 H   0  0  0  0  0  0  0  0  0  0  0  0 
    3.4974   -2.9419    0.2658 H   0  0  0  0  0  0  0  0  0  0  0  0 
    2.0496   -2.5674   -0.6803 H   0  0  0  0  0  0  0  0  0  0  0  0 
    1.0307   -5.3527    1.2929 H   0  0  0  0  0  0  0  0  0  0  0  0 
    0.2131   -4.1979    3.0421 H   0  0  0  0  0  0  0  0  0  0  0  0 
  1  9  1  0  0  0  0 
  1 15  1  0  0  0  0 
  1 17  1  0  0  0  0 
  2  8  1  0  0  0  0 
  3 19  1  0  0  0  0 
  3 14  1  0  0  0  0 
  4  3  1  0  0  0  0 
  5  2  2  0  0  0  0 
  5  9  1  0  0  0  0 
  6 11  1  0  0  0  0 
  7 21  1  0  0  0  0 
  7  6  2  0  0  0  0 
  8  4  2  0  0  0  0 
  9  4  1  0  0  0  0 
 10  5  1  0  0  0  0 
 11 22  1  0  0  0  0 
 12 10  2  0  0  0  0 
 13 10  2  0  0  0  0 
 14  6  1  0  0  0  0 
 16  1  1  0  0  0  0 
 18  2  1  0  0  0  0 
 20  3  1  0  0  0  0 
M  END 
>  <HBA> 
5 
 
>  <HBD> 
1 
 
>  <TPSA> 
115.96 
 
>  <cid> 
5094 
 
>  <dipole> 
6.03 
 
>  <excitation_energy_1> 
3.815 
 
>  <excitation_energy_2> 
4.24 
 
>  <excitation_energy_3> 
4.259 
 
>  <excitation_energy_4> 
4.766 
 
>  <homo_energy> 
-7.121 
 
>  <homo_lumo_gap> 
4.735 
 
>  <logP> 
1.147 
 
>  <lumo_energy> 
-2.386 
 
>  <melting_point> 
141.98 
 
>  <molecular_refractivity> 
46.47 
 
>  <oscillator_strength_1> 
0.0 
 
>  <oscillator_strength_2> 
0.0221 
 
>  <oscillator_strength_3> 
0.2231 
 
>  <oscillator_strength_4> 
0.0025 
 
>  <open_babel_can_smiles> 
OC(=N)OCc1ncc(n1C)N(=O)=O 
 
>  <mulliken_charges> 
22 
1   -0.317255 
2   0.009424 
3   -0.108501 
4   0.473538 
5   0.492229 
6   0.654246 
7   -0.622916 
8   -0.462089 
9   -0.471537 
10   0.334132 
11   -0.566265 
12   -0.39859 
13   -0.421861 
14   -0.450781 
15   0.185362 
16   0.195138 
17   0.203917 
18   0.181761 
19   0.209333 
20   0.181299 
21   0.285402 
22   0.414015 
 
>  <lowdin_charges> 
22 
1   -0.345061 
2   -0.105812 
3   -0.124474 
4   0.057763 
5   -0.006876 
6   0.188352 
7   -0.462234 
8   -0.172023 
9   0.011832 
10   0.309812 
11   -0.357389 
12   -0.248836 
13   -0.264135 
14   -0.184902 
15   0.173542 
16   0.175878 
17   0.182673 
18   0.187437 
19   0.188039 
20   0.167809 
21   0.263314 
22   0.365292 
 
$$$$ 
 
