PCCDB-ID:  6145 
public computational chemistry database (PCCDB) project, http://pccdb.org 
 
 18 18  0  0  0  0  0  0  0  0999 V2000 
   -1.7929    0.0250    0.1550 C   0  0  0  0  0  0  0  0  0  0  0  0 
   -1.1343    1.2506    0.0507 C   0  0  0  0  0  0  0  0  0  0  0  0 
   -1.0425   -1.1527    0.1632 C   0  0  0  0  0  0  0  0  0  0  0  0 
    0.2561    1.3103   -0.0435 C   0  0  0  0  0  0  0  0  0  0  0  0 
    0.3474   -1.1053    0.0893 C   0  0  0  0  0  0  0  0  0  0  0  0 
    1.0110    0.1271   -0.0120 C   0  0  0  0  0  0  0  0  0  0  0  0 
    3.2938    1.0865    0.3472 C   0  0  0  0  0  0  0  0  0  0  0  0 
    3.1153    2.1116    1.0853 N   0  0  0  0  0  0  0  0  0  0  0  0 
    2.4118    0.1338   -0.1304 N   0  0  0  0  0  0  0  0  0  0  0  0 
    4.5424    0.7863   -0.1038 O   0  0  0  0  0  0  0  0  0  0  0  0 
   -2.8760   -0.0129    0.2237 H   0  0  0  0  0  0  0  0  0  0  0  0 
   -1.7055    2.1747    0.0246 H   0  0  0  0  0  0  0  0  0  0  0  0 
   -1.5389   -2.1165    0.2384 H   0  0  0  0  0  0  0  0  0  0  0  0 
    0.7518    2.2653   -0.1787 H   0  0  0  0  0  0  0  0  0  0  0  0 
    0.9280   -2.0245    0.1155 H   0  0  0  0  0  0  0  0  0  0  0  0 
    2.1563    2.1830    1.4184 H   0  0  0  0  0  0  0  0  0  0  0  0 
    2.8499   -0.7107   -0.4727 H   0  0  0  0  0  0  0  0  0  0  0  0 
    5.1211    1.4494    0.3119 H   0  0  0  0  0  0  0  0  0  0  0  0 
  1  3  1  0  0  0  0 
  1 11  1  0  0  0  0 
  2  1  2  0  0  0  0 
  3 13  1  0  0  0  0 
  4  6  2  0  0  0  0 
  4  2  1  0  0  0  0 
  5 15  1  0  0  0  0 
  5  3  2  0  0  0  0 
  6  5  1  0  0  0  0 
  7  8  2  0  0  0  0 
  8 16  1  0  0  0  0 
  9  6  1  0  0  0  0 
  9  7  1  0  0  0  0 
 10 18  1  0  0  0  0 
 10  7  1  0  0  0  0 
 12  2  1  0  0  0  0 
 14  4  1  0  0  0  0 
 17  9  1  0  0  0  0 
M  END 
>  <HBA> 
3 
 
>  <HBD> 
2 
 
>  <TPSA> 
55.12 
 
>  <cid> 
6145 
 
>  <dipole> 
1.98 
 
>  <excitation_energy_1> 
4.758 
 
>  <excitation_energy_2> 
5.048 
 
>  <excitation_energy_3> 
5.341 
 
>  <excitation_energy_4> 
5.757 
 
>  <homo_energy> 
-5.899 
 
>  <homo_lumo_gap> 
5.655 
 
>  <logP> 
1.95 
 
>  <lumo_energy> 
-0.245 
 
>  <melting_point> 
123.84 
 
>  <molecular_refractivity> 
39.04 
 
>  <oscillator_strength_1> 
0.0149 
 
>  <oscillator_strength_2> 
0.2241 
 
>  <oscillator_strength_3> 
0.0079 
 
>  <oscillator_strength_4> 
0.0026 
 
>  <open_babel_can_smiles> 
OC(=N)Nc1ccccc1 
 
>  <mulliken_charges> 
18 
1   -0.129677 
2   -0.140473 
3   -0.133099 
4   -0.182723 
5   -0.182358 
6   0.354243 
7   0.639873 
8   -0.651218 
9   -0.711108 
10   -0.605495 
11   0.131186 
12   0.136223 
13   0.134439 
14   0.154594 
15   0.127737 
16   0.291949 
17   0.343142 
18   0.422766 
 
>  <lowdin_charges> 
18 
1   -0.168214 
2   -0.145413 
3   -0.14493 
4   -0.192726 
5   -0.187441 
6   0.059654 
7   0.165125 
8   -0.479456 
9   -0.259251 
10   -0.383777 
11   0.157561 
12   0.161436 
13   0.160477 
14   0.169487 
15   0.157504 
16   0.26202 
17   0.297618 
18   0.370327 
 
$$$$ 
 
