PCCDB-ID:  844 
public computational chemistry database (PCCDB) project, http://pccdb.org 
 
 18 17  0  0  1  0  0  0  0  0999 V2000 
    0.7959    0.3597    0.2453 C   0  0  0  0  0  0  0  0  0  0  0  0 
    0.3416   -0.8218   -0.6113 C   0  0  0  0  0  0  0  0  0  0  0  0 
    0.7019    1.6920   -0.4523 C   0  0  0  0  0  0  0  0  0  0  0  0 
   -1.1923   -0.8264   -0.8788 C   0  0  1  0  0  0  0  0  0  0  0  0 
   -1.4723   -1.0961   -2.3710 C   0  0  0  0  0  0  0  0  0  0  0  0 
   -1.8525   -1.7628    0.0239 N   0  0  0  0  0  0  0  0  0  0  0  0 
    0.2577    1.8686   -1.5738 O   0  0  0  0  0  0  0  0  0  0  0  0 
   -2.0417   -2.0869   -2.7665 O   0  0  0  0  0  0  0  0  0  0  0  0 
   -1.0246   -0.1504   -3.2210 O   0  0  0  0  0  0  0  0  0  0  0  0 
    1.8395    0.2469    0.5778 H   0  0  0  0  0  0  0  0  0  0  0  0 
    0.2074    0.4258    1.1741 H   0  0  0  0  0  0  0  0  0  0  0  0 
    0.5897   -1.7539   -0.0950 H   0  0  0  0  0  0  0  0  0  0  0  0 
    0.9052   -0.8156   -1.5508 H   0  0  0  0  0  0  0  0  0  0  0  0 
    1.0779    2.5634    0.1220 H   0  0  0  0  0  0  0  0  0  0  0  0 
   -1.5922    0.1726   -0.6627 H   0  0  0  0  0  0  0  0  0  0  0  0 
   -1.6971   -2.7045   -0.3402 H   0  0  0  0  0  0  0  0  0  0  0  0 
   -2.8615   -1.6330   -0.0484 H   0  0  0  0  0  0  0  0  0  0  0  0 
   -0.5893    0.5773   -2.7229 H   0  0  0  0  0  0  0  0  0  0  0  0 
  1 10  1  0  0  0  0 
  1 11  1  0  0  0  0 
  2 12  1  0  0  0  0 
  2  1  1  0  0  0  0 
  3 14  1  0  0  0  0 
  3  1  1  0  0  0  0 
  4 15  1  1  0  0  0 
  4  2  1  0  0  0  0 
  4  6  1  0  0  0  0 
  5  4  1  0  0  0  0 
  7  3  2  0  0  0  0 
  8  5  2  0  0  0  0 
  9 18  1  0  0  0  0 
  9  5  1  0  0  0  0 
 13  2  1  0  0  0  0 
 16  6  1  0  0  0  0 
 17  6  1  0  0  0  0 
M  END 
>  <HBA> 
4 
 
>  <HBD> 
2 
 
>  <TPSA> 
80.39 
 
>  <cid> 
844 
 
>  <dipole> 
5.43 
 
>  <excitation_energy_1> 
4.424 
 
>  <excitation_energy_2> 
4.526 
 
>  <excitation_energy_3> 
5.226 
 
>  <excitation_energy_4> 
5.617 
 
>  <homo_energy> 
-6.708 
 
>  <homo_lumo_gap> 
5.159 
 
>  <logP> 
0.078 
 
>  <lumo_energy> 
-1.548 
 
>  <melting_point> 
137.23 
 
>  <molecular_refractivity> 
30.83 
 
>  <oscillator_strength_1> 
0.0002 
 
>  <oscillator_strength_2> 
0.0002 
 
>  <oscillator_strength_3> 
0.0002 
 
>  <oscillator_strength_4> 
0.002 
 
>  <open_babel_can_smiles> 
O=CCC[C@@H](C(=O)O)N 
 
>  <mulliken_charges> 
18 
1   -0.363875 
2   -0.269685 
3   0.265939 
4   -0.098715 
5   0.564512 
6   -0.703369 
7   -0.401351 
8   -0.456923 
9   -0.594125 
10   0.177381 
11   0.195168 
12   0.168679 
13   0.164072 
14   0.133681 
15   0.154851 
16   0.311136 
17   0.307326 
18   0.445298 
 
>  <lowdin_charges> 
18 
1   -0.309961 
2   -0.279784 
3   0.073602 
4   -0.113469 
5   0.167105 
6   -0.533611 
7   -0.230303 
8   -0.257831 
9   -0.362175 
10   0.173572 
11   0.18144 
12   0.167459 
13   0.1562 
14   0.136588 
15   0.152862 
16   0.262142 
17   0.25988 
18   0.356283 
 
$$$$ 
 
