PCCDB-ID:  2214 
public computational chemistry database (PCCDB) project, http://pccdb.org 
 
 22 22  0  0  0  0  0  0  0  0999 V2000 
    1.9193   -0.5864    0.9838 C   0  0  0  0  0  0  0  0  0  0  0  0 
    3.3072   -4.5651   -3.4662 C   0  0  0  0  0  0  0  0  0  0  0  0 
    3.9596    0.2394   -2.1967 C   0  0  0  0  0  0  0  0  0  0  0  0 
    4.6108   -0.3943   -3.2473 C   0  0  0  0  0  0  0  0  0  0  0  0 
    3.3064   -1.9105   -1.3160 C   0  0  0  0  0  0  0  0  0  0  0  0 
    2.6229    0.2189   -0.0978 C   0  0  0  0  0  0  0  0  0  0  0  0 
    3.3017   -0.5100   -1.2112 C   0  0  0  0  0  0  0  0  0  0  0  0 
    4.6241   -1.7910   -3.3375 C   0  0  0  0  0  0  0  0  0  0  0  0 
    3.9536   -2.5590   -2.3629 C   0  0  0  0  0  0  0  0  0  0  0  0 
    2.6302    1.4413   -0.0537 O   0  0  0  0  0  0  0  0  0  0  0  0 
    5.2727   -2.4583   -4.3349 O   0  0  0  0  0  0  0  0  0  0  0  0 
    3.9828   -3.9311   -2.3757 O   0  0  0  0  0  0  0  0  0  0  0  0 
    1.1206   -1.2057    0.5581 H   0  0  0  0  0  0  0  0  0  0  0  0 
    1.4900    0.1054    1.7105 H   0  0  0  0  0  0  0  0  0  0  0  0 
    2.6184   -1.2608    1.4927 H   0  0  0  0  0  0  0  0  0  0  0  0 
    3.3756   -5.6385   -3.2764 H   0  0  0  0  0  0  0  0  0  0  0  0 
    3.7807   -4.3310   -4.4243 H   0  0  0  0  0  0  0  0  0  0  0  0 
    2.2504   -4.2680   -3.4953 H   0  0  0  0  0  0  0  0  0  0  0  0 
    3.9508    1.3210   -2.1163 H   0  0  0  0  0  0  0  0  0  0  0  0 
    5.1276    0.1918   -4.0059 H   0  0  0  0  0  0  0  0  0  0  0  0 
    2.8123   -2.5368   -0.5808 H   0  0  0  0  0  0  0  0  0  0  0  0 
    5.6991   -1.8109   -4.9185 H   0  0  0  0  0  0  0  0  0  0  0  0 
  1 15  1  0  0  0  0 
  1 14  1  0  0  0  0 
  2 16  1  0  0  0  0 
  2 12  1  0  0  0  0 
  3 19  1  0  0  0  0 
  3  7  2  0  0  0  0 
  4  3  1  0  0  0  0 
  5  7  1  0  0  0  0 
  5 21  1  0  0  0  0 
  6 10  2  0  0  0  0 
  6  1  1  0  0  0  0 
  7  6  1  0  0  0  0 
  8  4  2  0  0  0  0 
  8  9  1  0  0  0  0 
  9  5  2  0  0  0  0 
 11  8  1  0  0  0  0 
 12  9  1  0  0  0  0 
 13  1  1  0  0  0  0 
 17  2  1  0  0  0  0 
 18  2  1  0  0  0  0 
 20  4  1  0  0  0  0 
 22 11  1  0  0  0  0 
M  END 
>  <HBA> 
3 
 
>  <HBD> 
1 
 
>  <TPSA> 
46.53 
 
>  <cid> 
2214 
 
>  <dipole> 
3.26 
 
>  <excitation_energy_1> 
3.817 
 
>  <excitation_energy_2> 
4.437 
 
>  <excitation_energy_3> 
4.821 
 
>  <excitation_energy_4> 
5.25 
 
>  <homo_energy> 
-6.166 
 
>  <homo_lumo_gap> 
4.92 
 
>  <logP> 
1.603 
 
>  <lumo_energy> 
-1.246 
 
>  <melting_point> 
85.3 
 
>  <molecular_refractivity> 
45.15 
 
>  <oscillator_strength_1> 
0.0003 
 
>  <oscillator_strength_2> 
0.113 
 
>  <oscillator_strength_3> 
0.1246 
 
>  <oscillator_strength_4> 
0.0012 
 
>  <open_babel_can_smiles> 
COc1cc(ccc1O)C(=O)C 
 
>  <mulliken_charges> 
22 
1   -0.541258 
2   -0.215829 
3   -0.165469 
4   -0.199045 
5   -0.242971 
6   0.403769 
7   0.075253 
8   0.322441 
9   0.335717 
10   -0.461072 
11   -0.632577 
12   -0.520475 
13   0.168623 
14   0.179679 
15   0.171416 
16   0.162501 
17   0.168881 
18   0.140562 
19   0.164741 
20   0.128344 
21   0.142253 
22   0.414515 
 
>  <lowdin_charges> 
22 
1   -0.478453 
2   -0.272392 
3   -0.124048 
4   -0.208357 
5   -0.163561 
6   0.15866 
7   -0.065285 
8   0.091153 
9   0.0651 
10   -0.250737 
11   -0.364047 
12   -0.222734 
13   0.169666 
14   0.175249 
15   0.171141 
16   0.156371 
17   0.152353 
18   0.137865 
19   0.176783 
20   0.158496 
21   0.172599 
22   0.364179 
 
$$$$ 
 
