PCCDB-ID:  2109 
public computational chemistry database (PCCDB) project, http://pccdb.org 
 
 19 18  0  0  1  0  0  0  0  0999 V2000 
    1.0248    0.4196   -0.2855 C   0  0  0  0  0  0  0  0  0  0  0  0 
    3.0639   -1.0144   -0.8831 C   0  0  0  0  0  0  0  0  0  0  0  0 
    2.4756   -1.2588   -2.2844 C   0  0  0  0  0  0  0  0  0  0  0  0 
    3.2543    1.5173   -0.5305 C   0  0  0  0  0  0  0  0  0  0  0  0 
    2.5395    0.2143   -0.0864 C   0  0  1  0  0  0  0  0  0  0  0  0 
    2.8015    0.0843    1.3657 N   0  0  0  0  0  0  0  0  0  0  0  0 
    1.9366   -2.3061   -2.5610 O   0  0  0  0  0  0  0  0  0  0  0  0 
    2.6026   -0.2714   -3.1795 O   0  0  0  0  0  0  0  0  0  0  0  0 
    3.5348    1.7681   -1.6913 O   0  0  0  0  0  0  0  0  0  0  0  0 
    3.5135    2.3647    0.4559 O   0  0  0  0  0  0  0  0  0  0  0  0 
    0.8026    0.6678   -1.3258 H   0  0  0  0  0  0  0  0  0  0  0  0 
    0.6594    1.2308    0.3527 H   0  0  0  0  0  0  0  0  0  0  0  0 
    0.4868   -0.5014   -0.0331 H   0  0  0  0  0  0  0  0  0  0  0  0 
    4.1578   -0.9535   -0.9662 H   0  0  0  0  0  0  0  0  0  0  0  0 
    2.8227   -1.9144   -0.3125 H   0  0  0  0  0  0  0  0  0  0  0  0 
    3.6620   -0.4351    1.5375 H   0  0  0  0  0  0  0  0  0  0  0  0 
    2.0484   -0.4225    1.8262 H   0  0  0  0  0  0  0  0  0  0  0  0 
    3.0403    0.5168   -2.7667 H   0  0  0  0  0  0  0  0  0  0  0  0 
    3.2467    1.8712    1.2795 H   0  0  0  0  0  0  0  0  0  0  0  0 
  1  5  1  0  0  0  0 
  1 13  1  0  0  0  0 
  1 12  1  0  0  0  0 
  2 15  1  0  0  0  0 
  2  5  1  0  0  0  0 
  3  2  1  0  0  0  0 
  4 10  1  0  0  0  0 
  5  4  1  6  0  0  0 
  5  6  1  0  0  0  0 
  6 16  1  0  0  0  0 
  6 17  1  0  0  0  0 
  7  3  2  0  0  0  0 
  8 18  1  0  0  0  0 
  8  3  1  0  0  0  0 
  9  4  2  0  0  0  0 
 10 19  1  0  0  0  0 
 11  1  1  0  0  0  0 
 14  2  1  0  0  0  0 
M  END 
>  <HBA> 
5 
 
>  <HBD> 
3 
 
>  <TPSA> 
100.62 
 
>  <cid> 
2109 
 
>  <dipole> 
6.23 
 
>  <excitation_energy_1> 
5.467 
 
>  <excitation_energy_2> 
5.521 
 
>  <excitation_energy_3> 
5.992 
 
>  <excitation_energy_4> 
6.142 
 
>  <homo_energy> 
-7.015 
 
>  <homo_lumo_gap> 
6.509 
 
>  <logP> 
-0.037 
 
>  <lumo_energy> 
-0.506 
 
>  <melting_point> 
193.69 
 
>  <molecular_refractivity> 
32.44 
 
>  <oscillator_strength_1> 
0.003 
 
>  <oscillator_strength_2> 
0.003 
 
>  <oscillator_strength_3> 
0.0117 
 
>  <oscillator_strength_4> 
0.0 
 
>  <open_babel_can_smiles> 
OC(=O)C[C@](C(=O)O)(N)C 
 
>  <mulliken_charges> 
19 
1   -0.47494 
2   -0.398792 
3   0.585043 
4   0.642779 
5   0.08261 
6   -0.781911 
7   -0.452688 
8   -0.589334 
9   -0.494724 
10   -0.561527 
11   0.197441 
12   0.168571 
13   0.173967 
14   0.174833 
15   0.174761 
16   0.330071 
17   0.33188 
18   0.45006 
19   0.441899 
 
>  <lowdin_charges> 
19 
1   -0.447041 
2   -0.3274 
3   0.182239 
4   0.189554 
5   0.02294 
6   -0.538739 
7   -0.256268 
8   -0.36338 
9   -0.268791 
10   -0.324081 
11   0.178969 
12   0.164743 
13   0.166488 
14   0.167483 
15   0.173397 
16   0.272571 
17   0.278171 
18   0.363143 
19   0.366001 
 
$$$$ 
 
