PCCDB-ID:  5570 
public computational chemistry database (PCCDB) project, http://pccdb.org 
 
 17 17  0  0  0  0  0  0  0  0999 V2000 
    1.0546   -0.0264    0.0650 C   0  0  0  0  0  0  0  0  0  0  0  0 
    4.5741   -1.2627   -0.1210 C   0  0  0  0  0  0  0  0  0  0  0  0 
    5.2753   -0.0573   -0.2311 C   0  0  0  0  0  0  0  0  0  0  0  0 
    3.1941   -1.2392   -0.0298 C   0  0  0  0  0  0  0  0  0  0  0  0 
    3.1988    1.1163   -0.1629 C   0  0  0  0  0  0  0  0  0  0  0  0 
    4.5794    1.1520   -0.2542 C   0  0  0  0  0  0  0  0  0  0  0  0 
    5.2926    2.5406   -0.3792 C   0  0  0  0  0  0  0  0  0  0  0  0 
    2.5259   -0.0561   -0.0508 N   0  0  0  0  0  0  0  0  0  0  0  0 
    4.4870    3.4951   -0.3998 O   0  0  0  0  0  0  0  0  0  0  0  0 
    6.5318    2.4512   -0.4355 O   0  0  0  0  0  0  0  0  0  0  0  0 
    0.6671   -1.0446    0.0285 H   0  0  0  0  0  0  0  0  0  0  0  0 
    0.6402    0.5512   -0.7636 H   0  0  0  0  0  0  0  0  0  0  0  0 
    0.7732    0.4395    1.0123 H   0  0  0  0  0  0  0  0  0  0  0  0 
    5.0827   -2.2212   -0.1042 H   0  0  0  0  0  0  0  0  0  0  0  0 
    6.3584   -0.0069   -0.3021 H   0  0  0  0  0  0  0  0  0  0  0  0 
    2.5889   -2.1327    0.0604 H   0  0  0  0  0  0  0  0  0  0  0  0 
    2.6392    2.0465   -0.1823 H   0  0  0  0  0  0  0  0  0  0  0  0 
  1 13  1  0  0  0  0 
  2 14  1  0  0  0  0 
  2  4  2  0  0  0  0 
  3  2  1  0  0  0  0 
  4 16  1  0  0  0  0 
  5  8  1  0  0  0  0 
  6  3  1  0  0  0  0 
  6  5  2  0  0  0  0 
  7  6  1  0  0  0  0 
  8  4  1  0  0  0  0 
  8  1  1  0  0  0  0 
  9  7  1  0  0  0  0 
 10  7  2  0  0  0  0 
 11  1  1  0  0  0  0 
 12  1  1  0  0  0  0 
 15  3  1  0  0  0  0 
 17  5  1  0  0  0  0 
M  RAD  1   9   2 
M  END 
>  <HBA> 
2 
 
>  <HBD> 
0 
 
>  <TPSA> 
44.01 
 
>  <cid> 
5570 
 
>  <dipole> 
13.68 
 
>  <excitation_energy_1> 
1.964 
 
>  <excitation_energy_2> 
1.976 
 
>  <excitation_energy_3> 
2.373 
 
>  <excitation_energy_4> 
2.793 
 
>  <homo_energy> 
-5.121 
 
>  <homo_lumo_gap> 
2.52 
 
>  <logP> 
-1.125 
 
>  <lumo_energy> 
-2.601 
 
>  <melting_point> 
37.83 
 
>  <molecular_refractivity> 
35.05 
 
>  <oscillator_strength_1> 
0.0 
 
>  <oscillator_strength_2> 
0.0 
 
>  <oscillator_strength_3> 
0.0158 
 
>  <oscillator_strength_4> 
0.0 
 
>  <open_babel_can_smiles> 
CN1C=C(CC=C1)C(=O)[O] 
 
>  <mulliken_charges> 
17 
1   -0.340691 
2   -0.168678 
3   -0.105357 
4   0.090154 
5   0.060015 
6   0.004349 
7   0.570768 
8   -0.372239 
9   -0.583199 
10   -0.570505 
11   0.189911 
12   0.214561 
13   0.214941 
14   0.175219 
15   0.206768 
16   0.189187 
17   0.224795 
 
>  <lowdin_charges> 
17 
1   -0.343425 
2   -0.151189 
3   -0.073925 
4   -0.086774 
5   -0.062065 
6   -0.014219 
7   0.115261 
8   0.067187 
9   -0.394037 
10   -0.377103 
11   0.175602 
12   0.187653 
13   0.185598 
14   0.182745 
15   0.199257 
16   0.182248 
17   0.207185 
 
$$$$ 
 
