PCCDB-ID:  4994 
public computational chemistry database (PCCDB) project, http://pccdb.org 
 
 25 25  0  0  0  0  0  0  0  0999 V2000 
    1.1840    0.4445   -0.4946 C   0  0  0  0  0  0  0  0  0  0  0  0 
    4.8865    0.8046    3.1572 C   0  0  0  0  0  0  0  0  0  0  0  0 
    2.4463   -0.0955    0.1860 C   0  0  0  0  0  0  0  0  0  0  0  0 
    4.2540    0.0798    1.9647 C   0  0  0  0  0  0  0  0  0  0  0  0 
    1.2139    1.6980    3.0729 C   0  0  0  0  0  0  0  0  0  0  0  0 
    1.5642    2.9171    2.5914 C   0  0  0  0  0  0  0  0  0  0  0  0 
    1.8480    0.5015    2.5515 C   0  0  0  0  0  0  0  0  0  0  0  0 
    3.1179    2.1657    1.0966 C   0  0  0  0  0  0  0  0  0  0  0  0 
    2.9188    0.6983    1.4449 C   0  0  0  0  0  0  0  0  0  0  0  0 
    2.5100    3.1766    1.6074 N   0  0  0  0  0  0  0  0  0  0  0  0 
    1.5862   -0.6357    2.9315 O   0  0  0  0  0  0  0  0  0  0  0  0 
    4.0315    2.4510    0.1450 O   0  0  0  0  0  0  0  0  0  0  0  0 
    0.9182   -0.1870   -1.3487 H   0  0  0  0  0  0  0  0  0  0  0  0 
    1.3239    1.4659   -0.8660 H   0  0  0  0  0  0  0  0  0  0  0  0 
    0.3315    0.4484    0.1927 H   0  0  0  0  0  0  0  0  0  0  0  0 
    5.8034    0.2923    3.4678 H   0  0  0  0  0  0  0  0  0  0  0  0 
    4.2093    0.8207    4.0175 H   0  0  0  0  0  0  0  0  0  0  0  0 
    5.1501    1.8399    2.9135 H   0  0  0  0  0  0  0  0  0  0  0  0 
    3.2678   -0.1419   -0.5441 H   0  0  0  0  0  0  0  0  0  0  0  0 
    2.2761   -1.1214    0.5285 H   0  0  0  0  0  0  0  0  0  0  0  0 
    4.0183   -0.9541    2.2370 H   0  0  0  0  0  0  0  0  0  0  0  0 
    4.9775    0.0266    1.1380 H   0  0  0  0  0  0  0  0  0  0  0  0 
    0.4619    1.5840    3.8464 H   0  0  0  0  0  0  0  0  0  0  0  0 
    1.0878    3.8145    2.9810 H   0  0  0  0  0  0  0  0  0  0  0  0 
    4.4331    1.6270   -0.1741 H   0  0  0  0  0  0  0  0  0  0  0  0 
  1  3  1  0  0  0  0 
  1 15  1  0  0  0  0 
  2 16  1  0  0  0  0 
  2 17  1  0  0  0  0 
  3 20  1  0  0  0  0 
  3  9  1  0  0  0  0 
  4 21  1  0  0  0  0 
  4  2  1  0  0  0  0 
  5 23  1  0  0  0  0 
  6 24  1  0  0  0  0 
  6  5  2  0  0  0  0 
  7 11  2  0  0  0  0 
  7  5  1  0  0  0  0 
  8  9  1  0  0  0  0 
  8 10  2  0  0  0  0 
  9  4  1  0  0  0  0 
  9  7  1  0  0  0  0 
 10  6  1  0  0  0  0 
 12  8  1  0  0  0  0 
 13  1  1  0  0  0  0 
 14  1  1  0  0  0  0 
 18  2  1  0  0  0  0 
 19  3  1  0  0  0  0 
 22  4  1  0  0  0  0 
 25 12  1  0  0  0  0 
M  END 
>  <HBA> 
3 
 
>  <HBD> 
1 
 
>  <TPSA> 
46.17 
 
>  <cid> 
4994 
 
>  <dipole> 
2.11 
 
>  <excitation_energy_1> 
3.407 
 
>  <excitation_energy_2> 
4.092 
 
>  <excitation_energy_3> 
4.101 
 
>  <excitation_energy_4> 
5.598 
 
>  <homo_energy> 
-6.514 
 
>  <homo_lumo_gap> 
4.55 
 
>  <logP> 
1.334 
 
>  <lumo_energy> 
-1.965 
 
>  <melting_point> 
92.46 
 
>  <molecular_refractivity> 
49.65 
 
>  <oscillator_strength_1> 
0.0007 
 
>  <oscillator_strength_2> 
0.0036 
 
>  <oscillator_strength_3> 
0.1154 
 
>  <oscillator_strength_4> 
0.0007 
 
>  <open_babel_can_smiles> 
CCC1(CC)C(=O)C=CN=C1O 
 
>  <mulliken_charges> 
25 
1   -0.465095 
2   -0.46533 
3   -0.268834 
4   -0.268845 
5   -0.186442 
6   0.025196 
7   0.460901 
8   0.550047 
9   -0.12249 
10   -0.468704 
11   -0.513025 
12   -0.576449 
13   0.155427 
14   0.162609 
15   0.167896 
16   0.155362 
17   0.168173 
18   0.162527 
19   0.118071 
20   0.182392 
21   0.182375 
22   0.117798 
23   0.147268 
24   0.157218 
25   0.421954 
 
>  <lowdin_charges> 
25 
1   -0.452066 
2   -0.451568 
3   -0.263769 
4   -0.263572 
5   -0.23988 
6   -0.049997 
7   0.146249 
8   0.163291 
9   -0.06136 
10   -0.193091 
11   -0.264712 
12   -0.326093 
13   0.159236 
14   0.155303 
15   0.161013 
16   0.158791 
17   0.161124 
18   0.155097 
19   0.133974 
20   0.167977 
21   0.167873 
22   0.133799 
23   0.175213 
24   0.165909 
25   0.361257 
 
$$$$ 
 
