PCCDB-ID:  124 
public computational chemistry database (PCCDB) project, http://pccdb.org 
 
 17 16  0  0  1  0  0  0  0  0999 V2000 
    2.0870   -1.1701    0.4652 C   0  0  0  0  0  0  0  0  0  0  0  0 
    2.2978    0.2521   -1.6374 C   0  0  0  0  0  0  0  0  0  0  0  0 
    1.4318   -0.7731   -0.8575 C   0  0  1  0  0  0  0  0  0  0  0  0 
    1.7316    0.5005   -3.0180 C   0  0  0  0  0  0  0  0  0  0  0  0 
    2.1824   -0.5037   -4.1064 C   0  0  0  0  0  0  0  0  0  0  0  0 
    1.1227   -1.9097   -1.6569 O   0  0  0  0  0  0  0  0  0  0  0  0 
    0.9652    1.3951   -3.2938 O   0  0  0  0  0  0  0  0  0  0  0  0 
    1.6854   -0.2070   -5.3116 O   0  0  0  0  0  0  0  0  0  0  0  0 
    2.9153   -1.4485   -3.8856 O   0  0  0  0  0  0  0  0  0  0  0  0 
    2.2528   -0.2977    1.1084 H   0  0  0  0  0  0  0  0  0  0  0  0 
    3.0568   -1.6522    0.2883 H   0  0  0  0  0  0  0  0  0  0  0  0 
    1.4450   -1.8785    0.9975 H   0  0  0  0  0  0  0  0  0  0  0  0 
    3.3222   -0.1287   -1.7190 H   0  0  0  0  0  0  0  0  0  0  0  0 
    2.3117    1.2045   -1.0994 H   0  0  0  0  0  0  0  0  0  0  0  0 
    0.4610   -0.3056   -0.6567 H   0  0  0  0  0  0  0  0  0  0  0  0 
    1.9485   -2.2295   -2.0598 H   0  0  0  0  0  0  0  0  0  0  0  0 
    2.0112   -0.8933   -5.9250 H   0  0  0  0  0  0  0  0  0  0  0  0 
  1 12  1  0  0  0  0 
  1 10  1  0  0  0  0 
  2 14  1  0  0  0  0 
  2  3  1  0  0  0  0 
  3 15  1  1  0  0  0 
  3  1  1  0  0  0  0 
  4  2  1  0  0  0  0 
  5  9  2  0  0  0  0 
  5  4  1  0  0  0  0 
  6  3  1  0  0  0  0 
  7  4  2  0  0  0  0 
  8  5  1  0  0  0  0 
 11  1  1  0  0  0  0 
 13  2  1  0  0  0  0 
 16  6  1  0  0  0  0 
 17  8  1  0  0  0  0 
M  END 
>  <HBA> 
4 
 
>  <HBD> 
2 
 
>  <TPSA> 
74.6 
 
>  <cid> 
124 
 
>  <dipole> 
2.11 
 
>  <excitation_energy_1> 
3.196 
 
>  <excitation_energy_2> 
4.219 
 
>  <excitation_energy_3> 
5.074 
 
>  <excitation_energy_4> 
5.688 
 
>  <homo_energy> 
-7.094 
 
>  <homo_lumo_gap> 
4.814 
 
>  <logP> 
-0.589 
 
>  <lumo_energy> 
-2.28 
 
>  <melting_point> 
91.27 
 
>  <molecular_refractivity> 
29.28 
 
>  <oscillator_strength_1> 
0.0002 
 
>  <oscillator_strength_2> 
0.0012 
 
>  <oscillator_strength_3> 
0.003 
 
>  <oscillator_strength_4> 
0.0294 
 
>  <open_babel_can_smiles> 
C[C@@H](CC(=O)C(=O)O)O 
 
>  <mulliken_charges> 
17 
1   -0.451025 
2   -0.384088 
3   0.141952 
4   0.428862 
5   0.540252 
6   -0.636083 
7   -0.407778 
8   -0.532237 
9   -0.473 
10   0.144462 
11   0.142863 
12   0.166141 
13   0.166198 
14   0.173208 
15   0.156 
16   0.404642 
17   0.41963 
 
>  <lowdin_charges> 
17 
1   -0.459545 
2   -0.322957 
3   0.01163 
4   0.141361 
5   0.168773 
6   -0.46585 
7   -0.174855 
8   -0.309167 
9   -0.262635 
10   0.154403 
11   0.149126 
12   0.16497 
13   0.165386 
14   0.173929 
15   0.15008 
16   0.344328 
17   0.371023 
 
$$$$ 
 
