PCCDB-ID:  606 
public computational chemistry database (PCCDB) project, http://pccdb.org 
 
 26 26  0  0  1  0  0  0  0  0999 V2000 
   -4.3560   -2.9498    1.6348 C   0  0  0  0  0  0  0  0  0  0  0  0 
   -0.8196   -3.8785    0.5100 C   0  0  0  0  0  0  0  0  0  0  0  0 
   -5.2164   -3.8552   -0.1028 C   0  0  0  0  0  0  0  0  0  0  0  0 
   -3.5420   -2.5851    0.5862 C   0  0  0  0  0  0  0  0  0  0  0  0 
   -1.0470   -2.4836    1.0808 C   0  0  2  0  0  0  0  0  0  0  0  0 
   -2.2802   -1.7829    0.4703 C   0  0  1  0  0  0  0  0  0  0  0  0 
   -5.3939   -3.7433    1.1967 N   0  0  0  0  0  0  0  0  0  0  0  0 
   -4.1044   -3.1831   -0.5217 N   0  0  0  0  0  0  0  0  0  0  0  0 
    0.0515   -1.6338    0.7669 O   0  0  0  0  0  0  0  0  0  0  0  0 
   -2.0485   -1.5354   -0.9137 O   0  0  0  0  0  0  0  0  0  0  0  0 
   -0.0866   -6.8202    0.8908 O   0  0  0  0  0  0  0  0  0  0  0  0 
    1.1210   -5.6375   -0.9607 O   0  0  0  0  0  0  0  0  0  0  0  0 
    2.3569   -6.0333    1.3542 O   0  0  0  0  0  0  0  0  0  0  0  0 
    0.4694   -4.3102    1.0235 O   0  0  0  0  0  0  0  0  0  0  0  0 
    1.0976   -5.7359    0.6495 P   0  0  0  0  0  0  0  0  0  0  0  0 
   -4.2570   -2.6848    2.6795 H   0  0  0  0  0  0  0  0  0  0  0  0 
   -0.7755   -3.8457   -0.5817 H   0  0  0  0  0  0  0  0  0  0  0  0 
   -1.5951   -4.5757    0.8350 H   0  0  0  0  0  0  0  0  0  0  0  0 
   -5.8542   -4.4021   -0.7843 H   0  0  0  0  0  0  0  0  0  0  0  0 
   -1.1814   -2.5612    2.1702 H   0  0  0  0  0  0  0  0  0  0  0  0 
   -2.3924   -0.8304    1.0107 H   0  0  0  0  0  0  0  0  0  0  0  0 
   -3.7632   -3.0471   -1.4632 H   0  0  0  0  0  0  0  0  0  0  0  0 
    0.8621   -2.1444    0.9337 H   0  0  0  0  0  0  0  0  0  0  0  0 
   -1.1361   -1.1966   -0.9590 H   0  0  0  0  0  0  0  0  0  0  0  0 
    0.0676   -7.2866    1.7295 H   0  0  0  0  0  0  0  0  0  0  0  0 
    1.5443   -6.4132   -1.3639 H   0  0  0  0  0  0  0  0  0  0  0  0 
  1 16  1  0  0  0  0 
  2 18  1  0  0  0  0 
  2 14  1  0  0  0  0 
  2  5  1  0  0  0  0 
  3  7  2  0  0  0  0 
  4  1  2  0  0  0  0 
  5 20  1  1  0  0  0 
  6  4  1  0  0  0  0 
  6 21  1  1  0  0  0 
  6  5  1  0  0  0  0 
  7  1  1  0  0  0  0 
  8  3  1  0  0  0  0 
  8  4  1  0  0  0  0 
  9 23  1  0  0  0  0 
  9  5  1  0  0  0  0 
 10  6  1  0  0  0  0 
 11 25  1  0  0  0  0 
 12 15  1  0  0  0  0 
 15 11  1  0  0  0  0 
 15 14  1  0  0  0  0 
 15 13  2  0  0  0  0 
 17  2  1  0  0  0  0 
 19  3  1  0  0  0  0 
 22  8  1  0  0  0  0 
 24 10  1  0  0  0  0 
 26 12  1  0  0  0  0 
M  END 
>  <HBA> 
7 
 
>  <HBD> 
5 
 
>  <TPSA> 
145.71 
 
>  <cid> 
606 
 
>  <dipole> 
2.98 
 
>  <excitation_energy_1> 
5.028 
 
>  <excitation_energy_2> 
5.563 
 
>  <excitation_energy_3> 
5.803 
 
>  <excitation_energy_4> 
5.903 
 
>  <homo_energy> 
-6.076 
 
>  <homo_lumo_gap> 
6.531 
 
>  <logP> 
-1.087 
 
>  <lumo_energy> 
0.454 
 
>  <melting_point> 
185.57 
 
>  <molecular_refractivity> 
47.56 
 
>  <oscillator_strength_1> 
0.0006 
 
>  <oscillator_strength_2> 
0.0004 
 
>  <oscillator_strength_3> 
0.0203 
 
>  <oscillator_strength_4> 
0.0111 
 
>  <open_babel_can_smiles> 
O[C@@H]([C@H](c1[nH]cnc1)O)COP(=O)(O)O 
 
>  <mulliken_charges> 
26 
1   -0.087605 
2   -0.066453 
3   0.206193 
4   0.296783 
5   0.109197 
6   0.054994 
7   -0.426744 
8   -0.591022 
9   -0.654012 
10   -0.660333 
11   -0.656692 
12   -0.648012 
13   -0.52529 
14   -0.538133 
15   1.154435 
16   0.132736 
17   0.175144 
18   0.185482 
19   0.155704 
20   0.140565 
21   0.158314 
22   0.3515 
23   0.424435 
24   0.41925 
25   0.444205 
26   0.445361 
 
>  <lowdin_charges> 
26 
1   -0.174761 
2   -0.140452 
3   -0.099586 
4   -0.026866 
5   -0.024496 
6   -0.001037 
7   -0.184545 
8   -0.169718 
9   -0.464409 
10   -0.468432 
11   -0.572412 
12   -0.566136 
13   -0.57154 
14   -0.396903 
15   1.113887 
16   0.159134 
17   0.15972 
18   0.171129 
19   0.169051 
20   0.142173 
21   0.153603 
22   0.301712 
23   0.359606 
24   0.353548 
25   0.388268 
26   0.38946 
 
$$$$ 
 
