PCCDB-ID:  2600 
public computational chemistry database (PCCDB) project, http://pccdb.org 
 
 30 31  0  0  0  0  0  0  0  0999 V2000 
    1.4270    0.3741    0.4118 C   0  0  0  0  0  0  0  0  0  0  0  0 
    5.8777   -3.1252   -2.7893 C   0  0  0  0  0  0  0  0  0  0  0  0 
    7.2605   -2.9495   -2.7929 C   0  0  0  0  0  0  0  0  0  0  0  0 
    1.6289   -3.7855   -2.4928 C   0  0  0  0  0  0  0  0  0  0  0  0 
    1.3053   -4.9109   -3.4645 C   0  0  0  0  0  0  0  0  0  0  0  0 
    2.8987   -1.5741   -1.0927 C   0  0  0  0  0  0  0  0  0  0  0  0 
    7.1508   -1.2710   -1.2608 C   0  0  0  0  0  0  0  0  0  0  0  0 
    5.0892   -2.3261   -1.9510 C   0  0  0  0  0  0  0  0  0  0  0  0 
    5.7561   -1.3565   -1.1774 C   0  0  0  0  0  0  0  0  0  0  0  0 
    3.6179   -2.4540   -1.8540 C   0  0  0  0  0  0  0  0  0  0  0  0 
    3.4990   -0.4977   -0.3232 C   0  0  0  0  0  0  0  0  0  0  0  0 
    5.0173   -0.4058   -0.2950 C   0  0  0  0  0  0  0  0  0  0  0  0 
    2.8777    0.3879    0.3787 N   0  0  0  0  0  0  0  0  0  0  0  0 
    7.9073   -2.0480   -2.0423 N   0  0  0  0  0  0  0  0  0  0  0  0 
    3.0399   -3.4600   -2.5947 N   0  0  0  0  0  0  0  0  0  0  0  0 
    2.1717   -5.9985   -3.1468 O   0  0  0  0  0  0  0  0  0  0  0  0 
    5.6120    0.4040    0.3952 O   0  0  0  0  0  0  0  0  0  0  0  0 
    1.0755    1.2368    0.9847 H   0  0  0  0  0  0  0  0  0  0  0  0 
    1.0392   -0.5338    0.8999 H   0  0  0  0  0  0  0  0  0  0  0  0 
    0.9787    0.4247   -0.5927 H   0  0  0  0  0  0  0  0  0  0  0  0 
    5.4407   -3.8601   -3.4571 H   0  0  0  0  0  0  0  0  0  0  0  0 
    7.8823   -3.5683   -3.4378 H   0  0  0  0  0  0  0  0  0  0  0  0 
    1.3550   -4.0873   -1.4686 H   0  0  0  0  0  0  0  0  0  0  0  0 
    1.0275   -2.9063   -2.7523 H   0  0  0  0  0  0  0  0  0  0  0  0 
    1.4677   -4.5642   -4.4957 H   0  0  0  0  0  0  0  0  0  0  0  0 
    0.2477   -5.1923   -3.3553 H   0  0  0  0  0  0  0  0  0  0  0  0 
    1.8234   -1.6878   -1.0333 H   0  0  0  0  0  0  0  0  0  0  0  0 
    7.6616   -0.5247   -0.6583 H   0  0  0  0  0  0  0  0  0  0  0  0 
    3.6051   -4.2885   -2.7390 H   0  0  0  0  0  0  0  0  0  0  0  0 
    2.0754   -6.6787   -3.8299 H   0  0  0  0  0  0  0  0  0  0  0  0 
  1 19  1  0  0  0  0 
  1 18  1  0  0  0  0 
  2  8  1  0  0  0  0 
  3  2  2  0  0  0  0 
  3 14  1  0  0  0  0 
  4 23  1  0  0  0  0 
  5 26  1  0  0  0  0 
  5 16  1  0  0  0  0 
  5  4  1  0  0  0  0 
  6 27  1  0  0  0  0 
  6 11  1  0  0  0  0 
  7  9  1  0  0  0  0 
  7 28  1  0  0  0  0 
  8 10  1  0  0  0  0 
  8  9  2  0  0  0  0 
  9 12  1  0  0  0  0 
 10  6  2  0  0  0  0 
 11 12  1  0  0  0  0 
 11 13  2  0  0  0  0 
 12 17  2  0  0  0  0 
 13  1  1  0  0  0  0 
 14  7  2  0  0  0  0 
 15  4  1  0  0  0  0 
 15 10  1  0  0  0  0 
 20  1  1  0  0  0  0 
 21  2  1  0  0  0  0 
 22  3  1  0  0  0  0 
 24  4  1  0  0  0  0 
 25  5  1  0  0  0  0 
 29 15  1  0  0  0  0 
 30 16  1  0  0  0  0 
M  END 
>  <HBA> 
5 
 
>  <HBD> 
2 
 
>  <TPSA> 
74.58 
 
>  <cid> 
2600 
 
>  <dipole> 
9.57 
 
>  <excitation_energy_1> 
2.711 
 
>  <excitation_energy_2> 
2.914 
 
>  <excitation_energy_3> 
3.069 
 
>  <excitation_energy_4> 
3.831 
 
>  <homo_energy> 
-5.842 
 
>  <homo_lumo_gap> 
3.358 
 
>  <logP> 
0.662 
 
>  <lumo_energy> 
-2.484 
 
>  <melting_point> 
155.0 
 
>  <molecular_refractivity> 
64.48 
 
>  <oscillator_strength_1> 
0.0007 
 
>  <oscillator_strength_2> 
0.0791 
 
>  <oscillator_strength_3> 
0.0064 
 
>  <oscillator_strength_4> 
0.0006 
 
>  <open_babel_can_smiles> 
OCCNC1=C/C(=N\C)/C(=O)c2c1ccnc2 
 
>  <mulliken_charges> 
30 
1   -0.328359 
2   -0.223562 
3   0.052604 
4   -0.11652 
5   -0.058037 
6   -0.272331 
7   0.012791 
8   0.123777 
9   -0.008813 
10   0.34923 
11   0.237792 
12   0.385675 
13   -0.412239 
14   -0.412965 
15   -0.680891 
16   -0.622261 
17   -0.449252 
18   0.165964 
19   0.150083 
20   0.144423 
21   0.138339 
22   0.148925 
23   0.160802 
24   0.162788 
25   0.142506 
26   0.141755 
27   0.133486 
28   0.180786 
29   0.347548 
30   0.405957 
 
>  <lowdin_charges> 
30 
1   -0.368381 
2   -0.189329 
3   -0.075519 
4   -0.200675 
5   -0.134169 
6   -0.262812 
7   -0.059398 
8   0.019155 
9   -0.061951 
10   0.068044 
11   0.009182 
12   0.148795 
13   -0.141645 
14   -0.142046 
15   -0.273888 
16   -0.474367 
17   -0.205597 
18   0.158244 
19   0.149114 
20   0.143544 
21   0.165902 
22   0.162477 
23   0.146421 
24   0.159386 
25   0.136964 
26   0.139466 
27   0.163069 
28   0.179557 
29   0.285953 
30   0.354505 
 
$$$$ 
 
