PCCDB-ID:  4076 
public computational chemistry database (PCCDB) project, http://pccdb.org 
 
 32 32  0  0  0  0  0  0  0  0999 V2000 
    3.1470    1.2078   -0.7371 C   0  0  0  0  0  0  0  0  0  0  0  0 
    7.4180   -3.8059   -1.0777 C   0  0  0  0  0  0  0  0  0  0  0  0 
    6.1444    0.1425   -2.0399 C   0  0  0  0  0  0  0  0  0  0  0  0 
    2.4730   -4.8106    0.1075 C   0  0  0  0  0  0  0  0  0  0  0  0 
    1.8066   -5.3050   -1.1876 C   0  0  0  0  0  0  0  0  0  0  0  0 
    2.7514   -2.3043    0.0210 C   0  0  0  0  0  0  0  0  0  0  0  0 
    4.6628   -3.6810   -0.4757 C   0  0  0  0  0  0  0  0  0  0  0  0 
    3.3137   -3.5697   -0.1030 C   0  0  0  0  0  0  0  0  0  0  0  0 
    3.5007   -1.1426   -0.2245 C   0  0  0  0  0  0  0  0  0  0  0  0 
    5.4250   -2.5367   -0.7080 C   0  0  0  0  0  0  0  0  0  0  0  0 
    4.8515   -1.2481   -0.5956 C   0  0  0  0  0  0  0  0  0  0  0  0 
    0.9714   -6.4799   -0.9148 N   0  0  0  0  0  0  0  0  0  0  0  0 
    2.8280    0.0263   -0.0070 O   0  0  0  0  0  0  0  0  0  0  0  0 
    6.7566   -2.5529   -1.0265 O   0  0  0  0  0  0  0  0  0  0  0  0 
    5.6301   -0.1187   -0.7317 O   0  0  0  0  0  0  0  0  0  0  0  0 
    2.2935    1.8755   -0.5916 H   0  0  0  0  0  0  0  0  0  0  0  0 
    3.2553    0.9970   -1.8088 H   0  0  0  0  0  0  0  0  0  0  0  0 
    4.0580    1.6828   -0.3674 H   0  0  0  0  0  0  0  0  0  0  0  0 
    7.0015   -4.4539   -1.8605 H   0  0  0  0  0  0  0  0  0  0  0  0 
    7.3654   -4.3276   -0.1134 H   0  0  0  0  0  0  0  0  0  0  0  0 
    8.4609   -3.5830   -1.3118 H   0  0  0  0  0  0  0  0  0  0  0  0 
    6.8269   -0.6470   -2.3647 H   0  0  0  0  0  0  0  0  0  0  0  0 
    6.6857    1.0890   -1.9666 H   0  0  0  0  0  0  0  0  0  0  0  0 
    5.3302    0.2466   -2.7703 H   0  0  0  0  0  0  0  0  0  0  0  0 
    3.0983   -5.6182    0.5143 H   0  0  0  0  0  0  0  0  0  0  0  0 
    1.6846   -4.6214    0.8444 H   0  0  0  0  0  0  0  0  0  0  0  0 
    2.5889   -5.4704   -1.9509 H   0  0  0  0  0  0  0  0  0  0  0  0 
    1.1563   -4.5120   -1.5760 H   0  0  0  0  0  0  0  0  0  0  0  0 
    1.7123   -2.1782    0.3100 H   0  0  0  0  0  0  0  0  0  0  0  0 
    5.1097   -4.6653   -0.5613 H   0  0  0  0  0  0  0  0  0  0  0  0 
    1.5657   -7.2705   -0.6662 H   0  0  0  0  0  0  0  0  0  0  0  0 
    0.4794   -6.7569   -1.7629 H   0  0  0  0  0  0  0  0  0  0  0  0 
  1 16  1  0  0  0  0 
  1 18  1  0  0  0  0 
  1 13  1  0  0  0  0 
  2 14  1  0  0  0  0 
  2 20  1  0  0  0  0 
  3 23  1  0  0  0  0 
  3 15  1  0  0  0  0 
  4 25  1  0  0  0  0 
  4 26  1  0  0  0  0 
  5 12  1  0  0  0  0 
  5  4  1  0  0  0  0 
  6 29  1  0  0  0  0 
  7  8  2  0  0  0  0 
  8  6  1  0  0  0  0 
  8  4  1  0  0  0  0 
  9 13  1  0  0  0  0 
  9  6  2  0  0  0  0 
 10 11  2  0  0  0  0 
 10  7  1  0  0  0  0 
 11  9  1  0  0  0  0 
 12 31  1  0  0  0  0 
 14 10  1  0  0  0  0 
 15 11  1  0  0  0  0 
 17  1  1  0  0  0  0 
 19  2  1  0  0  0  0 
 21  2  1  0  0  0  0 
 22  3  1  0  0  0  0 
 24  3  1  0  0  0  0 
 27  5  1  0  0  0  0 
 28  5  1  0  0  0  0 
 30  7  1  0  0  0  0 
 32 12  1  0  0  0  0 
M  END 
>  <HBA> 
4 
 
>  <HBD> 
1 
 
>  <TPSA> 
53.71 
 
>  <cid> 
4076 
 
>  <dipole> 
3.78 
 
>  <excitation_energy_1> 
4.896 
 
>  <excitation_energy_2> 
5.184 
 
>  <excitation_energy_3> 
5.277 
 
>  <excitation_energy_4> 
5.382 
 
>  <homo_energy> 
-5.63 
 
>  <homo_lumo_gap> 
5.989 
 
>  <logP> 
1.914 
 
>  <lumo_energy> 
0.359 
 
>  <melting_point> 
79.06 
 
>  <molecular_refractivity> 
58.4 
 
>  <oscillator_strength_1> 
0.0032 
 
>  <oscillator_strength_2> 
0.007 
 
>  <oscillator_strength_3> 
0.0215 
 
>  <oscillator_strength_4> 
0.0073 
 
>  <open_babel_can_smiles> 
NCCc1cc(OC)c(c(c1)OC)OC 
 
>  <mulliken_charges> 
32 
1   -0.203134 
2   -0.211691 
3   -0.211358 
4   -0.341071 
5   -0.129845 
6   -0.253795 
7   -0.271287 
8   0.174884 
9   0.341968 
10   0.352502 
11   0.248566 
12   -0.713995 
13   -0.522982 
14   -0.513365 
15   -0.523363 
16   0.154378 
17   0.137967 
18   0.170565 
19   0.149727 
20   0.155334 
21   0.167964 
22   0.16871 
23   0.155247 
24   0.132121 
25   0.129914 
26   0.159801 
27   0.114176 
28   0.145982 
29   0.130207 
30   0.11957 
31   0.290446 
32   0.295859 
 
>  <lowdin_charges> 
32 
1   -0.273266 
2   -0.276568 
3   -0.280066 
4   -0.275815 
5   -0.204598 
6   -0.204073 
7   -0.240291 
8   0.00617 
9   0.088881 
10   0.087245 
11   0.024376 
12   -0.55998 
13   -0.20675 
14   -0.198106 
15   -0.222761 
16   0.153469 
17   0.137665 
18   0.155774 
19   0.144665 
20   0.147361 
21   0.160249 
22   0.154464 
23   0.153733 
24   0.133963 
25   0.143365 
26   0.159384 
27   0.118085 
28   0.146399 
29   0.163269 
30   0.157758 
31   0.250864 
32   0.255136 
 
$$$$ 
 
