PCCDB-ID:  102 
public computational chemistry database (PCCDB) project, http://pccdb.org 
 
 17 17  0  0  0  0  0  0  0  0999 V2000 
   -0.7601    1.1660   -0.1330 C   0  0  0  0  0  0  0  0  0  0  0  0 
   -1.3525   -0.0893   -0.2563 C   0  0  0  0  0  0  0  0  0  0  0  0 
    0.6231    1.2917    0.0063 C   0  0  0  0  0  0  0  0  0  0  0  0 
    0.8309   -1.1198   -0.1133 C   0  0  0  0  0  0  0  0  0  0  0  0 
   -1.1907   -2.6150   -0.3465 C   0  0  0  0  0  0  0  0  0  0  0  0 
   -0.5535   -1.2415   -0.2435 C   0  0  0  0  0  0  0  0  0  0  0  0 
    1.4191    0.1422    0.0173 C   0  0  0  0  0  0  0  0  0  0  0  0 
   -2.3584   -2.6434   -1.1582 O   0  0  0  0  0  0  0  0  0  0  0  0 
    2.7812    0.1878    0.1441 O   0  0  0  0  0  0  0  0  0  0  0  0 
   -1.3773    2.0607   -0.1426 H   0  0  0  0  0  0  0  0  0  0  0  0 
   -2.4274   -0.1893   -0.3668 H   0  0  0  0  0  0  0  0  0  0  0  0 
    1.0817    2.2745    0.1013 H   0  0  0  0  0  0  0  0  0  0  0  0 
    1.4735   -1.9963   -0.1127 H   0  0  0  0  0  0  0  0  0  0  0  0 
   -1.5280   -2.9493    0.6419 H   0  0  0  0  0  0  0  0  0  0  0  0 
   -0.4426   -3.3458   -0.6931 H   0  0  0  0  0  0  0  0  0  0  0  0 
   -2.1106   -2.2932   -2.0288 H   0  0  0  0  0  0  0  0  0  0  0  0 
    3.0592    1.1144    0.2118 H   0  0  0  0  0  0  0  0  0  0  0  0 
  1  3  2  0  0  0  0 
  2  6  2  0  0  0  0 
  2  1  1  0  0  0  0 
  3  7  1  0  0  0  0 
  3 12  1  0  0  0  0 
  4 13  1  0  0  0  0 
  4  7  2  0  0  0  0 
  5  6  1  0  0  0  0 
  5 14  1  0  0  0  0 
  6  4  1  0  0  0  0 
  7  9  1  0  0  0  0 
  8  5  1  0  0  0  0 
  9 17  1  0  0  0  0 
 10  1  1  0  0  0  0 
 11  2  1  0  0  0  0 
 15  5  1  0  0  0  0 
 16  8  1  0  0  0  0 
M  END 
>  <HBA> 
2 
 
>  <HBD> 
2 
 
>  <TPSA> 
40.46 
 
>  <cid> 
102 
 
>  <dipole> 
2.34 
 
>  <excitation_energy_1> 
4.971 
 
>  <excitation_energy_2> 
5.258 
 
>  <excitation_energy_3> 
5.635 
 
>  <excitation_energy_4> 
5.896 
 
>  <homo_energy> 
-6.016 
 
>  <homo_lumo_gap> 
5.883 
 
>  <logP> 
0.884 
 
>  <lumo_energy> 
-0.133 
 
>  <melting_point> 
66.74 
 
>  <molecular_refractivity> 
34.59 
 
>  <oscillator_strength_1> 
0.0386 
 
>  <oscillator_strength_2> 
0.0001 
 
>  <oscillator_strength_3> 
0.014 
 
>  <oscillator_strength_4> 
0.005 
 
>  <open_babel_can_smiles> 
OCc1cccc(c1)O 
 
>  <mulliken_charges> 
17 
1   -0.133192 
2   -0.180131 
3   -0.195347 
4   -0.21833 
5   -0.0905 
6   0.098907 
7   0.355524 
8   -0.609622 
9   -0.643718 
10   0.13191 
11   0.139899 
12   0.117434 
13   0.133504 
14   0.166038 
15   0.131424 
16   0.389055 
17   0.407146 
 
>  <lowdin_charges> 
17 
1   -0.143147 
2   -0.18615 
3   -0.217747 
4   -0.198924 
5   -0.132991 
6   -0.020183 
7   0.106763 
8   -0.459841 
9   -0.379502 
10   0.159433 
11   0.162806 
12   0.152687 
13   0.16511 
14   0.158263 
15   0.135031 
16   0.342539 
17   0.355854 
 
$$$$ 
 
