PCCDB-ID:  1855 
public computational chemistry database (PCCDB) project, http://pccdb.org 
 
 29 29  0  0  0  0  0  0  0  0999 V2000 
    2.9408    0.6657    1.9682 C   0  0  0  0  0  0  0  0  0  0  0  0 
    1.6496   -1.1858   -0.1156 C   0  0  0  0  0  0  0  0  0  0  0  0 
   -0.4782   -2.5692   -0.2563 C   0  0  0  0  0  0  0  0  0  0  0  0 
   -0.6147   -0.1730    0.5560 C   0  0  0  0  0  0  0  0  0  0  0  0 
    2.9132    0.9542    0.4862 C   0  0  0  0  0  0  0  0  0  0  0  0 
    0.1225   -1.1664   -0.3636 C   0  0  0  0  0  0  0  0  0  0  0  0 
    2.3185    0.1232   -0.4679 C   0  0  0  0  0  0  0  0  0  0  0  0 
    3.5061    2.1154   -0.0512 C   0  0  0  0  0  0  0  0  0  0  0  0 
    2.8878    1.5670   -2.1396 C   0  0  0  0  0  0  0  0  0  0  0  0 
    2.2999    0.4293   -1.7856 N   0  0  0  0  0  0  0  0  0  0  0  0 
    3.5034    2.4383   -1.3415 N   0  0  0  0  0  0  0  0  0  0  0  0 
   -0.3462   -3.0301    1.0982 O   0  0  0  0  0  0  0  0  0  0  0  0 
   -0.3712   -0.3856    1.9392 O   0  0  0  0  0  0  0  0  0  0  0  0 
    4.1263    2.9779    0.7798 O   0  0  0  0  0  0  0  0  0  0  0  0 
    2.8740    1.8903   -3.4483 O   0  0  0  0  0  0  0  0  0  0  0  0 
    3.6468   -0.1404    2.2086 H   0  0  0  0  0  0  0  0  0  0  0  0 
    1.9515    0.3659    2.3279 H   0  0  0  0  0  0  0  0  0  0  0  0 
    3.2577    1.5517    2.5222 H   0  0  0  0  0  0  0  0  0  0  0  0 
    2.0898   -1.9593   -0.7579 H   0  0  0  0  0  0  0  0  0  0  0  0 
    1.8496   -1.4641    0.9195 H   0  0  0  0  0  0  0  0  0  0  0  0 
    0.0367   -3.2579   -0.9431 H   0  0  0  0  0  0  0  0  0  0  0  0 
   -1.5403   -2.5352   -0.5443 H   0  0  0  0  0  0  0  0  0  0  0  0 
   -1.6952   -0.2197    0.3334 H   0  0  0  0  0  0  0  0  0  0  0  0 
   -0.2857    0.8486    0.3407 H   0  0  0  0  0  0  0  0  0  0  0  0 
   -0.0412   -0.8375   -1.3993 H   0  0  0  0  0  0  0  0  0  0  0  0 
   -0.7976   -3.8835    1.1797 H   0  0  0  0  0  0  0  0  0  0  0  0 
   -0.4933   -1.3411    2.0885 H   0  0  0  0  0  0  0  0  0  0  0  0 
    4.4510    3.7025    0.2141 H   0  0  0  0  0  0  0  0  0  0  0  0 
    2.4055    1.1607   -3.8905 H   0  0  0  0  0  0  0  0  0  0  0  0 
  1 16  1  0  0  0  0 
  1 17  1  0  0  0  0 
  1 18  1  0  0  0  0 
  2 20  1  0  0  0  0 
  3 12  1  0  0  0  0 
  4 13  1  0  0  0  0 
  5  1  1  0  0  0  0 
  6  3  1  0  0  0  0 
  6  2  1  0  0  0  0 
  6  4  1  0  0  0  0 
  7  2  1  0  0  0  0 
  7  5  2  0  0  0  0 
  8  5  1  0  0  0  0 
  8 14  1  0  0  0  0 
  9 10  2  0  0  0  0 
  9 11  2  0  0  0  0 
 10  7  1  0  0  0  0 
 11  8  2  0  0  0  0 
 12 26  1  0  0  0  0 
 13 27  1  0  0  0  0 
 15  9  1  0  0  0  0 
 19  2  1  0  0  0  0 
 21  3  1  0  0  0  0 
 22  3  1  0  0  0  0 
 23  4  1  0  0  0  0 
 24  4  1  0  0  0  0 
 25  6  1  0  0  0  0 
 28 14  1  0  0  0  0 
 29 15  1  0  0  0  0 
M  END 
>  <HBA> 
4 
 
>  <HBD> 
4 
 
>  <TPSA> 
106.18 
 
>  <cid> 
1855 
 
>  <dipole> 
4.4 
 
>  <excitation_energy_1> 
5.027 
 
>  <excitation_energy_2> 
5.092 
 
>  <excitation_energy_3> 
5.604 
 
>  <excitation_energy_4> 
5.706 
 
>  <homo_energy> 
-6.234 
 
>  <homo_lumo_gap> 
5.695 
 
>  <logP> 
-1.485 
 
>  <lumo_energy> 
-0.539 
 
>  <melting_point> 
212.67 
 
>  <molecular_refractivity> 
54.36 
 
>  <oscillator_strength_1> 
0.1156 
 
>  <oscillator_strength_2> 
0.0055 
 
>  <oscillator_strength_3> 
0.0003 
 
>  <oscillator_strength_4> 
0.0084 
 
>  <open_babel_can_smiles> 
OCC(CC1=C(C)C(=[N]=[C](=N1)O)O)CO 
 
>  <mulliken_charges> 
29 
1   -0.560553 
2   -0.311462 
3   -0.047653 
4   -0.028318 
5   0.091868 
6   -0.137885 
7   0.245551 
8   0.487014 
9   0.627996 
10   -0.55164 
11   -0.52977 
12   -0.631749 
13   -0.633792 
14   -0.61353 
15   -0.593144 
16   0.155734 
17   0.204141 
18   0.17645 
19   0.150625 
20   0.168734 
21   0.134029 
22   0.130973 
23   0.11395 
24   0.150934 
25   0.150662 
26   0.405291 
27   0.416035 
28   0.416794 
29   0.412716 
 
>  <lowdin_charges> 
29 
1   -0.455529 
2   -0.280927 
3   -0.135402 
4   -0.132133 
5   -0.083556 
6   -0.148667 
7   0.076514 
8   0.150815 
9   0.157793 
10   -0.239055 
11   -0.21584 
12   -0.473011 
13   -0.478138 
14   -0.34891 
15   -0.34815 
16   0.158273 
17   0.178648 
18   0.170721 
19   0.16163 
20   0.164885 
21   0.136593 
22   0.131266 
23   0.122643 
24   0.148378 
25   0.158013 
26   0.352425 
27   0.341331 
28   0.366128 
29   0.363264 
 
$$$$ 
 
