PCCDB-ID:  3864 
public computational chemistry database (PCCDB) project, http://pccdb.org 
 
 31 30  0  0  1  0  0  0  0  0999 V2000 
    4.6175   -5.2923   -5.0761 C   0  0  0  0  0  0  0  0  0  0  0  0 
    3.8038   -3.2717   -1.3484 C   0  0  0  0  0  0  0  0  0  0  0  0 
    2.4716   -2.8585   -1.9971 C   0  0  0  0  0  0  0  0  0  0  0  0 
    3.6982   -4.5183   -0.4513 C   0  0  0  0  0  0  0  0  0  0  0  0 
    1.8589   -3.8525   -3.0249 C   0  0  2  0  0  0  0  0  0  0  0  0 
    2.8175   -4.0295   -4.1978 C   0  0  0  0  0  0  0  0  0  0  0  0 
    5.8898   -5.6126   -0.6725 C   0  0  0  0  0  0  0  0  0  0  0  0 
    0.5763   -3.4228   -3.5817 N   0  0  0  0  0  0  0  0  0  0  0  0 
    5.7962   -6.1284   -1.8405 N   0  0  0  0  0  0  0  0  0  0  0  0 
    4.9703   -4.9636    0.1001 N   0  0  0  0  0  0  0  0  0  0  0  0 
    7.1544   -5.8787   -0.0457 N   0  0  0  0  0  0  0  0  0  0  0  0 
    7.8487   -5.0272    0.7937 N   0  0  0  0  0  0  0  0  0  0  0  0 
    2.8701   -3.2788   -5.1473 O   0  0  0  0  0  0  0  0  0  0  0  0 
    7.2135   -4.2063    1.4615 O   0  0  0  0  0  0  0  0  0  0  0  0 
    9.0590   -5.2084    0.8400 O   0  0  0  0  0  0  0  0  0  0  0  0 
    3.6366   -5.0914   -4.0340 O   0  0  0  0  0  0  0  0  0  0  0  0 
    5.2776   -6.0760   -4.7067 H   0  0  0  0  0  0  0  0  0  0  0  0 
    5.1735   -4.3702   -5.2570 H   0  0  0  0  0  0  0  0  0  0  0  0 
    4.1198   -5.6003   -5.9989 H   0  0  0  0  0  0  0  0  0  0  0  0 
    4.1763   -2.4375   -0.7403 H   0  0  0  0  0  0  0  0  0  0  0  0 
    4.5610   -3.4523   -2.1196 H   0  0  0  0  0  0  0  0  0  0  0  0 
    2.6022   -1.8956   -2.5070 H   0  0  0  0  0  0  0  0  0  0  0  0 
    1.7168   -2.6978   -1.2135 H   0  0  0  0  0  0  0  0  0  0  0  0 
    3.2553   -5.3577   -0.9977 H   0  0  0  0  0  0  0  0  0  0  0  0 
    3.0326   -4.3177    0.3956 H   0  0  0  0  0  0  0  0  0  0  0  0 
    1.7171   -4.8294   -2.5510 H   0  0  0  0  0  0  0  0  0  0  0  0 
    0.7424   -2.6447   -4.2189 H   0  0  0  0  0  0  0  0  0  0  0  0 
   -0.0291   -3.0837   -2.8364 H   0  0  0  0  0  0  0  0  0  0  0  0 
    4.8712   -5.9967   -2.2472 H   0  0  0  0  0  0  0  0  0  0  0  0 
    5.3460   -4.4785    0.9066 H   0  0  0  0  0  0  0  0  0  0  0  0 
    7.7992   -6.3616   -0.6629 H   0  0  0  0  0  0  0  0  0  0  0  0 
  1 17  1  0  0  0  0 
  1 16  1  0  0  0  0 
  2 20  1  0  0  0  0 
  2  4  1  0  0  0  0 
  3  2  1  0  0  0  0 
  3 23  1  0  0  0  0 
  4 10  1  0  0  0  0 
  4 25  1  0  0  0  0 
  5 26  1  1  0  0  0 
  5  3  1  0  0  0  0 
  6 16  1  0  0  0  0 
  6  5  1  0  0  0  0 
  7 11  1  0  0  0  0 
  7 10  1  0  0  0  0 
  8  5  1  0  0  0  0 
  8 28  1  0  0  0  0 
  9  7  2  0  0  0  0 
 10 30  1  0  0  0  0 
 11 12  1  0  0  0  0 
 12 15  2  0  0  0  0 
 12 14  2  0  0  0  0 
 13  6  2  0  0  0  0 
 18  1  1  0  0  0  0 
 19  1  1  0  0  0  0 
 21  2  1  0  0  0  0 
 22  3  1  0  0  0  0 
 24  4  1  0  0  0  0 
 27  8  1  0  0  0  0 
 29  9  1  0  0  0  0 
 31 11  1  0  0  0  0 
M  END 
>  <HBA> 
6 
 
>  <HBD> 
3 
 
>  <TPSA> 
148.55 
 
>  <cid> 
3864 
 
>  <dipole> 
2.56 
 
>  <excitation_energy_1> 
3.911 
 
>  <excitation_energy_2> 
4.297 
 
>  <excitation_energy_3> 
4.53 
 
>  <excitation_energy_4> 
5.033 
 
>  <homo_energy> 
-6.637 
 
>  <homo_lumo_gap> 
4.762 
 
>  <logP> 
0.678 
 
>  <lumo_energy> 
-1.875 
 
>  <melting_point> 
169.51 
 
>  <molecular_refractivity> 
57.05 
 
>  <oscillator_strength_1> 
0.0092 
 
>  <oscillator_strength_2> 
0.0002 
 
>  <oscillator_strength_3> 
0.0009 
 
>  <oscillator_strength_4> 
0.031 
 
>  <open_babel_can_smiles> 
COC(=O)[C@@H](CCCNC(=N)NN(=O)=O)N 
 
>  <mulliken_charges> 
31 
1   -0.233083 
2   -0.270846 
3   -0.286899 
4   -0.158928 
5   -0.052322 
6   0.641112 
7   0.647075 
8   -0.715363 
9   -0.687042 
10   -0.603265 
11   -0.443201 
12   0.627143 
13   -0.480107 
14   -0.427678 
15   -0.389924 
16   -0.46311 
17   0.187944 
18   0.177517 
19   0.17589 
20   0.147142 
21   0.160084 
22   0.154471 
23   0.135378 
24   0.165863 
25   0.157573 
26   0.15744 
27   0.316617 
28   0.297707 
29   0.321641 
30   0.367316 
31   0.373853 
 
>  <lowdin_charges> 
31 
1   -0.282224 
2   -0.29568 
3   -0.290697 
4   -0.202263 
5   -0.092513 
6   0.199254 
7   0.132593 
8   -0.54299 
9   -0.469625 
10   -0.292477 
11   -0.209306 
12   0.343099 
13   -0.25825 
14   -0.275752 
15   -0.244104 
16   -0.193086 
17   0.172879 
18   0.1646 
19   0.163025 
20   0.153161 
21   0.154607 
22   0.155374 
23   0.144484 
24   0.153837 
25   0.157312 
26   0.152988 
27   0.266401 
28   0.257274 
29   0.264757 
30   0.297929 
31   0.315396 
 
$$$$ 
 
