PCCDB-ID:  1754 
public computational chemistry database (PCCDB) project, http://pccdb.org 
 
 42 41  0  0  0  0  0  0  0  0999 V2000 
    1.5475   -0.9928   -2.5044 C   0  0  0  0  0  0  0  0  0  0  0  0 
    2.7313   -1.2580   -3.4413 C   0  0  0  0  0  0  0  0  0  0  0  0 
    3.5584   -2.4838   -3.0301 C   0  0  0  0  0  0  0  0  0  0  0  0 
    4.7078   -2.8329   -3.9927 C   0  0  0  0  0  0  0  0  0  0  0  0 
    5.8223   -1.7791   -4.1239 C   0  0  0  0  0  0  0  0  0  0  0  0 
    6.6272   -1.5363   -2.8394 C   0  0  0  0  0  0  0  0  0  0  0  0 
    7.7824   -0.5433   -3.0251 C   0  0  0  0  0  0  0  0  0  0  0  0 
    8.5908   -0.3170   -1.7385 C   0  0  0  0  0  0  0  0  0  0  0  0 
    9.8249    0.5865   -1.8926 C   0  0  0  0  0  0  0  0  0  0  0  0 
   11.8949    4.8182   -2.4949 C   0  0  0  0  0  0  0  0  0  0  0  0 
    9.4920    2.0367   -2.2233 C   0  0  0  0  0  0  0  0  0  0  0  0 
   10.5175    4.1455   -2.5333 C   0  0  0  0  0  0  0  0  0  0  0  0 
   11.8208    6.3031   -2.8246 C   0  0  0  0  0  0  0  0  0  0  0  0 
   11.9652    7.1898   -2.0233 O   0  0  0  0  0  0  0  0  0  0  0  0 
   11.5370    6.6023   -4.1264 O   0  0  0  0  0  0  0  0  0  0  0  0 
   10.7054    2.7779   -2.2497 O   0  0  0  0  0  0  0  0  0  0  0  0 
    0.8618   -1.8489   -2.4800 H   0  0  0  0  0  0  0  0  0  0  0  0 
    0.9737   -0.1149   -2.8225 H   0  0  0  0  0  0  0  0  0  0  0  0 
    1.8875   -0.8142   -1.4767 H   0  0  0  0  0  0  0  0  0  0  0  0 
    3.3713   -0.3662   -3.4717 H   0  0  0  0  0  0  0  0  0  0  0  0 
    2.3611   -1.4016   -4.4668 H   0  0  0  0  0  0  0  0  0  0  0  0 
    2.8883   -3.3530   -2.9632 H   0  0  0  0  0  0  0  0  0  0  0  0 
    3.9503   -2.3328   -2.0142 H   0  0  0  0  0  0  0  0  0  0  0  0 
    4.2846   -3.0214   -4.9897 H   0  0  0  0  0  0  0  0  0  0  0  0 
    5.1601   -3.7823   -3.6715 H   0  0  0  0  0  0  0  0  0  0  0  0 
    5.3978   -0.8270   -4.4724 H   0  0  0  0  0  0  0  0  0  0  0  0 
    6.5131   -2.1043   -4.9151 H   0  0  0  0  0  0  0  0  0  0  0  0 
    7.0288   -2.4951   -2.4782 H   0  0  0  0  0  0  0  0  0  0  0  0 
    5.9649   -1.1666   -2.0444 H   0  0  0  0  0  0  0  0  0  0  0  0 
    7.3765    0.4102   -3.3919 H   0  0  0  0  0  0  0  0  0  0  0  0 
    8.4556   -0.9101   -3.8144 H   0  0  0  0  0  0  0  0  0  0  0  0 
    8.9256   -1.2920   -1.3593 H   0  0  0  0  0  0  0  0  0  0  0  0 
    7.9314    0.0974   -0.9615 H   0  0  0  0  0  0  0  0  0  0  0  0 
   10.4884    0.1899   -2.6724 H   0  0  0  0  0  0  0  0  0  0  0  0 
   10.4021    0.5823   -0.9598 H   0  0  0  0  0  0  0  0  0  0  0  0 
   12.5575    4.3021   -3.2021 H   0  0  0  0  0  0  0  0  0  0  0  0 
   12.3219    4.7166   -1.4956 H   0  0  0  0  0  0  0  0  0  0  0  0 
    8.8102    2.4556   -1.4627 H   0  0  0  0  0  0  0  0  0  0  0  0 
    8.9839    2.1212   -3.1982 H   0  0  0  0  0  0  0  0  0  0  0  0 
   10.0425    4.2764   -3.5228 H   0  0  0  0  0  0  0  0  0  0  0  0 
    9.8492    4.6159   -1.7933 H   0  0  0  0  0  0  0  0  0  0  0  0 
   11.4792    5.7881   -4.6530 H   0  0  0  0  0  0  0  0  0  0  0  0 
  1 17  1  0  0  0  0 
  1 19  1  0  0  0  0 
  2  3  1  0  0  0  0 
  2  1  1  0  0  0  0 
  3 22  1  0  0  0  0 
  3 23  1  0  0  0  0 
  4 25  1  0  0  0  0 
  4  3  1  0  0  0  0 
  5  4  1  0  0  0  0 
  5  6  1  0  0  0  0 
  6 28  1  0  0  0  0 
  6 29  1  0  0  0  0 
  7  6  1  0  0  0  0 
  7  8  1  0  0  0  0 
  8 32  1  0  0  0  0 
  8 33  1  0  0  0  0 
  9  8  1  0  0  0  0 
  9 35  1  0  0  0  0 
 10 37  1  0  0  0  0 
 11  9  1  0  0  0  0 
 11 38  1  0  0  0  0 
 12 10  1  0  0  0  0 
 12 16  1  0  0  0  0 
 12 41  1  0  0  0  0 
 13 10  1  0  0  0  0 
 13 14  2  0  0  0  0 
 15 13  1  0  0  0  0 
 16 11  1  0  0  0  0 
 18  1  1  0  0  0  0 
 20  2  1  0  0  0  0 
 21  2  1  0  0  0  0 
 24  4  1  0  0  0  0 
 26  5  1  0  0  0  0 
 27  5  1  0  0  0  0 
 30  7  1  0  0  0  0 
 31  7  1  0  0  0  0 
 34  9  1  0  0  0  0 
 36 10  1  0  0  0  0 
 39 11  1  0  0  0  0 
 40 12  1  0  0  0  0 
 42 15  1  0  0  0  0 
M  END 
>  <HBA> 
3 
 
>  <HBD> 
1 
 
>  <TPSA> 
46.53 
 
>  <cid> 
1754 
 
>  <dipole> 
4.66 
 
>  <excitation_energy_1> 
5.6 
 
>  <excitation_energy_2> 
6.311 
 
>  <excitation_energy_3> 
6.585 
 
>  <excitation_energy_4> 
6.614 
 
>  <homo_energy> 
-7.29 
 
>  <homo_lumo_gap> 
7.431 
 
>  <logP> 
3.618 
 
>  <lumo_energy> 
0.142 
 
>  <melting_point> 
37.0 
 
>  <molecular_refractivity> 
67.46 
 
>  <oscillator_strength_1> 
0.0019 
 
>  <oscillator_strength_2> 
0.0061 
 
>  <oscillator_strength_3> 
0.0067 
 
>  <oscillator_strength_4> 
0.0199 
 
>  <open_babel_can_smiles> 
CCCCCCCCCCOCCC(=O)O 
 
>  <mulliken_charges> 
42 
1   -0.441759 
2   -0.247904 
3   -0.249972 
4   -0.257936 
5   -0.257402 
6   -0.254366 
7   -0.256317 
8   -0.266739 
9   -0.274423 
10   -0.388968 
11   -0.009912 
12   -0.005699 
13   0.579003 
14   -0.429095 
15   -0.562538 
16   -0.48028 
17   0.141872 
18   0.14164 
19   0.140747 
20   0.132751 
21   0.129678 
22   0.127792 
23   0.130564 
24   0.127169 
25   0.126675 
26   0.131152 
27   0.127224 
28   0.128102 
29   0.133232 
30   0.129693 
31   0.129267 
32   0.136852 
33   0.130793 
34   0.142606 
35   0.148106 
36   0.165001 
37   0.19371 
38   0.122016 
39   0.122917 
40   0.110019 
41   0.145828 
42   0.408901 
 
>  <lowdin_charges> 
42 
1   -0.444128 
2   -0.274066 
3   -0.278048 
4   -0.275716 
5   -0.279124 
6   -0.277329 
7   -0.278306 
8   -0.276397 
9   -0.282033 
10   -0.320007 
11   -0.131126 
12   -0.126888 
13   0.19843 
14   -0.233261 
15   -0.364548 
16   -0.271637 
17   0.146774 
18   0.149697 
19   0.144985 
20   0.139094 
21   0.1375 
22   0.141352 
23   0.137054 
24   0.139865 
25   0.140024 
26   0.138387 
27   0.141408 
28   0.137988 
29   0.140455 
30   0.136963 
31   0.139333 
32   0.145505 
33   0.140383 
34   0.148174 
35   0.15256 
36   0.164443 
37   0.18074 
38   0.128597 
39   0.126855 
40   0.118712 
41   0.140148 
42   0.357187 
 
$$$$ 
 
