PCCDB-ID:  4201 
public computational chemistry database (PCCDB) project, http://pccdb.org 
 
 30 31  0  0  1  0  0  0  0  0999 V2000 
    0.7789    1.3009   -0.2201 C   0  0  0  0  0  0  0  0  0  0  0  0 
    1.5150   -0.0412   -0.1390 C   0  0  0  0  0  0  0  0  0  0  0  0 
   -0.4608    1.2708    0.6808 C   0  0  0  0  0  0  0  0  0  0  0  0 
    0.5796   -1.2219   -0.4420 C   0  0  0  0  0  0  0  0  0  0  0  0 
   -1.3578    0.0761    0.3429 C   0  0  0  0  0  0  0  0  0  0  0  0 
   -0.6374   -3.6116    0.7276 C   0  0  0  0  0  0  0  0  0  0  0  0 
   -1.2843   -4.6941    1.3098 C   0  0  1  0  0  0  0  0  0  0  0  0 
   -1.2208   -2.3225    0.8964 C   0  0  0  0  0  0  0  0  0  0  0  0 
   -3.0200   -3.1835    2.1048 C   0  0  0  0  0  0  0  0  0  0  0  0 
   -0.8442   -5.9893    1.2766 N   0  0  0  0  0  0  0  0  0  0  0  0 
   -4.1493   -3.2359    2.7398 N   0  0  0  0  0  0  0  0  0  0  0  0 
   -2.3753   -2.1345    1.5495 N   0  0  0  0  0  0  0  0  0  0  0  0 
   -0.6118   -1.1873    0.4024 N   0  0  0  0  0  0  0  0  0  0  0  0 
   -2.4103   -4.4546    2.0055 N   0  0  0  0  0  0  0  0  0  0  0  0 
   -3.1251   -5.5179    2.5449 O   0  0  0  0  0  0  0  0  0  0  0  0 
    0.4698    1.4861   -1.2596 H   0  0  0  0  0  0  0  0  0  0  0  0 
    1.4483    2.1229    0.0614 H   0  0  0  0  0  0  0  0  0  0  0  0 
    1.9284   -0.1730    0.8698 H   0  0  0  0  0  0  0  0  0  0  0  0 
    2.3574   -0.0698   -0.8415 H   0  0  0  0  0  0  0  0  0  0  0  0 
   -1.0437    2.1942    0.5732 H   0  0  0  0  0  0  0  0  0  0  0  0 
   -0.1541    1.2011    1.7329 H   0  0  0  0  0  0  0  0  0  0  0  0 
    1.1247   -2.1496   -0.2734 H   0  0  0  0  0  0  0  0  0  0  0  0 
    0.2874   -1.1986   -1.5067 H   0  0  0  0  0  0  0  0  0  0  0  0 
   -1.7694    0.2025   -0.6740 H   0  0  0  0  0  0  0  0  0  0  0  0 
   -2.1957   -0.0035    1.0321 H   0  0  0  0  0  0  0  0  0  0  0  0 
    0.2674   -3.7980    0.1693 H   0  0  0  0  0  0  0  0  0  0  0  0 
   -0.1998   -6.2265    0.5370 H   0  0  0  0  0  0  0  0  0  0  0  0 
   -1.5325   -6.6949    1.5039 H   0  0  0  0  0  0  0  0  0  0  0  0 
   -4.5802   -2.3181    2.8041 H   0  0  0  0  0  0  0  0  0  0  0  0 
   -3.9187   -4.9903    2.8793 H   0  0  0  0  0  0  0  0  0  0  0  0 
  1  2  1  0  0  0  0 
  1 17  1  0  0  0  0 
  1  3  1  0  0  0  0 
  2 18  1  0  0  0  0 
  3 21  1  0  0  0  0 
  4 22  1  0  0  0  0 
  4  2  1  0  0  0  0 
  4 13  1  0  0  0  0 
  5 13  1  0  0  0  0 
  5  3  1  0  0  0  0 
  5 25  1  0  0  0  0 
  6  8  2  0  0  0  0 
  6  7  1  0  0  0  0 
  7 10  1  1  0  0  0 
  7 14  1  0  0  0  0 
  8 12  1  0  0  0  0 
  9 11  1  0  0  0  0 
 10 28  1  0  0  0  0 
 11 29  1  0  0  0  0 
 12  9  2  0  0  0  0 
 13  8  1  0  0  0  0 
 14  9  1  0  0  0  0 
 14 15  1  0  0  0  0 
 15 30  1  0  0  0  0 
 16  1  1  0  0  0  0 
 19  2  1  0  0  0  0 
 20  3  1  0  0  0  0 
 23  4  1  0  0  0  0 
 24  5  1  0  0  0  0 
 26  6  1  0  0  0  0 
 27 10  1  0  0  0  0 
M  RAD  2   7   2  11   2 
M  END 
>  <HBA> 
6 
 
>  <HBD> 
3 
 
>  <TPSA> 
91.16 
 
>  <cid> 
4201 
 
>  <dipole> 
4.76 
 
>  <excitation_energy_1> 
4.332 
 
>  <excitation_energy_2> 
4.439 
 
>  <excitation_energy_3> 
4.894 
 
>  <excitation_energy_4> 
5.014 
 
>  <homo_energy> 
-5.097 
 
>  <homo_lumo_gap> 
5.148 
 
>  <logP> 
0.918 
 
>  <lumo_energy> 
0.052 
 
>  <melting_point> 
199.43 
 
>  <molecular_refractivity> 
60.15 
 
>  <oscillator_strength_1> 
0.0575 
 
>  <oscillator_strength_2> 
0.0272 
 
>  <oscillator_strength_3> 
0.0198 
 
>  <oscillator_strength_4> 
0.1246 
 
>  <open_babel_can_smiles> 
N[C]1C=C(N=C(N1O)[NH])N1CCCCC1 
 
>  <mulliken_charges> 
30 
1   -0.265437 
2   -0.26128 
3   -0.263364 
4   -0.129415 
5   -0.136886 
6   -0.314469 
7   0.62646 
8   0.572863 
9   0.699616 
10   -0.794984 
11   -0.7922 
12   -0.625394 
13   -0.493145 
14   -0.282652 
15   -0.553924 
16   0.129545 
17   0.13818 
18   0.144141 
19   0.134908 
20   0.13635 
21   0.143949 
22   0.154816 
23   0.135603 
24   0.128195 
25   0.199653 
26   0.120599 
27   0.340179 
28   0.366031 
29   0.296114 
30   0.445948 
 
>  <lowdin_charges> 
30 
1   -0.280464 
2   -0.28207 
3   -0.281416 
4   -0.193238 
5   -0.20008 
6   -0.339916 
7   0.137455 
8   0.135334 
9   0.116418 
10   -0.457863 
11   -0.51895 
12   -0.272831 
13   -0.103951 
14   0.062275 
15   -0.390958 
16   0.137228 
17   0.147816 
18   0.146215 
19   0.147993 
20   0.148689 
21   0.145396 
22   0.156578 
23   0.132419 
24   0.131168 
25   0.182507 
26   0.163045 
27   0.292334 
28   0.302815 
29   0.266523 
30   0.369529 
 
$$$$ 
 
