PCCDB-ID:  1059 
public computational chemistry database (PCCDB) project, http://pccdb.org 
 
 16 16  0  0  1  0  0  0  0  0999 V2000 
   -1.2929    0.2913   -0.4050 C   0  0  0  0  0  0  0  0  0  0  0  0 
    0.9026    0.1412    0.4930 C   0  0  0  0  0  0  0  0  0  0  0  0 
   -0.1349    1.1844    0.1027 C   0  0  2  0  0  0  0  0  0  0  0  0 
   -0.8999   -1.1292    0.0599 C   0  0  1  0  0  0  0  0  0  0  0  0 
   -1.0514   -2.2191   -1.0122 C   0  0  0  0  0  0  0  0  0  0  0  0 
    0.5061   -1.0708    0.5173 N   0  0  0  0  0  0  0  0  0  0  0  0 
   -0.4456    2.0337    1.2043 O   0  0  0  0  0  0  0  0  0  0  0  0 
   -1.9451   -2.2267   -1.8220 O   0  0  0  0  0  0  0  0  0  0  0  0 
   -0.1241   -3.1926   -0.9430 O   0  0  0  0  0  0  0  0  0  0  0  0 
   -1.3716    0.3193   -1.4949 H   0  0  0  0  0  0  0  0  0  0  0  0 
   -2.2517    0.6277   -0.0025 H   0  0  0  0  0  0  0  0  0  0  0  0 
    1.9156    0.4067    0.7954 H   0  0  0  0  0  0  0  0  0  0  0  0 
    0.2403    1.8650   -0.6670 H   0  0  0  0  0  0  0  0  0  0  0  0 
   -1.5056   -1.4726    0.9114 H   0  0  0  0  0  0  0  0  0  0  0  0 
   -0.7868    1.4789    1.9248 H   0  0  0  0  0  0  0  0  0  0  0  0 
    0.5384   -2.9174   -0.2732 H   0  0  0  0  0  0  0  0  0  0  0  0 
  1 11  1  0  0  0  0 
  1  4  1  0  0  0  0 
  1  3  1  0  0  0  0 
  2  6  1  0  0  0  0 
  2 12  1  0  0  0  0 
  3 13  1  6  0  0  0 
  3  2  1  0  0  0  0 
  3  7  1  0  0  0  0 
  4  6  1  0  0  0  0 
  4 14  1  1  0  0  0 
  5  9  1  0  0  0  0 
  5  4  1  0  0  0  0 
  7 15  1  0  0  0  0 
  8  5  2  0  0  0  0 
  9 16  1  0  0  0  0 
 10  1  1  0  0  0  0 
M  RAD  2   2   2   6   2 
M  END 
>  <HBA> 
4 
 
>  <HBD> 
2 
 
>  <TPSA> 
69.89 
 
>  <cid> 
1059 
 
>  <dipole> 
3.75 
 
>  <excitation_energy_1> 
5.042 
 
>  <excitation_energy_2> 
5.415 
 
>  <excitation_energy_3> 
5.654 
 
>  <excitation_energy_4> 
6.015 
 
>  <homo_energy> 
-7.336 
 
>  <homo_lumo_gap> 
6.144 
 
>  <logP> 
-1.289 
 
>  <lumo_energy> 
-1.192 
 
>  <melting_point> 
110.32 
 
>  <molecular_refractivity> 
33.98 
 
>  <oscillator_strength_1> 
0.0035 
 
>  <oscillator_strength_2> 
0.0344 
 
>  <oscillator_strength_3> 
0.009 
 
>  <oscillator_strength_4> 
0.0091 
 
>  <open_babel_can_smiles> 
O[C@H]1[CH][N][C@@H](C1)C(=O)O 
 
>  <mulliken_charges> 
16 
1   -0.322671 
2   0.061409 
3   0.081163 
4   -0.105347 
5   0.602272 
6   -0.389416 
7   -0.608432 
8   -0.447997 
9   -0.572656 
10   0.188068 
11   0.169455 
12   0.168781 
13   0.1647 
14   0.188841 
15   0.391267 
16   0.430564 
 
>  <lowdin_charges> 
16 
1   -0.302192 
2   -0.085039 
3   -0.020446 
4   -0.116803 
5   0.182464 
6   -0.177247 
7   -0.445117 
8   -0.242368 
9   -0.347693 
10   0.174573 
11   0.168136 
12   0.168163 
13   0.16261 
14   0.17391 
15   0.345107 
16   0.361943 
 
$$$$ 
 
