PCCDB-ID:  4158 
public computational chemistry database (PCCDB) project, http://pccdb.org 
 
 36 37  0  0  1  0  0  0  0  0999 V2000 
    4.5736    0.5349    0.9106 C   0  0  0  0  0  0  0  0  0  0  0  0 
    3.4382    1.4422   -5.4386 C   0  0  0  0  0  0  0  0  0  0  0  0 
    2.9702    0.2996   -4.7864 C   0  0  0  0  0  0  0  0  0  0  0  0 
    3.4213    2.6686   -4.7738 C   0  0  0  0  0  0  0  0  0  0  0  0 
   -1.6587    1.3592    0.2087 C   0  0  0  0  0  0  0  0  0  0  0  0 
   -2.3838    2.2700   -0.7925 C   0  0  0  0  0  0  0  0  0  0  0  0 
    2.4842    0.3826   -3.4818 C   0  0  0  0  0  0  0  0  0  0  0  0 
    2.9349    2.7497   -3.4682 C   0  0  0  0  0  0  0  0  0  0  0  0 
   -0.1374    1.5787    0.1605 C   0  0  0  0  0  0  0  0  0  0  0  0 
   -1.7702    2.1188   -2.1942 C   0  0  0  0  0  0  0  0  0  0  0  0 
    2.4535    1.6126   -2.8109 C   0  0  0  0  0  0  0  0  0  0  0  0 
    0.3928    1.4427   -1.2840 C   0  0  2  0  0  0  0  0  0  0  0  0 
    1.9137    1.7176   -1.3851 C   0  0  1  0  0  0  0  0  0  0  0  0 
    2.6937    0.7586   -0.4926 C   0  0  0  0  0  0  0  0  0  0  0  0 
   -0.3160    2.3102   -2.2335 N   0  0  0  0  0  0  0  0  0  0  0  0 
    2.4519   -0.4233   -0.3550 O   0  0  0  0  0  0  0  0  0  0  0  0 
    3.7291    1.3799    0.1106 O   0  0  0  0  0  0  0  0  0  0  0  0 
    4.0035    0.0859    1.7284 H   0  0  0  0  0  0  0  0  0  0  0  0 
    5.3551    1.1877    1.3002 H   0  0  0  0  0  0  0  0  0  0  0  0 
    5.0057   -0.2623    0.3002 H   0  0  0  0  0  0  0  0  0  0  0  0 
    3.8163    1.3759   -6.4553 H   0  0  0  0  0  0  0  0  0  0  0  0 
    2.9858   -0.6617   -5.2935 H   0  0  0  0  0  0  0  0  0  0  0  0 
    3.7860    3.5644   -5.2698 H   0  0  0  0  0  0  0  0  0  0  0  0 
   -1.8752    0.3092   -0.0368 H   0  0  0  0  0  0  0  0  0  0  0  0 
   -2.0338    1.5249    1.2263 H   0  0  0  0  0  0  0  0  0  0  0  0 
   -2.2918    3.3183   -0.4704 H   0  0  0  0  0  0  0  0  0  0  0  0 
   -3.4574    2.0403   -0.8198 H   0  0  0  0  0  0  0  0  0  0  0  0 
    2.1388   -0.5131   -2.9739 H   0  0  0  0  0  0  0  0  0  0  0  0 
    2.9277    3.7086   -2.9547 H   0  0  0  0  0  0  0  0  0  0  0  0 
    0.3646    0.8619    0.8207 H   0  0  0  0  0  0  0  0  0  0  0  0 
    0.1013    2.5878    0.5324 H   0  0  0  0  0  0  0  0  0  0  0  0 
   -2.2249    2.8245   -2.8996 H   0  0  0  0  0  0  0  0  0  0  0  0 
   -1.9790    1.1101   -2.5782 H   0  0  0  0  0  0  0  0  0  0  0  0 
    0.2220    0.4086   -1.6119 H   0  0  0  0  0  0  0  0  0  0  0  0 
    2.1109    2.7333   -1.0214 H   0  0  0  0  0  0  0  0  0  0  0  0 
   -0.1069    3.2848   -2.0102 H   0  0  0  0  0  0  0  0  0  0  0  0 
  1 19  1  0  0  0  0 
  1 18  1  0  0  0  0 
  2  3  2  0  0  0  0 
  2  4  1  0  0  0  0 
  3  7  1  0  0  0  0 
  4  8  2  0  0  0  0 
  5 25  1  0  0  0  0 
  6 26  1  0  0  0  0 
  6  5  1  0  0  0  0 
  7 28  1  0  0  0  0 
  7 11  2  0  0  0  0 
  8 29  1  0  0  0  0 
  8 11  1  0  0  0  0 
  9  5  1  0  0  0  0 
  9 31  1  0  0  0  0 
  9 30  1  0  0  0  0 
 10  6  1  0  0  0  0 
 11 13  1  0  0  0  0 
 12 34  1  6  0  0  0 
 12  9  1  0  0  0  0 
 13 12  1  0  0  0  0 
 13 35  1  1  0  0  0 
 13 14  1  0  0  0  0 
 14 16  2  0  0  0  0 
 14 17  1  0  0  0  0 
 15 10  1  0  0  0  0 
 15 36  1  0  0  0  0 
 15 12  1  0  0  0  0 
 17  1  1  0  0  0  0 
 20  1  1  0  0  0  0 
 21  2  1  0  0  0  0 
 22  3  1  0  0  0  0 
 23  4  1  0  0  0  0 
 24  5  1  0  0  0  0 
 27  6  1  0  0  0  0 
 32 10  1  0  0  0  0 
 33 10  1  0  0  0  0 
M  END 
>  <HBA> 
3 
 
>  <HBD> 
1 
 
>  <TPSA> 
38.33 
 
>  <cid> 
4158 
 
>  <dipole> 
1.89 
 
>  <excitation_energy_1> 
4.719 
 
>  <excitation_energy_2> 
4.959 
 
>  <excitation_energy_3> 
5.209 
 
>  <excitation_energy_4> 
5.281 
 
>  <homo_energy> 
-5.733 
 
>  <homo_lumo_gap> 
5.597 
 
>  <logP> 
2.414 
 
>  <lumo_energy> 
-0.136 
 
>  <melting_point> 
64.7 
 
>  <molecular_refractivity> 
70.94 
 
>  <oscillator_strength_1> 
0.0056 
 
>  <oscillator_strength_2> 
0.007 
 
>  <oscillator_strength_3> 
0.0074 
 
>  <oscillator_strength_4> 
0.0024 
 
>  <open_babel_can_smiles> 
COC(=O)[C@@H](c1ccccc1)[C@H]1CCCCN1 
 
>  <mulliken_charges> 
36 
1   -0.220646 
2   -0.127465 
3   -0.132716 
4   -0.129869 
5   -0.264123 
6   -0.26128 
7   -0.175673 
8   -0.181153 
9   -0.273869 
10   -0.1424 
11   0.193725 
12   0.047416 
13   -0.286716 
14   0.64341 
15   -0.53837 
16   -0.493264 
17   -0.455436 
18   0.169592 
19   0.165267 
20   0.173461 
21   0.126383 
22   0.128595 
23   0.126295 
24   0.134891 
25   0.133575 
26   0.122343 
27   0.130211 
28   0.150966 
29   0.119199 
30   0.147758 
31   0.117429 
32   0.138286 
33   0.140528 
34   0.149286 
35   0.144054 
36   0.280309 
 
>  <lowdin_charges> 
36 
1   -0.282754 
2   -0.157036 
3   -0.153482 
4   -0.156506 
5   -0.275728 
6   -0.291914 
7   -0.161251 
8   -0.162734 
9   -0.299588 
10   -0.208263 
11   0.011589 
12   -0.06279 
13   -0.14937 
14   0.199602 
15   -0.350999 
16   -0.271377 
17   -0.184121 
18   0.16009 
19   0.162262 
20   0.162445 
21   0.155222 
22   0.156983 
23   0.156953 
24   0.139889 
25   0.144013 
26   0.133358 
27   0.14317 
28   0.167513 
29   0.152198 
30   0.154271 
31   0.13252 
32   0.147011 
33   0.140899 
34   0.148187 
35   0.15584 
36   0.243897 
 
$$$$ 
 
