PCCDB-ID:  2944 
public computational chemistry database (PCCDB) project, http://pccdb.org 
 
 15 15  0  0  0  0  0  0  0  0999 V2000 
   -0.7247    1.2289    0.0142 C   0  0  0  0  0  0  0  0  0  0  0  0 
   -1.4093    0.0404    0.0323 C   0  0  0  0  0  0  0  0  0  0  0  0 
    0.7055    1.1275   -0.0053 C   0  0  0  0  0  0  0  0  0  0  0  0 
    0.7370   -1.1834   -0.0299 C   0  0  0  0  0  0  0  0  0  0  0  0 
   -2.7822   -0.0766    0.1354 N   0  0  0  0  0  0  0  0  0  0  0  0 
    1.3792   -2.2934   -0.0489 N   0  0  0  0  0  0  0  0  0  0  0  0 
   -0.7013   -1.1251   -0.0030 N   0  0  0  0  0  0  0  0  0  0  0  0 
    1.3915    0.0271   -0.0324 N   0  0  0  0  0  0  0  0  0  0  0  0 
    1.4415    2.2680   -0.0083 O   0  0  0  0  0  0  0  0  0  0  0  0 
   -1.2487    2.1777    0.0000 H   0  0  0  0  0  0  0  0  0  0  0  0 
   -3.2892    0.7889    0.0001 H   0  0  0  0  0  0  0  0  0  0  0  0 
   -3.2008   -0.8454   -0.3757 H   0  0  0  0  0  0  0  0  0  0  0  0 
    0.7389   -3.0918   -0.0516 H   0  0  0  0  0  0  0  0  0  0  0  0 
   -1.1931   -1.9945    0.1584 H   0  0  0  0  0  0  0  0  0  0  0  0 
    0.8450    3.0312    0.0350 H   0  0  0  0  0  0  0  0  0  0  0  0 
  1  2  2  0  0  0  0 
  2  5  1  0  0  0  0 
  3  1  1  0  0  0  0 
  4  7  1  0  0  0  0 
  6  4  1  0  0  0  0 
  7  2  1  0  0  0  0 
  7 14  1  0  0  0  0 
  8  4  2  0  0  0  0 
  8  3  2  0  0  0  0 
  9  3  1  0  0  0  0 
  9 15  1  0  0  0  0 
 10  1  1  0  0  0  0 
 11  5  1  0  0  0  0 
 12  5  1  0  0  0  0 
 13  6  1  0  0  0  0 
M  RAD  1   6   2 
M  END 
>  <HBA> 
4 
 
>  <HBD> 
3 
 
>  <TPSA> 
97.79 
 
>  <cid> 
2944 
 
>  <dipole> 
8.98 
 
>  <excitation_energy_1> 
4.121 
 
>  <excitation_energy_2> 
4.248 
 
>  <excitation_energy_3> 
4.816 
 
>  <excitation_energy_4> 
5.008 
 
>  <homo_energy> 
-5.407 
 
>  <homo_lumo_gap> 
4.993 
 
>  <logP> 
0.097 
 
>  <lumo_energy> 
-0.414 
 
>  <melting_point> 
200.85 
 
>  <molecular_refractivity> 
33.67 
 
>  <oscillator_strength_1> 
0.0238 
 
>  <oscillator_strength_2> 
0.0298 
 
>  <oscillator_strength_3> 
0.0046 
 
>  <oscillator_strength_4> 
0.0027 
 
>  <open_babel_can_smiles> 
NC1=CC(=[N]=C(N1)[NH])O 
 
>  <mulliken_charges> 
15 
1   -0.31491 
2   0.59672 
3   0.533634 
4   0.605753 
5   -0.783624 
6   -0.625409 
7   -0.705302 
8   -0.492413 
9   -0.592835 
10   0.118618 
11   0.343323 
12   0.334222 
13   0.250059 
14   0.324242 
15   0.407922 
 
>  <lowdin_charges> 
15 
1   -0.347623 
2   0.144479 
3   0.162823 
4   0.130487 
5   -0.47145 
6   -0.437456 
7   -0.255628 
8   -0.200442 
9   -0.345063 
10   0.160136 
11   0.291461 
12   0.287007 
13   0.236853 
14   0.28719 
15   0.357227 
 
$$$$ 
 
