PCCDB-ID:  6040 
public computational chemistry database (PCCDB) project, http://pccdb.org 
 
 36 38  0  0  1  0  0  0  0  0999 V2000 
    0.2967    1.4116    0.4367 C   0  0  0  0  0  0  0  0  0  0  0  0 
    1.7156   -8.4921    1.6646 C   0  0  0  0  0  0  0  0  0  0  0  0 
    1.8270   -7.8191    2.8845 C   0  0  0  0  0  0  0  0  0  0  0  0 
    1.5246    0.4993    0.5868 C   0  0  0  0  0  0  0  0  0  0  0  0 
   -1.0002    0.6062    0.6134 C   0  0  0  0  0  0  0  0  0  0  0  0 
    1.2960   -7.8064    0.5257 C   0  0  0  0  0  0  0  0  0  0  0  0 
    1.5373   -6.4574    2.9581 C   0  0  0  0  0  0  0  0  0  0  0  0 
    1.4141   -0.7224   -0.3455 C   0  0  0  0  0  0  0  0  0  0  0  0 
   -1.0032   -0.6115   -0.3273 C   0  0  0  0  0  0  0  0  0  0  0  0 
    0.1481   -2.3565    0.9928 C   0  0  0  0  0  0  0  0  0  0  0  0 
   -0.0436   -4.5432   -0.3044 C   0  0  0  0  0  0  0  0  0  0  0  0 
    0.7724   -3.7197    0.6822 C   0  0  2  0  0  0  0  0  0  0  0  0 
    0.9944   -6.4456    0.5964 C   0  0  0  0  0  0  0  0  0  0  0  0 
    1.1285   -5.7641    1.8182 C   0  0  0  0  0  0  0  0  0  0  0  0 
    0.1673   -1.4867   -0.1838 N   0  0  0  0  0  0  0  0  0  0  0  0 
    0.5797   -5.8052   -0.5456 O   0  0  0  0  0  0  0  0  0  0  0  0 
    0.8636   -4.4197    1.9310 O   0  0  0  0  0  0  0  0  0  0  0  0 
    0.3043    1.8643   -0.5665 H   0  0  0  0  0  0  0  0  0  0  0  0 
    0.3413    2.2402    1.1542 H   0  0  0  0  0  0  0  0  0  0  0  0 
    1.9467   -9.5514    1.5993 H   0  0  0  0  0  0  0  0  0  0  0  0 
    2.1465   -8.3496    3.7768 H   0  0  0  0  0  0  0  0  0  0  0  0 
    1.6067    0.1632    1.6297 H   0  0  0  0  0  0  0  0  0  0  0  0 
    2.4478    1.0495    0.3633 H   0  0  0  0  0  0  0  0  0  0  0  0 
   -1.8781    1.2337    0.4111 H   0  0  0  0  0  0  0  0  0  0  0  0 
   -1.0881    0.2672    1.6555 H   0  0  0  0  0  0  0  0  0  0  0  0 
    1.1889   -8.3060   -0.4325 H   0  0  0  0  0  0  0  0  0  0  0  0 
    1.6272   -5.9061    3.8894 H   0  0  0  0  0  0  0  0  0  0  0  0 
    2.2642   -1.3979   -0.1987 H   0  0  0  0  0  0  0  0  0  0  0  0 
    1.4597   -0.3835   -1.3905 H   0  0  0  0  0  0  0  0  0  0  0  0 
   -1.0194   -0.2561   -1.3684 H   0  0  0  0  0  0  0  0  0  0  0  0 
   -1.9075   -1.2142   -0.1856 H   0  0  0  0  0  0  0  0  0  0  0  0 
    0.6701   -1.9401    1.8696 H   0  0  0  0  0  0  0  0  0  0  0  0 
   -0.8911   -2.5187    1.3020 H   0  0  0  0  0  0  0  0  0  0  0  0 
   -0.1090   -4.0334   -1.2664 H   0  0  0  0  0  0  0  0  0  0  0  0 
   -1.0571   -4.6997    0.0947 H   0  0  0  0  0  0  0  0  0  0  0  0 
    1.7868   -3.5945    0.2757 H   0  0  0  0  0  0  0  0  0  0  0  0 
  1  4  1  0  0  0  0 
  1  5  1  0  0  0  0 
  1 19  1  0  0  0  0 
  2  3  2  0  0  0  0 
  3  7  1  0  0  0  0 
  3 21  1  0  0  0  0 
  4 22  1  0  0  0  0 
  5 25  1  0  0  0  0 
  6 13  2  0  0  0  0 
  6  2  1  0  0  0  0 
  7 27  1  0  0  0  0 
  8 28  1  0  0  0  0 
  8 15  1  0  0  0  0 
  8  4  1  0  0  0  0 
  9 31  1  0  0  0  0 
  9 15  1  0  0  0  0 
  9  5  1  0  0  0  0 
 10 33  1  0  0  0  0 
 10 32  1  0  0  0  0 
 11 35  1  0  0  0  0 
 11 12  1  0  0  0  0 
 12 36  1  6  0  0  0 
 12 10  1  0  0  0  0 
 12 17  1  0  0  0  0 
 13 14  1  0  0  0  0 
 14 17  1  0  0  0  0 
 14  7  2  0  0  0  0 
 15 10  1  0  0  0  0 
 16 11  1  0  0  0  0 
 16 13  1  0  0  0  0 
 18  1  1  0  0  0  0 
 20  2  1  0  0  0  0 
 23  4  1  0  0  0  0 
 24  5  1  0  0  0  0 
 26  6  1  0  0  0  0 
 29  8  1  0  0  0  0 
 30  9  1  0  0  0  0 
 34 11  1  0  0  0  0 
M  END 
>  <HBA> 
3 
 
>  <HBD> 
0 
 
>  <TPSA> 
21.7 
 
>  <cid> 
6040 
 
>  <dipole> 
2.6 
 
>  <excitation_energy_1> 
4.874 
 
>  <excitation_energy_2> 
5.053 
 
>  <excitation_energy_3> 
5.233 
 
>  <excitation_energy_4> 
5.273 
 
>  <homo_energy> 
-5.521 
 
>  <homo_lumo_gap> 
5.81 
 
>  <logP> 
2.25 
 
>  <lumo_energy> 
0.288 
 
>  <melting_point> 
58.34 
 
>  <molecular_refractivity> 
70.85 
 
>  <oscillator_strength_1> 
0.0543 
 
>  <oscillator_strength_2> 
0.0145 
 
>  <oscillator_strength_3> 
0.0065 
 
>  <oscillator_strength_4> 
0.0006 
 
>  <open_babel_can_smiles> 
C1CCN(CC1)C[C@@H]1COc2c(O1)cccc2 
 
>  <mulliken_charges> 
36 
1   -0.259291 
2   -0.138375 
3   -0.138294 
4   -0.266937 
5   -0.264773 
6   -0.192045 
7   -0.193633 
8   -0.150152 
9   -0.145241 
10   -0.162777 
11   -0.04643 
12   0.118918 
13   0.33095 
14   0.333026 
15   -0.384783 
16   -0.528266 
17   -0.549657 
18   0.129373 
19   0.136231 
20   0.125336 
21   0.125076 
22   0.137554 
23   0.134558 
24   0.13311 
25   0.135875 
26   0.136834 
27   0.134718 
28   0.141832 
29   0.139546 
30   0.137054 
31   0.13835 
32   0.145057 
33   0.146278 
34   0.171854 
35   0.142097 
36   0.147026 
 
>  <lowdin_charges> 
36 
1   -0.278169 
2   -0.165587 
3   -0.168876 
4   -0.293264 
5   -0.294117 
6   -0.177335 
7   -0.179007 
8   -0.206562 
9   -0.203984 
10   -0.206727 
11   -0.140374 
12   -0.01333 
13   0.05932 
14   0.062764 
15   -0.190685 
16   -0.206999 
17   -0.212451 
18   0.137349 
19   0.146095 
20   0.155537 
21   0.157734 
22   0.140191 
23   0.147677 
24   0.147021 
25   0.139788 
26   0.166055 
27   0.165372 
28   0.146638 
29   0.14125 
30   0.139193 
31   0.14495 
32   0.140036 
33   0.150157 
34   0.167913 
35   0.140736 
36   0.141692 
 
$$$$ 
 
