PCCDB-ID:  5542 
public computational chemistry database (PCCDB) project, http://pccdb.org 
 
 32 31  0  0  0  0  0  0  0  0999 V2000 
    2.0510    2.2467   -2.9744 C   0  0  0  0  0  0  0  0  0  0  0  0 
    3.5164    2.3269   -2.5365 C   0  0  0  0  0  0  0  0  0  0  0  0 
    3.9471    1.1324   -1.6628 C   0  0  0  0  0  0  0  0  0  0  0  0 
    5.3985    1.1838   -1.2707 C   0  0  0  0  0  0  0  0  0  0  0  0 
    5.8592    1.2579   -0.0199 C   0  0  0  0  0  0  0  0  0  0  0  0 
    7.3219    1.3177    0.3615 C   0  0  0  0  0  0  0  0  0  0  0  0 
    7.6643    2.5726    1.1186 C   0  0  0  0  0  0  0  0  0  0  0  0 
    8.6019    3.4689    0.7536 C   0  0  0  0  0  0  0  0  0  0  0  0 
    8.8994    4.6626    1.5085 C   0  0  0  0  0  0  0  0  0  0  0  0 
    9.8389    5.5754    1.1567 C   0  0  0  0  0  0  0  0  0  0  0  0 
   10.1383    6.7734    1.9136 C   0  0  0  0  0  0  0  0  0  0  0  0 
    9.5181    7.0764    3.0094 N   0  0  0  0  0  0  0  0  0  0  0  0 
   10.0101    8.2785    3.5203 N   0  0  0  0  0  0  0  0  0  0  0  0 
    9.3992    8.5442    4.5733 N   0  0  0  0  0  0  0  0  0  0  0  0 
    9.9071    9.7442    5.0629 O   0  0  0  0  0  0  0  0  0  0  0  0 
    1.7733    3.1057   -3.5956 H   0  0  0  0  0  0  0  0  0  0  0  0 
    1.3780    2.2309   -2.1083 H   0  0  0  0  0  0  0  0  0  0  0  0 
    1.8601    1.3375   -3.5579 H   0  0  0  0  0  0  0  0  0  0  0  0 
    3.6897    3.2565   -1.9787 H   0  0  0  0  0  0  0  0  0  0  0  0 
    4.1638    2.3773   -3.4232 H   0  0  0  0  0  0  0  0  0  0  0  0 
    3.7518    0.2041   -2.2223 H   0  0  0  0  0  0  0  0  0  0  0  0 
    3.3194    1.0905   -0.7625 H   0  0  0  0  0  0  0  0  0  0  0  0 
    6.1158    1.1688   -2.0948 H   0  0  0  0  0  0  0  0  0  0  0  0 
    5.1486    1.2811    0.8086 H   0  0  0  0  0  0  0  0  0  0  0  0 
    7.9493    1.2355   -0.5339 H   0  0  0  0  0  0  0  0  0  0  0  0 
    7.5604    0.4490    0.9983 H   0  0  0  0  0  0  0  0  0  0  0  0 
    7.0922    2.7577    2.0293 H   0  0  0  0  0  0  0  0  0  0  0  0 
    9.1776    3.2986   -0.1571 H   0  0  0  0  0  0  0  0  0  0  0  0 
    8.3304    4.8379    2.4203 H   0  0  0  0  0  0  0  0  0  0  0  0 
   10.4223    5.4241    0.2506 H   0  0  0  0  0  0  0  0  0  0  0  0 
   10.9202    7.4379    1.5332 H   0  0  0  0  0  0  0  0  0  0  0  0 
    9.3792    9.8667    5.8699 H   0  0  0  0  0  0  0  0  0  0  0  0 
  1  2  1  0  0  0  0 
  1 17  1  0  0  0  0 
  2 19  1  0  0  0  0 
  2  3  1  0  0  0  0 
  3  4  1  0  0  0  0 
  3 22  1  0  0  0  0 
  4  5  2  0  0  0  0 
  5  6  1  0  0  0  0 
  5 24  1  0  0  0  0 
  6 26  1  0  0  0  0 
  6  7  1  0  0  0  0 
  7 27  1  0  0  0  0 
  8  7  2  0  0  0  0 
  8  9  1  0  0  0  0 
  9 29  1  0  0  0  0 
 10  9  1  0  0  0  0 
 10 11  2  0  0  0  0 
 11 12  1  0  0  0  0 
 12 13  1  0  0  0  0 
 13 14  1  0  0  0  0 
 14 15  1  0  0  0  0 
 15 32  1  0  0  0  0 
 16  1  1  0  0  0  0 
 18  1  1  0  0  0  0 
 20  2  1  0  0  0  0 
 21  3  1  0  0  0  0 
 23  4  1  0  0  0  0 
 25  6  1  0  0  0  0 
 28  8  1  0  0  0  0 
 30 10  1  0  0  0  0 
 31 11  1  0  0  0  0 
M  RAD  4   9   2  12   2  13   2  14   2 
M  END 
>  <HBA> 
4 
 
>  <HBD> 
1 
 
>  <TPSA> 
53.82 
 
>  <cid> 
5542 
 
>  <dipole> 
3.08 
 
>  <excitation_energy_1> 
3.333 
 
>  <excitation_energy_2> 
3.748 
 
>  <excitation_energy_3> 
3.988 
 
>  <excitation_energy_4> 
4.796 
 
>  <homo_energy> 
-5.954 
 
>  <homo_lumo_gap> 
3.804 
 
>  <logP> 
3.493 
 
>  <lumo_energy> 
-2.15 
 
>  <melting_point> 
63.58 
 
>  <molecular_refractivity> 
64.79 
 
>  <oscillator_strength_1> 
0.0002 
 
>  <oscillator_strength_2> 
1.0467 
 
>  <oscillator_strength_3> 
0.0786 
 
>  <oscillator_strength_4> 
0.018 
 
>  <open_babel_can_smiles> 
CCC/C=C/C/C=C/[CH]/C=C\[N][N][N]O 
 
>  <mulliken_charges> 
32 
1   -0.442279 
2   -0.247526 
3   -0.296752 
4   -0.085428 
5   -0.09807 
6   -0.356588 
7   -0.092438 
8   -0.104635 
9   -0.08142 
10   -0.174976 
11   0.097945 
12   -0.279007 
13   -0.076535 
14   0.042812 
15   -0.464119 
16   0.145498 
17   0.143342 
18   0.142164 
19   0.141615 
20   0.132514 
21   0.139357 
22   0.13634 
23   0.117276 
24   0.121534 
25   0.149416 
26   0.161164 
27   0.138562 
28   0.127097 
29   0.167207 
30   0.13316 
31   0.145318 
32   0.417453 
 
>  <lowdin_charges> 
32 
1   -0.446113 
2   -0.271339 
3   -0.270782 
4   -0.161068 
5   -0.171332 
6   -0.267826 
7   -0.124442 
8   -0.167279 
9   -0.096868 
10   -0.19507 
11   -0.069741 
12   -0.12743 
13   -0.071042 
14   0.005589 
15   -0.347835 
16   0.152095 
17   0.147797 
18   0.146945 
19   0.14465 
20   0.140379 
21   0.147018 
22   0.145216 
23   0.14668 
24   0.148875 
25   0.154145 
26   0.161339 
27   0.156643 
28   0.1538 
29   0.173868 
30   0.159159 
31   0.149784 
32   0.354183 
 
$$$$ 
 
