PCCDB-ID:  241 
public computational chemistry database (PCCDB) project, http://pccdb.org 
 
 12 12  0  0  0  0  0  0  0  0999 V2000 
   -0.7610    1.1707   -0.0003 C   0  0  0  0  0  0  0  0  0  0  0  0 
   -1.3926   -0.0750   -0.0001 C   0  0  0  0  0  0  0  0  0  0  0  0 
    0.6335    1.2464   -0.0002 C   0  0  0  0  0  0  0  0  0  0  0  0 
   -0.6296   -1.2448    0.0014 C   0  0  0  0  0  0  0  0  0  0  0  0 
    1.3965    0.0766    0.0014 C   0  0  0  0  0  0  0  0  0  0  0  0 
    0.7649   -1.1691    0.0015 C   0  0  0  0  0  0  0  0  0  0  0  0 
   -1.3549    2.0811   -0.0013 H   0  0  0  0  0  0  0  0  0  0  0  0 
   -2.4780   -0.1341    0.0002 H   0  0  0  0  0  0  0  0  0  0  0  0 
    1.1252    2.2159    0.0000 H   0  0  0  0  0  0  0  0  0  0  0  0 
   -1.1213   -2.2143    0.0017 H   0  0  0  0  0  0  0  0  0  0  0  0 
    2.4819    0.1358    0.0015 H   0  0  0  0  0  0  0  0  0  0  0  0 
    1.3588   -2.0795    0.0029 H   0  0  0  0  0  0  0  0  0  0  0  0 
  1  3  2  0  0  0  0 
  1  2  1  0  0  0  0 
  2  8  1  0  0  0  0 
  2  4  2  0  0  0  0 
  3  9  1  0  0  0  0 
  3  5  1  0  0  0  0 
  4  6  1  0  0  0  0 
  4 10  1  0  0  0  0 
  5  6  2  0  0  0  0 
  5 11  1  0  0  0  0 
  6 12  1  0  0  0  0 
  7  1  1  0  0  0  0 
M  END 
>  <HBA> 
0 
 
>  <HBD> 
0 
 
>  <TPSA> 
0.0 
 
>  <cid> 
241 
 
>  <dipole> 
0.0 
 
>  <excitation_energy_1> 
5.41 
 
>  <excitation_energy_2> 
6.077 
 
>  <excitation_energy_3> 
6.349 
 
>  <excitation_energy_4> 
6.35 
 
>  <homo_energy> 
-6.702 
 
>  <homo_lumo_gap> 
6.8 
 
>  <logP> 
1.687 
 
>  <lumo_energy> 
0.098 
 
>  <melting_point> 
2.31 
 
>  <molecular_refractivity> 
26.44 
 
>  <oscillator_strength_1> 
0.0 
 
>  <oscillator_strength_2> 
0.0 
 
>  <oscillator_strength_3> 
0.0 
 
>  <oscillator_strength_4> 
0.0 
 
>  <open_babel_can_smiles> 
c1ccccc1 
 
>  <mulliken_charges> 
12 
1   -0.128563 
2   -0.128576 
3   -0.128537 
4   -0.128538 
5   -0.128514 
6   -0.128653 
7   0.128602 
8   0.128562 
9   0.12852 
10   0.128546 
11   0.12855 
12   0.1286 
 
>  <lowdin_charges> 
12 
1   -0.157693 
2   -0.154119 
3   -0.156921 
4   -0.156921 
5   -0.154117 
6   -0.1577 
7   0.157299 
8   0.154738 
9   0.156697 
10   0.156698 
11   0.154738 
12   0.157301 
 
$$$$ 
 
