PCCDB-ID:  328 
public computational chemistry database (PCCDB) project, http://pccdb.org 
 
 20 20  0  0  1  0  0  0  0  0999 V2000 
   -0.7867    0.8637    0.1108 C   0  0  0  0  0  0  0  0  0  0  0  0 
    1.0448   -0.4051   -0.8042 C   0  0  0  0  0  0  0  0  0  0  0  0 
   -1.4988   -0.3145    0.3261 C   0  0  0  0  0  0  0  0  0  0  0  0 
    0.3413   -1.5869   -0.6026 C   0  0  0  0  0  0  0  0  0  0  0  0 
    0.4895    0.8366   -0.4579 C   0  0  0  0  0  0  0  0  0  0  0  0 
   -0.9362   -1.5447   -0.0313 C   0  0  0  0  0  0  0  0  0  0  0  0 
    1.2717    2.1182   -0.6645 C   0  0  1  0  0  0  0  0  0  0  0  0 
    2.3161    2.3087    0.4574 C   0  0  0  0  0  0  0  0  0  0  0  0 
   -1.5829   -2.7331    0.1459 O   0  0  0  0  0  0  0  0  0  0  0  0 
    1.9852    2.1356   -1.9089 O   0  0  0  0  0  0  0  0  0  0  0  0 
    2.0001    2.5716    1.5902 O   0  0  0  0  0  0  0  0  0  0  0  0 
    3.5909    2.1293    0.0689 O   0  0  0  0  0  0  0  0  0  0  0  0 
   -1.2300    1.8143    0.3948 H   0  0  0  0  0  0  0  0  0  0  0  0 
    2.0415   -0.4479   -1.2355 H   0  0  0  0  0  0  0  0  0  0  0  0 
   -2.4929   -0.2774    0.7677 H   0  0  0  0  0  0  0  0  0  0  0  0 
    0.7663   -2.5492   -0.8690 H   0  0  0  0  0  0  0  0  0  0  0  0 
    0.5927    2.9779   -0.6030 H   0  0  0  0  0  0  0  0  0  0  0  0 
   -2.4391   -2.5695    0.5714 H   0  0  0  0  0  0  0  0  0  0  0  0 
    1.4607    1.6513   -2.5657 H   0  0  0  0  0  0  0  0  0  0  0  0 
    3.5718    1.9927   -0.9016 H   0  0  0  0  0  0  0  0  0  0  0  0 
  1  3  1  0  0  0  0 
  1 13  1  0  0  0  0 
  2  4  2  0  0  0  0 
  2  5  1  0  0  0  0 
  3 15  1  0  0  0  0 
  4  6  1  0  0  0  0 
  5  1  2  0  0  0  0 
  6  9  1  0  0  0  0 
  6  3  2  0  0  0  0 
  7 17  1  1  0  0  0 
  7  5  1  0  0  0  0 
  7  8  1  0  0  0  0 
  8 11  2  0  0  0  0 
  9 18  1  0  0  0  0 
 10  7  1  0  0  0  0 
 12  8  1  0  0  0  0 
 14  2  1  0  0  0  0 
 16  4  1  0  0  0  0 
 19 10  1  0  0  0  0 
 20 12  1  0  0  0  0 
M  END 
>  <HBA> 
4 
 
>  <HBD> 
3 
 
>  <TPSA> 
77.76 
 
>  <cid> 
328 
 
>  <dipole> 
5.12 
 
>  <excitation_energy_1> 
4.917 
 
>  <excitation_energy_2> 
5.302 
 
>  <excitation_energy_3> 
5.397 
 
>  <excitation_energy_4> 
5.57 
 
>  <homo_energy> 
-6.335 
 
>  <homo_lumo_gap> 
5.785 
 
>  <logP> 
0.51 
 
>  <lumo_energy> 
-0.55 
 
>  <melting_point> 
143.24 
 
>  <molecular_refractivity> 
41.17 
 
>  <oscillator_strength_1> 
0.0244 
 
>  <oscillator_strength_2> 
0.1315 
 
>  <oscillator_strength_3> 
0.0126 
 
>  <oscillator_strength_4> 
0.0223 
 
>  <open_babel_can_smiles> 
OC(=O)[C@H](c1ccc(cc1)O)O 
 
>  <mulliken_charges> 
20 
1   -0.175677 
2   -0.189853 
3   -0.19352 
4   -0.154438 
5   0.11985 
6   0.355761 
7   -0.028305 
8   0.603238 
9   -0.636438 
10   -0.657877 
11   -0.453131 
12   -0.573447 
13   0.144882 
14   0.137327 
15   0.128715 
16   0.148969 
17   0.165749 
18   0.411449 
19   0.409508 
20   0.437237 
 
>  <lowdin_charges> 
20 
1   -0.140241 
2   -0.153126 
3   -0.205225 
4   -0.179288 
5   -0.050708 
6   0.107736 
7   -0.033778 
8   0.178731 
9   -0.370048 
10   -0.466044 
11   -0.243053 
12   -0.344453 
13   0.166055 
14   0.160394 
15   0.157445 
16   0.171779 
17   0.161792 
18   0.360449 
19   0.358242 
20   0.363339 
 
$$$$ 
 
