PCCDB-ID:  4644 
public computational chemistry database (PCCDB) project, http://pccdb.org 
 
 15 16  0  0  0  0  0  0  0  0999 V2000 
   -1.6155    1.0775    0.1485 C   0  0  0  0  0  0  0  0  0  0  0  0 
   -0.2992    0.7607   -0.0096 C   0  0  0  0  0  0  0  0  0  0  0  0 
   -0.2193   -0.6842   -0.1012 C   0  0  0  0  0  0  0  0  0  0  0  0 
    0.9989    1.4105   -0.0159 C   0  0  0  0  0  0  0  0  0  0  0  0 
    2.0642   -0.7010   -0.1145 C   0  0  0  0  0  0  0  0  0  0  0  0 
   -2.3754   -0.0696    0.2271 N   0  0  0  0  0  0  0  0  0  0  0  0 
    0.8371   -1.4158   -0.1360 N   0  0  0  0  0  0  0  0  0  0  0  0 
    2.0825    0.7313   -0.0736 N   0  0  0  0  0  0  0  0  0  0  0  0 
   -1.5348   -1.1541   -0.1166 N   0  0  0  0  0  0  0  0  0  0  0  0 
    1.0989    2.7627    0.0342 O   0  0  0  0  0  0  0  0  0  0  0  0 
    3.1190   -1.3000   -0.1334 O   0  0  0  0  0  0  0  0  0  0  0  0 
   -2.1195    2.0333    0.2272 H   0  0  0  0  0  0  0  0  0  0  0  0 
   -3.2707   -0.0875   -0.2556 H   0  0  0  0  0  0  0  0  0  0  0  0 
   -1.7365   -2.0139    0.3847 H   0  0  0  0  0  0  0  0  0  0  0  0 
    0.2142    3.1593    0.0522 H   0  0  0  0  0  0  0  0  0  0  0  0 
  1  6  1  0  0  0  0 
  1 12  1  0  0  0  0 
  2  1  1  0  0  0  0 
  3  2  2  0  0  0  0 
  4  2  1  0  0  0  0 
  4 10  1  0  0  0  0 
  5  8  1  0  0  0  0 
  7  5  2  0  0  0  0 
  7  3  1  0  0  0  0 
  8  4  2  0  0  0  0 
  9  3  1  0  0  0  0 
  9  6  1  0  0  0  0 
  9 14  1  0  0  0  0 
 10 15  1  0  0  0  0 
 11  5  2  0  0  0  0 
 13  6  1  0  0  0  0 
M  RAD  1   1   2 
M  END 
>  <HBA> 
3 
 
>  <HBD> 
3 
 
>  <TPSA> 
94.4 
 
>  <cid> 
4644 
 
>  <dipole> 
11.85 
 
>  <excitation_energy_1> 
3.345 
 
>  <excitation_energy_2> 
3.559 
 
>  <excitation_energy_3> 
3.898 
 
>  <excitation_energy_4> 
4.755 
 
>  <homo_energy> 
-6.359 
 
>  <homo_lumo_gap> 
4.155 
 
>  <logP> 
-1.06 
 
>  <lumo_energy> 
-2.204 
 
>  <melting_point> 
275.87 
 
>  <molecular_refractivity> 
37.34 
 
>  <oscillator_strength_1> 
0.0 
 
>  <oscillator_strength_2> 
0.0022 
 
>  <oscillator_strength_3> 
0.2028 
 
>  <oscillator_strength_4> 
0.0797 
 
>  <open_babel_can_smiles> 
O=[C]1=NC2=C(C(=N1)O)[CH]NN2 
 
>  <mulliken_charges> 
15 
1   -0.001141 
2   0.020564 
3   0.521266 
4   0.491409 
5   0.618508 
6   -0.410871 
7   -0.542197 
8   -0.485347 
9   -0.496827 
10   -0.58 
11   -0.456599 
12   0.185815 
13   0.363193 
14   0.365762 
15   0.406464 
 
>  <lowdin_charges> 
15 
1   -0.081734 
2   -0.119341 
3   0.092696 
4   0.147742 
5   0.17373 
6   -0.171853 
7   -0.224302 
8   -0.185315 
9   -0.197477 
10   -0.3391 
11   -0.236174 
12   0.181533 
13   0.299321 
14   0.304831 
15   0.355442 
 
$$$$ 
 
