PCCDB-ID:  682 
public computational chemistry database (PCCDB) project, http://pccdb.org 
 
 23 23  0  0  1  0  0  0  0  0999 V2000 
   -0.8893    0.5067   -1.4211 C   0  0  0  0  0  0  0  0  0  0  0  0 
   -0.7036   -0.7809   -1.7794 C   0  0  0  0  0  0  0  0  0  0  0  0 
   -1.0343    2.4368    0.2612 C   0  0  0  0  0  0  0  0  0  0  0  0 
   -0.5386    0.0909    0.9752 C   0  0  0  0  0  0  0  0  0  0  0  0 
   -0.8051    0.9697   -0.0236 C   0  0  0  0  0  0  0  0  0  0  0  0 
   -2.5326    2.8226    0.4047 C   0  0  1  0  0  0  0  0  0  0  0  0 
   -0.4106   -1.8130   -0.7701 C   0  0  0  0  0  0  0  0  0  0  0  0 
   -0.3306   -1.3414    0.7123 C   0  0  0  0  0  0  0  0  0  0  0  0 
   -3.2382    2.7351   -0.9745 C   0  0  0  0  0  0  0  0  0  0  0  0 
   -3.1478    2.1058    1.5038 N   0  0  0  0  0  0  0  0  0  0  0  0 
   -0.2365   -2.9863   -1.0486 O   0  0  0  0  0  0  0  0  0  0  0  0 
   -0.1076   -2.1498    1.5976 O   0  0  0  0  0  0  0  0  0  0  0  0 
   -2.7743    3.2312   -1.9746 O   0  0  0  0  0  0  0  0  0  0  0  0 
   -4.4168    2.0827   -0.9881 O   0  0  0  0  0  0  0  0  0  0  0  0 
   -1.1087    1.2559   -2.1768 H   0  0  0  0  0  0  0  0  0  0  0  0 
   -0.7590   -1.1057   -2.8142 H   0  0  0  0  0  0  0  0  0  0  0  0 
   -0.6161    3.0457   -0.5460 H   0  0  0  0  0  0  0  0  0  0  0  0 
   -0.5397    2.7111    1.1965 H   0  0  0  0  0  0  0  0  0  0  0  0 
   -0.4575    0.4103    2.0109 H   0  0  0  0  0  0  0  0  0  0  0  0 
   -2.5497    3.8894    0.6597 H   0  0  0  0  0  0  0  0  0  0  0  0 
   -3.1361    1.0944    1.4499 H   0  0  0  0  0  0  0  0  0  0  0  0 
   -4.0081    2.4843    1.8783 H   0  0  0  0  0  0  0  0  0  0  0  0 
   -4.5721    1.7551   -0.0807 H   0  0  0  0  0  0  0  0  0  0  0  0 
  1  5  1  0  0  0  0 
  2  1  2  0  0  0  0 
  2  7  1  0  0  0  0 
  3  6  1  0  0  0  0 
  3 18  1  0  0  0  0 
  4 19  1  0  0  0  0 
  5  3  1  0  0  0  0 
  5  4  2  0  0  0  0 
  6 20  1  1  0  0  0 
  6 10  1  0  0  0  0 
  7  8  1  0  0  0  0 
  8  4  1  0  0  0  0 
  8 12  2  0  0  0  0 
  9  6  1  0  0  0  0 
 10 22  1  0  0  0  0 
 11  7  2  0  0  0  0 
 13  9  2  0  0  0  0 
 14  9  1  0  0  0  0 
 14 23  1  0  0  0  0 
 15  1  1  0  0  0  0 
 16  2  1  0  0  0  0 
 17  3  1  0  0  0  0 
 21 10  1  0  0  0  0 
M  END 
>  <HBA> 
5 
 
>  <HBD> 
2 
 
>  <TPSA> 
97.46 
 
>  <cid> 
682 
 
>  <dipole> 
5.18 
 
>  <excitation_energy_1> 
1.815 
 
>  <excitation_energy_2> 
2.866 
 
>  <excitation_energy_3> 
3.058 
 
>  <excitation_energy_4> 
3.088 
 
>  <homo_energy> 
-6.77 
 
>  <homo_lumo_gap> 
3.181 
 
>  <logP> 
0.123 
 
>  <lumo_energy> 
-3.589 
 
>  <melting_point> 
191.21 
 
>  <molecular_refractivity> 
47.19 
 
>  <oscillator_strength_1> 
0.0 
 
>  <oscillator_strength_2> 
0.0083 
 
>  <oscillator_strength_3> 
0.0184 
 
>  <oscillator_strength_4> 
0.0182 
 
>  <open_babel_can_smiles> 
OC(=O)[C@H](CC1=CC(=O)C(=O)C=C1)N 
 
>  <mulliken_charges> 
23 
1   -0.164083 
2   -0.173458 
3   -0.342001 
4   -0.258279 
5   0.142734 
6   -0.070325 
7   0.381623 
8   0.388269 
9   0.59087 
10   -0.757595 
11   -0.420288 
12   -0.427276 
13   -0.459505 
14   -0.555869 
15   0.190451 
16   0.16995 
17   0.188878 
18   0.174383 
19   0.163534 
20   0.190599 
21   0.327047 
22   0.327883 
23   0.392459 
 
>  <lowdin_charges> 
23 
1   -0.134066 
2   -0.170728 
3   -0.273367 
4   -0.201038 
5   0.01727 
6   -0.098235 
7   0.117415 
8   0.12069 
9   0.170537 
10   -0.554931 
11   -0.173382 
12   -0.181418 
13   -0.256456 
14   -0.342139 
15   0.1866 
16   0.179904 
17   0.178202 
18   0.169762 
19   0.175799 
20   0.176104 
21   0.271486 
22   0.276082 
23   0.345909 
 
$$$$ 
 
