PCCDB-ID:  2234 
public computational chemistry database (PCCDB) project, http://pccdb.org 
 
 27 26  0  0  1  0  0  0  0  0999 V2000 
    1.1014   -0.0107    0.1429 C   0  0  0  0  0  0  0  0  0  0  0  0 
    1.0605    1.0614   -0.9538 C   0  0  0  0  0  0  0  0  0  0  0  0 
    2.5198   -0.3457    0.6260 C   0  0  0  0  0  0  0  0  0  0  0  0 
    1.3481    2.4873   -0.4299 C   0  0  1  0  0  0  0  0  0  0  0  0 
    1.8298    3.3945   -1.5774 C   0  0  2  0  0  0  0  0  0  0  0  0 
    4.4066   -0.3430   -1.0060 C   0  0  0  0  0  0  0  0  0  0  0  0 
    0.1899    2.9634    0.3238 N   0  0  0  0  0  0  0  0  0  0  0  0 
    1.2171    4.3934   -2.0774 N   0  0  0  0  0  0  0  0  0  0  0  0 
    4.5351    0.9447   -0.9573 N   0  0  0  0  0  0  0  0  0  0  0  0 
    5.3119   -1.2123   -1.6227 N   0  0  0  0  0  0  0  0  0  0  0  0 
    3.3564   -0.9856   -0.3963 N   0  0  0  0  0  0  0  0  0  0  0  0 
    3.0313    3.0495   -2.0837 O   0  0  0  0  0  0  0  0  0  0  0  0 
    0.6298   -0.9317   -0.2250 H   0  0  0  0  0  0  0  0  0  0  0  0 
    0.5127    0.3317    1.0029 H   0  0  0  0  0  0  0  0  0  0  0  0 
    0.0688    1.0692   -1.4269 H   0  0  0  0  0  0  0  0  0  0  0  0 
    1.7737    0.8052   -1.7433 H   0  0  0  0  0  0  0  0  0  0  0  0 
    2.4608   -1.0285    1.4821 H   0  0  0  0  0  0  0  0  0  0  0  0 
    3.0419    0.5536    0.9641 H   0  0  0  0  0  0  0  0  0  0  0  0 
    2.1853    2.4370    0.2795 H   0  0  0  0  0  0  0  0  0  0  0  0 
   -0.6210    3.0420   -0.2898 H   0  0  0  0  0  0  0  0  0  0  0  0 
    0.3671    3.8947    0.6970 H   0  0  0  0  0  0  0  0  0  0  0  0 
    0.3285    4.5165   -1.5860 H   0  0  0  0  0  0  0  0  0  0  0  0 
    5.3780    1.2416   -1.4489 H   0  0  0  0  0  0  0  0  0  0  0  0 
    5.8827   -0.7697   -2.3324 H   0  0  0  0  0  0  0  0  0  0  0  0 
    4.9161   -2.0801   -1.9672 H   0  0  0  0  0  0  0  0  0  0  0  0 
    3.4661   -1.9849   -0.2983 H   0  0  0  0  0  0  0  0  0  0  0  0 
    3.4370    2.3075   -1.5659 H   0  0  0  0  0  0  0  0  0  0  0  0 
  1  3  1  0  0  0  0 
  1 14  1  0  0  0  0 
  2  4  1  0  0  0  0 
  2  1  1  0  0  0  0 
  3 18  1  0  0  0  0 
  3 17  1  0  0  0  0 
  4 19  1  1  0  0  0 
  4  7  1  0  0  0  0 
  5 12  1  6  0  0  0 
  5  4  1  0  0  0  0 
  6  9  1  0  0  0  0 
  6 11  1  0  0  0  0 
  7 21  1  0  0  0  0 
  8 22  1  0  0  0  0 
  8  5  1  0  0  0  0 
 10  6  2  0  0  0  0 
 11 26  1  0  0  0  0 
 11  3  1  0  0  0  0 
 12 27  1  0  0  0  0 
 13  1  1  0  0  0  0 
 15  2  1  0  0  0  0 
 16  2  1  0  0  0  0 
 20  7  1  0  0  0  0 
 23  9  1  0  0  0  0 
 24 10  1  0  0  0  0 
 25 10  1  0  0  0  0 
M  RAD  3   5   2   8   2   9   2 
M  END 
>  <HBA> 
6 
 
>  <HBD> 
4 
 
>  <TPSA> 
133.51 
 
>  <cid> 
2234 
 
>  <dipole> 
6.97 
 
>  <excitation_energy_1> 
5.303 
 
>  <excitation_energy_2> 
5.499 
 
>  <excitation_energy_3> 
5.646 
 
>  <excitation_energy_4> 
5.819 
 
>  <homo_energy> 
-6.221 
 
>  <homo_lumo_gap> 
7.072 
 
>  <logP> 
0.654 
 
>  <lumo_energy> 
0.852 
 
>  <melting_point> 
229.69 
 
>  <molecular_refractivity> 
45.67 
 
>  <oscillator_strength_1> 
0.0044 
 
>  <oscillator_strength_2> 
0.0003 
 
>  <oscillator_strength_3> 
0.0002 
 
>  <oscillator_strength_4> 
0.0036 
 
>  <open_babel_can_smiles> 
[NH]C(=[NH2])NCCC[C@@H]([C](O)[NH])N 
 
>  <mulliken_charges> 
27 
1   -0.248845 
2   -0.258221 
3   -0.151797 
4   -0.082292 
5   0.469092 
6   0.639839 
7   -0.71762 
8   -0.603463 
9   -0.711055 
10   -0.754197 
11   -0.589698 
12   -0.638775 
13   0.125342 
14   0.161589 
15   0.13309 
16   0.156003 
17   0.141345 
18   0.189423 
19   0.157907 
20   0.296089 
21   0.305692 
22   0.247856 
23   0.29093 
24   0.332577 
25   0.324679 
26   0.321773 
27   0.462737 
 
>  <lowdin_charges> 
27 
1   -0.283815 
2   -0.279013 
3   -0.199451 
4   -0.110504 
5   0.104501 
6   0.145224 
7   -0.541473 
8   -0.424524 
9   -0.506091 
10   -0.49903 
11   -0.287789 
12   -0.387946 
13   0.141539 
14   0.159241 
15   0.145176 
16   0.155619 
17   0.147866 
18   0.166943 
19   0.154843 
20   0.25274 
21   0.258719 
22   0.23699 
23   0.260153 
24   0.285139 
25   0.279834 
26   0.27589 
27   0.34922 
 
$$$$ 
 
