PCCDB-ID:  825 
public computational chemistry database (PCCDB) project, http://pccdb.org 
 
 18 18  0  0  1  0  0  0  0  0999 V2000 
   -0.3787   -1.4682    0.2445 C   0  0  0  0  0  0  0  0  0  0  0  0 
    1.0788    0.4440    0.3003 C   0  0  0  0  0  0  0  0  0  0  0  0 
    1.0458   -1.0259   -0.1543 C   0  0  2  0  0  0  0  0  0  0  0  0 
   -1.2102   -0.1505    0.2739 C   0  0  1  0  0  0  0  0  0  0  0  0 
   -1.9180    0.0601    1.6301 C   0  0  0  0  0  0  0  0  0  0  0  0 
   -0.2747    0.9771    0.0239 N   0  0  0  0  0  0  0  0  0  0  0  0 
    1.3019   -1.1601   -1.5517 O   0  0  0  0  0  0  0  0  0  0  0  0 
   -2.5414   -0.8138    2.1845 O   0  0  0  0  0  0  0  0  0  0  0  0 
   -1.7878    1.3033    2.1154 O   0  0  0  0  0  0  0  0  0  0  0  0 
   -0.3937   -1.9433    1.2293 H   0  0  0  0  0  0  0  0  0  0  0  0 
   -0.7690   -2.1994   -0.4689 H   0  0  0  0  0  0  0  0  0  0  0  0 
    1.8441    1.0293   -0.2146 H   0  0  0  0  0  0  0  0  0  0  0  0 
    1.2616    0.5035    1.3810 H   0  0  0  0  0  0  0  0  0  0  0  0 
    1.8216   -1.6236    0.3315 H   0  0  0  0  0  0  0  0  0  0  0  0 
   -2.0030   -0.1488   -0.4825 H   0  0  0  0  0  0  0  0  0  0  0  0 
   -0.3363    1.2902   -0.9420 H   0  0  0  0  0  0  0  0  0  0  0  0 
    0.5362   -0.8141   -2.0362 H   0  0  0  0  0  0  0  0  0  0  0  0 
   -1.1894    1.7612    1.4702 H   0  0  0  0  0  0  0  0  0  0  0  0 
  1  4  1  0  0  0  0 
  1 10  1  0  0  0  0 
  2 13  1  0  0  0  0 
  3  1  1  0  0  0  0 
  3  2  1  0  0  0  0 
  3 14  1  1  0  0  0 
  4 15  1  6  0  0  0 
  4  5  1  0  0  0  0 
  5  9  1  0  0  0  0 
  5  8  2  0  0  0  0 
  6  4  1  0  0  0  0 
  6  2  1  0  0  0  0 
  7  3  1  0  0  0  0 
 11  1  1  0  0  0  0 
 12  2  1  0  0  0  0 
 16  6  1  0  0  0  0 
 17  7  1  0  0  0  0 
 18  9  1  0  0  0  0 
M  END 
>  <HBA> 
4 
 
>  <HBD> 
3 
 
>  <TPSA> 
69.56 
 
>  <cid> 
825 
 
>  <dipole> 
4.31 
 
>  <excitation_energy_1> 
5.3 
 
>  <excitation_energy_2> 
5.758 
 
>  <excitation_energy_3> 
6.176 
 
>  <excitation_energy_4> 
6.604 
 
>  <homo_energy> 
-6.876 
 
>  <homo_lumo_gap> 
7.061 
 
>  <logP> 
-0.877 
 
>  <lumo_energy> 
0.185 
 
>  <melting_point> 
119.64 
 
>  <molecular_refractivity> 
33.69 
 
>  <oscillator_strength_1> 
0.0029 
 
>  <oscillator_strength_2> 
0.0032 
 
>  <oscillator_strength_3> 
0.0004 
 
>  <oscillator_strength_4> 
0.0174 
 
>  <open_babel_can_smiles> 
O[C@H]1CN[C@@H](C1)C(=O)O 
 
>  <mulliken_charges> 
18 
1   -0.320191 
2   -0.16962 
3   0.125446 
4   -0.10021 
5   0.597797 
6   -0.607091 
7   -0.618565 
8   -0.460662 
9   -0.576635 
10   0.185404 
11   0.163934 
12   0.168099 
13   0.158418 
14   0.152875 
15   0.175049 
16   0.313291 
17   0.379894 
18   0.432768 
 
>  <lowdin_charges> 
18 
1   -0.306726 
2   -0.227309 
3   -0.013983 
4   -0.119687 
5   0.174226 
6   -0.366371 
7   -0.461223 
8   -0.257101 
9   -0.356306 
10   0.173829 
11   0.164576 
12   0.16367 
13   0.150161 
14   0.15588 
15   0.16881 
16   0.26135 
17   0.335916 
18   0.360289 
 
$$$$ 
 
