PCCDB-ID:  4197 
public computational chemistry database (PCCDB) project, http://pccdb.org 
 
 25 26  0  0  0  0  0  0  0  0999 V2000 
    1.0920    0.4143    0.4929 C   0  0  0  0  0  0  0  0  0  0  0  0 
    1.1165   -2.5228   -0.7882 C   0  0  0  0  0  0  0  0  0  0  0  0 
    2.6065   -3.4978    0.8047 C   0  0  0  0  0  0  0  0  0  0  0  0 
    0.4079   -3.7237   -0.7751 C   0  0  0  0  0  0  0  0  0  0  0  0 
    1.8293   -4.6539    0.7430 C   0  0  0  0  0  0  0  0  0  0  0  0 
    4.4622   -1.2619   -0.1363 C   0  0  0  0  0  0  0  0  0  0  0  0 
    6.6841   -0.1739   -0.3169 C   0  0  0  0  0  0  0  0  0  0  0  0 
    2.5546    0.1486    0.2366 C   0  0  0  0  0  0  0  0  0  0  0  0 
    2.2518   -2.3880    0.0237 C   0  0  0  0  0  0  0  0  0  0  0  0 
    5.2707   -0.1223   -0.1358 C   0  0  0  0  0  0  0  0  0  0  0  0 
    3.0808   -1.1535    0.0370 C   0  0  0  0  0  0  0  0  0  0  0  0 
    4.6346    1.1311    0.0470 C   0  0  0  0  0  0  0  0  0  0  0  0 
    7.8400   -0.1294   -0.4576 N   0  0  0  0  0  0  0  0  0  0  0  0 
    0.7423   -4.7827   -0.0276 N   0  0  0  0  0  0  0  0  0  0  0  0 
    3.3291    1.2428    0.2349 N   0  0  0  0  0  0  0  0  0  0  0  0 
    5.3170    2.2912    0.0487 O   0  0  0  0  0  0  0  0  0  0  0  0 
    0.5975   -0.4248    0.9878 H   0  0  0  0  0  0  0  0  0  0  0  0 
    0.5614    0.6058   -0.4488 H   0  0  0  0  0  0  0  0  0  0  0  0 
    0.9974    1.3143    1.1047 H   0  0  0  0  0  0  0  0  0  0  0  0 
    0.7984   -1.7143   -1.4387 H   0  0  0  0  0  0  0  0  0  0  0  0 
    3.4669   -3.4554    1.4665 H   0  0  0  0  0  0  0  0  0  0  0  0 
   -0.4727   -3.8418   -1.4045 H   0  0  0  0  0  0  0  0  0  0  0  0 
    2.0926   -5.5200    1.3479 H   0  0  0  0  0  0  0  0  0  0  0  0 
    4.9173   -2.2355   -0.2892 H   0  0  0  0  0  0  0  0  0  0  0  0 
    6.2649    2.1173   -0.0918 H   0  0  0  0  0  0  0  0  0  0  0  0 
  1 17  1  0  0  0  0 
  1 19  1  0  0  0  0 
  2  4  2  0  0  0  0 
  2  9  1  0  0  0  0 
  3 21  1  0  0  0  0 
  4 14  1  0  0  0  0 
  5  3  1  0  0  0  0 
  5 23  1  0  0  0  0 
  6 10  2  0  0  0  0 
  6 11  1  0  0  0  0 
  7 10  1  0  0  0  0 
  8  1  1  0  0  0  0 
  9 11  1  0  0  0  0 
  9  3  2  0  0  0  0 
 10 12  1  0  0  0  0 
 11  8  2  0  0  0  0 
 12 16  1  0  0  0  0 
 12 15  2  0  0  0  0 
 13  7  3  0  0  0  0 
 14  5  2  0  0  0  0 
 15  8  1  0  0  0  0 
 18  1  1  0  0  0  0 
 20  2  1  0  0  0  0 
 22  4  1  0  0  0  0 
 24  6  1  0  0  0  0 
 25 16  1  0  0  0  0 
M  END 
>  <HBA> 
3 
 
>  <HBD> 
1 
 
>  <TPSA> 
69.54 
 
>  <cid> 
4197 
 
>  <dipole> 
1.8 
 
>  <excitation_energy_1> 
4.386 
 
>  <excitation_energy_2> 
4.576 
 
>  <excitation_energy_3> 
4.62 
 
>  <excitation_energy_4> 
4.793 
 
>  <homo_energy> 
-6.876 
 
>  <homo_lumo_gap> 
4.966 
 
>  <logP> 
1.617 
 
>  <lumo_energy> 
-1.91 
 
>  <melting_point> 
182.39 
 
>  <molecular_refractivity> 
59.97 
 
>  <oscillator_strength_1> 
0.1094 
 
>  <oscillator_strength_2> 
0.0016 
 
>  <oscillator_strength_3> 
0.0232 
 
>  <oscillator_strength_4> 
0.0681 
 
>  <open_babel_can_smiles> 
N#Cc1cc(c2ccncc2)c(nc1O)C 
 
>  <mulliken_charges> 
25 
1   -0.516053 
2   -0.171765 
3   -0.175346 
4   0.037792 
5   0.038493 
6   -0.152231 
7   0.203979 
8   0.280841 
9   0.078328 
10   0.110683 
11   0.02697 
12   0.481353 
13   -0.477941 
14   -0.402883 
15   -0.503965 
16   -0.585519 
17   0.172918 
18   0.177046 
19   0.188356 
20   0.143247 
21   0.143434 
22   0.148308 
23   0.148716 
24   0.174667 
25   0.430574 
 
>  <lowdin_charges> 
25 
1   -0.45045 
2   -0.179274 
3   -0.18083 
4   -0.085659 
5   -0.086263 
6   -0.099315 
7   -0.028096 
8   0.088108 
9   0.017723 
10   -0.089155 
11   -0.049764 
12   0.153191 
13   -0.114584 
14   -0.144193 
15   -0.153698 
16   -0.326206 
17   0.169495 
18   0.171857 
19   0.179054 
20   0.167957 
21   0.166812 
22   0.160419 
23   0.161436 
24   0.181263 
25   0.370173 
 
$$$$ 
 
