PCCDB-ID:  3841 
public computational chemistry database (PCCDB) project, http://pccdb.org 
 
 17 17  0  0  0  0  0  0  0  0999 V2000 
   -0.6594    1.3258    0.0016 C   0  0  0  0  0  0  0  0  0  0  0  0 
   -2.8372    0.0163   -0.1284 C   0  0  0  0  0  0  0  0  0  0  0  0 
    0.6604   -1.0589   -0.1256 C   0  0  0  0  0  0  0  0  0  0  0  0 
   -1.3399    0.1583   -0.0790 C   0  0  0  0  0  0  0  0  0  0  0  0 
    0.8002    1.3907    0.0263 C   0  0  0  0  0  0  0  0  0  0  0  0 
    1.4285    0.0525   -0.0495 C   0  0  0  0  0  0  0  0  0  0  0  0 
   -3.2674   -0.5022   -1.4318 N   0  0  0  0  0  0  0  0  0  0  0  0 
    1.4484    2.4306    0.0978 O   0  0  0  0  0  0  0  0  0  0  0  0 
    2.7866    0.0424   -0.0368 O   0  0  0  0  0  0  0  0  0  0  0  0 
   -0.7024   -1.0361   -0.1371 O   0  0  0  0  0  0  0  0  0  0  0  0 
   -1.2008    2.2645    0.0468 H   0  0  0  0  0  0  0  0  0  0  0  0 
   -3.2733    0.9879    0.1557 H   0  0  0  0  0  0  0  0  0  0  0  0 
   -3.1414   -0.7115    0.6337 H   0  0  0  0  0  0  0  0  0  0  0  0 
    1.0385   -2.0741   -0.1842 H   0  0  0  0  0  0  0  0  0  0  0  0 
   -3.1568    0.2190   -2.1427 H   0  0  0  0  0  0  0  0  0  0  0  0 
   -4.2593   -0.7287   -1.3973 H   0  0  0  0  0  0  0  0  0  0  0  0 
    3.1061   -0.8726   -0.0942 H   0  0  0  0  0  0  0  0  0  0  0  0 
  1  5  1  0  0  0  0 
  1 11  1  0  0  0  0 
  2  4  1  0  0  0  0 
  2 12  1  0  0  0  0 
  2 13  1  0  0  0  0 
  3  6  2  0  0  0  0 
  4  1  2  0  0  0  0 
  5  8  2  0  0  0  0 
  6  9  1  0  0  0  0 
  6  5  1  0  0  0  0 
  7 16  1  0  0  0  0 
  7  2  1  0  0  0  0 
 10  3  1  0  0  0  0 
 10  4  1  0  0  0  0 
 14  3  1  0  0  0  0 
 15  7  1  0  0  0  0 
 17  9  1  0  0  0  0 
M  END 
>  <HBA> 
4 
 
>  <HBD> 
2 
 
>  <TPSA> 
76.46 
 
>  <cid> 
3841 
 
>  <dipole> 
4.79 
 
>  <excitation_energy_1> 
3.932 
 
>  <excitation_energy_2> 
4.829 
 
>  <excitation_energy_3> 
5.045 
 
>  <excitation_energy_4> 
5.181 
 
>  <homo_energy> 
-6.177 
 
>  <homo_lumo_gap> 
5.206 
 
>  <logP> 
0.504 
 
>  <lumo_energy> 
-0.971 
 
>  <melting_point> 
137.05 
 
>  <molecular_refractivity> 
34.67 
 
>  <oscillator_strength_1> 
0.0 
 
>  <oscillator_strength_2> 
0.089 
 
>  <oscillator_strength_3> 
0.0188 
 
>  <oscillator_strength_4> 
0.0004 
 
>  <open_babel_can_smiles> 
NCc1cc(=O)c(co1)O 
 
>  <mulliken_charges> 
17 
1   -0.27302 
2   -0.220752 
3   0.022667 
4   0.386616 
5   0.446833 
6   0.259641 
7   -0.702963 
8   -0.508556 
9   -0.60951 
10   -0.441287 
11   0.152967 
12   0.143895 
13   0.168777 
14   0.156516 
15   0.304003 
16   0.306385 
17   0.407788 
 
>  <lowdin_charges> 
17 
1   -0.238814 
2   -0.20554 
3   -0.103819 
4   0.105886 
5   0.123409 
6   0.045699 
7   -0.546656 
8   -0.273271 
9   -0.346159 
10   -0.087289 
11   0.179051 
12   0.13803 
13   0.164165 
14   0.167795 
15   0.259554 
16   0.259167 
17   0.358792 
 
$$$$ 
 
