PCCDB-ID:  1679 
public computational chemistry database (PCCDB) project, http://pccdb.org 
 
 17 17  0  0  0  0  0  0  0  0999 V2000 
   -0.8189    1.1937    0.0595 C   0  0  0  0  0  0  0  0  0  0  0  0 
   -1.4296   -0.0580    0.0188 C   0  0  0  0  0  0  0  0  0  0  0  0 
    0.5709    1.2892   -0.0197 C   0  0  0  0  0  0  0  0  0  0  0  0 
    0.7236   -1.1379   -0.1688 C   0  0  0  0  0  0  0  0  0  0  0  0 
   -0.6662   -1.2368   -0.0965 C   0  0  0  0  0  0  0  0  0  0  0  0 
    1.3306    0.1233   -0.1358 C   0  0  0  0  0  0  0  0  0  0  0  0 
   -1.3475   -2.5705   -0.1602 C   0  0  0  0  0  0  0  0  0  0  0  0 
   -2.4455   -2.8400   -0.7410 N   0  0  0  0  0  0  0  0  0  0  0  0 
    2.7610    0.3185   -0.2128 N   0  0  0  0  0  0  0  0  0  0  0  0 
   -0.6889   -3.5964    0.4475 O   0  0  0  0  0  0  0  0  0  0  0  0 
    3.4103   -0.7097   -0.3195 O   0  0  0  0  0  0  0  0  0  0  0  0 
   -1.4250    2.0891    0.1579 H   0  0  0  0  0  0  0  0  0  0  0  0 
   -2.5107   -0.1353    0.0957 H   0  0  0  0  0  0  0  0  0  0  0  0 
    1.0843    2.2456    0.0089 H   0  0  0  0  0  0  0  0  0  0  0  0 
    1.3587   -2.0119   -0.2807 H   0  0  0  0  0  0  0  0  0  0  0  0 
   -2.8020   -2.0155   -1.2258 H   0  0  0  0  0  0  0  0  0  0  0  0 
   -0.0084   -3.2375    1.0379 H   0  0  0  0  0  0  0  0  0  0  0  0 
  1 12  1  0  0  0  0 
  2  1  1  0  0  0  0 
  2 13  1  0  0  0  0 
  3 14  1  0  0  0  0 
  3  1  2  0  0  0  0 
  4  6  2  0  0  0  0 
  4  5  1  0  0  0  0 
  5  2  2  0  0  0  0 
  6  3  1  0  0  0  0 
  7  5  1  0  0  0  0 
  7 10  1  0  0  0  0 
  8  7  2  0  0  0  0 
  9  6  1  0  0  0  0 
 10 17  1  0  0  0  0 
 11  9  1  0  0  0  0 
 15  4  1  0  0  0  0 
 16  8  1  0  0  0  0 
M  RAD  2   9   2  11   2 
M  END 
>  <HBA> 
4 
 
>  <HBD> 
1 
 
>  <TPSA> 
72.52 
 
>  <cid> 
1679 
 
>  <dipole> 
4.12 
 
>  <excitation_energy_1> 
1.495 
 
>  <excitation_energy_2> 
3.554 
 
>  <excitation_energy_3> 
3.79 
 
>  <excitation_energy_4> 
3.975 
 
>  <homo_energy> 
-6.416 
 
>  <homo_lumo_gap> 
3.238 
 
>  <logP> 
1.884 
 
>  <lumo_energy> 
-3.178 
 
>  <melting_point> 
121.22 
 
>  <molecular_refractivity> 
39.99 
 
>  <oscillator_strength_1> 
0.0003 
 
>  <oscillator_strength_2> 
0.0166 
 
>  <oscillator_strength_3> 
0.0036 
 
>  <oscillator_strength_4> 
0.0 
 
>  <open_babel_can_smiles> 
[O][N]c1cccc(c1)C(=N)O 
 
>  <mulliken_charges> 
17 
1   -0.142147 
2   -0.151582 
3   -0.117638 
4   -0.191218 
5   0.054731 
6   0.212787 
7   0.433129 
8   -0.572064 
9   -0.046718 
10   -0.570095 
11   -0.272421 
12   0.157885 
13   0.160439 
14   0.167257 
15   0.177154 
16   0.28947 
17   0.411028 
 
>  <lowdin_charges> 
17 
1   -0.147304 
2   -0.124166 
3   -0.121013 
4   -0.146918 
5   -0.041835 
6   -0.017685 
7   0.123043 
8   -0.378444 
9   0.051576 
10   -0.355237 
11   -0.16752 
12   0.17237 
13   0.170691 
14   0.179823 
15   0.182191 
16   0.260281 
17   0.360147 
 
$$$$ 
 
