PCCDB-ID:  6004 
public computational chemistry database (PCCDB) project, http://pccdb.org 
 
 13 12  0  0  0  0  0  0  0  0999 V2000 
    1.1790   -0.1408    0.6609 C   0  0  0  0  0  0  0  0  0  0  0  0 
    2.5786    0.1549    0.1512 C   0  0  0  0  0  0  0  0  0  0  0  0 
    0.9969   -0.7319   -2.6025 O   0  0  0  0  0  0  0  0  0  0  0  0 
    2.9457    0.4606   -3.6091 O   0  0  0  0  0  0  0  0  0  0  0  0 
    3.2455   -1.5693   -2.0852 O   0  0  0  0  0  0  0  0  0  0  0  0 
    2.5678    0.6903   -1.2132 O   0  0  0  0  0  0  0  0  0  0  0  0 
    2.5786   -0.3390   -2.4580 S   0  0  0  0  0  0  0  0  0  0  0  0 
    1.2352   -0.4320    1.7161 H   0  0  0  0  0  0  0  0  0  0  0  0 
    0.7130   -0.9581    0.1039 H   0  0  0  0  0  0  0  0  0  0  0  0 
    0.5411    0.7455    0.5840 H   0  0  0  0  0  0  0  0  0  0  0  0 
    3.2223   -0.7272    0.1700 H   0  0  0  0  0  0  0  0  0  0  0  0 
    3.0558    0.9566    0.7191 H   0  0  0  0  0  0  0  0  0  0  0  0 
    0.5709   -0.0366   -3.1393 H   0  0  0  0  0  0  0  0  0  0  0  0 
  1  8  1  0  0  0  0 
  2 11  1  0  0  0  0 
  2  1  1  0  0  0  0 
  2 12  1  0  0  0  0 
  3  7  1  0  0  0  0 
  4  7  2  0  0  0  0 
  6  2  1  0  0  0  0 
  7  5  2  0  0  0  0 
  7  6  1  0  0  0  0 
  9  1  1  0  0  0  0 
 10  1  1  0  0  0  0 
 13  3  1  0  0  0  0 
M  END 
>  <HBA> 
4 
 
>  <HBD> 
1 
 
>  <TPSA> 
71.98 
 
>  <cid> 
6004 
 
>  <dipole> 
3.83 
 
>  <excitation_energy_1> 
7.287 
 
>  <excitation_energy_2> 
7.429 
 
>  <excitation_energy_3> 
7.749 
 
>  <excitation_energy_4> 
8.295 
 
>  <homo_energy> 
-8.735 
 
>  <homo_lumo_gap> 
9.184 
 
>  <logP> 
0.906 
 
>  <lumo_energy> 
0.449 
 
>  <melting_point> 
50.47 
 
>  <molecular_refractivity> 
23.35 
 
>  <oscillator_strength_1> 
0.0004 
 
>  <oscillator_strength_2> 
0.0032 
 
>  <oscillator_strength_3> 
0.0009 
 
>  <oscillator_strength_4> 
0.0139 
 
>  <open_babel_can_smiles> 
CCOS(=O)(=O)O 
 
>  <mulliken_charges> 
13 
1   -0.464263 
2   -0.070009 
3   -0.626745 
4   -0.48132 
5   -0.492974 
6   -0.506686 
7   1.31896 
8   0.159929 
9   0.184974 
10   0.164494 
11   0.193592 
12   0.176082 
13   0.443967 
 
>  <lowdin_charges> 
13 
1   -0.457195 
2   -0.123865 
3   -0.570703 
4   -0.546249 
5   -0.543016 
6   -0.403352 
7   1.427415 
8   0.163357 
9   0.16991 
10   0.161172 
11   0.169688 
12   0.166311 
13   0.386527 
 
$$$$ 
 
