PCCDB-ID:  2112 
public computational chemistry database (PCCDB) project, http://pccdb.org 
 
 30 30  0  0  1  0  0  0  0  0999 V2000 
   -0.2951    2.3450   -0.8113 C   0  0  0  0  0  0  0  0  0  0  0  0 
    1.6185   -0.1567   -3.7101 C   0  0  0  0  0  0  0  0  0  0  0  0 
    2.6065    4.1555    1.5392 C   0  0  0  0  0  0  0  0  0  0  0  0 
    0.5435    3.3059    2.4208 C   0  0  0  0  0  0  0  0  0  0  0  0 
    2.4960    5.2824    2.3543 C   0  0  0  0  0  0  0  0  0  0  0  0 
    0.4179    4.4237    3.2413 C   0  0  0  0  0  0  0  0  0  0  0  0 
    1.7625    1.9266    0.6616 C   0  0  0  0  0  0  0  0  0  0  0  0 
    1.6325    3.1467    1.5490 C   0  0  0  0  0  0  0  0  0  0  0  0 
    1.3972    5.4213    3.2075 C   0  0  0  0  0  0  0  0  0  0  0  0 
    1.5113    0.8152   -1.5614 C   0  0  0  0  0  0  0  0  0  0  0  0 
    1.2361    2.1150   -0.7886 C   0  0  1  0  0  0  0  0  0  0  0  0 
    1.9957    3.1958   -1.4386 N   0  0  0  0  0  0  0  0  0  0  0  0 
    1.2297    6.5005    4.0330 O   0  0  0  0  0  0  0  0  0  0  0  0 
    1.7454   -0.2657   -1.0683 O   0  0  0  0  0  0  0  0  0  0  0  0 
    1.4060    1.0095   -2.8974 O   0  0  0  0  0  0  0  0  0  0  0  0 
   -0.8401    1.5024   -0.3681 H   0  0  0  0  0  0  0  0  0  0  0  0 
   -0.6461    2.4759   -1.8403 H   0  0  0  0  0  0  0  0  0  0  0  0 
   -0.5433    3.2474   -0.2426 H   0  0  0  0  0  0  0  0  0  0  0  0 
    1.4912    0.1768   -4.7404 H   0  0  0  0  0  0  0  0  0  0  0  0 
    0.8904   -0.9338   -3.4634 H   0  0  0  0  0  0  0  0  0  0  0  0 
    2.6260   -0.5515   -3.5556 H   0  0  0  0  0  0  0  0  0  0  0  0 
    3.4673    4.0543    0.8837 H   0  0  0  0  0  0  0  0  0  0  0  0 
   -0.2183    2.5312    2.4670 H   0  0  0  0  0  0  0  0  0  0  0  0 
    3.2685    6.0496    2.3313 H   0  0  0  0  0  0  0  0  0  0  0  0 
   -0.4246    4.5362    3.9165 H   0  0  0  0  0  0  0  0  0  0  0  0 
    1.2316    1.0795    1.1063 H   0  0  0  0  0  0  0  0  0  0  0  0 
    2.8141    1.6326    0.5881 H   0  0  0  0  0  0  0  0  0  0  0  0 
    1.7531    4.0773   -0.9882 H   0  0  0  0  0  0  0  0  0  0  0  0 
    1.7072    3.2691   -2.4123 H   0  0  0  0  0  0  0  0  0  0  0  0 
    1.9837    7.1002    3.9220 H   0  0  0  0  0  0  0  0  0  0  0  0 
  1 11  1  0  0  0  0 
  1 16  1  0  0  0  0 
  1 18  1  0  0  0  0 
  2 21  1  0  0  0  0 
  2 20  1  0  0  0  0 
  2 15  1  0  0  0  0 
  3  8  2  0  0  0  0 
  3  5  1  0  0  0  0 
  4 23  1  0  0  0  0 
  4  6  2  0  0  0  0 
  5  9  2  0  0  0  0 
  6 25  1  0  0  0  0 
  7 26  1  0  0  0  0 
  7  8  1  0  0  0  0 
  8  4  1  0  0  0  0 
  9  6  1  0  0  0  0 
  9 13  1  0  0  0  0 
 10 14  2  0  0  0  0 
 11 10  1  6  0  0  0 
 11  7  1  0  0  0  0 
 12 28  1  0  0  0  0 
 12 11  1  0  0  0  0 
 15 10  1  0  0  0  0 
 17  1  1  0  0  0  0 
 19  2  1  0  0  0  0 
 22  3  1  0  0  0  0 
 24  5  1  0  0  0  0 
 27  7  1  0  0  0  0 
 29 12  1  0  0  0  0 
 30 13  1  0  0  0  0 
M  END 
>  <HBA> 
4 
 
>  <HBD> 
2 
 
>  <TPSA> 
72.55 
 
>  <cid> 
2112 
 
>  <dipole> 
2.62 
 
>  <excitation_energy_1> 
4.935 
 
>  <excitation_energy_2> 
5.13 
 
>  <excitation_energy_3> 
5.416 
 
>  <excitation_energy_4> 
5.516 
 
>  <homo_energy> 
-5.856 
 
>  <homo_lumo_gap> 
5.788 
 
>  <logP> 
1.525 
 
>  <lumo_energy> 
-0.068 
 
>  <melting_point> 
123.18 
 
>  <molecular_refractivity> 
56.69 
 
>  <oscillator_strength_1> 
0.0265 
 
>  <oscillator_strength_2> 
0.0005 
 
>  <oscillator_strength_3> 
0.0008 
 
>  <oscillator_strength_4> 
0.0004 
 
>  <open_babel_can_smiles> 
COC(=O)[C@@](Cc1ccc(cc1)O)(N)C 
 
>  <mulliken_charges> 
30 
1   -0.467163 
2   -0.21844 
3   -0.197612 
4   -0.191114 
5   -0.195436 
6   -0.159216 
7   -0.331921 
8   0.144518 
9   0.349119 
10   0.669002 
11   0.085017 
12   -0.730237 
13   -0.643489 
14   -0.486671 
15   -0.472033 
16   0.150517 
17   0.151237 
18   0.161003 
19   0.163445 
20   0.170892 
21   0.174316 
22   0.148003 
23   0.12862 
24   0.118584 
25   0.139249 
26   0.157079 
27   0.160821 
28   0.304684 
29   0.310509 
30   0.40672 
 
>  <lowdin_charges> 
30 
1   -0.461159 
2   -0.276453 
3   -0.157941 
4   -0.156256 
5   -0.216893 
6   -0.187023 
7   -0.270838 
8   -0.028561 
9   0.101218 
10   0.201688 
11   0.042046 
12   -0.546755 
13   -0.381129 
14   -0.257876 
15   -0.196026 
16   0.154986 
17   0.152938 
18   0.159801 
19   0.158874 
20   0.160566 
21   0.160956 
22   0.165912 
23   0.157799 
24   0.153552 
25   0.16748 
26   0.161525 
27   0.162793 
28   0.258001 
29   0.259019 
30   0.357754 
 
$$$$ 
 
