PCCDB-ID:  5520 
public computational chemistry database (PCCDB) project, http://pccdb.org 
 
 22 22  0  0  0  0  0  0  0  0999 V2000 
    3.0310    0.4474   -1.6530 C   0  0  0  0  0  0  0  0  0  0  0  0 
    1.6656    2.4712    1.2889 C   0  0  0  0  0  0  0  0  0  0  0  0 
    4.1596    2.3762    1.2186 C   0  0  0  0  0  0  0  0  0  0  0  0 
    1.6985    3.7912    2.0253 C   0  0  0  0  0  0  0  0  0  0  0  0 
    4.0800    3.8668    1.5960 C   0  0  0  0  0  0  0  0  0  0  0  0 
    2.7782    1.8163    0.9228 C   0  0  0  0  0  0  0  0  0  0  0  0 
    3.0107    4.1748    2.5501 N   0  0  0  0  0  0  0  0  0  0  0  0 
    1.1081   -0.1928    0.0724 O   0  0  0  0  0  0  0  0  0  0  0  0 
    3.5622   -0.8308    0.7946 O   0  0  0  0  0  0  0  0  0  0  0  0 
    2.7056    0.1912    0.1199 P   0  0  1  0  0  0  0  0  0  0  0  0 
    2.2778    1.1050   -2.0967 H   0  0  0  0  0  0  0  0  0  0  0  0 
    3.0082   -0.5233   -2.1569 H   0  0  0  0  0  0  0  0  0  0  0  0 
    4.0219    0.8905   -1.7884 H   0  0  0  0  0  0  0  0  0  0  0  0 
    0.6865    2.0618    1.0467 H   0  0  0  0  0  0  0  0  0  0  0  0 
    4.6193    1.7923    2.0282 H   0  0  0  0  0  0  0  0  0  0  0  0 
    4.8221    2.2439    0.3513 H   0  0  0  0  0  0  0  0  0  0  0  0 
    0.9830    3.7728    2.8574 H   0  0  0  0  0  0  0  0  0  0  0  0 
    1.3412    4.5841    1.3476 H   0  0  0  0  0  0  0  0  0  0  0  0 
    3.8955    4.4638    0.6932 H   0  0  0  0  0  0  0  0  0  0  0  0 
    5.0335    4.2072    2.0154 H   0  0  0  0  0  0  0  0  0  0  0  0 
    3.1823    3.6522    3.4085 H   0  0  0  0  0  0  0  0  0  0  0  0 
    0.9173   -0.8169    0.7929 H   0  0  0  0  0  0  0  0  0  0  0  0 
  1 10  1  0  0  0  0 
  2  4  1  0  0  0  0 
  3  5  1  0  0  0  0 
  3 15  1  0  0  0  0 
  4  7  1  0  0  0  0 
  4 17  1  0  0  0  0 
  5 20  1  0  0  0  0 
  5  7  1  0  0  0  0 
  6  3  1  0  0  0  0 
  6  2  2  0  0  0  0 
  7 21  1  0  0  0  0 
  8 10  1  0  0  0  0 
  8 22  1  0  0  0  0 
 10  9  2  1  0  0  0 
 10  6  1  0  0  0  0 
 11  1  1  0  0  0  0 
 12  1  1  0  0  0  0 
 13  1  1  0  0  0  0 
 14  2  1  0  0  0  0 
 16  3  1  0  0  0  0 
 18  4  1  0  0  0  0 
 19  5  1  0  0  0  0 
M  END 
>  <HBA> 
2 
 
>  <HBD> 
1 
 
>  <TPSA> 
66.55 
 
>  <cid> 
5520 
 
>  <dipole> 
2.21 
 
>  <excitation_energy_1> 
4.734 
 
>  <excitation_energy_2> 
5.324 
 
>  <excitation_energy_3> 
5.809 
 
>  <excitation_energy_4> 
5.927 
 
>  <homo_energy> 
-6.106 
 
>  <homo_lumo_gap> 
5.859 
 
>  <logP> 
1.745 
 
>  <lumo_energy> 
-0.248 
 
>  <melting_point> 
95.56 
 
>  <molecular_refractivity> 
44.34 
 
>  <oscillator_strength_1> 
0.0006 
 
>  <oscillator_strength_2> 
0.0023 
 
>  <oscillator_strength_3> 
0.009 
 
>  <oscillator_strength_4> 
0.007 
 
>  <open_babel_can_smiles> 
C[P@@](=O)(C1=CCNCC1)O 
 
>  <mulliken_charges> 
22 
1   -0.65562 
2   -0.148391 
3   -0.328788 
4   -0.18367 
5   -0.157509 
6   -0.08586 
7   -0.527476 
8   -0.676471 
9   -0.55949 
10   0.94051 
11   0.188597 
12   0.199444 
13   0.183643 
14   0.152595 
15   0.173065 
16   0.145198 
17   0.153747 
18   0.161322 
19   0.146485 
20   0.147134 
21   0.2969 
22   0.434636 
 
>  <lowdin_charges> 
22 
1   -0.635184 
2   -0.163875 
3   -0.29135 
4   -0.211469 
5   -0.207213 
6   -0.209459 
7   -0.355978 
8   -0.597161 
9   -0.613658 
10   0.998897 
11   0.186496 
12   0.191046 
13   0.181412 
14   0.166868 
15   0.164893 
16   0.154112 
17   0.157288 
18   0.155161 
19   0.14544 
20   0.150256 
21   0.25471 
22   0.378767 
 
$$$$ 
 
