PCCDB-ID:  2005 
public computational chemistry database (PCCDB) project, http://pccdb.org 
 
 27 26  0  0  0  0  0  0  0  0999 V2000 
    0.1142   -0.0429   -0.2678 C   0  0  0  0  0  0  0  0  0  0  0  0 
    2.6055   -4.2700   -2.2380 C   0  0  0  0  0  0  0  0  0  0  0  0 
    3.5451   -5.1090   -3.1138 C   0  0  0  0  0  0  0  0  0  0  0  0 
    3.1679   -2.8832   -1.9092 C   0  0  0  0  0  0  0  0  0  0  0  0 
    2.9566   -6.4665   -3.5613 C   0  0  0  0  0  0  0  0  0  0  0  0 
    2.1965   -2.0223   -1.0924 C   0  0  0  0  0  0  0  0  0  0  0  0 
    0.1109   -0.9518   -1.4798 C   0  0  0  0  0  0  0  0  0  0  0  0 
    2.7237   -7.4102   -2.3885 C   0  0  0  0  0  0  0  0  0  0  0  0 
    0.9734   -1.7982   -1.8513 N   0  0  0  0  0  0  0  0  0  0  0  0 
   -1.0031   -0.8323   -2.2700 O   0  0  0  0  0  0  0  0  0  0  0  0 
    3.5441   -8.1919   -1.9773 O   0  0  0  0  0  0  0  0  0  0  0  0 
    1.5143   -7.3057   -1.7631 O   0  0  0  0  0  0  0  0  0  0  0  0 
    1.0239   -0.1508    0.3245 H   0  0  0  0  0  0  0  0  0  0  0  0 
   -0.7416   -0.2723    0.3799 H   0  0  0  0  0  0  0  0  0  0  0  0 
    0.0282    1.0076   -0.5739 H   0  0  0  0  0  0  0  0  0  0  0  0 
    2.3956   -4.8027   -1.2995 H   0  0  0  0  0  0  0  0  0  0  0  0 
    1.6424   -4.1300   -2.7481 H   0  0  0  0  0  0  0  0  0  0  0  0 
    4.4886   -5.2955   -2.5843 H   0  0  0  0  0  0  0  0  0  0  0  0 
    3.7999   -4.5420   -4.0186 H   0  0  0  0  0  0  0  0  0  0  0  0 
    3.4036   -2.3529   -2.8417 H   0  0  0  0  0  0  0  0  0  0  0  0 
    4.1093   -2.9820   -1.3508 H   0  0  0  0  0  0  0  0  0  0  0  0 
    3.6591   -6.9670   -4.2333 H   0  0  0  0  0  0  0  0  0  0  0  0 
    2.0233   -6.2997   -4.1165 H   0  0  0  0  0  0  0  0  0  0  0  0 
    2.6983   -1.0791   -0.8247 H   0  0  0  0  0  0  0  0  0  0  0  0 
    1.9696   -2.5387   -0.1455 H   0  0  0  0  0  0  0  0  0  0  0  0 
   -1.5829   -0.1479   -1.9025 H   0  0  0  0  0  0  0  0  0  0  0  0 
    0.9775   -6.6215   -2.1951 H   0  0  0  0  0  0  0  0  0  0  0  0 
  1 13  1  0  0  0  0 
  1 14  1  0  0  0  0 
  2  4  1  0  0  0  0 
  2 16  1  0  0  0  0 
  3 18  1  0  0  0  0 
  3  2  1  0  0  0  0 
  4 21  1  0  0  0  0 
  4  6  1  0  0  0  0 
  5  3  1  0  0  0  0 
  5  8  1  0  0  0  0 
  6 24  1  0  0  0  0 
  6 25  1  0  0  0  0 
  7  1  1  0  0  0  0 
  8 11  2  0  0  0  0 
  8 12  1  0  0  0  0 
  9  7  2  0  0  0  0 
  9  6  1  0  0  0  0 
 10 26  1  0  0  0  0 
 10  7  1  0  0  0  0 
 15  1  1  0  0  0  0 
 17  2  1  0  0  0  0 
 19  3  1  0  0  0  0 
 20  4  1  0  0  0  0 
 22  5  1  0  0  0  0 
 23  5  1  0  0  0  0 
 27 12  1  0  0  0  0 
M  END 
>  <HBA> 
4 
 
>  <HBD> 
2 
 
>  <TPSA> 
66.4 
 
>  <cid> 
2005 
 
>  <dipole> 
6.64 
 
>  <excitation_energy_1> 
5.588 
 
>  <excitation_energy_2> 
5.599 
 
>  <excitation_energy_3> 
5.865 
 
>  <excitation_energy_4> 
5.919 
 
>  <homo_energy> 
-6.789 
 
>  <homo_lumo_gap> 
7.165 
 
>  <logP> 
1.158 
 
>  <lumo_energy> 
0.376 
 
>  <melting_point> 
97.84 
 
>  <molecular_refractivity> 
45.34 
 
>  <oscillator_strength_1> 
0.0018 
 
>  <oscillator_strength_2> 
0.0003 
 
>  <oscillator_strength_3> 
0.0029 
 
>  <oscillator_strength_4> 
0.0053 
 
>  <open_babel_can_smiles> 
OC(=O)CCCCC/N=C(/O)\C 
 
>  <mulliken_charges> 
27 
1   -0.564099 
2   -0.282516 
3   -0.259159 
4   -0.253583 
5   -0.370324 
6   -0.149603 
7   0.499065 
8   0.583852 
9   -0.416138 
10   -0.580058 
11   -0.440651 
12   -0.56435 
13   0.185114 
14   0.177652 
15   0.173385 
16   0.138709 
17   0.153848 
18   0.156187 
19   0.145519 
20   0.139999 
21   0.128381 
22   0.176632 
23   0.140788 
24   0.128964 
25   0.137043 
26   0.404066 
27   0.411276 
 
>  <lowdin_charges> 
27 
1   -0.484477 
2   -0.291264 
3   -0.267612 
4   -0.275975 
5   -0.31722 
6   -0.200351 
7   0.13192 
8   0.197073 
9   -0.213184 
10   -0.373425 
11   -0.244112 
12   -0.365683 
13   0.175365 
14   0.171615 
15   0.167559 
16   0.141879 
17   0.1493 
18   0.15197 
19   0.149584 
20   0.145839 
21   0.141302 
22   0.175133 
23   0.148321 
24   0.134412 
25   0.138102 
26   0.354845 
27   0.359083 
 
$$$$ 
 
