PCCDB-ID:  5931 
public computational chemistry database (PCCDB) project, http://pccdb.org 
 
 18 18  0  0  0  0  0  0  0  0999 V2000 
    1.1231   -0.0396   -0.4035 C   0  0  0  0  0  0  0  0  0  0  0  0 
    4.5853    1.1644    0.3671 C   0  0  0  0  0  0  0  0  0  0  0  0 
    2.5606    2.4446    0.1282 C   0  0  0  0  0  0  0  0  0  0  0  0 
    5.3181    2.3413    0.4915 C   0  0  0  0  0  0  0  0  0  0  0  0 
    3.2935    3.6235    0.2605 C   0  0  0  0  0  0  0  0  0  0  0  0 
    3.1916    1.1895    0.1846 C   0  0  0  0  0  0  0  0  0  0  0  0 
    4.6759    3.5824    0.4421 C   0  0  0  0  0  0  0  0  0  0  0  0 
    2.4807   -0.0164    0.1087 N   0  0  0  0  0  0  0  0  0  0  0  0 
    5.3457    4.7779    0.5598 O   0  0  0  0  0  0  0  0  0  0  0  0 
    0.7908   -1.0794   -0.4659 H   0  0  0  0  0  0  0  0  0  0  0  0 
    1.0142    0.4237   -1.3991 H   0  0  0  0  0  0  0  0  0  0  0  0 
    0.4470    0.4801    0.2850 H   0  0  0  0  0  0  0  0  0  0  0  0 
    5.1008    0.2074    0.4173 H   0  0  0  0  0  0  0  0  0  0  0  0 
    1.4880    2.5109   -0.0197 H   0  0  0  0  0  0  0  0  0  0  0  0 
    6.3973    2.2899    0.6285 H   0  0  0  0  0  0  0  0  0  0  0  0 
    2.7978    4.5884    0.2162 H   0  0  0  0  0  0  0  0  0  0  0  0 
    3.0483   -0.7836   -0.2281 H   0  0  0  0  0  0  0  0  0  0  0  0 
    6.2887    4.5927    0.6858 H   0  0  0  0  0  0  0  0  0  0  0  0 
  1  8  1  0  0  0  0 
  1 12  1  0  0  0  0 
  2 13  1  0  0  0  0 
  2  4  2  0  0  0  0 
  3  6  2  0  0  0  0 
  3  5  1  0  0  0  0 
  4 15  1  0  0  0  0 
  5  7  2  0  0  0  0 
  6  2  1  0  0  0  0 
  7  4  1  0  0  0  0 
  7  9  1  0  0  0  0 
  8  6  1  0  0  0  0 
  9 18  1  0  0  0  0 
 10  1  1  0  0  0  0 
 11  1  1  0  0  0  0 
 14  3  1  0  0  0  0 
 16  5  1  0  0  0  0 
 17  8  1  0  0  0  0 
M  END 
>  <HBA> 
2 
 
>  <HBD> 
2 
 
>  <TPSA> 
32.26 
 
>  <cid> 
5931 
 
>  <dipole> 
2.17 
 
>  <excitation_energy_1> 
4.199 
 
>  <excitation_energy_2> 
4.367 
 
>  <excitation_energy_3> 
4.479 
 
>  <excitation_energy_4> 
4.846 
 
>  <homo_energy> 
-4.833 
 
>  <homo_lumo_gap> 
5.001 
 
>  <logP> 
1.507 
 
>  <lumo_energy> 
0.169 
 
>  <melting_point> 
78.84 
 
>  <molecular_refractivity> 
37.77 
 
>  <oscillator_strength_1> 
0.0433 
 
>  <oscillator_strength_2> 
0.0073 
 
>  <oscillator_strength_3> 
0.0036 
 
>  <oscillator_strength_4> 
0.0155 
 
>  <open_babel_can_smiles> 
CNc1ccc(cc1)O 
 
>  <mulliken_charges> 
18 
1   -0.305194 
2   -0.193996 
3   -0.186943 
4   -0.197174 
5   -0.169311 
6   0.338748 
7   0.342987 
8   -0.635372 
9   -0.653769 
10   0.152452 
11   0.142342 
12   0.163544 
13   0.116094 
14   0.124604 
15   0.113571 
16   0.134624 
17   0.31045 
18   0.402344 
 
>  <lowdin_charges> 
18 
1   -0.353688 
2   -0.187561 
3   -0.19196 
4   -0.201174 
5   -0.176459 
6   0.040048 
7   0.078749 
8   -0.30915 
9   -0.390053 
10   0.15516 
11   0.13368 
12   0.154367 
13   0.152156 
14   0.157355 
15   0.149147 
16   0.16494 
17   0.271669 
18   0.352773 
 
$$$$ 
 
