PCCDB-ID:  902 
public computational chemistry database (PCCDB) project, http://pccdb.org 
 
 23 22  0  0  1  0  0  0  0  0999 V2000 
    2.8063    0.9973    0.3165 C   0  0  0  0  0  0  0  0  0  0  0  0 
    3.0045    0.8916   -4.0748 C   0  0  0  0  0  0  0  0  0  0  0  0 
    2.6302    0.4326   -2.6572 C   0  0  0  0  0  0  0  0  0  0  0  0 
    1.9461    1.6773   -0.7267 C   0  0  0  0  0  0  0  0  0  0  0  0 
    1.8128    1.1378   -5.0206 C   0  0  1  0  0  0  0  0  0  0  0  0 
    1.0018   -0.1626   -5.2480 C   0  0  0  0  0  0  0  0  0  0  0  0 
    0.8747    2.2115   -4.6388 N   0  0  0  0  0  0  0  0  0  0  0  0 
    1.8499    1.4499   -1.9680 N   0  0  0  0  0  0  0  0  0  0  0  0 
    1.1459    2.6732   -0.2357 O   0  0  0  0  0  0  0  0  0  0  0  0 
    1.5147   -1.2572   -5.3352 O   0  0  0  0  0  0  0  0  0  0  0  0 
   -0.3126    0.0510   -5.3704 O   0  0  0  0  0  0  0  0  0  0  0  0 
    3.4820    0.2603   -0.1180 H   0  0  0  0  0  0  0  0  0  0  0  0 
    2.1690    0.4815    1.0457 H   0  0  0  0  0  0  0  0  0  0  0  0 
    3.4071    1.7371    0.8602 H   0  0  0  0  0  0  0  0  0  0  0  0 
    3.6304    0.1145   -4.5257 H   0  0  0  0  0  0  0  0  0  0  0  0 
    3.6043    1.8088   -4.0151 H   0  0  0  0  0  0  0  0  0  0  0  0 
    3.5551    0.1588   -2.1271 H   0  0  0  0  0  0  0  0  0  0  0  0 
    2.0289   -0.4830   -2.7364 H   0  0  0  0  0  0  0  0  0  0  0  0 
    2.2196    1.3877   -6.0100 H   0  0  0  0  0  0  0  0  0  0  0  0 
    0.8585    2.2795   -3.6170 H   0  0  0  0  0  0  0  0  0  0  0  0 
    1.1776    3.1100   -5.0057 H   0  0  0  0  0  0  0  0  0  0  0  0 
    1.2833    2.7544    0.7205 H   0  0  0  0  0  0  0  0  0  0  0  0 
   -0.4072    1.0302   -5.2025 H   0  0  0  0  0  0  0  0  0  0  0  0 
  1 14  1  0  0  0  0 
  1 13  1  0  0  0  0 
  2 16  1  0  0  0  0 
  2  3  1  0  0  0  0 
  3 17  1  0  0  0  0 
  3  8  1  0  0  0  0 
  4  9  1  0  0  0  0 
  4  1  1  0  0  0  0 
  5 19  1  6  0  0  0 
  5  7  1  0  0  0  0 
  5  2  1  0  0  0  0 
  6  5  1  0  0  0  0 
  7 20  1  0  0  0  0 
  8  4  2  0  0  0  0 
  9 22  1  0  0  0  0 
 10  6  2  0  0  0  0 
 11  6  1  0  0  0  0 
 11 23  1  0  0  0  0 
 12  1  1  0  0  0  0 
 15  2  1  0  0  0  0 
 18  3  1  0  0  0  0 
 21  7  1  0  0  0  0 
M  END 
>  <HBA> 
5 
 
>  <HBD> 
3 
 
>  <TPSA> 
92.42 
 
>  <cid> 
902 
 
>  <dipole> 
7.13 
 
>  <excitation_energy_1> 
5.354 
 
>  <excitation_energy_2> 
5.626 
 
>  <excitation_energy_3> 
5.719 
 
>  <excitation_energy_4> 
6.007 
 
>  <homo_energy> 
-6.376 
 
>  <homo_lumo_gap> 
6.593 
 
>  <logP> 
0.016 
 
>  <lumo_energy> 
0.218 
 
>  <melting_point> 
153.41 
 
>  <molecular_refractivity> 
38.44 
 
>  <oscillator_strength_1> 
0.0041 
 
>  <oscillator_strength_2> 
0.0009 
 
>  <oscillator_strength_3> 
0.0009 
 
>  <oscillator_strength_4> 
0.0053 
 
>  <open_babel_can_smiles> 
C/C(=N\CC[C@@H](C(=O)O)N)/O 
 
>  <mulliken_charges> 
23 
1   -0.56211 
2   -0.259089 
3   -0.165282 
4   0.503499 
5   -0.086899 
6   0.608657 
7   -0.792572 
8   -0.427632 
9   -0.57685 
10   -0.484212 
11   -0.583652 
12   0.189011 
13   0.18462 
14   0.173707 
15   0.165199 
16   0.13178 
17   0.124635 
18   0.179721 
19   0.167013 
20   0.357814 
21   0.311729 
22   0.408165 
23   0.432748 
 
>  <lowdin_charges> 
23 
1   -0.48558 
2   -0.287135 
3   -0.204557 
4   0.13519 
5   -0.108654 
6   0.171445 
7   -0.559878 
8   -0.211522 
9   -0.366524 
10   -0.275702 
11   -0.355887 
12   0.178125 
13   0.176353 
14   0.170247 
15   0.167561 
16   0.144307 
17   0.132272 
18   0.161617 
19   0.163948 
20   0.275808 
21   0.266172 
22   0.354245 
23   0.358148 
 
$$$$ 
 
