PCCDB-ID:  70782
public computational chemistry database (PCCDB) project, http://pccdb.org

 24 24  0  0  0  0  0  0  0  0999 V2000
    0.4913   -0.0175   -0.2349 C   0  0  0  0  0  0  0  0  0  0  0  0
    5.8482   -2.1169    0.8245 C   0  0  0  0  0  0  0  0  0  0  0  0
    6.7608    1.4673   -0.6409 C   0  0  0  0  0  0  0  0  0  0  0  0
    2.4522    1.4954    0.2742 C   0  0  0  0  0  0  0  0  0  0  0  0
    2.8922   -0.8139   -0.2414 C   0  0  0  0  0  0  0  0  0  0  0  0
    1.9744    0.2268   -0.0756 C   0  0  0  0  0  0  0  0  0  0  0  0
    3.8187    1.7230    0.4526 C   0  0  0  0  0  0  0  0  0  0  0  0
    4.2616   -0.5936   -0.0696 C   0  0  0  0  0  0  0  0  0  0  0  0
    4.7406    0.6773    0.2812 C   0  0  0  0  0  0  0  0  0  0  0  0
    4.3289    2.9514    0.7770 O   0  0  0  0  0  0  0  0  0  0  0  0
    5.1288   -1.6321   -0.3134 O   0  0  0  0  0  0  0  0  0  0  0  0
    6.0861    0.8891    0.4800 O   0  0  0  0  0  0  0  0  0  0  0  0
   -0.0322    0.8864   -0.5649 H   0  0  0  0  0  0  0  0  0  0  0  0
    0.0341   -0.3306    0.7133 H   0  0  0  0  0  0  0  0  0  0  0  0
    0.2943   -0.8078   -0.9668 H   0  0  0  0  0  0  0  0  0  0  0  0
    5.1565   -2.5064    1.5836 H   0  0  0  0  0  0  0  0  0  0  0  0
    6.4743   -1.3347    1.2629 H   0  0  0  0  0  0  0  0  0  0  0  0
    6.4759   -2.9329    0.4582 H   0  0  0  0  0  0  0  0  0  0  0  0
    6.3611    2.4617   -0.8701 H   0  0  0  0  0  0  0  0  0  0  0  0
    6.6775    0.8210   -1.5235 H   0  0  0  0  0  0  0  0  0  0  0  0
    7.8110    1.5566   -0.3522 H   0  0  0  0  0  0  0  0  0  0  0  0
    1.7541    2.3212    0.4068 H   0  0  0  0  0  0  0  0  0  0  0  0
    2.5652   -1.8109   -0.5212 H   0  0  0  0  0  0  0  0  0  0  0  0
    3.5922    3.5774    0.8536 H   0  0  0  0  0  0  0  0  0  0  0  0
  1  6  1  0  0  0  0
  1 14  1  0  0  0  0
  2 17  1  0  0  0  0
  2 16  1  0  0  0  0
  3 21  1  0  0  0  0
  3 12  1  0  0  0  0
  4 22  1  0  0  0  0
  4  7  2  0  0  0  0
  5  6  2  0  0  0  0
  5  8  1  0  0  0  0
  6  4  1  0  0  0  0
  7 10  1  0  0  0  0
  8  9  2  0  0  0  0
  9  7  1  0  0  0  0
  9 12  1  0  0  0  0
 10 24  1  0  0  0  0
 11  8  1  0  0  0  0
 11  2  1  0  0  0  0
 13  1  1  0  0  0  0
 15  1  1  0  0  0  0
 18  2  1  0  0  0  0
 19  3  1  0  0  0  0
 20  3  1  0  0  0  0
 23  5  1  0  0  0  0
M  END
>  <HBA>
3

>  <HBD>
1

>  <TPSA>
38.69

>  <cid>
70782

>  <dipole>
1.74

>  <excitation_energy_1>
4.95

>  <excitation_energy_2>
5.062

>  <excitation_energy_3>
5.367

>  <excitation_energy_4>
5.467

>  <homo_energy>
-5.791

>  <homo_lumo_gap>
5.997

>  <logP>
1.718

>  <lumo_energy>
0.207

>  <melting_point>
60.34

>  <molecular_refractivity>
46.41

>  <oscillator_strength_1>
0.0159

>  <oscillator_strength_2>
0.0

>  <oscillator_strength_3>
0.0029

>  <oscillator_strength_4>
0.023

>  <open_babel_can_smiles>
COc1cc(C)cc(c1OC)O

>  <mulliken_charges>
24
1   -0.531313
2   -0.215333
3   -0.206895
4   -0.262008
5   -0.247267
6   0.180556
7   0.323256
8   0.329712
9   0.270481
10   -0.642148
11   -0.526728
12   -0.52233
13   0.153416
14   0.165696
15   0.160259
16   0.138604
17   0.173439
18   0.155039
19   0.156105
20   0.150172
21   0.156065
22   0.10768
23   0.125166
24   0.408377

>  <lowdin_charges>
24
1   -0.441636
2   -0.280449
3   -0.270054
4   -0.23486
5   -0.207396
6   0.010157
7   0.088035
8   0.085071
9   0.032123
10   -0.375778
11   -0.226768
12   -0.225328
13   0.156498
14   0.161803
15   0.160464
16   0.139743
17   0.156772
18   0.155064
19   0.146601
20   0.144881
21   0.153176
22   0.150529
23   0.162244
24   0.359107

$$$$

