PCCDB-ID:  8098
public computational chemistry database (PCCDB) project, http://pccdb.org

 34 33  0  0  0  0  0  0  0  0999 V2000
    0.7566    1.1716   -0.9681 C   0  0  0  0  0  0  0  0  0  0  0  0
   11.1231    2.3088   -6.6726 C   0  0  0  0  0  0  0  0  0  0  0  0
    6.9953    3.7011   -1.6664 C   0  0  0  0  0  0  0  0  0  0  0  0
    8.4957    3.5110   -1.5695 C   0  0  0  0  0  0  0  0  0  0  0  0
    4.9391    2.6980   -1.0819 C   0  0  0  0  0  0  0  0  0  0  0  0
   10.2585    2.1302   -2.3054 C   0  0  0  0  0  0  0  0  0  0  0  0
    4.4021    1.4594   -0.3737 C   0  0  0  0  0  0  0  0  0  0  0  0
   10.5778    0.9911   -3.2558 C   0  0  0  0  0  0  0  0  0  0  0  0
    2.2316    1.0760   -1.2809 C   0  0  0  0  0  0  0  0  0  0  0  0
   11.4435    1.9941   -5.2301 C   0  0  0  0  0  0  0  0  0  0  0  0
    2.7072    0.6486   -2.3088 O   0  0  0  0  0  0  0  0  0  0  0  0
   12.4834    2.2605   -4.6662 O   0  0  0  0  0  0  0  0  0  0  0  0
    6.3484    2.6377   -0.9942 O   0  0  0  0  0  0  0  0  0  0  0  0
    8.8804    2.4294   -2.3932 O   0  0  0  0  0  0  0  0  0  0  0  0
    2.9689    1.5309   -0.2357 O   0  0  0  0  0  0  0  0  0  0  0  0
   10.4016    1.3643   -4.6375 O   0  0  0  0  0  0  0  0  0  0  0  0
    0.1797    0.8628   -1.8404 H   0  0  0  0  0  0  0  0  0  0  0  0
    0.4939    2.1962   -0.6869 H   0  0  0  0  0  0  0  0  0  0  0  0
    0.5137    0.5269   -0.1167 H   0  0  0  0  0  0  0  0  0  0  0  0
   11.9793    2.7989   -7.1369 H   0  0  0  0  0  0  0  0  0  0  0  0
   10.2452    2.9611   -6.7263 H   0  0  0  0  0  0  0  0  0  0  0  0
   10.8786    1.3891   -7.2138 H   0  0  0  0  0  0  0  0  0  0  0  0
    6.6973    3.7317   -2.7264 H   0  0  0  0  0  0  0  0  0  0  0  0
    6.7239    4.6688   -1.2097 H   0  0  0  0  0  0  0  0  0  0  0  0
    8.7720    3.3235   -0.5187 H   0  0  0  0  0  0  0  0  0  0  0  0
    8.9991    4.4404   -1.8880 H   0  0  0  0  0  0  0  0  0  0  0  0
    4.5481    3.6058   -0.5918 H   0  0  0  0  0  0  0  0  0  0  0  0
    4.6068    2.7054   -2.1308 H   0  0  0  0  0  0  0  0  0  0  0  0
   10.8745    3.0085   -2.5526 H   0  0  0  0  0  0  0  0  0  0  0  0
   10.5258    1.8153   -1.2811 H   0  0  0  0  0  0  0  0  0  0  0  0
    4.7913    1.4123    0.6455 H   0  0  0  0  0  0  0  0  0  0  0  0
    4.6802    0.5559   -0.9199 H   0  0  0  0  0  0  0  0  0  0  0  0
    9.8817    0.1648   -3.0978 H   0  0  0  0  0  0  0  0  0  0  0  0
   11.6061    0.6557   -3.0982 H   0  0  0  0  0  0  0  0  0  0  0  0
  1 18  1  0  0  0  0
  1 19  1  0  0  0  0
  2 10  1  0  0  0  0
  3  4  1  0  0  0  0
  3 24  1  0  0  0  0
  3 13  1  0  0  0  0
  4 25  1  0  0  0  0
  5 13  1  0  0  0  0
  5 27  1  0  0  0  0
  5  7  1  0  0  0  0
  6 30  1  0  0  0  0
  7 15  1  0  0  0  0
  7 31  1  0  0  0  0
  8 34  1  0  0  0  0
  8 33  1  0  0  0  0
  8  6  1  0  0  0  0
  9  1  1  0  0  0  0
  9 15  1  0  0  0  0
 10 12  2  0  0  0  0
 10 16  1  0  0  0  0
 11  9  2  0  0  0  0
 14  6  1  0  0  0  0
 14  4  1  0  0  0  0
 16  8  1  0  0  0  0
 17  1  1  0  0  0  0
 20  2  1  0  0  0  0
 21  2  1  0  0  0  0
 22  2  1  0  0  0  0
 23  3  1  0  0  0  0
 26  4  1  0  0  0  0
 28  5  1  0  0  0  0
 29  6  1  0  0  0  0
 32  7  1  0  0  0  0
M  END
>  <HBA>
6

>  <HBD>
0

>  <TPSA>
71.06

>  <cid>
8098

>  <dipole>
2.57

>  <excitation_energy_1>
5.806

>  <excitation_energy_2>
5.809

>  <excitation_energy_3>
6.483

>  <excitation_energy_4>
6.523

>  <homo_energy>
-6.917

>  <homo_lumo_gap>
7.219

>  <logP>
0.146

>  <lumo_energy>
0.302

>  <melting_point>
-22.24

>  <molecular_refractivity>
54.92

>  <oscillator_strength_1>
0.0013

>  <oscillator_strength_2>
0.0012

>  <oscillator_strength_3>
0.0087

>  <oscillator_strength_4>
0.0017

>  <open_babel_can_smiles>
CC(=O)OCCOCCOCCOC(=O)C

>  <mulliken_charges>
34
1   -0.52258
2   -0.522026
3   -0.019716
4   -0.020345
5   -0.024043
6   -0.027873
7   -0.063779
8   -0.06166
9   0.597518
10   0.599515
11   -0.462597
12   -0.473272
13   -0.477109
14   -0.465254
15   -0.456446
16   -0.440961
17   0.183414
18   0.180759
19   0.184098
20   0.180656
21   0.184155
22   0.182782
23   0.140869
24   0.119625
25   0.133239
26   0.121714
27   0.125151
28   0.149327
29   0.147648
30   0.125969
31   0.163099
32   0.181832
33   0.16893
34   0.167361

>  <lowdin_charges>
34
1   -0.464759
2   -0.465866
3   -0.130993
4   -0.132778
5   -0.138
6   -0.139482
7   -0.134134
8   -0.135626
9   0.199606
10   0.200417
11   -0.262183
12   -0.271774
13   -0.26809
14   -0.266039
15   -0.199051
16   -0.190838
17   0.176772
18   0.176335
19   0.179835
20   0.175539
21   0.179528
22   0.178644
23   0.13869
24   0.130435
25   0.134477
26   0.131823
27   0.129345
28   0.14136
29   0.142934
30   0.134134
31   0.158328
32   0.165718
33   0.164647
34   0.161047

$$$$

