PCCDB-ID:  41437
public computational chemistry database (PCCDB) project, http://pccdb.org

 35 36  0  0  0  0  0  0  0  0999 V2000
   -1.3335   -3.8437    2.4655 C   0  0  0  0  0  0  0  0  0  0  0  0
    6.2002   -7.9229   -8.1088 C   0  0  0  0  0  0  0  0  0  0  0  0
    0.1504   -4.1678    2.7204 C   0  0  0  0  0  0  0  0  0  0  0  0
    0.9842   -5.6375    0.8245 C   0  0  0  0  0  0  0  0  0  0  0  0
    1.5975   -3.3096    0.8205 C   0  0  0  0  0  0  0  0  0  0  0  0
    1.6658   -5.8350   -0.3691 C   0  0  0  0  0  0  0  0  0  0  0  0
    2.2836   -3.4949   -0.3770 C   0  0  0  0  0  0  0  0  0  0  0  0
    4.5593   -7.5507   -5.7065 C   0  0  0  0  0  0  0  0  0  0  0  0
    5.1451   -5.1948   -5.7448 C   0  0  0  0  0  0  0  0  0  0  0  0
    3.8723   -7.3393   -4.5172 C   0  0  0  0  0  0  0  0  0  0  0  0
    4.4640   -4.9953   -4.5613 C   0  0  0  0  0  0  0  0  0  0  0  0
    0.9342   -4.3752    1.4426 C   0  0  0  0  0  0  0  0  0  0  0  0
    5.2074   -6.4761   -6.3478 C   0  0  0  0  0  0  0  0  0  0  0  0
    2.3264   -4.7569   -0.9844 C   0  0  0  0  0  0  0  0  0  0  0  0
    3.8113   -6.0713   -3.9233 C   0  0  0  0  0  0  0  0  0  0  0  0
    5.8714   -6.6269   -7.5487 N   0  0  0  0  0  0  0  0  0  0  0  0
    3.0549   -4.8319   -2.1958 N   0  0  0  0  0  0  0  0  0  0  0  0
    3.0920   -5.9839   -2.7190 N   0  0  0  0  0  0  0  0  0  0  0  0
   -1.8706   -3.7013    3.4105 H   0  0  0  0  0  0  0  0  0  0  0  0
   -1.8236   -4.6540    1.9141 H   0  0  0  0  0  0  0  0  0  0  0  0
   -1.4383   -2.9284    1.8724 H   0  0  0  0  0  0  0  0  0  0  0  0
    6.7692   -7.7715   -9.0293 H   0  0  0  0  0  0  0  0  0  0  0  0
    5.2891   -8.4746   -8.3678 H   0  0  0  0  0  0  0  0  0  0  0  0
    6.7976   -8.5486   -7.4271 H   0  0  0  0  0  0  0  0  0  0  0  0
    0.2186   -5.0683    3.3442 H   0  0  0  0  0  0  0  0  0  0  0  0
    0.6017   -3.3523    3.2994 H   0  0  0  0  0  0  0  0  0  0  0  0
    0.4801   -6.4785    1.2969 H   0  0  0  0  0  0  0  0  0  0  0  0
    1.5786   -2.3248    1.2825 H   0  0  0  0  0  0  0  0  0  0  0  0
    1.7063   -6.8104   -0.8409 H   0  0  0  0  0  0  0  0  0  0  0  0
    2.8025   -2.6734   -0.8623 H   0  0  0  0  0  0  0  0  0  0  0  0
    4.5925   -8.5455   -6.1372 H   0  0  0  0  0  0  0  0  0  0  0  0
    5.6421   -4.3581   -6.2327 H   0  0  0  0  0  0  0  0  0  0  0  0
    3.3700   -8.1621   -4.0169 H   0  0  0  0  0  0  0  0  0  0  0  0
    4.4194   -4.0139   -4.1020 H   0  0  0  0  0  0  0  0  0  0  0  0
    6.5011   -5.8739   -7.7867 H   0  0  0  0  0  0  0  0  0  0  0  0
  1  3  1  0  0  0  0
  1 19  1  0  0  0  0
  2 16  1  0  0  0  0
  2 24  1  0  0  0  0
  3 26  1  0  0  0  0
  3 25  1  0  0  0  0
  4 27  1  0  0  0  0
  4 12  1  0  0  0  0
  5 28  1  0  0  0  0
  5 12  2  0  0  0  0
  6  4  2  0  0  0  0
  7  5  1  0  0  0  0
  8 10  2  0  0  0  0
  9 11  1  0  0  0  0
 10 33  1  0  0  0  0
 10 15  1  0  0  0  0
 11 34  1  0  0  0  0
 11 15  2  0  0  0  0
 12  3  1  0  0  0  0
 13  9  2  0  0  0  0
 13  8  1  0  0  0  0
 14  7  2  0  0  0  0
 14  6  1  0  0  0  0
 15 18  1  0  0  0  0
 16 13  1  0  0  0  0
 17 14  1  0  0  0  0
 18 17  1  0  0  0  0
 20  1  1  0  0  0  0
 21  1  1  0  0  0  0
 22  2  1  0  0  0  0
 23  2  1  0  0  0  0
 29  6  1  0  0  0  0
 30  7  1  0  0  0  0
 31  8  1  0  0  0  0
 32  9  1  0  0  0  0
 35 16  1  0  0  0  0
M  RAD  2  17   2  18   2
M  END
>  <HBA>
3

>  <HBD>
1

>  <TPSA>
36.75

>  <cid>
41437

>  <dipole>
3.11

>  <excitation_energy_1>
2.705

>  <excitation_energy_2>
3.187

>  <excitation_energy_3>
4.127

>  <excitation_energy_4>
4.204

>  <homo_energy>
-5.135

>  <homo_lumo_gap>
3.437

>  <logP>
4.779

>  <lumo_energy>
-1.698

>  <melting_point>
100.54

>  <molecular_refractivity>
76.14

>  <oscillator_strength_1>
0.0001

>  <oscillator_strength_2>
1.0218

>  <oscillator_strength_3>
0.0055

>  <oscillator_strength_4>
0.0041

>  <open_babel_can_smiles>
CCc1ccc(cc1)[N][N]c1ccc(cc1)NC

>  <mulliken_charges>
35
1   -0.433582
2   -0.302947
3   -0.341668
4   -0.199004
5   -0.193836
6   -0.125587
7   -0.141824
8   -0.196216
9   -0.205776
10   -0.149293
11   -0.129024
12   0.185872
13   0.37531
14   0.272001
15   0.268605
16   -0.641978
17   -0.327993
18   -0.31783
19   0.143026
20   0.150343
21   0.150322
22   0.159093
23   0.169709
24   0.155985
25   0.14373
26   0.142789
27   0.123107
28   0.122296
29   0.148915
30   0.133752
31   0.127247
32   0.120752
33   0.137652
34   0.15356
35   0.32249

>  <lowdin_charges>
35
1   -0.441529
2   -0.354003
3   -0.273042
4   -0.16631
5   -0.17004
6   -0.15392
7   -0.151427
8   -0.214714
9   -0.196454
10   -0.133682
11   -0.13872
12   0.005727
13   0.072642
14   0.009817
15   -0.016772
16   -0.283356
17   -0.102688
18   -0.084283
19   0.149163
20   0.152132
21   0.151309
22   0.160757
23   0.157151
24   0.145506
25   0.149477
26   0.14984
27   0.154906
28   0.15404
29   0.170275
30   0.164886
31   0.159599
32   0.153986
33   0.166942
34   0.173001
35   0.279784

$$$$

