PCCDB-ID:  13085
public computational chemistry database (PCCDB) project, http://pccdb.org

 30 31  0  0  1  0  0  0  0  0999 V2000
    5.6950   -4.7688   -1.0908 C   0  0  0  0  0  0  0  0  0  0  0  0
    1.0718    4.3573   -0.3795 C   0  0  0  0  0  0  0  0  0  0  0  0
    5.0251   -4.8066    0.1327 C   0  0  0  0  0  0  0  0  0  0  0  0
    5.7738   -3.5683   -1.8007 C   0  0  0  0  0  0  0  0  0  0  0  0
    2.2799    3.8280    0.0804 C   0  0  0  0  0  0  0  0  0  0  0  0
    0.3262    3.6571   -1.3287 C   0  0  0  0  0  0  0  0  0  0  0  0
    4.4466   -3.6467    0.6453 C   0  0  0  0  0  0  0  0  0  0  0  0
    5.1870   -2.4087   -1.2984 C   0  0  0  0  0  0  0  0  0  0  0  0
    2.7455    2.6054   -0.3991 C   0  0  0  0  0  0  0  0  0  0  0  0
    0.7932    2.4393   -1.8202 C   0  0  0  0  0  0  0  0  0  0  0  0
    4.5194   -2.4333   -0.0630 C   0  0  0  0  0  0  0  0  0  0  0  0
    2.0080    1.8973   -1.3621 C   0  0  0  0  0  0  0  0  0  0  0  0
    3.9138   -1.2148    0.5383 C   0  0  1  0  0  0  0  0  0  0  0  0
    2.4812    0.6101   -1.9383 C   0  0  1  0  0  0  0  0  0  0  0  0
    3.2754   -0.2439   -0.0121 N   0  0  0  0  0  0  0  0  0  0  0  0
    3.0813   -0.3809   -1.3807 N   0  0  0  0  0  0  0  0  0  0  0  0
    4.0108   -1.1188    1.8989 O   0  0  0  0  0  0  0  0  0  0  0  0
    2.2062    0.4217   -3.2644 O   0  0  0  0  0  0  0  0  0  0  0  0
    6.1494   -5.6709   -1.4916 H   0  0  0  0  0  0  0  0  0  0  0  0
    0.7115    5.3083    0.0034 H   0  0  0  0  0  0  0  0  0  0  0  0
    4.9472   -5.7383    0.6863 H   0  0  0  0  0  0  0  0  0  0  0  0
    6.2933   -3.5341   -2.7544 H   0  0  0  0  0  0  0  0  0  0  0  0
    2.8636    4.3689    0.8202 H   0  0  0  0  0  0  0  0  0  0  0  0
   -0.6211    4.0543   -1.6832 H   0  0  0  0  0  0  0  0  0  0  0  0
    3.9016   -3.6894    1.5850 H   0  0  0  0  0  0  0  0  0  0  0  0
    5.2350   -1.4834   -1.8571 H   0  0  0  0  0  0  0  0  0  0  0  0
    3.6738    2.1894   -0.0302 H   0  0  0  0  0  0  0  0  0  0  0  0
    0.1932    1.8853   -2.5379 H   0  0  0  0  0  0  0  0  0  0  0  0
    4.6973   -1.7367    2.1957 H   0  0  0  0  0  0  0  0  0  0  0  0
    1.9881    1.2840   -3.6515 H   0  0  0  0  0  0  0  0  0  0  0  0
  1  3  2  0  0  0  0
  2 20  1  0  0  0  0
  2  5  1  0  0  0  0
  3  7  1  0  0  0  0
  3 21  1  0  0  0  0
  4  8  2  0  0  0  0
  4  1  1  0  0  0  0
  5 23  1  0  0  0  0
  6  2  2  0  0  0  0
  7 25  1  0  0  0  0
  8 11  1  0  0  0  0
  9 27  1  0  0  0  0
  9  5  2  0  0  0  0
 10 12  2  0  0  0  0
 10  6  1  0  0  0  0
 11 13  1  0  0  0  0
 11  7  2  0  0  0  0
 12  9  1  0  0  0  0
 13 15  1  1  0  0  0
 13 17  1  0  0  0  0
 14 18  1  1  0  0  0
 14 16  1  0  0  0  0
 14 12  1  0  0  0  0
 16 15  1  0  0  0  0
 17 29  1  0  0  0  0
 19  1  1  0  0  0  0
 22  4  1  0  0  0  0
 24  6  1  0  0  0  0
 26  8  1  0  0  0  0
 28 10  1  0  0  0  0
 30 18  1  0  0  0  0
M  RAD  4  13   2  14   2  15   2  16   2
M  END
>  <HBA>
4

>  <HBD>
2

>  <TPSA>
58.2

>  <cid>
13085

>  <dipole>
1.34

>  <excitation_energy_1>
3.617

>  <excitation_energy_2>
3.97

>  <excitation_energy_3>
4.351

>  <excitation_energy_4>
4.423

>  <homo_energy>
-5.619

>  <homo_lumo_gap>
4.438

>  <logP>
2.543

>  <lumo_energy>
-1.181

>  <melting_point>
154.69

>  <molecular_refractivity>
67.15

>  <oscillator_strength_1>
0.0009

>  <oscillator_strength_2>
0.5009

>  <oscillator_strength_3>
0.0916

>  <oscillator_strength_4>
0.0003

>  <open_babel_can_smiles>
O[C](c1ccccc1)[N][N][C](c1ccccc1)O

>  <mulliken_charges>
30
1   -0.120639
2   -0.120442
3   -0.131841
4   -0.141203
5   -0.141535
6   -0.131848
7   -0.198421
8   -0.126824
9   -0.126587
10   -0.198479
11   0.084615
12   0.084481
13   0.437932
14   0.438026
15   -0.338238
16   -0.338476
17   -0.586261
18   -0.586231
19   0.135338
20   0.135359
21   0.135491
22   0.137345
23   0.137434
24   0.135467
25   0.143304
26   0.163119
27   0.163072
28   0.14335
29   0.406329
30   0.406365

>  <lowdin_charges>
30
1   -0.147186
2   -0.14616
3   -0.157203
4   -0.1528
5   -0.155301
6   -0.156491
7   -0.167249
8   -0.131444
9   -0.130988
10   -0.169729
11   -0.038562
12   -0.038129
13   0.122047
14   0.122194
15   -0.141754
16   -0.14206
17   -0.36445
18   -0.36291
19   0.161099
20   0.160425
21   0.160803
22   0.161259
23   0.163013
24   0.160548
25   0.161256
26   0.177588
27   0.177436
28   0.162992
29   0.356577
30   0.355181

$$$$

