PCCDB-ID:  72967
public computational chemistry database (PCCDB) project, http://pccdb.org

 16 16  0  0  0  0  0  0  0  0999 V2000
   -0.8317    0.9493    0.2375 C   0  0  0  0  0  0  0  0  0  0  0  0
    1.0489   -0.4795   -0.1975 C   0  0  0  0  0  0  0  0  0  0  0  0
   -1.5908   -0.2060    0.4259 C   0  0  0  0  0  0  0  0  0  0  0  0
    0.2000   -1.5645    0.0144 C   0  0  0  0  0  0  0  0  0  0  0  0
    0.5262    0.8111   -0.0727 C   0  0  0  0  0  0  0  0  0  0  0  0
    1.4414    1.9705   -0.2847 C   0  0  0  0  0  0  0  0  0  0  0  0
   -1.0980   -1.4462    0.3250 N   0  0  0  0  0  0  0  0  0  0  0  0
    1.0347    3.1728    0.2395 N   0  0  0  0  0  0  0  0  0  0  0  0
    2.4949    1.9060   -0.9200 O   0  0  0  0  0  0  0  0  0  0  0  0
    1.9939    4.1938    0.1829 O   0  0  0  0  0  0  0  0  0  0  0  0
   -1.3013    1.9263    0.2996 H   0  0  0  0  0  0  0  0  0  0  0  0
    2.0934   -0.6173   -0.4547 H   0  0  0  0  0  0  0  0  0  0  0  0
   -2.6506   -0.1296    0.6626 H   0  0  0  0  0  0  0  0  0  0  0  0
    0.5801   -2.5808   -0.0699 H   0  0  0  0  0  0  0  0  0  0  0  0
    0.5643    3.1932    1.1371 H   0  0  0  0  0  0  0  0  0  0  0  0
    2.7120    3.7487   -0.3271 H   0  0  0  0  0  0  0  0  0  0  0  0
  1 11  1  0  0  0  0
  1  3  2  0  0  0  0
  2  5  2  0  0  0  0
  2  4  1  0  0  0  0
  3 13  1  0  0  0  0
  4  7  2  0  0  0  0
  5  1  1  0  0  0  0
  6  5  1  0  0  0  0
  6  8  1  0  0  0  0
  7  3  1  0  0  0  0
  8 15  1  0  0  0  0
  9  6  2  0  0  0  0
 10  8  1  0  0  0  0
 12  2  1  0  0  0  0
 14  4  1  0  0  0  0
 16 10  1  0  0  0  0
M  END
>  <HBA>
4

>  <HBD>
2

>  <TPSA>
62.22

>  <cid>
72967

>  <dipole>
1.81

>  <excitation_energy_1>
4.218

>  <excitation_energy_2>
4.484

>  <excitation_energy_3>
4.851

>  <excitation_energy_4>
4.936

>  <homo_energy>
-6.797

>  <homo_lumo_gap>
4.895

>  <logP>
0.592

>  <lumo_energy>
-1.902

>  <melting_point>
135.47

>  <molecular_refractivity>
33.16

>  <oscillator_strength_1>
0.0099

>  <oscillator_strength_2>
0.0611

>  <oscillator_strength_3>
0.0404

>  <oscillator_strength_4>
0.0319

>  <open_babel_can_smiles>
ONC(=O)c1ccncc1

>  <mulliken_charges>
16
1   -0.189114
2   -0.162955
3   0.039161
4   0.036889
5   0.097005
6   0.530781
7   -0.396499
8   -0.333354
9   -0.525041
10   -0.509705
11   0.153133
12   0.172954
13   0.152008
14   0.153828
15   0.351433
16   0.429475

>  <lowdin_charges>
16
1   -0.176639
2   -0.148525
3   -0.08225
4   -0.082796
5   -0.016088
6   0.142484
7   -0.135523
8   -0.144635
9   -0.300858
10   -0.385499
11   0.16982
12   0.182328
13   0.160562
14   0.162785
15   0.295123
16   0.359714

$$$$

