PCCDB-ID:  6106
public computational chemistry database (PCCDB) project, http://pccdb.org

 22 21  0  0  1  0  0  0  0  0999 V2000
    1.7027    0.2676   -1.6308 C   0  0  0  0  0  0  0  0  0  0  0  0
    2.8231   -1.3994   -0.0787 C   0  0  0  0  0  0  0  0  0  0  0  0
    3.0561    1.1106    0.4104 C   0  0  0  0  0  0  0  0  0  0  0  0
    2.1774   -0.0095   -0.1943 C   0  0  0  0  0  0  0  0  0  0  0  0
    4.5151    1.2665   -0.0728 C   0  0  1  0  0  0  0  0  0  0  0  0
    4.5798    1.7457   -1.5334 C   0  0  0  0  0  0  0  0  0  0  0  0
    5.1856    2.2229    0.8174 N   0  0  0  0  0  0  0  0  0  0  0  0
    4.2925    2.8709   -1.8621 O   0  0  0  0  0  0  0  0  0  0  0  0
    5.0089    0.8520   -2.4688 O   0  0  0  0  0  0  0  0  0  0  0  0
    2.5229    0.2243   -2.3550 H   0  0  0  0  0  0  0  0  0  0  0  0
    0.9583   -0.4770   -1.9369 H   0  0  0  0  0  0  0  0  0  0  0  0
    1.2408    1.2578   -1.7134 H   0  0  0  0  0  0  0  0  0  0  0  0
    2.1120   -2.1833   -0.3629 H   0  0  0  0  0  0  0  0  0  0  0  0
    3.1611   -1.6058    0.9439 H   0  0  0  0  0  0  0  0  0  0  0  0
    3.6915   -1.5045   -0.7436 H   0  0  0  0  0  0  0  0  0  0  0  0
    3.1308    0.9572    1.4933 H   0  0  0  0  0  0  0  0  0  0  0  0
    2.5563    2.0774    0.2615 H   0  0  0  0  0  0  0  0  0  0  0  0
    1.2771   -0.0254    0.4371 H   0  0  0  0  0  0  0  0  0  0  0  0
    5.0378    0.3069    0.0346 H   0  0  0  0  0  0  0  0  0  0  0  0
    4.7854    3.1448    0.6360 H   0  0  0  0  0  0  0  0  0  0  0  0
    6.1694    2.3009    0.5583 H   0  0  0  0  0  0  0  0  0  0  0  0
    5.1994   -0.0012   -2.0448 H   0  0  0  0  0  0  0  0  0  0  0  0
  1  4  1  0  0  0  0
  2 14  1  0  0  0  0
  3 16  1  0  0  0  0
  4  2  1  0  0  0  0
  4  3  1  0  0  0  0
  4 18  1  0  0  0  0
  5 19  1  1  0  0  0
  5  3  1  0  0  0  0
  5  7  1  0  0  0  0
  6  5  1  0  0  0  0
  8  6  2  0  0  0  0
  9 22  1  0  0  0  0
  9  6  1  0  0  0  0
 10  1  1  0  0  0  0
 11  1  1  0  0  0  0
 12  1  1  0  0  0  0
 13  2  1  0  0  0  0
 15  2  1  0  0  0  0
 17  3  1  0  0  0  0
 20  7  1  0  0  0  0
 21  7  1  0  0  0  0
M  END
>  <HBA>
3

>  <HBD>
2

>  <TPSA>
63.32

>  <cid>
6106

>  <dipole>
3.06

>  <excitation_energy_1>
5.394

>  <excitation_energy_2>
5.75

>  <excitation_energy_3>
6.084

>  <excitation_energy_4>
6.474

>  <homo_energy>
-6.732

>  <homo_lumo_gap>
6.806

>  <logP>
1.145

>  <lumo_energy>
0.073

>  <melting_point>
104.84

>  <molecular_refractivity>
35.44

>  <oscillator_strength_1>
0.0093

>  <oscillator_strength_2>
0.0011

>  <oscillator_strength_3>
0.0215

>  <oscillator_strength_4>
0.0107

>  <open_babel_can_smiles>
N[C@H](C(=O)O)CC(C)C

>  <mulliken_charges>
22
1   -0.458405
2   -0.442849
3   -0.258122
4   -0.080324
5   -0.092191
6   0.593627
7   -0.695449
8   -0.452475
9   -0.571016
10   0.152358
11   0.141985
12   0.154245
13   0.151247
14   0.149036
15   0.113885
16   0.157902
17   0.149307
18   0.134633
19   0.125566
20   0.314714
21   0.301125
22   0.411198

>  <lowdin_charges>
22
1   -0.456488
2   -0.446285
3   -0.276874
4   -0.123813
5   -0.106321
6   0.172987
7   -0.528256
8   -0.247131
9   -0.354437
10   0.152435
11   0.150985
12   0.154958
13   0.155502
14   0.150778
15   0.13102
16   0.157064
17   0.153082
18   0.145462
19   0.139401
20   0.264228
21   0.256249
22   0.355456

$$$$

