PCCDB-ID:  44160
public computational chemistry database (PCCDB) project, http://pccdb.org

 24 24  0  0  0  0  0  0  0  0999 V2000
    0.8815    0.1619    0.5172 C   0  0  0  0  0  0  0  0  0  0  0  0
    4.9172   -3.1398   -2.6876 C   0  0  0  0  0  0  0  0  0  0  0  0
    4.3693    1.3254   -0.5251 C   0  0  0  0  0  0  0  0  0  0  0  0
    3.0196    1.3419   -0.1742 C   0  0  0  0  0  0  0  0  0  0  0  0
    5.0681    0.1186   -0.5645 C   0  0  0  0  0  0  0  0  0  0  0  0
    3.0622   -1.0475    0.1047 C   0  0  0  0  0  0  0  0  0  0  0  0
    5.1617   -2.3994   -0.2724 C   0  0  0  0  0  0  0  0  0  0  0  0
    2.3463    0.1547    0.1443 C   0  0  0  0  0  0  0  0  0  0  0  0
    4.4177   -1.0784   -0.2459 C   0  0  0  0  0  0  0  0  0  0  0  0
    3.8675   -4.3806   -0.9630 N   0  0  0  0  0  0  0  0  0  0  0  0
    4.6442   -3.3347   -1.2770 N   0  0  0  0  0  0  0  0  0  0  0  0
    3.5925   -4.5058    0.2283 O   0  0  0  0  0  0  0  0  0  0  0  0
    0.5094    1.1813    0.6602 H   0  0  0  0  0  0  0  0  0  0  0  0
    0.7023   -0.3960    1.4436 H   0  0  0  0  0  0  0  0  0  0  0  0
    0.2695   -0.3084   -0.2632 H   0  0  0  0  0  0  0  0  0  0  0  0
    5.9961   -3.1782   -2.8825 H   0  0  0  0  0  0  0  0  0  0  0  0
    4.5330   -2.1703   -3.0248 H   0  0  0  0  0  0  0  0  0  0  0  0
    4.4191   -3.9424   -3.2345 H   0  0  0  0  0  0  0  0  0  0  0  0
    4.8780    2.2549   -0.7666 H   0  0  0  0  0  0  0  0  0  0  0  0
    2.4810    2.2862   -0.1440 H   0  0  0  0  0  0  0  0  0  0  0  0
    6.1216    0.1072   -0.8357 H   0  0  0  0  0  0  0  0  0  0  0  0
    2.5635   -1.9806    0.3574 H   0  0  0  0  0  0  0  0  0  0  0  0
    5.0692   -2.9214    0.6838 H   0  0  0  0  0  0  0  0  0  0  0  0
    6.2242   -2.2373   -0.4863 H   0  0  0  0  0  0  0  0  0  0  0  0
  1 13  1  0  0  0  0
  1 14  1  0  0  0  0
  2 11  1  0  0  0  0
  3  4  1  0  0  0  0
  4 20  1  0  0  0  0
  4  8  2  0  0  0  0
  5  3  2  0  0  0  0
  5  9  1  0  0  0  0
  6  8  1  0  0  0  0
  6 22  1  0  0  0  0
  7  9  1  0  0  0  0
  7 23  1  0  0  0  0
  8  1  1  0  0  0  0
  9  6  2  0  0  0  0
 10 12  2  0  0  0  0
 11 10  1  0  0  0  0
 11  7  1  0  0  0  0
 15  1  1  0  0  0  0
 16  2  1  0  0  0  0
 17  2  1  0  0  0  0
 18  2  1  0  0  0  0
 19  3  1  0  0  0  0
 21  5  1  0  0  0  0
 24  7  1  0  0  0  0
M  END
>  <HBA>
3

>  <HBD>
0

>  <TPSA>
32.67

>  <cid>
44160

>  <dipole>
3.61

>  <excitation_energy_1>
3.387

>  <excitation_energy_2>
4.916

>  <excitation_energy_3>
5.006

>  <excitation_energy_4>
5.087

>  <homo_energy>
-6.041

>  <homo_lumo_gap>
5.167

>  <logP>
2.108

>  <lumo_energy>
-0.873

>  <melting_point>
33.01

>  <molecular_refractivity>
48.81

>  <oscillator_strength_1>
0.0005

>  <oscillator_strength_2>
0.002

>  <oscillator_strength_3>
0.007

>  <oscillator_strength_4>
0.0363

>  <open_babel_can_smiles>
O=NN(Cc1cccc(c1)C)C

>  <mulliken_charges>
24
1   -0.528943
2   -0.309532
3   -0.124715
4   -0.180371
5   -0.19389
6   -0.230449
7   -0.254346
8   0.176404
9   0.168009
10   0.151686
11   -0.195979
12   -0.381547
13   0.154218
14   0.166652
15   0.167061
16   0.161512
17   0.176522
18   0.19041
19   0.129948
20   0.124071
21   0.121975
22   0.149534
23   0.204021
24   0.157746

>  <lowdin_charges>
24
1   -0.443036
2   -0.353921
3   -0.154603
4   -0.167972
5   -0.173619
6   -0.168414
7   -0.214857
8   0.00667
9   -0.016263
10   0.053583
11   -0.037704
12   -0.277756
13   0.155807
14   0.163507
15   0.164423
16   0.15288
17   0.162235
18   0.177737
19   0.158536
20   0.155641
21   0.152036
22   0.1665
23   0.183226
24   0.155367

$$$$

