PCCDB-ID:  36343
public computational chemistry database (PCCDB) project, http://pccdb.org

 30 31  0  0  0  0  0  0  0  0999 V2000
    3.8225    1.6421   -3.4944 C   0  0  0  0  0  0  0  0  0  0  0  0
    2.6913    2.0505   -2.7876 C   0  0  0  0  0  0  0  0  0  0  0  0
    4.5902    0.5787   -3.0126 C   0  0  0  0  0  0  0  0  0  0  0  0
   -0.8292   -2.4632   -1.7746 C   0  0  0  0  0  0  0  0  0  0  0  0
   -1.4455   -3.4035   -0.9484 C   0  0  0  0  0  0  0  0  0  0  0  0
    2.3307    1.3991   -1.6059 C   0  0  0  0  0  0  0  0  0  0  0  0
    4.2307   -0.0708   -1.8323 C   0  0  0  0  0  0  0  0  0  0  0  0
    0.4174   -1.9379   -1.4309 C   0  0  0  0  0  0  0  0  0  0  0  0
   -0.8162   -3.8038    0.2274 C   0  0  0  0  0  0  0  0  0  0  0  0
    2.7129   -0.3667    0.1820 C   0  0  0  0  0  0  0  0  0  0  0  0
    3.0965    0.3350   -1.1134 C   0  0  0  0  0  0  0  0  0  0  0  0
    1.0673   -2.3457   -0.2597 C   0  0  0  0  0  0  0  0  0  0  0  0
    0.4293   -3.2750    0.5868 C   0  0  0  0  0  0  0  0  0  0  0  0
    2.4822   -1.8671   -0.0161 C   0  0  0  0  0  0  0  0  0  0  0  0
    0.9793   -3.7077    1.9037 C   0  0  0  0  0  0  0  0  0  0  0  0
    3.4090   -2.6539   -0.0278 O   0  0  0  0  0  0  0  0  0  0  0  0
    0.6893   -4.7417    2.4681 O   0  0  0  0  0  0  0  0  0  0  0  0
    1.8041   -2.7853    2.4609 O   0  0  0  0  0  0  0  0  0  0  0  0
    4.1055    2.1485   -4.4132 H   0  0  0  0  0  0  0  0  0  0  0  0
    2.0880    2.8778   -3.1523 H   0  0  0  0  0  0  0  0  0  0  0  0
    5.4729    0.2539   -3.5570 H   0  0  0  0  0  0  0  0  0  0  0  0
   -1.3126   -2.1418   -2.6931 H   0  0  0  0  0  0  0  0  0  0  0  0
   -2.4139   -3.8174   -1.2141 H   0  0  0  0  0  0  0  0  0  0  0  0
    1.4501    1.7251   -1.0571 H   0  0  0  0  0  0  0  0  0  0  0  0
    4.8225   -0.9035   -1.4628 H   0  0  0  0  0  0  0  0  0  0  0  0
    0.9022   -1.2239   -2.0898 H   0  0  0  0  0  0  0  0  0  0  0  0
   -1.2796   -4.5238    0.8939 H   0  0  0  0  0  0  0  0  0  0  0  0
    1.8204    0.0980    0.6120 H   0  0  0  0  0  0  0  0  0  0  0  0
    3.5276   -0.2794    0.9099 H   0  0  0  0  0  0  0  0  0  0  0  0
    2.1258   -3.1788    3.2935 H   0  0  0  0  0  0  0  0  0  0  0  0
  1  3  2  0  0  0  0
  1  2  1  0  0  0  0
  2  6  2  0  0  0  0
  3  7  1  0  0  0  0
  4  8  2  0  0  0  0
  4  5  1  0  0  0  0
  5  9  2  0  0  0  0
  6 11  1  0  0  0  0
  6 24  1  0  0  0  0
  7 25  1  0  0  0  0
  7 11  2  0  0  0  0
  8 12  1  0  0  0  0
  9 13  1  0  0  0  0
  9 27  1  0  0  0  0
 10 28  1  0  0  0  0
 10 29  1  0  0  0  0
 11 10  1  0  0  0  0
 12 14  1  0  0  0  0
 12 13  2  0  0  0  0
 13 15  1  0  0  0  0
 14 10  1  0  0  0  0
 15 18  1  0  0  0  0
 15 17  2  0  0  0  0
 16 14  2  0  0  0  0
 18 30  1  0  0  0  0
 19  1  1  0  0  0  0
 20  2  1  0  0  0  0
 21  3  1  0  0  0  0
 22  4  1  0  0  0  0
 23  5  1  0  0  0  0
 26  8  1  0  0  0  0
M  END
>  <HBA>
3

>  <HBD>
1

>  <TPSA>
54.37

>  <cid>
36343

>  <dipole>
3.58

>  <excitation_energy_1>
3.892

>  <excitation_energy_2>
4.463

>  <excitation_energy_3>
4.655

>  <excitation_energy_4>
4.756

>  <homo_energy>
-6.493

>  <homo_lumo_gap>
4.985

>  <logP>
2.81

>  <lumo_energy>
-1.508

>  <melting_point>
160.93

>  <molecular_refractivity>
68.08

>  <oscillator_strength_1>
0.01

>  <oscillator_strength_2>
0.0023

>  <oscillator_strength_3>
0.0581

>  <oscillator_strength_4>
0.0133

>  <open_babel_can_smiles>
O=C(c1ccccc1C(=O)O)Cc1ccccc1

>  <mulliken_charges>
30
1   -0.12921
2   -0.128458
3   -0.129094
4   -0.119212
5   -0.127529
6   -0.189693
7   -0.174644
8   -0.179461
9   -0.164599
10   -0.413721
11   0.144802
12   0.045046
13   0.071249
14   0.388368
15   0.521697
16   -0.43243
17   -0.465238
18   -0.580293
19   0.131783
20   0.131668
21   0.135024
22   0.144072
23   0.143716
24   0.128015
25   0.15693
26   0.162138
27   0.168443
28   0.15889
29   0.185793
30   0.415948

>  <lowdin_charges>
30
1   -0.15795
2   -0.156471
3   -0.151623
4   -0.136506
5   -0.15008
6   -0.172533
7   -0.16263
8   -0.157411
9   -0.127601
10   -0.299671
11   -0.006685
12   -0.017579
13   -0.037586
14   0.176202
15   0.198731
16   -0.224418
17   -0.262935
18   -0.352928
19   0.158951
20   0.159449
21   0.160603
22   0.165222
23   0.164771
24   0.15658
25   0.17124
26   0.174402
27   0.180262
28   0.162545
29   0.179688
30   0.36596

$$$$

