PCCDB-ID:  8711
public computational chemistry database (PCCDB) project, http://pccdb.org

 13 12  0  0  0  0  0  0  0  0999 V2000
    1.1791    0.4403   -0.3975 C   0  0  0  0  0  0  0  0  0  0  0  0
    5.5184   -1.2348    0.7885 C   0  0  0  0  0  0  0  0  0  0  0  0
    3.1821    1.4409   -1.3289 C   0  0  0  0  0  0  0  0  0  0  0  0
    2.5174    0.4810   -0.4951 C   0  0  0  0  0  0  0  0  0  0  0  0
    3.3364   -0.5069    0.2913 C   0  0  0  0  0  0  0  0  0  0  0  0
    3.7041    2.2265   -2.0086 N   0  0  0  0  0  0  0  0  0  0  0  0
    2.8571   -1.3450    1.0237 O   0  0  0  0  0  0  0  0  0  0  0  0
    4.6485   -0.3368    0.0742 O   0  0  0  0  0  0  0  0  0  0  0  0
    0.5445    1.1289   -0.9442 H   0  0  0  0  0  0  0  0  0  0  0  0
    0.7171   -0.3012    0.2460 H   0  0  0  0  0  0  0  0  0  0  0  0
    6.5286   -0.9505    0.4961 H   0  0  0  0  0  0  0  0  0  0  0  0
    5.3086   -2.2695    0.5066 H   0  0  0  0  0  0  0  0  0  0  0  0
    5.3786   -1.1197    1.8662 H   0  0  0  0  0  0  0  0  0  0  0  0
  1 10  1  0  0  0  0
  2 13  1  0  0  0  0
  3  4  1  0  0  0  0
  4  1  2  0  0  0  0
  4  5  1  0  0  0  0
  5  7  2  0  0  0  0
  6  3  3  0  0  0  0
  8  5  1  0  0  0  0
  8  2  1  0  0  0  0
  9  1  1  0  0  0  0
 11  2  1  0  0  0  0
 12  2  1  0  0  0  0
M  END
>  <HBA>
3

>  <HBD>
0

>  <TPSA>
50.09

>  <cid>
8711

>  <dipole>
2.38

>  <excitation_energy_1>
4.523

>  <excitation_energy_2>
5.494

>  <excitation_energy_3>
5.842

>  <excitation_energy_4>
5.858

>  <homo_energy>
-8.03

>  <homo_lumo_gap>
5.755

>  <logP>
0.239

>  <lumo_energy>
-2.275

>  <melting_point>
3.27

>  <molecular_refractivity>
26.71

>  <oscillator_strength_1>
0.0001

>  <oscillator_strength_2>
0.1108

>  <oscillator_strength_3>
0.0023

>  <oscillator_strength_4>
0.1283

>  <open_babel_can_smiles>
COC(=O)C(=C)C#N

>  <mulliken_charges>
13
1   -0.318028
2   -0.225532
3   0.286487
4   0.095696
5   0.627023
6   -0.471233
7   -0.476245
8   -0.450558
9   0.191707
10   0.203558
11   0.179518
12   0.178803
13   0.178804

>  <lowdin_charges>
13
1   -0.226999
2   -0.27115
3   -0.009657
4   -0.04639
5   0.199998
6   -0.100872
7   -0.254795
8   -0.167087
9   0.187922
10   0.195113
11   0.168103
12   0.163267
13   0.162548

$$$$

