PCCDB-ID:  21428
public computational chemistry database (PCCDB) project, http://pccdb.org

 25 25  0  0  1  0  0  0  0  0999 V2000
    0.9079    0.0055    0.0261 C   0  0  0  0  0  0  0  0  0  0  0  0
    5.0038    2.6241    1.5608 C   0  0  0  0  0  0  0  0  0  0  0  0
    4.5372   -1.2068    0.8741 C   0  0  0  0  0  0  0  0  0  0  0  0
    3.0034   -1.2336    0.7900 C   0  0  0  0  0  0  0  0  0  0  0  0
    5.0462    0.0733    1.5543 C   0  0  0  0  0  0  0  0  0  0  0  0
    2.4376    0.0324    0.1172 C   0  0  2  0  0  0  0  0  0  0  0  0
    4.4920    1.3469    0.8862 C   0  0  1  0  0  0  0  0  0  0  0  0
    2.9474    1.3069    0.8294 C   0  0  2  0  0  0  0  0  0  0  0  0
    2.3570    1.4672    2.1261 O   0  0  0  0  0  0  0  0  0  0  0  0
    0.5595   -0.8944   -0.4944 H   0  0  0  0  0  0  0  0  0  0  0  0
    0.5294    0.8782   -0.5196 H   0  0  0  0  0  0  0  0  0  0  0  0
    0.4607    0.0231    1.0251 H   0  0  0  0  0  0  0  0  0  0  0  0
    6.0998    2.6485    1.5793 H   0  0  0  0  0  0  0  0  0  0  0  0
    4.6390    2.6919    2.5906 H   0  0  0  0  0  0  0  0  0  0  0  0
    4.6559    3.5180    1.0292 H   0  0  0  0  0  0  0  0  0  0  0  0
    4.9526   -1.2618   -0.1428 H   0  0  0  0  0  0  0  0  0  0  0  0
    4.9047   -2.0927    1.4076 H   0  0  0  0  0  0  0  0  0  0  0  0
    2.5786   -1.3335    1.8020 H   0  0  0  0  0  0  0  0  0  0  0  0
    2.6678   -2.1225    0.2407 H   0  0  0  0  0  0  0  0  0  0  0  0
    6.1433    0.1002    1.5426 H   0  0  0  0  0  0  0  0  0  0  0  0
    4.7621    0.0639    2.6193 H   0  0  0  0  0  0  0  0  0  0  0  0
    2.8442    0.0674   -0.9060 H   0  0  0  0  0  0  0  0  0  0  0  0
    4.8392    1.3455   -0.1593 H   0  0  0  0  0  0  0  0  0  0  0  0
    2.5938    2.1848    0.2743 H   0  0  0  0  0  0  0  0  0  0  0  0
    2.6324    0.7160    2.6744 H   0  0  0  0  0  0  0  0  0  0  0  0
  1  6  1  0  0  0  0
  1 12  1  0  0  0  0
  2 13  1  0  0  0  0
  2 14  1  0  0  0  0
  3 17  1  0  0  0  0
  3  5  1  0  0  0  0
  4  3  1  0  0  0  0
  4 18  1  0  0  0  0
  5 21  1  0  0  0  0
  6 22  1  6  0  0  0
  6  4  1  0  0  0  0
  6  8  1  0  0  0  0
  7 23  1  6  0  0  0
  7  5  1  0  0  0  0
  7  2  1  0  0  0  0
  8 24  1  6  0  0  0
  8  7  1  0  0  0  0
  8  9  1  0  0  0  0
  9 25  1  0  0  0  0
 10  1  1  0  0  0  0
 11  1  1  0  0  0  0
 15  2  1  0  0  0  0
 16  3  1  0  0  0  0
 19  4  1  0  0  0  0
 20  5  1  0  0  0  0
M  END
>  <HBA>
1

>  <HBD>
1

>  <TPSA>
20.23

>  <cid>
21428

>  <dipole>
1.71

>  <excitation_energy_1>
6.292

>  <excitation_energy_2>
6.66

>  <excitation_energy_3>
7.08

>  <excitation_energy_4>
7.112

>  <homo_energy>
-6.955

>  <homo_lumo_gap>
8.577

>  <logP>
1.803

>  <lumo_energy>
1.622

>  <melting_point>
13.31

>  <molecular_refractivity>
39.62

>  <oscillator_strength_1>
0.0001

>  <oscillator_strength_2>
0.0035

>  <oscillator_strength_3>
0.0032

>  <oscillator_strength_4>
0.0014

>  <open_babel_can_smiles>
C[C@@H]1CCC[C@@H]([C@@H]1O)C

>  <mulliken_charges>
25
1   -0.441705
2   -0.441925
3   -0.261408
4   -0.27502
5   -0.274989
6   -0.090496
7   -0.09048
8   0.138591
9   -0.635647
10   0.134888
11   0.139449
12   0.15323
13   0.135001
14   0.153147
15   0.139539
16   0.131266
17   0.132382
18   0.115838
19   0.136049
20   0.136003
21   0.115759
22   0.116996
23   0.117182
24   0.125418
25   0.390929

>  <lowdin_charges>
25
1   -0.445292
2   -0.441757
3   -0.278591
4   -0.282999
5   -0.279206
6   -0.142159
7   -0.141986
8   -0.005276
9   -0.46558
10   0.146338
11   0.149733
12   0.152989
13   0.143819
14   0.152386
15   0.149513
16   0.139085
17   0.145151
18   0.129887
19   0.14772
20   0.144962
21   0.128956
22   0.136814
23   0.136471
24   0.142237
25   0.336783

$$$$

