PCCDB-ID:  42654
public computational chemistry database (PCCDB) project, http://pccdb.org

 18 19  0  0  0  0  0  0  0  0999 V2000
   -1.2411   -0.0710   -0.4331 C   0  0  0  0  0  0  0  0  0  0  0  0
   -0.0103   -3.4326    0.6773 C   0  0  0  0  0  0  0  0  0  0  0  0
   -0.3853   -1.0640   -0.0961 C   0  0  0  0  0  0  0  0  0  0  0  0
   -0.6529   -2.4914   -0.0530 C   0  0  0  0  0  0  0  0  0  0  0  0
    1.0776    0.7881    0.1688 C   0  0  0  0  0  0  0  0  0  0  0  0
   -1.8800   -4.4008   -0.7521 C   0  0  0  0  0  0  0  0  0  0  0  0
    2.1158    1.4986    0.3551 N   0  0  0  0  0  0  0  0  0  0  0  0
   -2.6832   -5.1685   -1.3710 N   0  0  0  0  0  0  0  0  0  0  0  0
    0.8787   -0.5916    0.2756 N   0  0  0  0  0  0  0  0  0  0  0  0
   -1.7090   -3.0144   -0.8081 N   0  0  0  0  0  0  0  0  0  0  0  0
   -0.4932    1.5176   -0.3224 S   0  0  0  0  0  0  0  0  0  0  0  0
   -0.6868   -5.0385    0.4353 S   0  0  0  0  0  0  0  0  0  0  0  0
   -2.2935   -0.1719   -0.6553 H   0  0  0  0  0  0  0  0  0  0  0  0
    0.7648   -3.2640    1.4107 H   0  0  0  0  0  0  0  0  0  0  0  0
    2.9204    0.9379    0.6448 H   0  0  0  0  0  0  0  0  0  0  0  0
   -3.3056   -4.6524   -1.9969 H   0  0  0  0  0  0  0  0  0  0  0  0
    1.6805   -1.2086    0.2653 H   0  0  0  0  0  0  0  0  0  0  0  0
   -2.0756   -2.5030   -1.6005 H   0  0  0  0  0  0  0  0  0  0  0  0
  1 11  1  0  0  0  0
  1  3  2  0  0  0  0
  2 14  1  0  0  0  0
  3  4  1  0  0  0  0
  3  9  1  0  0  0  0
  4  2  2  0  0  0  0
  5  9  1  0  0  0  0
  5  7  2  0  0  0  0
  6 12  1  0  0  0  0
  7 15  1  0  0  0  0
  8  6  2  0  0  0  0
 10  6  1  0  0  0  0
 10  4  1  0  0  0  0
 11  5  1  0  0  0  0
 12  2  1  0  0  0  0
 13  1  1  0  0  0  0
 16  8  1  0  0  0  0
 17  9  1  0  0  0  0
 18 10  1  0  0  0  0
M  END
>  <HBA>
6

>  <HBD>
2

>  <TPSA>
134.3

>  <cid>
42654

>  <dipole>
0.73

>  <excitation_energy_1>
3.806

>  <excitation_energy_2>
4.11

>  <excitation_energy_3>
4.157

>  <excitation_energy_4>
4.397

>  <homo_energy>
-5.418

>  <homo_lumo_gap>
4.21

>  <logP>
2.593

>  <lumo_energy>
-1.208

>  <melting_point>
170.37

>  <molecular_refractivity>
52.03

>  <oscillator_strength_1>
0.2426

>  <oscillator_strength_2>
0.001

>  <oscillator_strength_3>
0.0547

>  <oscillator_strength_4>
0.0001

>  <open_babel_can_smiles>
N=c1scc([nH]1)c1csc(=N)[nH]1

>  <mulliken_charges>
18
1   -0.42872
2   -0.428782
3   0.352275
4   0.352164
5   0.308947
6   0.308887
7   -0.627367
8   -0.627323
9   -0.655675
10   -0.655389
11   0.255895
12   0.255915
13   0.178864
14   0.178903
15   0.281512
16   0.281515
17   0.334203
18   0.334176

>  <lowdin_charges>
18
1   -0.350325
2   -0.352583
3   0.027558
4   0.02717
5   -0.009158
6   -0.008356
7   -0.430889
8   -0.431556
9   -0.251949
10   -0.251214
11   0.273849
12   0.273208
13   0.187502
14   0.189269
15   0.259112
16   0.259627
17   0.294375
18   0.294362

$$$$

