PCCDB-ID:  55669
public computational chemistry database (PCCDB) project, http://pccdb.org

 19 19  0  0  0  0  0  0  0  0999 V2000
   -0.6788    1.3012    0.1652 C   0  0  0  0  0  0  0  0  0  0  0  0
   -0.7961   -3.5886   -0.6051 C   0  0  0  0  0  0  0  0  0  0  0  0
   -1.3205    0.0754   -0.0073 C   0  0  0  0  0  0  0  0  0  0  0  0
   -1.3257   -2.3655   -0.3968 C   0  0  0  0  0  0  0  0  0  0  0  0
    0.7111    1.3766    0.1271 C   0  0  0  0  0  0  0  0  0  0  0  0
   -1.6104   -4.7475   -0.7610 C   0  0  0  0  0  0  0  0  0  0  0  0
    0.8102   -1.0318   -0.2610 C   0  0  0  0  0  0  0  0  0  0  0  0
   -0.5920   -1.1099   -0.2228 C   0  0  0  0  0  0  0  0  0  0  0  0
    1.4273    0.1985   -0.0865 C   0  0  0  0  0  0  0  0  0  0  0  0
   -2.2622   -5.7039   -0.8897 N   0  0  0  0  0  0  0  0  0  0  0  0
    2.9018    0.2603   -0.1294 N   0  0  0  0  0  0  0  0  0  0  0  0
    3.4278    1.3616    0.0179 O   0  0  0  0  0  0  0  0  0  0  0  0
    3.5118   -0.7923   -0.3096 O   0  0  0  0  0  0  0  0  0  0  0  0
   -1.2636    2.2007    0.3302 H   0  0  0  0  0  0  0  0  0  0  0  0
    0.2766   -3.7528   -0.6644 H   0  0  0  0  0  0  0  0  0  0  0  0
   -2.4058    0.0291    0.0246 H   0  0  0  0  0  0  0  0  0  0  0  0
   -2.4095   -2.2828   -0.3493 H   0  0  0  0  0  0  0  0  0  0  0  0
    1.2421    2.3112    0.2566 H   0  0  0  0  0  0  0  0  0  0  0  0
    1.4315   -1.9035   -0.4231 H   0  0  0  0  0  0  0  0  0  0  0  0
  1 14  1  0  0  0  0
  2  4  2  0  0  0  0
  3 16  1  0  0  0  0
  3  1  2  0  0  0  0
  4 17  1  0  0  0  0
  4  8  1  0  0  0  0
  5  1  1  0  0  0  0
  5 18  1  0  0  0  0
  6  2  1  0  0  0  0
  7  8  2  0  0  0  0
  7  9  1  0  0  0  0
  8  3  1  0  0  0  0
  9  5  2  0  0  0  0
 10  6  3  0  0  0  0
 11  9  1  0  0  0  0
 11 12  2  0  0  0  0
 13 11  2  0  0  0  0
 15  2  1  0  0  0  0
 19  7  1  0  0  0  0
M  END
>  <HBA>
1

>  <HBD>
0

>  <TPSA>
69.61

>  <cid>
55669

>  <dipole>
4.55

>  <excitation_energy_1>
3.625

>  <excitation_energy_2>
3.749

>  <excitation_energy_3>
4.254

>  <excitation_energy_4>
4.462

>  <homo_energy>
-7.203

>  <homo_lumo_gap>
4.367

>  <logP>
2.655

>  <lumo_energy>
-2.835

>  <melting_point>
99.87

>  <molecular_refractivity>
49.91

>  <oscillator_strength_1>
0.0131

>  <oscillator_strength_2>
0.0

>  <oscillator_strength_3>
0.0003

>  <oscillator_strength_4>
0.6014

>  <open_babel_can_smiles>
N#C/C=C/c1cccc(c1)N(=O)=O

>  <mulliken_charges>
19
1   -0.13869
2   -0.146187
3   -0.168839
4   -0.145251
5   -0.14587
6   0.314291
7   -0.203166
8   0.160746
9   0.274311
10   -0.469388
11   0.388188
12   -0.386612
13   -0.389471
14   0.16017
15   0.190597
16   0.156372
17   0.168195
18   0.191985
19   0.188617

>  <lowdin_charges>
19
1   -0.143191
2   -0.165174
3   -0.126483
4   -0.103808
5   -0.130162
6   -0.01278
7   -0.131724
8   -0.002099
9   0.009333
10   -0.109223
11   0.309414
12   -0.237437
13   -0.2408
14   0.174264
15   0.185142
16   0.168419
17   0.174007
18   0.192793
19   0.189508

$$$$

