PCCDB-ID:  62267
public computational chemistry database (PCCDB) project, http://pccdb.org

 23 25  0  0  0  0  0  0  0  0999 V2000
    0.9698   -0.1286   -0.0663 C   0  0  0  0  0  0  0  0  0  0  0  0
    2.5054    2.4425   -0.0635 C   0  0  0  0  0  0  0  0  0  0  0  0
    3.2008    3.6053   -0.0627 C   0  0  0  0  0  0  0  0  0  0  0  0
    6.7081   -0.3535   -0.0481 C   0  0  0  0  0  0  0  0  0  0  0  0
    6.7278   -1.7084   -0.0466 C   0  0  0  0  0  0  0  0  0  0  0  0
    3.2021   -1.2763   -0.0580 C   0  0  0  0  0  0  0  0  0  0  0  0
    2.4805   -0.0897   -0.0615 C   0  0  0  0  0  0  0  0  0  0  0  0
    3.1716    1.1645   -0.0609 C   0  0  0  0  0  0  0  0  0  0  0  0
    5.3146    0.0101   -0.0533 C   0  0  0  0  0  0  0  0  0  0  0  0
    4.5962   -1.1921   -0.0540 C   0  0  0  0  0  0  0  0  0  0  0  0
    4.6548    3.6285   -0.0600 C   0  0  0  0  0  0  0  0  0  0  0  0
    4.5786    1.2025   -0.0567 C   0  0  0  0  0  0  0  0  0  0  0  0
    5.3669    4.6039   -0.0607 O   0  0  0  0  0  0  0  0  0  0  0  0
    5.4595   -2.2475   -0.0501 O   0  0  0  0  0  0  0  0  0  0  0  0
    5.2748    2.3701   -0.0558 O   0  0  0  0  0  0  0  0  0  0  0  0
    0.6104   -1.1614   -0.0641 H   0  0  0  0  0  0  0  0  0  0  0  0
    0.5509    0.3644   -0.9526 H   0  0  0  0  0  0  0  0  0  0  0  0
    0.5451    0.3702    0.8138 H   0  0  0  0  0  0  0  0  0  0  0  0
    1.4197    2.4706   -0.0660 H   0  0  0  0  0  0  0  0  0  0  0  0
    2.7147    4.5739   -0.0647 H   0  0  0  0  0  0  0  0  0  0  0  0
    7.5592    0.3113   -0.0465 H   0  0  0  0  0  0  0  0  0  0  0  0
    7.5292   -2.4316   -0.0427 H   0  0  0  0  0  0  0  0  0  0  0  0
    2.7050   -2.2406   -0.0582 H   0  0  0  0  0  0  0  0  0  0  0  0
  1 16  1  0  0  0  0
  1  7  1  0  0  0  0
  1 18  1  0  0  0  0
  2  3  2  0  0  0  0
  2  8  1  0  0  0  0
  3 11  1  0  0  0  0
  4  5  2  0  0  0  0
  4 21  1  0  0  0  0
  5 22  1  0  0  0  0
  6 10  2  0  0  0  0
  7  8  2  0  0  0  0
  7  6  1  0  0  0  0
  8 12  1  0  0  0  0
  9  4  1  0  0  0  0
 10  9  1  0  0  0  0
 10 14  1  0  0  0  0
 11 15  1  0  0  0  0
 12 15  1  0  0  0  0
 12  9  2  0  0  0  0
 13 11  2  0  0  0  0
 14  5  1  0  0  0  0
 17  1  1  0  0  0  0
 19  2  1  0  0  0  0
 20  3  1  0  0  0  0
 23  6  1  0  0  0  0
M  END
>  <HBA>
3

>  <HBD>
0

>  <TPSA>
43.35

>  <cid>
62267

>  <dipole>
4.38

>  <excitation_energy_1>
3.728

>  <excitation_energy_2>
4.186

>  <excitation_energy_3>
4.543

>  <excitation_energy_4>
4.878

>  <homo_energy>
-6.087

>  <homo_lumo_gap>
4.392

>  <logP>
2.848

>  <lumo_energy>
-1.695

>  <melting_point>
131.73

>  <molecular_refractivity>
57.22

>  <oscillator_strength_1>
0.0276

>  <oscillator_strength_2>
0.201

>  <oscillator_strength_3>
0.0

>  <oscillator_strength_4>
0.0625

>  <open_babel_can_smiles>
O=c1ccc2c(o1)c1ccoc1cc2C

>  <mulliken_charges>
23
1   -0.540834
2   -0.129575
3   -0.21996
4   -0.195722
5   0.075586
6   -0.25139
7   0.114152
8   0.083179
9   0.08599
10   0.331029
11   0.59746
12   0.215074
13   -0.469317
14   -0.47725
15   -0.520648
16   0.166426
17   0.168601
18   0.168514
19   0.152599
20   0.161852
21   0.169718
22   0.168597
23   0.145922

>  <lowdin_charges>
23
1   -0.442824
2   -0.106364
3   -0.207205
4   -0.195179
5   -0.05467
6   -0.193682
7   0.010739
8   -0.061971
9   -0.051631
10   0.094436
11   0.19835
12   0.116155
13   -0.243413
14   -0.105658
15   -0.132938
16   0.162769
17   0.163614
18   0.163603
19   0.168733
20   0.180942
21   0.186287
22   0.178538
23   0.171368

$$$$

