PCCDB-ID:  7972
public computational chemistry database (PCCDB) project, http://pccdb.org

 18 18  0  0  0  0  0  0  0  0999 V2000
    0.8775    0.0165    0.0067 C   0  0  0  0  0  0  0  0  0  0  0  0
    2.8799    1.1630   -0.7192 C   0  0  0  0  0  0  0  0  0  0  0  0
    2.8240   -1.2355   -0.6962 C   0  0  0  0  0  0  0  0  0  0  0  0
    4.4057    1.0975   -0.7123 C   0  0  0  0  0  0  0  0  0  0  0  0
    4.3513   -1.2404   -0.6896 C   0  0  0  0  0  0  0  0  0  0  0  0
    2.3295   -0.0179   -0.0550 N   0  0  0  0  0  0  0  0  0  0  0  0
    4.8737   -0.0892   -1.3396 O   0  0  0  0  0  0  0  0  0  0  0  0
    0.5525    0.9163    0.5411 H   0  0  0  0  0  0  0  0  0  0  0  0
    0.5113   -0.8576    0.5571 H   0  0  0  0  0  0  0  0  0  0  0  0
    0.3965    0.0186   -0.9916 H   0  0  0  0  0  0  0  0  0  0  0  0
    2.5261    1.2473   -1.7668 H   0  0  0  0  0  0  0  0  0  0  0  0
    2.5465    2.0603   -0.1824 H   0  0  0  0  0  0  0  0  0  0  0  0
    2.4498   -2.1060   -0.1425 H   0  0  0  0  0  0  0  0  0  0  0  0
    2.4664   -1.3236   -1.7422 H   0  0  0  0  0  0  0  0  0  0  0  0
    4.7696    1.1450    0.3273 H   0  0  0  0  0  0  0  0  0  0  0  0
    4.8326    1.9340   -1.2739 H   0  0  0  0  0  0  0  0  0  0  0  0
    4.7390   -2.1066   -1.2345 H   0  0  0  0  0  0  0  0  0  0  0  0
    4.7126   -1.2843    0.3511 H   0  0  0  0  0  0  0  0  0  0  0  0
  1  8  1  0  0  0  0
  1  9  1  0  0  0  0
  2  4  1  0  0  0  0
  2 12  1  0  0  0  0
  2  6  1  0  0  0  0
  3  5  1  0  0  0  0
  3 13  1  0  0  0  0
  3  6  1  0  0  0  0
  4 15  1  0  0  0  0
  5 18  1  0  0  0  0
  6  1  1  0  0  0  0
  7  4  1  0  0  0  0
  7  5  1  0  0  0  0
 10  1  1  0  0  0  0
 11  2  1  0  0  0  0
 14  3  1  0  0  0  0
 16  4  1  0  0  0  0
 17  5  1  0  0  0  0
M  END
>  <HBA>
2

>  <HBD>
0

>  <TPSA>
12.47

>  <cid>
7972

>  <dipole>
1.29

>  <excitation_energy_1>
5.527

>  <excitation_energy_2>
5.935

>  <excitation_energy_3>
5.983

>  <excitation_energy_4>
6.164

>  <homo_energy>
-5.848

>  <homo_lumo_gap>
8.272

>  <logP>
-0.114

>  <lumo_energy>
2.425

>  <melting_point>
-9.63

>  <molecular_refractivity>
31.93

>  <oscillator_strength_1>
0.0172

>  <oscillator_strength_2>
0.0665

>  <oscillator_strength_3>
0.0073

>  <oscillator_strength_4>
0.071

>  <open_babel_can_smiles>
CN1CCOCC1

>  <mulliken_charges>
18
1   -0.289273
2   -0.129908
3   -0.129988
4   -0.032735
5   -0.032646
6   -0.385741
7   -0.467577
8   0.148225
9   0.148222
10   0.119682
11   0.117452
12   0.13673
13   0.136742
14   0.117445
15   0.12822
16   0.143482
17   0.143455
18   0.128214

>  <lowdin_charges>
18
1   -0.35594
2   -0.215179
3   -0.215454
4   -0.136288
5   -0.136099
6   -0.18995
7   -0.273788
8   0.150392
9   0.150615
10   0.121391
11   0.119498
12   0.14867
13   0.148897
14   0.119516
15   0.130153
16   0.151837
17   0.151592
18   0.130137

$$$$

