PCCDB-ID:  38679
public computational chemistry database (PCCDB) project, http://pccdb.org

 14 13  0  0  1  0  0  0  0  0999 V2000
    2.2996    0.3684    1.1936 C   0  0  0  0  0  0  0  0  0  0  0  0
    3.9833   -0.6351   -2.1506 C   0  0  0  0  0  0  0  0  0  0  0  0
    2.4559   -0.3594   -0.1267 C   0  0  0  0  0  0  0  0  0  0  0  0
    3.2751    0.3434   -1.2191 C   0  0  2  0  0  0  0  0  0  0  0  0
    1.9610   -1.4509   -0.3342 O   0  0  0  0  0  0  0  0  0  0  0  0
    2.1198    1.4924   -2.1149 S   0  0  0  0  0  0  0  0  0  0  0  0
    3.2622    0.3733    1.7227 H   0  0  0  0  0  0  0  0  0  0  0  0
    1.5572   -0.1400    1.8117 H   0  0  0  0  0  0  0  0  0  0  0  0
    2.0079    1.4119    1.0358 H   0  0  0  0  0  0  0  0  0  0  0  0
    4.7073   -1.2363   -1.5869 H   0  0  0  0  0  0  0  0  0  0  0  0
    4.5132   -0.1001   -2.9429 H   0  0  0  0  0  0  0  0  0  0  0  0
    3.2632   -1.3231   -2.6011 H   0  0  0  0  0  0  0  0  0  0  0  0
    3.9903    1.0321   -0.7552 H   0  0  0  0  0  0  0  0  0  0  0  0
    1.2880    0.5249   -2.5597 H   0  0  0  0  0  0  0  0  0  0  0  0
  1  7  1  0  0  0  0
  1  8  1  0  0  0  0
  2 10  1  0  0  0  0
  2  4  1  0  0  0  0
  3  1  1  0  0  0  0
  4 13  1  1  0  0  0
  4  3  1  0  0  0  0
  5  3  2  0  0  0  0
  6  4  1  0  0  0  0
  9  1  1  0  0  0  0
 11  2  1  0  0  0  0
 12  2  1  0  0  0  0
 14  6  1  0  0  0  0
M  END
>  <HBA>
2

>  <HBD>
1

>  <TPSA>
55.87

>  <cid>
38679

>  <dipole>
1.8

>  <excitation_energy_1>
4.157

>  <excitation_energy_2>
4.89

>  <excitation_energy_3>
5.51

>  <excitation_energy_4>
6.197

>  <homo_energy>
-6.555

>  <homo_lumo_gap>
5.695

>  <logP>
0.894

>  <lumo_energy>
-0.86

>  <melting_point>
16.42

>  <molecular_refractivity>
29.47

>  <oscillator_strength_1>
0.0077

>  <oscillator_strength_2>
0.0064

>  <oscillator_strength_3>
0.01

>  <oscillator_strength_4>
0.0364

>  <open_babel_can_smiles>
CC(=O)[C@H](S)C

>  <mulliken_charges>
14
1   -0.53351
2   -0.428183
3   0.467
4   -0.328112
5   -0.435372
6   -0.068498
7   0.170863
8   0.182643
9   0.185611
10   0.156037
11   0.162628
12   0.175293
13   0.179116
14   0.114484

>  <lowdin_charges>
14
1   -0.473022
2   -0.446307
3   0.155823
4   -0.24542
5   -0.234117
6   -0.067856
7   0.171843
8   0.175896
9   0.17652
10   0.159109
11   0.163375
12   0.168082
13   0.169731
14   0.126342

$$$$

