PCCDB-ID:  31738
public computational chemistry database (PCCDB) project, http://pccdb.org

 30 31  0  0  0  0  0  0  0  0999 V2000
    3.6296    3.5208   -1.0400 C   0  0  0  0  0  0  0  0  0  0  0  0
    3.9544    2.9338    0.1851 C   0  0  0  0  0  0  0  0  0  0  0  0
    2.9064    2.7881   -1.9815 C   0  0  0  0  0  0  0  0  0  0  0  0
    3.5581    1.6256    0.4619 C   0  0  0  0  0  0  0  0  0  0  0  0
    2.5131    1.4783   -1.6987 C   0  0  0  0  0  0  0  0  0  0  0  0
    4.1757   -1.7103   -1.6472 C   0  0  0  0  0  0  0  0  0  0  0  0
    3.1128   -2.9632    0.2583 C   0  0  0  0  0  0  0  0  0  0  0  0
    5.2590   -2.7931   -1.6918 C   0  0  0  0  0  0  0  0  0  0  0  0
    4.2353   -4.0003    0.1432 C   0  0  0  0  0  0  0  0  0  0  0  0
    2.4224   -0.5509   -0.1684 C   0  0  0  0  0  0  0  0  0  0  0  0
    2.8327    0.8749   -0.4754 C   0  0  0  0  0  0  0  0  0  0  0  0
    3.5743   -1.5800   -0.2362 C   0  0  0  0  0  0  0  0  0  0  0  0
    4.7007   -4.0698   -1.2426 N   0  0  0  0  0  0  0  0  0  0  0  0
    3.9345    4.5413   -1.2562 H   0  0  0  0  0  0  0  0  0  0  0  0
    4.5120    3.4978    0.9286 H   0  0  0  0  0  0  0  0  0  0  0  0
    2.6439    3.2359   -2.9367 H   0  0  0  0  0  0  0  0  0  0  0  0
    3.8089    1.1807    1.4229 H   0  0  0  0  0  0  0  0  0  0  0  0
    1.9449    0.9161   -2.4366 H   0  0  0  0  0  0  0  0  0  0  0  0
    3.3811   -1.9820   -2.3561 H   0  0  0  0  0  0  0  0  0  0  0  0
    4.5957   -0.7522   -1.9748 H   0  0  0  0  0  0  0  0  0  0  0  0
    2.7725   -2.9012    1.3007 H   0  0  0  0  0  0  0  0  0  0  0  0
    2.2596   -3.3003   -0.3461 H   0  0  0  0  0  0  0  0  0  0  0  0
    6.1192   -2.4646   -1.0727 H   0  0  0  0  0  0  0  0  0  0  0  0
    5.6281   -2.9163   -2.7168 H   0  0  0  0  0  0  0  0  0  0  0  0
    3.8680   -4.9905    0.4381 H   0  0  0  0  0  0  0  0  0  0  0  0
    5.0459   -3.7287    0.8508 H   0  0  0  0  0  0  0  0  0  0  0  0
    1.6296   -0.8627   -0.8616 H   0  0  0  0  0  0  0  0  0  0  0  0
    1.9850   -0.5924    0.8391 H   0  0  0  0  0  0  0  0  0  0  0  0
    4.3738   -1.2328    0.4382 H   0  0  0  0  0  0  0  0  0  0  0  0
    5.4017   -4.8023   -1.3327 H   0  0  0  0  0  0  0  0  0  0  0  0
  1  2  2  0  0  0  0
  2  4  1  0  0  0  0
  2 15  1  0  0  0  0
  3  5  2  0  0  0  0
  3  1  1  0  0  0  0
  4 17  1  0  0  0  0
  5 11  1  0  0  0  0
  6 12  1  0  0  0  0
  7 21  1  0  0  0  0
  8  6  1  0  0  0  0
  8 13  1  0  0  0  0
  8 23  1  0  0  0  0
  9  7  1  0  0  0  0
  9 25  1  0  0  0  0
  9 26  1  0  0  0  0
 10 28  1  0  0  0  0
 11 10  1  0  0  0  0
 11  4  2  0  0  0  0
 12 10  1  0  0  0  0
 12  7  1  0  0  0  0
 12 29  1  0  0  0  0
 13  9  1  0  0  0  0
 14  1  1  0  0  0  0
 16  3  1  0  0  0  0
 18  5  1  0  0  0  0
 19  6  1  0  0  0  0
 20  6  1  0  0  0  0
 22  7  1  0  0  0  0
 24  8  1  0  0  0  0
 27 10  1  0  0  0  0
 30 13  1  0  0  0  0
M  END
>  <HBA>
1

>  <HBD>
1

>  <TPSA>
12.03

>  <cid>
31738

>  <dipole>
0.95

>  <excitation_energy_1>
5.252

>  <excitation_energy_2>
5.279

>  <excitation_energy_3>
5.356

>  <excitation_energy_4>
5.452

>  <homo_energy>
-5.867

>  <homo_lumo_gap>
5.957

>  <logP>
2.558

>  <lumo_energy>
0.09

>  <melting_point>
53.59

>  <molecular_refractivity>
60.05

>  <oscillator_strength_1>
0.0011

>  <oscillator_strength_2>
0.0015

>  <oscillator_strength_3>
0.0044

>  <oscillator_strength_4>
0.0017

>  <open_babel_can_smiles>
N1CCC(CC1)Cc1ccccc1

>  <mulliken_charges>
30
1   -0.132123
2   -0.128466
3   -0.128043
4   -0.180534
5   -0.185739
6   -0.254363
7   -0.251393
8   -0.134774
9   -0.132703
10   -0.353901
11   0.176554
12   -0.08235
13   -0.544546
14   0.126302
15   0.126541
16   0.126993
17   0.121317
18   0.12333
19   0.133629
20   0.141745
21   0.124565
22   0.138469
23   0.106801
24   0.134425
25   0.13402
26   0.105466
27   0.136956
28   0.139467
29   0.118595
30   0.293758

>  <lowdin_charges>
30
1   -0.161392
2   -0.157157
3   -0.156218
4   -0.167604
5   -0.170765
6   -0.285067
7   -0.281212
8   -0.203676
9   -0.204392
10   -0.273561
11   0.000406
12   -0.128063
13   -0.368941
14   0.155132
15   0.157366
16   0.15622
17   0.152934
18   0.155578
19   0.143663
20   0.151003
21   0.14052
22   0.14564
23   0.113718
24   0.143289
25   0.143638
26   0.113224
27   0.147576
28   0.149053
29   0.134989
30   0.254097

$$$$

