PCCDB-ID:  23367
public computational chemistry database (PCCDB) project, http://pccdb.org

 33 33  0  0  0  0  0  0  0  0999 V2000
    2.6681   -1.1869    1.1856 C   0  0  0  0  0  0  0  0  0  0  0  0
    2.6555   -0.4860   -0.1766 C   0  0  0  0  0  0  0  0  0  0  0  0
    2.5944   -1.4647   -1.3560 C   0  0  0  0  0  0  0  0  0  0  0  0
    8.0297   -2.8527   -0.5559 C   0  0  0  0  0  0  0  0  0  0  0  0
    2.5944   -0.7623   -2.7199 C   0  0  0  0  0  0  0  0  0  0  0  0
    8.3468   -1.8848   -1.5107 C   0  0  0  0  0  0  0  0  0  0  0  0
    7.0581   -3.8155   -0.8390 C   0  0  0  0  0  0  0  0  0  0  0  0
    7.6936   -1.8827   -2.7437 C   0  0  0  0  0  0  0  0  0  0  0  0
    6.4062   -3.8127   -2.0726 C   0  0  0  0  0  0  0  0  0  0  0  0
    2.4789   -1.7269   -3.9190 C   0  0  0  0  0  0  0  0  0  0  0  0
    6.0082   -2.8266   -4.3683 C   0  0  0  0  0  0  0  0  0  0  0  0
    6.7188   -2.8441   -3.0373 C   0  0  0  0  0  0  0  0  0  0  0  0
    3.6448   -2.6917   -4.0017 C   0  0  0  0  0  0  0  0  0  0  0  0
    3.5818   -3.8865   -3.7985 O   0  0  0  0  0  0  0  0  0  0  0  0
    4.7880   -2.0354   -4.3168 O   0  0  0  0  0  0  0  0  0  0  0  0
    2.7105   -0.4634    2.0078 H   0  0  0  0  0  0  0  0  0  0  0  0
    3.5362   -1.8506    1.2798 H   0  0  0  0  0  0  0  0  0  0  0  0
    1.7681   -1.7983    1.3255 H   0  0  0  0  0  0  0  0  0  0  0  0
    3.5531    0.1413   -0.2729 H   0  0  0  0  0  0  0  0  0  0  0  0
    1.7977    0.1998   -0.2288 H   0  0  0  0  0  0  0  0  0  0  0  0
    1.6921   -2.0876   -1.2672 H   0  0  0  0  0  0  0  0  0  0  0  0
    3.4463   -2.1564   -1.2955 H   0  0  0  0  0  0  0  0  0  0  0  0
    8.5392   -2.8581    0.4041 H   0  0  0  0  0  0  0  0  0  0  0  0
    3.5089   -0.1668   -2.8311 H   0  0  0  0  0  0  0  0  0  0  0  0
    1.7528   -0.0584   -2.7684 H   0  0  0  0  0  0  0  0  0  0  0  0
    9.1033   -1.1344   -1.2969 H   0  0  0  0  0  0  0  0  0  0  0  0
    6.8118   -4.5738   -0.1005 H   0  0  0  0  0  0  0  0  0  0  0  0
    7.9431   -1.1290   -3.4874 H   0  0  0  0  0  0  0  0  0  0  0  0
    5.6443   -4.5538   -2.2948 H   0  0  0  0  0  0  0  0  0  0  0  0
    2.4394   -1.1471   -4.8487 H   0  0  0  0  0  0  0  0  0  0  0  0
    1.5676   -2.3277   -3.8469 H   0  0  0  0  0  0  0  0  0  0  0  0
    5.7511   -3.8349   -4.6983 H   0  0  0  0  0  0  0  0  0  0  0  0
    6.6150   -2.3329   -5.1305 H   0  0  0  0  0  0  0  0  0  0  0  0
  1 17  1  0  0  0  0
  1 18  1  0  0  0  0
  1 16  1  0  0  0  0
  2  1  1  0  0  0  0
  3 22  1  0  0  0  0
  3 21  1  0  0  0  0
  3  2  1  0  0  0  0
  4 23  1  0  0  0  0
  5  3  1  0  0  0  0
  6 26  1  0  0  0  0
  6  4  2  0  0  0  0
  7  4  1  0  0  0  0
  7 27  1  0  0  0  0
  8  6  1  0  0  0  0
  9  7  2  0  0  0  0
 10 31  1  0  0  0  0
 10  5  1  0  0  0  0
 11 15  1  0  0  0  0
 11 12  1  0  0  0  0
 12  8  2  0  0  0  0
 12  9  1  0  0  0  0
 13 10  1  0  0  0  0
 13 14  2  0  0  0  0
 15 13  1  0  0  0  0
 19  2  1  0  0  0  0
 20  2  1  0  0  0  0
 24  5  1  0  0  0  0
 25  5  1  0  0  0  0
 28  8  1  0  0  0  0
 29  9  1  0  0  0  0
 30 10  1  0  0  0  0
 32 11  1  0  0  0  0
 33 11  1  0  0  0  0
M  END
>  <HBA>
2

>  <HBD>
0

>  <TPSA>
26.3

>  <cid>
23367

>  <dipole>
1.8

>  <excitation_energy_1>
5.292

>  <excitation_energy_2>
5.649

>  <excitation_energy_3>
5.869

>  <excitation_energy_4>
6.168

>  <homo_energy>
-6.748

>  <homo_lumo_gap>
6.446

>  <logP>
3.31

>  <lumo_energy>
-0.302

>  <melting_point>
15.61

>  <molecular_refractivity>
61.53

>  <oscillator_strength_1>
0.0011

>  <oscillator_strength_2>
0.003

>  <oscillator_strength_3>
0.0575

>  <oscillator_strength_4>
0.0028

>  <open_babel_can_smiles>
CCCCCC(=O)OCc1ccccc1

>  <mulliken_charges>
33
1   -0.442599
2   -0.247788
3   -0.254954
4   -0.126238
5   -0.268686
6   -0.129311
7   -0.132042
8   -0.173293
9   -0.180332
10   -0.336704
11   -0.143841
12   0.147307
13   0.614761
14   -0.481315
15   -0.452512
16   0.140751
17   0.145617
18   0.141637
19   0.133483
20   0.128551
21   0.13161
22   0.148183
23   0.131759
24   0.15334
25   0.137114
26   0.131579
27   0.134029
28   0.128753
29   0.163057
30   0.160831
31   0.163985
32   0.178364
33   0.154906

>  <lowdin_charges>
33
1   -0.445494
2   -0.272017
3   -0.279812
4   -0.152186
5   -0.270729
6   -0.156616
7   -0.15675
8   -0.158752
9   -0.156914
10   -0.29522
11   -0.130409
12   -0.023039
13   0.197313
14   -0.27147
15   -0.197987
16   0.149345
17   0.148758
18   0.146713
19   0.140736
20   0.138033
21   0.140581
22   0.147643
23   0.158302
24   0.150611
25   0.145368
26   0.159119
27   0.16047
28   0.157719
29   0.173017
30   0.166017
31   0.163878
32   0.165476
33   0.158297

$$$$

