PCCDB-ID:  25090
public computational chemistry database (PCCDB) project, http://pccdb.org

 23 24  0  0  0  0  0  0  0  0999 V2000
    0.7892    0.0449   -0.1617 C   0  0  0  0  0  0  0  0  0  0  0  0
    3.0203    1.2113    0.1566 C   0  0  0  0  0  0  0  0  0  0  0  0
    4.3999    1.2209    0.3124 C   0  0  0  0  0  0  0  0  0  0  0  0
    2.9999   -1.1818   -0.0243 C   0  0  0  0  0  0  0  0  0  0  0  0
    5.1816   -2.4072    0.1262 C   0  0  0  0  0  0  0  0  0  0  0  0
    2.2921    0.0130   -0.0125 C   0  0  0  0  0  0  0  0  0  0  0  0
    4.4015   -1.2076    0.1323 C   0  0  0  0  0  0  0  0  0  0  0  0
    6.5372   -2.3890    0.2787 C   0  0  0  0  0  0  0  0  0  0  0  0
    5.0902    0.0063    0.3019 C   0  0  0  0  0  0  0  0  0  0  0  0
    7.3255   -3.6515    0.2622 C   0  0  0  0  0  0  0  0  0  0  0  0
    7.2531   -1.1131    0.4630 C   0  0  0  0  0  0  0  0  0  0  0  0
    6.5163   -4.7444    0.1225 O   0  0  0  0  0  0  0  0  0  0  0  0
    8.5264   -3.7570    0.3538 O   0  0  0  0  0  0  0  0  0  0  0  0
    8.4311   -0.9390    0.6184 O   0  0  0  0  0  0  0  0  0  0  0  0
    6.4388    0.0357    0.4553 O   0  0  0  0  0  0  0  0  0  0  0  0
    0.4779    0.7713   -0.9213 H   0  0  0  0  0  0  0  0  0  0  0  0
    0.3016    0.3321    0.7787 H   0  0  0  0  0  0  0  0  0  0  0  0
    0.3962   -0.9341   -0.4523 H   0  0  0  0  0  0  0  0  0  0  0  0
    2.4845    2.1576    0.1638 H   0  0  0  0  0  0  0  0  0  0  0  0
    4.9541    2.1446    0.4402 H   0  0  0  0  0  0  0  0  0  0  0  0
    2.4748   -2.1250   -0.1569 H   0  0  0  0  0  0  0  0  0  0  0  0
    4.6770   -3.3591   -0.0056 H   0  0  0  0  0  0  0  0  0  0  0  0
    7.1222   -5.5079    0.1165 H   0  0  0  0  0  0  0  0  0  0  0  0
  1  6  1  0  0  0  0
  1 17  1  0  0  0  0
  2 19  1  0  0  0  0
  2  3  2  0  0  0  0
  3 20  1  0  0  0  0
  4  6  2  0  0  0  0
  4  7  1  0  0  0  0
  5  7  1  0  0  0  0
  5  8  2  0  0  0  0
  6  2  1  0  0  0  0
  7  9  2  0  0  0  0
  8 11  1  0  0  0  0
  9  3  1  0  0  0  0
  9 15  1  0  0  0  0
 10  8  1  0  0  0  0
 10 13  2  0  0  0  0
 11 14  2  0  0  0  0
 12 10  1  0  0  0  0
 15 11  1  0  0  0  0
 16  1  1  0  0  0  0
 18  1  1  0  0  0  0
 21  4  1  0  0  0  0
 22  5  1  0  0  0  0
 23 12  1  0  0  0  0
M  END
>  <HBA>
4

>  <HBD>
1

>  <TPSA>
67.51

>  <cid>
25090

>  <dipole>
7.04

>  <excitation_energy_1>
3.577

>  <excitation_energy_2>
3.72

>  <excitation_energy_3>
4.266

>  <excitation_energy_4>
4.504

>  <homo_energy>
-6.574

>  <homo_lumo_gap>
4.128

>  <logP>
1.8

>  <lumo_energy>
-2.446

>  <melting_point>
179.49

>  <molecular_refractivity>
54.41

>  <oscillator_strength_1>
0.1134

>  <oscillator_strength_2>
0.0001

>  <oscillator_strength_3>
0.3101

>  <oscillator_strength_4>
0.0

>  <open_babel_can_smiles>
Cc1ccc2c(c1)cc(c(=O)o2)C(=O)O

>  <mulliken_charges>
23
1   -0.532837
2   -0.173617
3   -0.168216
4   -0.254998
5   -0.169262
6   0.177191
7   0.141519
8   -0.052505
9   0.321585
10   0.564055
11   0.573463
12   -0.596949
13   -0.437136
14   -0.419318
15   -0.522666
16   0.167237
17   0.171561
18   0.161891
19   0.142437
20   0.162283
21   0.140105
22   0.189372
23   0.414805

>  <lowdin_charges>
23
1   -0.441966
2   -0.133818
3   -0.170861
4   -0.150084
5   -0.078656
6   -0.005838
7   -0.045783
8   -0.09451
9   0.119295
10   0.193837
11   0.200465
12   -0.37537
13   -0.232188
14   -0.20166
15   -0.13325
16   0.164565
17   0.165494
18   0.160449
19   0.165578
20   0.179135
21   0.163369
22   0.186593
23   0.365206

$$$$

