PCCDB-ID:  44673
public computational chemistry database (PCCDB) project, http://pccdb.org

 26 25  0  0  1  0  0  0  0  0999 V2000
    1.0779   -0.6591    1.5485 C   0  0  0  0  0  0  0  0  0  0  0  0
    6.6739    2.2353    0.2765 C   0  0  0  0  0  0  0  0  0  0  0  0
    4.7417    2.1600   -1.3270 C   0  0  0  0  0  0  0  0  0  0  0  0
    2.5806   -0.3987    1.6887 C   0  0  0  0  0  0  0  0  0  0  0  0
    3.0734    0.7657    0.8193 C   0  0  0  0  0  0  0  0  0  0  0  0
    4.5817    1.0276    0.9872 C   0  0  1  0  0  0  0  0  0  0  0  0
    5.1413    2.2291    0.1559 C   0  0  0  0  0  0  0  0  0  0  0  0
    4.6370    3.4530    0.8277 N   0  0  0  0  0  0  0  0  0  0  0  0
    4.9016    1.2408    2.3567 O   0  0  0  0  0  0  0  0  0  0  0  0
    0.7575   -1.4936    2.1830 H   0  0  0  0  0  0  0  0  0  0  0  0
    0.8067   -0.9055    0.5139 H   0  0  0  0  0  0  0  0  0  0  0  0
    0.4933    0.2226    1.8405 H   0  0  0  0  0  0  0  0  0  0  0  0
    7.1004    1.3495   -0.2065 H   0  0  0  0  0  0  0  0  0  0  0  0
    6.9769    2.2309    1.3263 H   0  0  0  0  0  0  0  0  0  0  0  0
    7.1009    3.1197   -0.2142 H   0  0  0  0  0  0  0  0  0  0  0  0
    5.0425    1.2068   -1.7802 H   0  0  0  0  0  0  0  0  0  0  0  0
    5.2321    2.9640   -1.8895 H   0  0  0  0  0  0  0  0  0  0  0  0
    3.6602    2.2675   -1.4659 H   0  0  0  0  0  0  0  0  0  0  0  0
    3.1373   -1.3078    1.4181 H   0  0  0  0  0  0  0  0  0  0  0  0
    2.8327   -0.1866    2.7331 H   0  0  0  0  0  0  0  0  0  0  0  0
    2.5113    1.6743    1.0846 H   0  0  0  0  0  0  0  0  0  0  0  0
    2.8452    0.5499   -0.2337 H   0  0  0  0  0  0  0  0  0  0  0  0
    5.1223    0.1214    0.6793 H   0  0  0  0  0  0  0  0  0  0  0  0
    3.6850    3.6565    0.5265 H   0  0  0  0  0  0  0  0  0  0  0  0
    5.2017    4.2586    0.5647 H   0  0  0  0  0  0  0  0  0  0  0  0
    4.7596    2.2042    2.4708 H   0  0  0  0  0  0  0  0  0  0  0  0
  1  4  1  0  0  0  0
  1 12  1  0  0  0  0
  1 10  1  0  0  0  0
  2 14  1  0  0  0  0
  3  7  1  0  0  0  0
  4 20  1  0  0  0  0
  5  6  1  0  0  0  0
  5 21  1  0  0  0  0
  5  4  1  0  0  0  0
  6 23  1  6  0  0  0
  6  9  1  0  0  0  0
  7  2  1  0  0  0  0
  7  8  1  0  0  0  0
  7  6  1  0  0  0  0
  9 26  1  0  0  0  0
 11  1  1  0  0  0  0
 13  2  1  0  0  0  0
 15  2  1  0  0  0  0
 16  3  1  0  0  0  0
 17  3  1  0  0  0  0
 18  3  1  0  0  0  0
 19  4  1  0  0  0  0
 22  5  1  0  0  0  0
 24  8  1  0  0  0  0
 25  8  1  0  0  0  0
M  END
>  <HBA>
2

>  <HBD>
2

>  <TPSA>
46.25

>  <cid>
44673

>  <dipole>
2.97

>  <excitation_energy_1>
6.019

>  <excitation_energy_2>
6.267

>  <excitation_energy_3>
6.76

>  <excitation_energy_4>
6.856

>  <homo_energy>
-6.615

>  <homo_lumo_gap>
8.327

>  <logP>
1.585

>  <lumo_energy>
1.712

>  <melting_point>
56.66

>  <molecular_refractivity>
39.67

>  <oscillator_strength_1>
0.033

>  <oscillator_strength_2>
0.01

>  <oscillator_strength_3>
0.0096

>  <oscillator_strength_4>
0.0219

>  <open_babel_can_smiles>
CCC[C@@H](C(N)(C)C)O

>  <mulliken_charges>
26
1   -0.442916
2   -0.449709
3   -0.457409
4   -0.245287
5   -0.273032
6   0.165904
7   0.163027
8   -0.754114
9   -0.647672
10   0.141784
11   0.135418
12   0.137668
13   0.146148
14   0.17104
15   0.128141
16   0.145623
17   0.13767
18   0.142708
19   0.125556
20   0.158381
21   0.115152
22   0.123814
23   0.117416
24   0.304515
25   0.304895
26   0.405279

>  <lowdin_charges>
26
1   -0.445368
2   -0.448018
3   -0.456927
4   -0.27133
5   -0.293657
6   -0.00888
7   0.047136
8   -0.548502
9   -0.471197
10   0.149905
11   0.14159
12   0.144704
13   0.154415
14   0.16331
15   0.142467
16   0.152327
17   0.149297
18   0.146378
19   0.138042
20   0.152316
21   0.133942
22   0.137909
23   0.136319
24   0.255509
25   0.261169
26   0.337144

$$$$

