PCCDB-ID:  13578
public computational chemistry database (PCCDB) project, http://pccdb.org

 18 17  0  0  0  0  0  0  0  0999 V2000
    1.2918   -0.1386   -0.0026 C   0  0  0  0  0  0  0  0  0  0  0  0
   -2.9443    1.8769   -0.5636 C   0  0  0  0  0  0  0  0  0  0  0  0
    0.6596    1.2084   -0.3104 C   0  0  0  0  0  0  0  0  0  0  0  0
   -1.4683    2.1925   -0.7481 C   0  0  0  0  0  0  0  0  0  0  0  0
    1.0400   -1.0683   -1.1047 N   0  0  0  0  0  0  0  0  0  0  0  0
   -3.2371    1.5683    0.7884 O   0  0  0  0  0  0  0  0  0  0  0  0
   -0.7518    1.0315   -0.3500 O   0  0  0  0  0  0  0  0  0  0  0  0
    0.9172   -0.4779    0.9804 H   0  0  0  0  0  0  0  0  0  0  0  0
    2.3750    0.0051    0.0969 H   0  0  0  0  0  0  0  0  0  0  0  0
   -3.2216    1.0474   -1.2347 H   0  0  0  0  0  0  0  0  0  0  0  0
   -3.5500    2.7478   -0.8352 H   0  0  0  0  0  0  0  0  0  0  0  0
    1.0207    1.5725   -1.2841 H   0  0  0  0  0  0  0  0  0  0  0  0
    0.9273    1.9487    0.4610 H   0  0  0  0  0  0  0  0  0  0  0  0
   -1.1866    3.0476   -0.1131 H   0  0  0  0  0  0  0  0  0  0  0  0
   -1.2438    2.4498   -1.7962 H   0  0  0  0  0  0  0  0  0  0  0  0
    0.0326   -1.1785   -1.2075 H   0  0  0  0  0  0  0  0  0  0  0  0
    1.4120   -1.9883   -0.8768 H   0  0  0  0  0  0  0  0  0  0  0  0
   -2.5671    0.9155    1.0516 H   0  0  0  0  0  0  0  0  0  0  0  0
  1  9  1  0  0  0  0
  1  8  1  0  0  0  0
  2  6  1  0  0  0  0
  3  1  1  0  0  0  0
  3 13  1  0  0  0  0
  4  2  1  0  0  0  0
  4  7  1  0  0  0  0
  4 14  1  0  0  0  0
  5 17  1  0  0  0  0
  5  1  1  0  0  0  0
  6 18  1  0  0  0  0
  7  3  1  0  0  0  0
 10  2  1  0  0  0  0
 11  2  1  0  0  0  0
 12  3  1  0  0  0  0
 15  4  1  0  0  0  0
 16  5  1  0  0  0  0
M  END
>  <HBA>
3

>  <HBD>
2

>  <TPSA>
55.48

>  <cid>
13578

>  <dipole>
1.47

>  <excitation_energy_1>
5.755

>  <excitation_energy_2>
6.432

>  <excitation_energy_3>
6.596

>  <excitation_energy_4>
6.661

>  <homo_energy>
-6.381

>  <homo_lumo_gap>
8.419

>  <logP>
-0.346

>  <lumo_energy>
2.038

>  <melting_point>
38.68

>  <molecular_refractivity>
26.3

>  <oscillator_strength_1>
0.0078

>  <oscillator_strength_2>
0.0093

>  <oscillator_strength_3>
0.0131

>  <oscillator_strength_4>
0.0376

>  <open_babel_can_smiles>
NCCOCCO

>  <mulliken_charges>
18
1   -0.147146
2   -0.034994
3   -0.006151
4   -0.032606
5   -0.719094
6   -0.621544
7   -0.499865
8   0.122506
9   0.143093
10   0.128687
11   0.14554
12   0.138147
13   0.123544
14   0.131969
15   0.126207
16   0.307268
17   0.296703
18   0.397737

>  <lowdin_charges>
18
1   -0.207073
2   -0.140362
3   -0.132615
4   -0.148028
5   -0.557418
6   -0.470424
7   -0.290262
8   0.123143
9   0.146635
10   0.132235
11   0.151196
12   0.138298
13   0.132312
14   0.13493
15   0.133002
16   0.256203
17   0.254712
18   0.343516

$$$$

