PCCDB-ID:  26335
public computational chemistry database (PCCDB) project, http://pccdb.org

 17 17  0  0  0  0  0  0  0  0999 V2000
    2.3223   -1.3310    0.1967 C   0  0  0  0  0  0  0  0  0  0  0  0
    5.1644    3.9483    2.8493 C   0  0  0  0  0  0  0  0  0  0  0  0
    2.0586   -0.0197    0.2167 C   0  0  0  0  0  0  0  0  0  0  0  0
    4.6808    1.5349    2.1952 C   0  0  0  0  0  0  0  0  0  0  0  0
    2.5325    2.3436    0.8732 C   0  0  0  0  0  0  0  0  0  0  0  0
    4.3355    2.8988    2.1565 C   0  0  0  0  0  0  0  0  0  0  0  0
    2.8775    0.9844    0.9088 C   0  0  0  0  0  0  0  0  0  0  0  0
    3.2451    3.2938    1.4849 N   0  0  0  0  0  0  0  0  0  0  0  0
    3.9746    0.5886    1.5876 N   0  0  0  0  0  0  0  0  0  0  0  0
    1.6802   -2.0278   -0.3332 H   0  0  0  0  0  0  0  0  0  0  0  0
    3.1888   -1.7335    0.7121 H   0  0  0  0  0  0  0  0  0  0  0  0
    5.3061    3.7116    3.9107 H   0  0  0  0  0  0  0  0  0  0  0  0
    4.6696    4.9185    2.7676 H   0  0  0  0  0  0  0  0  0  0  0  0
    6.1624    4.0282    2.3999 H   0  0  0  0  0  0  0  0  0  0  0  0
    1.1851    0.3682   -0.3055 H   0  0  0  0  0  0  0  0  0  0  0  0
    5.5641    1.2079    2.7436 H   0  0  0  0  0  0  0  0  0  0  0  0
    1.6475    2.6734    0.3303 H   0  0  0  0  0  0  0  0  0  0  0  0
  1  3  2  0  0  0  0
  1 11  1  0  0  0  0
  2 12  1  0  0  0  0
  3  7  1  0  0  0  0
  4 16  1  0  0  0  0
  5  7  2  0  0  0  0
  5  8  1  0  0  0  0
  6  4  1  0  0  0  0
  6  2  1  0  0  0  0
  7  9  1  0  0  0  0
  8  6  2  0  0  0  0
  9  4  2  0  0  0  0
 10  1  1  0  0  0  0
 13  2  1  0  0  0  0
 14  2  1  0  0  0  0
 15  3  1  0  0  0  0
 17  5  1  0  0  0  0
M  END
>  <HBA>
2

>  <HBD>
0

>  <TPSA>
25.78

>  <cid>
26335

>  <dipole>
0.33

>  <excitation_energy_1>
3.868

>  <excitation_energy_2>
4.36

>  <excitation_energy_3>
4.447

>  <excitation_energy_4>
5.154

>  <homo_energy>
-6.403

>  <homo_lumo_gap>
4.912

>  <logP>
1.428

>  <lumo_energy>
-1.491

>  <melting_point>
32.3

>  <molecular_refractivity>
37.09

>  <oscillator_strength_1>
0.0035

>  <oscillator_strength_2>
0.1975

>  <oscillator_strength_3>
0.0007

>  <oscillator_strength_4>
0.404

>  <open_babel_can_smiles>
Cc1cnc(cn1)C=C

>  <mulliken_charges>
17
1   -0.33081
2   -0.524068
3   -0.110705
4   0.013218
5   -0.008567
6   0.296139
7   0.301734
8   -0.433144
9   -0.458177
10   0.146089
11   0.170879
12   0.165728
13   0.181307
14   0.168864
15   0.132341
16   0.143081
17   0.146089

>  <lowdin_charges>
17
1   -0.302075
2   -0.445897
3   -0.163107
4   -0.108564
5   -0.110789
6   0.034837
7   0.027982
8   -0.129712
9   -0.122573
10   0.164933
11   0.174806
12   0.16325
13   0.17337
14   0.165727
15   0.1577
16   0.159492
17   0.160621

$$$$

