PCCDB-ID:  14223
public computational chemistry database (PCCDB) project, http://pccdb.org

 19 18  0  0  0  0  0  0  0  0999 V2000
    0.6625    1.0917    0.6179 C   0  0  0  0  0  0  0  0  0  0  0  0
    2.5974   -0.5891    0.6737 C   0  0  0  0  0  0  0  0  0  0  0  0
    0.3853    1.4503   -0.8464 C   0  0  0  0  0  0  0  0  0  0  0  0
    2.6812   -1.3888    1.9760 C   0  0  0  0  0  0  0  0  0  0  0  0
    2.8323    1.7670    1.3067 N   0  0  0  0  0  0  0  0  0  0  0  0
    2.0603    0.7570    0.8783 N   0  0  0  0  0  0  0  0  0  0  0  0
    0.6538    0.3805   -1.7444 O   0  0  0  0  0  0  0  0  0  0  0  0
    3.1331   -2.6865    1.6141 O   0  0  0  0  0  0  0  0  0  0  0  0
    4.0071    1.4714    1.5149 O   0  0  0  0  0  0  0  0  0  0  0  0
    0.0446    0.2380    0.9153 H   0  0  0  0  0  0  0  0  0  0  0  0
    0.4090    1.9450    1.2547 H   0  0  0  0  0  0  0  0  0  0  0  0
    1.9505   -1.1054   -0.0382 H   0  0  0  0  0  0  0  0  0  0  0  0
    3.6018   -0.4944    0.2522 H   0  0  0  0  0  0  0  0  0  0  0  0
    0.9555    2.3515   -1.1130 H   0  0  0  0  0  0  0  0  0  0  0  0
   -0.6802    1.6839   -0.9519 H   0  0  0  0  0  0  0  0  0  0  0  0
    1.6890   -1.4239    2.4552 H   0  0  0  0  0  0  0  0  0  0  0  0
    3.3750   -0.8855    2.6617 H   0  0  0  0  0  0  0  0  0  0  0  0
    1.6027    0.3869   -1.9400 H   0  0  0  0  0  0  0  0  0  0  0  0
    3.3442   -3.1689    2.4271 H   0  0  0  0  0  0  0  0  0  0  0  0
  1  6  1  0  0  0  0
  1 10  1  0  0  0  0
  1 11  1  0  0  0  0
  2  6  1  0  0  0  0
  2  4  1  0  0  0  0
  3  1  1  0  0  0  0
  4 16  1  0  0  0  0
  4 17  1  0  0  0  0
  5  9  2  0  0  0  0
  6  5  1  0  0  0  0
  7  3  1  0  0  0  0
  8  4  1  0  0  0  0
  8 19  1  0  0  0  0
 12  2  1  0  0  0  0
 13  2  1  0  0  0  0
 14  3  1  0  0  0  0
 15  3  1  0  0  0  0
 18  7  1  0  0  0  0
M  END
>  <HBA>
5

>  <HBD>
2

>  <TPSA>
73.13

>  <cid>
14223

>  <dipole>
2.24

>  <excitation_energy_1>
3.333

>  <excitation_energy_2>
5.445

>  <excitation_energy_3>
5.685

>  <excitation_energy_4>
5.74

>  <homo_energy>
-6.174

>  <homo_lumo_gap>
5.181

>  <logP>
-1.046

>  <lumo_energy>
-0.993

>  <melting_point>
33.69

>  <molecular_refractivity>
31.3

>  <oscillator_strength_1>
0.0012

>  <oscillator_strength_2>
0.1061

>  <oscillator_strength_3>
0.0058

>  <oscillator_strength_4>
0.0057

>  <open_babel_can_smiles>
OCCN(N=O)CCO

>  <mulliken_charges>
19
1   -0.148389
2   -0.17168
3   -0.044089
4   -0.033204
5   0.147945
6   -0.235894
7   -0.606495
8   -0.616861
9   -0.382114
10   0.166834
11   0.173461
12   0.181684
13   0.187536
14   0.146614
15   0.154951
16   0.122524
17   0.154993
18   0.403019
19   0.399165

>  <lowdin_charges>
19
1   -0.220449
2   -0.229833
3   -0.140498
4   -0.13988
5   0.045142
6   -0.045784
7   -0.460958
8   -0.469416
9   -0.272547
10   0.16062
11   0.169862
12   0.170085
13   0.171207
14   0.141531
15   0.151639
16   0.125361
17   0.145969
18   0.347801
19   0.350146

$$$$

