PCCDB-ID:  9228
public computational chemistry database (PCCDB) project, http://pccdb.org

 14 15  0  0  0  0  0  0  0  0999 V2000
   -2.0910   -0.7282   -0.0008 C   0  0  0  0  0  0  0  0  0  0  0  0
   -2.1044    0.6797    0.0001 C   0  0  0  0  0  0  0  0  0  0  0  0
   -0.8972   -1.4481   -0.0009 C   0  0  0  0  0  0  0  0  0  0  0  0
   -0.9231    1.4245    0.0010 C   0  0  0  0  0  0  0  0  0  0  0  0
    2.2899   -0.0165    0.0007 C   0  0  0  0  0  0  0  0  0  0  0  0
    0.2925   -0.7154   -0.0005 C   0  0  0  0  0  0  0  0  0  0  0  0
    0.2508    0.6852    0.0010 C   0  0  0  0  0  0  0  0  0  0  0  0
    1.6319   -1.1252   -0.0007 N   0  0  0  0  0  0  0  0  0  0  0  0
    1.5502    1.1372    0.0019 O   0  0  0  0  0  0  0  0  0  0  0  0
   -3.0361   -1.2635   -0.0020 H   0  0  0  0  0  0  0  0  0  0  0  0
   -3.0573    1.2010    0.0008 H   0  0  0  0  0  0  0  0  0  0  0  0
   -0.8818   -2.5332   -0.0005 H   0  0  0  0  0  0  0  0  0  0  0  0
   -0.9217    2.5091    0.0011 H   0  0  0  0  0  0  0  0  0  0  0  0
    3.3627    0.1171    0.0010 H   0  0  0  0  0  0  0  0  0  0  0  0
  1  2  1  0  0  0  0
  2 11  1  0  0  0  0
  2  4  2  0  0  0  0
  3  1  2  0  0  0  0
  3  6  1  0  0  0  0
  3 12  1  0  0  0  0
  4 13  1  0  0  0  0
  5 14  1  0  0  0  0
  5  9  1  0  0  0  0
  6  7  2  0  0  0  0
  7  4  1  0  0  0  0
  7  9  1  0  0  0  0
  8  6  1  0  0  0  0
  8  5  2  0  0  0  0
 10  1  1  0  0  0  0
M  END
>  <HBA>
2

>  <HBD>
0

>  <TPSA>
26.03

>  <cid>
9228

>  <dipole>
1.32

>  <excitation_energy_1>
5.064

>  <excitation_energy_2>
5.389

>  <excitation_energy_3>
5.952

>  <excitation_energy_4>
6.175

>  <homo_energy>
-6.569

>  <homo_lumo_gap>
5.804

>  <logP>
1.828

>  <lumo_energy>
-0.765

>  <melting_point>
62.38

>  <molecular_refractivity>
34.01

>  <oscillator_strength_1>
0.0456

>  <oscillator_strength_2>
0.1457

>  <oscillator_strength_3>
0.0012

>  <oscillator_strength_4>
0.1888

>  <open_babel_can_smiles>
c1ccc2c(c1)ocn2

>  <mulliken_charges>
14
1   -0.143701
2   -0.143597
3   -0.165288
4   -0.178218
5   0.257923
6   0.227563
7   0.323867
8   -0.462649
9   -0.46519
10   0.135105
11   0.136856
12   0.148703
13   0.150162
14   0.178467

>  <lowdin_charges>
14
1   -0.162368
2   -0.153811
3   -0.150073
4   -0.170119
5   -0.000363
6   0.004781
7   0.069255
8   -0.163316
9   -0.115108
10   0.161729
11   0.16245
12   0.168761
13   0.169834
14   0.178349

$$$$

