PCCDB-ID:  69663
public computational chemistry database (PCCDB) project, http://pccdb.org

 11 11  0  0  0  0  0  0  0  0999 V2000
    1.0355   -0.0883    0.0137 C   0  0  0  0  0  0  0  0  0  0  0  0
    3.3639    1.0338    0.0137 C   0  0  0  0  0  0  0  0  0  0  0  0
    4.5257   -0.7737    0.0248 C   0  0  0  0  0  0  0  0  0  0  0  0
    2.5286   -0.0370    0.0173 C   0  0  0  0  0  0  0  0  0  0  0  0
    3.3049   -1.2002    0.0245 N   0  0  0  0  0  0  0  0  0  0  0  0
    4.6592    0.5749    0.0185 O   0  0  0  0  0  0  0  0  0  0  0  0
    0.6062    0.9183    0.0164 H   0  0  0  0  0  0  0  0  0  0  0  0
    0.6618   -0.6248    0.8933 H   0  0  0  0  0  0  0  0  0  0  0  0
    0.6654   -0.6182   -0.8715 H   0  0  0  0  0  0  0  0  0  0  0  0
    3.2331    2.1041    0.0084 H   0  0  0  0  0  0  0  0  0  0  0  0
    5.4390   -1.3513    0.0294 H   0  0  0  0  0  0  0  0  0  0  0  0
  1  7  1  0  0  0  0
  1  4  1  0  0  0  0
  1  8  1  0  0  0  0
  2  4  2  0  0  0  0
  2  6  1  0  0  0  0
  3 11  1  0  0  0  0
  4  5  1  0  0  0  0
  5  3  2  0  0  0  0
  6  3  1  0  0  0  0
  9  1  1  0  0  0  0
 10  2  1  0  0  0  0
M  END
>  <HBA>
2

>  <HBD>
0

>  <TPSA>
26.03

>  <cid>
69663

>  <dipole>
1.34

>  <excitation_energy_1>
5.992

>  <excitation_energy_2>
6.167

>  <excitation_energy_3>
6.379

>  <excitation_energy_4>
6.594

>  <homo_energy>
-6.547

>  <homo_lumo_gap>
6.716

>  <logP>
0.983

>  <lumo_energy>
0.169

>  <melting_point>
21.89

>  <molecular_refractivity>
21.47

>  <oscillator_strength_1>
0.1157

>  <oscillator_strength_2>
0.0026

>  <oscillator_strength_3>
0.0025

>  <oscillator_strength_4>
0.0003

>  <open_babel_can_smiles>
Cc1cocn1

>  <mulliken_charges>
11
1   -0.515436
2   0.024107
3   0.251988
4   0.23013
5   -0.437028
6   -0.387985
7   0.153935
8   0.172858
9   0.172758
10   0.162298
11   0.172375

>  <lowdin_charges>
11
1   -0.436671
2   -0.114462
3   -0.027094
4   0.003483
5   -0.175679
6   -0.099488
7   0.159128
8   0.168983
9   0.168837
10   0.174939
11   0.178023

$$$$

