PCCDB-ID:  16217
public computational chemistry database (PCCDB) project, http://pccdb.org

 46 45  0  0  0  0  0  0  0  0999 V2000
    7.3003   -0.0546    9.7947 C   0  0  0  0  0  0  0  0  0  0  0  0
    6.9097   -0.5521    8.3990 C   0  0  0  0  0  0  0  0  0  0  0  0
    6.3919    0.5685    7.4854 C   0  0  0  0  0  0  0  0  0  0  0  0
    5.9133    0.1039    6.0997 C   0  0  0  0  0  0  0  0  0  0  0  0
    7.0171   -0.4515    5.1878 C   0  0  0  0  0  0  0  0  0  0  0  0
    6.4917   -0.8810    3.8106 C   0  0  0  0  0  0  0  0  0  0  0  0
    7.5716   -1.3758    2.8317 C   0  0  0  0  0  0  0  0  0  0  0  0
    8.3882   -2.5978    3.2898 C   0  0  0  0  0  0  0  0  0  0  0  0
    7.5551   -3.8540    3.5781 C   0  0  0  0  0  0  0  0  0  0  0  0
    8.4139   -5.0776    3.9367 C   0  0  0  0  0  0  0  0  0  0  0  0
    7.6121   -6.3424    4.3191 C   0  0  0  0  0  0  0  0  0  0  0  0
    7.3487   -6.5371    5.8239 C   0  0  0  0  0  0  0  0  0  0  0  0
    6.5036   -5.4564    6.5130 C   0  0  0  0  0  0  0  0  0  0  0  0
    6.1807   -5.7922    7.9792 C   0  0  0  0  0  0  0  0  0  0  0  0
    5.3937   -4.7978    8.7163 N   0  0  0  0  0  0  0  0  0  0  0  0
    7.6613   -0.8742   10.4265 H   0  0  0  0  0  0  0  0  0  0  0  0
    6.4463    0.4079   10.3046 H   0  0  0  0  0  0  0  0  0  0  0  0
    8.0970    0.6971    9.7368 H   0  0  0  0  0  0  0  0  0  0  0  0
    6.1319   -1.3256    8.4910 H   0  0  0  0  0  0  0  0  0  0  0  0
    7.7760   -1.0424    7.9359 H   0  0  0  0  0  0  0  0  0  0  0  0
    7.1791    1.3276    7.3645 H   0  0  0  0  0  0  0  0  0  0  0  0
    5.5595    1.0761    7.9936 H   0  0  0  0  0  0  0  0  0  0  0  0
    5.4287    0.9494    5.5913 H   0  0  0  0  0  0  0  0  0  0  0  0
    5.1309   -0.6596    6.2258 H   0  0  0  0  0  0  0  0  0  0  0  0
    7.5039   -1.3048    5.6773 H   0  0  0  0  0  0  0  0  0  0  0  0
    7.7989    0.3122    5.0586 H   0  0  0  0  0  0  0  0  0  0  0  0
    5.9717   -0.0294    3.3487 H   0  0  0  0  0  0  0  0  0  0  0  0
    5.7268   -1.6585    3.9436 H   0  0  0  0  0  0  0  0  0  0  0  0
    8.2661   -0.5493    2.6239 H   0  0  0  0  0  0  0  0  0  0  0  0
    7.0887   -1.6129    1.8729 H   0  0  0  0  0  0  0  0  0  0  0  0
    8.9733   -2.3417    4.1843 H   0  0  0  0  0  0  0  0  0  0  0  0
    9.1269   -2.8309    2.5092 H   0  0  0  0  0  0  0  0  0  0  0  0
    6.9437   -4.0967    2.6958 H   0  0  0  0  0  0  0  0  0  0  0  0
    6.8457   -3.6498    4.3890 H   0  0  0  0  0  0  0  0  0  0  0  0
    9.0988   -4.8186    4.7584 H   0  0  0  0  0  0  0  0  0  0  0  0
    9.0581   -5.3031    3.0757 H   0  0  0  0  0  0  0  0  0  0  0  0
    8.1555   -7.2289    3.9668 H   0  0  0  0  0  0  0  0  0  0  0  0
    6.6553   -6.3446    3.7760 H   0  0  0  0  0  0  0  0  0  0  0  0
    8.3152   -6.6164    6.3440 H   0  0  0  0  0  0  0  0  0  0  0  0
    6.8531   -7.5093    5.9621 H   0  0  0  0  0  0  0  0  0  0  0  0
    5.5604   -5.3154    5.9629 H   0  0  0  0  0  0  0  0  0  0  0  0
    7.0266   -4.4900    6.4825 H   0  0  0  0  0  0  0  0  0  0  0  0
    7.1160   -5.9502    8.5329 H   0  0  0  0  0  0  0  0  0  0  0  0
    5.6359   -6.7449    8.0231 H   0  0  0  0  0  0  0  0  0  0  0  0
    5.8854   -3.9039    8.7152 H   0  0  0  0  0  0  0  0  0  0  0  0
    4.5146   -4.6304    8.2271 H   0  0  0  0  0  0  0  0  0  0  0  0
  1 17  1  0  0  0  0
  1 16  1  0  0  0  0
  2 19  1  0  0  0  0
  2  1  1  0  0  0  0
  3 22  1  0  0  0  0
  3  2  1  0  0  0  0
  4 24  1  0  0  0  0
  4  3  1  0  0  0  0
  5 25  1  0  0  0  0
  5  4  1  0  0  0  0
  6 28  1  0  0  0  0
  6  5  1  0  0  0  0
  7  8  1  0  0  0  0
  7  6  1  0  0  0  0
  8  9  1  0  0  0  0
  8 31  1  0  0  0  0
  9 10  1  0  0  0  0
  9 34  1  0  0  0  0
 10 11  1  0  0  0  0
 10 35  1  0  0  0  0
 11 12  1  0  0  0  0
 12 40  1  0  0  0  0
 12 39  1  0  0  0  0
 12 13  1  0  0  0  0
 13 14  1  0  0  0  0
 14 44  1  0  0  0  0
 14 43  1  0  0  0  0
 14 15  1  0  0  0  0
 18  1  1  0  0  0  0
 20  2  1  0  0  0  0
 21  3  1  0  0  0  0
 23  4  1  0  0  0  0
 26  5  1  0  0  0  0
 27  6  1  0  0  0  0
 29  7  1  0  0  0  0
 30  7  1  0  0  0  0
 32  8  1  0  0  0  0
 33  9  1  0  0  0  0
 36 10  1  0  0  0  0
 37 11  1  0  0  0  0
 38 11  1  0  0  0  0
 41 13  1  0  0  0  0
 42 13  1  0  0  0  0
 45 15  1  0  0  0  0
 46 15  1  0  0  0  0
M  END
>  <HBA>
1

>  <HBD>
1

>  <TPSA>
26.02

>  <cid>
16217

>  <dipole>
1.56

>  <excitation_energy_1>
5.457

>  <excitation_energy_2>
6.044

>  <excitation_energy_3>
6.142

>  <excitation_energy_4>
6.266

>  <homo_energy>
-6.161

>  <homo_lumo_gap>
7.725

>  <logP>
5.346

>  <lumo_energy>
1.565

>  <melting_point>
22.37

>  <molecular_refractivity>
72.12

>  <oscillator_strength_1>
0.0326

>  <oscillator_strength_2>
0.0045

>  <oscillator_strength_3>
0.0093

>  <oscillator_strength_4>
0.0021

>  <open_babel_can_smiles>
CCCCCCCCCCCCCCN

>  <mulliken_charges>
46
1   -0.441168
2   -0.256347
3   -0.247586
4   -0.254743
5   -0.257598
6   -0.256492
7   -0.257997
8   -0.257483
9   -0.263441
10   -0.25431
11   -0.259671
12   -0.257619
13   -0.261915
14   -0.142873
15   -0.712406
16   0.143433
17   0.143053
18   0.142463
19   0.126474
20   0.135231
21   0.127383
22   0.127593
23   0.128094
24   0.123073
25   0.136549
26   0.126139
27   0.126796
28   0.130916
29   0.126329
30   0.126483
31   0.130307
32   0.126955
33   0.126514
34   0.141585
35   0.127082
36   0.129104
37   0.129412
38   0.12848
39   0.129022
40   0.128263
41   0.120912
42   0.129111
43   0.138999
44   0.139224
45   0.296988
46   0.289679

>  <lowdin_charges>
46
1   -0.446437
2   -0.277116
3   -0.277368
4   -0.276417
5   -0.281126
6   -0.279761
7   -0.276977
8   -0.280003
9   -0.28231
10   -0.278709
11   -0.277733
12   -0.274419
13   -0.298105
14   -0.209028
15   -0.552914
16   0.15098
17   0.147981
18   0.147506
19   0.134049
20   0.140577
21   0.138633
22   0.141596
23   0.141575
24   0.136312
25   0.139951
26   0.137916
27   0.141299
28   0.138795
29   0.140548
30   0.139723
31   0.138196
32   0.141207
33   0.137331
34   0.142192
35   0.138209
36   0.141496
37   0.144068
38   0.138647
39   0.137715
40   0.139883
41   0.133898
42   0.136104
43   0.141343
44   0.140666
45   0.249428
46   0.2506

$$$$

