PCCDB-ID:  39420
public computational chemistry database (PCCDB) project, http://pccdb.org

 22 21  0  0  0  0  0  0  0  0999 V2000
    0.8954    0.0135   -0.0495 C   0  0  0  0  0  0  0  0  0  0  0  0
    2.4349   -0.0060    0.0100 C   0  0  0  0  0  0  0  0  0  0  0  0
    2.9564   -0.5289    1.2727 C   0  0  0  0  0  0  0  0  0  0  0  0
    3.3761   -0.9691    2.3247 C   0  0  0  0  0  0  0  0  0  0  0  0
    3.8453   -1.4548    3.5702 C   0  0  0  0  0  0  0  0  0  0  0  0
    4.9896   -2.1582    3.7461 C   0  0  0  0  0  0  0  0  0  0  0  0
    5.4413   -2.6419    5.0337 C   0  0  0  0  0  0  0  0  0  0  0  0
    6.5780   -3.3347    5.2362 C   0  0  0  0  0  0  0  0  0  0  0  0
    7.0333   -3.8430    6.5719 C   0  0  0  0  0  0  0  0  0  0  0  0
    7.2574   -5.2541    6.5652 O   0  0  0  0  0  0  0  0  0  0  0  0
    0.5580    0.4312   -1.0044 H   0  0  0  0  0  0  0  0  0  0  0  0
    0.4821    0.6240    0.7594 H   0  0  0  0  0  0  0  0  0  0  0  0
    0.4884   -0.9978    0.0473 H   0  0  0  0  0  0  0  0  0  0  0  0
    2.8190    1.0123   -0.1466 H   0  0  0  0  0  0  0  0  0  0  0  0
    2.8274   -0.6058   -0.8228 H   0  0  0  0  0  0  0  0  0  0  0  0
    3.2264   -1.2356    4.4419 H   0  0  0  0  0  0  0  0  0  0  0  0
    5.6134   -2.3793    2.8814 H   0  0  0  0  0  0  0  0  0  0  0  0
    4.8022   -2.4156    5.8896 H   0  0  0  0  0  0  0  0  0  0  0  0
    7.2247   -3.5756    4.3918 H   0  0  0  0  0  0  0  0  0  0  0  0
    6.3140   -3.5507    7.3541 H   0  0  0  0  0  0  0  0  0  0  0  0
    8.0041   -3.4098    6.8426 H   0  0  0  0  0  0  0  0  0  0  0  0
    6.4290   -5.6696    6.2772 H   0  0  0  0  0  0  0  0  0  0  0  0
  1  2  1  0  0  0  0
  1 13  1  0  0  0  0
  1 12  1  0  0  0  0
  2  3  1  0  0  0  0
  3  4  3  0  0  0  0
  4  5  1  0  0  0  0
  5  6  2  0  0  0  0
  5 16  1  0  0  0  0
  6  7  1  0  0  0  0
  7  8  2  0  0  0  0
  7 18  1  0  0  0  0
  8  9  1  0  0  0  0
  9 21  1  0  0  0  0
  9 20  1  0  0  0  0
 10  9  1  0  0  0  0
 11  1  1  0  0  0  0
 14  2  1  0  0  0  0
 15  2  1  0  0  0  0
 17  6  1  0  0  0  0
 19  8  1  0  0  0  0
 22 10  1  0  0  0  0
M  END
>  <HBA>
1

>  <HBD>
1

>  <TPSA>
20.23

>  <cid>
39420

>  <dipole>
2.24

>  <excitation_energy_1>
4.399

>  <excitation_energy_2>
4.531

>  <excitation_energy_3>
5.281

>  <excitation_energy_4>
5.341

>  <homo_energy>
-5.695

>  <homo_lumo_gap>
4.406

>  <logP>
1.504

>  <lumo_energy>
-1.29

>  <melting_point>
26.99

>  <molecular_refractivity>
43.75

>  <oscillator_strength_1>
1.0525

>  <oscillator_strength_2>
0.0121

>  <oscillator_strength_3>
0.0009

>  <oscillator_strength_4>
0.004

>  <open_babel_can_smiles>
OC/C=C/C=C/C#CCC

>  <mulliken_charges>
22
1   -0.436282
2   -0.393195
3   -0.003506
4   0.102963
5   -0.275393
6   -0.095765
7   -0.09195
8   -0.153312
9   -0.072372
10   -0.609778
11   0.148406
12   0.158818
13   0.159308
14   0.171026
15   0.170742
16   0.151146
17   0.137563
18   0.123775
19   0.137944
20   0.127292
21   0.156673
22   0.385895

>  <lowdin_charges>
22
1   -0.435876
2   -0.25714
3   -0.060797
4   -0.08221
5   -0.151511
6   -0.137647
7   -0.158259
8   -0.182625
9   -0.130869
10   -0.467842
11   0.1523
12   0.157465
13   0.155886
14   0.165599
15   0.166798
16   0.166921
17   0.162498
18   0.152731
19   0.158093
20   0.131628
21   0.154562
22   0.340297

$$$$

