PCCDB-ID:  16335
public computational chemistry database (PCCDB) project, http://pccdb.org

 40 41  0  0  1  0  0  0  0  0999 V2000
    1.3318    1.1438    0.9041 C   0  0  0  0  0  0  0  0  0  0  0  0
    0.3582   -1.2445    5.6724 C   0  0  0  0  0  0  0  0  0  0  0  0
    4.5969   -0.9446   -3.1856 C   0  0  0  0  0  0  0  0  0  0  0  0
   -0.5072   -0.4129    4.9605 C   0  0  0  0  0  0  0  0  0  0  0  0
    1.2440   -2.0719    4.9780 C   0  0  0  0  0  0  0  0  0  0  0  0
    4.7932   -0.3126   -1.7987 C   0  0  0  0  0  0  0  0  0  0  0  0
    3.1475   -1.4153   -3.3855 C   0  0  0  0  0  0  0  0  0  0  0  0
   -0.4851   -0.4039    3.5641 C   0  0  0  0  0  0  0  0  0  0  0  0
    1.2609   -2.0632    3.5836 C   0  0  0  0  0  0  0  0  0  0  0  0
    4.3470   -1.2640   -0.6754 C   0  0  0  0  0  0  0  0  0  0  0  0
    2.7052   -2.3640   -2.2592 C   0  0  0  0  0  0  0  0  0  0  0  0
    1.6189   -0.3546    0.7776 C   0  0  1  0  0  0  0  0  0  0  0  0
    0.4018   -1.2260    2.8586 C   0  0  0  0  0  0  0  0  0  0  0  0
    2.8852   -1.7464   -0.8579 C   0  0  0  0  0  0  0  0  0  0  0  0
    0.4512   -1.2173    1.3353 C   0  0  1  0  0  0  0  0  0  0  0  0
    1.8684   -0.7114   -0.6238 N   0  0  0  0  0  0  0  0  0  0  0  0
   -0.7555   -0.7318    0.7572 O   0  0  0  0  0  0  0  0  0  0  0  0
    1.0918    1.4145    1.9365 H   0  0  0  0  0  0  0  0  0  0  0  0
    0.4837    1.4223    0.2718 H   0  0  0  0  0  0  0  0  0  0  0  0
    2.2096    1.7246    0.5970 H   0  0  0  0  0  0  0  0  0  0  0  0
    0.3399   -1.2526    6.7590 H   0  0  0  0  0  0  0  0  0  0  0  0
    5.2729   -1.8071   -3.2858 H   0  0  0  0  0  0  0  0  0  0  0  0
    4.8800   -0.2328   -3.9718 H   0  0  0  0  0  0  0  0  0  0  0  0
   -1.2027    0.2316    5.4923 H   0  0  0  0  0  0  0  0  0  0  0  0
    1.9160   -2.7303    5.5228 H   0  0  0  0  0  0  0  0  0  0  0  0
    4.2159    0.6226   -1.7429 H   0  0  0  0  0  0  0  0  0  0  0  0
    5.8428   -0.0282   -1.6516 H   0  0  0  0  0  0  0  0  0  0  0  0
    3.0410   -1.9151   -4.3566 H   0  0  0  0  0  0  0  0  0  0  0  0
    2.4781   -0.5431   -3.4179 H   0  0  0  0  0  0  0  0  0  0  0  0
   -1.1608    0.2377    3.0068 H   0  0  0  0  0  0  0  0  0  0  0  0
    1.9449   -2.7209    3.0500 H   0  0  0  0  0  0  0  0  0  0  0  0
    4.4643   -0.7793    0.3027 H   0  0  0  0  0  0  0  0  0  0  0  0
    5.0098   -2.1419   -0.6672 H   0  0  0  0  0  0  0  0  0  0  0  0
    3.3069   -3.2831   -2.3162 H   0  0  0  0  0  0  0  0  0  0  0  0
    1.6554   -2.6496   -2.3865 H   0  0  0  0  0  0  0  0  0  0  0  0
    2.4943   -0.5879    1.4074 H   0  0  0  0  0  0  0  0  0  0  0  0
    2.6897   -2.5352   -0.1190 H   0  0  0  0  0  0  0  0  0  0  0  0
    0.6390   -2.2488    0.9959 H   0  0  0  0  0  0  0  0  0  0  0  0
    2.0789    0.1241   -1.1612 H   0  0  0  0  0  0  0  0  0  0  0  0
   -1.4680   -1.3323    1.0254 H   0  0  0  0  0  0  0  0  0  0  0  0
  1 18  1  0  0  0  0
  2 21  1  0  0  0  0
  3  6  1  0  0  0  0
  4 24  1  0  0  0  0
  4  2  2  0  0  0  0
  5 25  1  0  0  0  0
  5  2  1  0  0  0  0
  6 26  1  0  0  0  0
  6 27  1  0  0  0  0
  6 10  1  0  0  0  0
  7  3  1  0  0  0  0
  7 11  1  0  0  0  0
  8  4  1  0  0  0  0
  9  5  2  0  0  0  0
 10 33  1  0  0  0  0
 10 32  1  0  0  0  0
 11 14  1  0  0  0  0
 12  1  1  0  0  0  0
 12 15  1  0  0  0  0
 12 36  1  1  0  0  0
 13  8  2  0  0  0  0
 13  9  1  0  0  0  0
 14 10  1  0  0  0  0
 14 16  1  0  0  0  0
 14 37  1  0  0  0  0
 15 38  1  6  0  0  0
 15 13  1  0  0  0  0
 16 12  1  0  0  0  0
 17 40  1  0  0  0  0
 17 15  1  0  0  0  0
 19  1  1  0  0  0  0
 20  1  1  0  0  0  0
 22  3  1  0  0  0  0
 23  3  1  0  0  0  0
 28  7  1  0  0  0  0
 29  7  1  0  0  0  0
 30  8  1  0  0  0  0
 31  9  1  0  0  0  0
 34 11  1  0  0  0  0
 35 11  1  0  0  0  0
 39 16  1  0  0  0  0
M  END
>  <HBA>
2

>  <HBD>
2

>  <TPSA>
32.26

>  <cid>
16335

>  <dipole>
1.16

>  <excitation_energy_1>
4.785

>  <excitation_energy_2>
4.898

>  <excitation_energy_3>
5.015

>  <excitation_energy_4>
5.305

>  <homo_energy>
-5.587

>  <homo_lumo_gap>
5.567

>  <logP>
3.422

>  <lumo_energy>
-0.019

>  <melting_point>
70.21

>  <molecular_refractivity>
71.71

>  <oscillator_strength_1>
0.0349

>  <oscillator_strength_2>
0.0018

>  <oscillator_strength_3>
0.0013

>  <oscillator_strength_4>
0.0007

>  <open_babel_can_smiles>
C[C@@H]([C@@H](c1ccccc1)O)NC1CCCCC1

>  <mulliken_charges>
40
1   -0.485245
2   -0.129353
3   -0.253496
4   -0.130251
5   -0.131432
6   -0.265265
7   -0.269477
8   -0.185306
9   -0.179905
10   -0.267523
11   -0.251547
12   0.057102
13   0.111075
14   0.028375
15   0.08876
16   -0.572833
17   -0.624824
18   0.156748
19   0.174894
20   0.135947
21   0.127811
22   0.126816
23   0.1293
24   0.128598
25   0.128301
26   0.121073
27   0.132834
28   0.131791
29   0.132315
30   0.139908
31   0.122659
32   0.132605
33   0.125043
34   0.12039
35   0.142675
36   0.119963
37   0.117232
38   0.12221
39   0.300394
40   0.391637

>  <lowdin_charges>
40
1   -0.45506
2   -0.158853
3   -0.28004
4   -0.156789
5   -0.156556
6   -0.280129
7   -0.28101
8   -0.173012
9   -0.170064
10   -0.296939
11   -0.281212
12   -0.063678
13   -0.028126
14   -0.068086
15   -0.007829
16   -0.358197
17   -0.450667
18   0.159443
19   0.163669
20   0.146388
21   0.154795
22   0.137538
23   0.143456
24   0.158076
25   0.158134
26   0.132143
27   0.143851
28   0.144289
29   0.138754
30   0.164551
31   0.154364
32   0.14209
33   0.140033
34   0.137074
35   0.149895
36   0.128538
37   0.135782
38   0.133524
39   0.253517
40   0.346344

$$$$

