PCCDB-ID:  8148
public computational chemistry database (PCCDB) project, http://pccdb.org

 28 27  0  0  0  0  0  0  0  0999 V2000
    0.8588    0.0553    0.0055 C   0  0  0  0  0  0  0  0  0  0  0  0
    9.0711   -3.2168    4.7824 C   0  0  0  0  0  0  0  0  0  0  0  0
    2.3910    0.0563   -0.0128 C   0  0  0  0  0  0  0  0  0  0  0  0
    8.5710   -2.4019    3.5852 C   0  0  0  0  0  0  0  0  0  0  0  0
    3.0063   -0.7320    1.1500 C   0  0  0  0  0  0  0  0  0  0  0  0
    7.0412   -2.3388    3.4981 C   0  0  0  0  0  0  0  0  0  0  0  0
    4.5362   -0.7421    1.1338 C   0  0  0  0  0  0  0  0  0  0  0  0
    6.5344   -1.5380    2.2968 C   0  0  0  0  0  0  0  0  0  0  0  0
    5.0754   -1.4630    2.2846 N   0  0  0  0  0  0  0  0  0  0  0  0
    0.4483    0.6271   -0.8346 H   0  0  0  0  0  0  0  0  0  0  0  0
    0.4736    0.4995    0.9314 H   0  0  0  0  0  0  0  0  0  0  0  0
    0.4624   -0.9654   -0.0608 H   0  0  0  0  0  0  0  0  0  0  0  0
   10.1661   -3.2414    4.8204 H   0  0  0  0  0  0  0  0  0  0  0  0
    8.7159   -4.2536    4.7323 H   0  0  0  0  0  0  0  0  0  0  0  0
    8.7138   -2.7911    5.7281 H   0  0  0  0  0  0  0  0  0  0  0  0
    2.7558    1.0927    0.0194 H   0  0  0  0  0  0  0  0  0  0  0  0
    2.7449   -0.3615   -0.9660 H   0  0  0  0  0  0  0  0  0  0  0  0
    8.9727   -2.8323    2.6569 H   0  0  0  0  0  0  0  0  0  0  0  0
    8.9725   -1.3804    3.6457 H   0  0  0  0  0  0  0  0  0  0  0  0
    2.6376   -1.7693    1.1175 H   0  0  0  0  0  0  0  0  0  0  0  0
    2.6692   -0.3148    2.1079 H   0  0  0  0  0  0  0  0  0  0  0  0
    6.6297   -1.8948    4.4139 H   0  0  0  0  0  0  0  0  0  0  0  0
    6.6409   -3.3634    3.4440 H   0  0  0  0  0  0  0  0  0  0  0  0
    4.9086    0.2910    1.1829 H   0  0  0  0  0  0  0  0  0  0  0  0
    4.8932   -1.1509    0.1661 H   0  0  0  0  0  0  0  0  0  0  0  0
    6.9495   -1.9700    1.3630 H   0  0  0  0  0  0  0  0  0  0  0  0
    6.9206   -0.5103    2.3538 H   0  0  0  0  0  0  0  0  0  0  0  0
    4.6997   -2.4119    2.2802 H   0  0  0  0  0  0  0  0  0  0  0  0
  1 11  1  0  0  0  0
  2 13  1  0  0  0  0
  2 15  1  0  0  0  0
  3  1  1  0  0  0  0
  3 16  1  0  0  0  0
  3  5  1  0  0  0  0
  4 19  1  0  0  0  0
  4  2  1  0  0  0  0
  5 21  1  0  0  0  0
  6  4  1  0  0  0  0
  6 22  1  0  0  0  0
  7  5  1  0  0  0  0
  7 24  1  0  0  0  0
  7  9  1  0  0  0  0
  8 27  1  0  0  0  0
  8  6  1  0  0  0  0
  9  8  1  0  0  0  0
 10  1  1  0  0  0  0
 12  1  1  0  0  0  0
 14  2  1  0  0  0  0
 17  3  1  0  0  0  0
 18  4  1  0  0  0  0
 20  5  1  0  0  0  0
 23  6  1  0  0  0  0
 25  7  1  0  0  0  0
 26  8  1  0  0  0  0
 28  9  1  0  0  0  0
M  END
>  <HBA>
1

>  <HBD>
1

>  <TPSA>
12.03

>  <cid>
8148

>  <dipole>
0.85

>  <excitation_energy_1>
5.455

>  <excitation_energy_2>
5.805

>  <excitation_energy_3>
6.054

>  <excitation_energy_4>
6.113

>  <homo_energy>
-5.818

>  <homo_lumo_gap>
8.234

>  <logP>
2.567

>  <lumo_energy>
2.416

>  <melting_point>
-0.71

>  <molecular_refractivity>
43.37

>  <oscillator_strength_1>
0.0002

>  <oscillator_strength_2>
0.0298

>  <oscillator_strength_3>
0.0124

>  <oscillator_strength_4>
0.037

>  <open_babel_can_smiles>
CCCCNCCCC

>  <mulliken_charges>
28
1   -0.440449
2   -0.440417
3   -0.250076
4   -0.250047
5   -0.258327
6   -0.258368
7   -0.105889
8   -0.105722
9   -0.561392
10   0.141606
11   0.143232
12   0.140861
13   0.141621
14   0.140824
15   0.14321
16   0.132295
17   0.130641
18   0.130614
19   0.132313
20   0.120954
21   0.144614
22   0.144611
23   0.120938
24   0.13439
25   0.104224
26   0.104202
27   0.134333
28   0.285205

>  <lowdin_charges>
28
1   -0.444198
2   -0.440367
3   -0.27059
4   -0.271214
5   -0.277539
6   -0.278207
7   -0.199305
8   -0.19952
9   -0.363125
10   0.150043
11   0.147557
12   0.145222
13   0.147133
14   0.144834
15   0.147237
16   0.138697
17   0.138727
18   0.138982
19   0.138928
20   0.13322
21   0.147071
22   0.147487
23   0.13343
24   0.137446
25   0.111903
26   0.112493
27   0.137716
28   0.24594

$$$$

