PCCDB-ID:  30273
public computational chemistry database (PCCDB) project, http://pccdb.org

 38 38  0  0  0  0  0  0  0  0999 V2000
    2.4635   -1.7910    1.2197 C   0  0  0  0  0  0  0  0  0  0  0  0
   -0.4595    2.8165   -2.1508 C   0  0  0  0  0  0  0  0  0  0  0  0
    1.4982    3.8930   -3.0316 C   0  0  0  0  0  0  0  0  0  0  0  0
    3.0299   -2.9633    0.4114 C   0  0  0  0  0  0  0  0  0  0  0  0
    6.9239    1.3849    0.4285 C   0  0  0  0  0  0  0  0  0  0  0  0
    6.1423    2.3404   -0.2204 C   0  0  0  0  0  0  0  0  0  0  0  0
    3.8924   -2.5405   -0.8014 C   0  0  0  0  0  0  0  0  0  0  0  0
    6.5562    0.0489    0.3428 C   0  0  0  0  0  0  0  0  0  0  0  0
    5.0162    1.9565   -0.9437 C   0  0  0  0  0  0  0  0  0  0  0  0
    1.7136    1.8066   -1.8072 C   0  0  0  0  0  0  0  0  0  0  0  0
    2.8317    1.1019   -2.5849 C   0  0  0  0  0  0  0  0  0  0  0  0
    5.4227   -0.3818   -0.3706 C   0  0  0  0  0  0  0  0  0  0  0  0
    5.1869   -1.8747   -0.3451 C   0  0  0  0  0  0  0  0  0  0  0  0
    4.6456    0.6053   -1.0327 C   0  0  0  0  0  0  0  0  0  0  0  0
    0.8797    2.6160   -2.6929 N   0  0  0  0  0  0  0  0  0  0  0  0
    6.0598   -2.5974    0.1223 O   0  0  0  0  0  0  0  0  0  0  0  0
    3.5616    0.1940   -1.7532 O   0  0  0  0  0  0  0  0  0  0  0  0
    1.8297   -2.1503    2.0386 H   0  0  0  0  0  0  0  0  0  0  0  0
    1.8560   -1.1309    0.5889 H   0  0  0  0  0  0  0  0  0  0  0  0
    3.2610   -1.1827    1.6614 H   0  0  0  0  0  0  0  0  0  0  0  0
   -1.0662    3.3711   -2.8748 H   0  0  0  0  0  0  0  0  0  0  0  0
   -0.4680    3.3802   -1.1974 H   0  0  0  0  0  0  0  0  0  0  0  0
   -0.9393    1.8476   -1.9784 H   0  0  0  0  0  0  0  0  0  0  0  0
    0.8655    4.4269   -3.7484 H   0  0  0  0  0  0  0  0  0  0  0  0
    2.4719    3.7367   -3.5060 H   0  0  0  0  0  0  0  0  0  0  0  0
    1.6455    4.5484   -2.1501 H   0  0  0  0  0  0  0  0  0  0  0  0
    2.2038   -3.5818    0.0374 H   0  0  0  0  0  0  0  0  0  0  0  0
    3.6372   -3.6067    1.0593 H   0  0  0  0  0  0  0  0  0  0  0  0
    7.8037    1.6780    0.9935 H   0  0  0  0  0  0  0  0  0  0  0  0
    6.4017    3.3947   -0.1660 H   0  0  0  0  0  0  0  0  0  0  0  0
    3.3148   -1.9097   -1.4736 H   0  0  0  0  0  0  0  0  0  0  0  0
    4.1964   -3.4456   -1.3395 H   0  0  0  0  0  0  0  0  0  0  0  0
    7.1428   -0.7228    0.8292 H   0  0  0  0  0  0  0  0  0  0  0  0
    4.4198    2.7187   -1.4294 H   0  0  0  0  0  0  0  0  0  0  0  0
    2.1326    2.3946   -0.9687 H   0  0  0  0  0  0  0  0  0  0  0  0
    1.0912    1.0240   -1.3602 H   0  0  0  0  0  0  0  0  0  0  0  0
    3.5177    1.8021   -3.0731 H   0  0  0  0  0  0  0  0  0  0  0  0
    2.3818    0.4798   -3.3624 H   0  0  0  0  0  0  0  0  0  0  0  0
  1 20  1  0  0  0  0
  1 18  1  0  0  0  0
  2 23  1  0  0  0  0
  2 22  1  0  0  0  0
  3 15  1  0  0  0  0
  3 26  1  0  0  0  0
  4 28  1  0  0  0  0
  4  1  1  0  0  0  0
  5 29  1  0  0  0  0
  6 30  1  0  0  0  0
  6  5  2  0  0  0  0
  7 13  1  0  0  0  0
  7  4  1  0  0  0  0
  8  5  1  0  0  0  0
  8 33  1  0  0  0  0
  9  6  1  0  0  0  0
 10 36  1  0  0  0  0
 10 35  1  0  0  0  0
 11 10  1  0  0  0  0
 11 17  1  0  0  0  0
 12 13  1  0  0  0  0
 12  8  2  0  0  0  0
 13 16  2  0  0  0  0
 14  9  2  0  0  0  0
 14 12  1  0  0  0  0
 15  2  1  0  0  0  0
 15 10  1  0  0  0  0
 17 14  1  0  0  0  0
 19  1  1  0  0  0  0
 21  2  1  0  0  0  0
 24  3  1  0  0  0  0
 25  3  1  0  0  0  0
 27  4  1  0  0  0  0
 31  7  1  0  0  0  0
 32  7  1  0  0  0  0
 34  9  1  0  0  0  0
 37 11  1  0  0  0  0
 38 11  1  0  0  0  0
M  END
>  <HBA>
3

>  <HBD>
0

>  <TPSA>
29.54

>  <cid>
30273

>  <dipole>
4.86

>  <excitation_energy_1>
3.638

>  <excitation_energy_2>
4.057

>  <excitation_energy_3>
4.351

>  <excitation_energy_4>
5.014

>  <homo_energy>
-6.019

>  <homo_lumo_gap>
4.71

>  <logP>
2.61

>  <lumo_energy>
-1.309

>  <melting_point>
43.64

>  <molecular_refractivity>
70.06

>  <oscillator_strength_1>
0.0004

>  <oscillator_strength_2>
0.0734

>  <oscillator_strength_3>
0.025

>  <oscillator_strength_4>
0.1511

>  <open_babel_can_smiles>
CCCC(=O)c1ccccc1OCCN(C)C

>  <mulliken_charges>
38
1   -0.449376
2   -0.297903
3   -0.306112
4   -0.254994
5   -0.130174
6   -0.12946
7   -0.340776
8   -0.169465
9   -0.195632
10   -0.147349
11   -0.044355
12   0.013417
13   0.408032
14   0.332557
15   -0.371006
16   -0.472198
17   -0.531066
18   0.142499
19   0.141143
20   0.152328
21   0.152176
22   0.123504
23   0.154173
24   0.1567
25   0.150451
26   0.12284
27   0.134294
28   0.155341
29   0.13292
30   0.13549
31   0.167947
32   0.154641
33   0.169113
34   0.135827
35   0.13056
36   0.155661
37   0.148978
38   0.169274

>  <lowdin_charges>
38
1   -0.452534
2   -0.355749
3   -0.361252
4   -0.265997
5   -0.17873
6   -0.128942
7   -0.317224
8   -0.119875
9   -0.219072
10   -0.217758
11   -0.138587
12   -0.085528
13   0.170481
14   0.115899
15   -0.184317
16   -0.258186
17   -0.192471
18   0.150761
19   0.14616
20   0.152552
21   0.153374
22   0.123237
23   0.152079
24   0.156089
25   0.14793
26   0.123298
27   0.144293
28   0.152365
29   0.160857
30   0.158905
31   0.164488
32   0.163906
33   0.181273
34   0.164758
35   0.128637
36   0.156001
37   0.145826
38   0.163057

$$$$

