PCCDB-ID:  48623
public computational chemistry database (PCCDB) project, http://pccdb.org

 30 29  0  0  0  0  0  0  0  0999 V2000
    9.0146    0.6111    2.5791 C   0  0  0  0  0  0  0  0  0  0  0  0
   10.3629   -3.6611   -8.7399 C   0  0  0  0  0  0  0  0  0  0  0  0
    7.7775    0.8883    2.1568 C   0  0  0  0  0  0  0  0  0  0  0  0
    7.9414   -0.2847    0.0997 C   0  0  0  0  0  0  0  0  0  0  0  0
    7.0594   -0.5660   -1.1072 C   0  0  0  0  0  0  0  0  0  0  0  0
    7.1152   -1.6838   -3.1841 C   0  0  0  0  0  0  0  0  0  0  0  0
    8.0216   -2.4767   -4.1014 C   0  0  0  0  0  0  0  0  0  0  0  0
   10.0338   -2.2440   -5.3396 C   0  0  0  0  0  0  0  0  0  0  0  0
    9.5908   -2.6860   -6.7352 C   0  0  0  0  0  0  0  0  0  0  0  0
    8.4717   -2.6000   -7.1864 O   0  0  0  0  0  0  0  0  0  0  0  0
   10.6434   -3.2017   -7.4061 O   0  0  0  0  0  0  0  0  0  0  0  0
    7.1765    0.5103    0.9986 O   0  0  0  0  0  0  0  0  0  0  0  0
    7.8148   -1.3608   -1.9972 O   0  0  0  0  0  0  0  0  0  0  0  0
    9.0268   -1.6064   -4.6088 O   0  0  0  0  0  0  0  0  0  0  0  0
    9.3393    0.9953    3.5392 H   0  0  0  0  0  0  0  0  0  0  0  0
    9.7242    0.0172    2.0150 H   0  0  0  0  0  0  0  0  0  0  0  0
    9.9904   -2.8398   -9.3575 H   0  0  0  0  0  0  0  0  0  0  0  0
    9.6165   -4.4597   -8.7211 H   0  0  0  0  0  0  0  0  0  0  0  0
   11.3119   -4.0325   -9.1273 H   0  0  0  0  0  0  0  0  0  0  0  0
    7.0873    1.4871    2.7453 H   0  0  0  0  0  0  0  0  0  0  0  0
    8.8494    0.2494   -0.2096 H   0  0  0  0  0  0  0  0  0  0  0  0
    8.2430   -1.2252    0.5799 H   0  0  0  0  0  0  0  0  0  0  0  0
    6.7571    0.3831   -1.5782 H   0  0  0  0  0  0  0  0  0  0  0  0
    6.1414   -1.0860   -0.7865 H   0  0  0  0  0  0  0  0  0  0  0  0
    6.2207   -2.2879   -2.9540 H   0  0  0  0  0  0  0  0  0  0  0  0
    6.7809   -0.7703   -3.7009 H   0  0  0  0  0  0  0  0  0  0  0  0
    7.4287   -2.9001   -4.9217 H   0  0  0  0  0  0  0  0  0  0  0  0
    8.4833   -3.3019   -3.5355 H   0  0  0  0  0  0  0  0  0  0  0  0
   10.8571   -1.5301   -5.4523 H   0  0  0  0  0  0  0  0  0  0  0  0
   10.4398   -3.1243   -4.8129 H   0  0  0  0  0  0  0  0  0  0  0  0
  1 15  1  0  0  0  0
  2 18  1  0  0  0  0
  2 11  1  0  0  0  0
  3  1  2  0  0  0  0
  3 20  1  0  0  0  0
  4 22  1  0  0  0  0
  4 12  1  0  0  0  0
  5 24  1  0  0  0  0
  5  4  1  0  0  0  0
  6 25  1  0  0  0  0
  6 13  1  0  0  0  0
  7 28  1  0  0  0  0
  7  6  1  0  0  0  0
  8 30  1  0  0  0  0
  8 14  1  0  0  0  0
  9  8  1  0  0  0  0
 10  9  2  0  0  0  0
 11  9  1  0  0  0  0
 12  3  1  0  0  0  0
 13  5  1  0  0  0  0
 14  7  1  0  0  0  0
 16  1  1  0  0  0  0
 17  2  1  0  0  0  0
 19  2  1  0  0  0  0
 21  4  1  0  0  0  0
 23  5  1  0  0  0  0
 26  6  1  0  0  0  0
 27  7  1  0  0  0  0
 29  8  1  0  0  0  0
M  END
>  <HBA>
5

>  <HBD>
0

>  <TPSA>
53.99

>  <cid>
48623

>  <dipole>
2.39

>  <excitation_energy_1>
5.638

>  <excitation_energy_2>
5.905

>  <excitation_energy_3>
5.939

>  <excitation_energy_4>
6.142

>  <homo_energy>
-6.109

>  <homo_lumo_gap>
6.302

>  <logP>
0.353

>  <lumo_energy>
0.193

>  <melting_point>
-63.56

>  <molecular_refractivity>
49.44

>  <oscillator_strength_1>
0.0019

>  <oscillator_strength_2>
0.0005

>  <oscillator_strength_3>
0.0444

>  <oscillator_strength_4>
0.001

>  <open_babel_can_smiles>
C=COCCOCCOCC(=O)OC

>  <mulliken_charges>
30
1   -0.400931
2   -0.219167
3   0.158884
4   -0.048413
5   -0.021399
6   -0.02306
7   -0.039491
8   -0.105558
9   0.590665
10   -0.466369
11   -0.447112
12   -0.456218
13   -0.479425
14   -0.450424
15   0.141324
16   0.145092
17   0.174028
18   0.1712
19   0.167524
20   0.141733
21   0.1557
22   0.151182
23   0.136986
24   0.131407
25   0.122421
26   0.142778
27   0.156185
28   0.130028
29   0.184353
30   0.156076

>  <lowdin_charges>
30
1   -0.428854
2   -0.278256
3   -0.03689
4   -0.132673
5   -0.133285
6   -0.133833
7   -0.141776
8   -0.16159
9   0.176907
10   -0.253208
11   -0.194832
12   -0.19769
13   -0.268118
14   -0.248485
15   0.168352
16   0.164448
17   0.162394
18   0.160236
19   0.162498
20   0.159873
21   0.148514
22   0.145918
23   0.135926
24   0.132918
25   0.132681
26   0.142163
27   0.151878
28   0.136214
29   0.175145
30   0.153424

$$$$

