PCCDB-ID:  13080
public computational chemistry database (PCCDB) project, http://pccdb.org

 38 39  0  0  1  0  0  0  0  0999 V2000
    4.1694   -3.9170   -0.9649 C   0  0  0  0  0  0  0  0  0  0  0  0
    3.0841   -3.6568   -0.1260 C   0  0  0  0  0  0  0  0  0  0  0  0
    4.7863   -2.8636   -1.6426 C   0  0  0  0  0  0  0  0  0  0  0  0
    2.3174    7.0990    3.0604 C   0  0  0  0  0  0  0  0  0  0  0  0
    1.8442    6.0776    4.1303 C   0  0  0  0  0  0  0  0  0  0  0  0
    2.6225   -2.3498    0.0325 C   0  0  0  0  0  0  0  0  0  0  0  0
    4.3284   -1.5557   -1.4779 C   0  0  0  0  0  0  0  0  0  0  0  0
    3.6979    6.5495    2.6074 C   0  0  0  0  0  0  0  0  0  0  0  0
    2.9919    5.0297    4.1856 C   0  0  0  0  0  0  0  0  0  0  0  0
    3.0999    4.2808    1.8510 C   0  0  0  0  0  0  0  0  0  0  0  0
    3.6446    2.8557    1.9137 C   0  0  0  0  0  0  0  0  0  0  0  0
    3.4332    0.7430    0.8322 C   0  0  0  0  0  0  0  0  0  0  0  0
    3.2430   -1.2876   -0.6360 C   0  0  0  0  0  0  0  0  0  0  0  0
    2.7692    0.1331   -0.4090 C   0  0  2  0  0  0  0  0  0  0  0  0
    3.7065    5.1079    2.8992 N   0  0  0  0  0  0  0  0  0  0  0  0
    3.0771    0.9347   -1.5399 O   0  0  0  0  0  0  0  0  0  0  0  0
    3.0001    2.0938    0.9027 O   0  0  0  0  0  0  0  0  0  0  0  0
    4.5268   -4.9351   -1.0953 H   0  0  0  0  0  0  0  0  0  0  0  0
    2.5912   -4.4716    0.3981 H   0  0  0  0  0  0  0  0  0  0  0  0
    5.6261   -3.0606   -2.3042 H   0  0  0  0  0  0  0  0  0  0  0  0
    2.3970    8.1168    3.4561 H   0  0  0  0  0  0  0  0  0  0  0  0
    1.6170    7.1353    2.2191 H   0  0  0  0  0  0  0  0  0  0  0  0
    0.9007    5.6093    3.8313 H   0  0  0  0  0  0  0  0  0  0  0  0
    1.6757    6.5392    5.1085 H   0  0  0  0  0  0  0  0  0  0  0  0
    1.7673   -2.1536    0.6764 H   0  0  0  0  0  0  0  0  0  0  0  0
    4.7934   -0.7336   -2.0114 H   0  0  0  0  0  0  0  0  0  0  0  0
    4.4964    7.0190    3.1974 H   0  0  0  0  0  0  0  0  0  0  0  0
    3.9209    6.7319    1.5522 H   0  0  0  0  0  0  0  0  0  0  0  0
    2.6409    4.0113    4.3765 H   0  0  0  0  0  0  0  0  0  0  0  0
    3.6976    5.2864    4.9862 H   0  0  0  0  0  0  0  0  0  0  0  0
    1.9970    4.2414    1.8933 H   0  0  0  0  0  0  0  0  0  0  0  0
    3.3649    4.7012    0.8748 H   0  0  0  0  0  0  0  0  0  0  0  0
    3.4543    2.4062    2.9016 H   0  0  0  0  0  0  0  0  0  0  0  0
    4.7345    2.8675    1.7623 H   0  0  0  0  0  0  0  0  0  0  0  0
    4.5283    0.6943    0.7251 H   0  0  0  0  0  0  0  0  0  0  0  0
    3.1492    0.1903    1.7413 H   0  0  0  0  0  0  0  0  0  0  0  0
    1.6803    0.1276   -0.2327 H   0  0  0  0  0  0  0  0  0  0  0  0
    3.0003    1.8520   -1.2242 H   0  0  0  0  0  0  0  0  0  0  0  0
  1  2  2  0  0  0  0
  2  6  1  0  0  0  0
  2 19  1  0  0  0  0
  3  7  2  0  0  0  0
  3  1  1  0  0  0  0
  4 21  1  0  0  0  0
  4  5  1  0  0  0  0
  5  9  1  0  0  0  0
  5 24  1  0  0  0  0
  6 25  1  0  0  0  0
  7 13  1  0  0  0  0
  8 15  1  0  0  0  0
  8  4  1  0  0  0  0
  8 27  1  0  0  0  0
  9 29  1  0  0  0  0
  9 30  1  0  0  0  0
 10 31  1  0  0  0  0
 10 11  1  0  0  0  0
 10 15  1  0  0  0  0
 11 33  1  0  0  0  0
 12 17  1  0  0  0  0
 12 36  1  0  0  0  0
 13 14  1  0  0  0  0
 13  6  2  0  0  0  0
 14 37  1  1  0  0  0
 14 12  1  0  0  0  0
 15  9  1  0  0  0  0
 16 38  1  0  0  0  0
 16 14  1  0  0  0  0
 17 11  1  0  0  0  0
 18  1  1  0  0  0  0
 20  3  1  0  0  0  0
 22  4  1  0  0  0  0
 23  5  1  0  0  0  0
 26  7  1  0  0  0  0
 28  8  1  0  0  0  0
 32 10  1  0  0  0  0
 34 11  1  0  0  0  0
 35 12  1  0  0  0  0
M  END
>  <HBA>
3

>  <HBD>
1

>  <TPSA>
32.7

>  <cid>
13080

>  <dipole>
2.64

>  <excitation_energy_1>
5.298

>  <excitation_energy_2>
5.301

>  <excitation_energy_3>
5.379

>  <excitation_energy_4>
5.491

>  <homo_energy>
-5.87

>  <homo_lumo_gap>
5.938

>  <logP>
1.77

>  <lumo_energy>
0.068

>  <melting_point>
37.38

>  <molecular_refractivity>
72.0

>  <oscillator_strength_1>
0.0204

>  <oscillator_strength_2>
0.0034

>  <oscillator_strength_3>
0.0096

>  <oscillator_strength_4>
0.0024

>  <open_babel_can_smiles>
O[C@@H](c1ccccc1)COCCN1CCCC1

>  <mulliken_charges>
38
1   -0.127111
2   -0.132133
3   -0.132381
4   -0.28491
5   -0.284427
6   -0.179562
7   -0.167251
8   -0.145666
9   -0.154151
10   -0.148124
11   -0.001377
12   -0.024553
13   0.129848
14   0.065661
15   -0.384798
16   -0.644466
17   -0.50628
18   0.126979
19   0.127358
20   0.128544
21   0.140111
22   0.142601
23   0.143445
24   0.140472
25   0.121773
26   0.150703
27   0.143515
28   0.140169
29   0.140392
30   0.14539
31   0.13082
32   0.143541
33   0.124514
34   0.137005
35   0.134113
36   0.127699
37   0.127898
38   0.404637

>  <lowdin_charges>
38
1   -0.158614
2   -0.158499
3   -0.154464
4   -0.301479
5   -0.301674
6   -0.167082
7   -0.157988
8   -0.20832
9   -0.211437
10   -0.205705
11   -0.130242
12   -0.145622
13   -0.012772
14   -0.001397
15   -0.189828
16   -0.459688
17   -0.283869
18   0.155583
19   0.157667
20   0.157125
21   0.147586
22   0.146773
23   0.146488
24   0.14874
25   0.15362
26   0.170443
27   0.143393
28   0.145326
29   0.145304
30   0.144524
31   0.126541
32   0.148236
33   0.128383
34   0.133915
35   0.13469
36   0.136362
37   0.133203
38   0.344779

$$$$

