PCCDB-ID:  49300
public computational chemistry database (PCCDB) project, http://pccdb.org

 31 31  0  0  1  0  0  0  0  0999 V2000
    1.0841    0.0743   -0.0334 C   0  0  0  0  0  0  0  0  0  0  0  0
    2.9739    0.1381   -1.7081 C   0  0  0  0  0  0  0  0  0  0  0  0
    6.7291    2.9016    1.2511 C   0  0  0  0  0  0  0  0  0  0  0  0
    3.1150    1.4827    0.4690 C   0  0  0  0  0  0  0  0  0  0  0  0
    4.6438    1.6086    0.5188 C   0  0  0  0  0  0  0  0  0  0  0  0
    2.6040    0.1992   -0.2178 C   0  0  0  0  0  0  0  0  0  0  0  0
    4.6968    2.8639    2.7254 C   0  0  0  0  0  0  0  0  0  0  0  0
    4.6380    4.1429    0.6293 C   0  0  0  0  0  0  0  0  0  0  0  0
    3.7003    4.9586    2.5923 C   0  0  0  0  0  0  0  0  0  0  0  0
    5.1757    2.8664    1.2745 C   0  0  1  0  0  0  0  0  0  0  0  0
    4.0467    3.7851    3.3133 N   0  0  0  0  0  0  0  0  0  0  0  0
    3.9888    5.0714    1.2065 N   0  0  0  0  0  0  0  0  0  0  0  0
    5.0090    1.7732    3.4633 O   0  0  0  0  0  0  0  0  0  0  0  0
    4.8930    4.3072   -0.6897 O   0  0  0  0  0  0  0  0  0  0  0  0
    3.1470    5.8697    3.1639 O   0  0  0  0  0  0  0  0  0  0  0  0
    0.7075   -0.8503   -0.4854 H   0  0  0  0  0  0  0  0  0  0  0  0
    0.5611    0.9141   -0.5081 H   0  0  0  0  0  0  0  0  0  0  0  0
    0.8089    0.0672    1.0275 H   0  0  0  0  0  0  0  0  0  0  0  0
    2.5778   -0.7739   -2.1686 H   0  0  0  0  0  0  0  0  0  0  0  0
    4.0578    0.1382   -1.8720 H   0  0  0  0  0  0  0  0  0  0  0  0
    2.5510    0.9936   -2.2508 H   0  0  0  0  0  0  0  0  0  0  0  0
    7.1533    2.0112    1.7273 H   0  0  0  0  0  0  0  0  0  0  0  0
    7.1079    3.7821    1.7781 H   0  0  0  0  0  0  0  0  0  0  0  0
    7.1085    2.9308    0.2241 H   0  0  0  0  0  0  0  0  0  0  0  0
    2.6933    2.3571   -0.0459 H   0  0  0  0  0  0  0  0  0  0  0  0
    2.7242    1.5128    1.4946 H   0  0  0  0  0  0  0  0  0  0  0  0
    5.0592    1.6113   -0.4977 H   0  0  0  0  0  0  0  0  0  0  0  0
    5.0721    0.7077    0.9824 H   0  0  0  0  0  0  0  0  0  0  0  0
    3.0755   -0.6600    0.2851 H   0  0  0  0  0  0  0  0  0  0  0  0
    5.4986    1.1306    2.9270 H   0  0  0  0  0  0  0  0  0  0  0  0
    5.3821    3.5455   -1.0374 H   0  0  0  0  0  0  0  0  0  0  0  0
  1 18  1  0  0  0  0
  2  6  1  0  0  0  0
  3 10  1  0  0  0  0
  3 22  1  0  0  0  0
  3 23  1  0  0  0  0
  4  5  1  0  0  0  0
  4 26  1  0  0  0  0
  5 28  1  0  0  0  0
  6  1  1  0  0  0  0
  6 29  1  0  0  0  0
  6  4  1  0  0  0  0
  7 11  2  0  0  0  0
  7 13  1  0  0  0  0
  8 12  2  0  0  0  0
  8 10  1  0  0  0  0
  9 15  2  0  0  0  0
  9 11  2  0  0  0  0
 10  5  1  6  0  0  0
 10  7  1  0  0  0  0
 12  9  1  0  0  0  0
 14  8  1  0  0  0  0
 16  1  1  0  0  0  0
 17  1  1  0  0  0  0
 19  2  1  0  0  0  0
 20  2  1  0  0  0  0
 21  2  1  0  0  0  0
 24  3  1  0  0  0  0
 25  4  1  0  0  0  0
 27  5  1  0  0  0  0
 30 13  1  0  0  0  0
 31 14  1  0  0  0  0
M  END
>  <HBA>
5

>  <HBD>
2

>  <TPSA>
75.27

>  <cid>
49300

>  <dipole>
9.98

>  <excitation_energy_1>
4.0

>  <excitation_energy_2>
4.174

>  <excitation_energy_3>
5.242

>  <excitation_energy_4>
5.476

>  <homo_energy>
-6.904

>  <homo_lumo_gap>
5.393

>  <logP>
1.452

>  <lumo_energy>
-1.51

>  <melting_point>
140.91

>  <molecular_refractivity>
62.23

>  <oscillator_strength_1>
0.0

>  <oscillator_strength_2>
0.0

>  <oscillator_strength_3>
0.0001

>  <oscillator_strength_4>
0.0002

>  <open_babel_can_smiles>
CC(CC[C@@]1(C)C(=N[C](=[N]=C1O)=O)O)C

>  <mulliken_charges>
31
1   -0.44665
2   -0.450322
3   -0.45129
4   -0.271339
5   -0.295911
6   -0.072279
7   0.551678
8   0.551959
9   0.619413
10   -0.148371
11   -0.467543
12   -0.467293
13   -0.578039
14   -0.578302
15   -0.430156
16   0.146551
17   0.149671
18   0.150924
19   0.152555
20   0.135006
21   0.14916
22   0.154061
23   0.195628
24   0.15394
25   0.16097
26   0.163145
27   0.135278
28   0.132188
29   0.122413
30   0.416051
31   0.416905

>  <lowdin_charges>
31
1   -0.443467
2   -0.447969
3   -0.435674
4   -0.285644
5   -0.275483
6   -0.119803
7   0.148085
8   0.149374
9   0.174731
10   -0.060714
11   -0.184661
12   -0.184532
13   -0.332748
14   -0.333369
15   -0.208184
16   0.152258
17   0.152357
18   0.151843
19   0.155777
20   0.140642
21   0.151374
22   0.156005
23   0.177603
24   0.154525
25   0.155933
26   0.156629
27   0.141521
28   0.141606
29   0.135495
30   0.358644
31   0.357847

$$$$

