PCCDB-ID:  42680
public computational chemistry database (PCCDB) project, http://pccdb.org

 44 46  0  0  1  0  0  0  0  0999 V2000
    0.4010    0.1261    0.6668 C   0  0  0  0  0  0  0  0  0  0  0  0
    1.9365   -1.5634    1.6222 C   0  0  0  0  0  0  0  0  0  0  0  0
    5.9017    2.9351   -1.8150 C   0  0  0  0  0  0  0  0  0  0  0  0
    5.7852    2.5670   -0.3280 C   0  0  0  0  0  0  0  0  0  0  0  0
    4.8529    2.1777   -2.6442 C   0  0  0  0  0  0  0  0  0  0  0  0
    0.3572   -1.3514   -1.8887 C   0  0  0  0  0  0  0  0  0  0  0  0
    1.5326   -0.3317   -2.0217 C   0  0  0  0  0  0  0  0  0  0  0  0
    5.8196    1.0385   -0.1502 C   0  0  0  0  0  0  0  0  0  0  0  0
    4.9205    0.6660   -2.3598 C   0  0  0  0  0  0  0  0  0  0  0  0
    1.9112   -3.0400   -0.9214 C   0  0  0  0  0  0  0  0  0  0  0  0
    3.4382    0.4419   -0.3669 C   0  0  0  0  0  0  0  0  0  0  0  0
    0.7123   -2.1230   -0.5954 C   0  0  1  0  0  0  0  0  0  0  0  0
    3.0822   -2.0425   -1.1370 C   0  0  1  0  0  0  0  0  0  0  0  0
    1.3600   -1.0236    0.2973 C   0  0  0  0  0  0  0  0  0  0  0  0
    2.4402   -0.6513   -0.7979 C   0  0  2  0  0  0  0  0  0  0  0  0
    4.8007    0.3122   -0.9322 N   0  0  0  0  0  0  0  0  0  0  0  0
    4.1901   -2.3953   -0.3244 O   0  0  0  0  0  0  0  0  0  0  0  0
   -0.3633   -0.2358    1.3660 H   0  0  0  0  0  0  0  0  0  0  0  0
   -0.1201    0.5678   -0.1861 H   0  0  0  0  0  0  0  0  0  0  0  0
    0.9433    0.9334    1.1749 H   0  0  0  0  0  0  0  0  0  0  0  0
    1.1451   -2.0648    2.1944 H   0  0  0  0  0  0  0  0  0  0  0  0
    2.3034   -0.7395    2.2478 H   0  0  0  0  0  0  0  0  0  0  0  0
    2.7651   -2.2567    1.4796 H   0  0  0  0  0  0  0  0  0  0  0  0
    6.9065    2.6648   -2.1734 H   0  0  0  0  0  0  0  0  0  0  0  0
    5.8003    4.0182   -1.9566 H   0  0  0  0  0  0  0  0  0  0  0  0
    4.8487    2.9683    0.0829 H   0  0  0  0  0  0  0  0  0  0  0  0
    6.6006    3.0212    0.2499 H   0  0  0  0  0  0  0  0  0  0  0  0
    5.0070    2.3512   -3.7170 H   0  0  0  0  0  0  0  0  0  0  0  0
    3.8495    2.5575   -2.4092 H   0  0  0  0  0  0  0  0  0  0  0  0
    0.2904   -2.0236   -2.7512 H   0  0  0  0  0  0  0  0  0  0  0  0
   -0.6092   -0.8437   -1.8070 H   0  0  0  0  0  0  0  0  0  0  0  0
    1.1764    0.7036   -1.9897 H   0  0  0  0  0  0  0  0  0  0  0  0
    2.0663   -0.4520   -2.9708 H   0  0  0  0  0  0  0  0  0  0  0  0
    5.7051    0.7631    0.9043 H   0  0  0  0  0  0  0  0  0  0  0  0
    6.8024    0.6656   -0.4734 H   0  0  0  0  0  0  0  0  0  0  0  0
    5.8905    0.2815   -2.7064 H   0  0  0  0  0  0  0  0  0  0  0  0
    4.1512    0.1310   -2.9218 H   0  0  0  0  0  0  0  0  0  0  0  0
    1.7258   -3.6653   -1.8016 H   0  0  0  0  0  0  0  0  0  0  0  0
    2.1611   -3.7072   -0.0919 H   0  0  0  0  0  0  0  0  0  0  0  0
    3.5687    0.3729    0.7180 H   0  0  0  0  0  0  0  0  0  0  0  0
    2.9943    1.4330   -0.5585 H   0  0  0  0  0  0  0  0  0  0  0  0
   -0.1383   -2.6466   -0.1454 H   0  0  0  0  0  0  0  0  0  0  0  0
    3.4002   -2.0413   -2.1919 H   0  0  0  0  0  0  0  0  0  0  0  0
    4.8151   -1.6499   -0.4599 H   0  0  0  0  0  0  0  0  0  0  0  0
  1 20  1  0  0  0  0
  1 18  1  0  0  0  0
  2 21  1  0  0  0  0
  2 22  1  0  0  0  0
  3  4  1  0  0  0  0
  4  8  1  0  0  0  0
  4 26  1  0  0  0  0
  4 27  1  0  0  0  0
  5 29  1  0  0  0  0
  5  9  1  0  0  0  0
  5  3  1  0  0  0  0
  6 31  1  0  0  0  0
  6 12  1  0  0  0  0
  7 32  1  0  0  0  0
  7  6  1  0  0  0  0
  7 15  1  0  0  0  0
  8 34  1  0  0  0  0
  9 16  1  0  0  0  0
 10 12  1  0  0  0  0
 10 39  1  0  0  0  0
 11 40  1  0  0  0  0
 12 42  1  1  0  0  0
 12 14  1  0  0  0  0
 13 43  1  6  0  0  0
 13 10  1  0  0  0  0
 13 15  1  0  0  0  0
 13 17  1  0  0  0  0
 14  1  1  0  0  0  0
 14  2  1  0  0  0  0
 15 11  1  1  0  0  0
 15 14  1  0  0  0  0
 16 11  1  0  0  0  0
 16  8  1  0  0  0  0
 19  1  1  0  0  0  0
 23  2  1  0  0  0  0
 24  3  1  0  0  0  0
 25  3  1  0  0  0  0
 28  5  1  0  0  0  0
 30  6  1  0  0  0  0
 33  7  1  0  0  0  0
 35  8  1  0  0  0  0
 36  9  1  0  0  0  0
 37  9  1  0  0  0  0
 38 10  1  0  0  0  0
 41 11  1  0  0  0  0
 44 17  1  0  0  0  0
M  END
>  <HBA>
2

>  <HBD>
1

>  <TPSA>
23.47

>  <cid>
42680

>  <dipole>
2.82

>  <excitation_energy_1>
5.179

>  <excitation_energy_2>
5.435

>  <excitation_energy_3>
5.585

>  <excitation_energy_4>
5.795

>  <homo_energy>
-5.823

>  <homo_lumo_gap>
7.655

>  <logP>
2.597

>  <lumo_energy>
1.831

>  <melting_point>
93.82

>  <molecular_refractivity>
75.33

>  <oscillator_strength_1>
0.0131

>  <oscillator_strength_2>
0.0048

>  <oscillator_strength_3>
0.0071

>  <oscillator_strength_4>
0.0002

>  <open_babel_can_smiles>
O[C@H]1C[C@H]2C([C@@]1(CC2)CN1CCCCC1)(C)C

>  <mulliken_charges>
44
1   -0.466275
2   -0.484984
3   -0.259223
4   -0.267429
5   -0.270387
6   -0.282077
7   -0.302402
8   -0.139118
9   -0.143556
10   -0.295023
11   -0.166286
12   -0.096744
13   0.145546
14   0.089745
15   0.061731
16   -0.42944
17   -0.663535
18   0.141459
19   0.142162
20   0.137702
21   0.132382
22   0.128995
23   0.189342
24   0.129702
25   0.135695
26   0.138038
27   0.134887
28   0.134977
29   0.138385
30   0.131434
31   0.136245
32   0.133493
33   0.133414
34   0.144088
35   0.137754
36   0.138108
37   0.150849
38   0.129441
39   0.157609
40   0.145904
41   0.12755
42   0.108178
43   0.103032
44   0.408631

>  <lowdin_charges>
44
1   -0.45088
2   -0.461085
3   -0.275519
4   -0.295218
5   -0.291137
6   -0.287107
7   -0.289381
8   -0.205617
9   -0.210629
10   -0.290007
11   -0.205465
12   -0.134419
13   -0.00443
14   0.00519
15   -0.0277
16   -0.188013
17   -0.480308
18   0.150917
19   0.149827
20   0.147027
21   0.147109
22   0.142953
23   0.17124
24   0.137569
25   0.143446
26   0.142141
27   0.148742
28   0.146288
29   0.141111
30   0.143227
31   0.143378
32   0.140776
33   0.139971
34   0.14591
35   0.140655
36   0.141908
37   0.152082
38   0.143615
39   0.159652
40   0.149793
41   0.128718
42   0.138843
43   0.118379
44   0.336447

$$$$

