PCCDB-ID:  16426
public computational chemistry database (PCCDB) project, http://pccdb.org

 32 32  0  0  0  0  0  0  0  0999 V2000
    5.3685   -2.1943    0.2362 C   0  0  0  0  0  0  0  0  0  0  0  0
   -0.1335   -3.0511    6.9551 C   0  0  0  0  0  0  0  0  0  0  0  0
    1.5347   -1.1821    7.0262 C   0  0  0  0  0  0  0  0  0  0  0  0
   -0.5805   -0.9873    5.6023 C   0  0  0  0  0  0  0  0  0  0  0  0
    2.5968   -0.3330    2.5181 C   0  0  0  0  0  0  0  0  0  0  0  0
    2.4542   -2.5793    1.6779 C   0  0  0  0  0  0  0  0  0  0  0  0
    2.0646   -0.7452    3.7401 C   0  0  0  0  0  0  0  0  0  0  0  0
    1.8960   -2.9901    2.8837 C   0  0  0  0  0  0  0  0  0  0  0  0
    4.3629   -1.1981   -0.3008 C   0  0  0  0  0  0  0  0  0  0  0  0
    2.8227   -1.2375    1.4726 C   0  0  0  0  0  0  0  0  0  0  0  0
    1.6959   -2.0843    3.9362 C   0  0  0  0  0  0  0  0  0  0  0  0
    0.5120   -1.9184    6.1455 C   0  0  0  0  0  0  0  0  0  0  0  0
    3.3073   -0.7553    0.2450 N   0  0  0  0  0  0  0  0  0  0  0  0
    4.6633   -0.6885   -1.5325 O   0  0  0  0  0  0  0  0  0  0  0  0
    1.1819   -2.6430    5.0773 O   0  0  0  0  0  0  0  0  0  0  0  0
    5.1244   -2.4890    1.2573 H   0  0  0  0  0  0  0  0  0  0  0  0
    6.3727   -1.7504    0.2292 H   0  0  0  0  0  0  0  0  0  0  0  0
    5.3996   -3.0958   -0.3883 H   0  0  0  0  0  0  0  0  0  0  0  0
   -0.6690   -2.6480    7.8212 H   0  0  0  0  0  0  0  0  0  0  0  0
    0.6299   -3.7501    7.3115 H   0  0  0  0  0  0  0  0  0  0  0  0
   -0.8427   -3.6052    6.3323 H   0  0  0  0  0  0  0  0  0  0  0  0
    1.0435   -0.7926    7.9252 H   0  0  0  0  0  0  0  0  0  0  0  0
    2.0078   -0.3405    6.5152 H   0  0  0  0  0  0  0  0  0  0  0  0
    2.3227   -1.8751    7.3387 H   0  0  0  0  0  0  0  0  0  0  0  0
   -1.1388   -0.5482    6.4366 H   0  0  0  0  0  0  0  0  0  0  0  0
   -1.2834   -1.5514    4.9804 H   0  0  0  0  0  0  0  0  0  0  0  0
   -0.1786   -0.1691    5.0010 H   0  0  0  0  0  0  0  0  0  0  0  0
    2.8579    0.7106    2.3694 H   0  0  0  0  0  0  0  0  0  0  0  0
    2.5729   -3.2962    0.8697 H   0  0  0  0  0  0  0  0  0  0  0  0
    1.9424   -0.0078    4.5219 H   0  0  0  0  0  0  0  0  0  0  0  0
    1.5996   -4.0239    3.0340 H   0  0  0  0  0  0  0  0  0  0  0  0
    5.5112   -1.0531   -1.8294 H   0  0  0  0  0  0  0  0  0  0  0  0
  1 16  1  0  0  0  0
  2 20  1  0  0  0  0
  2 19  1  0  0  0  0
  3 24  1  0  0  0  0
  3 22  1  0  0  0  0
  4 12  1  0  0  0  0
  4 25  1  0  0  0  0
  5  7  2  0  0  0  0
  6  8  1  0  0  0  0
  7 11  1  0  0  0  0
  7 30  1  0  0  0  0
  8 31  1  0  0  0  0
  8 11  2  0  0  0  0
  9  1  1  0  0  0  0
  9 13  2  0  0  0  0
 10  6  2  0  0  0  0
 10  5  1  0  0  0  0
 11 15  1  0  0  0  0
 12  2  1  0  0  0  0
 12  3  1  0  0  0  0
 13 10  1  0  0  0  0
 14  9  1  0  0  0  0
 15 12  1  0  0  0  0
 17  1  1  0  0  0  0
 18  1  1  0  0  0  0
 21  2  1  0  0  0  0
 23  3  1  0  0  0  0
 26  4  1  0  0  0  0
 27  4  1  0  0  0  0
 28  5  1  0  0  0  0
 29  6  1  0  0  0  0
 32 14  1  0  0  0  0
M  END
>  <HBA>
3

>  <HBD>
1

>  <TPSA>
38.33

>  <cid>
16426

>  <dipole>
2.85

>  <excitation_energy_1>
4.417

>  <excitation_energy_2>
4.526

>  <excitation_energy_3>
4.608

>  <excitation_energy_4>
4.927

>  <homo_energy>
-5.151

>  <homo_lumo_gap>
5.225

>  <logP>
2.895

>  <lumo_energy>
0.073

>  <melting_point>
73.73

>  <molecular_refractivity>
61.71

>  <oscillator_strength_1>
0.1437

>  <oscillator_strength_2>
0.0008

>  <oscillator_strength_3>
0.0977

>  <oscillator_strength_4>
0.0014

>  <open_babel_can_smiles>
C/C(=N\c1ccc(cc1)OC(C)(C)C)/O

>  <mulliken_charges>
32
1   -0.555812
2   -0.444122
3   -0.460431
4   -0.466688
5   -0.162516
6   -0.160645
7   -0.19703
8   -0.188479
9   0.479857
10   0.237807
11   0.384705
12   0.31648
13   -0.470305
14   -0.571946
15   -0.566098
16   0.198921
17   0.16703
18   0.174965
19   0.139154
20   0.153605
21   0.153396
22   0.143382
23   0.153968
24   0.157088
25   0.144929
26   0.157781
27   0.158171
28   0.131992
29   0.123314
30   0.130187
31   0.131466
32   0.405871

>  <lowdin_charges>
32
1   -0.483061
2   -0.445442
3   -0.457287
4   -0.45951
5   -0.164171
6   -0.181986
7   -0.208391
8   -0.179982
9   0.143331
10   0.028489
11   0.096187
12   0.13905
13   -0.172682
14   -0.363906
15   -0.216535
16   0.183581
17   0.165094
18   0.169593
19   0.151196
20   0.157703
21   0.157913
22   0.15448
23   0.153901
24   0.159874
25   0.156607
26   0.160638
27   0.159846
28   0.161107
29   0.157174
30   0.160274
31   0.162251
32   0.354662

$$$$

