PCCDB-ID:  15286
public computational chemistry database (PCCDB) project, http://pccdb.org

 22 21  0  0  1  0  0  0  0  0999 V2000
    2.8024    0.0047   -1.3812 C   0  0  0  0  0  0  0  0  0  0  0  0
    7.0759   -2.3063   -0.0503 C   0  0  0  0  0  0  0  0  0  0  0  0
    2.4744   -0.0376    0.1143 C   0  0  0  0  0  0  0  0  0  0  0  0
    2.9666   -1.3022    0.8084 C   0  0  0  0  0  0  0  0  0  0  0  0
    4.9538   -2.4953    1.3523 C   0  0  0  0  0  0  0  0  0  0  0  0
    6.4715   -2.3006    1.3570 C   0  0  2  0  0  0  0  0  0  0  0  0
    6.7914   -1.1012    2.0563 O   0  0  0  0  0  0  0  0  0  0  0  0
    4.3844   -1.3482    0.7377 O   0  0  0  0  0  0  0  0  0  0  0  0
    2.4428    0.9335   -1.8374 H   0  0  0  0  0  0  0  0  0  0  0  0
    2.3322   -0.8327   -1.9118 H   0  0  0  0  0  0  0  0  0  0  0  0
    3.8822   -0.0599   -1.5446 H   0  0  0  0  0  0  0  0  0  0  0  0
    6.9110   -3.2689   -0.5502 H   0  0  0  0  0  0  0  0  0  0  0  0
    8.1533   -2.1255    0.0092 H   0  0  0  0  0  0  0  0  0  0  0  0
    6.6243   -1.5213   -0.6660 H   0  0  0  0  0  0  0  0  0  0  0  0
    1.3887    0.0284    0.2656 H   0  0  0  0  0  0  0  0  0  0  0  0
    2.9153    0.8304    0.6216 H   0  0  0  0  0  0  0  0  0  0  0  0
    2.5402   -2.1972    0.3232 H   0  0  0  0  0  0  0  0  0  0  0  0
    2.6446   -1.3154    1.8631 H   0  0  0  0  0  0  0  0  0  0  0  0
    4.5917   -2.5857    2.3888 H   0  0  0  0  0  0  0  0  0  0  0  0
    4.6695   -3.4106    0.8072 H   0  0  0  0  0  0  0  0  0  0  0  0
    6.9139   -3.1142    1.9452 H   0  0  0  0  0  0  0  0  0  0  0  0
    6.1953   -0.4264    1.6883 H   0  0  0  0  0  0  0  0  0  0  0  0
  1  3  1  0  0  0  0
  2 13  1  0  0  0  0
  2  6  1  0  0  0  0
  3 15  1  0  0  0  0
  3 16  1  0  0  0  0
  3  4  1  0  0  0  0
  4 18  1  0  0  0  0
  5  6  1  0  0  0  0
  5 19  1  0  0  0  0
  6 21  1  1  0  0  0
  6  7  1  0  0  0  0
  8  4  1  0  0  0  0
  8  5  1  0  0  0  0
  9  1  1  0  0  0  0
 10  1  1  0  0  0  0
 11  1  1  0  0  0  0
 12  2  1  0  0  0  0
 14  2  1  0  0  0  0
 17  4  1  0  0  0  0
 20  5  1  0  0  0  0
 22  7  1  0  0  0  0
M  END
>  <HBA>
2

>  <HBD>
1

>  <TPSA>
29.46

>  <cid>
15286

>  <dipole>
2.32

>  <excitation_energy_1>
6.68

>  <excitation_energy_2>
6.742

>  <excitation_energy_3>
6.991

>  <excitation_energy_4>
7.018

>  <homo_energy>
-6.98

>  <homo_lumo_gap>
9.045

>  <logP>
0.794

>  <lumo_energy>
2.065

>  <melting_point>
-16.89

>  <molecular_refractivity>
33.2

>  <oscillator_strength_1>
0.0197

>  <oscillator_strength_2>
0.0333

>  <oscillator_strength_3>
0.0018

>  <oscillator_strength_4>
0.0137

>  <open_babel_can_smiles>
CCCOC[C@H](O)C

>  <mulliken_charges>
22
1   -0.442198
2   -0.453067
3   -0.269717
4   -0.002821
5   -0.026098
6   0.125341
7   -0.632438
8   -0.493657
9   0.144007
10   0.139674
11   0.163399
12   0.132844
13   0.156291
14   0.154743
15   0.136449
16   0.144825
17   0.119214
18   0.123659
19   0.130036
20   0.120249
21   0.133617
22   0.39565

>  <lowdin_charges>
22
1   -0.445604
2   -0.460719
3   -0.277888
4   -0.124885
5   -0.146435
6   -0.005861
7   -0.469284
8   -0.283816
9   0.151075
10   0.147119
11   0.154809
12   0.147607
13   0.156395
14   0.155527
15   0.145854
16   0.14864
17   0.127101
18   0.128551
19   0.133308
20   0.131058
21   0.145208
22   0.342237

$$$$

