PCCDB-ID:  11573
public computational chemistry database (PCCDB) project, http://pccdb.org

 19 19  0  0  1  0  0  0  0  0999 V2000
    0.9676   -0.0691    0.1753 C   0  0  0  0  0  0  0  0  0  0  0  0
    4.3549   -0.0142    2.3479 C   0  0  0  0  0  0  0  0  0  0  0  0
    3.8583    1.2630    1.7160 C   0  0  0  0  0  0  0  0  0  0  0  0
    3.5189   -1.2269    1.9124 C   0  0  0  0  0  0  0  0  0  0  0  0
    3.0270    1.2956    0.6690 C   0  0  0  0  0  0  0  0  0  0  0  0
    3.2652   -1.1969    0.3985 C   0  0  0  0  0  0  0  0  0  0  0  0
    2.4899    0.0674   -0.0334 C   0  0  1  0  0  0  0  0  0  0  0  0
    0.4448    0.8493   -0.1174 H   0  0  0  0  0  0  0  0  0  0  0  0
    0.7266   -0.2633    1.2266 H   0  0  0  0  0  0  0  0  0  0  0  0
    0.5632   -0.8925   -0.4260 H   0  0  0  0  0  0  0  0  0  0  0  0
    4.3447    0.0824    3.4424 H   0  0  0  0  0  0  0  0  0  0  0  0
    5.4121   -0.1688    2.0772 H   0  0  0  0  0  0  0  0  0  0  0  0
    4.2097    2.1991    2.1494 H   0  0  0  0  0  0  0  0  0  0  0  0
    2.5593   -1.2118    2.4461 H   0  0  0  0  0  0  0  0  0  0  0  0
    4.0217   -2.1588    2.1985 H   0  0  0  0  0  0  0  0  0  0  0  0
    2.6967    2.2586    0.2785 H   0  0  0  0  0  0  0  0  0  0  0  0
    2.7207   -2.0953    0.0802 H   0  0  0  0  0  0  0  0  0  0  0  0
    4.2335   -1.2147   -0.1208 H   0  0  0  0  0  0  0  0  0  0  0  0
    2.6490    0.2072   -1.1139 H   0  0  0  0  0  0  0  0  0  0  0  0
  1  9  1  0  0  0  0
  2 11  1  0  0  0  0
  3 13  1  0  0  0  0
  3  2  1  0  0  0  0
  4 15  1  0  0  0  0
  4  2  1  0  0  0  0
  4 14  1  0  0  0  0
  5  3  2  0  0  0  0
  6  4  1  0  0  0  0
  7 19  1  6  0  0  0
  7  1  1  0  0  0  0
  7  6  1  0  0  0  0
  7  5  1  0  0  0  0
  8  1  1  0  0  0  0
 10  1  1  0  0  0  0
 12  2  1  0  0  0  0
 16  5  1  0  0  0  0
 17  6  1  0  0  0  0
 18  6  1  0  0  0  0
M  END
>  <HBA>
0

>  <HBD>
0

>  <TPSA>
0.0

>  <cid>
11573

>  <dipole>
0.2

>  <excitation_energy_1>
5.894

>  <excitation_energy_2>
6.42

>  <excitation_energy_3>
6.506

>  <excitation_energy_4>
6.558

>  <homo_energy>
-6.376

>  <homo_lumo_gap>
7.271

>  <logP>
2.363

>  <lumo_energy>
0.895

>  <melting_point>
5.14

>  <molecular_refractivity>
33.17

>  <oscillator_strength_1>
0.0145

>  <oscillator_strength_2>
0.0848

>  <oscillator_strength_3>
0.0084

>  <oscillator_strength_4>
0.0479

>  <open_babel_can_smiles>
C[C@@H]1CCCC=C1

>  <mulliken_charges>
19
1   -0.444205
2   -0.294202
3   -0.111995
4   -0.26801
5   -0.103768
6   -0.267566
7   -0.105733
8   0.140953
9   0.14762
10   0.138854
11   0.138443
12   0.142798
13   0.117624
14   0.138033
15   0.129424
16   0.114865
17   0.127118
18   0.132333
19   0.127414

>  <lowdin_charges>
19
1   -0.444102
2   -0.272663
3   -0.177092
4   -0.27645
5   -0.176183
6   -0.276905
7   -0.121375
8   0.149166
9   0.147244
10   0.147077
11   0.146538
12   0.14586
13   0.149864
14   0.141437
15   0.14366
16   0.148243
17   0.142434
18   0.141827
19   0.141421

$$$$

