PCCDB-ID:  57218
public computational chemistry database (PCCDB) project, http://pccdb.org

 29 28  0  0  0  0  0  0  0  0999 V2000
    2.2553    0.0880   -0.4459 C   0  0  0  0  0  0  0  0  0  0  0  0
    7.1913    2.9397   -3.9726 C   0  0  0  0  0  0  0  0  0  0  0  0
    7.0352    3.4600   -2.5277 C   0  0  0  0  0  0  0  0  0  0  0  0
    7.0970    1.4164   -4.0921 C   0  0  0  0  0  0  0  0  0  0  0  0
    6.6641    2.0511    0.1201 C   0  0  0  0  0  0  0  0  0  0  0  0
    6.4065    0.5434   -0.0198 C   0  0  0  0  0  0  0  0  0  0  0  0
    3.7097    0.4433   -0.6875 C   0  0  0  0  0  0  0  0  0  0  0  0
    8.0919    2.9415   -1.5607 C   0  0  0  0  0  0  0  0  0  0  0  0
    7.2255    1.0170   -5.4993 N   0  0  0  0  0  0  0  0  0  0  0  0
    7.9630    2.3615   -0.4394 N   0  0  0  0  0  0  0  0  0  0  0  0
    4.1038    0.9447   -1.7209 O   0  0  0  0  0  0  0  0  0  0  0  0
    9.3817    3.1541   -1.9678 O   0  0  0  0  0  0  0  0  0  0  0  0
    4.7958    0.0201    0.6835 S   0  0  0  0  0  0  0  0  0  0  0  0
    2.0063   -0.7944   -1.0470 H   0  0  0  0  0  0  0  0  0  0  0  0
    1.6272    0.9152   -0.7896 H   0  0  0  0  0  0  0  0  0  0  0  0
    2.0432   -0.1300    0.6037 H   0  0  0  0  0  0  0  0  0  0  0  0
    8.1374    3.2651   -4.4274 H   0  0  0  0  0  0  0  0  0  0  0  0
    6.4017    3.4014   -4.5809 H   0  0  0  0  0  0  0  0  0  0  0  0
    6.0392    3.1954   -2.1667 H   0  0  0  0  0  0  0  0  0  0  0  0
    7.0900    4.5583   -2.5328 H   0  0  0  0  0  0  0  0  0  0  0  0
    6.1659    1.0765   -3.6066 H   0  0  0  0  0  0  0  0  0  0  0  0
    7.9293    0.9608   -3.5414 H   0  0  0  0  0  0  0  0  0  0  0  0
    6.6827    2.3094    1.1859 H   0  0  0  0  0  0  0  0  0  0  0  0
    5.8222    2.5959   -0.3273 H   0  0  0  0  0  0  0  0  0  0  0  0
    7.1763   -0.0311    0.5020 H   0  0  0  0  0  0  0  0  0  0  0  0
    6.4077    0.2532   -1.0733 H   0  0  0  0  0  0  0  0  0  0  0  0
    6.3829    1.2873   -6.0063 H   0  0  0  0  0  0  0  0  0  0  0  0
    7.2731    0.0015   -5.5642 H   0  0  0  0  0  0  0  0  0  0  0  0
    9.3750    3.5921   -2.8326 H   0  0  0  0  0  0  0  0  0  0  0  0
  1 16  1  0  0  0  0
  2  3  1  0  0  0  0
  3 19  1  0  0  0  0
  3  8  1  0  0  0  0
  4  2  1  0  0  0  0
  4 21  1  0  0  0  0
  4 22  1  0  0  0  0
  5 23  1  0  0  0  0
  6  5  1  0  0  0  0
  6 25  1  0  0  0  0
  6 13  1  0  0  0  0
  7  1  1  0  0  0  0
  7 13  1  0  0  0  0
  8 10  2  0  0  0  0
  9  4  1  0  0  0  0
 10  5  1  0  0  0  0
 11  7  2  0  0  0  0
 12  8  1  0  0  0  0
 14  1  1  0  0  0  0
 15  1  1  0  0  0  0
 17  2  1  0  0  0  0
 18  2  1  0  0  0  0
 20  3  1  0  0  0  0
 24  5  1  0  0  0  0
 26  6  1  0  0  0  0
 27  9  1  0  0  0  0
 28  9  1  0  0  0  0
 29 12  1  0  0  0  0
M  END
>  <HBA>
5

>  <HBD>
2

>  <TPSA>
97.49

>  <cid>
57218

>  <dipole>
3.87

>  <excitation_energy_1>
4.743

>  <excitation_energy_2>
5.175

>  <excitation_energy_3>
5.248

>  <excitation_energy_4>
5.372

>  <homo_energy>
-6.384

>  <homo_lumo_gap>
5.744

>  <logP>
1.212

>  <lumo_energy>
-0.639

>  <melting_point>
105.29

>  <molecular_refractivity>
54.07

>  <oscillator_strength_1>
0.0001

>  <oscillator_strength_2>
0.0102

>  <oscillator_strength_3>
0.0006

>  <oscillator_strength_4>
0.0232

>  <open_babel_can_smiles>
NCCC/C(=N\CCSC(=O)C)/O

>  <mulliken_charges>
29
1   -0.514086
2   -0.267378
3   -0.384159
4   -0.157598
5   -0.146973
6   -0.421901
7   0.270127
8   0.501722
9   -0.720164
10   -0.426769
11   -0.428909
12   -0.586662
13   0.10767
14   0.193457
15   0.189631
16   0.176674
17   0.136867
18   0.142083
19   0.183877
20   0.160918
21   0.151465
22   0.154328
23   0.156021
24   0.141428
25   0.191622
26   0.195886
27   0.293194
28   0.299279
29   0.408353

>  <lowdin_charges>
29
1   -0.463714
2   -0.280427
3   -0.316003
4   -0.216595
5   -0.20171
6   -0.376418
7   0.047303
8   0.128928
9   -0.556605
10   -0.211612
11   -0.256708
12   -0.368398
13   0.13511
14   0.184472
15   0.181323
16   0.17164
17   0.139762
18   0.14957
19   0.17085
20   0.159799
21   0.134542
22   0.149275
23   0.150058
24   0.136241
25   0.178787
26   0.171467
27   0.251727
28   0.254458
29   0.352878

$$$$

