PCCDB-ID:  11869
public computational chemistry database (PCCDB) project, http://pccdb.org

 23 23  0  0  0  0  0  0  0  0999 V2000
    0.9097   -0.4863   -0.0797 C   0  0  0  0  0  0  0  0  0  0  0  0
    1.2534    2.6040    0.8656 C   0  0  0  0  0  0  0  0  0  0  0  0
    2.4669    3.3596   -1.0751 C   0  0  0  0  0  0  0  0  0  0  0  0
    4.6801   -1.0312    0.1438 C   0  0  0  0  0  0  0  0  0  0  0  0
    5.1699    0.2617   -0.0256 C   0  0  0  0  0  0  0  0  0  0  0  0
    3.3010   -1.2429    0.1419 C   0  0  0  0  0  0  0  0  0  0  0  0
    4.2815    1.3266   -0.1730 C   0  0  0  0  0  0  0  0  0  0  0  0
    2.3897   -0.1937   -0.0175 C   0  0  0  0  0  0  0  0  0  0  0  0
    2.8926    1.1225   -0.1635 C   0  0  0  0  0  0  0  0  0  0  0  0
    1.9759    2.2031   -0.3409 N   0  0  0  0  0  0  0  0  0  0  0  0
    0.7328   -1.5102   -0.4252 H   0  0  0  0  0  0  0  0  0  0  0  0
    0.4071    0.2092   -0.7591 H   0  0  0  0  0  0  0  0  0  0  0  0
    0.4212   -0.3922    0.9001 H   0  0  0  0  0  0  0  0  0  0  0  0
    1.8947    3.1572    1.5759 H   0  0  0  0  0  0  0  0  0  0  0  0
    0.8541    1.7301    1.3832 H   0  0  0  0  0  0  0  0  0  0  0  0
    0.4124    3.2508    0.5894 H   0  0  0  0  0  0  0  0  0  0  0  0
    1.6122    3.9846   -1.3585 H   0  0  0  0  0  0  0  0  0  0  0  0
    2.9716    3.0330   -1.9885 H   0  0  0  0  0  0  0  0  0  0  0  0
    3.1638    3.9957   -0.4981 H   0  0  0  0  0  0  0  0  0  0  0  0
    5.3610   -1.8701    0.2591 H   0  0  0  0  0  0  0  0  0  0  0  0
    6.2407    0.4484   -0.0368 H   0  0  0  0  0  0  0  0  0  0  0  0
    2.9147   -2.2551    0.2432 H   0  0  0  0  0  0  0  0  0  0  0  0
    4.6744    2.3315   -0.2898 H   0  0  0  0  0  0  0  0  0  0  0  0
  1  8  1  0  0  0  0
  1 13  1  0  0  0  0
  2 15  1  0  0  0  0
  2 14  1  0  0  0  0
  3 19  1  0  0  0  0
  3 10  1  0  0  0  0
  4 20  1  0  0  0  0
  5  4  2  0  0  0  0
  6  4  1  0  0  0  0
  6 22  1  0  0  0  0
  7  9  2  0  0  0  0
  7  5  1  0  0  0  0
  8  6  2  0  0  0  0
  9  8  1  0  0  0  0
 10  9  1  0  0  0  0
 10  2  1  0  0  0  0
 11  1  1  0  0  0  0
 12  1  1  0  0  0  0
 16  2  1  0  0  0  0
 17  3  1  0  0  0  0
 18  3  1  0  0  0  0
 21  5  1  0  0  0  0
 23  7  1  0  0  0  0
M  END
>  <HBA>
1

>  <HBD>
0

>  <TPSA>
3.24

>  <cid>
11869

>  <dipole>
0.88

>  <excitation_energy_1>
4.655

>  <excitation_energy_2>
4.877

>  <excitation_energy_3>
5.124

>  <excitation_energy_4>
5.428

>  <homo_energy>
-5.407

>  <homo_lumo_gap>
5.657

>  <logP>
2.061

>  <lumo_energy>
0.25

>  <melting_point>
17.5

>  <molecular_refractivity>
45.62

>  <oscillator_strength_1>
0.0246

>  <oscillator_strength_2>
0.0997

>  <oscillator_strength_3>
0.0456

>  <oscillator_strength_4>
0.0017

>  <open_babel_can_smiles>
CN(c1ccccc1C)C

>  <mulliken_charges>
23
1   -0.535667
2   -0.303407
3   -0.305125
4   -0.123198
5   -0.145279
6   -0.197919
7   -0.170819
8   0.161718
9   0.222819
10   -0.450709
11   0.15084
12   0.173224
13   0.154814
14   0.131501
15   0.160981
16   0.14828
17   0.150675
18   0.162838
19   0.126894
20   0.12194
21   0.12366
22   0.11827
23   0.123668

>  <lowdin_charges>
23
1   -0.445757
2   -0.35236
3   -0.357781
4   -0.17067
5   -0.157024
6   -0.163445
7   -0.188499
8   -0.014677
9   0.034389
10   -0.153105
11   0.154865
12   0.167407
13   0.153344
14   0.130334
15   0.158871
16   0.148964
17   0.152316
18   0.158691
19   0.126144
20   0.155842
21   0.153018
22   0.151857
23   0.157276

$$$$

