PCCDB-ID:  66881
public computational chemistry database (PCCDB) project, http://pccdb.org

 33 33  0  0  1  0  0  0  0  0999 V2000
    2.1033    1.2404    0.3050 C   0  0  0  0  0  0  0  0  0  0  0  0
    6.0021    0.7835   -2.6133 C   0  0  0  0  0  0  0  0  0  0  0  0
    2.2992   -4.7629   -3.3156 C   0  0  0  0  0  0  0  0  0  0  0  0
    1.8714   -0.1848   -0.2048 C   0  0  0  0  0  0  0  0  0  0  0  0
    5.6753   -0.7120   -2.6445 C   0  0  0  0  0  0  0  0  0  0  0  0
    2.4664   -4.3578   -1.8487 C   0  0  0  0  0  0  0  0  0  0  0  0
    3.0628   -1.1283    0.0736 C   0  0  2  0  0  0  0  0  0  0  0  0
    4.3148   -1.0651   -2.0378 C   0  0  2  0  0  0  0  0  0  0  0  0
    2.7482   -2.8653   -1.6542 C   0  0  1  0  0  0  0  0  0  0  0  0
    4.2752   -0.6789   -0.6178 N   0  0  0  0  0  0  0  0  0  0  0  0
    2.8026   -2.5564   -0.2145 N   0  0  0  0  0  0  0  0  0  0  0  0
    4.0035   -2.4802   -2.2951 N   0  0  0  0  0  0  0  0  0  0  0  0
    1.2351    1.8786    0.1049 H   0  0  0  0  0  0  0  0  0  0  0  0
    2.9797    1.6835   -0.1761 H   0  0  0  0  0  0  0  0  0  0  0  0
    2.2795    1.2480    1.3883 H   0  0  0  0  0  0  0  0  0  0  0  0
    6.9905    0.9762   -3.0452 H   0  0  0  0  0  0  0  0  0  0  0  0
    5.9896    1.1683   -1.5895 H   0  0  0  0  0  0  0  0  0  0  0  0
    5.2681    1.3573   -3.1923 H   0  0  0  0  0  0  0  0  0  0  0  0
    2.1300   -5.8415   -3.4069 H   0  0  0  0  0  0  0  0  0  0  0  0
    3.1891   -4.4999   -3.8947 H   0  0  0  0  0  0  0  0  0  0  0  0
    1.4436   -4.2508   -3.7726 H   0  0  0  0  0  0  0  0  0  0  0  0
    1.6431   -0.1609   -1.2774 H   0  0  0  0  0  0  0  0  0  0  0  0
    0.9862   -0.6146    0.2856 H   0  0  0  0  0  0  0  0  0  0  0  0
    6.4554   -1.2736   -2.1057 H   0  0  0  0  0  0  0  0  0  0  0  0
    5.6835   -1.0869   -3.6743 H   0  0  0  0  0  0  0  0  0  0  0  0
    3.2835   -4.9239   -1.3807 H   0  0  0  0  0  0  0  0  0  0  0  0
    1.5579   -4.6133   -1.2847 H   0  0  0  0  0  0  0  0  0  0  0  0
    3.2773   -1.0624    1.1488 H   0  0  0  0  0  0  0  0  0  0  0  0
    3.5396   -0.4840   -2.5540 H   0  0  0  0  0  0  0  0  0  0  0  0
    1.9581   -2.2937   -2.1756 H   0  0  0  0  0  0  0  0  0  0  0  0
    5.0735   -1.1179   -0.1572 H   0  0  0  0  0  0  0  0  0  0  0  0
    1.9334   -2.8434    0.2359 H   0  0  0  0  0  0  0  0  0  0  0  0
    4.7448   -3.0477   -1.8748 H   0  0  0  0  0  0  0  0  0  0  0  0
  1 15  1  0  0  0  0
  2 17  1  0  0  0  0
  3  6  1  0  0  0  0
  4  7  1  0  0  0  0
  4 23  1  0  0  0  0
  4  1  1  0  0  0  0
  5  2  1  0  0  0  0
  5 24  1  0  0  0  0
  5  8  1  0  0  0  0
  6  9  1  0  0  0  0
  6 26  1  0  0  0  0
  6 27  1  0  0  0  0
  7 28  1  1  0  0  0
  8 29  1  6  0  0  0
  8 10  1  0  0  0  0
  9 30  1  6  0  0  0
  9 11  1  0  0  0  0
 10 31  1  0  0  0  0
 10  7  1  0  0  0  0
 11  7  1  0  0  0  0
 11 32  1  0  0  0  0
 12  8  1  0  0  0  0
 12 33  1  0  0  0  0
 12  9  1  0  0  0  0
 13  1  1  0  0  0  0
 14  1  1  0  0  0  0
 16  2  1  0  0  0  0
 18  2  1  0  0  0  0
 19  3  1  0  0  0  0
 20  3  1  0  0  0  0
 21  3  1  0  0  0  0
 22  4  1  0  0  0  0
 25  5  1  0  0  0  0
M  END
>  <HBA>
3

>  <HBD>
3

>  <TPSA>
36.09

>  <cid>
66881

>  <dipole>
0.89

>  <excitation_energy_1>
5.25

>  <excitation_energy_2>
5.399

>  <excitation_energy_3>
5.423

>  <excitation_energy_4>
5.66

>  <homo_energy>
-5.739

>  <homo_lumo_gap>
7.826

>  <logP>
1.964

>  <lumo_energy>
2.087

>  <melting_point>
75.56

>  <molecular_refractivity>
63.41

>  <oscillator_strength_1>
0.0067

>  <oscillator_strength_2>
0.011

>  <oscillator_strength_3>
0.002

>  <oscillator_strength_4>
0.017

>  <open_babel_can_smiles>
CC[C@@H]1N[C@H](CC)N[C@H](N1)CC

>  <mulliken_charges>
33
1   -0.442078
2   -0.439752
3   -0.44253
4   -0.255451
5   -0.26956
6   -0.264574
7   0.140564
8   0.117552
9   0.157337
10   -0.532694
11   -0.578623
12   -0.531889
13   0.137223
14   0.166919
15   0.135716
16   0.139213
17   0.16222
18   0.141121
19   0.13849
20   0.165593
21   0.138715
22   0.136829
23   0.120642
24   0.119021
25   0.152375
26   0.136374
27   0.124479
28   0.125014
29   0.139377
30   0.113629
31   0.287567
32   0.284186
33   0.276995

>  <lowdin_charges>
33
1   -0.444793
2   -0.44469
3   -0.445076
4   -0.29233
5   -0.278
6   -0.279538
7   -0.013958
8   -0.023975
9   -0.016352
10   -0.360521
11   -0.39368
12   -0.360473
13   0.148105
14   0.159672
15   0.142379
16   0.148162
17   0.15589
18   0.148582
19   0.146531
20   0.159365
21   0.146702
22   0.140569
23   0.137786
24   0.135652
25   0.153373
26   0.145079
27   0.140328
28   0.136535
29   0.141504
30   0.119538
31   0.252214
32   0.249983
33   0.245438

$$$$

