PCCDB-ID:  24020
public computational chemistry database (PCCDB) project, http://pccdb.org

 23 22  0  0  1  0  0  0  0  0999 V2000
    2.8760    0.9284   -0.9585 C   0  0  0  0  0  0  0  0  0  0  0  0
    7.3064    0.5126    1.7419 C   0  0  0  0  0  0  0  0  0  0  0  0
    2.3579   -1.8053    1.8209 C   0  0  0  0  0  0  0  0  0  0  0  0
    2.4080   -0.3661   -0.2857 C   0  0  0  0  0  0  0  0  0  0  0  0
    6.5188   -0.6502    2.3267 C   0  0  0  0  0  0  0  0  0  0  0  0
    2.9961   -0.5888    1.1164 C   0  0  2  0  0  0  0  0  0  0  0  0
    4.5035   -0.8037    1.0576 C   0  0  0  0  0  0  0  0  0  0  0  0
    5.1066   -1.2898    0.1228 O   0  0  0  0  0  0  0  0  0  0  0  0
    5.0921   -0.4282    2.2181 O   0  0  0  0  0  0  0  0  0  0  0  0
    2.4033    1.0525   -1.9391 H   0  0  0  0  0  0  0  0  0  0  0  0
    3.9602    0.9221   -1.1121 H   0  0  0  0  0  0  0  0  0  0  0  0
    2.6219    1.8077   -0.3532 H   0  0  0  0  0  0  0  0  0  0  0  0
    8.3787    0.3583    1.9095 H   0  0  0  0  0  0  0  0  0  0  0  0
    7.0167    1.4564    2.2155 H   0  0  0  0  0  0  0  0  0  0  0  0
    7.1354    0.5894    0.6645 H   0  0  0  0  0  0  0  0  0  0  0  0
    1.2760   -1.6618    1.9148 H   0  0  0  0  0  0  0  0  0  0  0  0
    2.7733   -1.9458    2.8238 H   0  0  0  0  0  0  0  0  0  0  0  0
    2.5309   -2.7211    1.2442 H   0  0  0  0  0  0  0  0  0  0  0  0
    2.6716   -1.2246   -0.9145 H   0  0  0  0  0  0  0  0  0  0  0  0
    1.3136   -0.3592   -0.1971 H   0  0  0  0  0  0  0  0  0  0  0  0
    6.6956   -0.7531    3.4005 H   0  0  0  0  0  0  0  0  0  0  0  0
    6.7688   -1.5886    1.8256 H   0  0  0  0  0  0  0  0  0  0  0  0
    2.8174    0.2980    1.7375 H   0  0  0  0  0  0  0  0  0  0  0  0
  1 12  1  0  0  0  0
  1  4  1  0  0  0  0
  2 13  1  0  0  0  0
  2 14  1  0  0  0  0
  2  5  1  0  0  0  0
  3 16  1  0  0  0  0
  3 17  1  0  0  0  0
  4 20  1  0  0  0  0
  4  6  1  0  0  0  0
  5 21  1  0  0  0  0
  6 23  1  1  0  0  0
  6  3  1  0  0  0  0
  7  6  1  0  0  0  0
  7  9  1  0  0  0  0
  8  7  2  0  0  0  0
  9  5  1  0  0  0  0
 10  1  1  0  0  0  0
 11  1  1  0  0  0  0
 15  2  1  0  0  0  0
 18  3  1  0  0  0  0
 19  4  1  0  0  0  0
 22  5  1  0  0  0  0
M  END
>  <HBA>
2

>  <HBD>
0

>  <TPSA>
26.3

>  <cid>
24020

>  <dipole>
1.58

>  <excitation_energy_1>
5.732

>  <excitation_energy_2>
6.935

>  <excitation_energy_3>
7.287

>  <excitation_energy_4>
7.36

>  <homo_energy>
-7.195

>  <homo_lumo_gap>
7.608

>  <logP>
1.596

>  <lumo_energy>
0.414

>  <melting_point>
-14.79

>  <molecular_refractivity>
37.05

>  <oscillator_strength_1>
0.0021

>  <oscillator_strength_2>
0.0041

>  <oscillator_strength_3>
0.0053

>  <oscillator_strength_4>
0.0043

>  <open_babel_can_smiles>
CCOC(=O)[C@@H](CC)C

>  <mulliken_charges>
23
1   -0.456002
2   -0.461283
3   -0.457565
4   -0.244197
5   -0.044674
6   -0.155374
7   0.626614
8   -0.489328
9   -0.464864
10   0.145044
11   0.160836
12   0.13779
13   0.149455
14   0.15663
15   0.175897
16   0.152443
17   0.158544
18   0.159189
19   0.155027
20   0.128557
21   0.150984
22   0.169131
23   0.147144

>  <lowdin_charges>
23
1   -0.446742
2   -0.451659
3   -0.435095
4   -0.269115
5   -0.125335
6   -0.147812
7   0.200185
8   -0.274611
9   -0.198447
10   0.15178
11   0.153628
12   0.14453
13   0.156762
14   0.15581
15   0.163435
16   0.152671
17   0.156349
18   0.156011
19   0.154733
20   0.140129
21   0.149479
22   0.157992
23   0.155322

$$$$

