PCCDB-ID:  8452
public computational chemistry database (PCCDB) project, http://pccdb.org

 14 14  0  0  0  0  0  0  0  0999 V2000
   -0.7554   -1.0154   -0.2272 C   0  0  0  0  0  0  0  0  0  0  0  0
    0.7316   -1.0536    0.1995 C   0  0  0  0  0  0  0  0  0  0  0  0
   -1.2255    0.3902    0.1813 C   0  0  0  0  0  0  0  0  0  0  0  0
    1.2466    0.3617   -0.1101 C   0  0  0  0  0  0  0  0  0  0  0  0
    0.0239    1.2736    0.0624 C   0  0  0  0  0  0  0  0  0  0  0  0
    0.0422    2.4840    0.0979 O   0  0  0  0  0  0  0  0  0  0  0  0
   -1.3450   -1.8175    0.2270 H   0  0  0  0  0  0  0  0  0  0  0  0
   -0.8301   -1.1321   -1.3161 H   0  0  0  0  0  0  0  0  0  0  0  0
    1.2961   -1.8400   -0.3107 H   0  0  0  0  0  0  0  0  0  0  0  0
    0.8019   -1.2490    1.2774 H   0  0  0  0  0  0  0  0  0  0  0  0
   -1.5417    0.4111    1.2345 H   0  0  0  0  0  0  0  0  0  0  0  0
   -2.0515    0.7998   -0.4078 H   0  0  0  0  0  0  0  0  0  0  0  0
    1.5726    0.4453   -1.1571 H   0  0  0  0  0  0  0  0  0  0  0  0
    2.0797    0.7046    0.5109 H   0  0  0  0  0  0  0  0  0  0  0  0
  1  3  1  0  0  0  0
  1  2  1  0  0  0  0
  1  7  1  0  0  0  0
  2 10  1  0  0  0  0
  3 11  1  0  0  0  0
  4  5  1  0  0  0  0
  4  2  1  0  0  0  0
  4 14  1  0  0  0  0
  5  6  2  0  0  0  0
  5  3  1  0  0  0  0
  8  1  1  0  0  0  0
  9  2  1  0  0  0  0
 12  3  1  0  0  0  0
 13  4  1  0  0  0  0
M  END
>  <HBA>
1

>  <HBD>
0

>  <TPSA>
17.07

>  <cid>
8452

>  <dipole>
2.9

>  <excitation_energy_1>
4.208

>  <excitation_energy_2>
6.073

>  <excitation_energy_3>
6.653

>  <excitation_energy_4>
6.697

>  <homo_energy>
-6.419

>  <homo_lumo_gap>
6.019

>  <logP>
1.129

>  <lumo_energy>
-0.4

>  <melting_point>
18.07

>  <molecular_refractivity>
24.23

>  <oscillator_strength_1>
0.0002

>  <oscillator_strength_2>
0.022

>  <oscillator_strength_3>
0.0213

>  <oscillator_strength_4>
0.0

>  <open_babel_can_smiles>
O=C1CCCC1

>  <mulliken_charges>
14
1   -0.282083
2   -0.28228
3   -0.349575
4   -0.349972
5   0.442344
6   -0.445574
7   0.145426
8   0.145353
9   0.145466
10   0.145331
11   0.17142
12   0.171169
13   0.171664
14   0.171312

>  <lowdin_charges>
14
1   -0.281333
2   -0.281755
3   -0.315883
4   -0.316032
5   0.155116
6   -0.228638
7   0.151987
8   0.143631
9   0.152117
10   0.143849
11   0.16833
12   0.170031
13   0.168553
14   0.170026

$$$$

