PCCDB-ID:  29775
public computational chemistry database (PCCDB) project, http://pccdb.org

 30 29  0  0  1  0  0  0  0  0999 V2000
    2.7538    0.9037   -1.1357 C   0  0  0  0  0  0  0  0  0  0  0  0
    2.6173   -1.9329    2.5737 C   0  0  0  0  0  0  0  0  0  0  0  0
    7.1880    1.7223    4.0149 C   0  0  0  0  0  0  0  0  0  0  0  0
    2.4876   -0.0934   -0.0009 C   0  0  0  0  0  0  0  0  0  0  0  0
    2.2907   -0.4343    2.5228 C   0  0  0  0  0  0  0  0  0  0  0  0
    5.0947    0.9931    2.7543 C   0  0  0  0  0  0  0  0  0  0  0  0
    4.5163    0.3612    1.4815 C   0  0  0  0  0  0  0  0  0  0  0  0
    6.6301    0.9977    2.7881 C   0  0  2  0  0  0  0  0  0  0  0  0
    2.9754    0.3698    1.3911 C   0  0  0  0  0  0  0  0  0  0  0  0
    7.1631   -0.3294    2.6961 O   0  0  0  0  0  0  0  0  0  0  0  0
    2.3562    0.5300   -2.0863 H   0  0  0  0  0  0  0  0  0  0  0  0
    3.8235    1.0899   -1.2813 H   0  0  0  0  0  0  0  0  0  0  0  0
    2.2739    1.8695   -0.9320 H   0  0  0  0  0  0  0  0  0  0  0  0
    2.0600   -2.4208    3.3818 H   0  0  0  0  0  0  0  0  0  0  0  0
    3.6830   -2.1144    2.7549 H   0  0  0  0  0  0  0  0  0  0  0  0
    2.3515   -2.4403    1.6396 H   0  0  0  0  0  0  0  0  0  0  0  0
    6.8726    2.7721    4.0373 H   0  0  0  0  0  0  0  0  0  0  0  0
    8.2820    1.6873    4.0117 H   0  0  0  0  0  0  0  0  0  0  0  0
    6.8336    1.2494    4.9413 H   0  0  0  0  0  0  0  0  0  0  0  0
    2.9499   -1.0582   -0.2519 H   0  0  0  0  0  0  0  0  0  0  0  0
    1.4055   -0.2798    0.0515 H   0  0  0  0  0  0  0  0  0  0  0  0
    2.5423    0.0171    3.4914 H   0  0  0  0  0  0  0  0  0  0  0  0
    1.2039   -0.3125    2.4138 H   0  0  0  0  0  0  0  0  0  0  0  0
    4.7360    0.4611    3.6488 H   0  0  0  0  0  0  0  0  0  0  0  0
    4.7348    2.0279    2.8524 H   0  0  0  0  0  0  0  0  0  0  0  0
    4.8950   -0.6638    1.3899 H   0  0  0  0  0  0  0  0  0  0  0  0
    4.9252    0.9049    0.6193 H   0  0  0  0  0  0  0  0  0  0  0  0
    7.0016    1.4928    1.8818 H   0  0  0  0  0  0  0  0  0  0  0  0
    2.6444    1.4144    1.5148 H   0  0  0  0  0  0  0  0  0  0  0  0
    6.8752   -0.8072    3.4914 H   0  0  0  0  0  0  0  0  0  0  0  0
  1 13  1  0  0  0  0
  1  4  1  0  0  0  0
  2 15  1  0  0  0  0
  2 14  1  0  0  0  0
  3 17  1  0  0  0  0
  3 19  1  0  0  0  0
  4 21  1  0  0  0  0
  4  9  1  0  0  0  0
  5  2  1  0  0  0  0
  5 22  1  0  0  0  0
  6  8  1  0  0  0  0
  6 25  1  0  0  0  0
  6 24  1  0  0  0  0
  7  6  1  0  0  0  0
  8 28  1  6  0  0  0
  8  3  1  0  0  0  0
  9  7  1  0  0  0  0
  9 29  1  0  0  0  0
  9  5  1  0  0  0  0
 10  8  1  0  0  0  0
 10 30  1  0  0  0  0
 11  1  1  0  0  0  0
 12  1  1  0  0  0  0
 16  2  1  0  0  0  0
 18  3  1  0  0  0  0
 20  4  1  0  0  0  0
 23  5  1  0  0  0  0
 26  7  1  0  0  0  0
 27  7  1  0  0  0  0
M  END
>  <HBA>
1

>  <HBD>
1

>  <TPSA>
20.23

>  <cid>
29775

>  <dipole>
1.54

>  <excitation_energy_1>
6.504

>  <excitation_energy_2>
7.03

>  <excitation_energy_3>
7.168

>  <excitation_energy_4>
7.214

>  <homo_energy>
-7.064

>  <homo_lumo_gap>
8.876

>  <logP>
2.584

>  <lumo_energy>
1.812

>  <melting_point>
-9.94

>  <molecular_refractivity>
46.54

>  <oscillator_strength_1>
0.0168

>  <oscillator_strength_2>
0.0007

>  <oscillator_strength_3>
0.0209

>  <oscillator_strength_4>
0.0027

>  <open_babel_can_smiles>
CCC(CC[C@H](O)C)CC

>  <mulliken_charges>
30
1   -0.449897
2   -0.450507
3   -0.456602
4   -0.254788
5   -0.26214
6   -0.274627
7   -0.262713
8   0.13696
9   -0.061197
10   -0.61926
11   0.141661
12   0.147634
13   0.139853
14   0.140631
15   0.142534
16   0.148677
17   0.142649
18   0.157808
19   0.130244
20   0.132999
21   0.126437
22   0.129237
23   0.128009
24   0.119307
25   0.127626
26   0.147075
27   0.129337
28   0.134144
29   0.109308
30   0.379601

>  <lowdin_charges>
30
1   -0.444535
2   -0.449686
3   -0.457135
4   -0.272979
5   -0.27486
6   -0.292726
7   -0.281183
8   0.002607
9   -0.12583
10   -0.467402
11   0.149675
12   0.145823
13   0.144737
14   0.150623
15   0.144104
16   0.149299
17   0.151467
18   0.155982
19   0.142767
20   0.140158
21   0.137595
22   0.138538
23   0.137995
24   0.134768
25   0.142024
26   0.146737
27   0.142882
28   0.141565
29   0.130555
30   0.336436

$$$$

