PCCDB-ID:  39176
public computational chemistry database (PCCDB) project, http://pccdb.org

 22 22  0  0  1  0  0  0  0  0999 V2000
    3.8085   -0.8143    0.9073 C   0  0  0  0  0  0  0  0  0  0  0  0
    2.4626    2.3432   -1.0134 C   0  0  0  0  0  0  0  0  0  0  0  0
    5.4517    2.4624    0.1634 C   0  0  0  0  0  0  0  0  0  0  0  0
    3.0428    0.4806    0.6137 C   0  0  0  0  0  0  0  0  0  0  0  0
    5.4685    1.4763   -2.2143 C   0  0  0  0  0  0  0  0  0  0  0  0
    3.3817    1.1392   -0.7402 C   0  0  2  0  0  0  0  0  0  0  0  0
    4.8557    1.5313   -0.8747 C   0  0  2  0  0  0  0  0  0  0  0  0
    5.7329    0.4458   -1.2547 O   0  0  0  0  0  0  0  0  0  0  0  0
    3.4872   -1.2479    1.8618 H   0  0  0  0  0  0  0  0  0  0  0  0
    4.8885   -0.6471    0.9575 H   0  0  0  0  0  0  0  0  0  0  0  0
    3.6342   -1.5614    0.1243 H   0  0  0  0  0  0  0  0  0  0  0  0
    1.4127    2.0298   -1.0294 H   0  0  0  0  0  0  0  0  0  0  0  0
    2.6895    2.8099   -1.9790 H   0  0  0  0  0  0  0  0  0  0  0  0
    2.5627    3.1124   -0.2382 H   0  0  0  0  0  0  0  0  0  0  0  0
    4.9067    3.4121    0.2093 H   0  0  0  0  0  0  0  0  0  0  0  0
    6.4972    2.6760   -0.0766 H   0  0  0  0  0  0  0  0  0  0  0  0
    5.4230    2.0090    1.1603 H   0  0  0  0  0  0  0  0  0  0  0  0
    3.2102    1.2039    1.4244 H   0  0  0  0  0  0  0  0  0  0  0  0
    1.9638    0.2728    0.6239 H   0  0  0  0  0  0  0  0  0  0  0  0
    6.3154    2.1212   -2.4532 H   0  0  0  0  0  0  0  0  0  0  0  0
    4.8692    1.1697   -3.0732 H   0  0  0  0  0  0  0  0  0  0  0  0
    3.2016    0.3901   -1.5241 H   0  0  0  0  0  0  0  0  0  0  0  0
  1 10  1  0  0  0  0
  1  9  1  0  0  0  0
  2  6  1  0  0  0  0
  2 14  1  0  0  0  0
  3 15  1  0  0  0  0
  3 17  1  0  0  0  0
  4 19  1  0  0  0  0
  4  1  1  0  0  0  0
  4 18  1  0  0  0  0
  5  8  1  0  0  0  0
  5  7  1  0  0  0  0
  6 22  1  6  0  0  0
  6  4  1  0  0  0  0
  7  6  1  0  0  0  0
  7  3  1  1  0  0  0
  8  7  1  0  0  0  0
 11  1  1  0  0  0  0
 12  2  1  0  0  0  0
 13  2  1  0  0  0  0
 16  3  1  0  0  0  0
 20  5  1  0  0  0  0
 21  5  1  0  0  0  0
M  END
>  <HBA>
1

>  <HBD>
0

>  <TPSA>
12.53

>  <cid>
39176

>  <dipole>
1.87

>  <excitation_energy_1>
6.619

>  <excitation_energy_2>
6.995

>  <excitation_energy_3>
7.105

>  <excitation_energy_4>
7.141

>  <homo_energy>
-6.985

>  <homo_lumo_gap>
9.181

>  <logP>
1.821

>  <lumo_energy>
2.196

>  <melting_point>
-2.58

>  <molecular_refractivity>
34.77

>  <oscillator_strength_1>
0.0056

>  <oscillator_strength_2>
0.0116

>  <oscillator_strength_3>
0.0118

>  <oscillator_strength_4>
0.0044

>  <open_babel_can_smiles>
CC[C@H]([C@]1(C)CO1)C

>  <mulliken_charges>
22
1   -0.443352
2   -0.455607
3   -0.489121
4   -0.261521
5   -0.131063
6   -0.097585
7   0.328584
8   -0.471741
9   0.13527
10   0.164661
11   0.145876
12   0.146978
13   0.143191
14   0.14408
15   0.151279
16   0.157089
17   0.161102
18   0.129369
19   0.130391
20   0.14161
21   0.142013
22   0.128496

>  <lowdin_charges>
22
1   -0.445496
2   -0.444797
3   -0.445968
4   -0.273164
5   -0.174479
6   -0.129194
7   0.105068
8   -0.293561
9   0.146373
10   0.155217
11   0.150737
12   0.151051
13   0.149164
14   0.147879
15   0.15614
16   0.160792
17   0.158614
18   0.138732
19   0.140139
20   0.150016
21   0.149825
22   0.146911

$$$$

