PCCDB-ID:  32220
public computational chemistry database (PCCDB) project, http://pccdb.org

 32 32  0  0  0  0  0  0  0  0999 V2000
    1.5797    0.6574    0.6379 C   0  0  0  0  0  0  0  0  0  0  0  0
    3.0771    0.4333    0.4032 C   0  0  0  0  0  0  0  0  0  0  0  0
    3.3685   -0.6621   -0.6304 C   0  0  0  0  0  0  0  0  0  0  0  0
    4.8667   -0.8953   -0.8647 C   0  0  0  0  0  0  0  0  0  0  0  0
    5.1490   -1.9867   -1.9069 C   0  0  0  0  0  0  0  0  0  0  0  0
    6.6441   -2.2011   -2.1058 C   0  0  0  0  0  0  0  0  0  0  0  0
    6.7254   -1.6820   -6.1851 C   0  0  0  0  0  0  0  0  0  0  0  0
    7.2412   -4.1206   -6.4580 C   0  0  0  0  0  0  0  0  0  0  0  0
    6.9135   -3.0285   -4.3276 C   0  0  0  0  0  0  0  0  0  0  0  0
    6.5112   -0.5280   -6.6920 N   0  0  0  0  0  0  0  0  0  0  0  0
    7.4928   -5.2029   -7.0886 N   0  0  0  0  0  0  0  0  0  0  0  0
    7.0047   -2.8469   -6.9547 N   0  0  0  0  0  0  0  0  0  0  0  0
    6.6905   -1.8549   -4.8079 N   0  0  0  0  0  0  0  0  0  0  0  0
    7.1826   -4.1509   -5.0662 N   0  0  0  0  0  0  0  0  0  0  0  0
    6.9145   -3.2987   -3.0201 O   0  0  0  0  0  0  0  0  0  0  0  0
    1.4048    1.4464    1.3780 H   0  0  0  0  0  0  0  0  0  0  0  0
    1.0945   -0.2560    1.0034 H   0  0  0  0  0  0  0  0  0  0  0  0
    1.0733    0.9523   -0.2894 H   0  0  0  0  0  0  0  0  0  0  0  0
    3.5617    0.1718    1.3548 H   0  0  0  0  0  0  0  0  0  0  0  0
    3.5408    1.3739    0.0738 H   0  0  0  0  0  0  0  0  0  0  0  0
    2.8903   -0.3978   -1.5847 H   0  0  0  0  0  0  0  0  0  0  0  0
    2.9005   -1.6029   -0.3043 H   0  0  0  0  0  0  0  0  0  0  0  0
    5.3450   -1.1641    0.0892 H   0  0  0  0  0  0  0  0  0  0  0  0
    5.3331    0.0461   -1.1886 H   0  0  0  0  0  0  0  0  0  0  0  0
    4.7030   -1.7085   -2.8684 H   0  0  0  0  0  0  0  0  0  0  0  0
    4.6913   -2.9343   -1.5927 H   0  0  0  0  0  0  0  0  0  0  0  0
    7.1305   -2.5145   -1.1784 H   0  0  0  0  0  0  0  0  0  0  0  0
    7.1286   -1.3009   -2.4901 H   0  0  0  0  0  0  0  0  0  0  0  0
    6.5690   -0.5559   -7.7133 H   0  0  0  0  0  0  0  0  0  0  0  0
    7.5111   -5.0567   -8.0981 H   0  0  0  0  0  0  0  0  0  0  0  0
    7.0328   -2.7435   -7.9597 H   0  0  0  0  0  0  0  0  0  0  0  0
    7.3526   -5.0402   -4.6162 H   0  0  0  0  0  0  0  0  0  0  0  0
  1 17  1  0  0  0  0
  1 16  1  0  0  0  0
  2  1  1  0  0  0  0
  2 19  1  0  0  0  0
  3 22  1  0  0  0  0
  3  2  1  0  0  0  0
  4  3  1  0  0  0  0
  4 23  1  0  0  0  0
  5 26  1  0  0  0  0
  5  4  1  0  0  0  0
  6  5  1  0  0  0  0
  6 27  1  0  0  0  0
  7 13  2  0  0  0  0
  8 14  1  0  0  0  0
  9 15  1  0  0  0  0
 10  7  1  0  0  0  0
 11  8  2  0  0  0  0
 12  8  1  0  0  0  0
 12  7  1  0  0  0  0
 13  9  2  0  0  0  0
 14 32  1  0  0  0  0
 14  9  1  0  0  0  0
 15  6  1  0  0  0  0
 18  1  1  0  0  0  0
 20  2  1  0  0  0  0
 21  3  1  0  0  0  0
 24  4  1  0  0  0  0
 25  5  1  0  0  0  0
 28  6  1  0  0  0  0
 29 10  1  0  0  0  0
 30 11  1  0  0  0  0
 31 12  1  0  0  0  0
M  RAD  1  10   2
M  END
>  <HBA>
6

>  <HBD>
2

>  <TPSA>
99.94

>  <cid>
32220

>  <dipole>
1.27

>  <excitation_energy_1>
5.408

>  <excitation_energy_2>
5.53

>  <excitation_energy_3>
5.631

>  <excitation_energy_4>
5.666

>  <homo_energy>
-6.403

>  <homo_lumo_gap>
6.283

>  <logP>
2.158

>  <lumo_energy>
-0.12

>  <melting_point>
151.93

>  <molecular_refractivity>
59.16

>  <oscillator_strength_1>
0.0026

>  <oscillator_strength_2>
0.0752

>  <oscillator_strength_3>
0.0012

>  <oscillator_strength_4>
0.012

>  <open_babel_can_smiles>
CCCCCCOC1=[N]=C(NC(=N)N1)[NH]

>  <mulliken_charges>
32
1   -0.442097
2   -0.248651
3   -0.246259
4   -0.266702
5   -0.282434
6   -0.041985
7   0.612106
8   0.693562
9   0.776558
10   -0.616217
11   -0.651307
12   -0.699338
13   -0.517451
14   -0.672947
15   -0.507632
16   0.14287
17   0.141121
18   0.143805
19   0.129627
20   0.134007
21   0.135645
22   0.127764
23   0.127985
24   0.142854
25   0.170921
26   0.140341
27   0.153799
28   0.185925
29   0.263179
30   0.280037
31   0.328755
32   0.36216

>  <lowdin_charges>
32
1   -0.445751
2   -0.272302
3   -0.272889
4   -0.273866
5   -0.287237
6   -0.126036
7   0.129457
8   0.141592
9   0.187764
10   -0.414222
11   -0.456436
12   -0.28147
13   -0.234425
14   -0.228125
15   -0.181009
16   0.150606
17   0.146593
18   0.147824
19   0.138415
20   0.140811
21   0.141923
22   0.138043
23   0.137606
24   0.145251
25   0.160795
26   0.145423
27   0.153781
28   0.167574
29   0.241626
30   0.255361
31   0.288418
32   0.314903

$$$$

