PCCDB-ID:  11592
public computational chemistry database (PCCDB) project, http://pccdb.org

 26 25  0  0  0  0  0  0  0  0999 V2000
    2.8286    0.9820    2.6190 C   0  0  0  0  0  0  0  0  0  0  0  0
    0.7985    0.9593    1.1186 C   0  0  0  0  0  0  0  0  0  0  0  0
    5.6145    1.6389   -1.5681 C   0  0  0  0  0  0  0  0  0  0  0  0
    6.5567   -0.6655   -1.1511 C   0  0  0  0  0  0  0  0  0  0  0  0
    3.0962    0.7193    0.0859 C   0  0  0  0  0  0  0  0  0  0  0  0
    4.4848    0.0637    0.1042 C   0  0  0  0  0  0  0  0  0  0  0  0
    2.2230    0.4222    1.3224 C   0  0  0  0  0  0  0  0  0  0  0  0
    5.2774    0.1824   -1.2139 C   0  0  0  0  0  0  0  0  0  0  0  0
    2.1843    0.7633    3.4789 H   0  0  0  0  0  0  0  0  0  0  0  0
    2.9402    2.0729    2.5574 H   0  0  0  0  0  0  0  0  0  0  0  0
    3.8158    0.5572    2.8299 H   0  0  0  0  0  0  0  0  0  0  0  0
    0.1557    0.7175    1.9735 H   0  0  0  0  0  0  0  0  0  0  0  0
    0.3356    0.5347    0.2196 H   0  0  0  0  0  0  0  0  0  0  0  0
    0.8035    2.0515    1.0059 H   0  0  0  0  0  0  0  0  0  0  0  0
    6.1900    1.6928   -2.5000 H   0  0  0  0  0  0  0  0  0  0  0  0
    6.2199    2.1019   -0.7772 H   0  0  0  0  0  0  0  0  0  0  0  0
    4.7154    2.2501   -1.7002 H   0  0  0  0  0  0  0  0  0  0  0  0
    7.1127   -0.6178   -2.0950 H   0  0  0  0  0  0  0  0  0  0  0  0
    6.3286   -1.7187   -0.9481 H   0  0  0  0  0  0  0  0  0  0  0  0
    7.2239   -0.3101   -0.3548 H   0  0  0  0  0  0  0  0  0  0  0  0
    2.5572    0.3748   -0.8095 H   0  0  0  0  0  0  0  0  0  0  0  0
    3.1934    1.8095   -0.0198 H   0  0  0  0  0  0  0  0  0  0  0  0
    4.3654   -1.0040    0.3422 H   0  0  0  0  0  0  0  0  0  0  0  0
    5.0924    0.4889    0.9159 H   0  0  0  0  0  0  0  0  0  0  0  0
    2.1572   -0.6723    1.4268 H   0  0  0  0  0  0  0  0  0  0  0  0
    4.6453   -0.2231   -2.0197 H   0  0  0  0  0  0  0  0  0  0  0  0
  1 11  1  0  0  0  0
  1  9  1  0  0  0  0
  2  7  1  0  0  0  0
  2 12  1  0  0  0  0
  3  8  1  0  0  0  0
  3 16  1  0  0  0  0
  4 19  1  0  0  0  0
  4 20  1  0  0  0  0
  5  6  1  0  0  0  0
  5  7  1  0  0  0  0
  6 23  1  0  0  0  0
  6 24  1  0  0  0  0
  7 25  1  0  0  0  0
  7  1  1  0  0  0  0
  8  4  1  0  0  0  0
  8  6  1  0  0  0  0
 10  1  1  0  0  0  0
 13  2  1  0  0  0  0
 14  2  1  0  0  0  0
 15  3  1  0  0  0  0
 17  3  1  0  0  0  0
 18  4  1  0  0  0  0
 21  5  1  0  0  0  0
 22  5  1  0  0  0  0
 26  8  1  0  0  0  0
M  END
>  <HBA>
0

>  <HBD>
0

>  <TPSA>
0.0

>  <cid>
11592

>  <dipole>
0.1

>  <excitation_energy_1>
7.639

>  <excitation_energy_2>
7.948

>  <excitation_energy_3>
7.951

>  <excitation_energy_4>
8.018

>  <homo_energy>
-8.074

>  <homo_lumo_gap>
10.403

>  <logP>
3.079

>  <lumo_energy>
2.329

>  <melting_point>
-27.89

>  <molecular_refractivity>
40.57

>  <oscillator_strength_1>
0.0001

>  <oscillator_strength_2>
0.0076

>  <oscillator_strength_3>
0.0728

>  <oscillator_strength_4>
0.0397

>  <open_babel_can_smiles>
CC(CCC(C)C)C

>  <mulliken_charges>
26
1   -0.444198
2   -0.441681
3   -0.444215
4   -0.441767
5   -0.251881
6   -0.251699
7   -0.066168
8   -0.066359
9   0.138687
10   0.136736
11   0.144927
12   0.138307
13   0.138394
14   0.1375
15   0.138676
16   0.13678
17   0.144948
18   0.138337
19   0.138455
20   0.137496
21   0.123209
22   0.127551
23   0.123155
24   0.127572
25   0.118598
26   0.11864

>  <lowdin_charges>
26
1   -0.445
2   -0.443627
3   -0.448593
4   -0.443814
5   -0.275961
6   -0.276951
7   -0.117227
8   -0.120602
9   0.148156
10   0.142523
11   0.148269
12   0.147602
13   0.147054
14   0.14278
15   0.147633
16   0.145612
17   0.149078
18   0.146961
19   0.145212
20   0.145671
21   0.138485
22   0.135906
23   0.136382
24   0.138945
25   0.131063
26   0.134443

$$$$

