PCCDB-ID:  12136
public computational chemistry database (PCCDB) project, http://pccdb.org

 20 20  0  0  0  0  0  0  0  0999 V2000
   -1.5488    0.0148   -0.1737 C   0  0  0  0  0  0  0  0  0  0  0  0
   -0.8383    1.1960    0.0545 C   0  0  0  0  0  0  0  0  0  0  0  0
   -0.8567   -1.1819   -0.3604 C   0  0  0  0  0  0  0  0  0  0  0  0
    0.5555    1.1826    0.0863 C   0  0  0  0  0  0  0  0  0  0  0  0
    0.5387   -1.1960   -0.3161 C   0  0  0  0  0  0  0  0  0  0  0  0
    2.7646   -0.0409   -0.1212 C   0  0  0  0  0  0  0  0  0  0  0  0
    1.2571   -0.0157   -0.0984 C   0  0  0  0  0  0  0  0  0  0  0  0
    4.5830    0.9611    0.9936 C   0  0  0  0  0  0  0  0  0  0  0  0
    5.3895    0.3655    0.2079 N   0  0  0  0  0  0  0  0  0  0  0  0
    4.8407    1.8203    2.0161 O   0  0  0  0  0  0  0  0  0  0  0  0
    3.2551    0.8182    0.9273 O   0  0  0  0  0  0  0  0  0  0  0  0
   -2.6351    0.0278   -0.2012 H   0  0  0  0  0  0  0  0  0  0  0  0
   -1.3714    2.1309    0.2060 H   0  0  0  0  0  0  0  0  0  0  0  0
   -1.4008   -2.1071   -0.5308 H   0  0  0  0  0  0  0  0  0  0  0  0
    1.1066    2.1000    0.2698 H   0  0  0  0  0  0  0  0  0  0  0  0
    1.0741   -2.1331   -0.4519 H   0  0  0  0  0  0  0  0  0  0  0  0
    3.1664    0.3191   -1.0758 H   0  0  0  0  0  0  0  0  0  0  0  0
    3.1533   -1.0529    0.0300 H   0  0  0  0  0  0  0  0  0  0  0  0
    6.3638    0.5954    0.4015 H   0  0  0  0  0  0  0  0  0  0  0  0
    5.8015    1.9247    2.0906 H   0  0  0  0  0  0  0  0  0  0  0  0
  1  2  2  0  0  0  0
  2  4  1  0  0  0  0
  2 13  1  0  0  0  0
  3  5  2  0  0  0  0
  3  1  1  0  0  0  0
  4 15  1  0  0  0  0
  5  7  1  0  0  0  0
  6  7  1  0  0  0  0
  6 18  1  0  0  0  0
  6 11  1  0  0  0  0
  7  4  2  0  0  0  0
  8 10  1  0  0  0  0
  9 19  1  0  0  0  0
  9  8  2  0  0  0  0
 10 20  1  0  0  0  0
 11  8  1  0  0  0  0
 12  1  1  0  0  0  0
 14  3  1  0  0  0  0
 16  5  1  0  0  0  0
 17  6  1  0  0  0  0
M  END
>  <HBA>
3

>  <HBD>
1

>  <TPSA>
52.32

>  <cid>
12136

>  <dipole>
1.26

>  <excitation_energy_1>
5.298

>  <excitation_energy_2>
5.752

>  <excitation_energy_3>
5.936

>  <excitation_energy_4>
5.994

>  <homo_energy>
-6.599

>  <homo_lumo_gap>
6.517

>  <logP>
1.982

>  <lumo_energy>
-0.082

>  <melting_point>
83.51

>  <molecular_refractivity>
40.6

>  <oscillator_strength_1>
0.0004

>  <oscillator_strength_2>
0.0498

>  <oscillator_strength_3>
0.0077

>  <oscillator_strength_4>
0.0029

>  <open_babel_can_smiles>
OC(=N)OCc1ccccc1

>  <mulliken_charges>
20
1   -0.127089
2   -0.131838
3   -0.128239
4   -0.159647
5   -0.182325
6   -0.096415
7   0.132371
8   0.649904
9   -0.628971
10   -0.570095
11   -0.445932
12   0.129474
13   0.131076
14   0.130185
15   0.143162
16   0.127259
17   0.177024
18   0.165056
19   0.276763
20   0.408276

>  <lowdin_charges>
20
1   -0.153996
2   -0.153624
3   -0.155489
4   -0.154479
5   -0.164116
6   -0.114619
7   -0.015035
8   0.18958
9   -0.470364
10   -0.361748
11   -0.175931
12   0.155623
13   0.158443
14   0.158386
15   0.165305
16   0.156518
17   0.162959
18   0.15753
19   0.255869
20   0.359186

$$$$

