PCCDB-ID:  12572
public computational chemistry database (PCCDB) project, http://pccdb.org

 33 33  0  0  0  0  0  0  0  0999 V2000
   -0.1853   -0.9825   -0.4329 C   0  0  0  0  0  0  0  0  0  0  0  0
    3.4649   -2.9797    2.5503 C   0  0  0  0  0  0  0  0  0  0  0  0
    2.7926   -5.0334    1.3625 C   0  0  0  0  0  0  0  0  0  0  0  0
    6.6606    2.3701    0.5622 C   0  0  0  0  0  0  0  0  0  0  0  0
    5.5578    4.5078   -0.0155 C   0  0  0  0  0  0  0  0  0  0  0  0
    1.8629    0.5897   -0.1965 C   0  0  0  0  0  0  0  0  0  0  0  0
    1.2299   -0.6299   -0.1029 C   0  0  0  0  0  0  0  0  0  0  0  0
    3.1885    0.3363    0.2396 C   0  0  0  0  0  0  0  0  0  0  0  0
    2.0064   -2.9327    0.4902 C   0  0  0  0  0  0  0  0  0  0  0  0
    4.2068    2.5000    0.0915 C   0  0  0  0  0  0  0  0  0  0  0  0
    3.3902   -0.9191    0.5884 N   0  0  0  0  0  0  0  0  0  0  0  0
    2.7888   -3.5760    1.4017 N   0  0  0  0  0  0  0  0  0  0  0  0
    5.4309    3.0825    0.2452 N   0  0  0  0  0  0  0  0  0  0  0  0
    2.1679   -1.5149    0.3916 N   0  0  0  0  0  0  0  0  0  0  0  0
    1.2001   -3.4950   -0.2394 O   0  0  0  0  0  0  0  0  0  0  0  0
    3.1824    3.0833   -0.2106 O   0  0  0  0  0  0  0  0  0  0  0  0
    4.2880    1.1486    0.3372 O   0  0  0  0  0  0  0  0  0  0  0  0
   -0.7498   -0.0635   -0.6140 H   0  0  0  0  0  0  0  0  0  0  0  0
   -0.6671   -1.5354    0.3796 H   0  0  0  0  0  0  0  0  0  0  0  0
   -0.2391   -1.6182   -1.3209 H   0  0  0  0  0  0  0  0  0  0  0  0
    3.2154   -3.5687    3.4419 H   0  0  0  0  0  0  0  0  0  0  0  0
    3.1444   -1.9526    2.7014 H   0  0  0  0  0  0  0  0  0  0  0  0
    4.5525   -2.9825    2.4158 H   0  0  0  0  0  0  0  0  0  0  0  0
    3.8164   -5.3954    1.5106 H   0  0  0  0  0  0  0  0  0  0  0  0
    2.4178   -5.3695    0.3970 H   0  0  0  0  0  0  0  0  0  0  0  0
    2.1560   -5.4535    2.1534 H   0  0  0  0  0  0  0  0  0  0  0  0
    7.1506    2.8443    1.4222 H   0  0  0  0  0  0  0  0  0  0  0  0
    7.3557    2.4033   -0.2881 H   0  0  0  0  0  0  0  0  0  0  0  0
    6.4453    1.3324    0.8036 H   0  0  0  0  0  0  0  0  0  0  0  0
    5.9975    5.0128    0.8539 H   0  0  0  0  0  0  0  0  0  0  0  0
    4.5703    4.9205   -0.2150 H   0  0  0  0  0  0  0  0  0  0  0  0
    6.2079    4.6857   -0.8829 H   0  0  0  0  0  0  0  0  0  0  0  0
    1.4432    1.5267   -0.5174 H   0  0  0  0  0  0  0  0  0  0  0  0
  1  7  1  0  0  0  0
  1 19  1  0  0  0  0
  2 22  1  0  0  0  0
  2 21  1  0  0  0  0
  3 12  1  0  0  0  0
  3 24  1  0  0  0  0
  3 26  1  0  0  0  0
  4 29  1  0  0  0  0
  4 27  1  0  0  0  0
  5 13  1  0  0  0  0
  5 30  1  0  0  0  0
  6  7  2  0  0  0  0
  6  8  1  0  0  0  0
  7 14  1  0  0  0  0
  8 17  1  0  0  0  0
  8 11  2  0  0  0  0
  9 12  1  0  0  0  0
 10 13  1  0  0  0  0
 10 17  1  0  0  0  0
 12  2  1  0  0  0  0
 13  4  1  0  0  0  0
 14  9  1  0  0  0  0
 14 11  1  0  0  0  0
 15  9  2  0  0  0  0
 16 10  2  0  0  0  0
 18  1  1  0  0  0  0
 20  1  1  0  0  0  0
 23  2  1  0  0  0  0
 25  3  1  0  0  0  0
 28  4  1  0  0  0  0
 31  5  1  0  0  0  0
 32  5  1  0  0  0  0
 33  6  1  0  0  0  0
M  END
>  <HBA>
7

>  <HBD>
0

>  <TPSA>
67.67

>  <cid>
12572

>  <dipole>
3.65

>  <excitation_energy_1>
5.312

>  <excitation_energy_2>
5.527

>  <excitation_energy_3>
5.599

>  <excitation_energy_4>
5.857

>  <homo_energy>
-6.291

>  <homo_lumo_gap>
6.03

>  <logP>
0.782

>  <lumo_energy>
-0.261

>  <melting_point>
98.0

>  <molecular_refractivity>
61.15

>  <oscillator_strength_1>
0.2731

>  <oscillator_strength_2>
0.075

>  <oscillator_strength_3>
0.061

>  <oscillator_strength_4>
0.0421

>  <open_babel_can_smiles>
O=C(N(C)C)Oc1nn(c(c1)C)C(=O)N(C)C

>  <mulliken_charges>
33
1   -0.502015
2   -0.301101
3   -0.314841
4   -0.318868
5   -0.318047
6   -0.306091
7   0.407157
8   0.541572
9   0.753129
10   0.805308
11   -0.387083
12   -0.410477
13   -0.447391
14   -0.403671
15   -0.51598
16   -0.512582
17   -0.530352
18   0.158125
19   0.16974
20   0.196426
21   0.148335
22   0.19068
23   0.169021
24   0.15652
25   0.200624
26   0.157081
27   0.156138
28   0.157658
29   0.206266
30   0.155253
31   0.205277
32   0.15599
33   0.178198

>  <lowdin_charges>
33
1   -0.43992
2   -0.345596
3   -0.347961
4   -0.352815
5   -0.350297
6   -0.253414
7   0.051356
8   0.10477
9   0.190554
10   0.221875
11   -0.174565
12   -0.094553
13   -0.10393
14   0.015935
15   -0.308379
16   -0.306831
17   -0.148976
18   0.163483
19   0.170114
20   0.181736
21   0.148139
22   0.175492
23   0.155728
24   0.152402
25   0.182213
26   0.150863
27   0.152185
28   0.150787
29   0.181733
30   0.151665
31   0.184937
32   0.150085
33   0.191183

$$$$

