PCCDB-ID:  840
public computational chemistry database (PCCDB) project, http://pccdb.org

 23 23  0  0  1  0  0  0  0  0999 V2000
    0.9092   -0.0375    0.0945 C   0  0  0  0  0  0  0  0  0  0  0  0
    2.4238   -0.1284   -0.1340 C   0  0  2  0  0  0  0  0  0  0  0  0
    2.9690    0.9332   -1.1095 C   0  0  2  0  0  0  0  0  0  0  0  0
    2.5896    0.5927   -2.5619 C   0  0  2  0  0  0  0  0  0  0  0  0
    2.9981   -0.8531   -2.8868 C   0  0  2  0  0  0  0  0  0  0  0  0
    2.4733   -1.8539   -1.8394 C   0  0  1  0  0  0  0  0  0  0  0  0
    4.4079    0.9656   -1.0707 O   0  0  0  0  0  0  0  0  0  0  0  0
    3.1335    1.5087   -3.4893 O   0  0  0  0  0  0  0  0  0  0  0  0
    4.4211   -0.9767   -2.9793 O   0  0  0  0  0  0  0  0  0  0  0  0
    3.0120   -3.1091   -2.0589 O   0  0  0  0  0  0  0  0  0  0  0  0
    2.8583   -1.4328   -0.5210 O   0  0  0  0  0  0  0  0  0  0  0  0
    0.6472    0.9301    0.5375 H   0  0  0  0  0  0  0  0  0  0  0  0
    0.5987   -0.8277    0.7845 H   0  0  0  0  0  0  0  0  0  0  0  0
    0.3294   -0.1473   -0.8272 H   0  0  0  0  0  0  0  0  0  0  0  0
    2.9121    0.0300    0.8382 H   0  0  0  0  0  0  0  0  0  0  0  0
    2.5737    1.9261   -0.8521 H   0  0  0  0  0  0  0  0  0  0  0  0
    1.5010    0.6803   -2.6551 H   0  0  0  0  0  0  0  0  0  0  0  0
    2.6091   -1.1328   -3.8709 H   0  0  0  0  0  0  0  0  0  0  0  0
    1.3815   -1.9543   -1.8975 H   0  0  0  0  0  0  0  0  0  0  0  0
    4.6890    1.0679   -0.1478 H   0  0  0  0  0  0  0  0  0  0  0  0
    4.0765    1.2828   -3.5628 H   0  0  0  0  0  0  0  0  0  0  0  0
    4.7733   -0.5681   -2.1616 H   0  0  0  0  0  0  0  0  0  0  0  0
    3.9385   -2.9436   -2.3206 H   0  0  0  0  0  0  0  0  0  0  0  0
  1 12  1  0  0  0  0
  1 13  1  0  0  0  0
  2  1  1  0  0  0  0
  2 15  1  1  0  0  0
  3  7  1  0  0  0  0
  3 16  1  1  0  0  0
  3  2  1  0  0  0  0
  4 17  1  6  0  0  0
  4  3  1  0  0  0  0
  5 18  1  6  0  0  0
  5  4  1  0  0  0  0
  5  6  1  0  0  0  0
  6 19  1  6  0  0  0
  6 11  1  0  0  0  0
  7 20  1  0  0  0  0
  8  4  1  0  0  0  0
  9  5  1  0  0  0  0
  9 22  1  0  0  0  0
 10  6  1  0  0  0  0
 11  2  1  0  0  0  0
 14  1  1  0  0  0  0
 21  8  1  0  0  0  0
 23 10  1  0  0  0  0
M  END
>  <HBA>
5

>  <HBD>
4

>  <TPSA>
90.15

>  <cid>
840

>  <dipole>
3.4

>  <excitation_energy_1>
6.074

>  <excitation_energy_2>
6.42

>  <excitation_energy_3>
6.574

>  <excitation_energy_4>
6.769

>  <homo_energy>
-6.955

>  <homo_lumo_gap>
8.185

>  <logP>
-2.194

>  <lumo_energy>
1.23

>  <melting_point>
61.54

>  <molecular_refractivity>
34.57

>  <oscillator_strength_1>
0.0011

>  <oscillator_strength_2>
0.0026

>  <oscillator_strength_3>
0.005

>  <oscillator_strength_4>
0.0002

>  <open_babel_can_smiles>
O[C@@H]1[C@@H](C)O[C@@H]([C@@H]([C@@H]1O)O)O

>  <mulliken_charges>
23
1   -0.477572
2   0.109363
3   0.107664
4   0.104162
5   0.057911
6   0.330657
7   -0.649531
8   -0.626736
9   -0.66487
10   -0.609183
11   -0.488866
12   0.151635
13   0.173161
14   0.156825
15   0.127906
16   0.135891
17   0.142229
18   0.157259
19   0.122026
20   0.405502
21   0.406013
22   0.422824
23   0.405732

>  <lowdin_charges>
23
1   -0.464339
2   -0.016972
3   -0.036573
4   -0.030406
5   -0.04912
6   0.077226
7   -0.460107
8   -0.444081
9   -0.473129
10   -0.417102
11   -0.283327
12   0.158268
13   0.1689
14   0.153443
15   0.142056
16   0.144341
17   0.15072
18   0.159197
19   0.130017
20   0.35066
21   0.347368
22   0.346261
23   0.346699

$$$$

