PCCDB-ID:  19425
public computational chemistry database (PCCDB) project, http://pccdb.org

 10  9  0  0  0  0  0  0  0  0999 V2000
    0.8556   -0.0306   -0.0339 C   0  0  0  0  0  0  0  0  0  0  0  0
    2.9219    1.1864   -0.7343 C   0  0  0  0  0  0  0  0  0  0  0  0
    2.9247   -0.0216    1.3666 C   0  0  0  0  0  0  0  0  0  0  0  0
    2.4051    0.0083   -0.0132 C   0  0  0  0  0  0  0  0  0  0  0  0
    3.2993    2.1097   -1.3256 N   0  0  0  0  0  0  0  0  0  0  0  0
    3.3048   -0.0676    2.4612 N   0  0  0  0  0  0  0  0  0  0  0  0
    0.5049   -0.0485   -1.0688 H   0  0  0  0  0  0  0  0  0  0  0  0
    0.4434    0.8484    0.4667 H   0  0  0  0  0  0  0  0  0  0  0  0
    0.5059   -0.9297    0.4797 H   0  0  0  0  0  0  0  0  0  0  0  0
    2.7906   -0.8835   -0.5266 H   0  0  0  0  0  0  0  0  0  0  0  0
  1  4  1  0  0  0  0
  1  8  1  0  0  0  0
  1  9  1  0  0  0  0
  2  4  1  0  0  0  0
  3  6  3  0  0  0  0
  4  3  1  0  0  0  0
  5  2  3  0  0  0  0
  7  1  1  0  0  0  0
 10  4  1  0  0  0  0
M  END
>  <HBA>
2

>  <HBD>
0

>  <TPSA>
47.58

>  <cid>
19425

>  <dipole>
4.14

>  <excitation_energy_1>
7.322

>  <excitation_energy_2>
7.556

>  <excitation_energy_3>
7.714

>  <excitation_energy_4>
7.723

>  <homo_energy>
-9.344

>  <homo_lumo_gap>
8.958

>  <logP>
0.67

>  <lumo_energy>
-0.386

>  <melting_point>
42.57

>  <molecular_refractivity>
20.84

>  <oscillator_strength_1>
0.0058

>  <oscillator_strength_2>
0.0001

>  <oscillator_strength_3>
0.0059

>  <oscillator_strength_4>
0.0155

>  <open_babel_can_smiles>
CC(C#N)C#N

>  <mulliken_charges>
10
1   -0.441591
2   0.374182
3   0.374188
4   -0.232882
5   -0.440537
6   -0.440579
7   0.186551
8   0.194234
9   0.186592
10   0.239842

>  <lowdin_charges>
10
1   -0.42009
2   -0.010206
3   -0.011313
4   -0.112404
5   -0.08986
6   -0.089812
7   0.173086
8   0.177889
9   0.174593
10   0.208116

$$$$

