PCCDB-ID:  68316
public computational chemistry database (PCCDB) project, http://pccdb.org

 25 25  0  0  0  0  0  0  0  0999 V2000
    0.8507   -2.6380   -1.8243 C   0  0  0  0  0  0  0  0  0  0  0  0
    2.5527   -3.2540   -0.0456 C   0  0  0  0  0  0  0  0  0  0  0  0
    4.4248   -1.0748   -1.3432 C   0  0  0  0  0  0  0  0  0  0  0  0
    3.0346   -1.4633   -1.7682 C   0  0  0  0  0  0  0  0  0  0  0  0
    5.4742   -1.3414   -2.4515 C   0  0  0  0  0  0  0  0  0  0  0  0
    7.3232    0.4599   -1.8889 C   0  0  0  0  0  0  0  0  0  0  0  0
    8.6358    0.3757   -1.5448 C   0  0  0  0  0  0  0  0  0  0  0  0
    7.9444   -1.6789   -1.8303 C   0  0  0  0  0  0  0  0  0  0  0  0
    2.2215   -2.3907   -1.2388 C   0  0  0  0  0  0  0  0  0  0  0  0
    6.8593   -0.8921   -2.0804 C   0  0  0  0  0  0  0  0  0  0  0  0
    9.0366   -0.9264   -1.5038 O   0  0  0  0  0  0  0  0  0  0  0  0
    0.7411   -3.6825   -2.1492 H   0  0  0  0  0  0  0  0  0  0  0  0
    0.6512   -1.9921   -2.6852 H   0  0  0  0  0  0  0  0  0  0  0  0
    0.0631   -2.4624   -1.0777 H   0  0  0  0  0  0  0  0  0  0  0  0
    2.4871   -4.3189   -0.3091 H   0  0  0  0  0  0  0  0  0  0  0  0
    1.8263   -3.0916    0.7631 H   0  0  0  0  0  0  0  0  0  0  0  0
    3.5501   -3.0708    0.3604 H   0  0  0  0  0  0  0  0  0  0  0  0
    4.7333   -1.5959   -0.4315 H   0  0  0  0  0  0  0  0  0  0  0  0
    4.4430   -0.0014   -1.1017 H   0  0  0  0  0  0  0  0  0  0  0  0
    2.6622   -0.9136   -2.6356 H   0  0  0  0  0  0  0  0  0  0  0  0
    5.1533   -0.8329   -3.3715 H   0  0  0  0  0  0  0  0  0  0  0  0
    5.4828   -2.4135   -2.6822 H   0  0  0  0  0  0  0  0  0  0  0  0
    6.7450    1.3678   -1.9979 H   0  0  0  0  0  0  0  0  0  0  0  0
    9.3955    1.1070   -1.3134 H   0  0  0  0  0  0  0  0  0  0  0  0
    8.0998   -2.7475   -1.8453 H   0  0  0  0  0  0  0  0  0  0  0  0
  1  9  1  0  0  0  0
  1 14  1  0  0  0  0
  2 17  1  0  0  0  0
  2 16  1  0  0  0  0
  3 19  1  0  0  0  0
  3 18  1  0  0  0  0
  4  3  1  0  0  0  0
  4  9  2  0  0  0  0
  5 10  1  0  0  0  0
  5  3  1  0  0  0  0
  6  7  2  0  0  0  0
  7 11  1  0  0  0  0
  7 24  1  0  0  0  0
  8 11  1  0  0  0  0
  9  2  1  0  0  0  0
 10  6  1  0  0  0  0
 10  8  2  0  0  0  0
 12  1  1  0  0  0  0
 13  1  1  0  0  0  0
 15  2  1  0  0  0  0
 20  4  1  0  0  0  0
 21  5  1  0  0  0  0
 22  5  1  0  0  0  0
 23  6  1  0  0  0  0
 25  8  1  0  0  0  0
M  END
>  <HBA>
1

>  <HBD>
0

>  <TPSA>
13.14

>  <cid>
68316

>  <dipole>
0.95

>  <excitation_energy_1>
5.546

>  <excitation_energy_2>
5.759

>  <excitation_energy_3>
5.797

>  <excitation_energy_4>
5.907

>  <homo_energy>
-5.897

>  <homo_lumo_gap>
6.536

>  <logP>
3.178

>  <lumo_energy>
0.639

>  <melting_point>
16.27

>  <molecular_refractivity>
47.23

>  <oscillator_strength_1>
0.0006

>  <oscillator_strength_2>
0.0066

>  <oscillator_strength_3>
0.0842

>  <oscillator_strength_4>
0.0075

>  <open_babel_can_smiles>
CC(=CCCc1cocc1)C

>  <mulliken_charges>
25
1   -0.506209
2   -0.513328
3   -0.297152
4   -0.161309
5   -0.344027
6   -0.2101
7   0.076764
8   0.021858
9   0.188623
10   0.116599
11   -0.40095
12   0.148748
13   0.150871
14   0.149262
15   0.151124
16   0.152611
17   0.155315
18   0.144113
19   0.142383
20   0.108837
21   0.145285
22   0.145078
23   0.134163
24   0.152961
25   0.148479

>  <lowdin_charges>
25
1   -0.439411
2   -0.443387
3   -0.27001
4   -0.193589
5   -0.263621
6   -0.218596
7   -0.08303
8   -0.102455
9   -0.008737
10   -0.045224
11   -0.098227
12   0.151082
13   0.154588
14   0.153108
15   0.153252
16   0.156109
17   0.155328
18   0.149073
19   0.146645
20   0.144317
21   0.150014
22   0.15003
23   0.166352
24   0.170379
25   0.166009

$$$$

