PCCDB-ID:  66093
public computational chemistry database (PCCDB) project, http://pccdb.org

 26 26  0  0  0  0  0  0  0  0999 V2000
    0.7845   -1.0660   -2.0783 C   0  0  0  0  0  0  0  0  0  0  0  0
    2.3103   -1.1053   -2.2048 C   0  0  0  0  0  0  0  0  0  0  0  0
    2.9959    0.0572   -1.4735 C   0  0  0  0  0  0  0  0  0  0  0  0
    9.2878    0.1910   -3.7697 C   0  0  0  0  0  0  0  0  0  0  0  0
    8.3845    0.6048   -4.7534 C   0  0  0  0  0  0  0  0  0  0  0  0
    8.8244   -0.1523   -2.4983 C   0  0  0  0  0  0  0  0  0  0  0  0
    7.0252    0.6745   -4.4646 C   0  0  0  0  0  0  0  0  0  0  0  0
    7.4614   -0.0857   -2.2099 C   0  0  0  0  0  0  0  0  0  0  0  0
    4.5255    0.0355   -1.5684 C   0  0  0  0  0  0  0  0  0  0  0  0
    6.5469    0.3284   -3.1906 C   0  0  0  0  0  0  0  0  0  0  0  0
    5.0688    0.4264   -2.9419 C   0  0  0  0  0  0  0  0  0  0  0  0
    4.3223    0.8299   -3.8224 O   0  0  0  0  0  0  0  0  0  0  0  0
    0.3183   -1.9087   -2.6015 H   0  0  0  0  0  0  0  0  0  0  0  0
    0.3774   -0.1421   -2.5070 H   0  0  0  0  0  0  0  0  0  0  0  0
    0.4695   -1.1106   -1.0280 H   0  0  0  0  0  0  0  0  0  0  0  0
    2.5915   -1.0777   -3.2637 H   0  0  0  0  0  0  0  0  0  0  0  0
    2.6868   -2.0574   -1.8023 H   0  0  0  0  0  0  0  0  0  0  0  0
    2.7138    0.0310   -0.4121 H   0  0  0  0  0  0  0  0  0  0  0  0
    2.6280    1.0076   -1.8775 H   0  0  0  0  0  0  0  0  0  0  0  0
   10.3499    0.1368   -3.9936 H   0  0  0  0  0  0  0  0  0  0  0  0
    8.7429    0.8734   -5.7434 H   0  0  0  0  0  0  0  0  0  0  0  0
    9.5239   -0.4736   -1.7314 H   0  0  0  0  0  0  0  0  0  0  0  0
    6.3065    0.9945   -5.2119 H   0  0  0  0  0  0  0  0  0  0  0  0
    7.1170   -0.3541   -1.2162 H   0  0  0  0  0  0  0  0  0  0  0  0
    4.9136   -0.9571   -1.2994 H   0  0  0  0  0  0  0  0  0  0  0  0
    4.9639    0.7292   -0.8354 H   0  0  0  0  0  0  0  0  0  0  0  0
  1 15  1  0  0  0  0
  2  1  1  0  0  0  0
  2 17  1  0  0  0  0
  2  3  1  0  0  0  0
  3 18  1  0  0  0  0
  4  6  2  0  0  0  0
  5  7  2  0  0  0  0
  5  4  1  0  0  0  0
  6  8  1  0  0  0  0
  6 22  1  0  0  0  0
  7 10  1  0  0  0  0
  8 24  1  0  0  0  0
  9  3  1  0  0  0  0
  9 25  1  0  0  0  0
  9 26  1  0  0  0  0
 10 11  1  0  0  0  0
 10  8  2  0  0  0  0
 11  9  1  0  0  0  0
 12 11  2  0  0  0  0
 13  1  1  0  0  0  0
 14  1  1  0  0  0  0
 16  2  1  0  0  0  0
 19  3  1  0  0  0  0
 20  4  1  0  0  0  0
 21  5  1  0  0  0  0
 23  7  1  0  0  0  0
M  END
>  <HBA>
1

>  <HBD>
0

>  <TPSA>
17.07

>  <cid>
66093

>  <dipole>
2.79

>  <excitation_energy_1>
3.736

>  <excitation_energy_2>
4.729

>  <excitation_energy_3>
5.139

>  <excitation_energy_4>
5.52

>  <homo_energy>
-6.708

>  <homo_lumo_gap>
5.241

>  <logP>
3.059

>  <lumo_energy>
-1.467

>  <melting_point>
36.22

>  <molecular_refractivity>
51.06

>  <oscillator_strength_1>
0.0001

>  <oscillator_strength_2>
0.0216

>  <oscillator_strength_3>
0.2716

>  <oscillator_strength_4>
0.0005

>  <open_babel_can_smiles>
CCCCC(=O)c1ccccc1

>  <mulliken_charges>
26
1   -0.442671
2   -0.252901
3   -0.238473
4   -0.118856
5   -0.133129
6   -0.133948
7   -0.155704
8   -0.182125
9   -0.374604
10   0.078415
11   0.410074
12   -0.467621
13   0.141222
14   0.146834
15   0.136818
16   0.157227
17   0.121178
18   0.123814
19   0.152298
20   0.137376
21   0.138192
22   0.135685
23   0.163721
24   0.137118
25   0.157141
26   0.16292

>  <lowdin_charges>
26
1   -0.443739
2   -0.273895
3   -0.27028
4   -0.137911
5   -0.154363
6   -0.159059
7   -0.129274
8   -0.149851
9   -0.313463
10   -0.051158
11   0.164046
12   -0.245417
13   0.15012
14   0.149324
15   0.142348
16   0.150378
17   0.133631
18   0.13887
19   0.153343
20   0.159705
21   0.161071
22   0.161711
23   0.177908
24   0.16149
25   0.158462
26   0.166003

$$$$

