PCCDB-ID:  38229
public computational chemistry database (PCCDB) project, http://pccdb.org

 33 32  0  0  0  0  0  0  0  0999 V2000
    3.2438    0.7288    2.3609 C   0  0  0  0  0  0  0  0  0  0  0  0
    1.6984   -0.4776    3.9263 C   0  0  0  0  0  0  0  0  0  0  0  0
    1.2300    1.9146    3.2890 C   0  0  0  0  0  0  0  0  0  0  0  0
   -0.9678    0.3494   -2.9632 C   0  0  0  0  0  0  0  0  0  0  0  0
   -2.1115    1.3302    0.9736 C   0  0  0  0  0  0  0  0  0  0  0  0
   -0.3582   -0.6816    1.7735 C   0  0  0  0  0  0  0  0  0  0  0  0
    0.9119    0.0996    1.5799 C   0  0  0  0  0  0  0  0  0  0  0  0
    1.0982    0.0567   -1.8634 C   0  0  0  0  0  0  0  0  0  0  0  0
    1.7693    0.5548    2.7807 C   0  0  0  0  0  0  0  0  0  0  0  0
    0.4687    0.1306   -2.9568 N   0  0  0  0  0  0  0  0  0  0  0  0
    1.3738    0.4497    0.4328 N   0  0  0  0  0  0  0  0  0  0  0  0
    2.4317   -0.1178   -1.8094 O   0  0  0  0  0  0  0  0  0  0  0  0
   -2.9646   -0.7449    2.4824 O   0  0  0  0  0  0  0  0  0  0  0  0
    0.4965    0.0789   -0.6359 O   0  0  0  0  0  0  0  0  0  0  0  0
   -1.8420    0.2633    2.4409 S   0  0  2  0  0  0  0  0  0  0  0  0
    3.8297    1.0606    3.2256 H   0  0  0  0  0  0  0  0  0  0  0  0
    3.3522    1.4661    1.5628 H   0  0  0  0  0  0  0  0  0  0  0  0
    3.6662   -0.2148    1.9999 H   0  0  0  0  0  0  0  0  0  0  0  0
    2.3696   -0.1670    4.7342 H   0  0  0  0  0  0  0  0  0  0  0  0
    2.0164   -1.4731    3.5952 H   0  0  0  0  0  0  0  0  0  0  0  0
    0.6934   -0.5594    4.3542 H   0  0  0  0  0  0  0  0  0  0  0  0
    1.8317    2.2550    4.1399 H   0  0  0  0  0  0  0  0  0  0  0  0
    0.1902    1.8456    3.6263 H   0  0  0  0  0  0  0  0  0  0  0  0
    1.2916    2.6755    2.5034 H   0  0  0  0  0  0  0  0  0  0  0  0
   -1.5107   -0.6010   -2.8650 H   0  0  0  0  0  0  0  0  0  0  0  0
   -1.2513    0.7899   -3.9239 H   0  0  0  0  0  0  0  0  0  0  0  0
   -1.3116    1.0168   -2.1615 H   0  0  0  0  0  0  0  0  0  0  0  0
   -1.2298    1.9503    0.7921 H   0  0  0  0  0  0  0  0  0  0  0  0
   -2.9755    1.9602    1.1994 H   0  0  0  0  0  0  0  0  0  0  0  0
   -2.3255    0.6992    0.1078 H   0  0  0  0  0  0  0  0  0  0  0  0
   -0.2301   -1.4629    2.5253 H   0  0  0  0  0  0  0  0  0  0  0  0
   -0.6944   -1.1406    0.8430 H   0  0  0  0  0  0  0  0  0  0  0  0
    2.7130   -0.1225   -2.7418 H   0  0  0  0  0  0  0  0  0  0  0  0
  1  9  1  0  0  0  0
  1 16  1  0  0  0  0
  2 21  1  0  0  0  0
  2 19  1  0  0  0  0
  3 23  1  0  0  0  0
  3 22  1  0  0  0  0
  4 10  1  0  0  0  0
  4 25  1  0  0  0  0
  4 27  1  0  0  0  0
  5 29  1  0  0  0  0
  5 15  1  0  0  0  0
  6 15  1  0  0  0  0
  6 31  1  0  0  0  0
  7  6  1  0  0  0  0
  7  9  1  0  0  0  0
  8 12  1  0  0  0  0
  8 14  1  0  0  0  0
  9  3  1  0  0  0  0
  9  2  1  0  0  0  0
 10  8  2  0  0  0  0
 11  7  2  0  0  0  0
 14 11  1  0  0  0  0
 15 13  2  6  0  0  0
 17  1  1  0  0  0  0
 18  1  1  0  0  0  0
 20  2  1  0  0  0  0
 24  3  1  0  0  0  0
 26  4  1  0  0  0  0
 28  5  1  0  0  0  0
 30  5  1  0  0  0  0
 32  6  1  0  0  0  0
 33 12  1  0  0  0  0
M  END
>  <HBA>
5

>  <HBD>
1

>  <TPSA>
86.97

>  <cid>
38229

>  <dipole>
2.91

>  <excitation_energy_1>
4.437

>  <excitation_energy_2>
4.875

>  <excitation_energy_3>
5.435

>  <excitation_energy_4>
5.487

>  <homo_energy>
-6.275

>  <homo_lumo_gap>
5.263

>  <logP>
2.38

>  <lumo_energy>
-1.012

>  <melting_point>
79.6

>  <molecular_refractivity>
61.56

>  <oscillator_strength_1>
0.0446

>  <oscillator_strength_2>
0.0514

>  <oscillator_strength_3>
0.0143

>  <oscillator_strength_4>
0.0136

>  <open_babel_can_smiles>
C/N=C(\O/N=C(/C(C)(C)C)\C[S@](=O)C)/O

>  <mulliken_charges>
33
1   -0.437401
2   -0.46783
3   -0.459851
4   -0.324571
5   -0.640268
6   -0.564925
7   0.324379
8   0.743316
9   0.034347
10   -0.480585
11   -0.180143
12   -0.573271
13   -0.621375
14   -0.427233
15   0.768836
16   0.136384
17   0.172306
18   0.152405
19   0.155101
20   0.15415
21   0.154384
22   0.152875
23   0.16126
24   0.155889
25   0.155275
26   0.158311
27   0.14315
28   0.19155
29   0.197109
30   0.209656
31   0.209896
32   0.224055
33   0.422822

>  <lowdin_charges>
33
1   -0.440753
2   -0.445371
3   -0.446721
4   -0.355105
5   -0.59994
6   -0.445588
7   0.033407
8   0.187654
9   0.013508
10   -0.261011
11   -0.036794
12   -0.345551
13   -0.659752
14   -0.150807
15   0.810847
16   0.148205
17   0.165373
18   0.155871
19   0.159213
20   0.15345
21   0.152601
22   0.156671
23   0.151745
24   0.156014
25   0.150482
26   0.154346
27   0.139925
28   0.182301
29   0.182964
30   0.183174
31   0.189669
32   0.189356
33   0.37062

$$$$

