PCCDB-ID:  41673
public computational chemistry database (PCCDB) project, http://pccdb.org

 26 25  0  0  1  0  0  0  0  0999 V2000
    2.0693    1.3738    0.0432 C   0  0  0  0  0  0  0  0  0  0  0  0
   -0.8249   -1.3179    2.3695 C   0  0  0  0  0  0  0  0  0  0  0  0
   -0.4724   -2.0326   -0.0400 C   0  0  0  0  0  0  0  0  0  0  0  0
    4.2370   -2.9732    0.0016 C   0  0  0  0  0  0  0  0  0  0  0  0
    3.1589   -0.8781    0.2606 C   0  0  0  0  0  0  0  0  0  0  0  0
    1.8304   -0.1369    0.0718 C   0  0  1  0  0  0  0  0  0  0  0  0
    0.1983   -1.6007    1.2735 C   0  0  0  0  0  0  0  0  0  0  0  0
    1.0344   -2.6229    1.7633 O   0  0  0  0  0  0  0  0  0  0  0  0
    3.0224   -2.2489   -0.1151 O   0  0  0  0  0  0  0  0  0  0  0  0
    0.9047   -0.3531    1.1314 O   0  0  0  0  0  0  0  0  0  0  0  0
    2.5419    1.7057    0.9746 H   0  0  0  0  0  0  0  0  0  0  0  0
    1.1132    1.8952   -0.0523 H   0  0  0  0  0  0  0  0  0  0  0  0
    2.7104    1.6587   -0.7980 H   0  0  0  0  0  0  0  0  0  0  0  0
   -1.3785   -2.2306    2.6072 H   0  0  0  0  0  0  0  0  0  0  0  0
   -1.5257   -0.5409    2.0513 H   0  0  0  0  0  0  0  0  0  0  0  0
   -0.3005   -0.9788    3.2667 H   0  0  0  0  0  0  0  0  0  0  0  0
   -1.1222   -2.8900    0.1576 H   0  0  0  0  0  0  0  0  0  0  0  0
    0.2662   -2.3437   -0.7860 H   0  0  0  0  0  0  0  0  0  0  0  0
   -1.0781   -1.2225   -0.4603 H   0  0  0  0  0  0  0  0  0  0  0  0
    4.0327   -3.9970   -0.3206 H   0  0  0  0  0  0  0  0  0  0  0  0
    4.6024   -2.9842    1.0390 H   0  0  0  0  0  0  0  0  0  0  0  0
    5.0160   -2.5397   -0.6428 H   0  0  0  0  0  0  0  0  0  0  0  0
    3.4732   -0.7974    1.3119 H   0  0  0  0  0  0  0  0  0  0  0  0
    3.9318   -0.4156   -0.3727 H   0  0  0  0  0  0  0  0  0  0  0  0
    1.4054   -0.4517   -0.8922 H   0  0  0  0  0  0  0  0  0  0  0  0
    1.7039   -2.7930    1.0713 H   0  0  0  0  0  0  0  0  0  0  0  0
  1  6  1  0  0  0  0
  1 11  1  0  0  0  0
  2 14  1  0  0  0  0
  2 16  1  0  0  0  0
  3 17  1  0  0  0  0
  3  7  1  0  0  0  0
  4 21  1  0  0  0  0
  5 23  1  0  0  0  0
  6 25  1  6  0  0  0
  6  5  1  0  0  0  0
  6 10  1  0  0  0  0
  7  8  1  0  0  0  0
  7  2  1  0  0  0  0
  9  4  1  0  0  0  0
  9  5  1  0  0  0  0
 10  7  1  0  0  0  0
 12  1  1  0  0  0  0
 13  1  1  0  0  0  0
 15  2  1  0  0  0  0
 18  3  1  0  0  0  0
 19  3  1  0  0  0  0
 20  4  1  0  0  0  0
 22  4  1  0  0  0  0
 24  5  1  0  0  0  0
 26  8  1  0  0  0  0
M  END
>  <HBA>
3

>  <HBD>
1

>  <TPSA>
38.69

>  <cid>
41673

>  <dipole>
2.94

>  <excitation_energy_1>
6.552

>  <excitation_energy_2>
6.822

>  <excitation_energy_3>
6.857

>  <excitation_energy_4>
6.958

>  <homo_energy>
-6.738

>  <homo_lumo_gap>
8.846

>  <logP>
0.766

>  <lumo_energy>
2.109

>  <melting_point>
-15.49

>  <molecular_refractivity>
39.13

>  <oscillator_strength_1>
0.0093

>  <oscillator_strength_2>
0.0066

>  <oscillator_strength_3>
0.0204

>  <oscillator_strength_4>
0.0042

>  <open_babel_can_smiles>
COC[C@@H](OC(O)(C)C)C

>  <mulliken_charges>
26
1   -0.459366
2   -0.446159
3   -0.484028
4   -0.201185
5   -0.031097
6   0.129331
7   0.508428
8   -0.657951
9   -0.489033
10   -0.508121
11   0.155911
12   0.163017
13   0.139707
14   0.147007
15   0.141576
16   0.160038
17   0.154915
18   0.151541
19   0.144009
20   0.16705
21   0.148636
22   0.143083
23   0.147257
24   0.127094
25   0.131321
26   0.417018

>  <lowdin_charges>
26
1   -0.446946
2   -0.446379
3   -0.475047
4   -0.280148
5   -0.150108
6   -0.00409
7   0.211628
8   -0.469818
9   -0.276196
10   -0.276153
11   0.15635
12   0.162714
13   0.150707
14   0.156251
15   0.153705
16   0.163302
17   0.161557
18   0.154968
19   0.153766
20   0.158848
21   0.141095
22   0.141539
23   0.142383
24   0.138691
25   0.136858
26   0.340522

$$$$

