PCCDB-ID:  50406
public computational chemistry database (PCCDB) project, http://pccdb.org

 26 25  0  0  1  0  0  0  0  0999 V2000
    0.5179   -1.1019   -0.7406 C   0  0  0  0  0  0  0  0  0  0  0  0
    0.6570    1.5568   -2.4531 C   0  0  0  0  0  0  0  0  0  0  0  0
    1.0050    0.2707   -0.2646 C   0  0  0  0  0  0  0  0  0  0  0  0
    3.1290    3.0253   -1.4314 C   0  0  0  0  0  0  0  0  0  0  0  0
    3.8813    3.8816   -0.4167 C   0  0  0  0  0  0  0  0  0  0  0  0
    1.6418    1.1325   -1.3598 C   0  0  2  0  0  0  0  0  0  0  0  0
    5.9399    4.4444   -1.4548 C   0  0  0  0  0  0  0  0  0  0  0  0
    6.3697    3.2543   -1.3091 N   0  0  0  0  0  0  0  0  0  0  0  0
    6.5601    5.5264   -1.9966 O   0  0  0  0  0  0  0  0  0  0  0  0
    2.1914    2.2692   -0.6876 O   0  0  0  0  0  0  0  0  0  0  0  0
    4.7243    4.8487   -1.0689 O   0  0  0  0  0  0  0  0  0  0  0  0
    0.1437   -1.6910    0.1039 H   0  0  0  0  0  0  0  0  0  0  0  0
    1.3293   -1.6736   -1.2079 H   0  0  0  0  0  0  0  0  0  0  0  0
   -0.2963   -1.0216   -1.4691 H   0  0  0  0  0  0  0  0  0  0  0  0
    0.2345    0.6850   -2.9640 H   0  0  0  0  0  0  0  0  0  0  0  0
    1.1455    2.1759   -3.2129 H   0  0  0  0  0  0  0  0  0  0  0  0
   -0.1647    2.1356   -2.0158 H   0  0  0  0  0  0  0  0  0  0  0  0
    1.7550    0.1441    0.5251 H   0  0  0  0  0  0  0  0  0  0  0  0
    0.1747    0.8339    0.1818 H   0  0  0  0  0  0  0  0  0  0  0  0
    3.8336    2.3708   -1.9635 H   0  0  0  0  0  0  0  0  0  0  0  0
    2.6385    3.6797   -2.1680 H   0  0  0  0  0  0  0  0  0  0  0  0
    4.4785    3.2536    0.2473 H   0  0  0  0  0  0  0  0  0  0  0  0
    3.1731    4.4748    0.1658 H   0  0  0  0  0  0  0  0  0  0  0  0
    2.4687    0.5647   -1.8218 H   0  0  0  0  0  0  0  0  0  0  0  0
    7.3264    3.1408   -1.6412 H   0  0  0  0  0  0  0  0  0  0  0  0
    7.4417    5.2547   -2.2941 H   0  0  0  0  0  0  0  0  0  0  0  0
  1  3  1  0  0  0  0
  1 12  1  0  0  0  0
  2 17  1  0  0  0  0
  2  6  1  0  0  0  0
  3 19  1  0  0  0  0
  3 18  1  0  0  0  0
  4 10  1  0  0  0  0
  4  5  1  0  0  0  0
  5 23  1  0  0  0  0
  5 22  1  0  0  0  0
  6 24  1  6  0  0  0
  6 10  1  0  0  0  0
  6  3  1  0  0  0  0
  7  8  2  0  0  0  0
  7 11  1  0  0  0  0
  9  7  1  0  0  0  0
 11  5  1  0  0  0  0
 13  1  1  0  0  0  0
 14  1  1  0  0  0  0
 15  2  1  0  0  0  0
 16  2  1  0  0  0  0
 20  4  1  0  0  0  0
 21  4  1  0  0  0  0
 25  8  1  0  0  0  0
 26  9  1  0  0  0  0
M  END
>  <HBA>
4

>  <HBD>
1

>  <TPSA>
61.55

>  <cid>
50406

>  <dipole>
2.13

>  <excitation_energy_1>
5.88

>  <excitation_energy_2>
6.045

>  <excitation_energy_3>
6.471

>  <excitation_energy_4>
6.586

>  <homo_energy>
-6.773

>  <homo_lumo_gap>
7.973

>  <logP>
1.597

>  <lumo_energy>
1.2

>  <melting_point>
40.85

>  <molecular_refractivity>
41.23

>  <oscillator_strength_1>
0.005

>  <oscillator_strength_2>
0.0031

>  <oscillator_strength_3>
0.0463

>  <oscillator_strength_4>
0.0094

>  <open_babel_can_smiles>
C[C@@H](OCCOC(=N)O)CC

>  <mulliken_charges>
26
1   -0.455338
2   -0.465595
3   -0.260942
4   -0.031319
5   -0.049388
6   0.17066
7   0.642732
8   -0.626699
9   -0.566782
10   -0.499435
11   -0.44873
12   0.148361
13   0.14376
14   0.146755
15   0.146471
16   0.148514
17   0.151657
18   0.146191
19   0.139219
20   0.148964
21   0.130392
22   0.180841
23   0.16472
24   0.110173
25   0.276621
26   0.408198

>  <lowdin_charges>
26
1   -0.44934
2   -0.464244
3   -0.280673
4   -0.145858
5   -0.13357
6   0.006111
7   0.187099
8   -0.471581
9   -0.360623
10   -0.274353
11   -0.174526
12   0.154783
13   0.148387
14   0.148248
15   0.155075
16   0.15409
17   0.154976
18   0.151914
19   0.146969
20   0.144983
21   0.132439
22   0.166742
23   0.161274
24   0.124729
25   0.256087
26   0.360862

$$$$

