PCCDB-ID:  13651
public computational chemistry database (PCCDB) project, http://pccdb.org

 21 22  0  0  0  0  0  0  0  0999 V2000
   -1.4674   -0.0817    0.0865 C   0  0  0  0  0  0  0  0  0  0  0  0
   -0.8362    1.1579   -0.0324 C   0  0  0  0  0  0  0  0  0  0  0  0
   -0.6986   -1.2469    0.1107 C   0  0  0  0  0  0  0  0  0  0  0  0
    0.5526    1.2318   -0.1250 C   0  0  0  0  0  0  0  0  0  0  0  0
    0.6900   -1.1732    0.0150 C   0  0  0  0  0  0  0  0  0  0  0  0
    3.5610   -0.8135   -0.9076 C   0  0  0  0  0  0  0  0  0  0  0  0
    3.5438    1.1834    0.3997 C   0  0  0  0  0  0  0  0  0  0  0  0
    4.9480   -0.6944   -0.9703 C   0  0  0  0  0  0  0  0  0  0  0  0
    4.9314    1.2113    0.2744 C   0  0  0  0  0  0  0  0  0  0  0  0
    1.3384    0.0674   -0.1036 C   0  0  0  0  0  0  0  0  0  0  0  0
    2.8169    0.1459   -0.2040 C   0  0  0  0  0  0  0  0  0  0  0  0
    5.6430    0.2957   -0.3956 N   0  0  0  0  0  0  0  0  0  0  0  0
   -2.5499   -0.1394    0.1599 H   0  0  0  0  0  0  0  0  0  0  0  0
   -1.4263    2.0700   -0.0598 H   0  0  0  0  0  0  0  0  0  0  0  0
   -1.1801   -2.2160    0.2109 H   0  0  0  0  0  0  0  0  0  0  0  0
    1.0330    2.1991   -0.2421 H   0  0  0  0  0  0  0  0  0  0  0  0
    1.2812   -2.0835    0.0597 H   0  0  0  0  0  0  0  0  0  0  0  0
    3.0642   -1.6300   -1.4231 H   0  0  0  0  0  0  0  0  0  0  0  0
    3.0378    1.9466    0.9833 H   0  0  0  0  0  0  0  0  0  0  0  0
    5.5325   -1.4326   -1.5177 H   0  0  0  0  0  0  0  0  0  0  0  0
    5.5033    2.0107    0.7434 H   0  0  0  0  0  0  0  0  0  0  0  0
  1  3  1  0  0  0  0
  1 13  1  0  0  0  0
  2  1  2  0  0  0  0
  3 15  1  0  0  0  0
  4 10  2  0  0  0  0
  4  2  1  0  0  0  0
  5 17  1  0  0  0  0
  5  3  2  0  0  0  0
  6 11  1  0  0  0  0
  7 19  1  0  0  0  0
  8  6  2  0  0  0  0
  8 12  1  0  0  0  0
  9  7  1  0  0  0  0
  9 21  1  0  0  0  0
 10  5  1  0  0  0  0
 11 10  1  0  0  0  0
 11  7  2  0  0  0  0
 12  9  2  0  0  0  0
 14  2  1  0  0  0  0
 16  4  1  0  0  0  0
 18  6  1  0  0  0  0
 20  8  1  0  0  0  0
M  END
>  <HBA>
1

>  <HBD>
0

>  <TPSA>
12.89

>  <cid>
13651

>  <dipole>
2.76

>  <excitation_energy_1>
4.569

>  <excitation_energy_2>
4.885

>  <excitation_energy_3>
4.904

>  <excitation_energy_4>
5.022

>  <homo_energy>
-6.574

>  <homo_lumo_gap>
5.391

>  <logP>
2.749

>  <lumo_energy>
-1.184

>  <melting_point>
56.09

>  <molecular_refractivity>
49.67

>  <oscillator_strength_1>
0.0037

>  <oscillator_strength_2>
0.3951

>  <oscillator_strength_3>
0.0012

>  <oscillator_strength_4>
0.0223

>  <open_babel_can_smiles>
c1ccc(cc1)c1ccncc1

>  <mulliken_charges>
21
1   -0.124029
2   -0.133665
3   -0.133434
4   -0.171521
5   -0.17162
6   -0.181849
7   -0.181939
8   0.035703
9   0.03574
10   0.093712
11   0.105108
12   -0.408757
13   0.134437
14   0.135171
15   0.135114
16   0.136806
17   0.136821
18   0.138223
19   0.138194
20   0.140893
21   0.140891

>  <lowdin_charges>
21
1   -0.149431
2   -0.15341
3   -0.152659
4   -0.157202
5   -0.157929
6   -0.183331
7   -0.183588
8   -0.089626
9   -0.089377
10   -0.004611
11   0.023156
12   -0.151869
13   0.158293
14   0.160869
15   0.160295
16   0.161219
17   0.161778
18   0.16559
19   0.165796
20   0.158152
21   0.157886

$$$$

