PCCDB-ID:  69371
public computational chemistry database (PCCDB) project, http://pccdb.org

 13 13  0  0  0  0  0  0  0  0999 V2000
   -1.2103   -0.6968   -0.0215 C   0  0  0  0  0  0  0  0  0  0  0  0
   -0.0103   -1.3967    0.0652 C   0  0  0  0  0  0  0  0  0  0  0  0
   -1.2043    0.6949   -0.0509 C   0  0  0  0  0  0  0  0  0  0  0  0
    1.1710   -0.6399    0.1206 C   0  0  0  0  0  0  0  0  0  0  0  0
    0.0451    1.3323    0.0111 C   0  0  0  0  0  0  0  0  0  0  0  0
    1.2024    0.6872    0.0953 N   0  0  0  0  0  0  0  0  0  0  0  0
    2.3962   -1.2215    0.2053 O   0  0  0  0  0  0  0  0  0  0  0  0
    0.1658    2.6857   -0.0115 O   0  0  0  0  0  0  0  0  0  0  0  0
   -2.1520   -1.2369   -0.0671 H   0  0  0  0  0  0  0  0  0  0  0  0
    0.0118   -2.4825    0.0887 H   0  0  0  0  0  0  0  0  0  0  0  0
   -2.1272    1.2638   -0.1191 H   0  0  0  0  0  0  0  0  0  0  0  0
    2.2837   -2.1847    0.2209 H   0  0  0  0  0  0  0  0  0  0  0  0
   -0.7195    3.0769   -0.0722 H   0  0  0  0  0  0  0  0  0  0  0  0
  1  2  2  0  0  0  0
  2 10  1  0  0  0  0
  2  4  1  0  0  0  0
  3  1  1  0  0  0  0
  3  5  1  0  0  0  0
  4  7  1  0  0  0  0
  5  6  2  0  0  0  0
  6  4  2  0  0  0  0
  7 12  1  0  0  0  0
  8  5  1  0  0  0  0
  9  1  1  0  0  0  0
 11  3  1  0  0  0  0
 13  8  1  0  0  0  0
M  END
>  <HBA>
2

>  <HBD>
2

>  <TPSA>
53.09

>  <cid>
69371

>  <dipole>
4.21

>  <excitation_energy_1>
5.0

>  <excitation_energy_2>
5.269

>  <excitation_energy_3>
5.533

>  <excitation_energy_4>
5.607

>  <homo_energy>
-6.109

>  <homo_lumo_gap>
5.739

>  <logP>
0.081

>  <lumo_energy>
-0.37

>  <melting_point>
126.01

>  <molecular_refractivity>
29.09

>  <oscillator_strength_1>
0.0933

>  <oscillator_strength_2>
0.0

>  <oscillator_strength_3>
0.0028

>  <oscillator_strength_4>
0.0028

>  <open_babel_can_smiles>
OC1=[N]=C(C=CC1)O

>  <mulliken_charges>
13
1   -0.096765
2   -0.215554
3   -0.215458
4   0.500388
5   0.500223
6   -0.489227
7   -0.596369
8   -0.596358
9   0.143176
10   0.124446
11   0.124393
12   0.408548
13   0.408557

>  <lowdin_charges>
13
1   -0.110434
2   -0.251827
3   -0.255665
4   0.145579
5   0.149184
6   -0.167021
7   -0.349829
8   -0.353429
9   0.164693
10   0.156411
11   0.158826
12   0.356181
13   0.357333

$$$$

