PCCDB-ID:  17617
public computational chemistry database (PCCDB) project, http://pccdb.org

 34 34  0  0  0  0  0  0  0  0999 V2000
    6.0755    0.9067   -2.7522 C   0  0  0  0  0  0  0  0  0  0  0  0
    6.7557   -0.0785   -2.1669 C   0  0  0  0  0  0  0  0  0  0  0  0
    1.2636   -7.2444    0.1515 C   0  0  0  0  0  0  0  0  0  0  0  0
    2.7906   -7.0823    0.0951 C   0  0  0  0  0  0  0  0  0  0  0  0
    0.5504   -5.9015   -0.0704 C   0  0  0  0  0  0  0  0  0  0  0  0
    3.2777   -6.0081    1.0824 C   0  0  0  0  0  0  0  0  0  0  0  0
    1.0488   -4.8346    0.9189 C   0  0  0  0  0  0  0  0  0  0  0  0
    3.0314   -3.8917   -0.3921 C   0  0  0  0  0  0  0  0  0  0  0  0
    4.4931   -3.4362   -0.3572 C   0  0  0  0  0  0  0  0  0  0  0  0
    6.7154   -1.5063   -2.6274 C   0  0  0  0  0  0  0  0  0  0  0  0
    2.5822   -4.6408    0.8809 C   0  0  0  0  0  0  0  0  0  0  0  0
    4.8738   -2.5816   -1.5516 C   0  0  0  0  0  0  0  0  0  0  0  0
    4.1043   -2.1353   -2.3740 O   0  0  0  0  0  0  0  0  0  0  0  0
    6.2158   -2.3764   -1.5777 O   0  0  0  0  0  0  0  0  0  0  0  0
    6.1403    1.9336   -2.4027 H   0  0  0  0  0  0  0  0  0  0  0  0
    5.4236    0.7193   -3.6021 H   0  0  0  0  0  0  0  0  0  0  0  0
    7.3899    0.1254   -1.3045 H   0  0  0  0  0  0  0  0  0  0  0  0
    0.9813   -7.6428    1.1378 H   0  0  0  0  0  0  0  0  0  0  0  0
    0.9302   -7.9815   -0.5904 H   0  0  0  0  0  0  0  0  0  0  0  0
    3.0893   -6.8141   -0.9280 H   0  0  0  0  0  0  0  0  0  0  0  0
    3.2825   -8.0382    0.3166 H   0  0  0  0  0  0  0  0  0  0  0  0
   -0.5350   -6.0262    0.0342 H   0  0  0  0  0  0  0  0  0  0  0  0
    0.7224   -5.5639   -1.1019 H   0  0  0  0  0  0  0  0  0  0  0  0
    4.3683   -5.9026    1.0192 H   0  0  0  0  0  0  0  0  0  0  0  0
    3.0660   -6.3521    2.1053 H   0  0  0  0  0  0  0  0  0  0  0  0
    0.7618   -5.1396    1.9361 H   0  0  0  0  0  0  0  0  0  0  0  0
    0.5472   -3.8766    0.7286 H   0  0  0  0  0  0  0  0  0  0  0  0
    2.8719   -4.5040   -1.2873 H   0  0  0  0  0  0  0  0  0  0  0  0
    2.3988   -3.0062   -0.5258 H   0  0  0  0  0  0  0  0  0  0  0  0
    5.1919   -4.2792   -0.3109 H   0  0  0  0  0  0  0  0  0  0  0  0
    4.6928   -2.8399    0.5451 H   0  0  0  0  0  0  0  0  0  0  0  0
    7.7210   -1.8871   -2.8313 H   0  0  0  0  0  0  0  0  0  0  0  0
    6.0918   -1.6192   -3.5166 H   0  0  0  0  0  0  0  0  0  0  0  0
    2.8528   -4.0023    1.7360 H   0  0  0  0  0  0  0  0  0  0  0  0
  1 15  1  0  0  0  0
  1  2  2  0  0  0  0
  2 17  1  0  0  0  0
  3 18  1  0  0  0  0
  4  3  1  0  0  0  0
  4 21  1  0  0  0  0
  4  6  1  0  0  0  0
  5 22  1  0  0  0  0
  5  3  1  0  0  0  0
  5  7  1  0  0  0  0
  6 25  1  0  0  0  0
  7 26  1  0  0  0  0
  8  9  1  0  0  0  0
  8 11  1  0  0  0  0
  9 30  1  0  0  0  0
  9 31  1  0  0  0  0
 10  2  1  0  0  0  0
 10 14  1  0  0  0  0
 11  7  1  0  0  0  0
 11  6  1  0  0  0  0
 11 34  1  0  0  0  0
 12  9  1  0  0  0  0
 13 12  2  0  0  0  0
 14 12  1  0  0  0  0
 16  1  1  0  0  0  0
 19  3  1  0  0  0  0
 20  4  1  0  0  0  0
 23  5  1  0  0  0  0
 24  6  1  0  0  0  0
 27  7  1  0  0  0  0
 28  8  1  0  0  0  0
 29  8  1  0  0  0  0
 32 10  1  0  0  0  0
 33 10  1  0  0  0  0
M  END
>  <HBA>
2

>  <HBD>
0

>  <TPSA>
26.3

>  <cid>
17617

>  <dipole>
1.45

>  <excitation_energy_1>
5.823

>  <excitation_energy_2>
6.39

>  <excitation_energy_3>
6.762

>  <excitation_energy_4>
6.871

>  <homo_energy>
-7.116

>  <homo_lumo_gap>
7.263

>  <logP>
3.076

>  <lumo_energy>
0.147

>  <melting_point>
-16.13

>  <molecular_refractivity>
58.49

>  <oscillator_strength_1>
0.0007

>  <oscillator_strength_2>
0.0346

>  <oscillator_strength_3>
0.0649

>  <oscillator_strength_4>
0.0045

>  <open_babel_can_smiles>
C=CCOC(=O)CCC1CCCCC1

>  <mulliken_charges>
34
1   -0.318756
2   -0.065431
3   -0.253964
4   -0.260303
5   -0.261642
6   -0.269409
7   -0.265949
8   -0.257637
9   -0.370418
10   -0.096291
11   -0.077923
12   0.626226
13   -0.475633
14   -0.469212
15   0.146536
16   0.156462
17   0.137722
18   0.125541
19   0.12902
20   0.131343
21   0.129673
22   0.129841
23   0.135871
24   0.128302
25   0.127421
26   0.124914
27   0.129056
28   0.146392
29   0.152052
30   0.171288
31   0.170132
32   0.156694
33   0.175501
34   0.11258

>  <lowdin_charges>
34
1   -0.310419
2   -0.163982
3   -0.2782
4   -0.279425
5   -0.277087
6   -0.278981
7   -0.277954
8   -0.276933
9   -0.304337
10   -0.130169
11   -0.13037
12   0.20428
13   -0.265612
14   -0.203799
15   0.160965
16   0.165201
17   0.155965
18   0.13581
19   0.14358
20   0.137099
21   0.14332
22   0.141518
23   0.139295
24   0.137862
25   0.138862
26   0.137457
27   0.142159
28   0.147905
29   0.154834
30   0.166809
31   0.167923
32   0.156335
33   0.164092
34   0.135996

$$$$

