PCCDB-ID:  7585
public computational chemistry database (PCCDB) project, http://pccdb.org

 36 36  0  0  0  0  0  0  0  0999 V2000
    4.7220   -1.2768   -1.8798 C   0  0  0  0  0  0  0  0  0  0  0  0
    4.6036   -1.2750   -0.3508 C   0  0  0  0  0  0  0  0  0  0  0  0
    5.2603   -0.0671    0.3387 C   0  0  0  0  0  0  0  0  0  0  0  0
    4.6008    1.2819    0.0130 C   0  0  0  0  0  0  0  0  0  0  0  0
    6.4881    7.3289   -2.7558 C   0  0  0  0  0  0  0  0  0  0  0  0
    5.1367    2.4671    0.8335 C   0  0  0  0  0  0  0  0  0  0  0  0
    7.4027    7.8254   -1.8246 C   0  0  0  0  0  0  0  0  0  0  0  0
    5.7923    6.1504   -2.4772 C   0  0  0  0  0  0  0  0  0  0  0  0
    7.6195    7.1431   -0.6312 C   0  0  0  0  0  0  0  0  0  0  0  0
    6.0163    5.4614   -1.2874 C   0  0  0  0  0  0  0  0  0  0  0  0
    6.6168    2.8074    0.5498 C   0  0  0  0  0  0  0  0  0  0  0  0
    7.2459    5.2819    0.9329 C   0  0  0  0  0  0  0  0  0  0  0  0
    7.5435    3.7180    2.7258 C   0  0  0  0  0  0  0  0  0  0  0  0
    6.9472    5.9379   -0.3426 C   0  0  0  0  0  0  0  0  0  0  0  0
    7.1142    3.9935    1.3370 C   0  0  0  0  0  0  0  0  0  0  0  0
    7.5100    2.6214    3.2561 O   0  0  0  0  0  0  0  0  0  0  0  0
    4.2885   -2.1883   -2.3073 H   0  0  0  0  0  0  0  0  0  0  0  0
    5.7726   -1.2305   -2.1938 H   0  0  0  0  0  0  0  0  0  0  0  0
    4.2032   -0.4240   -2.3321 H   0  0  0  0  0  0  0  0  0  0  0  0
    5.0622   -2.1926    0.0415 H   0  0  0  0  0  0  0  0  0  0  0  0
    3.5423   -1.3202   -0.0666 H   0  0  0  0  0  0  0  0  0  0  0  0
    6.3249   -0.0403    0.0680 H   0  0  0  0  0  0  0  0  0  0  0  0
    5.2275   -0.2188    1.4268 H   0  0  0  0  0  0  0  0  0  0  0  0
    3.5194    1.1973    0.1943 H   0  0  0  0  0  0  0  0  0  0  0  0
    4.7124    1.5064   -1.0575 H   0  0  0  0  0  0  0  0  0  0  0  0
    6.3101    7.8617   -3.6858 H   0  0  0  0  0  0  0  0  0  0  0  0
    5.0298    2.2522    1.9042 H   0  0  0  0  0  0  0  0  0  0  0  0
    4.5164    3.3515    0.6329 H   0  0  0  0  0  0  0  0  0  0  0  0
    7.9420    8.7471   -2.0256 H   0  0  0  0  0  0  0  0  0  0  0  0
    5.0638    5.7688   -3.1874 H   0  0  0  0  0  0  0  0  0  0  0  0
    8.3293    7.5371    0.0924 H   0  0  0  0  0  0  0  0  0  0  0  0
    5.4401    4.5685   -1.0783 H   0  0  0  0  0  0  0  0  0  0  0  0
    6.7657    2.9710   -0.5233 H   0  0  0  0  0  0  0  0  0  0  0  0
    7.2312    1.9481    0.8387 H   0  0  0  0  0  0  0  0  0  0  0  0
    7.6872    5.9579    1.6686 H   0  0  0  0  0  0  0  0  0  0  0  0
    7.9174    4.6052    3.2853 H   0  0  0  0  0  0  0  0  0  0  0  0
  1  2  1  0  0  0  0
  2 21  1  0  0  0  0
  2 20  1  0  0  0  0
  2  3  1  0  0  0  0
  3 23  1  0  0  0  0
  4 24  1  0  0  0  0
  4  3  1  0  0  0  0
  4  6  1  0  0  0  0
  5  8  2  0  0  0  0
  5  7  1  0  0  0  0
  6 27  1  0  0  0  0
  7  9  2  0  0  0  0
  8 10  1  0  0  0  0
  9 14  1  0  0  0  0
  9 31  1  0  0  0  0
 10 32  1  0  0  0  0
 10 14  2  0  0  0  0
 11  6  1  0  0  0  0
 11 34  1  0  0  0  0
 11 15  1  0  0  0  0
 12 15  2  0  0  0  0
 12 35  1  0  0  0  0
 13 16  2  0  0  0  0
 13 36  1  0  0  0  0
 14 12  1  0  0  0  0
 15 13  1  0  0  0  0
 17  1  1  0  0  0  0
 18  1  1  0  0  0  0
 19  1  1  0  0  0  0
 22  3  1  0  0  0  0
 25  4  1  0  0  0  0
 26  5  1  0  0  0  0
 28  6  1  0  0  0  0
 29  7  1  0  0  0  0
 30  8  1  0  0  0  0
 33 11  1  0  0  0  0
M  END
>  <HBA>
1

>  <HBD>
0

>  <TPSA>
17.07

>  <cid>
7585

>  <dipole>
3.72

>  <excitation_energy_1>
3.547

>  <excitation_energy_2>
4.297

>  <excitation_energy_3>
4.488

>  <excitation_energy_4>
5.4

>  <homo_energy>
-6.387

>  <homo_lumo_gap>
4.504

>  <logP>
4.239

>  <lumo_energy>
-1.883

>  <melting_point>
57.33

>  <molecular_refractivity>
70.38

>  <oscillator_strength_1>
0.0017

>  <oscillator_strength_2>
0.6502

>  <oscillator_strength_3>
0.0083

>  <oscillator_strength_4>
0.0583

>  <open_babel_can_smiles>
CCCCCC/C(=C\c1ccccc1)/C=O

>  <mulliken_charges>
36
1   -0.443242
2   -0.249866
3   -0.251904
4   -0.257299
5   -0.123903
6   -0.267765
7   -0.130439
8   -0.135049
9   -0.18105
10   -0.179417
11   -0.3495
12   -0.260637
13   0.205278
14   0.170081
15   0.127657
16   -0.425185
17   0.141751
18   0.140388
19   0.143786
20   0.132232
21   0.128731
22   0.133424
23   0.137936
24   0.129056
25   0.128041
26   0.137542
27   0.155188
28   0.131744
29   0.137519
30   0.137726
31   0.135761
32   0.151788
33   0.141763
34   0.170229
35   0.138094
36   0.09954

>  <lowdin_charges>
36
1   -0.447838
2   -0.271154
3   -0.274169
4   -0.273663
5   -0.146902
6   -0.273255
7   -0.153464
8   -0.154275
9   -0.151524
10   -0.153421
11   -0.280839
12   -0.135483
13   0.034257
14   -0.007839
15   -0.043244
16   -0.239368
17   0.149931
18   0.144404
19   0.146757
20   0.142818
21   0.136349
22   0.138069
23   0.143317
24   0.13959
25   0.134565
26   0.16178
27   0.150757
28   0.139001
29   0.161684
30   0.162648
31   0.160883
32   0.168534
33   0.148067
34   0.16624
35   0.160205
36   0.116583

$$$$

