PCCDB-ID:  15486
public computational chemistry database (PCCDB) project, http://pccdb.org

 17 16  0  0  0  0  0  0  0  0999 V2000
    0.6946    1.0429    3.0095 C   0  0  0  0  0  0  0  0  0  0  0  0
    2.8315    0.3284   -0.6980 C   0  0  0  0  0  0  0  0  0  0  0  0
    2.6996    0.2887    1.8315 C   0  0  0  0  0  0  0  0  0  0  0  0
    1.7023    0.9148   -0.9011 N   0  0  0  0  0  0  0  0  0  0  0  0
    3.7528   -0.0549   -1.6802 N   0  0  0  0  0  0  0  0  0  0  0  0
    3.4807    0.1120    2.8403 N   0  0  0  0  0  0  0  0  0  0  0  0
    1.3767    0.6294    1.8032 N   0  0  0  0  0  0  0  0  0  0  0  0
    3.2964    0.0482    0.5720 N   0  0  0  0  0  0  0  0  0  0  0  0
   -0.3302    1.3192    2.7509 H   0  0  0  0  0  0  0  0  0  0  0  0
    1.1749    1.9056    3.4970 H   0  0  0  0  0  0  0  0  0  0  0  0
    0.6480    0.2235    3.7385 H   0  0  0  0  0  0  0  0  0  0  0  0
    1.4812    0.9718   -1.8939 H   0  0  0  0  0  0  0  0  0  0  0  0
    3.3848   -0.0177   -2.6224 H   0  0  0  0  0  0  0  0  0  0  0  0
    4.2309   -0.9315   -1.5015 H   0  0  0  0  0  0  0  0  0  0  0  0
    2.9944    0.2902    3.7178 H   0  0  0  0  0  0  0  0  0  0  0  0
    1.0288    0.9339    0.8929 H   0  0  0  0  0  0  0  0  0  0  0  0
    4.2855   -0.1343    0.6789 H   0  0  0  0  0  0  0  0  0  0  0  0
  1 10  1  0  0  0  0
  1 11  1  0  0  0  0
  2  8  1  0  0  0  0
  3  6  2  0  0  0  0
  4  2  1  0  0  0  0
  5 14  1  0  0  0  0
  5  2  2  0  0  0  0
  6 15  1  0  0  0  0
  7  3  1  0  0  0  0
  7  1  1  0  0  0  0
  8 17  1  0  0  0  0
  8  3  1  0  0  0  0
  9  1  1  0  0  0  0
 12  4  1  0  0  0  0
 13  5  1  0  0  0  0
 16  7  1  0  0  0  0
M  RAD  1   4   2
M  END
>  <HBA>
5

>  <HBD>
3

>  <TPSA>
102.78

>  <cid>
15486

>  <dipole>
3.14

>  <excitation_energy_1>
4.926

>  <excitation_energy_2>
5.471

>  <excitation_energy_3>
5.656

>  <excitation_energy_4>
5.835

>  <homo_energy>
-5.616

>  <homo_lumo_gap>
6.452

>  <logP>
0.305

>  <lumo_energy>
0.835

>  <melting_point>
173.9

>  <molecular_refractivity>
32.03

>  <oscillator_strength_1>
0.0015

>  <oscillator_strength_2>
0.0221

>  <oscillator_strength_3>
0.0013

>  <oscillator_strength_4>
0.0871

>  <open_babel_can_smiles>
CNC(=N)NC(=[NH2])[NH]

>  <mulliken_charges>
17
1   -0.312501
2   0.661437
3   0.647136
4   -0.689396
5   -0.757284
6   -0.687833
7   -0.606565
8   -0.662365
9   0.159856
10   0.154048
11   0.15942
12   0.277948
13   0.325849
14   0.329633
15   0.278982
16   0.377382
17   0.34425

>  <lowdin_charges>
17
1   -0.353477
2   0.145929
3   0.141151
4   -0.487549
5   -0.49844
6   -0.500819
7   -0.310868
8   -0.256346
9   0.160612
10   0.143503
11   0.150273
12   0.252784
13   0.279222
14   0.282299
15   0.253221
16   0.301737
17   0.296768

$$$$

