PCCDB-ID:  23819
public computational chemistry database (PCCDB) project, http://pccdb.org

 34 33  0  0  0  0  0  0  0  0999 V2000
    1.5418    0.5918   -0.6667 C   0  0  0  0  0  0  0  0  0  0  0  0
    0.6934    1.6683    0.0423 C   0  0  0  0  0  0  0  0  0  0  0  0
    2.8710    0.2517    0.0277 C   0  0  0  0  0  0  0  0  0  0  0  0
    0.2729    1.3912    1.4999 C   0  0  0  0  0  0  0  0  0  0  0  0
    3.5270   -1.0008   -0.5707 C   0  0  0  0  0  0  0  0  0  0  0  0
   -0.7828    0.2976    1.7384 C   0  0  0  0  0  0  0  0  0  0  0  0
    4.8964   -2.4643    0.9273 C   0  0  0  0  0  0  0  0  0  0  0  0
    0.6143   -1.7527    1.8294 C   0  0  0  0  0  0  0  0  0  0  0  0
    3.8982   -3.2258    1.2369 N   0  0  0  0  0  0  0  0  0  0  0  0
    6.2254   -2.6592    1.3427 N   0  0  0  0  0  0  0  0  0  0  0  0
    1.2819   -1.2587    2.8129 N   0  0  0  0  0  0  0  0  0  0  0  0
    0.8194   -3.0054    1.2367 N   0  0  0  0  0  0  0  0  0  0  0  0
    4.7716   -1.3771    0.0980 N   0  0  0  0  0  0  0  0  0  0  0  0
   -0.4141   -1.0255    1.2349 N   0  0  0  0  0  0  0  0  0  0  0  0
    1.7476    0.9370   -1.6915 H   0  0  0  0  0  0  0  0  0  0  0  0
    0.9447   -0.3213   -0.7611 H   0  0  0  0  0  0  0  0  0  0  0  0
   -0.2060    1.8525   -0.5645 H   0  0  0  0  0  0  0  0  0  0  0  0
    1.2556    2.6140    0.0349 H   0  0  0  0  0  0  0  0  0  0  0  0
    2.7048    0.0598    1.0916 H   0  0  0  0  0  0  0  0  0  0  0  0
    3.5654    1.1019   -0.0444 H   0  0  0  0  0  0  0  0  0  0  0  0
   -0.1540    2.3186    1.9085 H   0  0  0  0  0  0  0  0  0  0  0  0
    1.1448    1.1585    2.1156 H   0  0  0  0  0  0  0  0  0  0  0  0
    3.7434   -0.8506   -1.6370 H   0  0  0  0  0  0  0  0  0  0  0  0
    2.8435   -1.8500   -0.4963 H   0  0  0  0  0  0  0  0  0  0  0  0
   -1.7124    0.5703    1.2232 H   0  0  0  0  0  0  0  0  0  0  0  0
   -0.9962    0.2603    2.8168 H   0  0  0  0  0  0  0  0  0  0  0  0
    4.1889   -3.9316    1.9135 H   0  0  0  0  0  0  0  0  0  0  0  0
    6.3176   -3.3300    2.0957 H   0  0  0  0  0  0  0  0  0  0  0  0
    6.7176   -1.8001    1.5663 H   0  0  0  0  0  0  0  0  0  0  0  0
    2.0622   -1.8779    3.0396 H   0  0  0  0  0  0  0  0  0  0  0  0
    1.8069   -3.2782    1.2743 H   0  0  0  0  0  0  0  0  0  0  0  0
    0.4959   -3.0423    0.2745 H   0  0  0  0  0  0  0  0  0  0  0  0
    5.6295   -1.0706   -0.3374 H   0  0  0  0  0  0  0  0  0  0  0  0
   -1.1942   -1.5940    0.9294 H   0  0  0  0  0  0  0  0  0  0  0  0
  1  3  1  0  0  0  0
  1  2  1  0  0  0  0
  2  4  1  0  0  0  0
  3 19  1  0  0  0  0
  4  6  1  0  0  0  0
  4 21  1  0  0  0  0
  4 22  1  0  0  0  0
  5 24  1  0  0  0  0
  5  3  1  0  0  0  0
  5 13  1  0  0  0  0
  6 26  1  0  0  0  0
  7  9  1  0  0  0  0
  7 10  2  0  0  0  0
  8 11  2  0  0  0  0
  9 27  1  0  0  0  0
 10 29  1  0  0  0  0
 10 28  1  0  0  0  0
 11 30  1  0  0  0  0
 12 31  1  0  0  0  0
 12  8  1  0  0  0  0
 13  7  1  0  0  0  0
 14  6  1  0  0  0  0
 14  8  1  0  0  0  0
 15  1  1  0  0  0  0
 16  1  1  0  0  0  0
 17  2  1  0  0  0  0
 18  2  1  0  0  0  0
 20  3  1  0  0  0  0
 23  5  1  0  0  0  0
 25  6  1  0  0  0  0
 32 12  1  0  0  0  0
 33 13  1  0  0  0  0
 34 14  1  0  0  0  0
M  RAD  1   9   2
M  END
>  <HBA>
6

>  <HBD>
4

>  <TPSA>
128.8

>  <cid>
23819

>  <dipole>
3.53

>  <excitation_energy_1>
4.89

>  <excitation_energy_2>
5.149

>  <excitation_energy_3>
5.162

>  <excitation_energy_4>
5.548

>  <homo_energy>
-5.502

>  <homo_lumo_gap>
6.724

>  <logP>
1.895

>  <lumo_energy>
1.222

>  <melting_point>
224.83

>  <molecular_refractivity>
58.77

>  <oscillator_strength_1>
0.001

>  <oscillator_strength_2>
0.0059

>  <oscillator_strength_3>
0.0019

>  <oscillator_strength_4>
0.0059

>  <open_babel_can_smiles>
NC(=N)NCCCCCCNC(=[NH2])[NH]

>  <mulliken_charges>
34
1   -0.251329
2   -0.253789
3   -0.260195
4   -0.268392
5   -0.132596
6   -0.103692
7   0.624411
8   0.587503
9   -0.682671
10   -0.758769
11   -0.664227
12   -0.790717
13   -0.6014
14   -0.604774
15   0.11266
16   0.141005
17   0.116373
18   0.121922
19   0.181155
20   0.112475
21   0.119241
22   0.183047
23   0.131068
24   0.171285
25   0.119146
26   0.149183
27   0.274125
28   0.322686
29   0.323451
30   0.271373
31   0.375239
32   0.300609
33   0.321931
34   0.312662

>  <lowdin_charges>
34
1   -0.281074
2   -0.273078
3   -0.291438
4   -0.290187
5   -0.193967
6   -0.188589
7   0.144559
8   0.128649
9   -0.505664
10   -0.51113
11   -0.493587
12   -0.522214
13   -0.291559
14   -0.317599
15   0.130977
16   0.144229
17   0.135322
18   0.137301
19   0.162988
20   0.132228
21   0.142028
22   0.165351
23   0.137089
24   0.162545
25   0.137635
26   0.142947
27   0.251414
28   0.277772
29   0.278693
30   0.249216
31   0.284835
32   0.262394
33   0.278913
34   0.272998

$$$$

