PCCDB-ID:  20024
public computational chemistry database (PCCDB) project, http://pccdb.org

 13 12  0  0  0  0  0  0  0  0999 V2000
    0.8525    0.1012   -0.0675 C   0  0  0  0  0  0  0  0  0  0  0  0
    2.3530    0.1385   -0.0353 C   0  0  0  0  0  0  0  0  0  0  0  0
    3.1531   -0.9256    0.0820 C   0  0  0  0  0  0  0  0  0  0  0  0
    4.6535   -0.8590    0.1205 C   0  0  0  0  0  0  0  0  0  0  0  0
    5.1913   -1.4330    1.3136 O   0  0  0  0  0  0  0  0  0  0  0  0
    0.4657    0.5169   -1.0078 H   0  0  0  0  0  0  0  0  0  0  0  0
    0.4229    0.7073    0.7416 H   0  0  0  0  0  0  0  0  0  0  0  0
    0.4727   -0.9209    0.0332 H   0  0  0  0  0  0  0  0  0  0  0  0
    2.8098    1.1267   -0.1252 H   0  0  0  0  0  0  0  0  0  0  0  0
    2.7225   -1.9231    0.1827 H   0  0  0  0  0  0  0  0  0  0  0  0
    4.9890    0.1827   -0.0121 H   0  0  0  0  0  0  0  0  0  0  0  0
    5.0909   -1.4488   -0.6939 H   0  0  0  0  0  0  0  0  0  0  0  0
    4.7739   -0.9708    2.0578 H   0  0  0  0  0  0  0  0  0  0  0  0
  1  2  1  0  0  0  0
  1  8  1  0  0  0  0
  1  7  1  0  0  0  0
  2  3  2  0  0  0  0
  3  4  1  0  0  0  0
  3 10  1  0  0  0  0
  4  5  1  0  0  0  0
  5 13  1  0  0  0  0
  6  1  1  0  0  0  0
  9  2  1  0  0  0  0
 11  4  1  0  0  0  0
 12  4  1  0  0  0  0
M  END
>  <HBA>
1

>  <HBD>
1

>  <TPSA>
20.23

>  <cid>
20024

>  <dipole>
2.04

>  <excitation_energy_1>
6.296

>  <excitation_energy_2>
6.455

>  <excitation_energy_3>
6.759

>  <excitation_energy_4>
6.859

>  <homo_energy>
-6.738

>  <homo_lumo_gap>
7.146

>  <logP>
0.555

>  <lumo_energy>
0.408

>  <melting_point>
3.17

>  <molecular_refractivity>
22.03

>  <oscillator_strength_1>
0.0984

>  <oscillator_strength_2>
0.012

>  <oscillator_strength_3>
0.0518

>  <oscillator_strength_4>
0.0674

>  <open_babel_can_smiles>
C/C=C/CO

>  <mulliken_charges>
13
1   -0.486932
2   -0.089464
3   -0.125234
4   -0.068704
5   -0.612323
6   0.158993
7   0.156744
8   0.156406
9   0.123112
10   0.128761
11   0.123013
12   0.151578
13   0.384049

>  <lowdin_charges>
13
1   -0.440046
2   -0.156587
3   -0.195419
4   -0.130378
5   -0.470768
6   0.159522
7   0.159019
8   0.155944
9   0.146798
10   0.151687
11   0.127192
12   0.152576
13   0.340461

$$$$

