PCCDB-ID:  10400
public computational chemistry database (PCCDB) project, http://pccdb.org

 20 20  0  0  0  0  0  0  0  0999 V2000
   -1.5500    0.7557    0.1060 C   0  0  0  0  0  0  0  0  0  0  0  0
   -0.3192    1.5626   -0.3417 C   0  0  0  0  0  0  0  0  0  0  0  0
   -1.5141   -0.7526   -0.1772 C   0  0  0  0  0  0  0  0  0  0  0  0
    0.9794    1.2287    0.4180 C   0  0  0  0  0  0  0  0  0  0  0  0
   -0.3248   -1.5154    0.4562 C   0  0  0  0  0  0  0  0  0  0  0  0
    1.7481    0.0063   -0.1097 C   0  0  0  0  0  0  0  0  0  0  0  0
    0.9641   -1.2887   -0.3214 C   0  0  0  0  0  0  0  0  0  0  0  0
    1.3649   -2.1212   -1.1150 O   0  0  0  0  0  0  0  0  0  0  0  0
   -2.4419    1.1740   -0.3794 H   0  0  0  0  0  0  0  0  0  0  0  0
   -1.6924    0.9099    1.1862 H   0  0  0  0  0  0  0  0  0  0  0  0
   -0.5456    2.6268   -0.1964 H   0  0  0  0  0  0  0  0  0  0  0  0
   -0.1582    1.4328   -1.4223 H   0  0  0  0  0  0  0  0  0  0  0  0
   -1.5097   -0.9335   -1.2608 H   0  0  0  0  0  0  0  0  0  0  0  0
   -2.4422   -1.1981    0.2022 H   0  0  0  0  0  0  0  0  0  0  0  0
    0.7491    1.1020    1.4850 H   0  0  0  0  0  0  0  0  0  0  0  0
    1.6595    2.0878    0.3622 H   0  0  0  0  0  0  0  0  0  0  0  0
   -0.5228   -2.5910    0.4300 H   0  0  0  0  0  0  0  0  0  0  0  0
   -0.2076   -1.2096    1.5050 H   0  0  0  0  0  0  0  0  0  0  0  0
    2.5667   -0.2390    0.5842 H   0  0  0  0  0  0  0  0  0  0  0  0
    2.2302    0.2335   -1.0678 H   0  0  0  0  0  0  0  0  0  0  0  0
  1 10  1  0  0  0  0
  2 11  1  0  0  0  0
  2  1  1  0  0  0  0
  2  4  1  0  0  0  0
  3  1  1  0  0  0  0
  3 14  1  0  0  0  0
  3  5  1  0  0  0  0
  4 15  1  0  0  0  0
  5 18  1  0  0  0  0
  6  4  1  0  0  0  0
  6 19  1  0  0  0  0
  7  6  1  0  0  0  0
  7  5  1  0  0  0  0
  8  7  2  0  0  0  0
  9  1  1  0  0  0  0
 12  2  1  0  0  0  0
 13  3  1  0  0  0  0
 16  4  1  0  0  0  0
 17  5  1  0  0  0  0
 20  6  1  0  0  0  0
M  END
>  <HBA>
1

>  <HBD>
0

>  <TPSA>
17.07

>  <cid>
10400

>  <dipole>
2.97

>  <excitation_energy_1>
4.235

>  <excitation_energy_2>
6.051

>  <excitation_energy_3>
6.448

>  <excitation_energy_4>
6.492

>  <homo_energy>
-6.389

>  <homo_lumo_gap>
6.093

>  <logP>
1.91

>  <lumo_energy>
-0.297

>  <melting_point>
16.74

>  <molecular_refractivity>
33.85

>  <oscillator_strength_1>
0.0001

>  <oscillator_strength_2>
0.0094

>  <oscillator_strength_3>
0.005

>  <oscillator_strength_4>
0.0114

>  <open_babel_can_smiles>
O=C1CCCCCC1

>  <mulliken_charges>
20
1   -0.258592
2   -0.259713
3   -0.271576
4   -0.269047
5   -0.33771
6   -0.353151
7   0.44852
8   -0.448939
9   0.136532
10   0.130533
11   0.136586
12   0.136617
13   0.150695
14   0.144988
15   0.134481
16   0.142658
17   0.162533
18   0.140902
19   0.165706
20   0.167976

>  <lowdin_charges>
20
1   -0.276779
2   -0.27792
3   -0.269679
4   -0.281124
5   -0.306741
6   -0.312944
7   0.160752
8   -0.242885
9   0.14752
10   0.136414
11   0.146099
12   0.140371
13   0.146219
14   0.151611
15   0.138864
16   0.152163
17   0.163528
18   0.149155
19   0.170027
20   0.16535

$$$$

