PCCDB-ID:  7247
public computational chemistry database (PCCDB) project, http://pccdb.org

 21 21  0  0  0  0  0  0  0  0999 V2000
    0.8806    0.0035    0.2021 C   0  0  0  0  0  0  0  0  0  0  0  0
    6.7037   -0.0662   -0.4458 C   0  0  0  0  0  0  0  0  0  0  0  0
    5.1700   -2.6010   -0.3553 C   0  0  0  0  0  0  0  0  0  0  0  0
    3.1194    1.1785   -0.0155 C   0  0  0  0  0  0  0  0  0  0  0  0
    4.5069    1.1456   -0.1673 C   0  0  0  0  0  0  0  0  0  0  0  0
    3.0820   -1.2156   -0.0834 C   0  0  0  0  0  0  0  0  0  0  0  0
    2.3823   -0.0061    0.0297 C   0  0  0  0  0  0  0  0  0  0  0  0
    5.2023   -0.0607   -0.2788 C   0  0  0  0  0  0  0  0  0  0  0  0
    4.4695   -1.2675   -0.2354 C   0  0  0  0  0  0  0  0  0  0  0  0
    0.4847    1.0241    0.1902 H   0  0  0  0  0  0  0  0  0  0  0  0
    0.5820   -0.4563    1.1531 H   0  0  0  0  0  0  0  0  0  0  0  0
    0.3797   -0.5585   -0.5958 H   0  0  0  0  0  0  0  0  0  0  0  0
    7.1026    0.9528   -0.4540 H   0  0  0  0  0  0  0  0  0  0  0  0
    7.0087   -0.5502   -1.3832 H   0  0  0  0  0  0  0  0  0  0  0  0
    7.2036   -0.6126    0.3650 H   0  0  0  0  0  0  0  0  0  0  0  0
    4.4595   -3.4297   -0.2775 H   0  0  0  0  0  0  0  0  0  0  0  0
    5.9267   -2.7356    0.4286 H   0  0  0  0  0  0  0  0  0  0  0  0
    5.6940   -2.7002   -1.3153 H   0  0  0  0  0  0  0  0  0  0  0  0
    2.6092    2.1356    0.0680 H   0  0  0  0  0  0  0  0  0  0  0  0
    5.0621    2.0807   -0.2010 H   0  0  0  0  0  0  0  0  0  0  0  0
    2.5253   -2.1513   -0.0522 H   0  0  0  0  0  0  0  0  0  0  0  0
  1 11  1  0  0  0  0
  2  8  1  0  0  0  0
  2 15  1  0  0  0  0
  3 16  1  0  0  0  0
  3  9  1  0  0  0  0
  3 17  1  0  0  0  0
  4  7  1  0  0  0  0
  4 19  1  0  0  0  0
  5  4  2  0  0  0  0
  6 21  1  0  0  0  0
  6  7  2  0  0  0  0
  7  1  1  0  0  0  0
  8  9  2  0  0  0  0
  8  5  1  0  0  0  0
  9  6  1  0  0  0  0
 10  1  1  0  0  0  0
 12  1  1  0  0  0  0
 13  2  1  0  0  0  0
 14  2  1  0  0  0  0
 18  3  1  0  0  0  0
 20  5  1  0  0  0  0
M  END
>  <HBA>
0

>  <HBD>
0

>  <TPSA>
0.0

>  <cid>
7247

>  <dipole>
0.35

>  <excitation_energy_1>
5.135

>  <excitation_energy_2>
5.731

>  <excitation_energy_3>
5.751

>  <excitation_energy_4>
6.008

>  <homo_energy>
-6.036

>  <homo_lumo_gap>
6.321

>  <logP>
2.612

>  <lumo_energy>
0.286

>  <melting_point>
16.83

>  <molecular_refractivity>
41.34

>  <oscillator_strength_1>
0.0069

>  <oscillator_strength_2>
0.0289

>  <oscillator_strength_3>
0.0018

>  <oscillator_strength_4>
0.001

>  <open_babel_can_smiles>
Cc1ccc(c(c1)C)C

>  <mulliken_charges>
21
1   -0.53068
2   -0.532254
3   -0.532372
4   -0.185411
5   -0.18354
6   -0.241216
7   0.1871
8   0.129645
9   0.137601
10   0.152626
11   0.160291
12   0.158427
13   0.153128
14   0.157034
15   0.15695
16   0.153291
17   0.157442
18   0.15799
19   0.116191
20   0.117083
21   0.110676

>  <lowdin_charges>
21
1   -0.442745
2   -0.442145
3   -0.442096
4   -0.174677
5   -0.167085
6   -0.177895
7   -0.002233
8   -0.013014
9   -0.006667
10   0.15465
11   0.159103
12   0.159473
13   0.15546
14   0.156946
15   0.157737
16   0.156596
17   0.157856
18   0.157328
19   0.152024
20   0.152077
21   0.149307

$$$$

