PCCDB-ID:  12852
public computational chemistry database (PCCDB) project, http://pccdb.org

 28 30  0  0  1  0  0  0  0  0999 V2000
   -0.4101   -1.2981    0.6670 C   0  0  0  0  0  0  0  0  0  0  0  0
    0.8134   -0.5637    1.2420 C   0  0  0  0  0  0  0  0  0  0  0  0
   -1.2030   -0.1875   -0.0509 C   0  0  0  0  0  0  0  0  0  0  0  0
    1.2119    0.3783    0.0957 C   0  0  0  0  0  0  0  0  0  0  0  0
    0.5185   -1.6420   -4.0544 C   0  0  0  0  0  0  0  0  0  0  0  0
   -0.2565    2.3576   -2.5416 C   0  0  0  0  0  0  0  0  0  0  0  0
   -0.1412    0.8787   -0.4761 C   0  0  0  0  0  0  0  0  0  0  0  0
    0.0777    0.9843   -4.1162 C   0  0  0  0  0  0  0  0  0  0  0  0
    0.2781    0.2725   -5.3174 C   0  0  2  0  0  0  0  0  0  0  0  0
    0.1239    0.2288   -2.9383 C   0  0  0  0  0  0  0  0  0  0  0  0
    0.2298    0.8777   -6.5318 N   0  0  0  0  0  0  0  0  0  0  0  0
    0.5036   -1.0522   -5.2610 N   0  0  0  0  0  0  0  0  0  0  0  0
    0.3412   -1.0935   -2.8490 N   0  0  0  0  0  0  0  0  0  0  0  0
   -0.1608    2.3202   -3.8495 N   0  0  0  0  0  0  0  0  0  0  0  0
   -0.0973    1.1350   -1.9187 N   0  0  0  0  0  0  0  0  0  0  0  0
   -1.0020   -1.8172    1.4281 H   0  0  0  0  0  0  0  0  0  0  0  0
   -0.0751   -2.0371   -0.0690 H   0  0  0  0  0  0  0  0  0  0  0  0
    1.6254   -1.2368    1.5368 H   0  0  0  0  0  0  0  0  0  0  0  0
    0.5280    0.0137    2.1326 H   0  0  0  0  0  0  0  0  0  0  0  0
   -1.9205    0.2787    0.6343 H   0  0  0  0  0  0  0  0  0  0  0  0
   -1.7668   -0.5584   -0.9101 H   0  0  0  0  0  0  0  0  0  0  0  0
    1.7310   -0.1945   -0.6797 H   0  0  0  0  0  0  0  0  0  0  0  0
    1.8625    1.2058    0.3974 H   0  0  0  0  0  0  0  0  0  0  0  0
    0.7036   -2.7144   -4.0652 H   0  0  0  0  0  0  0  0  0  0  0  0
   -0.4433    3.2510   -1.9583 H   0  0  0  0  0  0  0  0  0  0  0  0
   -0.3982    1.8459   -0.0327 H   0  0  0  0  0  0  0  0  0  0  0  0
    0.2386    1.8857   -6.5758 H   0  0  0  0  0  0  0  0  0  0  0  0
    0.5420    0.3518   -7.3347 H   0  0  0  0  0  0  0  0  0  0  0  0
  1  2  1  0  0  0  0
  1 16  1  0  0  0  0
  2 18  1  0  0  0  0
  2 19  1  0  0  0  0
  3 20  1  0  0  0  0
  3  1  1  0  0  0  0
  4 23  1  0  0  0  0
  4  2  1  0  0  0  0
  5 13  1  0  0  0  0
  6 25  1  0  0  0  0
  6 15  1  0  0  0  0
  7  3  1  0  0  0  0
  7 26  1  0  0  0  0
  7  4  1  0  0  0  0
  8 14  1  0  0  0  0
  8 10  2  0  0  0  0
  9 11  1  6  0  0  0
  9 12  1  0  0  0  0
  9  8  1  0  0  0  0
 10 13  1  0  0  0  0
 10 15  1  0  0  0  0
 12  5  2  0  0  0  0
 14  6  2  0  0  0  0
 15  7  1  0  0  0  0
 17  1  1  0  0  0  0
 21  3  1  0  0  0  0
 22  4  1  0  0  0  0
 24  5  1  0  0  0  0
 27 11  1  0  0  0  0
 28 11  1  0  0  0  0
M  RAD  2   9   2  13   2
M  END
>  <HBA>
5

>  <HBD>
1

>  <TPSA>
69.62

>  <cid>
12852

>  <dipole>
2.26

>  <excitation_energy_1>
4.955

>  <excitation_energy_2>
4.986

>  <excitation_energy_3>
5.195

>  <excitation_energy_4>
5.386

>  <homo_energy>
-5.818

>  <homo_lumo_gap>
5.445

>  <logP>
2.105

>  <lumo_energy>
-0.373

>  <melting_point>
167.41

>  <molecular_refractivity>
58.1

>  <oscillator_strength_1>
0.1674

>  <oscillator_strength_2>
0.0474

>  <oscillator_strength_3>
0.0375

>  <oscillator_strength_4>
0.0081

>  <open_babel_can_smiles>
N[C]1N=C[N]c2c1ncn2C1CCCC1

>  <mulliken_charges>
28
1   -0.273948
2   -0.274183
3   -0.279183
4   -0.281356
5   0.159555
6   0.212683
7   0.025139
8   0.18743
9   0.488829
10   0.515726
11   -0.778132
12   -0.510646
13   -0.511045
14   -0.531022
15   -0.488096
16   0.134181
17   0.169239
18   0.143019
19   0.131047
20   0.139134
21   0.166135
22   0.176212
23   0.138652
24   0.14191
25   0.159127
26   0.142601
27   0.353961
28   0.343031

>  <lowdin_charges>
28
1   -0.284854
2   -0.280737
3   -0.290771
4   -0.292077
5   -0.036367
6   -0.070847
7   -0.051758
8   -0.060537
9   0.118395
10   0.054172
11   -0.441044
12   -0.222769
13   -0.212182
14   -0.197754
15   -0.018271
16   0.146948
17   0.158977
18   0.151177
19   0.138586
20   0.147966
21   0.163438
22   0.165454
23   0.148719
24   0.153927
25   0.168763
26   0.151203
27   0.2971
28   0.295143

$$$$

