PCCDB-ID:  7045
public computational chemistry database (PCCDB) project, http://pccdb.org

 16 17  0  0  0  0  0  0  0  0999 V2000
   -2.3580   -0.7502   -0.0146 C   0  0  0  0  0  0  0  0  0  0  0  0
   -2.3801    0.6683   -0.0349 C   0  0  0  0  0  0  0  0  0  0  0  0
   -1.1627   -1.4335    0.0056 C   0  0  0  0  0  0  0  0  0  0  0  0
   -1.2068    1.3889   -0.0345 C   0  0  0  0  0  0  0  0  0  0  0  0
    2.3384   -0.6777    0.0253 C   0  0  0  0  0  0  0  0  0  0  0  0
    2.3162    0.7439    0.0053 C   0  0  0  0  0  0  0  0  0  0  0  0
    0.0619   -0.7181    0.0060 C   0  0  0  0  0  0  0  0  0  0  0  0
    0.0396    0.7125   -0.0142 C   0  0  0  0  0  0  0  0  0  0  0  0
    1.2418   -1.4052    0.0260 N   0  0  0  0  0  0  0  0  0  0  0  0
    1.1974    1.4365   -0.0141 N   0  0  0  0  0  0  0  0  0  0  0  0
   -3.2964   -1.2977   -0.0145 H   0  0  0  0  0  0  0  0  0  0  0  0
   -3.3352    1.1860   -0.0507 H   0  0  0  0  0  0  0  0  0  0  0  0
   -1.1183   -2.5181    0.0224 H   0  0  0  0  0  0  0  0  0  0  0  0
   -1.1965    2.4744   -0.0489 H   0  0  0  0  0  0  0  0  0  0  0  0
    3.2903   -1.2071    0.0409 H   0  0  0  0  0  0  0  0  0  0  0  0
    3.2511    1.3030    0.0058 H   0  0  0  0  0  0  0  0  0  0  0  0
  1 11  1  0  0  0  0
  1  3  2  0  0  0  0
  2  4  2  0  0  0  0
  2  1  1  0  0  0  0
  3  7  1  0  0  0  0
  3 13  1  0  0  0  0
  4  8  1  0  0  0  0
  5  9  1  0  0  0  0
  5 15  1  0  0  0  0
  6 16  1  0  0  0  0
  6  5  2  0  0  0  0
  7  9  2  0  0  0  0
  8 10  2  0  0  0  0
  8  7  1  0  0  0  0
 10  6  1  0  0  0  0
 12  2  1  0  0  0  0
 14  4  1  0  0  0  0
M  END
>  <HBA>
2

>  <HBD>
0

>  <TPSA>
25.78

>  <cid>
7045

>  <dipole>
0.61

>  <excitation_energy_1>
3.559

>  <excitation_energy_2>
4.131

>  <excitation_energy_3>
4.434

>  <excitation_energy_4>
4.803

>  <homo_energy>
-6.697

>  <homo_lumo_gap>
4.773

>  <logP>
1.63

>  <lumo_energy>
-1.924

>  <melting_point>
78.66

>  <molecular_refractivity>
39.54

>  <oscillator_strength_1>
0.0026

>  <oscillator_strength_2>
0.0266

>  <oscillator_strength_3>
0.0713

>  <oscillator_strength_4>
0.0

>  <open_babel_can_smiles>
c1ccc2c(c1)nccn2

>  <mulliken_charges>
16
1   -0.134525
2   -0.134626
3   -0.149855
4   -0.149831
5   0.031933
6   0.031828
7   0.271194
8   0.271197
9   -0.458507
10   -0.458518
11   0.140644
12   0.140618
13   0.149773
14   0.149795
15   0.149429
16   0.14945

>  <lowdin_charges>
16
1   -0.148482
2   -0.148265
3   -0.148506
4   -0.148513
5   -0.105732
6   -0.106004
7   0.027164
8   0.027174
9   -0.120575
10   -0.120558
11   0.163892
12   0.163709
13   0.169711
14   0.169692
15   0.162539
16   0.162753

$$$$

