PCCDB-ID:  49192
public computational chemistry database (PCCDB) project, http://pccdb.org

 35 35  0  0  1  0  0  0  0  0999 V2000
    2.1009    0.7769    3.3096 C   0  0  0  0  0  0  0  0  0  0  0  0
    7.6323   -0.1527    3.6365 C   0  0  0  0  0  0  0  0  0  0  0  0
    2.2922   -0.5006   -0.1387 C   0  0  0  0  0  0  0  0  0  0  0  0
    5.0276   -1.7143    3.3206 C   0  0  0  0  0  0  0  0  0  0  0  0
    2.3886    0.7650    2.0042 C   0  0  0  0  0  0  0  0  0  0  0  0
    6.8597   -0.2755    2.3168 C   0  0  0  0  0  0  0  0  0  0  0  0
    2.9854   -0.3978    1.2345 C   0  0  2  0  0  0  0  0  0  0  0  0
    5.3322   -0.4511    2.4914 C   0  0  1  0  0  0  0  0  0  0  0  0
    4.9989    0.9655    0.4288 C   0  0  0  0  0  0  0  0  0  0  0  0
    5.0043   -1.4729    0.1527 C   0  0  0  0  0  0  0  0  0  0  0  0
    5.9506   -0.0557   -1.4298 C   0  0  0  0  0  0  0  0  0  0  0  0
    4.5761   -0.3479    1.0967 C   0  0  2  0  0  0  0  0  0  0  0  0
    5.5897    1.0985   -0.6914 N   0  0  0  0  0  0  0  0  0  0  0  0
    5.6186   -1.3500   -0.9543 N   0  0  0  0  0  0  0  0  0  0  0  0
    4.7513    2.1036    1.1139 O   0  0  0  0  0  0  0  0  0  0  0  0
    4.6691   -2.7370    0.5076 O   0  0  0  0  0  0  0  0  0  0  0  0
    6.5447    0.0629   -2.4778 O   0  0  0  0  0  0  0  0  0  0  0  0
    1.6358    1.6393    3.7793 H   0  0  0  0  0  0  0  0  0  0  0  0
    2.2993   -0.0754    3.9560 H   0  0  0  0  0  0  0  0  0  0  0  0
    8.6841    0.0761    3.4361 H   0  0  0  0  0  0  0  0  0  0  0  0
    7.6065   -1.0755    4.2253 H   0  0  0  0  0  0  0  0  0  0  0  0
    7.2315    0.6569    4.2594 H   0  0  0  0  0  0  0  0  0  0  0  0
    1.2059   -0.5165   -0.0033 H   0  0  0  0  0  0  0  0  0  0  0  0
    2.5783   -1.4105   -0.6730 H   0  0  0  0  0  0  0  0  0  0  0  0
    2.5392    0.3578   -0.7734 H   0  0  0  0  0  0  0  0  0  0  0  0
    5.3772   -1.5698    4.3466 H   0  0  0  0  0  0  0  0  0  0  0  0
    5.5502   -2.5958    2.9319 H   0  0  0  0  0  0  0  0  0  0  0  0
    3.9571   -1.9389    3.3953 H   0  0  0  0  0  0  0  0  0  0  0  0
    2.1341    1.6405    1.4055 H   0  0  0  0  0  0  0  0  0  0  0  0
    7.2555   -1.1208    1.7378 H   0  0  0  0  0  0  0  0  0  0  0  0
    7.0564    0.6215    1.7205 H   0  0  0  0  0  0  0  0  0  0  0  0
    2.7504   -1.3067    1.7998 H   0  0  0  0  0  0  0  0  0  0  0  0
    4.9689    0.3973    3.0859 H   0  0  0  0  0  0  0  0  0  0  0  0
    4.2382    1.9083    1.9178 H   0  0  0  0  0  0  0  0  0  0  0  0
    4.2250   -2.7407    1.3684 H   0  0  0  0  0  0  0  0  0  0  0  0
  1 18  1  0  0  0  0
  1 19  1  0  0  0  0
  2 21  1  0  0  0  0
  2 22  1  0  0  0  0
  3 23  1  0  0  0  0
  3  7  1  0  0  0  0
  4 28  1  0  0  0  0
  4 26  1  0  0  0  0
  5  1  2  0  0  0  0
  6  8  1  0  0  0  0
  6  2  1  0  0  0  0
  7 32  1  1  0  0  0
  7  5  1  0  0  0  0
  8 33  1  1  0  0  0
  8  4  1  0  0  0  0
  9 12  1  0  0  0  0
  9 15  1  0  0  0  0
 10 16  1  0  0  0  0
 10 12  1  0  0  0  0
 11 14  1  0  0  0  0
 11 13  2  0  0  0  0
 12  7  1  1  0  0  0
 12  8  1  0  0  0  0
 13  9  2  0  0  0  0
 14 10  2  0  0  0  0
 15 34  1  0  0  0  0
 16 35  1  0  0  0  0
 17 11  2  0  0  0  0
 20  2  1  0  0  0  0
 24  3  1  0  0  0  0
 25  3  1  0  0  0  0
 27  4  1  0  0  0  0
 29  5  1  0  0  0  0
 30  6  1  0  0  0  0
 31  6  1  0  0  0  0
M  END
>  <HBA>
5

>  <HBD>
2

>  <TPSA>
75.27

>  <cid>
49192

>  <dipole>
10.36

>  <excitation_energy_1>
3.952

>  <excitation_energy_2>
4.113

>  <excitation_energy_3>
5.133

>  <excitation_energy_4>
5.323

>  <homo_energy>
-6.795

>  <homo_lumo_gap>
5.271

>  <logP>
1.865

>  <lumo_energy>
-1.524

>  <melting_point>
118.98

>  <molecular_refractivity>
71.37

>  <oscillator_strength_1>
0.0002

>  <oscillator_strength_2>
0.0003

>  <oscillator_strength_3>
0.0031

>  <oscillator_strength_4>
0.0031

>  <open_babel_can_smiles>
CC[C@@H]([C@]1([C@@H](C=C)C)C(=N[C](=[N]=C1O)=O)O)C

>  <mulliken_charges>
35
1   -0.338878
2   -0.455526
3   -0.486365
4   -0.522525
5   -0.122559
6   -0.284371
7   -0.131808
8   -0.074716
9   0.532083
10   0.537395
11   0.617658
12   -0.136697
13   -0.47452
14   -0.470908
15   -0.588264
16   -0.586837
17   -0.434868
18   0.165399
19   0.153699
20   0.163011
21   0.149782
22   0.14514
23   0.164732
24   0.187299
25   0.177537
26   0.177459
27   0.173499
28   0.14498
29   0.170423
30   0.161405
31   0.177379
32   0.13424
33   0.131024
34   0.420379
35   0.424319

>  <lowdin_charges>
35
1   -0.32696
2   -0.445268
3   -0.45183
4   -0.46677
5   -0.173664
6   -0.285183
7   -0.12464
8   -0.126279
9   0.143852
10   0.146337
11   0.166987
12   -0.062172
13   -0.186755
14   -0.184184
15   -0.333425
16   -0.334391
17   -0.211395
18   0.172176
19   0.162069
20   0.160655
21   0.14951
22   0.149181
23   0.161188
24   0.171567
25   0.165688
26   0.169107
27   0.161016
28   0.143967
29   0.168564
30   0.155185
31   0.163783
32   0.146118
33   0.144259
34   0.35502
35   0.356687

$$$$

