PCCDB-ID:  34490
public computational chemistry database (PCCDB) project, http://pccdb.org

 31 31  0  0  0  0  0  0  0  0999 V2000
    5.6153   -0.4230   -3.9208 C   0  0  0  0  0  0  0  0  0  0  0  0
    3.6386    0.7437   -3.2202 C   0  0  0  0  0  0  0  0  0  0  0  0
    7.9414   -2.9276   -1.0641 C   0  0  0  0  0  0  0  0  0  0  0  0
    7.0642    4.2124   -1.3155 C   0  0  0  0  0  0  0  0  0  0  0  0
    9.6257    0.9169   -0.7855 C   0  0  0  0  0  0  0  0  0  0  0  0
    9.1082   -0.3725   -0.8737 C   0  0  0  0  0  0  0  0  0  0  0  0
    8.8159    2.0363   -0.9623 C   0  0  0  0  0  0  0  0  0  0  0  0
    5.4187    0.4015   -1.6359 C   0  0  0  0  0  0  0  0  0  0  0  0
    6.8949    0.5647   -1.3436 C   0  0  0  0  0  0  0  0  0  0  0  0
    7.7441   -0.5401   -1.1540 C   0  0  0  0  0  0  0  0  0  0  0  0
    7.4541    1.8530   -1.2389 C   0  0  0  0  0  0  0  0  0  0  0  0
    5.0775    0.6138   -3.0515 N   0  0  0  0  0  0  0  0  0  0  0  0
    7.1499   -1.7696   -1.2638 O   0  0  0  0  0  0  0  0  0  0  0  0
    6.5761    2.8855   -1.4035 O   0  0  0  0  0  0  0  0  0  0  0  0
    5.3794   -0.1791   -4.9630 H   0  0  0  0  0  0  0  0  0  0  0  0
    5.2114   -1.4316   -3.7024 H   0  0  0  0  0  0  0  0  0  0  0  0
    6.7033   -0.4666   -3.8203 H   0  0  0  0  0  0  0  0  0  0  0  0
    3.4096    0.9546   -4.2711 H   0  0  0  0  0  0  0  0  0  0  0  0
    3.2687    1.5806   -2.6173 H   0  0  0  0  0  0  0  0  0  0  0  0
    3.0742   -0.1656   -2.9267 H   0  0  0  0  0  0  0  0  0  0  0  0
    7.2654   -3.7756   -1.1900 H   0  0  0  0  0  0  0  0  0  0  0  0
    8.3725   -2.9554   -0.0546 H   0  0  0  0  0  0  0  0  0  0  0  0
    8.7510   -2.9987   -1.8026 H   0  0  0  0  0  0  0  0  0  0  0  0
    6.2011    4.8590   -1.4860 H   0  0  0  0  0  0  0  0  0  0  0  0
    7.8237    4.4154   -2.0819 H   0  0  0  0  0  0  0  0  0  0  0  0
    7.4867    4.4266   -0.3244 H   0  0  0  0  0  0  0  0  0  0  0  0
   10.6827    1.0528   -0.5723 H   0  0  0  0  0  0  0  0  0  0  0  0
    9.7590   -1.2261   -0.7289 H   0  0  0  0  0  0  0  0  0  0  0  0
    9.2424    3.0288   -0.8834 H   0  0  0  0  0  0  0  0  0  0  0  0
    4.8725    1.1578   -1.0633 H   0  0  0  0  0  0  0  0  0  0  0  0
    5.0825   -0.5884   -1.2825 H   0  0  0  0  0  0  0  0  0  0  0  0
  1 17  1  0  0  0  0
  1 16  1  0  0  0  0
  1 12  1  0  0  0  0
  2 12  1  0  0  0  0
  2 20  1  0  0  0  0
  2 19  1  0  0  0  0
  3 22  1  0  0  0  0
  4 26  1  0  0  0  0
  5 27  1  0  0  0  0
  6  5  1  0  0  0  0
  6 28  1  0  0  0  0
  7 29  1  0  0  0  0
  7  5  2  0  0  0  0
  8  9  1  0  0  0  0
  8 31  1  0  0  0  0
  8 30  1  0  0  0  0
  9 11  2  0  0  0  0
  9 10  1  0  0  0  0
 10  6  2  0  0  0  0
 11  7  1  0  0  0  0
 12  8  1  0  0  0  0
 13 10  1  0  0  0  0
 13  3  1  0  0  0  0
 14  4  1  0  0  0  0
 14 11  1  0  0  0  0
 15  1  1  0  0  0  0
 18  2  1  0  0  0  0
 21  3  1  0  0  0  0
 23  3  1  0  0  0  0
 24  4  1  0  0  0  0
 25  4  1  0  0  0  0
M  END
>  <HBA>
3

>  <HBD>
0

>  <TPSA>
21.7

>  <cid>
34490

>  <dipole>
1.54

>  <excitation_energy_1>
4.524

>  <excitation_energy_2>
4.937

>  <excitation_energy_3>
5.041

>  <excitation_energy_4>
5.183

>  <homo_energy>
-5.263

>  <homo_lumo_gap>
5.429

>  <logP>
1.765

>  <lumo_energy>
0.166

>  <melting_point>
20.68

>  <molecular_refractivity>
56.9

>  <oscillator_strength_1>
0.0009

>  <oscillator_strength_2>
0.0279

>  <oscillator_strength_3>
0.0202

>  <oscillator_strength_4>
0.002

>  <open_babel_can_smiles>
COc1cccc(c1CN(C)C)OC

>  <mulliken_charges>
31
1   -0.290771
2   -0.288976
3   -0.212586
4   -0.211648
5   -0.145725
6   -0.197574
7   -0.196881
8   -0.180973
9   0.033052
10   0.327439
11   0.340437
12   -0.357796
13   -0.514839
14   -0.504598
15   0.137262
16   0.112527
17   0.155681
18   0.142327
19   0.146301
20   0.110027
21   0.168031
22   0.151302
23   0.150849
24   0.168032
25   0.152349
26   0.148426
27   0.12709
28   0.125565
29   0.125995
30   0.147657
31   0.132019

>  <lowdin_charges>
31
1   -0.354035
2   -0.356065
3   -0.277688
4   -0.276728
5   -0.137412
6   -0.235865
7   -0.232903
8   -0.196323
9   -0.065847
10   0.101651
11   0.110302
12   -0.178901
13   -0.201312
14   -0.190184
15   0.142682
16   0.117136
17   0.152317
18   0.145394
19   0.148909
20   0.116001
21   0.162341
22   0.144031
23   0.144962
24   0.162637
25   0.146287
26   0.14265
27   0.155365
28   0.161462
29   0.160361
30   0.156306
31   0.132467

$$$$

