PCCDB-ID:  15101
public computational chemistry database (PCCDB) project, http://pccdb.org

 23 24  0  0  0  0  0  0  0  0999 V2000
    1.0058    0.1411   -0.0456 C   0  0  0  0  0  0  0  0  0  0  0  0
    2.5115    4.8899   -0.0060 C   0  0  0  0  0  0  0  0  0  0  0  0
    4.5989   -1.2027   -0.0602 C   0  0  0  0  0  0  0  0  0  0  0  0
    3.1849   -1.1339   -0.0579 C   0  0  0  0  0  0  0  0  0  0  0  0
    5.3508   -0.0510   -0.0507 C   0  0  0  0  0  0  0  0  0  0  0  0
    4.7168    3.6257   -0.0161 C   0  0  0  0  0  0  0  0  0  0  0  0
    5.4117    2.4430   -0.0267 C   0  0  0  0  0  0  0  0  0  0  0  0
    2.5106    0.0724   -0.0466 C   0  0  0  0  0  0  0  0  0  0  0  0
    3.2922    3.5981   -0.0165 C   0  0  0  0  0  0  0  0  0  0  0  0
    4.7061    1.2123   -0.0378 C   0  0  0  0  0  0  0  0  0  0  0  0
    3.2778    1.2807   -0.0367 C   0  0  0  0  0  0  0  0  0  0  0  0
    2.6055    2.4697   -0.0264 N   0  0  0  0  0  0  0  0  0  0  0  0
    0.5693   -0.8626   -0.0526 H   0  0  0  0  0  0  0  0  0  0  0  0
    0.6347    0.6907   -0.9178 H   0  0  0  0  0  0  0  0  0  0  0  0
    0.6351    0.6785    0.8342 H   0  0  0  0  0  0  0  0  0  0  0  0
    2.7494    5.5040   -0.8839 H   0  0  0  0  0  0  0  0  0  0  0  0
    2.7506    5.4908    0.8807 H   0  0  0  0  0  0  0  0  0  0  0  0
    1.4411    4.6742   -0.0071 H   0  0  0  0  0  0  0  0  0  0  0  0
    5.0856   -2.1742   -0.0698 H   0  0  0  0  0  0  0  0  0  0  0  0
    2.6130   -2.0590   -0.0662 H   0  0  0  0  0  0  0  0  0  0  0  0
    6.4376   -0.0918   -0.0505 H   0  0  0  0  0  0  0  0  0  0  0  0
    5.2365    4.5801   -0.0083 H   0  0  0  0  0  0  0  0  0  0  0  0
    6.4996    2.4333   -0.0273 H   0  0  0  0  0  0  0  0  0  0  0  0
  1 15  1  0  0  0  0
  2 17  1  0  0  0  0
  3  4  2  0  0  0  0
  3  5  1  0  0  0  0
  4  8  1  0  0  0  0
  5 21  1  0  0  0  0
  5 10  2  0  0  0  0
  6 22  1  0  0  0  0
  7  6  2  0  0  0  0
  8  1  1  0  0  0  0
  8 11  2  0  0  0  0
  9  6  1  0  0  0  0
  9  2  1  0  0  0  0
 10 11  1  0  0  0  0
 10  7  1  0  0  0  0
 11 12  1  0  0  0  0
 12  9  2  0  0  0  0
 13  1  1  0  0  0  0
 14  1  1  0  0  0  0
 16  2  1  0  0  0  0
 18  2  1  0  0  0  0
 19  3  1  0  0  0  0
 20  4  1  0  0  0  0
 23  7  1  0  0  0  0
M  END
>  <HBA>
1

>  <HBD>
0

>  <TPSA>
12.89

>  <cid>
15101

>  <dipole>
1.39

>  <excitation_energy_1>
4.25

>  <excitation_energy_2>
4.33

>  <excitation_energy_3>
4.431

>  <excitation_energy_4>
5.141

>  <homo_energy>
-5.989

>  <homo_lumo_gap>
4.808

>  <logP>
2.852

>  <lumo_energy>
-1.181

>  <melting_point>
72.83

>  <molecular_refractivity>
51.67

>  <oscillator_strength_1>
0.0517

>  <oscillator_strength_2>
0.0012

>  <oscillator_strength_3>
0.0144

>  <oscillator_strength_4>
0.0

>  <open_babel_can_smiles>
Cc1ccc2c(n1)c(C)ccc2

>  <mulliken_charges>
23
1   -0.507512
2   -0.522889
3   -0.125602
4   -0.20452
5   -0.20282
6   -0.175568
7   -0.151864
8   0.162751
9   0.318833
10   0.169079
11   0.175076
12   -0.559478
13   0.140922
14   0.168893
15   0.168915
16   0.160034
17   0.159992
18   0.175838
19   0.129783
20   0.124148
21   0.127915
22   0.130088
23   0.137986

>  <lowdin_charges>
23
1   -0.436981
2   -0.448617
3   -0.156431
4   -0.167399
5   -0.161404
6   -0.18752
7   -0.123898
8   0.003345
9   0.060664
10   -0.01782
11   0.034543
12   -0.165105
13   0.149683
14   0.167563
15   0.167529
16   0.161827
17   0.161765
18   0.168639
19   0.158508
20   0.15655
21   0.154576
22   0.161135
23   0.158847

$$$$

