PCCDB-ID:  8130
public computational chemistry database (PCCDB) project, http://pccdb.org

 22 21  0  0  0  0  0  0  0  0999 V2000
    1.6068    0.6009   -1.1197 C   0  0  0  0  0  0  0  0  0  0  0  0
    2.9728    0.4390   -0.4458 C   0  0  0  0  0  0  0  0  0  0  0  0
    3.0374    1.0765    0.9487 C   0  0  0  0  0  0  0  0  0  0  0  0
    4.4029    0.9207    1.6291 C   0  0  0  0  0  0  0  0  0  0  0  0
    4.4615    1.5621    3.0220 C   0  0  0  0  0  0  0  0  0  0  0  0
    5.8405    1.4166    3.6940 C   0  0  0  0  0  0  0  0  0  0  0  0
    5.8396    1.9664    5.1020 C   0  0  0  0  0  0  0  0  0  0  0  0
    6.5605    2.8528    5.5036 O   0  0  0  0  0  0  0  0  0  0  0  0
    1.5935    0.1376   -2.1128 H   0  0  0  0  0  0  0  0  0  0  0  0
    1.3485    1.6599   -1.2429 H   0  0  0  0  0  0  0  0  0  0  0  0
    0.8127    0.1343   -0.5239 H   0  0  0  0  0  0  0  0  0  0  0  0
    3.7509    0.8836   -1.0825 H   0  0  0  0  0  0  0  0  0  0  0  0
    3.2184   -0.6296   -0.3671 H   0  0  0  0  0  0  0  0  0  0  0  0
    2.2595    0.6317    1.5872 H   0  0  0  0  0  0  0  0  0  0  0  0
    2.7905    2.1456    0.8702 H   0  0  0  0  0  0  0  0  0  0  0  0
    5.1809    1.3658    0.9921 H   0  0  0  0  0  0  0  0  0  0  0  0
    4.6512   -0.1477    1.7116 H   0  0  0  0  0  0  0  0  0  0  0  0
    3.6922    1.1088    3.6641 H   0  0  0  0  0  0  0  0  0  0  0  0
    4.2098    2.6286    2.9458 H   0  0  0  0  0  0  0  0  0  0  0  0
    6.6215    1.9275    3.1210 H   0  0  0  0  0  0  0  0  0  0  0  0
    6.1014    0.3481    3.7501 H   0  0  0  0  0  0  0  0  0  0  0  0
    5.0916    1.4940    5.7822 H   0  0  0  0  0  0  0  0  0  0  0  0
  1 11  1  0  0  0  0
  1  2  1  0  0  0  0
  2 13  1  0  0  0  0
  2  3  1  0  0  0  0
  3 14  1  0  0  0  0
  3  4  1  0  0  0  0
  4 17  1  0  0  0  0
  4  5  1  0  0  0  0
  5 18  1  0  0  0  0
  5  6  1  0  0  0  0
  6 21  1  0  0  0  0
  6  7  1  0  0  0  0
  7  8  2  0  0  0  0
  7 22  1  0  0  0  0
  9  1  1  0  0  0  0
 10  1  1  0  0  0  0
 12  2  1  0  0  0  0
 15  3  1  0  0  0  0
 16  4  1  0  0  0  0
 19  5  1  0  0  0  0
 20  6  1  0  0  0  0
M  END
>  <HBA>
1

>  <HBD>
0

>  <TPSA>
17.07

>  <cid>
8130

>  <dipole>
2.94

>  <excitation_energy_1>
4.221

>  <excitation_energy_2>
6.648

>  <excitation_energy_3>
6.866

>  <excitation_energy_4>
7.07

>  <homo_energy>
-6.768

>  <homo_lumo_gap>
6.207

>  <logP>
2.156

>  <lumo_energy>
-0.561

>  <melting_point>
4.5

>  <molecular_refractivity>
35.96

>  <oscillator_strength_1>
0.0004

>  <oscillator_strength_2>
0.0206

>  <oscillator_strength_3>
0.0229

>  <oscillator_strength_4>
0.0073

>  <open_babel_can_smiles>
CCCCCCC=O

>  <mulliken_charges>
22
1   -0.441797
2   -0.248094
3   -0.247947
4   -0.251352
5   -0.273426
6   -0.329396
7   0.256808
8   -0.382726
9   0.143674
10   0.142798
11   0.142107
12   0.132339
13   0.131232
14   0.128498
15   0.130699
16   0.135262
17   0.130751
18   0.137621
19   0.149237
20   0.163399
21   0.153807
22   0.096504

>  <lowdin_charges>
22
1   -0.443276
2   -0.271461
3   -0.274251
4   -0.27252
5   -0.271324
6   -0.30752
7   0.054029
8   -0.216639
9   0.149799
10   0.145706
11   0.147736
12   0.140971
13   0.137642
14   0.139353
15   0.137763
16   0.142869
17   0.13776
18   0.143481
19   0.146055
20   0.162196
21   0.158997
22   0.112632

$$$$

