PCCDB-ID:  34723
public computational chemistry database (PCCDB) project, http://pccdb.org

 27 27  0  0  1  0  0  0  0  0999 V2000
    0.9133   -0.3265   -0.2452 C   0  0  0  0  0  0  0  0  0  0  0  0
    3.1334    0.2124   -1.3045 C   0  0  0  0  0  0  0  0  0  0  0  0
    2.0745    1.3943    3.2197 C   0  0  0  0  0  0  0  0  0  0  0  0
    4.4423    1.1355    2.4039 C   0  0  0  0  0  0  0  0  0  0  0  0
    3.0636   -1.2540    0.7915 C   0  0  2  0  0  0  0  0  0  0  0  0
    2.8324   -0.8513    2.2535 C   0  0  2  0  0  0  0  0  0  0  0  0
    2.4091   -0.0866    0.0074 C   0  0  0  0  0  0  0  0  0  0  0  0
    2.9835    0.6916    2.2122 C   0  0  0  0  0  0  0  0  0  0  0  0
    2.6365   -2.5545    0.4335 O   0  0  0  0  0  0  0  0  0  0  0  0
    3.6235   -1.5228    3.2147 O   0  0  0  0  0  0  0  0  0  0  0  0
    2.5549    1.0601    0.8797 O   0  0  0  0  0  0  0  0  0  0  0  0
    0.7571   -1.1603   -0.9379 H   0  0  0  0  0  0  0  0  0  0  0  0
    0.4705    0.5737   -0.6824 H   0  0  0  0  0  0  0  0  0  0  0  0
    0.3738   -0.5368    0.6860 H   0  0  0  0  0  0  0  0  0  0  0  0
    3.0885   -0.6573   -1.9695 H   0  0  0  0  0  0  0  0  0  0  0  0
    4.1842    0.4548   -1.1137 H   0  0  0  0  0  0  0  0  0  0  0  0
    2.6749    1.0664   -1.8145 H   0  0  0  0  0  0  0  0  0  0  0  0
    2.3328    1.0941    4.2414 H   0  0  0  0  0  0  0  0  0  0  0  0
    1.0268    1.1356    3.0334 H   0  0  0  0  0  0  0  0  0  0  0  0
    2.1759    2.4819    3.1393 H   0  0  0  0  0  0  0  0  0  0  0  0
    4.7934    0.9208    3.4191 H   0  0  0  0  0  0  0  0  0  0  0  0
    4.5173    2.2140    2.2342 H   0  0  0  0  0  0  0  0  0  0  0  0
    5.1157    0.6457    1.6902 H   0  0  0  0  0  0  0  0  0  0  0  0
    4.1430   -1.2536    0.5884 H   0  0  0  0  0  0  0  0  0  0  0  0
    1.7979   -1.0974    2.5284 H   0  0  0  0  0  0  0  0  0  0  0  0
    1.7350   -2.6766    0.7708 H   0  0  0  0  0  0  0  0  0  0  0  0
    4.5469   -1.4917    2.9187 H   0  0  0  0  0  0  0  0  0  0  0  0
  1  7  1  0  0  0  0
  1 14  1  0  0  0  0
  2 16  1  0  0  0  0
  2  7  1  0  0  0  0
  3 18  1  0  0  0  0
  4 21  1  0  0  0  0
  5 24  1  6  0  0  0
  5  6  1  0  0  0  0
  6 25  1  1  0  0  0
  6 10  1  0  0  0  0
  7  5  1  0  0  0  0
  7 11  1  0  0  0  0
  8  6  1  0  0  0  0
  8  4  1  0  0  0  0
  8  3  1  0  0  0  0
  9 26  1  0  0  0  0
  9  5  1  0  0  0  0
 11  8  1  0  0  0  0
 12  1  1  0  0  0  0
 13  1  1  0  0  0  0
 15  2  1  0  0  0  0
 17  2  1  0  0  0  0
 19  3  1  0  0  0  0
 20  3  1  0  0  0  0
 22  4  1  0  0  0  0
 23  4  1  0  0  0  0
 27 10  1  0  0  0  0
M  END
>  <HBA>
3

>  <HBD>
2

>  <TPSA>
49.69

>  <cid>
34723

>  <dipole>
0.46

>  <excitation_energy_1>
6.192

>  <excitation_energy_2>
6.196

>  <excitation_energy_3>
6.231

>  <excitation_energy_4>
6.287

>  <homo_energy>
-6.691

>  <homo_lumo_gap>
8.357

>  <logP>
0.296

>  <lumo_energy>
1.665

>  <melting_point>
45.02

>  <molecular_refractivity>
41.94

>  <oscillator_strength_1>
0.0221

>  <oscillator_strength_2>
0.0001

>  <oscillator_strength_3>
0.0178

>  <oscillator_strength_4>
0.0039

>  <open_babel_can_smiles>
O[C@@H]1[C@@H](O)C(OC1(C)C)(C)C

>  <mulliken_charges>
27
1   -0.478118
2   -0.458766
3   -0.459048
4   -0.479353
5   0.074815
6   0.074264
7   0.341868
8   0.342776
9   -0.62128
10   -0.621321
11   -0.552428
12   0.150907
13   0.161382
14   0.135507
15   0.152578
16   0.144403
17   0.151704
18   0.152584
19   0.144552
20   0.151744
21   0.150658
22   0.161689
23   0.135615
24   0.127033
25   0.126914
26   0.394585
27   0.394735

>  <lowdin_charges>
27
1   -0.462425
2   -0.446854
3   -0.443082
4   -0.460739
5   -0.033744
6   -0.035189
7   0.113204
8   0.114642
9   -0.441483
10   -0.440196
11   -0.281373
12   0.155406
13   0.163321
14   0.144159
15   0.157684
16   0.150355
17   0.156849
18   0.156362
19   0.150467
20   0.154133
21   0.153961
22   0.161216
23   0.145143
24   0.139884
25   0.140646
26   0.343817
27   0.343836

$$$$

