PCCDB-ID:  65111
public computational chemistry database (PCCDB) project, http://pccdb.org

 37 36  0  0  0  0  0  0  0  0999 V2000
    5.4528    1.2715   -4.8741 C   0  0  0  0  0  0  0  0  0  0  0  0
    8.2936    9.7345    1.5650 C   0  0  0  0  0  0  0  0  0  0  0  0
    5.7464    2.5411   -4.0655 C   0  0  0  0  0  0  0  0  0  0  0  0
    4.5763    2.9935   -3.1703 C   0  0  0  0  0  0  0  0  0  0  0  0
    4.2830    2.1050   -1.9386 C   0  0  0  0  0  0  0  0  0  0  0  0
    4.9505    2.4981   -0.6046 C   0  0  0  0  0  0  0  0  0  0  0  0
    6.4911    2.3891   -0.5234 C   0  0  0  0  0  0  0  0  0  0  0  0
    7.2895    3.6506   -0.9063 C   0  0  0  0  0  0  0  0  0  0  0  0
    7.1928    4.7834    0.1264 C   0  0  0  0  0  0  0  0  0  0  0  0
    7.9977    6.0274   -0.2759 C   0  0  0  0  0  0  0  0  0  0  0  0
    7.9031    7.1450    0.7626 C   0  0  0  0  0  0  0  0  0  0  0  0
    8.0881    9.1404   -1.0717 O   0  0  0  0  0  0  0  0  0  0  0  0
    8.8007    8.6497    0.1714 S   0  0  1  0  0  0  0  0  0  0  0  0
    6.3059    1.0006   -5.5068 H   0  0  0  0  0  0  0  0  0  0  0  0
    4.5842    1.4140   -5.5292 H   0  0  0  0  0  0  0  0  0  0  0  0
    5.2392    0.4130   -4.2266 H   0  0  0  0  0  0  0  0  0  0  0  0
    7.2021    9.8027    1.5958 H   0  0  0  0  0  0  0  0  0  0  0  0
    8.7164   10.7236    1.3724 H   0  0  0  0  0  0  0  0  0  0  0  0
    8.6875    9.3401    2.5069 H   0  0  0  0  0  0  0  0  0  0  0  0
    5.9868    3.3545   -4.7637 H   0  0  0  0  0  0  0  0  0  0  0  0
    6.6487    2.3854   -3.4612 H   0  0  0  0  0  0  0  0  0  0  0  0
    3.6758    3.0351   -3.7990 H   0  0  0  0  0  0  0  0  0  0  0  0
    4.7484    4.0257   -2.8358 H   0  0  0  0  0  0  0  0  0  0  0  0
    4.5383    1.0602   -2.1662 H   0  0  0  0  0  0  0  0  0  0  0  0
    3.1992    2.1077   -1.7616 H   0  0  0  0  0  0  0  0  0  0  0  0
    4.5212    1.8466    0.1683 H   0  0  0  0  0  0  0  0  0  0  0  0
    4.6350    3.5163   -0.3359 H   0  0  0  0  0  0  0  0  0  0  0  0
    6.8209    1.5474   -1.1475 H   0  0  0  0  0  0  0  0  0  0  0  0
    6.7720    2.1202    0.5048 H   0  0  0  0  0  0  0  0  0  0  0  0
    6.9669    4.0274   -1.8847 H   0  0  0  0  0  0  0  0  0  0  0  0
    8.3475    3.3756   -1.0225 H   0  0  0  0  0  0  0  0  0  0  0  0
    7.5482    4.4149    1.1002 H   0  0  0  0  0  0  0  0  0  0  0  0
    6.1421    5.0694    0.2731 H   0  0  0  0  0  0  0  0  0  0  0  0
    7.6349    6.4150   -1.2358 H   0  0  0  0  0  0  0  0  0  0  0  0
    9.0516    5.7532   -0.4251 H   0  0  0  0  0  0  0  0  0  0  0  0
    8.3535    6.8555    1.7204 H   0  0  0  0  0  0  0  0  0  0  0  0
    6.8590    7.4351    0.9331 H   0  0  0  0  0  0  0  0  0  0  0  0
  1 16  1  0  0  0  0
  1  3  1  0  0  0  0
  2 17  1  0  0  0  0
  2 19  1  0  0  0  0
  3 21  1  0  0  0  0
  3  4  1  0  0  0  0
  4 23  1  0  0  0  0
  4  5  1  0  0  0  0
  5 25  1  0  0  0  0
  5  6  1  0  0  0  0
  6  7  1  0  0  0  0
  6 27  1  0  0  0  0
  6 26  1  0  0  0  0
  7 29  1  0  0  0  0
  8  7  1  0  0  0  0
  8  9  1  0  0  0  0
  9 33  1  0  0  0  0
  9 32  1  0  0  0  0
 10  9  1  0  0  0  0
 10 11  1  0  0  0  0
 11 37  1  0  0  0  0
 11 36  1  0  0  0  0
 13 12  2  6  0  0  0
 13 11  1  0  0  0  0
 13  2  1  0  0  0  0
 14  1  1  0  0  0  0
 15  1  1  0  0  0  0
 18  2  1  0  0  0  0
 20  3  1  0  0  0  0
 22  4  1  0  0  0  0
 24  5  1  0  0  0  0
 28  7  1  0  0  0  0
 30  8  1  0  0  0  0
 31  8  1  0  0  0  0
 34 10  1  0  0  0  0
 35 10  1  0  0  0  0
M  END
>  <HBA>
1

>  <HBD>
0

>  <TPSA>
36.28

>  <cid>
65111

>  <dipole>
3.76

>  <excitation_energy_1>
5.495

>  <excitation_energy_2>
5.66

>  <excitation_energy_3>
5.759

>  <excitation_energy_4>
6.063

>  <homo_energy>
-5.935

>  <homo_lumo_gap>
7.105

>  <logP>
4.371

>  <lumo_energy>
1.17

>  <melting_point>
-10.58

>  <molecular_refractivity>
63.27

>  <oscillator_strength_1>
0.0568

>  <oscillator_strength_2>
0.0139

>  <oscillator_strength_3>
0.0268

>  <oscillator_strength_4>
0.0582

>  <open_babel_can_smiles>
CCCCCCCCCC[S@@](=O)C

>  <mulliken_charges>
37
1   -0.444414
2   -0.629813
3   -0.256219
4   -0.252882
5   -0.261201
6   -0.262686
7   -0.258608
8   -0.262367
9   -0.256824
10   -0.27276
11   -0.45546
12   -0.635136
13   0.755885
14   0.142056
15   0.141223
16   0.144028
17   0.192331
18   0.196375
19   0.172294
20   0.132431
21   0.140139
22   0.128733
23   0.130765
24   0.132016
25   0.129109
26   0.128836
27   0.131596
28   0.131938
29   0.126688
30   0.147036
31   0.128541
32   0.126545
33   0.137626
34   0.173967
35   0.143865
36   0.158995
37   0.175352

>  <lowdin_charges>
37
1   -0.44856
2   -0.596273
3   -0.278757
4   -0.280266
5   -0.276295
6   -0.27961
7   -0.279894
8   -0.277611
9   -0.273146
10   -0.279342
11   -0.421158
12   -0.680532
13   0.804297
14   0.150096
15   0.14614
16   0.145928
17   0.172451
18   0.181774
19   0.17307
20   0.143419
21   0.142108
22   0.141255
23   0.139418
24   0.137713
25   0.141233
26   0.144238
27   0.137214
28   0.14265
29   0.138983
30   0.145791
31   0.139696
32   0.136226
33   0.139591
34   0.161933
35   0.145175
36   0.160863
37   0.160182

$$$$

