PCCDB-ID:  61163
public computational chemistry database (PCCDB) project, http://pccdb.org

 22 22  0  0  0  0  0  0  0  0999 V2000
    0.9309   -0.0875   -0.5830 C   0  0  0  0  0  0  0  0  0  0  0  0
    3.1123    1.0073   -0.7914 C   0  0  0  0  0  0  0  0  0  0  0  0
    2.9643   -1.3780   -1.0259 C   0  0  0  0  0  0  0  0  0  0  0  0
    0.1912   -1.0015    0.3991 C   0  0  0  0  0  0  0  0  0  0  0  0
    4.5947    0.8502   -0.4595 C   0  0  0  0  0  0  0  0  0  0  0  0
    4.4520   -1.4717   -0.6924 C   0  0  0  0  0  0  0  0  0  0  0  0
    2.3808   -0.1957   -0.3803 N   0  0  0  0  0  0  0  0  0  0  0  0
    0.6072   -0.7393    1.7254 O   0  0  0  0  0  0  0  0  0  0  0  0
    5.1462   -0.2980   -1.0891 O   0  0  0  0  0  0  0  0  0  0  0  0
    0.6444    0.9477   -0.3663 H   0  0  0  0  0  0  0  0  0  0  0  0
    0.6349   -0.3043   -1.6261 H   0  0  0  0  0  0  0  0  0  0  0  0
    3.0038    1.1983   -1.8759 H   0  0  0  0  0  0  0  0  0  0  0  0
    2.7033    1.8715   -0.2549 H   0  0  0  0  0  0  0  0  0  0  0  0
    2.4541   -2.2792   -0.6688 H   0  0  0  0  0  0  0  0  0  0  0  0
    2.8396   -1.3326   -2.1247 H   0  0  0  0  0  0  0  0  0  0  0  0
    0.3468   -2.0613    0.1322 H   0  0  0  0  0  0  0  0  0  0  0  0
   -0.8864   -0.8116    0.3416 H   0  0  0  0  0  0  0  0  0  0  0  0
    4.7199    0.7810    0.6339 H   0  0  0  0  0  0  0  0  0  0  0  0
    5.1655    1.7092   -0.8245 H   0  0  0  0  0  0  0  0  0  0  0  0
    4.9156   -2.3039   -1.2305 H   0  0  0  0  0  0  0  0  0  0  0  0
    4.5759   -1.6393    0.3905 H   0  0  0  0  0  0  0  0  0  0  0  0
    1.5686   -0.5901    1.6459 H   0  0  0  0  0  0  0  0  0  0  0  0
  1  7  1  0  0  0  0
  1 10  1  0  0  0  0
  1  4  1  0  0  0  0
  2  5  1  0  0  0  0
  2  7  1  0  0  0  0
  2 13  1  0  0  0  0
  3  6  1  0  0  0  0
  3 14  1  0  0  0  0
  3  7  1  0  0  0  0
  4  8  1  0  0  0  0
  5 18  1  0  0  0  0
  6 21  1  0  0  0  0
  9  6  1  0  0  0  0
  9  5  1  0  0  0  0
 11  1  1  0  0  0  0
 12  2  1  0  0  0  0
 15  3  1  0  0  0  0
 16  4  1  0  0  0  0
 17  4  1  0  0  0  0
 19  5  1  0  0  0  0
 20  6  1  0  0  0  0
 22  8  1  0  0  0  0
M  END
>  <HBA>
3

>  <HBD>
1

>  <TPSA>
32.7

>  <cid>
61163

>  <dipole>
1.59

>  <excitation_energy_1>
5.94

>  <excitation_energy_2>
6.072

>  <excitation_energy_3>
6.218

>  <excitation_energy_4>
6.446

>  <homo_energy>
-6.321

>  <homo_lumo_gap>
8.436

>  <logP>
-0.751

>  <lumo_energy>
2.114

>  <melting_point>
8.32

>  <molecular_refractivity>
37.9

>  <oscillator_strength_1>
0.0141

>  <oscillator_strength_2>
0.1088

>  <oscillator_strength_3>
0.0198

>  <oscillator_strength_4>
0.0478

>  <open_babel_can_smiles>
OCCN1CCOCC1

>  <mulliken_charges>
22
1   -0.143557
2   -0.133397
3   -0.140694
4   -0.020193
5   -0.034244
6   -0.033452
7   -0.427315
8   -0.627123
9   -0.4648
10   0.14866
11   0.120823
12   0.12677
13   0.145914
14   0.149044
15   0.127351
16   0.117209
17   0.141928
18   0.128168
19   0.148662
20   0.149061
21   0.128283
22   0.392904

>  <lowdin_charges>
22
1   -0.217835
2   -0.215255
3   -0.21748
4   -0.135796
5   -0.135806
6   -0.13567
7   -0.196279
8   -0.473956
9   -0.271263
10   0.150083
11   0.12808
12   0.125215
13   0.153112
14   0.153671
15   0.124963
16   0.119772
17   0.145035
18   0.129019
19   0.154437
20   0.154841
21   0.129294
22   0.331819

$$$$

