PCCDB-ID:  26428
public computational chemistry database (PCCDB) project, http://pccdb.org

 22 21  0  0  0  0  0  0  0  0999 V2000
    0.2617   -0.2194    0.4555 C   0  0  0  0  0  0  0  0  0  0  0  0
    1.5495   -1.9991   -0.8198 C   0  0  0  0  0  0  0  0  0  0  0  0
    7.0151   -1.1475    1.3128 C   0  0  0  0  0  0  0  0  0  0  0  0
    6.0829   -0.9888    0.3602 C   0  0  0  0  0  0  0  0  0  0  0  0
    8.3098   -1.6857    1.0535 C   0  0  0  0  0  0  0  0  0  0  0  0
    2.6401    0.2033   -0.1832 C   0  0  0  0  0  0  0  0  0  0  0  0
    1.6308   -0.8750    0.2210 C   0  0  0  0  0  0  0  0  0  0  0  0
    4.7563   -0.4184    0.7186 C   0  0  0  0  0  0  0  0  0  0  0  0
    9.3714   -2.1230    0.8635 N   0  0  0  0  0  0  0  0  0  0  0  0
    4.4341   -0.0727    1.8380 O   0  0  0  0  0  0  0  0  0  0  0  0
    3.9726   -0.3375   -0.3743 O   0  0  0  0  0  0  0  0  0  0  0  0
   -0.4736   -0.9665    0.7731 H   0  0  0  0  0  0  0  0  0  0  0  0
   -0.1173    0.2478   -0.4628 H   0  0  0  0  0  0  0  0  0  0  0  0
    0.3109    0.5525    1.2322 H   0  0  0  0  0  0  0  0  0  0  0  0
    0.8550   -2.7808   -0.4924 H   0  0  0  0  0  0  0  0  0  0  0  0
    2.5266   -2.4630   -0.9873 H   0  0  0  0  0  0  0  0  0  0  0  0
    1.1898   -1.6160   -1.7838 H   0  0  0  0  0  0  0  0  0  0  0  0
    6.7891   -0.8560    2.3363 H   0  0  0  0  0  0  0  0  0  0  0  0
    6.2576   -1.2638   -0.6746 H   0  0  0  0  0  0  0  0  0  0  0  0
    2.6913    0.9942    0.5692 H   0  0  0  0  0  0  0  0  0  0  0  0
    2.3842    0.6371   -1.1545 H   0  0  0  0  0  0  0  0  0  0  0  0
    1.9757   -1.2974    1.1740 H   0  0  0  0  0  0  0  0  0  0  0  0
  1 12  1  0  0  0  0
  1 14  1  0  0  0  0
  2 15  1  0  0  0  0
  2  7  1  0  0  0  0
  3 18  1  0  0  0  0
  4  8  1  0  0  0  0
  4  3  2  0  0  0  0
  5  3  1  0  0  0  0
  6  7  1  0  0  0  0
  6 20  1  0  0  0  0
  7  1  1  0  0  0  0
  7 22  1  0  0  0  0
  8 10  2  0  0  0  0
  9  5  3  0  0  0  0
 11  6  1  0  0  0  0
 11  8  1  0  0  0  0
 13  1  1  0  0  0  0
 16  2  1  0  0  0  0
 17  2  1  0  0  0  0
 19  4  1  0  0  0  0
 21  6  1  0  0  0  0
M  END
>  <HBA>
3

>  <HBD>
0

>  <TPSA>
50.09

>  <cid>
26428

>  <dipole>
4.26

>  <excitation_energy_1>
4.217

>  <excitation_energy_2>
5.234

>  <excitation_energy_3>
5.352

>  <excitation_energy_4>
5.475

>  <homo_energy>
-8.019

>  <homo_lumo_gap>
5.456

>  <logP>
1.265

>  <lumo_energy>
-2.563

>  <melting_point>
28.24

>  <molecular_refractivity>
41.13

>  <oscillator_strength_1>
0.0005

>  <oscillator_strength_2>
0.0722

>  <oscillator_strength_3>
0.5213

>  <oscillator_strength_4>
0.0009

>  <open_babel_can_smiles>
CC(COC(=O)/C=C/C#N)C

>  <mulliken_charges>
22
1   -0.452882
2   -0.443492
3   -0.109857
4   -0.163257
5   0.326106
6   -0.045351
7   -0.100901
8   0.637249
9   -0.461575
10   -0.483455
11   -0.479523
12   0.154101
13   0.143349
14   0.152441
15   0.148609
16   0.154114
17   0.140553
18   0.219255
19   0.185855
20   0.17202
21   0.15283
22   0.153812

>  <lowdin_charges>
22
1   -0.445396
2   -0.447291
3   -0.118893
4   -0.140535
5   -0.009637
6   -0.132222
7   -0.133033
8   0.19113
9   -0.094472
10   -0.26284
11   -0.179827
12   0.157829
13   0.148294
14   0.154276
15   0.154087
16   0.154107
17   0.146772
18   0.203765
19   0.185827
20   0.162288
21   0.153804
22   0.151967

$$$$

