PCCDB-ID:  20950
public computational chemistry database (PCCDB) project, http://pccdb.org

 20 19  0  0  0  0  0  0  0  0999 V2000
    1.8614   -0.8752   -1.2005 C   0  0  0  0  0  0  0  0  0  0  0  0
    6.1702    0.8844    1.5673 C   0  0  0  0  0  0  0  0  0  0  0  0
    2.6495   -0.0373   -0.1764 C   0  0  0  0  0  0  0  0  0  0  0  0
    5.6913   -0.3234    0.7411 C   0  0  0  0  0  0  0  0  0  0  0  0
    3.1929   -0.8798    0.9380 C   0  0  0  0  0  0  0  0  0  0  0  0
    4.4744   -0.9996    1.3091 C   0  0  0  0  0  0  0  0  0  0  0  0
    4.7424   -1.9048    2.4593 N   0  0  0  0  0  0  0  0  0  0  0  0
    3.8044   -2.4979    2.9917 O   0  0  0  0  0  0  0  0  0  0  0  0
    5.9171   -2.0111    2.8196 O   0  0  0  0  0  0  0  0  0  0  0  0
    1.4360   -0.2312   -1.9772 H   0  0  0  0  0  0  0  0  0  0  0  0
    1.0376   -1.4150   -0.7202 H   0  0  0  0  0  0  0  0  0  0  0  0
    2.5083   -1.6137   -1.6857 H   0  0  0  0  0  0  0  0  0  0  0  0
    7.0559    1.3326    1.1042 H   0  0  0  0  0  0  0  0  0  0  0  0
    6.4360    0.5769    2.5822 H   0  0  0  0  0  0  0  0  0  0  0  0
    5.3926    1.6536    1.6304 H   0  0  0  0  0  0  0  0  0  0  0  0
    1.9719    0.7095    0.2633 H   0  0  0  0  0  0  0  0  0  0  0  0
    3.4430    0.5231   -0.6807 H   0  0  0  0  0  0  0  0  0  0  0  0
    6.5008   -1.0553    0.6688 H   0  0  0  0  0  0  0  0  0  0  0  0
    5.4583   -0.0013   -0.2790 H   0  0  0  0  0  0  0  0  0  0  0  0
    2.4671   -1.4638    1.4989 H   0  0  0  0  0  0  0  0  0  0  0  0
  1 11  1  0  0  0  0
  1  3  1  0  0  0  0
  2 15  1  0  0  0  0
  2 14  1  0  0  0  0
  3 16  1  0  0  0  0
  3  5  1  0  0  0  0
  4  6  1  0  0  0  0
  4  2  1  0  0  0  0
  5  6  2  0  0  0  0
  5 20  1  0  0  0  0
  6  7  1  0  0  0  0
  7  9  2  0  0  0  0
  7  8  2  0  0  0  0
 10  1  1  0  0  0  0
 12  1  1  0  0  0  0
 13  2  1  0  0  0  0
 17  3  1  0  0  0  0
 18  4  1  0  0  0  0
 19  4  1  0  0  0  0
M  END
>  <HBA>
0

>  <HBD>
0

>  <TPSA>
45.82

>  <cid>
20950

>  <dipole>
4.52

>  <excitation_energy_1>
3.71

>  <excitation_energy_2>
4.246

>  <excitation_energy_3>
4.728

>  <excitation_energy_4>
5.966

>  <homo_energy>
-7.527

>  <homo_lumo_gap>
5.355

>  <logP>
2.49

>  <lumo_energy>
-2.171

>  <melting_point>
17.4

>  <molecular_refractivity>
38.59

>  <oscillator_strength_1>
0.0002

>  <oscillator_strength_2>
0.0008

>  <oscillator_strength_3>
0.1933

>  <oscillator_strength_4>
0.0766

>  <open_babel_can_smiles>
CC/C=C(/N(=O)=O)\CC

>  <mulliken_charges>
20
1   -0.44632
2   -0.44593
3   -0.309288
4   -0.330893
5   -0.139868
6   0.276936
7   0.412245
8   -0.405006
9   -0.392197
10   0.155958
11   0.15743
12   0.159779
13   0.151661
14   0.175002
15   0.145868
16   0.165648
17   0.154913
18   0.17876
19   0.148977
20   0.186325

>  <lowdin_charges>
20
1   -0.443045
2   -0.442892
3   -0.27303
4   -0.277925
5   -0.121635
6   -0.008089
7   0.30346
8   -0.256035
9   -0.249889
10   0.158235
11   0.155878
12   0.156954
13   0.155594
14   0.162075
15   0.149451
16   0.164386
17   0.15418
18   0.171689
19   0.154562
20   0.186075

$$$$

