PCCDB-ID:  19952
public computational chemistry database (PCCDB) project, http://pccdb.org

 14 14  0  0  0  0  0  0  0  0999 V2000
    0.9446    0.1138    0.0075 C   0  0  0  0  0  0  0  0  0  0  0  0
    5.0633   -2.2228    0.4240 C   0  0  0  0  0  0  0  0  0  0  0  0
    3.1208   -3.2748    0.8244 C   0  0  0  0  0  0  0  0  0  0  0  0
    2.9586   -1.0516    0.2186 C   0  0  0  0  0  0  0  0  0  0  0  0
    2.3986    0.0566   -0.0583 N   0  0  0  0  0  0  0  0  0  0  0  0
    4.4989   -3.3492    0.7655 N   0  0  0  0  0  0  0  0  0  0  0  0
    4.3793   -1.0981    0.1533 N   0  0  0  0  0  0  0  0  0  0  0  0
    2.3522   -2.2544    0.5873 N   0  0  0  0  0  0  0  0  0  0  0  0
    0.6227    1.1272   -0.2494 H   0  0  0  0  0  0  0  0  0  0  0  0
    0.5657   -0.1269    1.0098 H   0  0  0  0  0  0  0  0  0  0  0  0
    0.4712   -0.5878   -0.6924 H   0  0  0  0  0  0  0  0  0  0  0  0
    6.1478   -2.1625    0.3469 H   0  0  0  0  0  0  0  0  0  0  0  0
    2.6307   -4.2053    1.1095 H   0  0  0  0  0  0  0  0  0  0  0  0
    4.8424   -0.2359   -0.1113 H   0  0  0  0  0  0  0  0  0  0  0  0
  1 10  1  0  0  0  0
  2  6  1  0  0  0  0
  3 13  1  0  0  0  0
  4  8  2  0  0  0  0
  5  1  1  0  0  0  0
  5  4  1  0  0  0  0
  6  3  2  0  0  0  0
  7  4  1  0  0  0  0
  7  2  1  0  0  0  0
  8  3  1  0  0  0  0
  9  1  1  0  0  0  0
 11  1  1  0  0  0  0
 12  2  1  0  0  0  0
 14  7  1  0  0  0  0
M  RAD  1   5   2
M  END
>  <HBA>
4

>  <HBD>
1

>  <TPSA>
50.7

>  <cid>
19952

>  <dipole>
2.39

>  <excitation_energy_1>
3.645

>  <excitation_energy_2>
4.119

>  <excitation_energy_3>
4.418

>  <excitation_energy_4>
5.318

>  <homo_energy>
-6.15

>  <homo_lumo_gap>
4.52

>  <logP>
-0.014

>  <lumo_energy>
-1.63

>  <melting_point>
84.39

>  <molecular_refractivity>
29.13

>  <oscillator_strength_1>
0.0192

>  <oscillator_strength_2>
0.0022

>  <oscillator_strength_3>
0.0003

>  <oscillator_strength_4>
0.0

>  <open_babel_can_smiles>
C[N]C1=NC=NCN1

>  <mulliken_charges>
14
1   -0.309619
2   0.268149
3   0.17072
4   0.642431
5   -0.491422
6   -0.422011
7   -0.575
8   -0.430701
9   0.147046
10   0.15189
11   0.151726
12   0.179018
13   0.163651
14   0.354122

>  <lowdin_charges>
14
1   -0.35442
2   0.012937
3   -0.007422
4   0.108894
5   -0.246889
6   -0.222355
7   -0.189198
8   -0.191189
9   0.147501
10   0.148183
11   0.149974
12   0.171148
13   0.165585
14   0.307251

$$$$

