PCCDB-ID:  69418
public computational chemistry database (PCCDB) project, http://pccdb.org

 43 42  0  0  0  0  0  0  0  0999 V2000
    4.3894    6.7914    5.1581 C   0  0  0  0  0  0  0  0  0  0  0  0
   11.8278    7.3482    3.8100 C   0  0  0  0  0  0  0  0  0  0  0  0
    4.6915    5.3424    5.5599 C   0  0  0  0  0  0  0  0  0  0  0  0
   11.0704    6.7910    5.0275 C   0  0  0  0  0  0  0  0  0  0  0  0
    5.6232    4.5888    4.5941 C   0  0  0  0  0  0  0  0  0  0  0  0
    5.0208    4.3246    3.2068 C   0  0  0  0  0  0  0  0  0  0  0  0
    5.9486    3.6119    2.2049 C   0  0  0  0  0  0  0  0  0  0  0  0
    6.3543    2.1671    2.5832 C   0  0  0  0  0  0  0  0  0  0  0  0
    7.7002    2.0124    3.3186 C   0  0  0  0  0  0  0  0  0  0  0  0
    8.9305    2.2795    2.4377 C   0  0  0  0  0  0  0  0  0  0  0  0
   10.2781    2.0298    3.1396 C   0  0  0  0  0  0  0  0  0  0  0  0
   10.5878    2.9257    4.3509 C   0  0  0  0  0  0  0  0  0  0  0  0
   10.6937    4.4161    4.0158 C   0  0  0  0  0  0  0  0  0  0  0  0
   11.1633    5.2751    5.1876 C   0  0  0  0  0  0  0  0  0  0  0  0
   11.5888    4.7789    6.2148 O   0  0  0  0  0  0  0  0  0  0  0  0
    3.7674    7.2863    5.9127 H   0  0  0  0  0  0  0  0  0  0  0  0
    3.8546    6.8507    4.2036 H   0  0  0  0  0  0  0  0  0  0  0  0
    5.3141    7.3734    5.0569 H   0  0  0  0  0  0  0  0  0  0  0  0
   11.7656    8.4414    3.7925 H   0  0  0  0  0  0  0  0  0  0  0  0
   11.4143    6.9787    2.8657 H   0  0  0  0  0  0  0  0  0  0  0  0
   12.8887    7.0757    3.8454 H   0  0  0  0  0  0  0  0  0  0  0  0
    3.7479    4.7865    5.6576 H   0  0  0  0  0  0  0  0  0  0  0  0
    5.1480    5.3402    6.5588 H   0  0  0  0  0  0  0  0  0  0  0  0
   10.0068    7.0589    4.9445 H   0  0  0  0  0  0  0  0  0  0  0  0
   11.4504    7.2333    5.9534 H   0  0  0  0  0  0  0  0  0  0  0  0
    5.8997    3.6332    5.0580 H   0  0  0  0  0  0  0  0  0  0  0  0
    6.5597    5.1573    4.4813 H   0  0  0  0  0  0  0  0  0  0  0  0
    4.7083    5.2780    2.7600 H   0  0  0  0  0  0  0  0  0  0  0  0
    4.1011    3.7314    3.3254 H   0  0  0  0  0  0  0  0  0  0  0  0
    6.8469    4.2251    2.0453 H   0  0  0  0  0  0  0  0  0  0  0  0
    5.4328    3.5923    1.2361 H   0  0  0  0  0  0  0  0  0  0  0  0
    6.3979    1.5557    1.6713 H   0  0  0  0  0  0  0  0  0  0  0  0
    5.5570    1.7246    3.1969 H   0  0  0  0  0  0  0  0  0  0  0  0
    7.7707    0.9857    3.7063 H   0  0  0  0  0  0  0  0  0  0  0  0
    7.7196    2.6687    4.1969 H   0  0  0  0  0  0  0  0  0  0  0  0
    8.8998    3.3064    2.0488 H   0  0  0  0  0  0  0  0  0  0  0  0
    8.8764    1.6275    1.5539 H   0  0  0  0  0  0  0  0  0  0  0  0
   11.0847    2.1425    2.4005 H   0  0  0  0  0  0  0  0  0  0  0  0
   10.3143    0.9813    3.4679 H   0  0  0  0  0  0  0  0  0  0  0  0
   11.5341    2.6077    4.8026 H   0  0  0  0  0  0  0  0  0  0  0  0
    9.8312    2.7866    5.1327 H   0  0  0  0  0  0  0  0  0  0  0  0
    9.7395    4.8227    3.6521 H   0  0  0  0  0  0  0  0  0  0  0  0
   11.4018    4.5686    3.1859 H   0  0  0  0  0  0  0  0  0  0  0  0
  1  3  1  0  0  0  0
  1 16  1  0  0  0  0
  2 21  1  0  0  0  0
  2  4  1  0  0  0  0
  3 22  1  0  0  0  0
  3 23  1  0  0  0  0
  4 14  1  0  0  0  0
  4 25  1  0  0  0  0
  5 26  1  0  0  0  0
  5  3  1  0  0  0  0
  6 29  1  0  0  0  0
  6  5  1  0  0  0  0
  7  8  1  0  0  0  0
  7  6  1  0  0  0  0
  8 33  1  0  0  0  0
  8  9  1  0  0  0  0
  9 34  1  0  0  0  0
  9 35  1  0  0  0  0
 10 11  1  0  0  0  0
 10  9  1  0  0  0  0
 11 39  1  0  0  0  0
 11 12  1  0  0  0  0
 12 40  1  0  0  0  0
 12 41  1  0  0  0  0
 13 12  1  0  0  0  0
 13 14  1  0  0  0  0
 14 15  2  0  0  0  0
 17  1  1  0  0  0  0
 18  1  1  0  0  0  0
 19  2  1  0  0  0  0
 20  2  1  0  0  0  0
 24  4  1  0  0  0  0
 27  5  1  0  0  0  0
 28  6  1  0  0  0  0
 30  7  1  0  0  0  0
 31  7  1  0  0  0  0
 32  8  1  0  0  0  0
 36 10  1  0  0  0  0
 37 10  1  0  0  0  0
 38 11  1  0  0  0  0
 42 13  1  0  0  0  0
 43 13  1  0  0  0  0
M  END
>  <HBA>
1

>  <HBD>
0

>  <TPSA>
17.07

>  <cid>
69418

>  <dipole>
2.65

>  <excitation_energy_1>
4.331

>  <excitation_energy_2>
5.922

>  <excitation_energy_3>
6.368

>  <excitation_energy_4>
6.479

>  <homo_energy>
-6.487

>  <homo_lumo_gap>
6.234

>  <logP>
4.886

>  <lumo_energy>
-0.253

>  <melting_point>
-10.48

>  <molecular_refractivity>
69.61

>  <oscillator_strength_1>
0.0002

>  <oscillator_strength_2>
0.0131

>  <oscillator_strength_3>
0.0041

>  <oscillator_strength_4>
0.0081

>  <open_babel_can_smiles>
CCCCCCCCCCCC(=O)CC

>  <mulliken_charges>
43
1   -0.443023
2   -0.457865
3   -0.249907
4   -0.336599
5   -0.24981
6   -0.256983
7   -0.26002
8   -0.258683
9   -0.263863
10   -0.258391
11   -0.263728
12   -0.251371
13   -0.365886
14   0.456009
15   -0.443829
16   0.142985
17   0.146267
18   0.13793
19   0.157337
20   0.15235
21   0.159462
22   0.13041
23   0.132053
24   0.152854
25   0.165164
26   0.137653
27   0.118195
28   0.129988
29   0.126946
30   0.128029
31   0.129675
32   0.128281
33   0.129778
34   0.127602
35   0.140762
36   0.130943
37   0.127721
38   0.124469
39   0.131356
40   0.154238
41   0.146117
42   0.153792
43   0.161595

>  <lowdin_charges>
43
1   -0.448716
2   -0.439945
3   -0.272727
4   -0.302376
5   -0.278949
6   -0.276847
7   -0.279546
8   -0.280188
9   -0.280692
10   -0.280175
11   -0.275689
12   -0.27525
13   -0.314805
14   0.162731
15   -0.236901
16   0.151452
17   0.146745
18   0.144642
19   0.15604
20   0.151035
21   0.153168
22   0.139256
23   0.141647
24   0.156475
25   0.162897
26   0.143212
27   0.132313
28   0.14029
29   0.136827
30   0.137622
31   0.143185
32   0.140805
33   0.142481
34   0.139678
35   0.141814
36   0.134662
37   0.140627
38   0.139226
39   0.140943
40   0.156419
41   0.148345
42   0.155449
43   0.162823

$$$$

