PCCDB-ID:  34299
public computational chemistry database (PCCDB) project, http://pccdb.org

 28 29  0  0  1  0  0  0  0  0999 V2000
    0.9591   -0.0452   -0.0575 C   0  0  0  0  0  0  0  0  0  0  0  0
    5.6001    0.5468   -0.9155 C   0  0  0  0  0  0  0  0  0  0  0  0
    4.3350    1.3840   -1.1608 C   0  0  0  0  0  0  0  0  0  0  0  0
    5.3883   -0.6688   -1.8354 C   0  0  0  0  0  0  0  0  0  0  0  0
    3.0910   -1.3607    0.5031 C   0  0  0  0  0  0  0  0  0  0  0  0
    2.4895   -0.0009    0.0775 C   0  0  1  0  0  0  0  0  0  0  0  0
    3.1850    0.3532   -1.2744 C   0  0  2  0  0  0  0  0  0  0  0  0
    3.8625   -0.9654   -1.8024 C   0  0  2  0  0  0  0  0  0  0  0  0
    3.4546   -2.0891   -0.8210 C   0  0  2  0  0  0  0  0  0  0  0  0
    2.2874   -2.9281   -1.3467 C   0  0  0  0  0  0  0  0  0  0  0  0
    1.6539   -2.7077   -2.3497 O   0  0  0  0  0  0  0  0  0  0  0  0
    1.9691   -4.0103   -0.5793 O   0  0  0  0  0  0  0  0  0  0  0  0
    0.4847   -0.3371    0.8874 H   0  0  0  0  0  0  0  0  0  0  0  0
    0.6437   -0.7532   -0.8311 H   0  0  0  0  0  0  0  0  0  0  0  0
    0.5688    0.9409   -0.3357 H   0  0  0  0  0  0  0  0  0  0  0  0
    5.6529    0.2315    0.1353 H   0  0  0  0  0  0  0  0  0  0  0  0
    6.5257    1.0914   -1.1327 H   0  0  0  0  0  0  0  0  0  0  0  0
    4.4395    1.9208   -2.1133 H   0  0  0  0  0  0  0  0  0  0  0  0
    4.1532    2.1390   -0.3872 H   0  0  0  0  0  0  0  0  0  0  0  0
    5.9968   -1.5357   -1.5518 H   0  0  0  0  0  0  0  0  0  0  0  0
    5.6801   -0.4002   -2.8585 H   0  0  0  0  0  0  0  0  0  0  0  0
    2.4096   -1.9355    1.1433 H   0  0  0  0  0  0  0  0  0  0  0  0
    4.0102   -1.2047    1.0791 H   0  0  0  0  0  0  0  0  0  0  0  0
    2.7381    0.7542    0.8344 H   0  0  0  0  0  0  0  0  0  0  0  0
    2.4274    0.7127   -1.9781 H   0  0  0  0  0  0  0  0  0  0  0  0
    3.5012   -1.2282   -2.7987 H   0  0  0  0  0  0  0  0  0  0  0  0
    4.2854   -2.7900   -0.6536 H   0  0  0  0  0  0  0  0  0  0  0  0
    2.5654   -4.0565    0.1865 H   0  0  0  0  0  0  0  0  0  0  0  0
  1  6  1  0  0  0  0
  1 13  1  0  0  0  0
  2 16  1  0  0  0  0
  3  2  1  0  0  0  0
  3 19  1  0  0  0  0
  4  8  1  0  0  0  0
  4 20  1  0  0  0  0
  4  2  1  0  0  0  0
  5 23  1  0  0  0  0
  5 22  1  0  0  0  0
  6  5  1  0  0  0  0
  6 24  1  1  0  0  0
  7 25  1  6  0  0  0
  7  3  1  0  0  0  0
  7  6  1  0  0  0  0
  8 26  1  6  0  0  0
  8  7  1  0  0  0  0
  8  9  1  0  0  0  0
  9 27  1  1  0  0  0
  9  5  1  0  0  0  0
 10  9  1  0  0  0  0
 10 12  1  0  0  0  0
 11 10  2  0  0  0  0
 12 28  1  0  0  0  0
 14  1  1  0  0  0  0
 15  1  1  0  0  0  0
 17  2  1  0  0  0  0
 18  3  1  0  0  0  0
 21  4  1  0  0  0  0
M  END
>  <HBA>
2

>  <HBD>
1

>  <TPSA>
37.3

>  <cid>
34299

>  <dipole>
4.02

>  <excitation_energy_1>
5.602

>  <excitation_energy_2>
6.412

>  <excitation_energy_3>
7.092

>  <excitation_energy_4>
7.23

>  <homo_energy>
-7.246

>  <homo_lumo_gap>
7.491

>  <logP>
2.143

>  <lumo_energy>
0.245

>  <melting_point>
93.1

>  <molecular_refractivity>
47.73

>  <oscillator_strength_1>
0.0009

>  <oscillator_strength_2>
0.0095

>  <oscillator_strength_3>
0.0026

>  <oscillator_strength_4>
0.0024

>  <open_babel_can_smiles>
OC(=O)[C@@H]1C[C@@H]([C@@H]2[C@H]1CCC2)C

>  <mulliken_charges>
28
1   -0.471626
2   -0.273031
3   -0.278285
4   -0.282158
5   -0.296096
6   -0.073692
7   -0.101763
8   -0.100271
9   -0.236416
10   0.609051
11   -0.44722
12   -0.571916
13   0.137285
14   0.173718
15   0.144752
16   0.132213
17   0.136999
18   0.135301
19   0.133563
20   0.129443
21   0.14119
22   0.1343
23   0.147772
24   0.125125
25   0.136864
26   0.162559
27   0.14306
28   0.409278

>  <lowdin_charges>
28
1   -0.453625
2   -0.282879
3   -0.281892
4   -0.282804
5   -0.287303
6   -0.127624
7   -0.135865
8   -0.135552
9   -0.175914
10   0.19332
11   -0.242108
12   -0.359684
13   0.145982
14   0.162407
15   0.150103
16   0.135514
17   0.146232
18   0.143157
19   0.144233
20   0.142085
21   0.145965
22   0.143503
23   0.148965
24   0.140391
25   0.150737
26   0.16246
27   0.153171
28   0.357024

$$$$

