PCCDB-ID:  66552
public computational chemistry database (PCCDB) project, http://pccdb.org

 27 28  0  0  0  0  0  0  0  0999 V2000
    2.5104    1.3001    0.1840 C   0  0  0  0  0  0  0  0  0  0  0  0
    2.6028   -0.1091    0.2249 C   0  0  0  0  0  0  0  0  0  0  0  0
    1.2728    1.8948    0.0810 C   0  0  0  0  0  0  0  0  0  0  0  0
    1.4704   -0.8946    0.1780 C   0  0  0  0  0  0  0  0  0  0  0  0
   -1.1907    1.7200   -0.0919 C   0  0  0  0  0  0  0  0  0  0  0  0
   -2.3286    0.9627   -0.1763 C   0  0  0  0  0  0  0  0  0  0  0  0
   -1.0155   -2.5609    0.3559 C   0  0  0  0  0  0  0  0  0  0  0  0
    0.0894    1.1156    0.0284 C   0  0  0  0  0  0  0  0  0  0  0  0
    0.1741   -0.3146    0.0923 C   0  0  0  0  0  0  0  0  0  0  0  0
   -1.0330   -1.0867    0.0738 C   0  0  0  0  0  0  0  0  0  0  0  0
   -2.2674   -0.4587   -0.1161 C   0  0  0  0  0  0  0  0  0  0  0  0
   -3.4472   -1.2002   -0.1747 N   0  0  0  0  0  0  0  0  0  0  0  0
   -1.1255   -5.0916   -0.4005 O   0  0  0  0  0  0  0  0  0  0  0  0
   -2.2080   -3.3760   -1.9030 O   0  0  0  0  0  0  0  0  0  0  0  0
    0.3200   -3.5988   -1.7968 O   0  0  0  0  0  0  0  0  0  0  0  0
   -0.9845   -3.6139   -1.1328 S   0  0  0  0  0  0  0  0  0  0  0  0
    3.4113    1.9060    0.2213 H   0  0  0  0  0  0  0  0  0  0  0  0
    3.5796   -0.5821    0.2806 H   0  0  0  0  0  0  0  0  0  0  0  0
    1.1827    2.9777    0.0343 H   0  0  0  0  0  0  0  0  0  0  0  0
    1.5810   -1.9733    0.1612 H   0  0  0  0  0  0  0  0  0  0  0  0
   -1.2545    2.8046   -0.1368 H   0  0  0  0  0  0  0  0  0  0  0  0
   -3.2987    1.4394   -0.2969 H   0  0  0  0  0  0  0  0  0  0  0  0
   -1.9283   -2.8685    0.8776 H   0  0  0  0  0  0  0  0  0  0  0  0
   -0.1519   -2.8732    0.9458 H   0  0  0  0  0  0  0  0  0  0  0  0
   -4.2669   -0.6480   -0.3962 H   0  0  0  0  0  0  0  0  0  0  0  0
   -3.3949   -2.0274   -0.7641 H   0  0  0  0  0  0  0  0  0  0  0  0
   -0.4236   -5.6512   -0.7838 H   0  0  0  0  0  0  0  0  0  0  0  0
  1 17  1  0  0  0  0
  1  2  1  0  0  0  0
  2 18  1  0  0  0  0
  3  1  2  0  0  0  0
  4  2  2  0  0  0  0
  5  8  2  0  0  0  0
  6 11  2  0  0  0  0
  6  5  1  0  0  0  0
  7 23  1  0  0  0  0
  7 24  1  0  0  0  0
  8  3  1  0  0  0  0
  8  9  1  0  0  0  0
  9  4  1  0  0  0  0
 10  9  2  0  0  0  0
 10  7  1  0  0  0  0
 11 10  1  0  0  0  0
 12 11  1  0  0  0  0
 14 16  1  0  0  0  0
 15 16  1  0  0  0  0
 16 13  1  0  0  0  0
 16  7  1  0  0  0  0
 19  3  1  0  0  0  0
 20  4  1  0  0  0  0
 21  5  1  0  0  0  0
 22  6  1  0  0  0  0
 25 12  1  0  0  0  0
 26 12  1  0  0  0  0
 27 13  1  0  0  0  0
M  RAD  2  14   2  15   2
M  END
>  <HBA>
4

>  <HBD>
2

>  <TPSA>
88.77

>  <cid>
66552

>  <dipole>
2.04

>  <excitation_energy_1>
3.83

>  <excitation_energy_2>
4.33

>  <excitation_energy_3>
4.736

>  <excitation_energy_4>
5.111

>  <homo_energy>
-5.538

>  <homo_lumo_gap>
4.346

>  <logP>
3.472

>  <lumo_energy>
-1.192

>  <melting_point>
183.63

>  <molecular_refractivity>
63.85

>  <oscillator_strength_1>
0.0786

>  <oscillator_strength_2>
0.0234

>  <oscillator_strength_3>
0.0115

>  <oscillator_strength_4>
0.0556

>  <open_babel_can_smiles>
Nc1ccc2c(c1CS([O])([O])O)cccc2

>  <mulliken_charges>
27
1   -0.136484
2   -0.133223
3   -0.196379
4   -0.201978
5   -0.195893
6   -0.164056
7   -0.588494
8   0.144261
9   0.085791
10   0.04906
11   0.264752
12   -0.823586
13   -0.649204
14   -0.512648
15   -0.513983
16   1.20553
17   0.129443
18   0.131436
19   0.129638
20   0.137049
21   0.135541
22   0.126581
23   0.233397
24   0.212319
25   0.323495
26   0.368182
27   0.439454

>  <lowdin_charges>
27
1   -0.167832
2   -0.148456
3   -0.148997
4   -0.169043
5   -0.134496
6   -0.187279
7   -0.413346
8   -0.012988
9   0.009382
10   -0.076088
11   0.064991
12   -0.490594
13   -0.592967
14   -0.577693
15   -0.579311
16   1.331553
17   0.159326
18   0.15925
19   0.155383
20   0.159001
21   0.159038
22   0.157177
23   0.200821
24   0.192008
25   0.277392
26   0.291536
27   0.38223

$$$$

