PCCDB-ID:  11879
public computational chemistry database (PCCDB) project, http://pccdb.org

 19 19  0  0  0  0  0  0  0  0999 V2000
   -1.5090   -0.1209   -0.0319 C   0  0  0  0  0  0  0  0  0  0  0  0
   -1.1078    1.2060    0.0107 C   0  0  0  0  0  0  0  0  0  0  0  0
    0.8277   -0.7903    0.0688 C   0  0  0  0  0  0  0  0  0  0  0  0
   -0.5213   -1.1001   -0.0064 C   0  0  0  0  0  0  0  0  0  0  0  0
    1.2619    0.5436    0.0697 C   0  0  0  0  0  0  0  0  0  0  0  0
    0.2532    1.5293    0.0377 C   0  0  0  0  0  0  0  0  0  0  0  0
    2.7852    0.6667    0.2184 C   0  0  0  0  0  0  0  0  0  0  0  0
   -0.9293   -2.5231   -0.0410 N   0  0  0  0  0  0  0  0  0  0  0  0
    0.5141    2.9867    0.0425 N   0  0  0  0  0  0  0  0  0  0  0  0
    3.3826   -0.2136    0.7925 O   0  0  0  0  0  0  0  0  0  0  0  0
    3.4186    1.6971   -0.3344 O   0  0  0  0  0  0  0  0  0  0  0  0
   -2.1347   -2.7563   -0.0901 O   0  0  0  0  0  0  0  0  0  0  0  0
   -0.0404   -3.3678   -0.0214 O   0  0  0  0  0  0  0  0  0  0  0  0
   -0.2664    3.6934    0.6601 O   0  0  0  0  0  0  0  0  0  0  0  0
    1.4657    3.4270   -0.6181 O   0  0  0  0  0  0  0  0  0  0  0  0
   -2.5539   -0.3999   -0.0776 H   0  0  0  0  0  0  0  0  0  0  0  0
   -1.8379    2.0056    0.0211 H   0  0  0  0  0  0  0  0  0  0  0  0
    1.5648   -1.5795    0.1424 H   0  0  0  0  0  0  0  0  0  0  0  0
    2.7808    2.3392   -0.7179 H   0  0  0  0  0  0  0  0  0  0  0  0
  1  4  2  0  0  0  0
  1  2  1  0  0  0  0
  2 17  1  0  0  0  0
  2  6  2  0  0  0  0
  3  5  2  0  0  0  0
  3 18  1  0  0  0  0
  4  3  1  0  0  0  0
  5  7  1  0  0  0  0
  6  9  1  0  0  0  0
  6  5  1  0  0  0  0
  7 10  2  0  0  0  0
  8 13  2  0  0  0  0
  8  4  1  0  0  0  0
  9 14  2  0  0  0  0
 11  7  1  0  0  0  0
 12  8  2  0  0  0  0
 15  9  2  0  0  0  0
 16  1  1  0  0  0  0
 19 11  1  0  0  0  0
M  END
>  <HBA>
2

>  <HBD>
1

>  <TPSA>
128.94

>  <cid>
11879

>  <dipole>
4.23

>  <excitation_energy_1>
3.362

>  <excitation_energy_2>
3.56

>  <excitation_energy_3>
3.704

>  <excitation_energy_4>
4.005

>  <homo_energy>
-8.071

>  <homo_lumo_gap>
4.095

>  <logP>
2.248

>  <lumo_energy>
-3.976

>  <melting_point>
174.24

>  <molecular_refractivity>
51.05

>  <oscillator_strength_1>
0.0117

>  <oscillator_strength_2>
0.0005

>  <oscillator_strength_3>
0.0346

>  <oscillator_strength_4>
0.0133

>  <open_babel_can_smiles>
O=N(=O)c1ccc(c(c1)C(=O)O)N(=O)=O

>  <mulliken_charges>
19
1   -0.14977
2   -0.144872
3   -0.201355
4   0.300435
5   0.029329
6   0.219673
7   0.578117
8   0.390558
9   0.372306
10   -0.428761
11   -0.572919
12   -0.37801
13   -0.371693
14   -0.334383
15   -0.404728
16   0.208274
17   0.202412
18   0.234307
19   0.451081

>  <lowdin_charges>
19
1   -0.118582
2   -0.130691
3   -0.104509
4   0.022406
5   -0.037075
6   0.021125
7   0.193476
8   0.307248
9   0.317166
10   -0.230806
11   -0.333845
12   -0.22811
13   -0.219751
14   -0.191211
15   -0.244734
16   0.200106
17   0.19711
18   0.216745
19   0.363931

$$$$

