PCCDB-ID:  13223
public computational chemistry database (PCCDB) project, http://pccdb.org

 20 22  0  0  1  0  0  0  0  0999 V2000
    2.1518    0.3779   -0.2877 C   0  0  0  0  0  0  0  0  0  0  0  0
    2.0121   -0.9266   -0.5679 C   0  0  0  0  0  0  0  0  0  0  0  0
    1.3389   -0.6090    1.6659 C   0  0  0  0  0  0  0  0  0  0  0  0
    1.1929    0.7167    0.8660 C   0  0  2  0  0  0  0  0  0  0  0  0
    1.0296   -1.5306    0.4306 C   0  0  1  0  0  0  0  0  0  0  0  0
   -0.1890    0.5460    0.1323 C   0  0  1  0  0  0  0  0  0  0  0  0
   -0.4139   -0.9809    0.2208 C   0  0  1  0  0  0  0  0  0  0  0  0
   -1.6202    0.9904    0.3076 C   0  0  0  0  0  0  0  0  0  0  0  0
   -1.5580   -1.1060   -0.7542 C   0  0  0  0  0  0  0  0  0  0  0  0
   -2.1651    1.8971    0.8601 O   0  0  0  0  0  0  0  0  0  0  0  0
   -1.8902   -1.9085   -1.5726 O   0  0  0  0  0  0  0  0  0  0  0  0
   -2.3479    0.0419   -0.4677 O   0  0  0  0  0  0  0  0  0  0  0  0
    2.7181    1.1141   -0.8494 H   0  0  0  0  0  0  0  0  0  0  0  0
    2.4648   -1.4721   -1.3887 H   0  0  0  0  0  0  0  0  0  0  0  0
    0.6318   -0.7247    2.4949 H   0  0  0  0  0  0  0  0  0  0  0  0
    2.3568   -0.7450    2.0388 H   0  0  0  0  0  0  0  0  0  0  0  0
    1.3619    1.6549    1.3949 H   0  0  0  0  0  0  0  0  0  0  0  0
    1.0928   -2.6077    0.5917 H   0  0  0  0  0  0  0  0  0  0  0  0
   -0.0100    0.7982   -0.9223 H   0  0  0  0  0  0  0  0  0  0  0  0
   -0.9212   -1.1772    1.1776 H   0  0  0  0  0  0  0  0  0  0  0  0
  1  4  1  0  0  0  0
  2  1  2  0  0  0  0
  2  5  1  0  0  0  0
  3 16  1  0  0  0  0
  3 15  1  0  0  0  0
  4 17  1  1  0  0  0
  4  3  1  0  0  0  0
  5 18  1  1  0  0  0
  5  3  1  0  0  0  0
  6 19  1  6  0  0  0
  6  7  1  0  0  0  0
  6  8  1  0  0  0  0
  6  4  1  0  0  0  0
  7  5  1  0  0  0  0
  7 20  1  1  0  0  0
  8 10  2  0  0  0  0
  9 12  1  0  0  0  0
  9  7  1  0  0  0  0
 11  9  2  0  0  0  0
 12  8  1  0  0  0  0
 13  1  1  0  0  0  0
 14  2  1  0  0  0  0
M  END
>  <HBA>
3

>  <HBD>
0

>  <TPSA>
43.37

>  <cid>
13223

>  <dipole>
4.97

>  <excitation_energy_1>
5.222

>  <excitation_energy_2>
5.361

>  <excitation_energy_3>
5.522

>  <excitation_energy_4>
6.271

>  <homo_energy>
-7.211

>  <homo_lumo_gap>
6.308

>  <logP>
0.508

>  <lumo_energy>
-0.903

>  <melting_point>
82.8

>  <molecular_refractivity>
40.05

>  <oscillator_strength_1>
0.001

>  <oscillator_strength_2>
0.0007

>  <oscillator_strength_3>
0.0014

>  <oscillator_strength_4>
0.0458

>  <open_babel_can_smiles>
O=C1OC(=O)[C@@H]2[C@@H]1[C@@H]1C=C[C@H]2C1

>  <mulliken_charges>
20
1   -0.129713
2   -0.082137
3   -0.263057
4   -0.156328
5   -0.17175
6   -0.214629
7   -0.207437
8   0.615869
9   0.621447
10   -0.412583
11   -0.412758
12   -0.485384
13   0.147576
14   0.149448
15   0.145465
16   0.16089
17   0.154357
18   0.151375
19   0.198546
20   0.190801

>  <lowdin_charges>
20
1   -0.16632
2   -0.165527
3   -0.265527
4   -0.127506
5   -0.124397
6   -0.166697
7   -0.16225
8   0.212907
9   0.214805
10   -0.185785
11   -0.184439
12   -0.199102
13   0.168168
14   0.168634
15   0.146533
16   0.158606
17   0.162845
18   0.159372
19   0.179065
20   0.176615

$$$$

