PCCDB-ID:  11892
public computational chemistry database (PCCDB) project, http://pccdb.org

 21 21  0  0  0  0  0  0  0  0999 V2000
    0.9295   -0.1102    0.0711 C   0  0  0  0  0  0  0  0  0  0  0  0
    6.7864   -0.0804   -0.4304 C   0  0  0  0  0  0  0  0  0  0  0  0
    3.1649    1.0789   -0.1103 C   0  0  0  0  0  0  0  0  0  0  0  0
    4.5541    1.0641   -0.2227 C   0  0  0  0  0  0  0  0  0  0  0  0
    3.1429   -1.3052   -0.2380 C   0  0  0  0  0  0  0  0  0  0  0  0
    2.4302   -0.1112   -0.1019 C   0  0  0  0  0  0  0  0  0  0  0  0
    5.2799   -0.1277   -0.3317 C   0  0  0  0  0  0  0  0  0  0  0  0
    4.5417   -1.3321   -0.3555 C   0  0  0  0  0  0  0  0  0  0  0  0
    5.2413   -2.6544   -0.4694 C   0  0  0  0  0  0  0  0  0  0  0  0
    6.3323   -2.8980   -0.0100 O   0  0  0  0  0  0  0  0  0  0  0  0
    4.5614   -3.6324   -1.1361 O   0  0  0  0  0  0  0  0  0  0  0  0
    0.4836    0.8104   -0.3196 H   0  0  0  0  0  0  0  0  0  0  0  0
    0.6510   -0.1824    1.1309 H   0  0  0  0  0  0  0  0  0  0  0  0
    0.4632   -0.9566   -0.4444 H   0  0  0  0  0  0  0  0  0  0  0  0
    7.1253    0.9530   -0.5528 H   0  0  0  0  0  0  0  0  0  0  0  0
    7.1621   -0.6706   -1.2723 H   0  0  0  0  0  0  0  0  0  0  0  0
    7.2532   -0.4995    0.4659 H   0  0  0  0  0  0  0  0  0  0  0  0
    2.6453    2.0306   -0.0239 H   0  0  0  0  0  0  0  0  0  0  0  0
    5.0957    2.0069   -0.2266 H   0  0  0  0  0  0  0  0  0  0  0  0
    2.5914   -2.2435   -0.2094 H   0  0  0  0  0  0  0  0  0  0  0  0
    3.7818   -3.2472   -1.5687 H   0  0  0  0  0  0  0  0  0  0  0  0
  1 13  1  0  0  0  0
  2  7  1  0  0  0  0
  2 17  1  0  0  0  0
  3  6  1  0  0  0  0
  3 18  1  0  0  0  0
  4  3  2  0  0  0  0
  5 20  1  0  0  0  0
  5  6  2  0  0  0  0
  6  1  1  0  0  0  0
  7  4  1  0  0  0  0
  8  7  2  0  0  0  0
  8  5  1  0  0  0  0
  9  8  1  0  0  0  0
  9 10  2  0  0  0  0
 11  9  1  0  0  0  0
 12  1  1  0  0  0  0
 14  1  1  0  0  0  0
 15  2  1  0  0  0  0
 16  2  1  0  0  0  0
 19  4  1  0  0  0  0
 21 11  1  0  0  0  0
M  END
>  <HBA>
2

>  <HBD>
1

>  <TPSA>
37.3

>  <cid>
11892

>  <dipole>
4.67

>  <excitation_energy_1>
4.695

>  <excitation_energy_2>
4.781

>  <excitation_energy_3>
5.393

>  <excitation_energy_4>
5.925

>  <homo_energy>
-6.719

>  <homo_lumo_gap>
5.527

>  <logP>
2.002

>  <lumo_energy>
-1.192

>  <melting_point>
104.32

>  <molecular_refractivity>
43.33

>  <oscillator_strength_1>
0.0409

>  <oscillator_strength_2>
0.0071

>  <oscillator_strength_3>
0.0534

>  <oscillator_strength_4>
0.1387

>  <open_babel_can_smiles>
Cc1ccc(c(c1)C(=O)O)C

>  <mulliken_charges>
21
1   -0.530799
2   -0.511925
3   -0.166337
4   -0.186598
5   -0.258916
6   0.17888
7   0.140799
8   0.00941
9   0.541559
10   -0.447744
11   -0.571016
12   0.161605
13   0.173272
14   0.158002
15   0.144065
16   0.169398
17   0.191615
18   0.131248
19   0.133145
20   0.132192
21   0.408145

>  <lowdin_charges>
21
1   -0.442052
2   -0.441327
3   -0.151266
4   -0.160538
5   -0.176466
6   -0.000322
7   0.022235
8   -0.06381
9   0.19247
10   -0.236549
11   -0.359268
12   0.161324
13   0.164699
14   0.159718
15   0.150917
16   0.168102
17   0.178806
18   0.159478
19   0.160082
20   0.156141
21   0.357627

$$$$

