PCCDB-ID:  71080
public computational chemistry database (PCCDB) project, http://pccdb.org

 13 12  0  0  1  0  0  0  0  0999 V2000
    2.9685    1.1185   -1.2888 C   0  0  0  0  0  0  0  0  0  0  0  0
    2.2346    0.6530   -0.0298 C   0  0  1  0  0  0  0  0  0  0  0  0
    1.0572   -0.2880   -0.3807 C   0  0  0  0  0  0  0  0  0  0  0  0
    3.0735   -0.0015    0.9951 N   0  0  0  0  0  0  0  0  0  0  0  0
    0.3748   -0.1485   -1.3680 O   0  0  0  0  0  0  0  0  0  0  0  0
    0.8452   -1.2468    0.5342 O   0  0  0  0  0  0  0  0  0  0  0  0
    3.7167    1.8804   -1.0438 H   0  0  0  0  0  0  0  0  0  0  0  0
    2.2584    1.5346   -2.0073 H   0  0  0  0  0  0  0  0  0  0  0  0
    3.4772    0.2764   -1.7741 H   0  0  0  0  0  0  0  0  0  0  0  0
    1.7691    1.5217    0.4551 H   0  0  0  0  0  0  0  0  0  0  0  0
    3.8048   -0.5555    0.5502 H   0  0  0  0  0  0  0  0  0  0  0  0
    3.5406    0.6850    1.5824 H   0  0  0  0  0  0  0  0  0  0  0  0
    1.5732   -1.1299    1.1954 H   0  0  0  0  0  0  0  0  0  0  0  0
  1  7  1  0  0  0  0
  1  2  1  0  0  0  0
  2 10  1  1  0  0  0
  2  4  1  0  0  0  0
  3  2  1  0  0  0  0
  3  6  1  0  0  0  0
  4 12  1  0  0  0  0
  5  3  2  0  0  0  0
  6 13  1  0  0  0  0
  8  1  1  0  0  0  0
  9  1  1  0  0  0  0
 11  4  1  0  0  0  0
M  END
>  <HBA>
3

>  <HBD>
2

>  <TPSA>
63.32

>  <cid>
71080

>  <dipole>
5.34

>  <excitation_energy_1>
5.408

>  <excitation_energy_2>
6.171

>  <excitation_energy_3>
6.716

>  <excitation_energy_4>
7.008

>  <homo_energy>
-6.857

>  <homo_lumo_gap>
7.255

>  <logP>
0.118

>  <lumo_energy>
0.397

>  <melting_point>
106.84

>  <molecular_refractivity>
21.01

>  <oscillator_strength_1>
0.0023

>  <oscillator_strength_2>
0.0112

>  <oscillator_strength_3>
0.029

>  <oscillator_strength_4>
0.0074

>  <open_babel_can_smiles>
C[C@@H](C(=O)O)N

>  <mulliken_charges>
13
1   -0.447857
2   -0.087785
3   0.610307
4   -0.765096
5   -0.46413
6   -0.581556
7   0.141889
8   0.189398
9   0.149988
10   0.178159
11   0.320543
12   0.323849
13   0.43229

>  <lowdin_charges>
13
1   -0.453687
2   -0.10908
3   0.172763
4   -0.549513
5   -0.256288
6   -0.356855
7   0.150508
8   0.178405
9   0.153991
10   0.168036
11   0.268149
12   0.273547
13   0.360026

$$$$

