PCCDB-ID:  41164
public computational chemistry database (PCCDB) project, http://pccdb.org

 24 24  0  0  0  0  0  0  0  0999 V2000
   -1.5149    0.7732   -0.0079 C   0  0  0  0  0  0  0  0  0  0  0  0
   -0.2322    1.4659   -0.4983 C   0  0  0  0  0  0  0  0  0  0  0  0
   -1.5077   -0.7607   -0.0680 C   0  0  0  0  0  0  0  0  0  0  0  0
    0.9743    1.2066    0.4223 C   0  0  0  0  0  0  0  0  0  0  0  0
    2.7002   -2.3236   -1.4987 C   0  0  0  0  0  0  0  0  0  0  0  0
   -0.2881   -1.4508    0.5630 C   0  0  0  0  0  0  0  0  0  0  0  0
    1.7563   -0.0877    0.1495 C   0  0  0  0  0  0  0  0  0  0  0  0
    1.7356   -2.4396   -0.3883 C   0  0  0  0  0  0  0  0  0  0  0  0
    3.4688   -2.2436   -2.3643 N   0  0  0  0  0  0  0  0  0  0  0  0
    0.9290   -1.2367   -0.2362 N   0  0  0  0  0  0  0  0  0  0  0  0
   -2.3710    1.1366   -0.5916 H   0  0  0  0  0  0  0  0  0  0  0  0
   -1.6993    1.0915    1.0292 H   0  0  0  0  0  0  0  0  0  0  0  0
   -0.4209    2.5466   -0.5312 H   0  0  0  0  0  0  0  0  0  0  0  0
    0.0012    1.1580   -1.5257 H   0  0  0  0  0  0  0  0  0  0  0  0
   -1.5565   -1.0890   -1.1140 H   0  0  0  0  0  0  0  0  0  0  0  0
   -2.4146   -1.1364    0.4266 H   0  0  0  0  0  0  0  0  0  0  0  0
    0.6273    1.2215    1.4642 H   0  0  0  0  0  0  0  0  0  0  0  0
    1.6940    2.0307    0.3406 H   0  0  0  0  0  0  0  0  0  0  0  0
   -0.4896   -2.5276    0.5951 H   0  0  0  0  0  0  0  0  0  0  0  0
   -0.1523   -1.1367    1.6125 H   0  0  0  0  0  0  0  0  0  0  0  0
    2.3722   -0.3215    1.0418 H   0  0  0  0  0  0  0  0  0  0  0  0
    2.4579    0.0859   -0.6752 H   0  0  0  0  0  0  0  0  0  0  0  0
    2.3092   -2.7084    0.5224 H   0  0  0  0  0  0  0  0  0  0  0  0
    1.0807   -3.2881   -0.6145 H   0  0  0  0  0  0  0  0  0  0  0  0
  1 12  1  0  0  0  0
  2  1  1  0  0  0  0
  2  4  1  0  0  0  0
  3  1  1  0  0  0  0
  3 16  1  0  0  0  0
  3  6  1  0  0  0  0
  4 17  1  0  0  0  0
  5  8  1  0  0  0  0
  6 19  1  0  0  0  0
  6 20  1  0  0  0  0
  7  4  1  0  0  0  0
  7 21  1  0  0  0  0
  8 10  1  0  0  0  0
  8 23  1  0  0  0  0
  9  5  3  0  0  0  0
 10  7  1  0  0  0  0
 10  6  1  0  0  0  0
 11  1  1  0  0  0  0
 13  2  1  0  0  0  0
 14  2  1  0  0  0  0
 15  3  1  0  0  0  0
 18  4  1  0  0  0  0
 22  7  1  0  0  0  0
 24  8  1  0  0  0  0
M  END
>  <HBA>
2

>  <HBD>
0

>  <TPSA>
27.03

>  <cid>
41164

>  <dipole>
4.14

>  <excitation_energy_1>
5.283

>  <excitation_energy_2>
5.726

>  <excitation_energy_3>
5.84

>  <excitation_energy_4>
5.877

>  <homo_energy>
-6.136

>  <homo_lumo_gap>
6.778

>  <logP>
1.324

>  <lumo_energy>
0.642

>  <melting_point>
31.22

>  <molecular_refractivity>
45.02

>  <oscillator_strength_1>
0.014

>  <oscillator_strength_2>
0.0427

>  <oscillator_strength_3>
0.0153

>  <oscillator_strength_4>
0.0332

>  <open_babel_can_smiles>
N#CCN1CCCCCC1

>  <mulliken_charges>
24
1   -0.262798
2   -0.250352
3   -0.238068
4   -0.289288
5   0.363652
6   -0.140402
7   -0.12838
8   -0.183875
9   -0.477242
10   -0.38723
11   0.134388
12   0.127083
13   0.132453
14   0.148861
15   0.142776
16   0.127065
17   0.136055
18   0.144659
19   0.135254
20   0.130428
21   0.112648
22   0.166537
23   0.163543
24   0.192233

>  <lowdin_charges>
24
1   -0.276384
2   -0.275462
3   -0.280353
4   -0.284976
5   -0.016583
6   -0.197112
7   -0.205369
8   -0.196081
9   -0.122272
10   -0.185197
11   0.146492
12   0.135013
13   0.143798
14   0.148798
15   0.146146
16   0.14374
17   0.138845
18   0.154543
19   0.144855
20   0.129609
21   0.120376
22   0.155924
23   0.151291
24   0.18036

$$$$

