PCCDB-ID:  12858
public computational chemistry database (PCCDB) project, http://pccdb.org

 25 26  0  0  0  0  0  0  0  0999 V2000
   -2.1779    2.5593    0.3731 C   0  0  0  0  0  0  0  0  0  0  0  0
   -1.8952    1.2362    0.0203 C   0  0  0  0  0  0  0  0  0  0  0  0
   -1.1326    3.4546    0.6034 C   0  0  0  0  0  0  0  0  0  0  0  0
    7.5796    3.2551   -0.0548 C   0  0  0  0  0  0  0  0  0  0  0  0
   -0.5750    0.8153   -0.1014 C   0  0  0  0  0  0  0  0  0  0  0  0
    0.1914    3.0339    0.4752 C   0  0  0  0  0  0  0  0  0  0  0  0
    6.8181    2.0525   -0.1190 C   0  0  0  0  0  0  0  0  0  0  0  0
    4.2895    1.6358   -0.0653 C   0  0  0  0  0  0  0  0  0  0  0  0
    3.0268    2.1108    0.0158 C   0  0  0  0  0  0  0  0  0  0  0  0
    6.6707    4.2679    0.0528 C   0  0  0  0  0  0  0  0  0  0  0  0
    0.4864    1.7087    0.1185 C   0  0  0  0  0  0  0  0  0  0  0  0
    5.4917    2.4132   -0.0463 C   0  0  0  0  0  0  0  0  0  0  0  0
    1.8829    1.1733   -0.0282 C   0  0  0  0  0  0  0  0  0  0  0  0
    2.0612   -0.0340   -0.1917 O   0  0  0  0  0  0  0  0  0  0  0  0
    5.4033    3.7820    0.0600 O   0  0  0  0  0  0  0  0  0  0  0  0
   -3.2087    2.8900    0.4696 H   0  0  0  0  0  0  0  0  0  0  0  0
   -2.7061    0.5352   -0.1586 H   0  0  0  0  0  0  0  0  0  0  0  0
   -1.3466    4.4824    0.8839 H   0  0  0  0  0  0  0  0  0  0  0  0
    8.6552    3.3568   -0.0846 H   0  0  0  0  0  0  0  0  0  0  0  0
   -0.3321   -0.2080   -0.3674 H   0  0  0  0  0  0  0  0  0  0  0  0
    0.9865    3.7455    0.6702 H   0  0  0  0  0  0  0  0  0  0  0  0
    7.1923    1.0418   -0.2066 H   0  0  0  0  0  0  0  0  0  0  0  0
    4.4205    0.5594   -0.1538 H   0  0  0  0  0  0  0  0  0  0  0  0
    2.8558    3.1778    0.0959 H   0  0  0  0  0  0  0  0  0  0  0  0
    6.7621    5.3409    0.1309 H   0  0  0  0  0  0  0  0  0  0  0  0
  1 16  1  0  0  0  0
  1  3  2  0  0  0  0
  2  1  1  0  0  0  0
  3 18  1  0  0  0  0
  4 10  2  0  0  0  0
  5  2  2  0  0  0  0
  5 11  1  0  0  0  0
  6  3  1  0  0  0  0
  6 21  1  0  0  0  0
  7  4  1  0  0  0  0
  7 12  2  0  0  0  0
  8 12  1  0  0  0  0
  8  9  2  0  0  0  0
  9 24  1  0  0  0  0
 10 15  1  0  0  0  0
 10 25  1  0  0  0  0
 11  6  2  0  0  0  0
 12 15  1  0  0  0  0
 13  9  1  0  0  0  0
 13 11  1  0  0  0  0
 14 13  2  0  0  0  0
 17  2  1  0  0  0  0
 19  4  1  0  0  0  0
 20  5  1  0  0  0  0
 22  7  1  0  0  0  0
 23  8  1  0  0  0  0
M  END
>  <HBA>
2

>  <HBD>
0

>  <TPSA>
30.21

>  <cid>
12858

>  <dipole>
3.22

>  <excitation_energy_1>
3.224

>  <excitation_energy_2>
3.644

>  <excitation_energy_3>
4.125

>  <excitation_energy_4>
4.339

>  <homo_energy>
-5.951

>  <homo_lumo_gap>
3.891

>  <logP>
3.176

>  <lumo_energy>
-2.06

>  <melting_point>
87.52

>  <molecular_refractivity>
58.51

>  <oscillator_strength_1>
0.0002

>  <oscillator_strength_2>
0.7142

>  <oscillator_strength_3>
0.0167

>  <oscillator_strength_4>
0.0864

>  <open_babel_can_smiles>
O=C(c1ccccc1)/C=C/c1ccco1

>  <mulliken_charges>
25
1   -0.118385
2   -0.134197
3   -0.137976
4   -0.184007
5   -0.154702
6   -0.17439
7   -0.191763
8   -0.147598
9   -0.212261
10   0.101137
11   0.066642
12   0.346023
13   0.382784
14   -0.498245
15   -0.446428
16   0.134767
17   0.135811
18   0.133445
19   0.151577
20   0.162988
21   0.138122
22   0.156275
23   0.176738
24   0.1492
25   0.164443

>  <lowdin_charges>
25
1   -0.14083
2   -0.156756
3   -0.156935
4   -0.198808
5   -0.128003
6   -0.151829
7   -0.183747
8   -0.108272
9   -0.209211
10   -0.056305
11   -0.041681
12   0.066843
13   0.149314
14   -0.271009
15   -0.097101
16   0.159088
17   0.161407
18   0.158255
19   0.172484
20   0.175878
21   0.161776
22   0.175603
23   0.18333
24   0.163073
25   0.173435

$$$$

