PCCDB-ID:  27820
public computational chemistry database (PCCDB) project, http://pccdb.org

 32 31  0  0  0  0  0  0  0  0999 V2000
    1.8793    2.3140   -0.0680 C   0  0  0  0  0  0  0  0  0  0  0  0
    6.0469   -1.0847   10.4815 C   0  0  0  0  0  0  0  0  0  0  0  0
    2.8898    1.1622   -0.0691 C   0  0  0  0  0  0  0  0  0  0  0  0
    7.0744   -1.3963    9.3888 C   0  0  0  0  0  0  0  0  0  0  0  0
    3.4586    0.8618    1.3233 C   0  0  0  0  0  0  0  0  0  0  0  0
    6.5626   -1.0830    7.9781 C   0  0  0  0  0  0  0  0  0  0  0  0
    4.4879   -0.2871    1.3257 C   0  0  0  0  0  0  0  0  0  0  0  0
    7.6052   -1.3955    6.8835 C   0  0  0  0  0  0  0  0  0  0  0  0
    4.9787   -0.6283    2.7022 C   0  0  0  0  0  0  0  0  0  0  0  0
    7.1370   -1.0850    5.5328 C   0  0  0  0  0  0  0  0  0  0  0  0
    6.2551   -0.5194    3.1126 C   0  0  0  0  0  0  0  0  0  0  0  0
    6.7115   -0.8302    4.4246 C   0  0  0  0  0  0  0  0  0  0  0  0
    1.4836    2.5006   -1.0729 H   0  0  0  0  0  0  0  0  0  0  0  0
    2.3402    3.2440    0.2869 H   0  0  0  0  0  0  0  0  0  0  0  0
    1.0295    2.0945    0.5898 H   0  0  0  0  0  0  0  0  0  0  0  0
    6.4424   -1.3131   11.4777 H   0  0  0  0  0  0  0  0  0  0  0  0
    5.1303   -1.6713   10.3444 H   0  0  0  0  0  0  0  0  0  0  0  0
    5.7651   -0.0246   10.4694 H   0  0  0  0  0  0  0  0  0  0  0  0
    3.7148    1.3993   -0.7555 H   0  0  0  0  0  0  0  0  0  0  0  0
    2.4128    0.2556   -0.4685 H   0  0  0  0  0  0  0  0  0  0  0  0
    7.3592   -2.4567    9.4461 H   0  0  0  0  0  0  0  0  0  0  0  0
    7.9937   -0.8235    9.5764 H   0  0  0  0  0  0  0  0  0  0  0  0
    2.6351    0.6143    2.0084 H   0  0  0  0  0  0  0  0  0  0  0  0
    3.9336    1.7646    1.7318 H   0  0  0  0  0  0  0  0  0  0  0  0
    6.2825   -0.0237    7.9099 H   0  0  0  0  0  0  0  0  0  0  0  0
    5.6494   -1.6578    7.7761 H   0  0  0  0  0  0  0  0  0  0  0  0
    5.3359   -0.0229    0.6800 H   0  0  0  0  0  0  0  0  0  0  0  0
    4.0171   -1.1761    0.8765 H   0  0  0  0  0  0  0  0  0  0  0  0
    7.8837   -2.4584    6.9419 H   0  0  0  0  0  0  0  0  0  0  0  0
    8.5278   -0.8335    7.0898 H   0  0  0  0  0  0  0  0  0  0  0  0
    4.2293   -0.9743    3.4146 H   0  0  0  0  0  0  0  0  0  0  0  0
    7.0090   -0.1726    2.4037 H   0  0  0  0  0  0  0  0  0  0  0  0
  1 14  1  0  0  0  0
  1 15  1  0  0  0  0
  2 16  1  0  0  0  0
  3  1  1  0  0  0  0
  3  5  1  0  0  0  0
  4 21  1  0  0  0  0
  4 22  1  0  0  0  0
  4  2  1  0  0  0  0
  5  7  1  0  0  0  0
  5 24  1  0  0  0  0
  5 23  1  0  0  0  0
  6  4  1  0  0  0  0
  7  9  1  0  0  0  0
  8 29  1  0  0  0  0
  8 30  1  0  0  0  0
  8  6  1  0  0  0  0
  9 11  2  0  0  0  0
  9 31  1  0  0  0  0
 10  8  1  0  0  0  0
 11 12  1  0  0  0  0
 12 10  3  0  0  0  0
 13  1  1  0  0  0  0
 17  2  1  0  0  0  0
 18  2  1  0  0  0  0
 19  3  1  0  0  0  0
 20  3  1  0  0  0  0
 25  6  1  0  0  0  0
 26  6  1  0  0  0  0
 27  7  1  0  0  0  0
 28  7  1  0  0  0  0
 32 11  1  0  0  0  0
M  END
>  <HBA>
0

>  <HBD>
0

>  <TPSA>
0.0

>  <cid>
27820

>  <dipole>
0.41

>  <excitation_energy_1>
5.115

>  <excitation_energy_2>
5.225

>  <excitation_energy_3>
5.588

>  <excitation_energy_4>
5.751

>  <homo_energy>
-5.804

>  <homo_lumo_gap>
5.6

>  <logP>
3.926

>  <lumo_energy>
-0.204

>  <melting_point>
-3.41

>  <molecular_refractivity>
57.49

>  <oscillator_strength_1>
0.0027

>  <oscillator_strength_2>
0.5231

>  <oscillator_strength_3>
0.0004

>  <oscillator_strength_4>
0.003

>  <open_babel_can_smiles>
CCCC/C=C/C#CCCCC

>  <mulliken_charges>
32
1   -0.441861
2   -0.44236
3   -0.247601
4   -0.245213
5   -0.247149
6   -0.247637
7   -0.302122
8   -0.402592
9   -0.075328
10   0.054835
11   -0.252087
12   0.024823
13   0.142751
14   0.143219
15   0.142251
16   0.143511
17   0.143783
18   0.143996
19   0.13202
20   0.131096
21   0.132032
22   0.132075
23   0.131088
24   0.137919
25   0.143577
26   0.142543
27   0.138445
28   0.142195
29   0.163433
30   0.16284
31   0.131091
32   0.144427

>  <lowdin_charges>
32
1   -0.44422
2   -0.441707
3   -0.27385
4   -0.272157
5   -0.274482
6   -0.266906
7   -0.272562
8   -0.256849
9   -0.137363
10   -0.072255
11   -0.165494
12   -0.083278
13   0.149315
14   0.147434
15   0.147307
16   0.14983
17   0.147722
18   0.146317
19   0.140408
20   0.139566
21   0.138214
22   0.139844
23   0.140421
24   0.143678
25   0.145349
26   0.146517
27   0.146641
28   0.149634
29   0.160777
30   0.16203
31   0.156358
32   0.163759

$$$$

