PCCDB-ID:  15527
public computational chemistry database (PCCDB) project, http://pccdb.org

 25 25  0  0  0  0  0  0  0  0999 V2000
    4.7148   -4.2893    0.4150 C   0  0  0  0  0  0  0  0  0  0  0  0
    4.2727   -2.8451    0.1625 C   0  0  0  0  0  0  0  0  0  0  0  0
    5.3632   -1.8284    0.5067 C   0  0  0  0  0  0  0  0  0  0  0  0
    7.2035    0.4845    1.0712 C   0  0  0  0  0  0  0  0  0  0  0  0
    5.5121    2.0427    0.3563 C   0  0  0  0  0  0  0  0  0  0  0  0
    8.0684    1.5382    1.3358 C   0  0  0  0  0  0  0  0  0  0  0  0
    6.3648    3.1018    0.6173 C   0  0  0  0  0  0  0  0  0  0  0  0
    5.9089    0.7111    0.5748 C   0  0  0  0  0  0  0  0  0  0  0  0
    7.6632    2.8679    1.1145 C   0  0  0  0  0  0  0  0  0  0  0  0
    4.9409   -0.3787    0.2673 C   0  0  0  0  0  0  0  0  0  0  0  0
    8.5030    3.9273    1.4265 N   0  0  0  0  0  0  0  0  0  0  0  0
    3.8254   -0.1225   -0.1706 O   0  0  0  0  0  0  0  0  0  0  0  0
    3.9221   -4.9974    0.1482 H   0  0  0  0  0  0  0  0  0  0  0  0
    4.9644   -4.4538    1.4709 H   0  0  0  0  0  0  0  0  0  0  0  0
    5.6023   -4.5472   -0.1769 H   0  0  0  0  0  0  0  0  0  0  0  0
    3.3744   -2.6173    0.7477 H   0  0  0  0  0  0  0  0  0  0  0  0
    3.9821   -2.7162   -0.8864 H   0  0  0  0  0  0  0  0  0  0  0  0
    6.2716   -2.0300   -0.0808 H   0  0  0  0  0  0  0  0  0  0  0  0
    5.6682   -1.9372    1.5583 H   0  0  0  0  0  0  0  0  0  0  0  0
    7.5508   -0.5280    1.2532 H   0  0  0  0  0  0  0  0  0  0  0  0
    4.5127    2.2196   -0.0283 H   0  0  0  0  0  0  0  0  0  0  0  0
    9.0649    1.3401    1.7242 H   0  0  0  0  0  0  0  0  0  0  0  0
    6.0349    4.1242    0.4458 H   0  0  0  0  0  0  0  0  0  0  0  0
    9.4922    3.7191    1.4630 H   0  0  0  0  0  0  0  0  0  0  0  0
    8.3058    4.8047    0.9633 H   0  0  0  0  0  0  0  0  0  0  0  0
  1 14  1  0  0  0  0
  2  1  1  0  0  0  0
  2  3  1  0  0  0  0
  2 16  1  0  0  0  0
  3 19  1  0  0  0  0
  4 20  1  0  0  0  0
  4  6  2  0  0  0  0
  5  8  2  0  0  0  0
  5  7  1  0  0  0  0
  6 22  1  0  0  0  0
  7  9  2  0  0  0  0
  8  4  1  0  0  0  0
  9  6  1  0  0  0  0
  9 11  1  0  0  0  0
 10  3  1  0  0  0  0
 10  8  1  0  0  0  0
 11 24  1  0  0  0  0
 12 10  2  0  0  0  0
 13  1  1  0  0  0  0
 15  1  1  0  0  0  0
 17  2  1  0  0  0  0
 18  3  1  0  0  0  0
 21  5  1  0  0  0  0
 23  7  1  0  0  0  0
 25 11  1  0  0  0  0
M  END
>  <HBA>
2

>  <HBD>
1

>  <TPSA>
43.09

>  <cid>
15527

>  <dipole>
4.62

>  <excitation_energy_1>
3.87

>  <excitation_energy_2>
4.455

>  <excitation_energy_3>
4.652

>  <excitation_energy_4>
4.928

>  <homo_energy>
-5.75

>  <homo_lumo_gap>
4.77

>  <logP>
2.833

>  <lumo_energy>
-0.98

>  <melting_point>
87.04

>  <molecular_refractivity>
50.65

>  <oscillator_strength_1>
0.0

>  <oscillator_strength_2>
0.418

>  <oscillator_strength_3>
0.0046

>  <oscillator_strength_4>
0.003

>  <open_babel_can_smiles>
CCCC(=O)c1ccc(cc1)N

>  <mulliken_charges>
25
1   -0.44637
2   -0.237637
3   -0.361773
4   -0.191878
5   -0.165685
6   -0.179929
7   -0.17686
8   0.078418
9   0.334345
10   0.397763
11   -0.790559
12   -0.482133
13   0.145022
14   0.138117
15   0.137453
16   0.149712
17   0.149455
18   0.154001
19   0.154697
20   0.133233
21   0.160581
22   0.120797
23   0.123698
24   0.327265
25   0.328267

>  <lowdin_charges>
25
1   -0.445512
2   -0.266733
3   -0.308637
4   -0.137431
5   -0.11531
6   -0.20291
7   -0.199207
8   -0.078854
9   0.074834
10   0.154061
11   -0.471519
12   -0.259397
13   0.151747
14   0.143056
15   0.144467
16   0.151529
17   0.149722
18   0.157122
19   0.155924
20   0.160401
21   0.175292
22   0.15349
23   0.154414
24   0.278543
25   0.280908

$$$$

