PCCDB-ID:  4518
public computational chemistry database (PCCDB) project, http://pccdb.org

 24 23  0  0  0  0  0  0  0  0999 V2000
    1.3611    2.0547    0.4922 C   0  0  0  0  0  0  0  0  0  0  0  0
   -3.0163    0.0348    1.5117 C   0  0  0  0  0  0  0  0  0  0  0  0
    0.6833    0.9638    1.3279 C   0  0  0  0  0  0  0  0  0  0  0  0
   -1.5160   -0.1104    1.7740 C   0  0  0  0  0  0  0  0  0  0  0  0
    1.2122    3.3997    1.0822 N   0  0  0  0  0  0  0  0  0  0  0  0
   -3.6851   -1.2319    1.8296 N   0  0  0  0  0  0  0  0  0  0  0  0
   -0.7049    2.2771    3.4395 N   0  0  0  0  0  0  0  0  0  0  0  0
   -0.7788    1.1086    1.4047 N   0  0  0  0  0  0  0  0  0  0  0  0
   -1.1872    2.2087    2.1746 N   0  0  0  0  0  0  0  0  0  0  0  0
   -0.7344    3.3833    3.9552 O   0  0  0  0  0  0  0  0  0  0  0  0
   -1.4797    3.3660    1.4797 O   0  0  0  0  0  0  0  0  0  0  0  0
    0.8950    2.0784   -0.4984 H   0  0  0  0  0  0  0  0  0  0  0  0
    2.4168    1.7687    0.3606 H   0  0  0  0  0  0  0  0  0  0  0  0
   -3.1629    0.3892    0.4778 H   0  0  0  0  0  0  0  0  0  0  0  0
   -3.4199    0.8079    2.1729 H   0  0  0  0  0  0  0  0  0  0  0  0
    1.1389    0.9098    2.3303 H   0  0  0  0  0  0  0  0  0  0  0  0
    0.8789    0.0076    0.8316 H   0  0  0  0  0  0  0  0  0  0  0  0
   -1.1157   -0.9155    1.1452 H   0  0  0  0  0  0  0  0  0  0  0  0
   -1.3527   -0.3976    2.8226 H   0  0  0  0  0  0  0  0  0  0  0  0
   -0.5569    3.6999    1.2582 H   0  0  0  0  0  0  0  0  0  0  0  0
    1.6770    4.0928    0.4986 H   0  0  0  0  0  0  0  0  0  0  0  0
    1.6544    3.4441    2.0002 H   0  0  0  0  0  0  0  0  0  0  0  0
   -3.5299   -1.9045    1.0798 H   0  0  0  0  0  0  0  0  0  0  0  0
   -4.6917   -1.0880    1.8723 H   0  0  0  0  0  0  0  0  0  0  0  0
  1  5  1  0  0  0  0
  1  3  1  0  0  0  0
  2  4  1  0  0  0  0
  2  6  1  0  0  0  0
  2 15  1  0  0  0  0
  3  8  1  0  0  0  0
  3 16  1  0  0  0  0
  4 19  1  0  0  0  0
  5 22  1  0  0  0  0
  6 24  1  0  0  0  0
  7 10  2  0  0  0  0
  8  4  1  0  0  0  0
  8  9  1  0  0  0  0
  9  7  1  0  0  0  0
 11  9  1  0  0  0  0
 12  1  1  0  0  0  0
 13  1  1  0  0  0  0
 14  2  1  0  0  0  0
 17  3  1  0  0  0  0
 18  4  1  0  0  0  0
 20 11  1  0  0  0  0
 21  5  1  0  0  0  0
 23  6  1  0  0  0  0
M  END
>  <HBA>
6

>  <HBD>
2

>  <TPSA>
112.63

>  <cid>
4518

>  <dipole>
5.64

>  <excitation_energy_1>
3.02

>  <excitation_energy_2>
4.527

>  <excitation_energy_3>
4.687

>  <excitation_energy_4>
5.233

>  <homo_energy>
-5.802

>  <homo_lumo_gap>
4.806

>  <logP>
-1.415

>  <lumo_energy>
-0.996

>  <melting_point>
172.38

>  <molecular_refractivity>
40.85

>  <oscillator_strength_1>
0.0018

>  <oscillator_strength_2>
0.0002

>  <oscillator_strength_3>
0.0002

>  <oscillator_strength_4>
0.001

>  <open_babel_can_smiles>
NCCN(N(N=O)O)CCN

>  <mulliken_charges>
24
1   -0.135739
2   -0.150868
3   -0.128425
4   -0.098002
5   -0.765861
6   -0.720545
7   0.135393
8   -0.285317
9   0.107581
10   -0.342281
11   -0.512424
12   0.166908
13   0.137632
14   0.131265
15   0.167248
16   0.153953
17   0.153178
18   0.131358
19   0.161581
20   0.441488
21   0.326553
22   0.329928
23   0.292419
24   0.302975

>  <lowdin_charges>
24
1   -0.207902
2   -0.211379
3   -0.211851
4   -0.203993
5   -0.535622
6   -0.554822
7   0.039323
8   -0.117779
9   0.078628
10   -0.243038
11   -0.388796
12   0.156203
13   0.135948
14   0.126935
15   0.157057
16   0.139843
17   0.159275
18   0.144231
19   0.144498
20   0.339849
21   0.273402
22   0.271037
23   0.25171
24   0.257243

$$$$

