PCCDB-ID:  68496
public computational chemistry database (PCCDB) project, http://pccdb.org

 29 30  0  0  0  0  0  0  0  0999 V2000
   -1.3315   -1.9630   -0.8819 C   0  0  0  0  0  0  0  0  0  0  0  0
    3.2277   -3.0229   -4.9865 C   0  0  0  0  0  0  0  0  0  0  0  0
    3.3915   -4.2735   -4.3894 C   0  0  0  0  0  0  0  0  0  0  0  0
    3.2962   -1.8655   -4.2066 C   0  0  0  0  0  0  0  0  0  0  0  0
    1.3626    0.3221    0.5569 C   0  0  0  0  0  0  0  0  0  0  0  0
    0.1372   -0.1319    0.0682 C   0  0  0  0  0  0  0  0  0  0  0  0
    3.6314   -4.3651   -3.0183 C   0  0  0  0  0  0  0  0  0  0  0  0
    3.5225   -1.9537   -2.8347 C   0  0  0  0  0  0  0  0  0  0  0  0
    2.4706   -0.5224    0.5941 C   0  0  0  0  0  0  0  0  0  0  0  0
    1.1235   -2.2855   -0.3718 C   0  0  0  0  0  0  0  0  0  0  0  0
    0.0037   -1.4491   -0.3923 C   0  0  0  0  0  0  0  0  0  0  0  0
    3.6944   -3.2063   -2.2269 C   0  0  0  0  0  0  0  0  0  0  0  0
    2.3659   -1.8346    0.1068 C   0  0  0  0  0  0  0  0  0  0  0  0
    3.9867   -3.3193   -0.7625 C   0  0  0  0  0  0  0  0  0  0  0  0
    3.4783   -2.6839    0.2130 N   0  0  0  0  0  0  0  0  0  0  0  0
    4.9486   -4.2378   -0.4463 O   0  0  0  0  0  0  0  0  0  0  0  0
   -2.0116   -2.1654   -0.0439 H   0  0  0  0  0  0  0  0  0  0  0  0
   -1.2207   -2.8943   -1.4466 H   0  0  0  0  0  0  0  0  0  0  0  0
   -1.8291   -1.2323   -1.5300 H   0  0  0  0  0  0  0  0  0  0  0  0
    3.0461   -2.9493   -6.0552 H   0  0  0  0  0  0  0  0  0  0  0  0
    3.3320   -5.1779   -4.9885 H   0  0  0  0  0  0  0  0  0  0  0  0
    3.1728   -0.8900   -4.6686 H   0  0  0  0  0  0  0  0  0  0  0  0
    1.4544    1.3422    0.9216 H   0  0  0  0  0  0  0  0  0  0  0  0
   -0.7228    0.5337    0.0548 H   0  0  0  0  0  0  0  0  0  0  0  0
    3.7416   -5.3416   -2.5532 H   0  0  0  0  0  0  0  0  0  0  0  0
    3.5713   -1.0544   -2.2304 H   0  0  0  0  0  0  0  0  0  0  0  0
    3.4226   -0.1839    0.9918 H   0  0  0  0  0  0  0  0  0  0  0  0
    1.0365   -3.3119   -0.7186 H   0  0  0  0  0  0  0  0  0  0  0  0
    5.4182   -4.4827   -1.2597 H   0  0  0  0  0  0  0  0  0  0  0  0
  1 11  1  0  0  0  0
  1 17  1  0  0  0  0
  2  3  2  0  0  0  0
  2  4  1  0  0  0  0
  3  7  1  0  0  0  0
  4  8  2  0  0  0  0
  5  9  1  0  0  0  0
  5 23  1  0  0  0  0
  6  5  2  0  0  0  0
  7 25  1  0  0  0  0
  7 12  2  0  0  0  0
  8 26  1  0  0  0  0
  8 12  1  0  0  0  0
  9 27  1  0  0  0  0
 10 13  1  0  0  0  0
 11 10  2  0  0  0  0
 11  6  1  0  0  0  0
 12 14  1  0  0  0  0
 13 15  1  0  0  0  0
 13  9  2  0  0  0  0
 14 16  1  0  0  0  0
 14 15  2  0  0  0  0
 18  1  1  0  0  0  0
 19  1  1  0  0  0  0
 20  2  1  0  0  0  0
 21  3  1  0  0  0  0
 22  4  1  0  0  0  0
 24  6  1  0  0  0  0
 28 10  1  0  0  0  0
 29 16  1  0  0  0  0
M  END
>  <HBA>
2

>  <HBD>
1

>  <TPSA>
29.1

>  <cid>
68496

>  <dipole>
4.33

>  <excitation_energy_1>
3.593

>  <excitation_energy_2>
4.287

>  <excitation_energy_3>
4.431

>  <excitation_energy_4>
4.923

>  <homo_energy>
-5.578

>  <homo_lumo_gap>
4.446

>  <logP>
3.32

>  <lumo_energy>
-1.132

>  <melting_point>
104.82

>  <molecular_refractivity>
65.62

>  <oscillator_strength_1>
0.0355

>  <oscillator_strength_2>
0.0151

>  <oscillator_strength_3>
0.0052

>  <oscillator_strength_4>
0.0239

>  <open_babel_can_smiles>
Cc1cccc(c1)/N=C(\c1ccccc1)/O

>  <mulliken_charges>
29
1   -0.529225
2   -0.121073
3   -0.13056
4   -0.136362
5   -0.136117
6   -0.181548
7   -0.191976
8   -0.144419
9   -0.161943
10   -0.202008
11   0.172085
12   0.056814
13   0.244071
14   0.412115
15   -0.476065
16   -0.574658
17   0.164467
18   0.153586
19   0.155369
20   0.140136
21   0.140382
22   0.142959
23   0.12481
24   0.114661
25   0.147387
26   0.163105
27   0.128922
28   0.118857
29   0.406228

>  <lowdin_charges>
29
1   -0.443376
2   -0.142539
3   -0.153449
4   -0.149141
5   -0.150077
6   -0.186359
7   -0.168714
8   -0.138633
9   -0.18651
10   -0.192163
11   0.005439
12   -0.044998
13   0.048087
14   0.142816
15   -0.163954
16   -0.359109
17   0.161891
18   0.155816
19   0.158555
20   0.161137
21   0.163417
22   0.164201
23   0.154496
24   0.152488
25   0.163538
26   0.176578
27   0.160986
28   0.154008
29   0.355569

$$$$

