PCCDB-ID:  70333
public computational chemistry database (PCCDB) project, http://pccdb.org

 27 28  0  0  1  0  0  0  0  0999 V2000
    2.9804    1.4790   -0.9722 C   0  0  0  0  0  0  0  0  0  0  0  0
    6.3783   -0.6556   -3.9219 C   0  0  0  0  0  0  0  0  0  0  0  0
    4.4675   -1.1601    1.3311 C   0  0  0  0  0  0  0  0  0  0  0  0
    6.8979   -4.0041   -1.2561 C   0  0  0  0  0  0  0  0  0  0  0  0
    6.7878   -3.1273   -2.3062 C   0  0  0  0  0  0  0  0  0  0  0  0
    5.9388   -3.6620   -0.2379 C   0  0  0  0  0  0  0  0  0  0  0  0
    4.7004    0.2058   -2.3423 C   0  0  0  0  0  0  0  0  0  0  0  0
    3.4220   -1.1446   -1.0059 C   0  0  0  0  0  0  0  0  0  0  0  0
    3.6723    0.2362   -1.4390 C   0  0  0  0  0  0  0  0  0  0  0  0
    5.5499   -0.9472   -2.6821 C   0  0  0  0  0  0  0  0  0  0  0  0
    4.2333   -1.7051   -0.0528 C   0  0  1  0  0  0  0  0  0  0  0  0
    5.7432   -2.1610   -2.0063 C   0  0  0  0  0  0  0  0  0  0  0  0
    5.1810   -2.6031   -0.6806 C   0  0  0  0  0  0  0  0  0  0  0  0
    3.3801    2.3761   -1.4561 H   0  0  0  0  0  0  0  0  0  0  0  0
    3.0905    1.5977    0.1144 H   0  0  0  0  0  0  0  0  0  0  0  0
    1.9020    1.4220   -1.1683 H   0  0  0  0  0  0  0  0  0  0  0  0
    7.0023    0.2330   -3.7576 H   0  0  0  0  0  0  0  0  0  0  0  0
    5.7187   -0.4216   -4.7672 H   0  0  0  0  0  0  0  0  0  0  0  0
    7.0322   -1.4732   -4.2194 H   0  0  0  0  0  0  0  0  0  0  0  0
    3.7843   -0.3357    1.5603 H   0  0  0  0  0  0  0  0  0  0  0  0
    5.5018   -0.8213    1.4675 H   0  0  0  0  0  0  0  0  0  0  0  0
    4.2908   -1.9453    2.0792 H   0  0  0  0  0  0  0  0  0  0  0  0
    7.5904   -4.8372   -1.1998 H   0  0  0  0  0  0  0  0  0  0  0  0
    7.3951   -3.1575   -3.2005 H   0  0  0  0  0  0  0  0  0  0  0  0
    5.8133   -4.1825    0.7053 H   0  0  0  0  0  0  0  0  0  0  0  0
    4.9674    1.1284   -2.8609 H   0  0  0  0  0  0  0  0  0  0  0  0
    3.3161   -1.7873   -1.8806 H   0  0  0  0  0  0  0  0  0  0  0  0
  1 15  1  0  0  0  0
  2 17  1  0  0  0  0
  2 10  1  0  0  0  0
  3 21  1  0  0  0  0
  3 20  1  0  0  0  0
  3 22  1  0  0  0  0
  4 23  1  0  0  0  0
  4  6  1  0  0  0  0
  5 12  1  0  0  0  0
  5  4  2  0  0  0  0
  6 25  1  0  0  0  0
  7  9  2  0  0  0  0
  8 11  1  0  0  0  0
  9  8  1  0  0  0  0
  9  1  1  0  0  0  0
 10  7  1  0  0  0  0
 10 12  2  0  0  0  0
 11  3  1  6  0  0  0
 12 13  1  0  0  0  0
 13  6  2  0  0  0  0
 13 11  1  0  0  0  0
 14  1  1  0  0  0  0
 16  1  1  0  0  0  0
 18  2  1  0  0  0  0
 19  2  1  0  0  0  0
 24  5  1  0  0  0  0
 26  7  1  0  0  0  0
 27  8  1  0  0  0  0
M  RAD  2   8   2  11   2
M  END
>  <HBA>
0

>  <HBD>
0

>  <TPSA>
0.0

>  <cid>
70333

>  <dipole>
1.95

>  <excitation_energy_1>
2.513

>  <excitation_energy_2>
2.959

>  <excitation_energy_3>
3.64

>  <excitation_energy_4>
3.856

>  <homo_energy>
-5.089

>  <homo_lumo_gap>
3.197

>  <logP>
3.717

>  <lumo_energy>
-1.891

>  <melting_point>
54.33

>  <molecular_refractivity>
57.96

>  <oscillator_strength_1>
0.0337

>  <oscillator_strength_2>
0.0269

>  <oscillator_strength_3>
0.0148

>  <oscillator_strength_4>
0.1178

>  <open_babel_can_smiles>
CC1=CC(=C2C(=CC=C2)[C]([CH]1)C)C

>  <mulliken_charges>
27
1   -0.527939
2   -0.526886
3   -0.506915
4   -0.147688
5   -0.18478
6   -0.208951
7   -0.22398
8   -0.320932
9   0.190644
10   0.130545
11   0.13614
12   0.013494
13   0.061492
14   0.158722
15   0.170139
16   0.170808
17   0.165991
18   0.166117
19   0.167194
20   0.148586
21   0.165523
22   0.164039
23   0.121516
24   0.123796
25   0.122124
26   0.118122
27   0.153078

>  <lowdin_charges>
27
1   -0.436781
2   -0.444297
3   -0.441388
4   -0.169131
5   -0.199735
6   -0.180519
7   -0.211038
8   -0.206423
9   0.045643
10   0.048833
11   0.023493
12   -0.026671
13   -0.0423
14   0.159145
15   0.164291
16   0.165374
17   0.164315
18   0.163548
19   0.163031
20   0.154322
21   0.161142
22   0.16659
23   0.154009
24   0.155144
25   0.155224
26   0.151394
27   0.162785

$$$$

