PCCDB-ID:  52621
public computational chemistry database (PCCDB) project, http://pccdb.org

 39 41  0  0  1  0  0  0  0  0999 V2000
    0.8153   -0.9547   -0.5993 C   0  0  0  0  0  0  0  0  0  0  0  0
    0.7121   -6.4269   -3.2677 C   0  0  0  0  0  0  0  0  0  0  0  0
    2.0826   -6.5042   -3.5143 C   0  0  0  0  0  0  0  0  0  0  0  0
    0.1006   -5.1754   -3.1549 C   0  0  0  0  0  0  0  0  0  0  0  0
    2.8362   -5.3349   -3.6455 C   0  0  0  0  0  0  0  0  0  0  0  0
    0.8570   -4.0122   -3.2881 C   0  0  0  0  0  0  0  0  0  0  0  0
    4.9384   -0.5912   -0.6055 C   0  0  0  0  0  0  0  0  0  0  0  0
    2.7426    0.6029   -0.7451 C   0  0  0  0  0  0  0  0  0  0  0  0
    2.9266   -1.4368    0.6173 C   0  0  0  0  0  0  0  0  0  0  0  0
    3.0459   -2.8044   -3.7002 C   0  0  0  0  0  0  0  0  0  0  0  0
    3.7346   -0.6864   -2.7900 C   0  0  0  0  0  0  0  0  0  0  0  0
    3.9175   -2.7166   -1.4342 C   0  0  0  0  0  0  0  0  0  0  0  0
    2.2361   -4.0758   -3.5327 C   0  0  0  0  0  0  0  0  0  0  0  0
    4.0000    0.1777   -1.5465 C   0  0  2  0  0  0  0  0  0  0  0  0
    4.1835   -1.8600   -0.1844 C   0  0  1  0  0  0  0  0  0  0  0  0
    2.0512   -0.4570   -0.0181 N   0  0  0  0  0  0  0  0  0  0  0  0
    3.1727   -2.0045   -2.4778 N   0  0  0  0  0  0  0  0  0  0  0  0
    0.1517   -0.1077   -0.8138 H   0  0  0  0  0  0  0  0  0  0  0  0
    0.3021   -1.5860    0.1361 H   0  0  0  0  0  0  0  0  0  0  0  0
    0.9551   -1.5373   -1.5222 H   0  0  0  0  0  0  0  0  0  0  0  0
    0.1221   -7.3341   -3.1667 H   0  0  0  0  0  0  0  0  0  0  0  0
    2.5674   -7.4728   -3.6054 H   0  0  0  0  0  0  0  0  0  0  0  0
   -0.9680   -5.1065   -2.9679 H   0  0  0  0  0  0  0  0  0  0  0  0
    3.9047   -5.3999   -3.8398 H   0  0  0  0  0  0  0  0  0  0  0  0
    0.3769   -3.0408   -3.2048 H   0  0  0  0  0  0  0  0  0  0  0  0
    5.1951    0.0195    0.2707 H   0  0  0  0  0  0  0  0  0  0  0  0
    5.8789   -0.8457   -1.1127 H   0  0  0  0  0  0  0  0  0  0  0  0
    2.0202    1.0948   -1.4062 H   0  0  0  0  0  0  0  0  0  0  0  0
    3.0799    1.3695   -0.0252 H   0  0  0  0  0  0  0  0  0  0  0  0
    3.2962   -1.0183    1.5700 H   0  0  0  0  0  0  0  0  0  0  0  0
    2.3274   -2.3171    0.8754 H   0  0  0  0  0  0  0  0  0  0  0  0
    2.5595   -2.1675   -4.4508 H   0  0  0  0  0  0  0  0  0  0  0  0
    4.0444   -3.0633   -4.1084 H   0  0  0  0  0  0  0  0  0  0  0  0
    4.6938   -0.7838   -3.3428 H   0  0  0  0  0  0  0  0  0  0  0  0
    3.0351   -0.1753   -3.4653 H   0  0  0  0  0  0  0  0  0  0  0  0
    3.3503   -3.6149   -1.1667 H   0  0  0  0  0  0  0  0  0  0  0  0
    4.8997   -3.0647   -1.8221 H   0  0  0  0  0  0  0  0  0  0  0  0
    4.4870    1.0992   -1.8960 H   0  0  0  0  0  0  0  0  0  0  0  0
    4.8069   -2.4643    0.4895 H   0  0  0  0  0  0  0  0  0  0  0  0
  1 16  1  0  0  0  0
  1 19  1  0  0  0  0
  2 21  1  0  0  0  0
  2  4  1  0  0  0  0
  3  2  2  0  0  0  0
  4 23  1  0  0  0  0
  5 13  2  0  0  0  0
  5  3  1  0  0  0  0
  6 25  1  0  0  0  0
  6  4  2  0  0  0  0
  7 15  1  0  0  0  0
  7 26  1  0  0  0  0
  8 29  1  0  0  0  0
  8 16  1  0  0  0  0
  9 31  1  0  0  0  0
  9 30  1  0  0  0  0
 10 13  1  0  0  0  0
 10 17  1  0  0  0  0
 11 17  1  0  0  0  0
 11 14  1  0  0  0  0
 12 36  1  0  0  0  0
 12 15  1  0  0  0  0
 13  6  1  0  0  0  0
 14 38  1  6  0  0  0
 14  8  1  0  0  0  0
 14  7  1  0  0  0  0
 15 39  1  1  0  0  0
 15  9  1  0  0  0  0
 16  9  1  0  0  0  0
 17 12  1  0  0  0  0
 18  1  1  0  0  0  0
 20  1  1  0  0  0  0
 22  3  1  0  0  0  0
 24  5  1  0  0  0  0
 27  7  1  0  0  0  0
 28  8  1  0  0  0  0
 32 10  1  0  0  0  0
 33 10  1  0  0  0  0
 34 11  1  0  0  0  0
 35 11  1  0  0  0  0
 37 12  1  0  0  0  0
M  END
>  <HBA>
2

>  <HBD>
0

>  <TPSA>
6.48

>  <cid>
52621

>  <dipole>
1.01

>  <excitation_energy_1>
4.088

>  <excitation_energy_2>
4.272

>  <excitation_energy_3>
4.331

>  <excitation_energy_4>
4.679

>  <homo_energy>
-4.863

>  <homo_lumo_gap>
4.819

>  <logP>
1.946

>  <lumo_energy>
-0.044

>  <melting_point>
52.27

>  <molecular_refractivity>
79.26

>  <oscillator_strength_1>
0.0003

>  <oscillator_strength_2>
0.0025

>  <oscillator_strength_3>
0.0209

>  <oscillator_strength_4>
0.0021

>  <open_babel_can_smiles>
CN1C[C@@H]2CN(C[C@H](C1)C2)Cc1ccccc1

>  <mulliken_charges>
39
1   -0.312043
2   -0.129297
3   -0.128716
4   -0.132368
5   -0.180753
6   -0.16352
7   -0.273929
8   -0.123741
9   -0.12445
10   -0.201655
11   -0.113135
12   -0.119659
13   0.150433
14   -0.10664
15   -0.107025
16   -0.368958
17   -0.385835
18   0.132669
19   0.135847
20   0.158145
21   0.128167
22   0.128124
23   0.12893
24   0.125078
25   0.135116
26   0.129045
27   0.126719
28   0.129173
29   0.125173
30   0.124409
31   0.132634
32   0.145578
33   0.113757
34   0.104401
35   0.132135
36   0.150365
37   0.099452
38   0.117835
39   0.118541

>  <lowdin_charges>
39
1   -0.364225
2   -0.159263
3   -0.157767
4   -0.153908
5   -0.164531
6   -0.157208
7   -0.284973
8   -0.200698
9   -0.199549
10   -0.196296
11   -0.201569
12   -0.204149
13   -0.011283
14   -0.147958
15   -0.148625
16   -0.191509
17   -0.181343
18   0.14092
19   0.144077
20   0.133701
21   0.157456
22   0.156811
23   0.155318
24   0.152865
25   0.159262
26   0.141741
27   0.139611
28   0.145979
29   0.13386
30   0.132288
31   0.146902
32   0.152641
33   0.120042
34   0.114995
35   0.142196
36   0.151582
37   0.113141
38   0.143987
39   0.14548

$$$$

