PCCDB-ID:  66301
public computational chemistry database (PCCDB) project, http://pccdb.org

 22 22  0  0  0  0  0  0  0  0999 V2000
    1.3373   -0.6175    0.8852 C   0  0  0  0  0  0  0  0  0  0  0  0
    5.3897   -0.1634   -4.0197 C   0  0  0  0  0  0  0  0  0  0  0  0
    2.5513   -2.6392   -0.6640 C   0  0  0  0  0  0  0  0  0  0  0  0
    4.0407   -3.1876   -2.5040 C   0  0  0  0  0  0  0  0  0  0  0  0
    3.6487   -0.8582   -1.9188 C   0  0  0  0  0  0  0  0  0  0  0  0
    3.1842   -3.5979   -1.4821 C   0  0  0  0  0  0  0  0  0  0  0  0
    2.7902   -1.2859   -0.8929 C   0  0  0  0  0  0  0  0  0  0  0  0
    4.2643   -1.8202   -2.7178 C   0  0  0  0  0  0  0  0  0  0  0  0
    2.8982   -4.9563   -1.2983 N   0  0  0  0  0  0  0  0  0  0  0  0
    2.2307   -0.2755   -0.1597 O   0  0  0  0  0  0  0  0  0  0  0  0
    5.1177   -1.5271   -3.7446 O   0  0  0  0  0  0  0  0  0  0  0  0
    1.0100    0.3284    1.3217 H   0  0  0  0  0  0  0  0  0  0  0  0
    1.8306   -1.2209    1.6592 H   0  0  0  0  0  0  0  0  0  0  0  0
    0.4627   -1.1640    0.5078 H   0  0  0  0  0  0  0  0  0  0  0  0
    6.0742   -0.1600   -4.8704 H   0  0  0  0  0  0  0  0  0  0  0  0
    5.8693    0.3338   -3.1661 H   0  0  0  0  0  0  0  0  0  0  0  0
    4.4766    0.3850   -4.2865 H   0  0  0  0  0  0  0  0  0  0  0  0
    1.8794   -2.9711    0.1192 H   0  0  0  0  0  0  0  0  0  0  0  0
    4.5351   -3.9066   -3.1499 H   0  0  0  0  0  0  0  0  0  0  0  0
    3.8024    0.2046   -2.0508 H   0  0  0  0  0  0  0  0  0  0  0  0
    2.6359   -5.2065   -0.3526 H   0  0  0  0  0  0  0  0  0  0  0  0
    3.6073   -5.5842   -1.6569 H   0  0  0  0  0  0  0  0  0  0  0  0
  1 12  1  0  0  0  0
  1 13  1  0  0  0  0
  2 11  1  0  0  0  0
  2 16  1  0  0  0  0
  3 18  1  0  0  0  0
  4  6  1  0  0  0  0
  5  7  2  0  0  0  0
  6  9  1  0  0  0  0
  6  3  2  0  0  0  0
  7  3  1  0  0  0  0
  7 10  1  0  0  0  0
  8  4  2  0  0  0  0
  8  5  1  0  0  0  0
  9 21  1  0  0  0  0
 10  1  1  0  0  0  0
 11  8  1  0  0  0  0
 14  1  1  0  0  0  0
 15  2  1  0  0  0  0
 17  2  1  0  0  0  0
 19  4  1  0  0  0  0
 20  5  1  0  0  0  0
 22  9  1  0  0  0  0
M  END
>  <HBA>
3

>  <HBD>
1

>  <TPSA>
44.48

>  <cid>
66301

>  <dipole>
1.78

>  <excitation_energy_1>
4.69

>  <excitation_energy_2>
4.881

>  <excitation_energy_3>
5.085

>  <excitation_energy_4>
5.26

>  <homo_energy>
-5.222

>  <homo_lumo_gap>
6.019

>  <logP>
1.867

>  <lumo_energy>
0.797

>  <melting_point>
64.69

>  <molecular_refractivity>
43.83

>  <oscillator_strength_1>
0.004

>  <oscillator_strength_2>
0.0019

>  <oscillator_strength_3>
0.0071

>  <oscillator_strength_4>
0.0063

>  <open_babel_can_smiles>
COc1cc(OC)cc(c1)N

>  <mulliken_charges>
22
1   -0.209909
2   -0.210221
3   -0.2588
4   -0.239687
5   -0.269201
6   0.316012
7   0.378962
8   0.383589
9   -0.790602
10   -0.513076
11   -0.515335
12   0.165789
13   0.147326
14   0.15153
15   0.164434
16   0.150833
17   0.152114
18   0.112823
19   0.118205
20   0.13016
21   0.315829
22   0.319225

>  <lowdin_charges>
22
1   -0.279568
2   -0.278834
3   -0.27735
4   -0.254766
5   -0.270674
6   0.078077
7   0.119261
8   0.119701
9   -0.489346
10   -0.199326
11   -0.200674
12   0.160931
13   0.143758
14   0.145223
15   0.16019
16   0.145681
17   0.145957
18   0.156669
19   0.161256
20   0.166754
21   0.27155
22   0.27553

$$$$

