PCCDB-ID:  11487
public computational chemistry database (PCCDB) project, http://pccdb.org

 24 25  0  0  0  0  0  0  0  0999 V2000
   -1.9478   -0.5826    0.7795 C   0  0  0  0  0  0  0  0  0  0  0  0
    4.8789   -4.2056    0.1131 C   0  0  0  0  0  0  0  0  0  0  0  0
   -1.2777    0.3377   -0.0298 C   0  0  0  0  0  0  0  0  0  0  0  0
   -1.2307   -1.6489    1.3243 C   0  0  0  0  0  0  0  0  0  0  0  0
    5.3175   -2.8887    0.2682 C   0  0  0  0  0  0  0  0  0  0  0  0
    3.5184   -4.4446   -0.0882 C   0  0  0  0  0  0  0  0  0  0  0  0
    0.0783    0.1845   -0.3030 C   0  0  0  0  0  0  0  0  0  0  0  0
    0.1312   -1.8053    1.0709 C   0  0  0  0  0  0  0  0  0  0  0  0
    4.4107   -1.8329    0.2423 C   0  0  0  0  0  0  0  0  0  0  0  0
    2.6026   -3.3947   -0.1337 C   0  0  0  0  0  0  0  0  0  0  0  0
    0.8042   -0.8913    0.2408 C   0  0  0  0  0  0  0  0  0  0  0  0
    3.0383   -2.0695    0.0437 C   0  0  0  0  0  0  0  0  0  0  0  0
    2.1752   -0.9701   -0.0273 N   0  0  0  0  0  0  0  0  0  0  0  0
   -3.0076   -0.4670    0.9860 H   0  0  0  0  0  0  0  0  0  0  0  0
    5.5854   -5.0297    0.1445 H   0  0  0  0  0  0  0  0  0  0  0  0
   -1.8147    1.1788   -0.4607 H   0  0  0  0  0  0  0  0  0  0  0  0
   -1.7307   -2.3658    1.9708 H   0  0  0  0  0  0  0  0  0  0  0  0
    6.3730   -2.6791    0.4217 H   0  0  0  0  0  0  0  0  0  0  0  0
    3.1605   -5.4615   -0.2281 H   0  0  0  0  0  0  0  0  0  0  0  0
    0.5879    0.8967   -0.9489 H   0  0  0  0  0  0  0  0  0  0  0  0
    0.6775   -2.6184    1.5352 H   0  0  0  0  0  0  0  0  0  0  0  0
    4.7591   -0.8117    0.3827 H   0  0  0  0  0  0  0  0  0  0  0  0
    1.5563   -3.5972   -0.3325 H   0  0  0  0  0  0  0  0  0  0  0  0
    2.6131   -0.0963   -0.2823 H   0  0  0  0  0  0  0  0  0  0  0  0
  1 14  1  0  0  0  0
  1  4  2  0  0  0  0
  2 15  1  0  0  0  0
  2  5  2  0  0  0  0
  3  1  1  0  0  0  0
  4 17  1  0  0  0  0
  5 18  1  0  0  0  0
  6  2  1  0  0  0  0
  7  3  2  0  0  0  0
  7 11  1  0  0  0  0
  8  4  1  0  0  0  0
  8 21  1  0  0  0  0
  9  5  1  0  0  0  0
  9 22  1  0  0  0  0
 10  6  2  0  0  0  0
 10 12  1  0  0  0  0
 11  8  2  0  0  0  0
 12  9  2  0  0  0  0
 13 12  1  0  0  0  0
 13 11  1  0  0  0  0
 16  3  1  0  0  0  0
 19  6  1  0  0  0  0
 20  7  1  0  0  0  0
 23 10  1  0  0  0  0
 24 13  1  0  0  0  0
M  END
>  <HBA>
0

>  <HBD>
1

>  <TPSA>
12.03

>  <cid>
11487

>  <dipole>
0.87

>  <excitation_energy_1>
4.207

>  <excitation_energy_2>
4.252

>  <excitation_energy_3>
4.336

>  <excitation_energy_4>
4.607

>  <homo_energy>
-5.083

>  <homo_lumo_gap>
4.963

>  <logP>
3.503

>  <lumo_energy>
-0.12

>  <melting_point>
77.44

>  <molecular_refractivity>
55.99

>  <oscillator_strength_1>
0.145

>  <oscillator_strength_2>
0.248

>  <oscillator_strength_3>
0.0219

>  <oscillator_strength_4>
0.1039

>  <open_babel_can_smiles>
c1ccc(cc1)Nc1ccccc1

>  <mulliken_charges>
24
1   -0.134946
2   -0.134681
3   -0.132453
4   -0.140556
5   -0.13253
6   -0.140596
7   -0.192657
8   -0.176558
9   -0.191709
10   -0.175021
11   0.367406
12   0.366461
13   -0.795569
14   0.124102
15   0.124562
16   0.12788
17   0.128721
18   0.128227
19   0.129092
20   0.118981
21   0.144186
22   0.119416
23   0.144674
24   0.323568

>  <lowdin_charges>
24
1   -0.180142
2   -0.181883
3   -0.147509
4   -0.14765
5   -0.14531
6   -0.146244
7   -0.197277
8   -0.197804
9   -0.193714
10   -0.192278
11   0.061406
12   0.057507
13   -0.253049
14   0.154719
15   0.157418
16   0.158194
17   0.158659
18   0.155991
19   0.156792
20   0.153801
21   0.167177
22   0.15184
23   0.164809
24   0.284548

$$$$

