PCCDB-ID:  15719
public computational chemistry database (PCCDB) project, http://pccdb.org

 22 22  0  0  0  0  0  0  0  0999 V2000
    1.9989    0.6359   -0.1963 C   0  0  0  0  0  0  0  0  0  0  0  0
    4.9962   -0.7407    3.2980 C   0  0  0  0  0  0  0  0  0  0  0  0
    5.1385    0.5759    3.7558 C   0  0  0  0  0  0  0  0  0  0  0  0
    4.1830   -1.0267    2.2113 C   0  0  0  0  0  0  0  0  0  0  0  0
    3.6359    1.3294    2.0118 C   0  0  0  0  0  0  0  0  0  0  0  0
    4.6413    3.0510    3.5608 C   0  0  0  0  0  0  0  0  0  0  0  0
    4.4572    1.6170    3.1145 C   0  0  0  0  0  0  0  0  0  0  0  0
    3.4948    0.0127    1.5622 C   0  0  0  0  0  0  0  0  0  0  0  0
    5.7827    3.8148    2.8652 C   0  0  0  0  0  0  0  0  0  0  0  0
    5.7856    5.0142    2.7459 O   0  0  0  0  0  0  0  0  0  0  0  0
    6.8245    3.0686    2.4305 O   0  0  0  0  0  0  0  0  0  0  0  0
    2.7205   -0.3648    0.5086 O   0  0  0  0  0  0  0  0  0  0  0  0
    1.4579    0.1118   -0.9858 H   0  0  0  0  0  0  0  0  0  0  0  0
    2.6730    1.3754   -0.6475 H   0  0  0  0  0  0  0  0  0  0  0  0
    1.2809    1.1492    0.4562 H   0  0  0  0  0  0  0  0  0  0  0  0
    5.5191   -1.5478    3.8036 H   0  0  0  0  0  0  0  0  0  0  0  0
    5.7572    0.7858    4.6252 H   0  0  0  0  0  0  0  0  0  0  0  0
    4.0575   -2.0401    1.8439 H   0  0  0  0  0  0  0  0  0  0  0  0
    3.1143    2.1424    1.5187 H   0  0  0  0  0  0  0  0  0  0  0  0
    4.8603    3.0877    4.6363 H   0  0  0  0  0  0  0  0  0  0  0  0
    3.7367    3.6445    3.4052 H   0  0  0  0  0  0  0  0  0  0  0  0
    6.6223    2.1230    2.5613 H   0  0  0  0  0  0  0  0  0  0  0  0
  1 15  1  0  0  0  0
  1 12  1  0  0  0  0
  2  3  1  0  0  0  0
  2 16  1  0  0  0  0
  3 17  1  0  0  0  0
  4  2  2  0  0  0  0
  5  7  1  0  0  0  0
  6 20  1  0  0  0  0
  7  6  1  0  0  0  0
  7  3  2  0  0  0  0
  8  5  2  0  0  0  0
  8  4  1  0  0  0  0
  9  6  1  0  0  0  0
 10  9  2  0  0  0  0
 11 22  1  0  0  0  0
 11  9  1  0  0  0  0
 12  8  1  0  0  0  0
 13  1  1  0  0  0  0
 14  1  1  0  0  0  0
 18  4  1  0  0  0  0
 19  5  1  0  0  0  0
 21  6  1  0  0  0  0
M  END
>  <HBA>
3

>  <HBD>
1

>  <TPSA>
46.53

>  <cid>
15719

>  <dipole>
4.28

>  <excitation_energy_1>
4.928

>  <excitation_energy_2>
5.375

>  <excitation_energy_3>
5.588

>  <excitation_energy_4>
5.671

>  <homo_energy>
-6.389

>  <homo_lumo_gap>
5.796

>  <logP>
1.322

>  <lumo_energy>
-0.593

>  <melting_point>
89.75

>  <molecular_refractivity>
44.48

>  <oscillator_strength_1>
0.0408

>  <oscillator_strength_2>
0.0403

>  <oscillator_strength_3>
0.0164

>  <oscillator_strength_4>
0.0008

>  <open_babel_can_smiles>
COc1cccc(c1)CC(=O)O

>  <mulliken_charges>
22
1   -0.21981
2   -0.124717
3   -0.21775
4   -0.168927
5   -0.235634
6   -0.45553
7   0.109549
8   0.38414
9   0.591852
10   -0.442314
11   -0.56678
12   -0.503979
13   0.175893
14   0.159249
15   0.156433
16   0.141363
17   0.135717
18   0.146748
19   0.141238
20   0.190515
21   0.186839
22   0.415904

>  <lowdin_charges>
22
1   -0.282374
2   -0.142767
3   -0.208035
4   -0.178229
5   -0.22146
6   -0.312779
7   -0.012857
8   0.110781
9   0.187802
10   -0.242792
11   -0.352268
12   -0.192124
13   0.167588
14   0.150666
15   0.149392
16   0.165337
17   0.159512
18   0.170435
19   0.167573
20   0.178479
21   0.180063
22   0.358057

$$$$

