PCCDB-ID:  15970
public computational chemistry database (PCCDB) project, http://pccdb.org

 15 15  0  0  0  0  0  0  0  0999 V2000
   -1.4157    0.5722   -0.0221 C   0  0  0  0  0  0  0  0  0  0  0  0
   -0.7625   -0.6982   -0.0047 C   0  0  0  0  0  0  0  0  0  0  0  0
   -0.5351    1.6160    0.0285 C   0  0  0  0  0  0  0  0  0  0  0  0
    1.6097   -1.7298    0.0463 C   0  0  0  0  0  0  0  0  0  0  0  0
    0.6085   -0.6110    0.0618 C   0  0  0  0  0  0  0  0  0  0  0  0
    2.1472   -2.1352   -1.3420 C   0  0  0  0  0  0  0  0  0  0  0  0
    3.1763   -2.7460   -1.4798 O   0  0  0  0  0  0  0  0  0  0  0  0
    1.3719   -1.8100   -2.3993 O   0  0  0  0  0  0  0  0  0  0  0  0
    1.1083    1.0646    0.0955 S   0  0  0  0  0  0  0  0  0  0  0  0
   -2.4921    0.6973   -0.0637 H   0  0  0  0  0  0  0  0  0  0  0  0
   -1.2899   -1.6475   -0.0195 H   0  0  0  0  0  0  0  0  0  0  0  0
   -0.7505    2.6761    0.0354 H   0  0  0  0  0  0  0  0  0  0  0  0
    1.1471   -2.6303    0.4710 H   0  0  0  0  0  0  0  0  0  0  0  0
    2.4841   -1.5134    0.6659 H   0  0  0  0  0  0  0  0  0  0  0  0
    0.6068   -1.2916   -2.0845 H   0  0  0  0  0  0  0  0  0  0  0  0
  1  2  1  0  0  0  0
  1  3  2  0  0  0  0
  2  5  2  0  0  0  0
  3 12  1  0  0  0  0
  3  9  1  0  0  0  0
  4  5  1  0  0  0  0
  4 13  1  0  0  0  0
  4 14  1  0  0  0  0
  5  9  1  0  0  0  0
  6  4  1  0  0  0  0
  7  6  2  0  0  0  0
  8 15  1  0  0  0  0
  8  6  1  0  0  0  0
 10  1  1  0  0  0  0
 11  2  1  0  0  0  0
M  END
>  <HBA>
3

>  <HBD>
1

>  <TPSA>
65.54

>  <cid>
15970

>  <dipole>
4.97

>  <excitation_energy_1>
5.264

>  <excitation_energy_2>
5.472

>  <excitation_energy_3>
5.687

>  <excitation_energy_4>
5.706

>  <homo_energy>
-6.672

>  <homo_lumo_gap>
5.733

>  <logP>
1.375

>  <lumo_energy>
-0.939

>  <melting_point>
82.87

>  <molecular_refractivity>
35.86

>  <oscillator_strength_1>
0.1516

>  <oscillator_strength_2>
0.0038

>  <oscillator_strength_3>
0.0048

>  <oscillator_strength_4>
0.0754

>  <open_babel_can_smiles>
OC(=O)Cc1cccs1

>  <mulliken_charges>
15
1   -0.091317
2   -0.141052
3   -0.341666
4   -0.427266
5   -0.170008
6   0.593198
7   -0.438699
8   -0.562479
9   0.271168
10   0.152015
11   0.15092
12   0.183349
13   0.202274
14   0.200694
15   0.418871

>  <lowdin_charges>
15
1   -0.177421
2   -0.201863
3   -0.310478
4   -0.312576
5   -0.183667
6   0.186263
7   -0.239755
8   -0.349642
9   0.326488
10   0.169232
11   0.168728
12   0.185936
13   0.18879
14   0.188391
15   0.361575

$$$$

