PCCDB-ID:  11598
public computational chemistry database (PCCDB) project, http://pccdb.org

 16 15  0  0  0  0  0  0  0  0999 V2000
    0.7429   -0.6814   -0.6586 C   0  0  0  0  0  0  0  0  0  0  0  0
    6.4910    1.0968   -0.4580 C   0  0  0  0  0  0  0  0  0  0  0  0
    1.7539   -0.0325   -0.0796 C   0  0  0  0  0  0  0  0  0  0  0  0
    5.4805    0.4481   -1.0379 C   0  0  0  0  0  0  0  0  0  0  0  0
    2.9527    0.5259   -0.7962 C   0  0  0  0  0  0  0  0  0  0  0  0
    4.2816   -0.1113   -0.3222 C   0  0  0  0  0  0  0  0  0  0  0  0
   -0.0952   -1.0675   -0.0844 H   0  0  0  0  0  0  0  0  0  0  0  0
    0.7118   -0.8473   -1.7339 H   0  0  0  0  0  0  0  0  0  0  0  0
    7.3291    1.4838   -1.0316 H   0  0  0  0  0  0  0  0  0  0  0  0
    6.5219    1.2615    0.6175 H   0  0  0  0  0  0  0  0  0  0  0  0
    1.7416    0.1077    1.0031 H   0  0  0  0  0  0  0  0  0  0  0  0
    5.4931    0.3089   -2.1208 H   0  0  0  0  0  0  0  0  0  0  0  0
    3.0136    1.6112   -0.6292 H   0  0  0  0  0  0  0  0  0  0  0  0
    2.8395    0.3803   -1.8786 H   0  0  0  0  0  0  0  0  0  0  0  0
    4.3943    0.0335    0.7604 H   0  0  0  0  0  0  0  0  0  0  0  0
    4.2210   -1.1965   -0.4900 H   0  0  0  0  0  0  0  0  0  0  0  0
  1  7  1  0  0  0  0
  1  3  2  0  0  0  0
  2 10  1  0  0  0  0
  3 11  1  0  0  0  0
  4  2  2  0  0  0  0
  4  6  1  0  0  0  0
  5 13  1  0  0  0  0
  5  6  1  0  0  0  0
  5  3  1  0  0  0  0
  6 15  1  0  0  0  0
  8  1  1  0  0  0  0
  9  2  1  0  0  0  0
 12  4  1  0  0  0  0
 14  5  1  0  0  0  0
 16  6  1  0  0  0  0
M  END
>  <HBA>
0

>  <HBD>
0

>  <TPSA>
0.0

>  <cid>
11598

>  <dipole>
0.0

>  <excitation_energy_1>
6.402

>  <excitation_energy_2>
6.416

>  <excitation_energy_3>
6.557

>  <excitation_energy_4>
6.634

>  <homo_energy>
-6.71

>  <homo_lumo_gap>
7.255

>  <logP>
2.139

>  <lumo_energy>
0.544

>  <melting_point>
-67.76

>  <molecular_refractivity>
30.01

>  <oscillator_strength_1>
0.1461

>  <oscillator_strength_2>
0.0

>  <oscillator_strength_3>
0.0

>  <oscillator_strength_4>
0.097

>  <open_babel_can_smiles>
C=CCCC=C

>  <mulliken_charges>
16
1   -0.340395
2   -0.340404
3   -0.041907
4   -0.041899
5   -0.301882
6   -0.301913
7   0.13825
8   0.134197
9   0.138252
10   0.134197
11   0.123963
12   0.123957
13   0.150021
14   0.137774
15   0.137773
16   0.150014

>  <lowdin_charges>
16
1   -0.342219
2   -0.342219
3   -0.142496
4   -0.142494
5   -0.26673
6   -0.26673
7   0.158685
8   0.151551
9   0.158685
10   0.151548
11   0.146644
12   0.14664
13   0.150429
14   0.144142
15   0.144137
16   0.150427

$$$$

