PCCDB-ID:  37204
public computational chemistry database (PCCDB) project, http://pccdb.org

 28 29  0  0  0  0  0  0  0  0999 V2000
    1.1574   -0.0981   -0.7501 C   0  0  0  0  0  0  0  0  0  0  0  0
    1.7486   -2.3458    1.0593 C   0  0  0  0  0  0  0  0  0  0  0  0
    8.3732    2.3725   -1.5770 C   0  0  0  0  0  0  0  0  0  0  0  0
    3.6082    0.4548   -0.7717 C   0  0  0  0  0  0  0  0  0  0  0  0
    4.1757   -1.7118    0.9690 C   0  0  0  0  0  0  0  0  0  0  0  0
    2.5799   -0.3671   -0.3132 C   0  0  0  0  0  0  0  0  0  0  0  0
    2.8646   -1.4562    0.5620 C   0  0  0  0  0  0  0  0  0  0  0  0
    8.9890    1.3624   -0.6402 C   0  0  0  0  0  0  0  0  0  0  0  0
    4.9260    0.2073   -0.3695 C   0  0  0  0  0  0  0  0  0  0  0  0
    5.1894   -0.8786    0.4981 C   0  0  0  0  0  0  0  0  0  0  0  0
    7.0497    0.2223   -0.0436 C   0  0  0  0  0  0  0  0  0  0  0  0
    8.4056    0.4329    0.0197 N   0  0  0  0  0  0  0  0  0  0  0  0
    6.0968    0.8749   -0.6903 N   0  0  0  0  0  0  0  0  0  0  0  0
    6.5562   -0.8435    0.6856 N   0  0  0  0  0  0  0  0  0  0  0  0
   10.3321    1.4356   -0.4582 O   0  0  0  0  0  0  0  0  0  0  0  0
    1.1070    0.7826   -1.3976 H   0  0  0  0  0  0  0  0  0  0  0  0
    0.4905    0.0813    0.1039 H   0  0  0  0  0  0  0  0  0  0  0  0
    0.7317   -0.9432   -1.3078 H   0  0  0  0  0  0  0  0  0  0  0  0
    2.1383   -3.1419    1.7016 H   0  0  0  0  0  0  0  0  0  0  0  0
    1.2045   -2.8226    0.2334 H   0  0  0  0  0  0  0  0  0  0  0  0
    1.0052   -1.7848    1.6413 H   0  0  0  0  0  0  0  0  0  0  0  0
    7.6357    2.9770   -1.0416 H   0  0  0  0  0  0  0  0  0  0  0  0
    7.8172    1.8624   -2.3680 H   0  0  0  0  0  0  0  0  0  0  0  0
    9.1278    3.0295   -2.0251 H   0  0  0  0  0  0  0  0  0  0  0  0
    3.3952    1.2849   -1.4399 H   0  0  0  0  0  0  0  0  0  0  0  0
    4.3884   -2.5424    1.6376 H   0  0  0  0  0  0  0  0  0  0  0  0
    7.1306   -1.4471    1.2547 H   0  0  0  0  0  0  0  0  0  0  0  0
   10.6883    2.1587   -0.9961 H   0  0  0  0  0  0  0  0  0  0  0  0
  1  6  1  0  0  0  0
  1 17  1  0  0  0  0
  2 21  1  0  0  0  0
  2 19  1  0  0  0  0
  3 22  1  0  0  0  0
  3  8  1  0  0  0  0
  4  9  2  0  0  0  0
  4  6  1  0  0  0  0
  5 26  1  0  0  0  0
  6  7  2  0  0  0  0
  7  5  1  0  0  0  0
  7  2  1  0  0  0  0
  8 15  1  0  0  0  0
  8 12  2  0  0  0  0
  9 10  1  0  0  0  0
 10 14  1  0  0  0  0
 10  5  2  0  0  0  0
 11 12  1  0  0  0  0
 11 14  1  0  0  0  0
 13  9  1  0  0  0  0
 13 11  2  0  0  0  0
 14 27  1  0  0  0  0
 16  1  1  0  0  0  0
 18  1  1  0  0  0  0
 20  2  1  0  0  0  0
 23  3  1  0  0  0  0
 24  3  1  0  0  0  0
 25  4  1  0  0  0  0
 28 15  1  0  0  0  0
M  END
>  <HBA>
3

>  <HBD>
2

>  <TPSA>
57.78

>  <cid>
37204

>  <dipole>
1.51

>  <excitation_energy_1>
4.23

>  <excitation_energy_2>
4.44

>  <excitation_energy_3>
4.625

>  <excitation_energy_4>
5.102

>  <homo_energy>
-5.309

>  <homo_lumo_gap>
4.582

>  <logP>
2.211

>  <lumo_energy>
-0.727

>  <melting_point>
176.39

>  <molecular_refractivity>
60.34

>  <oscillator_strength_1>
0.5728

>  <oscillator_strength_2>
0.0261

>  <oscillator_strength_3>
0.0005

>  <oscillator_strength_4>
0.0005

>  <open_babel_can_smiles>
C/C(=N\c1[nH]c2c(n1)cc(c(c2)C)C)/O

>  <mulliken_charges>
28
1   -0.533568
2   -0.532935
3   -0.50583
4   -0.256539
5   -0.242537
6   0.126743
7   0.116798
8   0.477794
9   0.260178
10   0.37714
11   0.676741
12   -0.522997
13   -0.596782
14   -0.746265
15   -0.562257
16   0.153483
17   0.153787
18   0.154281
19   0.150346
20   0.156623
21   0.156995
22   0.212045
23   0.211832
24   0.129519
25   0.123251
26   0.118586
27   0.332876
28   0.410692

>  <lowdin_charges>
28
1   -0.441813
2   -0.442584
3   -0.475874
4   -0.174895
5   -0.19861
6   -0.020467
7   -0.011952
8   0.171296
9   0.009303
10   0.01746
11   0.107027
12   -0.202225
13   -0.235926
14   -0.20382
15   -0.345425
16   0.15618
17   0.155106
18   0.155498
19   0.155113
20   0.157333
21   0.157554
22   0.19521
23   0.195009
24   0.148824
25   0.159129
26   0.154201
27   0.300427
28   0.358921

$$$$

