PCCDB-ID:  62421
public computational chemistry database (PCCDB) project, http://pccdb.org

 34 33  0  0  0  0  0  0  0  0999 V2000
    3.5458   -2.0017   -1.0737 C   0  0  0  0  0  0  0  0  0  0  0  0
    5.4750   -0.6975   -2.0479 C   0  0  0  0  0  0  0  0  0  0  0  0
    2.9090   -2.5491    6.3554 C   0  0  0  0  0  0  0  0  0  0  0  0
    5.2401   -3.4384    6.7491 C   0  0  0  0  0  0  0  0  0  0  0  0
    4.9255   -0.4220    0.3999 C   0  0  0  0  0  0  0  0  0  0  0  0
    4.8341   -1.8714    4.8100 C   0  0  0  0  0  0  0  0  0  0  0  0
    4.5623   -1.0580    1.7443 C   0  0  0  0  0  0  0  0  0  0  0  0
    4.1868   -0.5752    4.2799 C   0  0  0  0  0  0  0  0  0  0  0  0
    4.9304   -1.3967   -0.7931 C   0  0  0  0  0  0  0  0  0  0  0  0
    4.4111   -2.2476    6.2445 C   0  0  0  0  0  0  0  0  0  0  0  0
    4.7431   -0.1176    2.9344 C   0  0  0  0  0  0  0  0  0  0  0  0
    5.3101    0.9545    2.8229 O   0  0  0  0  0  0  0  0  0  0  0  0
    3.5820   -2.6760   -1.9376 H   0  0  0  0  0  0  0  0  0  0  0  0
    2.8148   -1.2138   -1.2986 H   0  0  0  0  0  0  0  0  0  0  0  0
    3.1646   -2.5783   -0.2235 H   0  0  0  0  0  0  0  0  0  0  0  0
    5.5244   -1.3879   -2.8985 H   0  0  0  0  0  0  0  0  0  0  0  0
    6.4822   -0.2992   -1.8779 H   0  0  0  0  0  0  0  0  0  0  0  0
    4.8299    0.1419   -2.3381 H   0  0  0  0  0  0  0  0  0  0  0  0
    2.6436   -2.8358    7.3798 H   0  0  0  0  0  0  0  0  0  0  0  0
    2.6266   -3.3806    5.6957 H   0  0  0  0  0  0  0  0  0  0  0  0
    2.2922   -1.6844    6.0877 H   0  0  0  0  0  0  0  0  0  0  0  0
    4.9809   -3.6908    7.7839 H   0  0  0  0  0  0  0  0  0  0  0  0
    6.3144   -3.2216    6.7152 H   0  0  0  0  0  0  0  0  0  0  0  0
    5.0599   -4.3307    6.1352 H   0  0  0  0  0  0  0  0  0  0  0  0
    5.9151    0.0392    0.4971 H   0  0  0  0  0  0  0  0  0  0  0  0
    4.2326    0.4055    0.1923 H   0  0  0  0  0  0  0  0  0  0  0  0
    5.9264   -1.7533    4.7882 H   0  0  0  0  0  0  0  0  0  0  0  0
    4.5991   -2.7099    4.1392 H   0  0  0  0  0  0  0  0  0  0  0  0
    5.1912   -1.9441    1.9265 H   0  0  0  0  0  0  0  0  0  0  0  0
    3.5301   -1.4336    1.7557 H   0  0  0  0  0  0  0  0  0  0  0  0
    4.3468    0.2451    4.9877 H   0  0  0  0  0  0  0  0  0  0  0  0
    3.1028   -0.7196    4.1723 H   0  0  0  0  0  0  0  0  0  0  0  0
    5.6154   -2.2235   -0.5469 H   0  0  0  0  0  0  0  0  0  0  0  0
    4.6326   -1.3850    6.8914 H   0  0  0  0  0  0  0  0  0  0  0  0
  1  9  1  0  0  0  0
  1 15  1  0  0  0  0
  2 17  1  0  0  0  0
  2  9  1  0  0  0  0
  3 19  1  0  0  0  0
  4 22  1  0  0  0  0
  5 25  1  0  0  0  0
  5  7  1  0  0  0  0
  6 10  1  0  0  0  0
  7 30  1  0  0  0  0
  7 29  1  0  0  0  0
  7 11  1  0  0  0  0
  8  6  1  0  0  0  0
  8 31  1  0  0  0  0
  9 33  1  0  0  0  0
  9  5  1  0  0  0  0
 10  3  1  0  0  0  0
 10  4  1  0  0  0  0
 10 34  1  0  0  0  0
 11  8  1  0  0  0  0
 12 11  2  0  0  0  0
 13  1  1  0  0  0  0
 14  1  1  0  0  0  0
 16  2  1  0  0  0  0
 18  2  1  0  0  0  0
 20  3  1  0  0  0  0
 21  3  1  0  0  0  0
 23  4  1  0  0  0  0
 24  4  1  0  0  0  0
 26  5  1  0  0  0  0
 27  6  1  0  0  0  0
 28  6  1  0  0  0  0
 32  8  1  0  0  0  0
M  END
>  <HBA>
1

>  <HBD>
0

>  <TPSA>
17.07

>  <cid>
62421

>  <dipole>
2.73

>  <excitation_energy_1>
4.348

>  <excitation_energy_2>
6.012

>  <excitation_energy_3>
6.462

>  <excitation_energy_4>
6.497

>  <homo_energy>
-6.449

>  <homo_lumo_gap>
6.229

>  <logP>
3.428

>  <lumo_energy>
-0.22

>  <melting_point>
-8.49

>  <molecular_refractivity>
55.19

>  <oscillator_strength_1>
0.0004

>  <oscillator_strength_2>
0.0125

>  <oscillator_strength_3>
0.0007

>  <oscillator_strength_4>
0.0045

>  <open_babel_can_smiles>
CC(CCC(=O)CCC(C)C)C

>  <mulliken_charges>
34
1   -0.445286
2   -0.441958
3   -0.447925
4   -0.444027
5   -0.241205
6   -0.265106
7   -0.370157
8   -0.346497
9   -0.0706
10   -0.065073
11   0.451826
12   -0.446607
13   0.141477
14   0.139585
15   0.139175
16   0.138331
17   0.142777
18   0.140504
19   0.14499
20   0.138226
21   0.146298
22   0.143341
23   0.143006
24   0.139128
25   0.152956
26   0.135895
27   0.142328
28   0.133473
29   0.162405
30   0.15273
31   0.160053
32   0.151068
33   0.117124
34   0.127744

>  <lowdin_charges>
34
1   -0.44968
2   -0.444169
3   -0.448445
4   -0.441475
5   -0.272487
6   -0.273218
7   -0.311888
8   -0.304483
9   -0.121669
10   -0.119595
11   0.160957
12   -0.237572
13   0.149424
14   0.146641
15   0.146087
16   0.147514
17   0.148387
18   0.147289
19   0.150499
20   0.145909
21   0.149627
22   0.148862
23   0.147257
24   0.145998
25   0.154294
26   0.145484
27   0.144109
28   0.140883
29   0.162668
30   0.154987
31   0.161299
32   0.154519
33   0.133329
34   0.138657

$$$$

