PCCDB-ID:  33470
public computational chemistry database (PCCDB) project, http://pccdb.org

 13 13  0  0  0  0  0  0  0  0999 V2000
    1.8923    1.3051    0.2845 C   0  0  0  0  0  0  0  0  0  0  0  0
    4.3710   -1.9622    3.1703 C   0  0  0  0  0  0  0  0  0  0  0  0
    3.7276    0.0692    3.8525 C   0  0  0  0  0  0  0  0  0  0  0  0
    3.2658   -0.6071    1.7613 C   0  0  0  0  0  0  0  0  0  0  0  0
    4.3437   -1.0710    4.1723 N   0  0  0  0  0  0  0  0  0  0  0  0
    3.8582   -1.7991    1.9543 N   0  0  0  0  0  0  0  0  0  0  0  0
    3.1699    0.3684    2.6759 N   0  0  0  0  0  0  0  0  0  0  0  0
    2.5839   -0.3801    0.1533 S   0  0  0  0  0  0  0  0  0  0  0  0
    1.4477    1.5181   -0.6909 H   0  0  0  0  0  0  0  0  0  0  0  0
    2.6772    2.0310    0.5020 H   0  0  0  0  0  0  0  0  0  0  0  0
    1.1266    1.3512    1.0603 H   0  0  0  0  0  0  0  0  0  0  0  0
    4.8610   -2.9135    3.3706 H   0  0  0  0  0  0  0  0  0  0  0  0
    3.6714    0.8348    4.6248 H   0  0  0  0  0  0  0  0  0  0  0  0
  1 10  1  0  0  0  0
  1 11  1  0  0  0  0
  2 12  1  0  0  0  0
  2  5  2  0  0  0  0
  3  5  2  0  0  0  0
  3 13  1  0  0  0  0
  4  6  2  0  0  0  0
  4  7  1  0  0  0  0
  6  2  1  0  0  0  0
  7  3  1  0  0  0  0
  8  1  1  0  0  0  0
  8  4  1  0  0  0  0
  9  1  1  0  0  0  0
M  RAD  1   7   2
M  END
>  <HBA>
4

>  <HBD>
0

>  <TPSA>
63.97

>  <cid>
33470

>  <dipole>
1.79

>  <excitation_energy_1>
4.383

>  <excitation_energy_2>
4.605

>  <excitation_energy_3>
4.655

>  <excitation_energy_4>
4.8

>  <homo_energy>
-6.795

>  <homo_lumo_gap>
5.328

>  <logP>
0.594

>  <lumo_energy>
-1.467

>  <melting_point>
62.65

>  <molecular_refractivity>
31.55

>  <oscillator_strength_1>
0.0054

>  <oscillator_strength_2>
0.0011

>  <oscillator_strength_3>
0.0043

>  <oscillator_strength_4>
0.0002

>  <open_babel_can_smiles>
CSC1=NC=[N]=C[N]1

>  <mulliken_charges>
13
1   -0.58682
2   0.178748
3   0.184049
4   0.251049
5   -0.372402
6   -0.386447
7   -0.39576
8   0.195848
9   0.185192
10   0.202413
11   0.202345
12   0.17196
13   0.169824

>  <lowdin_charges>
13
1   -0.542777
2   -0.007766
3   -0.008234
4   -0.010219
5   -0.177234
6   -0.166335
7   -0.1855
8   0.223492
9   0.177998
10   0.179405
11   0.179145
12   0.169003
13   0.169023

$$$$

