PCCDB-ID:  10786
public computational chemistry database (PCCDB) project, http://pccdb.org

 19 18  0  0  1  0  0  0  0  0999 V2000
    0.5877   -0.7222   -0.5816 C   0  0  0  0  0  0  0  0  0  0  0  0
    0.7053   -1.9984   -1.3769 C   0  0  0  0  0  0  0  0  0  0  0  0
    3.1250   -0.9156    2.3813 C   0  0  0  0  0  0  0  0  0  0  0  0
    1.8189   -0.3777    0.2742 C   0  0  1  0  0  0  0  0  0  0  0  0
    1.9630   -1.3212    1.4802 C   0  0  2  0  0  0  0  0  0  0  0  0
    1.7424   -2.6079   -1.5694 O   0  0  0  0  0  0  0  0  0  0  0  0
    3.0460   -1.7756    3.5235 O   0  0  0  0  0  0  0  0  0  0  0  0
    3.0126   -0.3381   -0.4947 O   0  0  0  0  0  0  0  0  0  0  0  0
    0.7456   -1.2698    2.2167 O   0  0  0  0  0  0  0  0  0  0  0  0
   -0.3109   -0.7776    0.0445 H   0  0  0  0  0  0  0  0  0  0  0  0
    0.4061    0.0814   -1.3130 H   0  0  0  0  0  0  0  0  0  0  0  0
   -0.2411   -2.3710   -1.8248 H   0  0  0  0  0  0  0  0  0  0  0  0
    3.0062    0.1386    2.6755 H   0  0  0  0  0  0  0  0  0  0  0  0
    4.0780   -1.0269    1.8505 H   0  0  0  0  0  0  0  0  0  0  0  0
    1.6789    0.6354    0.6697 H   0  0  0  0  0  0  0  0  0  0  0  0
    2.1499   -2.3472    1.1226 H   0  0  0  0  0  0  0  0  0  0  0  0
    3.6540   -1.4436    4.1998 H   0  0  0  0  0  0  0  0  0  0  0  0
    3.0599   -1.2005   -0.9479 H   0  0  0  0  0  0  0  0  0  0  0  0
    0.9595   -1.6574    3.0836 H   0  0  0  0  0  0  0  0  0  0  0  0
  1 10  1  0  0  0  0
  1  4  1  0  0  0  0
  2  1  1  0  0  0  0
  3 13  1  0  0  0  0
  3  7  1  0  0  0  0
  4 15  1  1  0  0  0
  4  5  1  0  0  0  0
  5 16  1  6  0  0  0
  5  9  1  0  0  0  0
  5  3  1  0  0  0  0
  6  2  2  0  0  0  0
  7 17  1  0  0  0  0
  8  4  1  0  0  0  0
  9 19  1  0  0  0  0
 11  1  1  0  0  0  0
 12  2  1  0  0  0  0
 14  3  1  0  0  0  0
 18  8  1  0  0  0  0
M  END
>  <HBA>
4

>  <HBD>
3

>  <TPSA>
77.76

>  <cid>
10786

>  <dipole>
1.7

>  <excitation_energy_1>
4.271

>  <excitation_energy_2>
5.215

>  <excitation_energy_3>
5.542

>  <excitation_energy_4>
6.189

>  <homo_energy>
-7.053

>  <homo_lumo_gap>
6.055

>  <logP>
-1.71

>  <lumo_energy>
-0.999

>  <melting_point>
61.68

>  <molecular_refractivity>
29.83

>  <oscillator_strength_1>
0.0001

>  <oscillator_strength_2>
0.0006

>  <oscillator_strength_3>
0.0004

>  <oscillator_strength_4>
0.0001

>  <open_babel_can_smiles>
O[C@H]([C@@H](CO)O)CC=O

>  <mulliken_charges>
19
1   -0.373949
2   0.258782
3   -0.051862
4   0.127908
5   0.116174
6   -0.404402
7   -0.640352
8   -0.64993
9   -0.657148
10   0.19564
11   0.179661
12   0.125236
13   0.125989
14   0.148443
15   0.140361
16   0.13204
17   0.402834
18   0.413072
19   0.411503

>  <lowdin_charges>
19
1   -0.333112
2   0.073867
3   -0.150671
4   -0.003057
5   -0.028384
6   -0.234302
7   -0.479983
8   -0.46841
9   -0.475221
10   0.184808
11   0.179382
12   0.129019
13   0.13082
14   0.146343
15   0.147846
16   0.133828
17   0.35302
18   0.344132
19   0.350075

$$$$

