PCCDB-ID:  70398
public computational chemistry database (PCCDB) project, http://pccdb.org

 31 32  0  0  0  0  0  0  0  0999 V2000
    2.1753    1.7071   -5.5841 C   0  0  0  0  0  0  0  0  0  0  0  0
    5.4239    5.3405    1.3120 C   0  0  0  0  0  0  0  0  0  0  0  0
    2.9919    2.3539   -4.6543 C   0  0  0  0  0  0  0  0  0  0  0  0
    1.1428    0.8709   -5.1483 C   0  0  0  0  0  0  0  0  0  0  0  0
    4.0770    5.7085    1.3503 C   0  0  0  0  0  0  0  0  0  0  0  0
    5.7703    4.0007    1.5006 C   0  0  0  0  0  0  0  0  0  0  0  0
    2.7771    2.1706   -3.2896 C   0  0  0  0  0  0  0  0  0  0  0  0
    0.9289    0.6824   -3.7874 C   0  0  0  0  0  0  0  0  0  0  0  0
    3.0858    4.7519    1.5686 C   0  0  0  0  0  0  0  0  0  0  0  0
    4.7853    3.0370    1.7155 C   0  0  0  0  0  0  0  0  0  0  0  0
    2.3143    1.8177   -0.3627 C   0  0  0  0  0  0  0  0  0  0  0  0
    1.7425    1.3318   -2.8425 C   0  0  0  0  0  0  0  0  0  0  0  0
    3.4268    3.3991    1.7437 C   0  0  0  0  0  0  0  0  0  0  0  0
    1.4696    1.0872   -1.3984 C   0  0  0  0  0  0  0  0  0  0  0  0
    1.9184    1.7219    1.1182 C   0  0  0  0  0  0  0  0  0  0  0  0
    2.4339    2.4481    2.0267 N   0  0  0  0  0  0  0  0  0  0  0  0
    0.5876    0.2935   -1.0658 O   0  0  0  0  0  0  0  0  0  0  0  0
    1.0015    0.8117    1.4702 O   0  0  0  0  0  0  0  0  0  0  0  0
    2.3428    1.8542   -6.6476 H   0  0  0  0  0  0  0  0  0  0  0  0
    6.1936    6.0895    1.1483 H   0  0  0  0  0  0  0  0  0  0  0  0
    3.7957    3.0020   -4.9913 H   0  0  0  0  0  0  0  0  0  0  0  0
    0.5075    0.3677   -5.8715 H   0  0  0  0  0  0  0  0  0  0  0  0
    3.7936    6.7494    1.2149 H   0  0  0  0  0  0  0  0  0  0  0  0
    6.8156    3.7016    1.4852 H   0  0  0  0  0  0  0  0  0  0  0  0
    3.4225    2.6796   -2.5813 H   0  0  0  0  0  0  0  0  0  0  0  0
    0.1352    0.0353   -3.4296 H   0  0  0  0  0  0  0  0  0  0  0  0
    2.0389    5.0384    1.6181 H   0  0  0  0  0  0  0  0  0  0  0  0
    5.0556    1.9980    1.8849 H   0  0  0  0  0  0  0  0  0  0  0  0
    2.3727    2.8794   -0.6245 H   0  0  0  0  0  0  0  0  0  0  0  0
    3.3470    1.4541   -0.4600 H   0  0  0  0  0  0  0  0  0  0  0  0
    0.6481    0.3961    0.6479 H   0  0  0  0  0  0  0  0  0  0  0  0
  1  4  2  0  0  0  0
  1  3  1  0  0  0  0
  2  5  2  0  0  0  0
  2  6  1  0  0  0  0
  3  7  2  0  0  0  0
  4  8  1  0  0  0  0
  5  9  1  0  0  0  0
  6 10  2  0  0  0  0
  7 12  1  0  0  0  0
  7 25  1  0  0  0  0
  8 26  1  0  0  0  0
  8 12  2  0  0  0  0
  9 27  1  0  0  0  0
  9 13  2  0  0  0  0
 10 13  1  0  0  0  0
 10 28  1  0  0  0  0
 11 15  1  0  0  0  0
 12 14  1  0  0  0  0
 13 16  1  0  0  0  0
 14 17  2  0  0  0  0
 14 11  1  0  0  0  0
 15 18  1  0  0  0  0
 15 16  2  0  0  0  0
 19  1  1  0  0  0  0
 20  2  1  0  0  0  0
 21  3  1  0  0  0  0
 22  4  1  0  0  0  0
 23  5  1  0  0  0  0
 24  6  1  0  0  0  0
 29 11  1  0  0  0  0
 30 11  1  0  0  0  0
 31 18  1  0  0  0  0
M  END
>  <HBA>
3

>  <HBD>
1

>  <TPSA>
46.17

>  <cid>
70398

>  <dipole>
6.79

>  <excitation_energy_1>
2.867

>  <excitation_energy_2>
3.853

>  <excitation_energy_3>
3.908

>  <excitation_energy_4>
4.065

>  <homo_energy>
-5.698

>  <homo_lumo_gap>
3.418

>  <logP>
2.971

>  <lumo_energy>
-2.28

>  <melting_point>
120.05

>  <molecular_refractivity>
70.47

>  <oscillator_strength_1>
0.0012

>  <oscillator_strength_2>
0.0087

>  <oscillator_strength_3>
0.0002

>  <oscillator_strength_4>
0.0034

>  <open_babel_can_smiles>
O/C(=N/c1ccccc1)/CC(=O)c1ccccc1

>  <mulliken_charges>
31
1   -0.113587
2   -0.133739
3   -0.134864
4   -0.133895
5   -0.139461
6   -0.138975
7   -0.179148
8   -0.14713
9   -0.156286
10   -0.160666
11   -0.48268
12   0.077077
13   0.226743
14   0.422106
15   0.508378
16   -0.481787
17   -0.503169
18   -0.594535
19   0.14741
20   0.122376
21   0.14729
22   0.14762
23   0.126776
24   0.126036
25   0.154885
26   0.171377
27   0.12884
28   0.126008
29   0.209336
30   0.214625
31   0.443038

>  <lowdin_charges>
31
1   -0.127458
2   -0.180602
3   -0.152481
4   -0.152635
5   -0.151165
6   -0.151647
7   -0.145151
8   -0.121578
9   -0.186871
10   -0.18981
11   -0.344671
12   -0.051826
13   0.048166
14   0.176155
15   0.14628
16   -0.182375
17   -0.255538
18   -0.357824
19   0.164704
20   0.15606
21   0.167009
22   0.167803
23   0.154862
24   0.154432
25   0.170899
26   0.180672
27   0.158609
28   0.156609
29   0.191081
30   0.195752
31   0.362542

$$$$

