PCCDB-ID:  261
public computational chemistry database (PCCDB) project, http://pccdb.org

 13 12  0  0  0  0  0  0  0  0999 V2000
    0.9795   -0.2547    0.2224 C   0  0  0  0  0  0  0  0  0  0  0  0
    2.4682    0.0558    0.0416 C   0  0  0  0  0  0  0  0  0  0  0  0
    2.7144    1.2912   -0.8255 C   0  0  0  0  0  0  0  0  0  0  0  0
    4.1725    1.6417   -1.0145 C   0  0  0  0  0  0  0  0  0  0  0  0
    5.1003    1.0254   -0.5375 O   0  0  0  0  0  0  0  0  0  0  0  0
    0.8362   -1.1483    0.8400 H   0  0  0  0  0  0  0  0  0  0  0  0
    0.4880   -0.4349   -0.7417 H   0  0  0  0  0  0  0  0  0  0  0  0
    0.4539    0.5749    0.7114 H   0  0  0  0  0  0  0  0  0  0  0  0
    2.9806   -0.8025   -0.4091 H   0  0  0  0  0  0  0  0  0  0  0  0
    2.9439    0.2067    1.0179 H   0  0  0  0  0  0  0  0  0  0  0  0
    2.2160    2.1815   -0.4079 H   0  0  0  0  0  0  0  0  0  0  0  0
    2.2745    1.1724   -1.8293 H   0  0  0  0  0  0  0  0  0  0  0  0
    4.3581    2.5410   -1.6466 H   0  0  0  0  0  0  0  0  0  0  0  0
  1  8  1  0  0  0  0
  1  6  1  0  0  0  0
  2  1  1  0  0  0  0
  2 10  1  0  0  0  0
  3 11  1  0  0  0  0
  3  2  1  0  0  0  0
  4  3  1  0  0  0  0
  4  5  2  0  0  0  0
  7  1  1  0  0  0  0
  9  2  1  0  0  0  0
 12  3  1  0  0  0  0
 13  4  1  0  0  0  0
M  END
>  <HBA>
1

>  <HBD>
0

>  <TPSA>
17.07

>  <cid>
261

>  <dipole>
2.5

>  <excitation_energy_1>
4.333

>  <excitation_energy_2>
6.56

>  <excitation_energy_3>
6.921

>  <excitation_energy_4>
7.216

>  <homo_energy>
-6.868

>  <homo_lumo_gap>
6.357

>  <logP>
0.985

>  <lumo_energy>
-0.512

>  <melting_point>
6.49

>  <molecular_refractivity>
21.54

>  <oscillator_strength_1>
0.0002

>  <oscillator_strength_2>
0.0255

>  <oscillator_strength_3>
0.0606

>  <oscillator_strength_4>
0.0045

>  <open_babel_can_smiles>
CCCC=O

>  <mulliken_charges>
13
1   -0.446458
2   -0.242837
3   -0.342202
4   0.252109
5   -0.382146
6   0.149687
7   0.141886
8   0.14206
9   0.152402
10   0.153057
11   0.159864
12   0.159879
13   0.1027

>  <lowdin_charges>
13
1   -0.445808
2   -0.269994
3   -0.313801
4   0.057609
5   -0.220263
6   0.153763
7   0.146404
8   0.14757
9   0.153004
10   0.152171
11   0.163237
12   0.162066
13   0.114043

$$$$

