PCCDB-ID:  31627
public computational chemistry database (PCCDB) project, http://pccdb.org

 28 30  0  0  0  0  0  0  0  0999 V2000
    0.8178   -0.0228    0.0880 C   0  0  0  0  0  0  0  0  0  0  0  0
    8.9007    3.3775    0.0744 C   0  0  0  0  0  0  0  0  0  0  0  0
    9.4971    2.1084    0.0799 C   0  0  0  0  0  0  0  0  0  0  0  0
    7.5174    3.4798    0.0742 C   0  0  0  0  0  0  0  0  0  0  0  0
    8.7095    0.9692    0.0843 C   0  0  0  0  0  0  0  0  0  0  0  0
    3.0461   -1.2469    0.0914 C   0  0  0  0  0  0  0  0  0  0  0  0
    4.4332   -1.2646    0.0926 C   0  0  0  0  0  0  0  0  0  0  0  0
    3.0579    1.1506    0.0821 C   0  0  0  0  0  0  0  0  0  0  0  0
    2.3297   -0.0369    0.0862 C   0  0  0  0  0  0  0  0  0  0  0  0
    6.6833    2.3480    0.0798 C   0  0  0  0  0  0  0  0  0  0  0  0
    4.4607    1.1710    0.0835 C   0  0  0  0  0  0  0  0  0  0  0  0
    7.3052    1.0758    0.0846 C   0  0  0  0  0  0  0  0  0  0  0  0
    5.1507   -0.0581    0.0887 C   0  0  0  0  0  0  0  0  0  0  0  0
    5.1991    2.4569    0.0785 C   0  0  0  0  0  0  0  0  0  0  0  0
    4.5125    3.5488    0.0734 N   0  0  0  0  0  0  0  0  0  0  0  0
    6.5360   -0.0686    0.0891 N   0  0  0  0  0  0  0  0  0  0  0  0
    0.4095   -1.0382    0.0515 H   0  0  0  0  0  0  0  0  0  0  0  0
    0.4201    0.5273   -0.7735 H   0  0  0  0  0  0  0  0  0  0  0  0
    0.4212    0.4622    0.9887 H   0  0  0  0  0  0  0  0  0  0  0  0
    9.5149    4.2728    0.0718 H   0  0  0  0  0  0  0  0  0  0  0  0
   10.5794    2.0123    0.0802 H   0  0  0  0  0  0  0  0  0  0  0  0
    7.0666    4.4683    0.0703 H   0  0  0  0  0  0  0  0  0  0  0  0
    9.1671   -0.0178    0.0886 H   0  0  0  0  0  0  0  0  0  0  0  0
    2.5044   -2.1900    0.0938 H   0  0  0  0  0  0  0  0  0  0  0  0
    4.9709   -2.2105    0.0964 H   0  0  0  0  0  0  0  0  0  0  0  0
    2.5534    2.1119    0.0776 H   0  0  0  0  0  0  0  0  0  0  0  0
    5.1179    4.3729    0.0716 H   0  0  0  0  0  0  0  0  0  0  0  0
    7.0077   -0.9617    0.0935 H   0  0  0  0  0  0  0  0  0  0  0  0
  1 19  1  0  0  0  0
  2  3  2  0  0  0  0
  3 21  1  0  0  0  0
  3  5  1  0  0  0  0
  4  2  1  0  0  0  0
  4 10  2  0  0  0  0
  5 12  2  0  0  0  0
  5 23  1  0  0  0  0
  6  7  1  0  0  0  0
  6 24  1  0  0  0  0
  7 25  1  0  0  0  0
  8 11  2  0  0  0  0
  8  9  1  0  0  0  0
  9  1  1  0  0  0  0
  9  6  2  0  0  0  0
 10 12  1  0  0  0  0
 11 13  1  0  0  0  0
 12 16  1  0  0  0  0
 13 16  1  0  0  0  0
 13  7  2  0  0  0  0
 14 10  1  0  0  0  0
 14 11  1  0  0  0  0
 15 14  2  0  0  0  0
 16 28  1  0  0  0  0
 17  1  1  0  0  0  0
 18  1  1  0  0  0  0
 20  2  1  0  0  0  0
 22  4  1  0  0  0  0
 26  8  1  0  0  0  0
 27 15  1  0  0  0  0
M  END
>  <HBA>
2

>  <HBD>
1

>  <TPSA>
38.91

>  <cid>
31627

>  <dipole>
3.57

>  <excitation_energy_1>
3.391

>  <excitation_energy_2>
4.203

>  <excitation_energy_3>
4.352

>  <excitation_energy_4>
4.401

>  <homo_energy>
-5.178

>  <homo_lumo_gap>
3.951

>  <logP>
3.86

>  <lumo_energy>
-1.227

>  <melting_point>
163.49

>  <molecular_refractivity>
68.62

>  <oscillator_strength_1>
0.0853

>  <oscillator_strength_2>
0.1388

>  <oscillator_strength_3>
0.0017

>  <oscillator_strength_4>
0.0328

>  <open_babel_can_smiles>
Cc1ccc2c(c1)c(=N)c1c([nH]2)cccc1

>  <mulliken_charges>
28
1   -0.528577
2   -0.137292
3   -0.13143
4   -0.214236
5   -0.184447
6   -0.185837
7   -0.182987
8   -0.254131
9   0.182957
10   0.109277
11   0.103855
12   0.349031
13   0.333714
14   0.232263
15   -0.660872
16   -0.843542
17   0.149043
18   0.164287
19   0.164554
20   0.131469
21   0.134896
22   0.133665
23   0.125099
24   0.123882
25   0.120369
26   0.163841
27   0.279319
28   0.321831

>  <lowdin_charges>
28
1   -0.442105
2   -0.177587
3   -0.135316
4   -0.138661
5   -0.192434
6   -0.150634
7   -0.196193
8   -0.133851
9   -0.014345
10   -0.061041
11   -0.044662
12   0.063763
13   0.05655
14   0.056526
15   -0.405885
16   -0.215895
17   0.152942
18   0.16219
19   0.161911
20   0.160775
21   0.15942
22   0.157398
23   0.155033
24   0.156463
25   0.153764
26   0.1787
27   0.245155
28   0.288018

$$$$

