PCCDB-ID:  15458
public computational chemistry database (PCCDB) project, http://pccdb.org

 21 20  0  0  0  0  0  0  0  0999 V2000
    1.3344   -0.5743    0.1974 C   0  0  0  0  0  0  0  0  0  0  0  0
    4.7296    3.5074   -0.4829 C   0  0  0  0  0  0  0  0  0  0  0  0
    4.8244    3.0498    2.0201 C   0  0  0  0  0  0  0  0  0  0  0  0
    6.5842    2.0990    0.4849 C   0  0  0  0  0  0  0  0  0  0  0  0
    2.6284   -0.2487    0.2088 C   0  0  0  0  0  0  0  0  0  0  0  0
    3.0582    1.1570    0.4490 C   0  0  0  0  0  0  0  0  0  0  0  0
    5.1156    2.5105    0.6153 C   0  0  0  0  0  0  0  0  0  0  0  0
    2.2979    2.0854    0.6510 O   0  0  0  0  0  0  0  0  0  0  0  0
    4.4053    1.2352    0.4085 O   0  0  0  0  0  0  0  0  0  0  0  0
    1.0029   -1.5936    0.0235 H   0  0  0  0  0  0  0  0  0  0  0  0
    0.5759    0.1851    0.3652 H   0  0  0  0  0  0  0  0  0  0  0  0
    5.3491    4.4071   -0.3944 H   0  0  0  0  0  0  0  0  0  0  0  0
    3.6804    3.7959   -0.4035 H   0  0  0  0  0  0  0  0  0  0  0  0
    4.9043    3.0707   -1.4723 H   0  0  0  0  0  0  0  0  0  0  0  0
    5.4519    3.9276    2.2118 H   0  0  0  0  0  0  0  0  0  0  0  0
    5.0609    2.2922    2.7754 H   0  0  0  0  0  0  0  0  0  0  0  0
    3.7774    3.3384    2.1240 H   0  0  0  0  0  0  0  0  0  0  0  0
    7.2330    2.9706    0.6222 H   0  0  0  0  0  0  0  0  0  0  0  0
    6.7803    1.6730   -0.5044 H   0  0  0  0  0  0  0  0  0  0  0  0
    6.8447    1.3507    1.2405 H   0  0  0  0  0  0  0  0  0  0  0  0
    3.4131   -0.9810    0.0434 H   0  0  0  0  0  0  0  0  0  0  0  0
  1  5  2  0  0  0  0
  1 11  1  0  0  0  0
  2 13  1  0  0  0  0
  2 12  1  0  0  0  0
  2  7  1  0  0  0  0
  3 17  1  0  0  0  0
  3 15  1  0  0  0  0
  3 16  1  0  0  0  0
  4  7  1  0  0  0  0
  4 18  1  0  0  0  0
  4 20  1  0  0  0  0
  5  6  1  0  0  0  0
  6  8  2  0  0  0  0
  7  3  1  0  0  0  0
  9  6  1  0  0  0  0
  9  7  1  0  0  0  0
 10  1  1  0  0  0  0
 14  2  1  0  0  0  0
 19  4  1  0  0  0  0
 21  5  1  0  0  0  0
M  END
>  <HBA>
2

>  <HBD>
0

>  <TPSA>
26.3

>  <cid>
15458

>  <dipole>
1.58

>  <excitation_energy_1>
4.607

>  <excitation_energy_2>
6.111

>  <excitation_energy_3>
6.244

>  <excitation_energy_4>
6.71

>  <homo_energy>
-7.148

>  <homo_lumo_gap>
6.055

>  <logP>
1.514

>  <lumo_energy>
-1.094

>  <melting_point>
-24.36

>  <molecular_refractivity>
36.61

>  <oscillator_strength_1>
0.0001

>  <oscillator_strength_2>
0.0267

>  <oscillator_strength_3>
0.4386

>  <oscillator_strength_4>
0.0018

>  <open_babel_can_smiles>
C=CC(=O)OC(C)(C)C

>  <mulliken_charges>
21
1   -0.304095
2   -0.465783
3   -0.466171
4   -0.449322
5   -0.132223
6   0.622203
7   0.310944
8   -0.49949
9   -0.507709
10   0.154989
11   0.178809
12   0.142622
13   0.187023
14   0.147709
15   0.142557
16   0.147745
17   0.187305
18   0.145404
19   0.153382
20   0.153438
21   0.150663

>  <lowdin_charges>
21
1   -0.269796
2   -0.454926
3   -0.456516
4   -0.445273
5   -0.186603
6   0.201331
7   0.14458
8   -0.280781
9   -0.197294
10   0.166941
11   0.179667
12   0.154939
13   0.171204
14   0.153604
15   0.155067
16   0.154879
17   0.171371
18   0.154805
19   0.156007
20   0.15728
21   0.169515

$$$$

