PCCDB-ID:  4049
public computational chemistry database (PCCDB) project, http://pccdb.org

 30 29  0  0  1  0  0  0  0  0999 V2000
    2.8321    1.4952    3.5938 C   0  0  0  0  0  0  0  0  0  0  0  0
    4.3500    1.6660    1.6676 C   0  0  0  0  0  0  0  0  0  0  0  0
    6.1425   -1.9494   -0.7526 C   0  0  0  0  0  0  0  0  0  0  0  0
    4.3595    1.3675    0.1634 C   0  0  1  0  0  0  0  0  0  0  0  0
    6.5300   -1.0707    0.4474 C   0  0  2  0  0  0  0  0  0  0  0  0
    5.7410    1.3058   -0.4918 C   0  0  1  0  0  0  0  0  0  0  0  0
    6.8170    0.4204    0.1689 C   0  0  2  0  0  0  0  0  0  0  0  0
    2.9669    1.5453    2.1378 N   0  0  0  0  0  0  0  0  0  0  0  0
    6.1652   -3.3121   -0.3698 O   0  0  0  0  0  0  0  0  0  0  0  0
    3.7062    0.1288   -0.0817 O   0  0  0  0  0  0  0  0  0  0  0  0
    7.7248   -1.6205    1.0252 O   0  0  0  0  0  0  0  0  0  0  0  0
    5.6043    0.9503   -1.8717 O   0  0  0  0  0  0  0  0  0  0  0  0
    8.0025    0.5139   -0.6323 O   0  0  0  0  0  0  0  0  0  0  0  0
    1.7711    1.4412    3.8564 H   0  0  0  0  0  0  0  0  0  0  0  0
    3.2761    2.3608    4.1143 H   0  0  0  0  0  0  0  0  0  0  0  0
    3.3186    0.5891    3.9702 H   0  0  0  0  0  0  0  0  0  0  0  0
    4.8068    2.6501    1.8741 H   0  0  0  0  0  0  0  0  0  0  0  0
    4.9403    0.9124    2.2006 H   0  0  0  0  0  0  0  0  0  0  0  0
    6.8355   -1.7612   -1.5908 H   0  0  0  0  0  0  0  0  0  0  0  0
    5.1256   -1.7267   -1.0837 H   0  0  0  0  0  0  0  0  0  0  0  0
    3.8106    2.1767   -0.3522 H   0  0  0  0  0  0  0  0  0  0  0  0
    5.7521   -1.1728    1.2098 H   0  0  0  0  0  0  0  0  0  0  0  0
    6.1598    2.3197   -0.4966 H   0  0  0  0  0  0  0  0  0  0  0  0
    7.0873    0.8646    1.1349 H   0  0  0  0  0  0  0  0  0  0  0  0
    2.4241    2.3301    1.7783 H   0  0  0  0  0  0  0  0  0  0  0  0
    6.9574   -3.3902    0.1927 H   0  0  0  0  0  0  0  0  0  0  0  0
    2.9825    0.0991    0.5773 H   0  0  0  0  0  0  0  0  0  0  0  0
    8.4477   -1.2496    0.4838 H   0  0  0  0  0  0  0  0  0  0  0  0
    4.9118    0.2679   -1.9107 H   0  0  0  0  0  0  0  0  0  0  0  0
    7.6862    0.4716   -1.5538 H   0  0  0  0  0  0  0  0  0  0  0  0
  1 14  1  0  0  0  0
  1 16  1  0  0  0  0
  1 15  1  0  0  0  0
  2 17  1  0  0  0  0
  2  8  1  0  0  0  0
  2 18  1  0  0  0  0
  3  9  1  0  0  0  0
  3  5  1  0  0  0  0
  4 21  1  6  0  0  0
  4  2  1  0  0  0  0
  5 11  1  0  0  0  0
  5 22  1  1  0  0  0
  6 23  1  1  0  0  0
  6  4  1  0  0  0  0
  6  7  1  0  0  0  0
  7  5  1  0  0  0  0
  7 24  1  1  0  0  0
  8  1  1  0  0  0  0
  9 26  1  0  0  0  0
 10  4  1  0  0  0  0
 10 27  1  0  0  0  0
 12  6  1  0  0  0  0
 13  7  1  0  0  0  0
 19  3  1  0  0  0  0
 20  3  1  0  0  0  0
 25  8  1  0  0  0  0
 28 11  1  0  0  0  0
 29 12  1  0  0  0  0
 30 13  1  0  0  0  0
M  END
>  <HBA>
6

>  <HBD>
6

>  <TPSA>
113.18

>  <cid>
4049

>  <dipole>
5.34

>  <excitation_energy_1>
5.817

>  <excitation_energy_2>
6.148

>  <excitation_energy_3>
6.334

>  <excitation_energy_4>
6.499

>  <homo_energy>
-6.569

>  <homo_lumo_gap>
8.055

>  <logP>
-2.967

>  <lumo_energy>
1.486

>  <melting_point>
93.04

>  <molecular_refractivity>
44.37

>  <oscillator_strength_1>
0.0014

>  <oscillator_strength_2>
0.0009

>  <oscillator_strength_3>
0.0029

>  <oscillator_strength_4>
0.0196

>  <open_babel_can_smiles>
CNC[C@@H]([C@@H]([C@@H]([C@@H](CO)O)O)O)O

>  <mulliken_charges>
30
1   -0.303957
2   -0.159967
3   -0.035384
4   0.115207
5   0.101605
6   0.100257
7   0.086351
8   -0.576284
9   -0.635235
10   -0.658822
11   -0.652342
12   -0.656774
13   -0.657324
14   0.160071
15   0.135558
16   0.16652
17   0.131797
18   0.16429
19   0.100966
20   0.144285
21   0.123719
22   0.143953
23   0.147231
24   0.14174
25   0.307103
26   0.399476
27   0.417062
28   0.406984
29   0.426891
30   0.415019

>  <lowdin_charges>
30
1   -0.358673
2   -0.226178
3   -0.160342
4   -0.023426
5   -0.039526
6   -0.025775
7   -0.037176
8   -0.362467
9   -0.473877
10   -0.476474
11   -0.471668
12   -0.463627
13   -0.466368
14   0.155599
15   0.132253
16   0.156957
17   0.133203
18   0.155508
19   0.118002
20   0.147684
21   0.132575
22   0.149587
23   0.153501
24   0.149425
25   0.259179
26   0.341219
27   0.349948
28   0.347174
29   0.355455
30   0.34831

$$$$

