PCCDB-ID:  24512
public computational chemistry database (PCCDB) project, http://pccdb.org

 33 33  0  0  0  0  0  0  0  0999 V2000
    2.8685   -1.3857   -0.8304 C   0  0  0  0  0  0  0  0  0  0  0  0
   -0.4750   -2.1419    4.3705 C   0  0  0  0  0  0  0  0  0  0  0  0
   -0.4137    2.8116    0.7005 C   0  0  0  0  0  0  0  0  0  0  0  0
    1.9358   -0.4530   -0.0526 C   0  0  0  0  0  0  0  0  0  0  0  0
    0.9785   -1.8787    3.9704 C   0  0  0  0  0  0  0  0  0  0  0  0
   -0.3075    1.5344    1.5360 C   0  0  0  0  0  0  0  0  0  0  0  0
    2.4488   -0.8984    2.3006 C   0  0  0  0  0  0  0  0  0  0  0  0
    2.1869    1.3725    1.6393 C   0  0  0  0  0  0  0  0  0  0  0  0
    0.8742    0.5026    3.4144 C   0  0  0  0  0  0  0  0  0  0  0  0
    2.5593    0.0290    1.1890 N   0  0  0  0  0  0  0  0  0  0  0  0
    1.1121   -0.8679    2.9213 N   0  0  0  0  0  0  0  0  0  0  0  0
    0.9121    1.4948    2.3558 N   0  0  0  0  0  0  0  0  0  0  0  0
    2.3901   -1.7215   -1.7583 H   0  0  0  0  0  0  0  0  0  0  0  0
    3.1231   -2.2798   -0.2494 H   0  0  0  0  0  0  0  0  0  0  0  0
    3.8026   -0.8729   -1.0820 H   0  0  0  0  0  0  0  0  0  0  0  0
   -0.5255   -2.9693    5.0874 H   0  0  0  0  0  0  0  0  0  0  0  0
   -1.0688   -2.4070    3.4897 H   0  0  0  0  0  0  0  0  0  0  0  0
   -0.9412   -1.2714    4.8443 H   0  0  0  0  0  0  0  0  0  0  0  0
   -1.3930    2.8588    0.2106 H   0  0  0  0  0  0  0  0  0  0  0  0
    0.3452    2.8613   -0.0885 H   0  0  0  0  0  0  0  0  0  0  0  0
   -0.2989    3.6958    1.3364 H   0  0  0  0  0  0  0  0  0  0  0  0
    0.9773   -0.9593    0.1416 H   0  0  0  0  0  0  0  0  0  0  0  0
    1.7131    0.4214   -0.6752 H   0  0  0  0  0  0  0  0  0  0  0  0
    1.4088   -2.8100    3.5799 H   0  0  0  0  0  0  0  0  0  0  0  0
    1.5732   -1.6183    4.8700 H   0  0  0  0  0  0  0  0  0  0  0  0
   -0.4240    0.6501    0.8906 H   0  0  0  0  0  0  0  0  0  0  0  0
   -1.1510    1.5112    2.2372 H   0  0  0  0  0  0  0  0  0  0  0  0
    3.2313   -0.6358    3.0417 H   0  0  0  0  0  0  0  0  0  0  0  0
    2.6507   -1.9177    1.9559 H   0  0  0  0  0  0  0  0  0  0  0  0
    2.2005    2.0527    0.7853 H   0  0  0  0  0  0  0  0  0  0  0  0
    2.9685    1.6991    2.3391 H   0  0  0  0  0  0  0  0  0  0  0  0
    1.6483    0.7748    4.1624 H   0  0  0  0  0  0  0  0  0  0  0  0
   -0.0981    0.5453    3.9123 H   0  0  0  0  0  0  0  0  0  0  0  0
  1 14  1  0  0  0  0
  1  4  1  0  0  0  0
  2 18  1  0  0  0  0
  2 16  1  0  0  0  0
  3 21  1  0  0  0  0
  3  6  1  0  0  0  0
  4 22  1  0  0  0  0
  4 10  1  0  0  0  0
  5  2  1  0  0  0  0
  5 25  1  0  0  0  0
  6 27  1  0  0  0  0
  6 12  1  0  0  0  0
  7 11  1  0  0  0  0
  7 28  1  0  0  0  0
  8 31  1  0  0  0  0
  8 12  1  0  0  0  0
  9 33  1  0  0  0  0
  9 32  1  0  0  0  0
 10  8  1  0  0  0  0
 10  7  1  0  0  0  0
 11  9  1  0  0  0  0
 11  5  1  0  0  0  0
 12  9  1  0  0  0  0
 13  1  1  0  0  0  0
 15  1  1  0  0  0  0
 17  2  1  0  0  0  0
 19  3  1  0  0  0  0
 20  3  1  0  0  0  0
 23  4  1  0  0  0  0
 24  5  1  0  0  0  0
 26  6  1  0  0  0  0
 29  7  1  0  0  0  0
 30  8  1  0  0  0  0
M  END
>  <HBA>
3

>  <HBD>
0

>  <TPSA>
9.72

>  <cid>
24512

>  <dipole>
0.82

>  <excitation_energy_1>
4.919

>  <excitation_energy_2>
5.255

>  <excitation_energy_3>
5.298

>  <excitation_energy_4>
5.334

>  <homo_energy>
-5.29

>  <homo_lumo_gap>
7.372

>  <logP>
0.652

>  <lumo_energy>
2.082

>  <melting_point>
1.93

>  <molecular_refractivity>
63.7

>  <oscillator_strength_1>
0.0026

>  <oscillator_strength_2>
0.0104

>  <oscillator_strength_3>
0.0097

>  <oscillator_strength_4>
0.0071

>  <open_babel_can_smiles>
CCN1CN(CC)CN(C1)CC

>  <mulliken_charges>
33
1   -0.437145
2   -0.448039
3   -0.453039
4   -0.127233
5   -0.108307
6   -0.112826
7   -0.013278
8   -0.054549
9   -0.013571
10   -0.372651
11   -0.393348
12   -0.377474
13   0.136372
14   0.142907
15   0.150866
16   0.142458
17   0.156072
18   0.147168
19   0.142419
20   0.143286
21   0.154911
22   0.142757
23   0.130804
24   0.134481
25   0.110683
26   0.137261
27   0.132538
28   0.116335
29   0.140638
30   0.147162
31   0.145884
32   0.114685
33   0.141775

>  <lowdin_charges>
33
1   -0.450763
2   -0.450911
3   -0.451774
4   -0.20067
5   -0.197876
6   -0.199649
7   -0.142879
8   -0.151016
9   -0.141261
10   -0.191223
11   -0.218733
12   -0.192379
13   0.148305
14   0.146686
15   0.152466
16   0.152733
17   0.155595
18   0.148609
19   0.152132
20   0.145429
21   0.154605
22   0.132825
23   0.142342
24   0.143506
25   0.116798
26   0.131082
27   0.143316
28   0.119579
29   0.144212
30   0.150567
31   0.14511
32   0.117558
33   0.14568

$$$$

