PCCDB-ID:  12986
public computational chemistry database (PCCDB) project, http://pccdb.org

 18 17  0  0  0  0  0  0  0  0999 V2000
    1.2875   -0.1843   -0.0423 C   0  0  0  0  0  0  0  0  0  0  0  0
    6.0122    0.0197    1.0319 C   0  0  0  0  0  0  0  0  0  0  0  0
    5.6813    0.1293   -1.4306 C   0  0  0  0  0  0  0  0  0  0  0  0
    2.7547   -0.5474   -0.2919 C   0  0  0  0  0  0  0  0  0  0  0  0
    3.7261    0.5453    0.1974 C   0  0  0  0  0  0  0  0  0  0  0  0
    5.1909    0.2165   -0.0048 C   0  0  0  0  0  0  0  0  0  0  0  0
    0.6152   -0.9740   -0.3966 H   0  0  0  0  0  0  0  0  0  0  0  0
    1.0148    0.7433   -0.5608 H   0  0  0  0  0  0  0  0  0  0  0  0
    1.0921   -0.0345    1.0266 H   0  0  0  0  0  0  0  0  0  0  0  0
    7.0650   -0.2155    0.8932 H   0  0  0  0  0  0  0  0  0  0  0  0
    5.6626    0.0874    2.0595 H   0  0  0  0  0  0  0  0  0  0  0  0
    6.7590   -0.0557   -1.4749 H   0  0  0  0  0  0  0  0  0  0  0  0
    5.4717    1.0598   -1.9766 H   0  0  0  0  0  0  0  0  0  0  0  0
    5.1796   -0.6754   -1.9838 H   0  0  0  0  0  0  0  0  0  0  0  0
    2.9057   -0.7270   -1.3642 H   0  0  0  0  0  0  0  0  0  0  0  0
    2.9960   -1.4904    0.2164 H   0  0  0  0  0  0  0  0  0  0  0  0
    3.5405    0.7326    1.2628 H   0  0  0  0  0  0  0  0  0  0  0  0
    3.4886    1.4831   -0.3297 H   0  0  0  0  0  0  0  0  0  0  0  0
  1  9  1  0  0  0  0
  2 11  1  0  0  0  0
  3  6  1  0  0  0  0
  4  1  1  0  0  0  0
  4  5  1  0  0  0  0
  4 16  1  0  0  0  0
  5 17  1  0  0  0  0
  6  5  1  0  0  0  0
  6  2  2  0  0  0  0
  7  1  1  0  0  0  0
  8  1  1  0  0  0  0
 10  2  1  0  0  0  0
 12  3  1  0  0  0  0
 13  3  1  0  0  0  0
 14  3  1  0  0  0  0
 15  4  1  0  0  0  0
 18  5  1  0  0  0  0
M  END
>  <HBA>
0

>  <HBD>
0

>  <TPSA>
0.0

>  <cid>
12986

>  <dipole>
0.52

>  <excitation_energy_1>
6.138

>  <excitation_energy_2>
6.471

>  <excitation_energy_3>
6.667

>  <excitation_energy_4>
6.721

>  <homo_energy>
-6.487

>  <homo_lumo_gap>
7.306

>  <logP>
2.363

>  <lumo_energy>
0.819

>  <melting_point>
-43.74

>  <molecular_refractivity>
30.48

>  <oscillator_strength_1>
0.0178

>  <oscillator_strength_2>
0.1759

>  <oscillator_strength_3>
0.0198

>  <oscillator_strength_4>
0.0372

>  <open_babel_can_smiles>
CCCC(=C)C

>  <mulliken_charges>
18
1   -0.441346
2   -0.40123
3   -0.513017
4   -0.249829
5   -0.318501
6   0.236061
7   0.143531
8   0.14174
9   0.142961
10   0.128706
11   0.129508
12   0.152159
13   0.150297
14   0.156738
15   0.134553
16   0.139335
17   0.13542
18   0.132914

>  <lowdin_charges>
18
1   -0.443916
2   -0.363587
3   -0.44221
4   -0.270339
5   -0.271162
6   0.009988
7   0.151274
8   0.146636
9   0.145414
10   0.150575
11   0.151217
12   0.154744
13   0.154258
14   0.157008
15   0.138668
16   0.143628
17   0.144508
18   0.143298

$$$$

