PCCDB-ID:  12238
public computational chemistry database (PCCDB) project, http://pccdb.org

 23 22  0  0  0  0  0  0  0  0999 V2000
    2.4162   -0.9290   -1.2004 C   0  0  0  0  0  0  0  0  0  0  0  0
    5.3611   -2.7640    2.2092 C   0  0  0  0  0  0  0  0  0  0  0  0
    2.0533    0.0855    2.5742 C   0  0  0  0  0  0  0  0  0  0  0  0
    1.1180   -1.9704    1.4178 C   0  0  0  0  0  0  0  0  0  0  0  0
    2.2095   -0.0988    0.0708 C   0  0  0  0  0  0  0  0  0  0  0  0
    3.9462   -2.2805    2.4535 C   0  0  0  0  0  0  0  0  0  0  0  0
    2.2011   -0.8855    1.3971 C   0  0  0  0  0  0  0  0  0  0  0  0
    3.2866   -2.5603    3.4325 O   0  0  0  0  0  0  0  0  0  0  0  0
    3.5413   -1.5010    1.4292 O   0  0  0  0  0  0  0  0  0  0  0  0
    2.4937   -0.2716   -2.0734 H   0  0  0  0  0  0  0  0  0  0  0  0
    1.5841   -1.6176   -1.3826 H   0  0  0  0  0  0  0  0  0  0  0  0
    3.3368   -1.5171   -1.1379 H   0  0  0  0  0  0  0  0  0  0  0  0
    5.6764   -3.3957    3.0403 H   0  0  0  0  0  0  0  0  0  0  0  0
    6.0398   -1.9102    2.1121 H   0  0  0  0  0  0  0  0  0  0  0  0
    5.4114   -3.3281    1.2721 H   0  0  0  0  0  0  0  0  0  0  0  0
    1.1055    0.6286    2.4866 H   0  0  0  0  0  0  0  0  0  0  0  0
    2.8667    0.8196    2.5676 H   0  0  0  0  0  0  0  0  0  0  0  0
    2.0643   -0.4461    3.5270 H   0  0  0  0  0  0  0  0  0  0  0  0
    0.1408   -1.5147    1.2194 H   0  0  0  0  0  0  0  0  0  0  0  0
    1.0824   -2.4676    2.3881 H   0  0  0  0  0  0  0  0  0  0  0  0
    1.3026   -2.7252    0.6474 H   0  0  0  0  0  0  0  0  0  0  0  0
    1.2589    0.4467    0.0077 H   0  0  0  0  0  0  0  0  0  0  0  0
    3.0003    0.6590    0.1400 H   0  0  0  0  0  0  0  0  0  0  0  0
  1 12  1  0  0  0  0
  1  5  1  0  0  0  0
  2  6  1  0  0  0  0
  2 13  1  0  0  0  0
  3 18  1  0  0  0  0
  4 20  1  0  0  0  0
  5 23  1  0  0  0  0
  5  7  1  0  0  0  0
  6  8  2  0  0  0  0
  7  4  1  0  0  0  0
  7  9  1  0  0  0  0
  7  3  1  0  0  0  0
  9  6  1  0  0  0  0
 10  1  1  0  0  0  0
 11  1  1  0  0  0  0
 14  2  1  0  0  0  0
 15  2  1  0  0  0  0
 16  3  1  0  0  0  0
 17  3  1  0  0  0  0
 19  4  1  0  0  0  0
 21  4  1  0  0  0  0
 22  5  1  0  0  0  0
M  END
>  <HBA>
2

>  <HBD>
0

>  <TPSA>
26.3

>  <cid>
12238

>  <dipole>
1.92

>  <excitation_energy_1>
5.662

>  <excitation_energy_2>
6.721

>  <excitation_energy_3>
7.191

>  <excitation_energy_4>
7.347

>  <homo_energy>
-7.059

>  <homo_lumo_gap>
7.521

>  <logP>
1.738

>  <lumo_energy>
0.463

>  <melting_point>
-3.76

>  <molecular_refractivity>
37.09

>  <oscillator_strength_1>
0.0012

>  <oscillator_strength_2>
0.0345

>  <oscillator_strength_3>
0.0031

>  <oscillator_strength_4>
0.002

>  <open_babel_can_smiles>
CCC(OC(=O)C)(C)C

>  <mulliken_charges>
23
1   -0.4545
2   -0.519942
3   -0.46998
4   -0.474847
5   -0.259487
6   0.613171
7   0.317979
8   -0.475763
9   -0.489144
10   0.143805
11   0.145728
12   0.159502
13   0.179561
14   0.178196
15   0.177691
16   0.142876
17   0.145775
18   0.184979
19   0.141832
20   0.186034
21   0.152037
22   0.134316
23   0.140182

>  <lowdin_charges>
23
1   -0.450437
2   -0.466567
3   -0.456091
4   -0.458898
5   -0.276882
6   0.203193
7   0.141236
8   -0.272442
9   -0.202148
10   0.152478
11   0.148811
12   0.155414
13   0.174439
14   0.176024
15   0.175153
16   0.154519
17   0.153319
18   0.171392
19   0.153937
20   0.172213
21   0.156402
22   0.146302
23   0.148633

$$$$

