PCCDB-ID:  11781
public computational chemistry database (PCCDB) project, http://pccdb.org

 19 20  0  0  0  0  0  0  0  0999 V2000
    1.0429    0.0048   -0.0047 C   0  0  0  0  0  0  0  0  0  0  0  0
    5.4108   -2.8727    0.0053 C   0  0  0  0  0  0  0  0  0  0  0  0
    4.0731   -3.3183    0.0003 C   0  0  0  0  0  0  0  0  0  0  0  0
    5.7162   -1.5174    0.0062 C   0  0  0  0  0  0  0  0  0  0  0  0
    3.0138   -2.4173   -0.0036 C   0  0  0  0  0  0  0  0  0  0  0  0
    4.6015    0.8545    0.0017 C   0  0  0  0  0  0  0  0  0  0  0  0
    3.2737    1.1901   -0.0032 C   0  0  0  0  0  0  0  0  0  0  0  0
    4.6692   -0.5796    0.0018 C   0  0  0  0  0  0  0  0  0  0  0  0
    3.3256   -1.0526   -0.0033 C   0  0  0  0  0  0  0  0  0  0  0  0
    2.4896    0.0486   -0.0074 N   0  0  0  0  0  0  0  0  0  0  0  0
    0.6554    1.0257   -0.0265 H   0  0  0  0  0  0  0  0  0  0  0  0
    0.6638   -0.4934    0.8960 H   0  0  0  0  0  0  0  0  0  0  0  0
    0.6641   -0.5303   -0.8838 H   0  0  0  0  0  0  0  0  0  0  0  0
    6.2141   -3.6045    0.0088 H   0  0  0  0  0  0  0  0  0  0  0  0
    3.8654   -4.3849   -0.0012 H   0  0  0  0  0  0  0  0  0  0  0  0
    6.7511   -1.1845    0.0112 H   0  0  0  0  0  0  0  0  0  0  0  0
    1.9845   -2.7652   -0.0070 H   0  0  0  0  0  0  0  0  0  0  0  0
    5.4323    1.5468    0.0013 H   0  0  0  0  0  0  0  0  0  0  0  0
    2.8024    2.1640   -0.0079 H   0  0  0  0  0  0  0  0  0  0  0  0
  1 12  1  0  0  0  0
  2  4  1  0  0  0  0
  2 14  1  0  0  0  0
  3  2  2  0  0  0  0
  4 16  1  0  0  0  0
  5  9  2  0  0  0  0
  5  3  1  0  0  0  0
  6  8  1  0  0  0  0
  7  6  2  0  0  0  0
  8  4  2  0  0  0  0
  9  8  1  0  0  0  0
 10  1  1  0  0  0  0
 10  9  1  0  0  0  0
 10  7  1  0  0  0  0
 11  1  1  0  0  0  0
 13  1  1  0  0  0  0
 15  3  1  0  0  0  0
 17  5  1  0  0  0  0
 18  6  1  0  0  0  0
 19  7  1  0  0  0  0
M  END
>  <HBA>
1

>  <HBD>
0

>  <TPSA>
4.93

>  <cid>
11781

>  <dipole>
2.37

>  <excitation_energy_1>
4.564

>  <excitation_energy_2>
4.824

>  <excitation_energy_3>
4.872

>  <excitation_energy_4>
5.304

>  <homo_energy>
-5.287

>  <homo_lumo_gap>
5.246

>  <logP>
2.178

>  <lumo_energy>
-0.041

>  <melting_point>
50.82

>  <molecular_refractivity>
43.2

>  <oscillator_strength_1>
0.088

>  <oscillator_strength_2>
0.0344

>  <oscillator_strength_3>
0.0155

>  <oscillator_strength_4>
0.0006

>  <open_babel_can_smiles>
Cn1ccc2c1cccc2

>  <mulliken_charges>
19
1   -0.320301
2   -0.137138
3   -0.153191
4   -0.208239
5   -0.167742
6   -0.239011
7   0.036982
8   0.115188
9   0.298404
10   -0.487958
11   0.167584
12   0.170947
13   0.171047
14   0.118263
15   0.120172
16   0.122709
17   0.12063
18   0.127205
19   0.144448

>  <lowdin_charges>
19
1   -0.344895
2   -0.177809
3   -0.164482
4   -0.160696
5   -0.189322
6   -0.229437
7   -0.126959
8   -0.024463
9   0.020921
10   -0.026883
11   0.164959
12   0.158878
13   0.159449
14   0.154494
15   0.152547
16   0.154253
17   0.154255
18   0.163516
19   0.161676

$$$$

