PCCDB-ID:  7672
public computational chemistry database (PCCDB) project, http://pccdb.org

 14 14  0  0  0  0  0  0  0  0999 V2000
   -1.5349   -0.0074    0.1647 C   0  0  0  0  0  0  0  0  0  0  0  0
   -0.7601    1.1376   -0.0319 C   0  0  0  0  0  0  0  0  0  0  0  0
   -0.9146   -1.2559    0.2469 C   0  0  0  0  0  0  0  0  0  0  0  0
    0.6255    1.0421   -0.1475 C   0  0  0  0  0  0  0  0  0  0  0  0
    0.4701   -1.3658    0.1328 C   0  0  0  0  0  0  0  0  0  0  0  0
    3.6376   -0.4825   -0.7858 C   0  0  0  0  0  0  0  0  0  0  0  0
    1.2415   -0.2144   -0.0743 C   0  0  0  0  0  0  0  0  0  0  0  0
    2.6280   -0.3124   -0.1623 N   0  0  0  0  0  0  0  0  0  0  0  0
    4.6934   -0.6353   -1.2937 O   0  0  0  0  0  0  0  0  0  0  0  0
   -2.6142    0.0729    0.2560 H   0  0  0  0  0  0  0  0  0  0  0  0
   -1.2343    2.1131   -0.0944 H   0  0  0  0  0  0  0  0  0  0  0  0
   -1.5094   -2.1516    0.4025 H   0  0  0  0  0  0  0  0  0  0  0  0
    1.2377    1.9260   -0.2951 H   0  0  0  0  0  0  0  0  0  0  0  0
    0.9626   -2.3306    0.2006 H   0  0  0  0  0  0  0  0  0  0  0  0
  1  3  1  0  0  0  0
  1 10  1  0  0  0  0
  2  1  2  0  0  0  0
  3 12  1  0  0  0  0
  4  7  2  0  0  0  0
  4  2  1  0  0  0  0
  5 14  1  0  0  0  0
  5  3  2  0  0  0  0
  6  8  2  0  0  0  0
  7  5  1  0  0  0  0
  8  7  1  0  0  0  0
  9  6  2  0  0  0  0
 11  2  1  0  0  0  0
 13  4  1  0  0  0  0
M  END
>  <HBA>
2

>  <HBD>
0

>  <TPSA>
29.43

>  <cid>
7672

>  <dipole>
2.83

>  <excitation_energy_1>
5.089

>  <excitation_energy_2>
5.448

>  <excitation_energy_3>
5.883

>  <excitation_energy_4>
5.984

>  <homo_energy>
-6.563

>  <homo_lumo_gap>
5.935

>  <logP>
1.654

>  <lumo_energy>
-0.629

>  <melting_point>
61.46

>  <molecular_refractivity>
34.22

>  <oscillator_strength_1>
0.0029

>  <oscillator_strength_2>
0.2354

>  <oscillator_strength_3>
0.0108

>  <oscillator_strength_4>
0.0004

>  <open_babel_can_smiles>
O=C=Nc1ccccc1

>  <mulliken_charges>
14
1   -0.12123
2   -0.142179
3   -0.142438
4   -0.130136
5   -0.129926
6   0.566486
7   0.268555
8   -0.468016
9   -0.40622
10   0.136102
11   0.13969
12   0.139725
13   0.14498
14   0.144607

>  <lowdin_charges>
14
1   -0.156366
2   -0.147177
3   -0.14812
4   -0.16549
5   -0.165022
6   0.185198
7   0.069865
8   -0.135432
9   -0.160651
10   0.159797
11   0.162891
12   0.163704
13   0.168892
14   0.167911

$$$$

