PCCDB-ID:  70989
public computational chemistry database (PCCDB) project, http://pccdb.org

 24 25  0  0  0  0  0  0  0  0999 V2000
    2.4178   -0.6018   -2.2953 C   0  0  0  0  0  0  0  0  0  0  0  0
   -2.1599   -2.4050    0.8731 C   0  0  0  0  0  0  0  0  0  0  0  0
   -2.3440   -3.8026    0.8233 C   0  0  0  0  0  0  0  0  0  0  0  0
   -0.9043   -1.8376    0.6980 C   0  0  0  0  0  0  0  0  0  0  0  0
   -1.2767   -4.6633    0.5953 C   0  0  0  0  0  0  0  0  0  0  0  0
    2.3078   -1.1234    0.2492 C   0  0  0  0  0  0  0  0  0  0  0  0
    2.1814   -3.6922    0.0987 C   0  0  0  0  0  0  0  0  0  0  0  0
    1.8479   -0.2571   -0.9315 C   0  0  0  0  0  0  0  0  0  0  0  0
    1.6078   -2.4561    0.2677 C   0  0  0  0  0  0  0  0  0  0  0  0
    0.1962   -2.6840    0.4720 C   0  0  0  0  0  0  0  0  0  0  0  0
   -0.0127   -4.0892    0.4223 C   0  0  0  0  0  0  0  0  0  0  0  0
    1.2153   -4.6766    0.1882 N   0  0  0  0  0  0  0  0  0  0  0  0
    1.0530    0.6499   -0.7737 O   0  0  0  0  0  0  0  0  0  0  0  0
    3.4894   -0.3628   -2.3204 H   0  0  0  0  0  0  0  0  0  0  0  0
    1.9048   -0.0291   -3.0702 H   0  0  0  0  0  0  0  0  0  0  0  0
    2.3215   -1.6752   -2.4926 H   0  0  0  0  0  0  0  0  0  0  0  0
   -3.0183   -1.7631    1.0509 H   0  0  0  0  0  0  0  0  0  0  0  0
   -3.3393   -4.2152    0.9642 H   0  0  0  0  0  0  0  0  0  0  0  0
   -0.7696   -0.7603    0.7220 H   0  0  0  0  0  0  0  0  0  0  0  0
   -1.4200   -5.7400    0.5539 H   0  0  0  0  0  0  0  0  0  0  0  0
    2.0964   -0.5579    1.1638 H   0  0  0  0  0  0  0  0  0  0  0  0
    3.3922   -1.2816    0.1868 H   0  0  0  0  0  0  0  0  0  0  0  0
    3.2178   -3.9534   -0.0694 H   0  0  0  0  0  0  0  0  0  0  0  0
    1.3868   -5.6675    0.1230 H   0  0  0  0  0  0  0  0  0  0  0  0
  1  8  1  0  0  0  0
  2 17  1  0  0  0  0
  3  2  1  0  0  0  0
  3 18  1  0  0  0  0
  4 19  1  0  0  0  0
  4  2  2  0  0  0  0
  5  3  2  0  0  0  0
  6  9  1  0  0  0  0
  6 21  1  0  0  0  0
  7 12  1  0  0  0  0
  7  9  2  0  0  0  0
  8 13  2  0  0  0  0
  8  6  1  0  0  0  0
  9 10  1  0  0  0  0
 10  4  1  0  0  0  0
 11 10  2  0  0  0  0
 11  5  1  0  0  0  0
 12 11  1  0  0  0  0
 14  1  1  0  0  0  0
 15  1  1  0  0  0  0
 16  1  1  0  0  0  0
 20  5  1  0  0  0  0
 22  6  1  0  0  0  0
 23  7  1  0  0  0  0
 24 12  1  0  0  0  0
M  END
>  <HBA>
1

>  <HBD>
1

>  <TPSA>
32.86

>  <cid>
70989

>  <dipole>
4.63

>  <excitation_energy_1>
4.004

>  <excitation_energy_2>
4.571

>  <excitation_energy_3>
4.659

>  <excitation_energy_4>
4.722

>  <homo_energy>
-5.421

>  <homo_lumo_gap>
4.982

>  <logP>
2.299

>  <lumo_energy>
-0.438

>  <melting_point>
119.83

>  <molecular_refractivity>
53.08

>  <oscillator_strength_1>
0.0223

>  <oscillator_strength_2>
0.0348

>  <oscillator_strength_3>
0.0128

>  <oscillator_strength_4>
0.0315

>  <open_babel_can_smiles>
CC(=O)Cc1c[nH]c2c1cccc2

>  <mulliken_charges>
24
1   -0.52932
2   -0.142598
3   -0.148809
4   -0.209258
5   -0.164458
6   -0.414955
7   -0.004127
8   0.464587
9   0.057504
10   0.075746
11   0.315061
12   -0.690605
13   -0.438406
14   0.165376
15   0.179092
16   0.174259
17   0.123692
18   0.123176
19   0.154188
20   0.120091
21   0.171857
22   0.144065
23   0.14655
24   0.327293

>  <lowdin_charges>
24
1   -0.473914
2   -0.175222
3   -0.161505
4   -0.157608
5   -0.186388
6   -0.294736
7   -0.139178
8   0.169124
9   -0.063132
10   -0.036688
11   0.030405
12   -0.196372
13   -0.236524
14   0.167476
15   0.173587
16   0.170692
17   0.156921
18   0.155321
19   0.167555
20   0.152902
21   0.169104
22   0.156127
23   0.16236
24   0.289695

$$$$

