PCCDB-ID:  69154
public computational chemistry database (PCCDB) project, http://pccdb.org

 20 20  0  0  0  0  0  0  0  0999 V2000
    1.6446    0.4397    0.7835 C   0  0  0  0  0  0  0  0  0  0  0  0
    4.2354    2.8780   -2.8038 C   0  0  0  0  0  0  0  0  0  0  0  0
    3.4523    3.3188   -1.7420 C   0  0  0  0  0  0  0  0  0  0  0  0
    4.3928    1.5041   -3.0146 C   0  0  0  0  0  0  0  0  0  0  0  0
    2.8264    2.4000   -0.8921 C   0  0  0  0  0  0  0  0  0  0  0  0
    3.9724   -0.9270   -2.3886 C   0  0  0  0  0  0  0  0  0  0  0  0
    3.7892    0.5637   -2.1823 C   0  0  0  0  0  0  0  0  0  0  0  0
    2.9968    1.0328   -1.1148 C   0  0  0  0  0  0  0  0  0  0  0  0
    2.7534   -1.6287   -2.6039 O   0  0  0  0  0  0  0  0  0  0  0  0
    2.4257    0.0501   -0.3371 O   0  0  0  0  0  0  0  0  0  0  0  0
    1.3203   -0.4870    1.2605 H   0  0  0  0  0  0  0  0  0  0  0  0
    0.7642    1.0191    0.4776 H   0  0  0  0  0  0  0  0  0  0  0  0
    2.2358    1.0281    1.4963 H   0  0  0  0  0  0  0  0  0  0  0  0
    4.7185    3.5912   -3.4651 H   0  0  0  0  0  0  0  0  0  0  0  0
    3.3163    4.3823   -1.5645 H   0  0  0  0  0  0  0  0  0  0  0  0
    4.9995    1.1513   -3.8456 H   0  0  0  0  0  0  0  0  0  0  0  0
    2.2148    2.7599   -0.0726 H   0  0  0  0  0  0  0  0  0  0  0  0
    4.5174   -1.3512   -1.5291 H   0  0  0  0  0  0  0  0  0  0  0  0
    4.5839   -1.0993   -3.2794 H   0  0  0  0  0  0  0  0  0  0  0  0
    2.2275   -1.4859   -1.8001 H   0  0  0  0  0  0  0  0  0  0  0  0
  1 11  1  0  0  0  0
  1 13  1  0  0  0  0
  2  3  1  0  0  0  0
  3 15  1  0  0  0  0
  3  5  2  0  0  0  0
  4  2  2  0  0  0  0
  4  7  1  0  0  0  0
  5 17  1  0  0  0  0
  6  7  1  0  0  0  0
  6 18  1  0  0  0  0
  7  8  2  0  0  0  0
  8  5  1  0  0  0  0
  8 10  1  0  0  0  0
  9  6  1  0  0  0  0
  9 20  1  0  0  0  0
 10  1  1  0  0  0  0
 12  1  1  0  0  0  0
 14  2  1  0  0  0  0
 16  4  1  0  0  0  0
 19  6  1  0  0  0  0
M  END
>  <HBA>
2

>  <HBD>
1

>  <TPSA>
29.46

>  <cid>
69154

>  <dipole>
3.13

>  <excitation_energy_1>
5.063

>  <excitation_energy_2>
5.582

>  <excitation_energy_3>
5.654

>  <excitation_energy_4>
5.893

>  <homo_energy>
-6.063

>  <homo_lumo_gap>
5.984

>  <logP>
1.188

>  <lumo_energy>
-0.079

>  <melting_point>
31.88

>  <molecular_refractivity>
39.06

>  <oscillator_strength_1>
0.0339

>  <oscillator_strength_2>
0.009

>  <oscillator_strength_3>
0.0396

>  <oscillator_strength_4>
0.002

>  <open_babel_can_smiles>
COc1ccccc1CO

>  <mulliken_charges>
20
1   -0.217001
2   -0.125622
3   -0.139516
4   -0.192224
5   -0.189622
6   -0.102452
7   0.109682
8   0.327136
9   -0.62649
10   -0.534058
11   0.171929
12   0.158339
13   0.15818
14   0.127564
15   0.13048
16   0.128828
17   0.131991
18   0.132325
19   0.145418
20   0.405113

>  <lowdin_charges>
20
1   -0.279901
2   -0.175367
3   -0.146374
4   -0.152597
5   -0.210215
6   -0.12965
7   -0.045
8   0.094474
9   -0.474209
10   -0.21129
11   0.164464
12   0.148881
13   0.150645
14   0.159583
15   0.156821
16   0.158729
17   0.162906
18   0.136118
19   0.15106
20   0.340921

$$$$

