PCCDB-ID:  27947
public computational chemistry database (PCCDB) project, http://pccdb.org

 21 21  0  0  0  0  0  0  0  0999 V2000
    1.1701   -0.0503    0.5906 C   0  0  0  0  0  0  0  0  0  0  0  0
    4.6287    2.4768   -1.7775 C   0  0  0  0  0  0  0  0  0  0  0  0
    4.3209   -1.2289   -1.1177 C   0  0  0  0  0  0  0  0  0  0  0  0
    3.3130   -1.1693    0.0183 C   0  0  0  0  0  0  0  0  0  0  0  0
    5.0529    0.1007   -1.1949 C   0  0  0  0  0  0  0  0  0  0  0  0
    2.8684    1.1851   -0.6692 C   0  0  0  0  0  0  0  0  0  0  0  0
    2.4403   -0.0037   -0.1311 N   0  0  0  0  0  0  0  0  0  0  0  0
    4.1012    1.2102   -1.2738 N   0  0  0  0  0  0  0  0  0  0  0  0
    1.8984    2.5746   -0.6034 S   0  0  0  0  0  0  0  0  0  0  0  0
    0.9418   -1.0974    0.8077 H   0  0  0  0  0  0  0  0  0  0  0  0
    0.3726    0.3801   -0.0164 H   0  0  0  0  0  0  0  0  0  0  0  0
    1.2151    0.5116    1.5316 H   0  0  0  0  0  0  0  0  0  0  0  0
    5.5441    2.2643   -2.3367 H   0  0  0  0  0  0  0  0  0  0  0  0
    4.8583    3.1748   -0.9632 H   0  0  0  0  0  0  0  0  0  0  0  0
    3.9025    2.9575   -2.4343 H   0  0  0  0  0  0  0  0  0  0  0  0
    3.8018   -1.4216   -2.0635 H   0  0  0  0  0  0  0  0  0  0  0  0
    5.0338   -2.0432   -0.9498 H   0  0  0  0  0  0  0  0  0  0  0  0
    3.8341   -1.1398    0.9897 H   0  0  0  0  0  0  0  0  0  0  0  0
    2.6854   -2.0661    0.0182 H   0  0  0  0  0  0  0  0  0  0  0  0
    5.6870    0.1336   -2.0869 H   0  0  0  0  0  0  0  0  0  0  0  0
    5.7166    0.2227   -0.3228 H   0  0  0  0  0  0  0  0  0  0  0  0
  1 10  1  0  0  0  0
  1 12  1  0  0  0  0
  2  8  1  0  0  0  0
  2 14  1  0  0  0  0
  3 17  1  0  0  0  0
  3  4  1  0  0  0  0
  4 18  1  0  0  0  0
  5  3  1  0  0  0  0
  5 21  1  0  0  0  0
  6  9  2  0  0  0  0
  6  7  1  0  0  0  0
  7  4  1  0  0  0  0
  7  1  1  0  0  0  0
  8  5  1  0  0  0  0
  8  6  1  0  0  0  0
 11  1  1  0  0  0  0
 13  2  1  0  0  0  0
 15  2  1  0  0  0  0
 16  3  1  0  0  0  0
 19  4  1  0  0  0  0
 20  5  1  0  0  0  0
M  END
>  <HBA>
3

>  <HBD>
0

>  <TPSA>
38.57

>  <cid>
27947

>  <dipole>
5.7

>  <excitation_energy_1>
3.919

>  <excitation_energy_2>
4.589

>  <excitation_energy_3>
4.683

>  <excitation_energy_4>
4.955

>  <homo_energy>
-5.091

>  <homo_lumo_gap>
5.344

>  <logP>
0.414

>  <lumo_energy>
0.253

>  <melting_point>
31.65

>  <molecular_refractivity>
50.26

>  <oscillator_strength_1>
0.0008

>  <oscillator_strength_2>
0.0015

>  <oscillator_strength_3>
0.0727

>  <oscillator_strength_4>
0.0061

>  <open_babel_can_smiles>
S=C1N(C)CCCN1C

>  <mulliken_charges>
21
1   -0.298609
2   -0.299029
3   -0.297607
4   -0.128817
5   -0.128357
6   0.351401
7   -0.410336
8   -0.410826
9   -0.339965
10   0.139032
11   0.200826
12   0.173939
13   0.139178
14   0.174432
15   0.200741
16   0.166097
17   0.151958
18   0.150441
19   0.157461
20   0.157591
21   0.150448

>  <lowdin_charges>
21
1   -0.347262
2   -0.350469
3   -0.286346
4   -0.193084
5   -0.193878
6   0.006401
7   -0.105673
8   -0.106158
9   -0.308831
10   0.1464
11   0.18004
12   0.159263
13   0.14794
14   0.160813
15   0.180151
16   0.158159
17   0.160017
18   0.140394
19   0.155503
20   0.155441
21   0.141179

$$$$

