PCCDB-ID:  29033
public computational chemistry database (PCCDB) project, http://pccdb.org

 17 16  0  0  0  0  0  0  0  0999 V2000
    3.2771    0.6666   -2.7329 C   0  0  0  0  0  0  0  0  0  0  0  0
    6.4803    0.0250    0.2899 C   0  0  0  0  0  0  0  0  0  0  0  0
    3.3260    2.0669    1.0248 C   0  0  0  0  0  0  0  0  0  0  0  0
    3.4285    0.3243   -1.5849 C   0  0  0  0  0  0  0  0  0  0  0  0
    3.6248   -0.0754   -0.1811 C   0  0  0  0  0  0  0  0  0  0  0  0
    5.5726    1.1216    0.8342 C   0  0  0  0  0  0  0  0  0  0  0  0
    4.2093    0.9656    0.6586 N   0  0  0  0  0  0  0  0  0  0  0  0
    6.0365    2.0898    1.4230 O   0  0  0  0  0  0  0  0  0  0  0  0
    3.1441    0.9633   -3.7487 H   0  0  0  0  0  0  0  0  0  0  0  0
    6.3040   -0.9349    0.7898 H   0  0  0  0  0  0  0  0  0  0  0  0
    7.5082    0.3344    0.4810 H   0  0  0  0  0  0  0  0  0  0  0  0
    6.3446   -0.1229   -0.7872 H   0  0  0  0  0  0  0  0  0  0  0  0
    2.4196    1.6727    1.4983 H   0  0  0  0  0  0  0  0  0  0  0  0
    3.0342    2.6538    0.1435 H   0  0  0  0  0  0  0  0  0  0  0  0
    3.8595    2.7123    1.7207 H   0  0  0  0  0  0  0  0  0  0  0  0
    4.2477   -0.9724   -0.1397 H   0  0  0  0  0  0  0  0  0  0  0  0
    2.6569   -0.3592    0.2542 H   0  0  0  0  0  0  0  0  0  0  0  0
  1  4  3  0  0  0  0
  2 11  1  0  0  0  0
  2 10  1  0  0  0  0
  2  6  1  0  0  0  0
  3 13  1  0  0  0  0
  3 15  1  0  0  0  0
  4  5  1  0  0  0  0
  5 16  1  0  0  0  0
  5 17  1  0  0  0  0
  5  7  1  0  0  0  0
  6  8  2  0  0  0  0
  7  6  1  0  0  0  0
  7  3  1  0  0  0  0
  9  1  1  0  0  0  0
 12  2  1  0  0  0  0
 14  3  1  0  0  0  0
M  END
>  <HBA>
2

>  <HBD>
0

>  <TPSA>
20.31

>  <cid>
29033

>  <dipole>
3.35

>  <excitation_energy_1>
5.515

>  <excitation_energy_2>
5.871

>  <excitation_energy_3>
6.138

>  <excitation_energy_4>
6.244

>  <homo_energy>
-6.55

>  <homo_lumo_gap>
7.157

>  <logP>
0.098

>  <lumo_energy>
0.607

>  <melting_point>
14.81

>  <molecular_refractivity>
32.21

>  <oscillator_strength_1>
0.0024

>  <oscillator_strength_2>
0.0126

>  <oscillator_strength_3>
0.0195

>  <oscillator_strength_4>
0.0304

>  <open_babel_can_smiles>
CN(C(=O)C)CC#C

>  <mulliken_charges>
17
1   -0.464843
2   -0.555145
3   -0.321313
4   0.338163
5   -0.309568
6   0.584618
7   -0.392003
8   -0.500583
9   0.19663
10   0.169321
11   0.189832
12   0.175332
13   0.146641
14   0.164786
15   0.204917
16   0.189761
17   0.183455

>  <lowdin_charges>
17
1   -0.236904
2   -0.474046
3   -0.359674
4   -0.05919
5   -0.183158
6   0.166841
7   -0.111557
8   -0.3038
9   0.207456
10   0.166471
11   0.179402
12   0.1687
13   0.149319
14   0.153992
15   0.186316
16   0.178442
17   0.17139

$$$$

