PCCDB-ID:  1682
public computational chemistry database (PCCDB) project, http://pccdb.org

 16 15  0  0  0  0  0  0  0  0999 V2000
    0.4036   -0.2104    0.2074 C   0  0  0  0  0  0  0  0  0  0  0  0
    0.0862    1.2655   -0.0435 C   0  0  0  0  0  0  0  0  0  0  0  0
    1.5217   -0.3842    1.2300 C   0  0  0  0  0  0  0  0  0  0  0  0
    2.0889    0.5225    1.7839 O   0  0  0  0  0  0  0  0  0  0  0  0
    1.8633   -1.6731    1.4986 O   0  0  0  0  0  0  0  0  0  0  0  0
   -1.4282    3.1022   -1.3268 O   0  0  0  0  0  0  0  0  0  0  0  0
   -0.6396    0.9957   -2.5755 O   0  0  0  0  0  0  0  0  0  0  0  0
   -2.5987    0.8314   -0.8266 O   0  0  0  0  0  0  0  0  0  0  0  0
   -1.3093    1.4844   -1.1758 P   0  0  0  0  0  0  0  0  0  0  0  0
    0.6985   -0.7028   -0.7288 H   0  0  0  0  0  0  0  0  0  0  0  0
   -0.4926   -0.7354    0.5649 H   0  0  0  0  0  0  0  0  0  0  0  0
    0.9584    1.7895   -0.4463 H   0  0  0  0  0  0  0  0  0  0  0  0
   -0.1739    1.7629    0.8959 H   0  0  0  0  0  0  0  0  0  0  0  0
    1.3123   -2.2831    0.9800 H   0  0  0  0  0  0  0  0  0  0  0  0
   -2.3410    3.3761   -1.1356 H   0  0  0  0  0  0  0  0  0  0  0  0
   -1.3252    0.8085   -3.2392 H   0  0  0  0  0  0  0  0  0  0  0  0
  1 11  1  0  0  0  0
  1  3  1  0  0  0  0
  2  1  1  0  0  0  0
  2 13  1  0  0  0  0
  3  5  1  0  0  0  0
  3  4  2  0  0  0  0
  6  9  1  0  0  0  0
  6 15  1  0  0  0  0
  7  9  1  0  0  0  0
  9  8  2  0  0  0  0
  9  2  1  0  0  0  0
 10  1  1  0  0  0  0
 12  2  1  0  0  0  0
 14  5  1  0  0  0  0
 16  7  1  0  0  0  0
M  END
>  <HBA>
5

>  <HBD>
3

>  <TPSA>
104.64

>  <cid>
1682

>  <dipole>
3.5

>  <excitation_energy_1>
5.781

>  <excitation_energy_2>
6.583

>  <excitation_energy_3>
6.861

>  <excitation_energy_4>
6.931

>  <homo_energy>
-7.638

>  <homo_lumo_gap>
7.72

>  <logP>
-0.361

>  <lumo_energy>
0.082

>  <melting_point>
138.92

>  <molecular_refractivity>
29.29

>  <oscillator_strength_1>
0.0003

>  <oscillator_strength_2>
0.0205

>  <oscillator_strength_3>
0.0161

>  <oscillator_strength_4>
0.0501

>  <open_babel_can_smiles>
OC(=O)CCP(=O)(O)O

>  <mulliken_charges>
16
1   -0.430788
2   -0.460596
3   0.610105
4   -0.432333
5   -0.563221
6   -0.647525
7   -0.653606
8   -0.562943
9   1.038109
10   0.191019
11   0.198701
12   0.212743
13   0.20717
14   0.412569
15   0.441346
16   0.439251

>  <lowdin_charges>
16
1   -0.325317
2   -0.44304
3   0.199885
4   -0.234256
5   -0.357385
6   -0.581244
7   -0.577079
8   -0.608135
9   1.050505
10   0.175659
11   0.180313
12   0.197428
13   0.194112
14   0.362318
15   0.383659
16   0.382577

$$$$

