PCCDB-ID:  29935
public computational chemistry database (PCCDB) project, http://pccdb.org

 13 12  0  0  0  0  0  0  0  0999 V2000
    1.0420   -0.2105   -0.1833 C   0  0  0  0  0  0  0  0  0  0  0  0
    2.5366    1.6280    1.8197 C   0  0  0  0  0  0  0  0  0  0  0  0
    2.5375   -0.0926   -0.0539 C   0  0  0  0  0  0  0  0  0  0  0  0
    4.6254    0.6995    0.8119 C   0  0  0  0  0  0  0  0  0  0  0  0
    3.1882    0.7050    0.8156 C   0  0  0  0  0  0  0  0  0  0  0  0
    5.7890    0.7205    0.8375 N   0  0  0  0  0  0  0  0  0  0  0  0
    0.7758   -0.9339   -0.9582 H   0  0  0  0  0  0  0  0  0  0  0  0
    0.5797    0.7477   -0.4517 H   0  0  0  0  0  0  0  0  0  0  0  0
    0.5772   -0.5420    0.7536 H   0  0  0  0  0  0  0  0  0  0  0  0
    1.4472    1.5728    1.7623 H   0  0  0  0  0  0  0  0  0  0  0  0
    2.8386    2.6676    1.6458 H   0  0  0  0  0  0  0  0  0  0  0  0
    2.8418    1.3707    2.8408 H   0  0  0  0  0  0  0  0  0  0  0  0
    3.1393   -0.7049   -0.7214 H   0  0  0  0  0  0  0  0  0  0  0  0
  1  3  1  0  0  0  0
  1  9  1  0  0  0  0
  2 12  1  0  0  0  0
  3  5  2  0  0  0  0
  4  5  1  0  0  0  0
  4  6  3  0  0  0  0
  5  2  1  0  0  0  0
  7  1  1  0  0  0  0
  8  1  1  0  0  0  0
 10  2  1  0  0  0  0
 11  2  1  0  0  0  0
 13  3  1  0  0  0  0
M  END
>  <HBA>
1

>  <HBD>
0

>  <TPSA>
23.79

>  <cid>
29935

>  <dipole>
4.51

>  <excitation_energy_1>
5.938

>  <excitation_energy_2>
6.26

>  <excitation_energy_3>
6.344

>  <excitation_energy_4>
6.548

>  <homo_energy>
-7.091

>  <homo_lumo_gap>
6.065

>  <logP>
1.476

>  <lumo_energy>
-1.026

>  <melting_point>
21.21

>  <molecular_refractivity>
25.42

>  <oscillator_strength_1>
0.3933

>  <oscillator_strength_2>
0.001

>  <oscillator_strength_3>
0.0001

>  <oscillator_strength_4>
0.0008

>  <open_babel_can_smiles>
C/C(=C\C)/C#N

>  <mulliken_charges>
13
1   -0.497411
2   -0.50576
3   -0.127558
4   0.268143
5   0.138657
6   -0.480443
7   0.166775
8   0.175704
9   0.175526
10   0.163306
11   0.180039
12   0.180008
13   0.163015

>  <lowdin_charges>
13
1   -0.449255
2   -0.430437
3   -0.127115
4   -0.017979
5   -0.025715
6   -0.128747
7   0.166818
8   0.168647
9   0.168722
10   0.161865
11   0.170328
12   0.170575
13   0.172293

$$$$

