PCCDB-ID:  26510
public computational chemistry database (PCCDB) project, http://pccdb.org

 32 31  0  0  0  0  0  0  0  0999 V2000
    3.6608    0.9937    2.9406 C   0  0  0  0  0  0  0  0  0  0  0  0
    6.2340   -0.5052   -0.1246 C   0  0  0  0  0  0  0  0  0  0  0  0
    5.9182    1.9911   -0.4737 C   0  0  0  0  0  0  0  0  0  0  0  0
    3.4367    1.4324    1.4910 C   0  0  0  0  0  0  0  0  0  0  0  0
    2.1812   -0.5291   -0.6923 C   0  0  0  0  0  0  0  0  0  0  0  0
    3.3369    0.4807   -0.7615 C   0  0  0  0  0  0  0  0  0  0  0  0
    5.5306    0.7636    0.3757 C   0  0  0  0  0  0  0  0  0  0  0  0
    3.2044   -2.6760   -1.2935 C   0  0  0  0  0  0  0  0  0  0  0  0
    3.2056   -2.3398   -2.5342 N   0  0  0  0  0  0  0  0  0  0  0  0
    3.7742   -3.8307   -0.7306 N   0  0  0  0  0  0  0  0  0  0  0  0
    2.6249   -1.8686   -0.3197 N   0  0  0  0  0  0  0  0  0  0  0  0
    4.0723    0.5439    0.5101 N   0  0  0  0  0  0  0  0  0  0  0  0
    3.1459    1.6746    3.6289 H   0  0  0  0  0  0  0  0  0  0  0  0
    4.7218    0.9923    3.2133 H   0  0  0  0  0  0  0  0  0  0  0  0
    3.2732   -0.0185    3.0996 H   0  0  0  0  0  0  0  0  0  0  0  0
    7.3208   -0.3600   -0.1320 H   0  0  0  0  0  0  0  0  0  0  0  0
    5.9294   -0.7687   -1.1437 H   0  0  0  0  0  0  0  0  0  0  0  0
    6.0018   -1.3564    0.5233 H   0  0  0  0  0  0  0  0  0  0  0  0
    6.9979    2.1710   -0.4136 H   0  0  0  0  0  0  0  0  0  0  0  0
    5.4117    2.8996   -0.1286 H   0  0  0  0  0  0  0  0  0  0  0  0
    5.6664    1.8446   -1.5301 H   0  0  0  0  0  0  0  0  0  0  0  0
    3.7612    2.4822    1.3656 H   0  0  0  0  0  0  0  0  0  0  0  0
    2.3590    1.4287    1.2944 H   0  0  0  0  0  0  0  0  0  0  0  0
    1.6922   -0.5934   -1.6664 H   0  0  0  0  0  0  0  0  0  0  0  0
    1.4324   -0.2116    0.0441 H   0  0  0  0  0  0  0  0  0  0  0  0
    2.9458    1.4673   -1.0695 H   0  0  0  0  0  0  0  0  0  0  0  0
    4.0106    0.1453   -1.5526 H   0  0  0  0  0  0  0  0  0  0  0  0
    5.8927    0.9462    1.3947 H   0  0  0  0  0  0  0  0  0  0  0  0
    3.5599   -3.1003   -3.1171 H   0  0  0  0  0  0  0  0  0  0  0  0
    4.0170   -4.5393   -1.4123 H   0  0  0  0  0  0  0  0  0  0  0  0
    3.2315   -4.2220    0.0325 H   0  0  0  0  0  0  0  0  0  0  0  0
    3.1754   -1.8391    0.5346 H   0  0  0  0  0  0  0  0  0  0  0  0
  1 15  1  0  0  0  0
  1 14  1  0  0  0  0
  1 13  1  0  0  0  0
  2  7  1  0  0  0  0
  2 18  1  0  0  0  0
  3 19  1  0  0  0  0
  3 20  1  0  0  0  0
  3  7  1  0  0  0  0
  4  1  1  0  0  0  0
  5 11  1  0  0  0  0
  5 25  1  0  0  0  0
  6  5  1  0  0  0  0
  6 12  1  0  0  0  0
  7 12  1  0  0  0  0
  7 28  1  0  0  0  0
  8 10  2  0  0  0  0
  8 11  1  0  0  0  0
  9  8  1  0  0  0  0
 10 31  1  0  0  0  0
 11 32  1  0  0  0  0
 12  4  1  0  0  0  0
 16  2  1  0  0  0  0
 17  2  1  0  0  0  0
 21  3  1  0  0  0  0
 22  4  1  0  0  0  0
 23  4  1  0  0  0  0
 24  5  1  0  0  0  0
 26  6  1  0  0  0  0
 27  6  1  0  0  0  0
 29  9  1  0  0  0  0
 30 10  1  0  0  0  0
M  RAD  1   9   2
M  END
>  <HBA>
4

>  <HBD>
2

>  <TPSA>
67.64

>  <cid>
26510

>  <dipole>
2.01

>  <excitation_energy_1>
5.02

>  <excitation_energy_2>
5.216

>  <excitation_energy_3>
5.261

>  <excitation_energy_4>
5.449

>  <homo_energy>
-5.513

>  <homo_lumo_gap>
7.162

>  <logP>
1.391

>  <lumo_energy>
1.649

>  <melting_point>
101.11

>  <molecular_refractivity>
52.57

>  <oscillator_strength_1>
0.0036

>  <oscillator_strength_2>
0.0228

>  <oscillator_strength_3>
0.0053

>  <oscillator_strength_4>
0.0371

>  <open_babel_can_smiles>
CCN(C(C)C)CCNC(=[NH2])[NH]

>  <mulliken_charges>
32
1   -0.438993
2   -0.446419
3   -0.452729
4   -0.123206
5   -0.13628
6   -0.151133
7   0.039801
8   0.586478
9   -0.652952
10   -0.756371
11   -0.58664
12   -0.391808
13   0.138876
14   0.148163
15   0.144626
16   0.134232
17   0.158155
18   0.148738
19   0.140652
20   0.143631
21   0.1482
22   0.118455
23   0.138186
24   0.178172
25   0.132716
26   0.115057
27   0.174702
28   0.125585
29   0.260987
30   0.316127
31   0.321994
32   0.322997

>  <lowdin_charges>
32
1   -0.449812
2   -0.449207
3   -0.459313
4   -0.195374
5   -0.207462
6   -0.217864
7   -0.055696
8   0.125339
9   -0.48889
10   -0.514035
11   -0.308008
12   -0.197036
13   0.151004
14   0.146684
15   0.147814
16   0.145604
17   0.153866
18   0.153311
19   0.149412
20   0.148536
21   0.149224
22   0.120365
23   0.142643
24   0.170399
25   0.14027
26   0.126185
27   0.162476
28   0.138555
29   0.245733
30   0.274636
31   0.278773
32   0.271865

$$$$

