PCCDB-ID:  32365
public computational chemistry database (PCCDB) project, http://pccdb.org

 26 25  0  0  0  0  0  0  0  0999 V2000
    1.5086    3.0460    1.8461 C   0  0  0  0  0  0  0  0  0  0  0  0
    9.1876    1.8026    0.9780 C   0  0  0  0  0  0  0  0  0  0  0  0
    7.9092    3.1948    2.6677 C   0  0  0  0  0  0  0  0  0  0  0  0
    2.5245    3.1939    2.9670 C   0  0  0  0  0  0  0  0  0  0  0  0
    6.7143    1.4951    1.1792 C   0  0  0  0  0  0  0  0  0  0  0  0
    8.0020    1.8401    1.9533 C   0  0  0  0  0  0  0  0  0  0  0  0
    4.5739    2.4435    2.0610 C   0  0  0  0  0  0  0  0  0  0  0  0
    5.2299    0.2465    2.7291 N   0  0  0  0  0  0  0  0  0  0  0  0
    5.5155    1.3927    2.0239 N   0  0  0  0  0  0  0  0  0  0  0  0
    4.7207    3.4577    1.4108 O   0  0  0  0  0  0  0  0  0  0  0  0
    6.0780   -0.6175    2.6152 O   0  0  0  0  0  0  0  0  0  0  0  0
    3.5565    2.1753    2.8831 O   0  0  0  0  0  0  0  0  0  0  0  0
    0.7011    3.7741    1.9838 H   0  0  0  0  0  0  0  0  0  0  0  0
    1.0713    2.0425    1.8473 H   0  0  0  0  0  0  0  0  0  0  0  0
    1.9743    3.2314    0.8742 H   0  0  0  0  0  0  0  0  0  0  0  0
    9.2823    0.8226    0.4956 H   0  0  0  0  0  0  0  0  0  0  0  0
   10.1271    2.0095    1.5021 H   0  0  0  0  0  0  0  0  0  0  0  0
    9.0737    2.5580    0.1897 H   0  0  0  0  0  0  0  0  0  0  0  0
    8.8394    3.4065    3.2073 H   0  0  0  0  0  0  0  0  0  0  0  0
    7.0933    3.2143    3.3981 H   0  0  0  0  0  0  0  0  0  0  0  0
    7.7379    4.0095    1.9540 H   0  0  0  0  0  0  0  0  0  0  0  0
    2.0726    3.0221    3.9462 H   0  0  0  0  0  0  0  0  0  0  0  0
    2.9994    4.1774    2.9519 H   0  0  0  0  0  0  0  0  0  0  0  0
    6.8263    0.5240    0.6889 H   0  0  0  0  0  0  0  0  0  0  0  0
    6.4977    2.2571    0.4287 H   0  0  0  0  0  0  0  0  0  0  0  0
    8.1521    1.0559    2.7056 H   0  0  0  0  0  0  0  0  0  0  0  0
  1 14  1  0  0  0  0
  1 13  1  0  0  0  0
  1  4  1  0  0  0  0
  2 17  1  0  0  0  0
  2  6  1  0  0  0  0
  3 19  1  0  0  0  0
  3 20  1  0  0  0  0
  4 22  1  0  0  0  0
  5  6  1  0  0  0  0
  5  9  1  0  0  0  0
  6  3  1  0  0  0  0
  6 26  1  0  0  0  0
  7 12  1  0  0  0  0
  9  7  1  0  0  0  0
  9  8  1  0  0  0  0
 10  7  2  0  0  0  0
 11  8  1  0  0  0  0
 12  4  1  0  0  0  0
 15  1  1  0  0  0  0
 16  2  1  0  0  0  0
 18  2  1  0  0  0  0
 21  3  1  0  0  0  0
 23  4  1  0  0  0  0
 24  5  1  0  0  0  0
 25  5  1  0  0  0  0
M  RAD  2   8   2  11   2
M  END
>  <HBA>
5

>  <HBD>
0

>  <TPSA>
58.97

>  <cid>
32365

>  <dipole>
1.89

>  <excitation_energy_1>
2.954

>  <excitation_energy_2>
5.129

>  <excitation_energy_3>
5.361

>  <excitation_energy_4>
5.874

>  <homo_energy>
-6.629

>  <homo_lumo_gap>
4.781

>  <logP>
1.782

>  <lumo_energy>
-1.848

>  <melting_point>
17.23

>  <molecular_refractivity>
45.07

>  <oscillator_strength_1>
0.001

>  <oscillator_strength_2>
0.0021

>  <oscillator_strength_3>
0.1356

>  <oscillator_strength_4>
0.0383

>  <open_babel_can_smiles>
CCOC(=O)N(CC(C)C)[N][O]

>  <mulliken_charges>
26
1   -0.465191
2   -0.448856
3   -0.445859
4   -0.045828
5   -0.145603
6   -0.079854
7   0.833639
8   0.20007
9   -0.362216
10   -0.496881
11   -0.327436
12   -0.451983
13   0.155516
14   0.165945
15   0.177238
16   0.148448
17   0.150178
18   0.144232
19   0.144895
20   0.145324
21   0.154134
22   0.164173
23   0.175324
24   0.173246
25   0.18544
26   0.151905

>  <lowdin_charges>
26
1   -0.454905
2   -0.44378
3   -0.44834
4   -0.120312
5   -0.215808
6   -0.126552
7   0.214966
8   0.089078
9   -0.044252
10   -0.279513
11   -0.211984
12   -0.169824
13   0.162693
14   0.160037
15   0.165783
16   0.151538
17   0.154639
18   0.148772
19   0.151677
20   0.150631
21   0.154157
22   0.158335
23   0.160835
24   0.16574
25   0.175888
26   0.150498

$$$$

