PCCDB-ID:  69945
public computational chemistry database (PCCDB) project, http://pccdb.org

 16 15  0  0  0  0  0  0  0  0999 V2000
    2.4526   -0.6885   -0.4142 C   0  0  0  0  0  0  0  0  0  0  0  0
    5.3550    3.5393    2.8873 C   0  0  0  0  0  0  0  0  0  0  0  0
    3.8353   -0.0866   -0.2681 C   0  0  0  0  0  0  0  0  0  0  0  0
    6.1224    0.8223    1.5969 O   0  0  0  0  0  0  0  0  0  0  0  0
    5.4486    2.6015   -0.0477 O   0  0  0  0  0  0  0  0  0  0  0  0
    4.4490    2.5915    2.2705 O   0  0  0  0  0  0  0  0  0  0  0  0
    3.7379    0.9346    0.7754 O   0  0  0  0  0  0  0  0  0  0  0  0
    5.1116    1.7296    1.0698 S   0  0  0  0  0  0  0  0  0  0  0  0
    2.4749   -1.4652   -1.1863 H   0  0  0  0  0  0  0  0  0  0  0  0
    1.7254    0.0737   -0.7089 H   0  0  0  0  0  0  0  0  0  0  0  0
    2.1249   -1.1425    0.5257 H   0  0  0  0  0  0  0  0  0  0  0  0
    4.7644    4.0168    3.6686 H   0  0  0  0  0  0  0  0  0  0  0  0
    5.6858    4.2796    2.1540 H   0  0  0  0  0  0  0  0  0  0  0  0
    6.2106    3.0171    3.3240 H   0  0  0  0  0  0  0  0  0  0  0  0
    4.1710    0.3940   -1.1925 H   0  0  0  0  0  0  0  0  0  0  0  0
    4.5756   -0.8293    0.0448 H   0  0  0  0  0  0  0  0  0  0  0  0
  1  3  1  0  0  0  0
  1 11  1  0  0  0  0
  2 14  1  0  0  0  0
  2 12  1  0  0  0  0
  3 16  1  0  0  0  0
  3  7  1  0  0  0  0
  5  8  2  0  0  0  0
  6  2  1  0  0  0  0
  7  8  1  0  0  0  0
  8  4  2  0  0  0  0
  8  6  1  0  0  0  0
  9  1  1  0  0  0  0
 10  1  1  0  0  0  0
 13  2  1  0  0  0  0
 15  3  1  0  0  0  0
M  END
>  <HBA>
4

>  <HBD>
0

>  <TPSA>
60.98

>  <cid>
69945

>  <dipole>
1.48

>  <excitation_energy_1>
7.034

>  <excitation_energy_2>
7.374

>  <excitation_energy_3>
7.715

>  <excitation_energy_4>
7.801

>  <homo_energy>
-8.003

>  <homo_lumo_gap>
8.808

>  <logP>
0.995

>  <lumo_energy>
0.805

>  <melting_point>
-8.14

>  <molecular_refractivity>
27.67

>  <oscillator_strength_1>
0.0032

>  <oscillator_strength_2>
0.0001

>  <oscillator_strength_3>
0.0083

>  <oscillator_strength_4>
0.0014

>  <open_babel_can_smiles>
CCOS(=O)(=O)OC

>  <mulliken_charges>
16
1   -0.460242
2   -0.242206
3   -0.061768
4   -0.500251
5   -0.497776
6   -0.487772
7   -0.496844
8   1.311176
9   0.160888
10   0.174258
11   0.17408
12   0.189494
13   0.189361
14   0.188574
15   0.178608
16   0.180421

>  <lowdin_charges>
16
1   -0.445838
2   -0.281018
3   -0.123124
4   -0.55906
5   -0.558694
6   -0.385919
7   -0.392618
8   1.410708
9   0.165455
10   0.166581
11   0.165781
12   0.17675
13   0.169145
14   0.1686
15   0.160918
16   0.162332

$$$$

