PCCDB-ID:  27568
public computational chemistry database (PCCDB) project, http://pccdb.org

 25 25  0  0  1  0  0  0  0  0999 V2000
    0.9620    1.2107   -0.5339 C   0  0  0  0  0  0  0  0  0  0  0  0
    1.7435   -0.0250   -0.0626 C   0  0  0  0  0  0  0  0  0  0  0  0
   -0.4172    1.2845    0.1415 C   0  0  0  0  0  0  0  0  0  0  0  0
   -2.5597    0.0011    0.6772 C   0  0  0  0  0  0  0  0  0  0  0  0
   -3.4518   -1.2068    0.3809 C   0  0  0  0  0  0  0  0  0  0  0  0
    0.8909   -1.2949   -0.2245 C   0  0  0  0  0  0  0  0  0  0  0  0
   -1.2002   -0.0341   -0.0312 C   0  0  2  0  0  0  0  0  0  0  0  0
   -4.7479   -1.0610    1.0624 N   0  0  0  0  0  0  0  0  0  0  0  0
   -0.4307   -1.2124    0.4081 N   0  0  0  0  0  0  0  0  0  0  0  0
    0.8262    1.1556   -1.6244 H   0  0  0  0  0  0  0  0  0  0  0  0
    1.5332    2.1270   -0.3384 H   0  0  0  0  0  0  0  0  0  0  0  0
    2.0133    0.0932    0.9979 H   0  0  0  0  0  0  0  0  0  0  0  0
    2.6855   -0.1250   -0.6183 H   0  0  0  0  0  0  0  0  0  0  0  0
   -0.9979    2.1233   -0.2653 H   0  0  0  0  0  0  0  0  0  0  0  0
   -0.2912    1.4818    1.2177 H   0  0  0  0  0  0  0  0  0  0  0  0
   -2.3924    0.0732    1.7651 H   0  0  0  0  0  0  0  0  0  0  0  0
   -3.0979    0.9137    0.3926 H   0  0  0  0  0  0  0  0  0  0  0  0
   -2.9056   -2.1289    0.6337 H   0  0  0  0  0  0  0  0  0  0  0  0
   -3.6497   -1.2458   -0.6986 H   0  0  0  0  0  0  0  0  0  0  0  0
    1.4121   -2.1699    0.1823 H   0  0  0  0  0  0  0  0  0  0  0  0
    0.7306   -1.4922   -1.2943 H   0  0  0  0  0  0  0  0  0  0  0  0
   -1.3795   -0.1762   -1.1096 H   0  0  0  0  0  0  0  0  0  0  0  0
   -4.6028   -1.1137    2.0710 H   0  0  0  0  0  0  0  0  0  0  0  0
   -5.3427   -1.8560    0.8312 H   0  0  0  0  0  0  0  0  0  0  0  0
   -0.3045   -1.1493    1.4205 H   0  0  0  0  0  0  0  0  0  0  0  0
  1 11  1  0  0  0  0
  1  2  1  0  0  0  0
  1  3  1  0  0  0  0
  2 12  1  0  0  0  0
  3 15  1  0  0  0  0
  4 16  1  0  0  0  0
  5 18  1  0  0  0  0
  5  4  1  0  0  0  0
  5  8  1  0  0  0  0
  6  2  1  0  0  0  0
  6 20  1  0  0  0  0
  6  9  1  0  0  0  0
  7 22  1  6  0  0  0
  7  3  1  0  0  0  0
  7  9  1  0  0  0  0
  7  4  1  0  0  0  0
  8 23  1  0  0  0  0
  9 25  1  0  0  0  0
 10  1  1  0  0  0  0
 13  2  1  0  0  0  0
 14  3  1  0  0  0  0
 17  4  1  0  0  0  0
 19  5  1  0  0  0  0
 21  6  1  0  0  0  0
 24  8  1  0  0  0  0
M  END
>  <HBA>
2

>  <HBD>
2

>  <TPSA>
38.05

>  <cid>
27568

>  <dipole>
1.42

>  <excitation_energy_1>
5.216

>  <excitation_energy_2>
5.401

>  <excitation_energy_3>
5.44

>  <excitation_energy_4>
5.768

>  <homo_energy>
-5.625

>  <homo_lumo_gap>
7.889

>  <logP>
1.506

>  <lumo_energy>
2.264

>  <melting_point>
76.78

>  <molecular_refractivity>
43.07

>  <oscillator_strength_1>
0.0138

>  <oscillator_strength_2>
0.0101

>  <oscillator_strength_3>
0.0122

>  <oscillator_strength_4>
0.0089

>  <open_babel_can_smiles>
NCC[C@H]1CCCCN1

>  <mulliken_charges>
25
1   -0.261648
2   -0.261783
3   -0.258847
4   -0.257853
5   -0.135635
6   -0.140654
7   0.028899
8   -0.719735
9   -0.537221
10   0.128795
11   0.132428
12   0.122739
13   0.128995
14   0.129668
15   0.118698
16   0.111592
17   0.146948
18   0.137484
19   0.132655
20   0.13551
21   0.136777
22   0.122613
23   0.287158
24   0.292812
25   0.279604

>  <lowdin_charges>
25
1   -0.277588
2   -0.29316
3   -0.291948
4   -0.278905
5   -0.205939
6   -0.208754
7   -0.065816
8   -0.560006
9   -0.357843
10   0.135999
11   0.144205
12   0.13335
13   0.144154
14   0.145274
15   0.132589
16   0.1292
17   0.152283
18   0.130132
19   0.137137
20   0.144711
21   0.137732
22   0.132235
23   0.246012
24   0.252892
25   0.242056

$$$$

