PCCDB-ID:  15689
public computational chemistry database (PCCDB) project, http://pccdb.org

 12 12  0  0  0  0  0  0  0  0999 V2000
   -0.7500   -0.9777   -0.1992 C   0  0  0  0  0  0  0  0  0  0  0  0
    0.7249   -1.1420    0.1795 C   0  0  0  0  0  0  0  0  0  0  0  0
   -0.0585    1.3256   -0.1611 C   0  0  0  0  0  0  0  0  0  0  0  0
   -0.1052    2.5900   -0.2949 N   0  0  0  0  0  0  0  0  0  0  0  0
   -1.0701    0.4088    0.1280 N   0  0  0  0  0  0  0  0  0  0  0  0
    1.5071    0.4509   -0.3062 S   0  0  0  0  0  0  0  0  0  0  0  0
   -1.3853   -1.6567    0.3796 H   0  0  0  0  0  0  0  0  0  0  0  0
   -0.8922   -1.1941   -1.2696 H   0  0  0  0  0  0  0  0  0  0  0  0
    1.1972   -1.9670   -0.3573 H   0  0  0  0  0  0  0  0  0  0  0  0
    0.8419   -1.2957    1.2559 H   0  0  0  0  0  0  0  0  0  0  0  0
   -1.0641    2.9405   -0.2129 H   0  0  0  0  0  0  0  0  0  0  0  0
   -2.0074    0.7259   -0.0944 H   0  0  0  0  0  0  0  0  0  0  0  0
  1  5  1  0  0  0  0
  1  2  1  0  0  0  0
  1  7  1  0  0  0  0
  2 10  1  0  0  0  0
  3  5  1  0  0  0  0
  4 11  1  0  0  0  0
  4  3  2  0  0  0  0
  6  3  1  0  0  0  0
  6  2  1  0  0  0  0
  8  1  1  0  0  0  0
  9  2  1  0  0  0  0
 12  5  1  0  0  0  0
M  END
>  <HBA>
3

>  <HBD>
1

>  <TPSA>
63.68

>  <cid>
15689

>  <dipole>
4.7

>  <excitation_energy_1>
5.156

>  <excitation_energy_2>
5.349

>  <excitation_energy_3>
5.708

>  <excitation_energy_4>
5.913

>  <homo_energy>
-6.185

>  <homo_lumo_gap>
6.77

>  <logP>
0.184

>  <lumo_energy>
0.585

>  <melting_point>
79.09

>  <molecular_refractivity>
31.73

>  <oscillator_strength_1>
0.0006

>  <oscillator_strength_2>
0.0016

>  <oscillator_strength_3>
0.0036

>  <oscillator_strength_4>
0.0023

>  <open_babel_can_smiles>
N=C1NCCS1

>  <mulliken_charges>
12
1   -0.130412
2   -0.434314
3   0.291359
4   -0.618734
5   -0.556344
6   0.161159
7   0.160937
8   0.15793
9   0.183205
10   0.192679
11   0.272983
12   0.319552

>  <lowdin_charges>
12
1   -0.195159
2   -0.375736
3   -0.014522
4   -0.427079
5   -0.314584
6   0.163607
7   0.157646
8   0.140766
9   0.173435
10   0.164613
11   0.250148
12   0.276863

$$$$

