PCCDB-ID:  7757
public computational chemistry database (PCCDB) project, http://pccdb.org

 16 15  0  0  0  0  0  0  0  0999 V2000
    1.8124   -1.3634   -0.7330 C   0  0  0  0  0  0  0  0  0  0  0  0
    2.2761    3.8046   -2.4532 C   0  0  0  0  0  0  0  0  0  0  0  0
    2.8369    0.9567   -0.1562 C   0  0  0  0  0  0  0  0  0  0  0  0
    1.7714   -0.1203    0.1269 C   0  0  0  0  0  0  0  0  0  0  0  0
    2.5743    1.6884   -1.4638 C   0  0  0  0  0  0  0  0  0  0  0  0
    0.9591    0.0475    1.0127 O   0  0  0  0  0  0  0  0  0  0  0  0
    2.4320    1.1567   -2.5454 O   0  0  0  0  0  0  0  0  0  0  0  0
    2.5208    3.0195   -1.2713 O   0  0  0  0  0  0  0  0  0  0  0  0
    2.7456   -1.9116   -0.5469 H   0  0  0  0  0  0  0  0  0  0  0  0
    1.8133   -1.0855   -1.7922 H   0  0  0  0  0  0  0  0  0  0  0  0
    0.9613   -2.0055   -0.4982 H   0  0  0  0  0  0  0  0  0  0  0  0
    2.2679    4.8410   -2.1157 H   0  0  0  0  0  0  0  0  0  0  0  0
    1.3146    3.5351   -2.8972 H   0  0  0  0  0  0  0  0  0  0  0  0
    3.0672    3.6437   -3.1899 H   0  0  0  0  0  0  0  0  0  0  0  0
    3.8195    0.4766   -0.2493 H   0  0  0  0  0  0  0  0  0  0  0  0
    2.8523    1.6607    0.6760 H   0  0  0  0  0  0  0  0  0  0  0  0
  1  9  1  0  0  0  0
  1 11  1  0  0  0  0
  1  4  1  0  0  0  0
  2 12  1  0  0  0  0
  2  8  1  0  0  0  0
  3  4  1  0  0  0  0
  3 16  1  0  0  0  0
  4  6  2  0  0  0  0
  5  8  1  0  0  0  0
  5  3  1  0  0  0  0
  7  5  2  0  0  0  0
 10  1  1  0  0  0  0
 13  2  1  0  0  0  0
 14  2  1  0  0  0  0
 15  3  1  0  0  0  0
M  END
>  <HBA>
3

>  <HBD>
0

>  <TPSA>
43.37

>  <cid>
7757

>  <dipole>
2.41

>  <excitation_energy_1>
4.36

>  <excitation_energy_2>
5.648

>  <excitation_energy_3>
5.961

>  <excitation_energy_4>
6.43

>  <homo_energy>
-6.865

>  <homo_lumo_gap>
6.158

>  <logP>
0.139

>  <lumo_energy>
-0.708

>  <melting_point>
7.93

>  <molecular_refractivity>
27.63

>  <oscillator_strength_1>
0.0013

>  <oscillator_strength_2>
0.0063

>  <oscillator_strength_3>
0.0217

>  <oscillator_strength_4>
0.0146

>  <open_babel_can_smiles>
COC(=O)CC(=O)C

>  <mulliken_charges>
16
1   -0.537809
2   -0.222436
3   -0.435371
4   0.451373
5   0.614609
6   -0.419659
7   -0.469761
8   -0.434327
9   0.167055
10   0.207619
11   0.177375
12   0.17079
13   0.1763
14   0.173581
15   0.186326
16   0.194334

>  <lowdin_charges>
16
1   -0.479029
2   -0.277836
3   -0.329632
4   0.172002
5   0.201886
6   -0.221566
7   -0.269318
8   -0.181704
9   0.171186
10   0.187321
11   0.172715
12   0.162985
13   0.162759
14   0.162182
15   0.182097
16   0.183951

$$$$

