PCCDB-ID:  46625
public computational chemistry database (PCCDB) project, http://pccdb.org

 23 23  0  0  0  0  0  0  0  0999 V2000
   -3.2248    0.5960   -0.2962 C   0  0  0  0  0  0  0  0  0  0  0  0
   -2.6716   -0.5807    0.2109 C   0  0  0  0  0  0  0  0  0  0  0  0
   -2.3950    1.6342   -0.7190 C   0  0  0  0  0  0  0  0  0  0  0  0
   -1.2850   -0.7213    0.2931 C   0  0  0  0  0  0  0  0  0  0  0  0
    1.5894    0.0502    1.1292 C   0  0  0  0  0  0  0  0  0  0  0  0
   -0.3073    3.3112   -1.9645 C   0  0  0  0  0  0  0  0  0  0  0  0
   -1.0008    1.5065   -0.6481 C   0  0  0  0  0  0  0  0  0  0  0  0
   -0.4547    0.3171   -0.1259 C   0  0  0  0  0  0  0  0  0  0  0  0
    2.3493    1.3189    1.5493 C   0  0  0  0  0  0  0  0  0  0  0  0
   -0.0904    2.5298   -0.9838 N   0  0  0  0  0  0  0  0  0  0  0  0
    0.4973    4.3365   -2.2644 O   0  0  0  0  0  0  0  0  0  0  0  0
    3.1031    1.2858    2.4940 O   0  0  0  0  0  0  0  0  0  0  0  0
    2.1281    2.4236    0.8314 O   0  0  0  0  0  0  0  0  0  0  0  0
    0.9176    0.2015   -0.1221 O   0  0  0  0  0  0  0  0  0  0  0  0
   -4.3031    0.7145   -0.3494 H   0  0  0  0  0  0  0  0  0  0  0  0
   -3.3155   -1.3906    0.5408 H   0  0  0  0  0  0  0  0  0  0  0  0
   -2.8278    2.5684   -1.0661 H   0  0  0  0  0  0  0  0  0  0  0  0
   -0.8394   -1.6382    0.6674 H   0  0  0  0  0  0  0  0  0  0  0  0
    0.8916   -0.2172    1.9306 H   0  0  0  0  0  0  0  0  0  0  0  0
    2.3223   -0.7552    1.0301 H   0  0  0  0  0  0  0  0  0  0  0  0
   -1.1413    3.2414   -2.6656 H   0  0  0  0  0  0  0  0  0  0  0  0
    1.2137    4.3598   -1.6006 H   0  0  0  0  0  0  0  0  0  0  0  0
    1.4441    2.2755    0.1294 H   0  0  0  0  0  0  0  0  0  0  0  0
  1  2  2  0  0  0  0
  2  4  1  0  0  0  0
  2 16  1  0  0  0  0
  3  7  2  0  0  0  0
  3  1  1  0  0  0  0
  4 18  1  0  0  0  0
  5  9  1  0  0  0  0
  5 19  1  0  0  0  0
  6 10  2  0  0  0  0
  7  8  1  0  0  0  0
  8 14  1  0  0  0  0
  8  4  2  0  0  0  0
  9 12  2  0  0  0  0
 10  7  1  0  0  0  0
 11  6  1  0  0  0  0
 11 22  1  0  0  0  0
 13  9  1  0  0  0  0
 14  5  1  0  0  0  0
 15  1  1  0  0  0  0
 17  3  1  0  0  0  0
 20  5  1  0  0  0  0
 21  6  1  0  0  0  0
 23 13  1  0  0  0  0
M  END
>  <HBA>
5

>  <HBD>
2

>  <TPSA>
75.63

>  <cid>
46625

>  <dipole>
5.35

>  <excitation_energy_1>
4.559

>  <excitation_energy_2>
4.975

>  <excitation_energy_3>
5.344

>  <excitation_energy_4>
5.496

>  <homo_energy>
-6.378

>  <homo_lumo_gap>
5.236

>  <logP>
1.427

>  <lumo_energy>
-1.143

>  <melting_point>
141.86

>  <molecular_refractivity>
49.41

>  <oscillator_strength_1>
0.0991

>  <oscillator_strength_2>
0.0835

>  <oscillator_strength_3>
0.0936

>  <oscillator_strength_4>
0.025

>  <open_babel_can_smiles>
O/C=N/c1ccccc1OCC(=O)O

>  <mulliken_charges>
23
1   -0.1354
2   -0.135967
3   -0.173524
4   -0.16601
5   -0.152376
6   0.305225
7   0.2696
8   0.305304
9   0.569138
10   -0.534436
11   -0.54014
12   -0.45462
13   -0.608011
14   -0.536963
15   0.138448
16   0.140397
17   0.137052
18   0.144788
19   0.178783
20   0.191468
21   0.169535
22   0.426192
23   0.461517

>  <lowdin_charges>
23
1   -0.155609
2   -0.152603
3   -0.173957
4   -0.178572
5   -0.170333
6   0.043158
7   0.019022
8   0.08239
9   0.171557
10   -0.19935
11   -0.328037
12   -0.258616
13   -0.362045
14   -0.222571
15   0.161375
16   0.164949
17   0.161745
18   0.168743
19   0.170444
20   0.177032
21   0.158532
22   0.370906
23   0.35184

$$$$

