PCCDB-ID:  26379
public computational chemistry database (PCCDB) project, http://pccdb.org

 33 33  0  0  0  0  0  0  0  0999 V2000
   -1.5495   -0.3626    0.2965 C   0  0  0  0  0  0  0  0  0  0  0  0
   -0.8020   -1.0346   -0.6740 C   0  0  0  0  0  0  0  0  0  0  0  0
   -0.8938    0.3860    1.2744 C   0  0  0  0  0  0  0  0  0  0  0  0
    5.4806   -2.6846   -0.2725 C   0  0  0  0  0  0  0  0  0  0  0  0
    0.5903   -0.9546   -0.6691 C   0  0  0  0  0  0  0  0  0  0  0  0
    0.5008    0.4600    1.2800 C   0  0  0  0  0  0  0  0  0  0  0  0
    4.8680   -1.3118    0.0095 C   0  0  0  0  0  0  0  0  0  0  0  0
    7.0083   -2.6418   -0.3334 C   0  0  0  0  0  0  0  0  0  0  0  0
    2.7703   -0.0939    0.2971 C   0  0  0  0  0  0  0  0  0  0  0  0
    1.2583   -0.2031    0.3080 C   0  0  0  0  0  0  0  0  0  0  0  0
    8.9186   -4.1727   -0.5159 C   0  0  0  0  0  0  0  0  0  0  0  0
    9.6937   -3.2536   -0.0665 N   0  0  0  0  0  0  0  0  0  0  0  0
    9.2872   -5.4447   -0.9930 N   0  0  0  0  0  0  0  0  0  0  0  0
    3.4083   -1.3797    0.0160 N   0  0  0  0  0  0  0  0  0  0  0  0
    7.5462   -3.9717   -0.6044 N   0  0  0  0  0  0  0  0  0  0  0  0
   -2.6346   -0.4255    0.2920 H   0  0  0  0  0  0  0  0  0  0  0  0
   -1.3058   -1.6220   -1.4375 H   0  0  0  0  0  0  0  0  0  0  0  0
   -1.4656    0.9069    2.0381 H   0  0  0  0  0  0  0  0  0  0  0  0
    5.0689   -3.0585   -1.2204 H   0  0  0  0  0  0  0  0  0  0  0  0
    5.1755   -3.3973    0.5064 H   0  0  0  0  0  0  0  0  0  0  0  0
    1.1769   -1.4828   -1.4148 H   0  0  0  0  0  0  0  0  0  0  0  0
    1.0074    1.0394    2.0491 H   0  0  0  0  0  0  0  0  0  0  0  0
    5.1648   -0.6069   -0.7794 H   0  0  0  0  0  0  0  0  0  0  0  0
    5.2815   -0.9087    0.9554 H   0  0  0  0  0  0  0  0  0  0  0  0
    7.4293   -2.3106    0.6195 H   0  0  0  0  0  0  0  0  0  0  0  0
    7.3432   -1.9120   -1.0878 H   0  0  0  0  0  0  0  0  0  0  0  0
    3.1101    0.3594    1.2483 H   0  0  0  0  0  0  0  0  0  0  0  0
    3.0853    0.6015   -0.4954 H   0  0  0  0  0  0  0  0  0  0  0  0
   10.6480   -3.6029    0.0390 H   0  0  0  0  0  0  0  0  0  0  0  0
   10.2435   -5.6947   -0.7709 H   0  0  0  0  0  0  0  0  0  0  0  0
    8.6461   -6.1827   -0.7188 H   0  0  0  0  0  0  0  0  0  0  0  0
    3.1064   -2.0536    0.7197 H   0  0  0  0  0  0  0  0  0  0  0  0
    7.1328   -4.4233   -1.4135 H   0  0  0  0  0  0  0  0  0  0  0  0
  1  3  2  0  0  0  0
  2  5  2  0  0  0  0
  2  1  1  0  0  0  0
  3  6  1  0  0  0  0
  3 18  1  0  0  0  0
  4  7  1  0  0  0  0
  4 20  1  0  0  0  0
  5 10  1  0  0  0  0
  6 22  1  0  0  0  0
  7 14  1  0  0  0  0
  7 24  1  0  0  0  0
  8  4  1  0  0  0  0
  8 25  1  0  0  0  0
  9 10  1  0  0  0  0
  9 27  1  0  0  0  0
 10  6  2  0  0  0  0
 11 12  1  0  0  0  0
 12 29  1  0  0  0  0
 13 30  1  0  0  0  0
 13 31  1  0  0  0  0
 13 11  2  0  0  0  0
 14  9  1  0  0  0  0
 14 32  1  0  0  0  0
 15 11  1  0  0  0  0
 15  8  1  0  0  0  0
 16  1  1  0  0  0  0
 17  2  1  0  0  0  0
 19  4  1  0  0  0  0
 21  5  1  0  0  0  0
 23  7  1  0  0  0  0
 26  8  1  0  0  0  0
 28  9  1  0  0  0  0
 33 15  1  0  0  0  0
M  RAD  1  12   2
M  END
>  <HBA>
4

>  <HBD>
3

>  <TPSA>
76.43

>  <cid>
26379

>  <dipole>
2.55

>  <excitation_energy_1>
5.124

>  <excitation_energy_2>
5.192

>  <excitation_energy_3>
5.255

>  <excitation_energy_4>
5.41

>  <homo_energy>
-6.011

>  <homo_lumo_gap>
6.101

>  <logP>
2.231

>  <lumo_energy>
0.09

>  <melting_point>
158.03

>  <molecular_refractivity>
62.54

>  <oscillator_strength_1>
0.0015

>  <oscillator_strength_2>
0.0042

>  <oscillator_strength_3>
0.0019

>  <oscillator_strength_4>
0.0075

>  <open_babel_can_smiles>
[NH]C(=[NH2])NCCCNCc1ccccc1

>  <mulliken_charges>
33
1   -0.129056
2   -0.13168
3   -0.128999
4   -0.286959
5   -0.164361
6   -0.186234
7   -0.109365
8   -0.099231
9   -0.183798
10   0.129716
11   0.586246
12   -0.645145
13   -0.756699
14   -0.561029
15   -0.609327
16   0.12613
17   0.126896
18   0.126648
19   0.139049
20   0.138618
21   0.142893
22   0.121511
23   0.141002
24   0.114912
25   0.175076
26   0.140958
27   0.118175
28   0.154604
29   0.262656
30   0.317512
31   0.320876
32   0.294056
33   0.314347

>  <lowdin_charges>
33
1   -0.158504
2   -0.157553
3   -0.15871
4   -0.286023
5   -0.160961
6   -0.169832
7   -0.20032
8   -0.191294
9   -0.198523
10   -0.014464
11   0.125224
12   -0.477633
13   -0.516396
14   -0.361623
15   -0.312305
16   0.153895
17   0.157117
18   0.1574
19   0.143833
20   0.144365
21   0.166719
22   0.15455
23   0.143174
24   0.118633
25   0.164416
26   0.138098
27   0.122573
28   0.151904
29   0.244808
30   0.273599
31   0.277933
32   0.253787
33   0.272113

$$$$

