PCCDB-ID:  18319
public computational chemistry database (PCCDB) project, http://pccdb.org

 43 42  0  0  0  0  0  0  0  0999 V2000
    3.8916   -4.8520   -1.1918 C   0  0  0  0  0  0  0  0  0  0  0  0
   12.0127   -6.8610   -0.7572 C   0  0  0  0  0  0  0  0  0  0  0  0
    3.2595   -3.4586   -1.0912 C   0  0  0  0  0  0  0  0  0  0  0  0
    4.0899   -2.3363   -1.7397 C   0  0  0  0  0  0  0  0  0  0  0  0
    5.4781   -2.0836   -1.1247 C   0  0  0  0  0  0  0  0  0  0  0  0
    5.4469   -1.6024    0.3341 C   0  0  0  0  0  0  0  0  0  0  0  0
    6.8156   -1.1814    0.8959 C   0  0  0  0  0  0  0  0  0  0  0  0
    7.8336   -2.3232    1.0360 C   0  0  0  0  0  0  0  0  0  0  0  0
    9.1518   -1.8710    1.6856 C   0  0  0  0  0  0  0  0  0  0  0  0
   10.1898   -2.9797    1.9609 C   0  0  0  0  0  0  0  0  0  0  0  0
   11.1671   -3.3241    0.8213 C   0  0  0  0  0  0  0  0  0  0  0  0
   10.5838   -3.9459   -0.4626 C   0  0  0  0  0  0  0  0  0  0  0  0
    9.7859   -5.2445   -0.2928 C   0  0  0  0  0  0  0  0  0  0  0  0
   11.2270   -6.3518    1.7851 O   0  0  0  0  0  0  0  0  0  0  0  0
   10.6274   -6.7251    0.4430 S   0  0  2  0  0  0  0  0  0  0  0  0
    3.2263   -5.6171   -0.7757 H   0  0  0  0  0  0  0  0  0  0  0  0
    4.8399   -4.9118   -0.6457 H   0  0  0  0  0  0  0  0  0  0  0  0
    4.0936   -5.1196   -2.2369 H   0  0  0  0  0  0  0  0  0  0  0  0
   11.6183   -7.0030   -1.7682 H   0  0  0  0  0  0  0  0  0  0  0  0
   12.5925   -7.7382   -0.4604 H   0  0  0  0  0  0  0  0  0  0  0  0
   12.6484   -5.9738   -0.7070 H   0  0  0  0  0  0  0  0  0  0  0  0
    3.0681   -3.2198   -0.0366 H   0  0  0  0  0  0  0  0  0  0  0  0
    2.2742   -3.4795   -1.5762 H   0  0  0  0  0  0  0  0  0  0  0  0
    3.5117   -1.4020   -1.6975 H   0  0  0  0  0  0  0  0  0  0  0  0
    4.2157   -2.5673   -2.8075 H   0  0  0  0  0  0  0  0  0  0  0  0
    5.9912   -1.3243   -1.7329 H   0  0  0  0  0  0  0  0  0  0  0  0
    6.0874   -2.9931   -1.2062 H   0  0  0  0  0  0  0  0  0  0  0  0
    5.0232   -2.3853    0.9788 H   0  0  0  0  0  0  0  0  0  0  0  0
    4.7596   -0.7467    0.4055 H   0  0  0  0  0  0  0  0  0  0  0  0
    6.6653   -0.7234    1.8840 H   0  0  0  0  0  0  0  0  0  0  0  0
    7.2413   -0.3921    0.2580 H   0  0  0  0  0  0  0  0  0  0  0  0
    8.0260   -2.7638    0.0500 H   0  0  0  0  0  0  0  0  0  0  0  0
    7.3910   -3.1233    1.6491 H   0  0  0  0  0  0  0  0  0  0  0  0
    8.8993   -1.3899    2.6412 H   0  0  0  0  0  0  0  0  0  0  0  0
    9.6117   -1.0822    1.0706 H   0  0  0  0  0  0  0  0  0  0  0  0
    9.6872   -3.8924    2.3072 H   0  0  0  0  0  0  0  0  0  0  0  0
   10.8113   -2.6601    2.8075 H   0  0  0  0  0  0  0  0  0  0  0  0
   11.9144   -4.0106    1.2307 H   0  0  0  0  0  0  0  0  0  0  0  0
   11.6996   -2.4077    0.5279 H   0  0  0  0  0  0  0  0  0  0  0  0
   11.4032   -4.1124   -1.1740 H   0  0  0  0  0  0  0  0  0  0  0  0
    9.9158   -3.2278   -0.9577 H   0  0  0  0  0  0  0  0  0  0  0  0
    9.3949   -5.5980   -1.2561 H   0  0  0  0  0  0  0  0  0  0  0  0
    8.9262   -5.0933    0.3681 H   0  0  0  0  0  0  0  0  0  0  0  0
  1  3  1  0  0  0  0
  1 16  1  0  0  0  0
  1 17  1  0  0  0  0
  2 21  1  0  0  0  0
  2 20  1  0  0  0  0
  2 15  1  0  0  0  0
  3 22  1  0  0  0  0
  4 24  1  0  0  0  0
  4  5  1  0  0  0  0
  4  3  1  0  0  0  0
  5  6  1  0  0  0  0
  6 29  1  0  0  0  0
  6  7  1  0  0  0  0
  6 28  1  0  0  0  0
  7  8  1  0  0  0  0
  7 30  1  0  0  0  0
  8 33  1  0  0  0  0
  8  9  1  0  0  0  0
  9 10  1  0  0  0  0
  9 34  1  0  0  0  0
 10 36  1  0  0  0  0
 10 37  1  0  0  0  0
 11 38  1  0  0  0  0
 11 10  1  0  0  0  0
 12 13  1  0  0  0  0
 12 11  1  0  0  0  0
 13 43  1  0  0  0  0
 13 15  1  0  0  0  0
 15 14  2  1  0  0  0
 18  1  1  0  0  0  0
 19  2  1  0  0  0  0
 23  3  1  0  0  0  0
 25  4  1  0  0  0  0
 26  5  1  0  0  0  0
 27  5  1  0  0  0  0
 31  7  1  0  0  0  0
 32  8  1  0  0  0  0
 35  9  1  0  0  0  0
 39 11  1  0  0  0  0
 40 12  1  0  0  0  0
 41 12  1  0  0  0  0
 42 13  1  0  0  0  0
M  END
>  <HBA>
1

>  <HBD>
0

>  <TPSA>
36.28

>  <cid>
18319

>  <dipole>
3.63

>  <excitation_energy_1>
5.24

>  <excitation_energy_2>
5.386

>  <excitation_energy_3>
5.653

>  <excitation_energy_4>
5.959

>  <homo_energy>
-5.886

>  <homo_lumo_gap>
7.078

>  <logP>
5.152

>  <lumo_energy>
1.192

>  <melting_point>
-11.91

>  <molecular_refractivity>
72.88

>  <oscillator_strength_1>
0.0213

>  <oscillator_strength_2>
0.0237

>  <oscillator_strength_3>
0.0164

>  <oscillator_strength_4>
0.0149

>  <open_babel_can_smiles>
CCCCCCCCCCCC[S@](=O)C

>  <mulliken_charges>
43
1   -0.443441
2   -0.635077
3   -0.249872
4   -0.252612
5   -0.256686
6   -0.255748
7   -0.255593
8   -0.2644
9   -0.254032
10   -0.26489
11   -0.261141
12   -0.269848
13   -0.474214
14   -0.635664
15   0.757801
16   0.143018
17   0.143399
18   0.138961
19   0.172274
20   0.198093
21   0.199822
22   0.135951
23   0.130866
24   0.127046
25   0.124287
26   0.125359
27   0.131579
28   0.131732
29   0.126633
30   0.128252
31   0.125551
32   0.133843
33   0.127234
34   0.129688
35   0.123748
36   0.147033
37   0.134633
38   0.170666
39   0.121811
40   0.137087
41   0.151564
42   0.163997
43   0.191292

>  <lowdin_charges>
43
1   -0.447485
2   -0.599859
3   -0.273869
4   -0.274662
5   -0.282136
6   -0.279325
7   -0.275336
8   -0.282241
9   -0.279119
10   -0.281162
11   -0.284891
12   -0.282849
13   -0.429549
14   -0.677596
15   0.797437
16   0.151373
17   0.145488
18   0.143886
19   0.172526
20   0.183822
21   0.176665
22   0.13908
23   0.141566
24   0.139614
25   0.136871
26   0.140771
27   0.137781
28   0.139972
29   0.14054
30   0.140154
31   0.137748
32   0.136704
33   0.137351
34   0.141434
35   0.137267
36   0.147901
37   0.149449
38   0.161235
39   0.137906
40   0.14444
41   0.151488
42   0.166154
43   0.173459

$$$$

