PCCDB-ID:  37086
public computational chemistry database (PCCDB) project, http://pccdb.org

 20 20  0  0  0  0  0  0  0  0999 V2000
    0.9895   -0.2093    0.2419 C   0  0  0  0  0  0  0  0  0  0  0  0
    2.9934    1.2780   -3.2062 C   0  0  0  0  0  0  0  0  0  0  0  0
    3.3212    0.8837    2.4412 C   0  0  0  0  0  0  0  0  0  0  0  0
    4.5613    0.6035    1.6276 C   0  0  0  0  0  0  0  0  0  0  0  0
    3.0517    0.3669   -1.0421 C   0  0  0  0  0  0  0  0  0  0  0  0
    2.4728    0.0297    0.1178 C   0  0  0  0  0  0  0  0  0  0  0  0
    3.2950   -0.1702    1.3503 C   0  0  0  0  0  0  0  0  0  0  0  0
    2.3496    0.4993   -2.2108 O   0  0  0  0  0  0  0  0  0  0  0  0
    0.4707   -0.0045   -0.6974 H   0  0  0  0  0  0  0  0  0  0  0  0
    0.5563    0.4234    1.0281 H   0  0  0  0  0  0  0  0  0  0  0  0
    0.7805   -1.2503    0.5267 H   0  0  0  0  0  0  0  0  0  0  0  0
    2.3673    1.2261   -4.0997 H   0  0  0  0  0  0  0  0  0  0  0  0
    3.9909    0.8802   -3.4440 H   0  0  0  0  0  0  0  0  0  0  0  0
    3.0945    2.3276   -2.8966 H   0  0  0  0  0  0  0  0  0  0  0  0
    2.7983    1.8169    2.2481 H   0  0  0  0  0  0  0  0  0  0  0  0
    3.2929    0.5584    3.4779 H   0  0  0  0  0  0  0  0  0  0  0  0
    5.3870    0.0809    2.1028 H   0  0  0  0  0  0  0  0  0  0  0  0
    4.8699    1.3613    0.9134 H   0  0  0  0  0  0  0  0  0  0  0  0
    4.1281    0.5147   -1.1275 H   0  0  0  0  0  0  0  0  0  0  0  0
    3.2902   -1.1956    1.7259 H   0  0  0  0  0  0  0  0  0  0  0  0
  1 11  1  0  0  0  0
  1 10  1  0  0  0  0
  2 14  1  0  0  0  0
  2  8  1  0  0  0  0
  3 16  1  0  0  0  0
  4 17  1  0  0  0  0
  4  3  1  0  0  0  0
  5  6  2  0  0  0  0
  6  1  1  0  0  0  0
  6  7  1  0  0  0  0
  7  4  1  0  0  0  0
  7 20  1  0  0  0  0
  7  3  1  0  0  0  0
  8  5  1  0  0  0  0
  9  1  1  0  0  0  0
 12  2  1  0  0  0  0
 13  2  1  0  0  0  0
 15  3  1  0  0  0  0
 18  4  1  0  0  0  0
 19  5  1  0  0  0  0
M  END
>  <HBA>
1

>  <HBD>
0

>  <TPSA>
9.23

>  <cid>
37086

>  <dipole>
1.26

>  <excitation_energy_1>
5.175

>  <excitation_energy_2>
5.408

>  <excitation_energy_3>
5.575

>  <excitation_energy_4>
5.748

>  <homo_energy>
-5.494

>  <homo_lumo_gap>
6.604

>  <logP>
1.947

>  <lumo_energy>
1.11

>  <melting_point>
-0.39

>  <molecular_refractivity>
34.26

>  <oscillator_strength_1>
0.0139

>  <oscillator_strength_2>
0.0741

>  <oscillator_strength_3>
0.064

>  <oscillator_strength_4>
0.0171

>  <open_babel_can_smiles>
CO/C=C(/C1CC1)\C

>  <mulliken_charges>
20
1   -0.512305
2   -0.203842
3   -0.301214
4   -0.316154
5   0.067111
6   0.116995
7   -0.166737
8   -0.453787
9   0.169071
10   0.149081
11   0.14727
12   0.164661
13   0.141837
14   0.145298
15   0.151719
16   0.146093
17   0.14678
18   0.147193
19   0.119373
20   0.141559

>  <lowdin_charges>
20
1   -0.439905
2   -0.274183
3   -0.31385
4   -0.317727
5   -0.077016
6   -0.048733
7   -0.143112
8   -0.214065
9   0.164322
10   0.154304
11   0.151659
12   0.159166
13   0.138645
14   0.138757
15   0.15828
16   0.154623
17   0.158279
18   0.157441
19   0.141493
20   0.151622

$$$$

