PCCDB-ID:  18313
public computational chemistry database (PCCDB) project, http://pccdb.org

 29 28  0  0  0  0  0  0  0  0999 V2000
    1.2827   -2.4638   -0.6209 C   0  0  0  0  0  0  0  0  0  0  0  0
    5.4954   -1.0887    1.2572 C   0  0  0  0  0  0  0  0  0  0  0  0
    4.2346   -0.3996   -3.7904 C   0  0  0  0  0  0  0  0  0  0  0  0
    4.9448    0.9797   -1.0485 C   0  0  0  0  0  0  0  0  0  0  0  0
    2.7666   -2.2983   -0.9692 C   0  0  0  0  0  0  0  0  0  0  0  0
    5.6791   -1.3050   -0.2506 C   0  0  0  0  0  0  0  0  0  0  0  0
    5.0834   -0.9747   -2.6490 C   0  0  0  0  0  0  0  0  0  0  0  0
    3.2276   -0.8366   -0.8738 C   0  0  0  0  0  0  0  0  0  0  0  0
    4.7157   -0.5384   -1.2019 C   0  0  0  0  0  0  0  0  0  0  0  0
    0.9684   -3.5115   -0.6913 H   0  0  0  0  0  0  0  0  0  0  0  0
    0.6484   -1.8791   -1.2988 H   0  0  0  0  0  0  0  0  0  0  0  0
    1.0743   -2.1216    0.4007 H   0  0  0  0  0  0  0  0  0  0  0  0
    6.2507   -1.6552    1.8142 H   0  0  0  0  0  0  0  0  0  0  0  0
    4.5134   -1.4273    1.6062 H   0  0  0  0  0  0  0  0  0  0  0  0
    5.6051   -0.0361    1.5402 H   0  0  0  0  0  0  0  0  0  0  0  0
    4.6086   -0.7586   -4.7563 H   0  0  0  0  0  0  0  0  0  0  0  0
    4.2639    0.6952   -3.8181 H   0  0  0  0  0  0  0  0  0  0  0  0
    3.1842   -0.7027   -3.7159 H   0  0  0  0  0  0  0  0  0  0  0  0
    5.9872    1.2450   -1.2659 H   0  0  0  0  0  0  0  0  0  0  0  0
    4.7186    1.3186   -0.0314 H   0  0  0  0  0  0  0  0  0  0  0  0
    4.3050    1.5546   -1.7270 H   0  0  0  0  0  0  0  0  0  0  0  0
    2.9420   -2.6840   -1.9823 H   0  0  0  0  0  0  0  0  0  0  0  0
    3.3656   -2.9262   -0.2967 H   0  0  0  0  0  0  0  0  0  0  0  0
    5.6002   -2.3802   -0.4598 H   0  0  0  0  0  0  0  0  0  0  0  0
    6.7075   -1.0272   -0.5227 H   0  0  0  0  0  0  0  0  0  0  0  0
    6.1348   -0.7037   -2.8230 H   0  0  0  0  0  0  0  0  0  0  0  0
    5.0500   -2.0710   -2.7069 H   0  0  0  0  0  0  0  0  0  0  0  0
    3.0135   -0.4696    0.1401 H   0  0  0  0  0  0  0  0  0  0  0  0
    2.5970   -0.2279   -1.5371 H   0  0  0  0  0  0  0  0  0  0  0  0
  1 12  1  0  0  0  0
  2 15  1  0  0  0  0
  2 14  1  0  0  0  0
  2 13  1  0  0  0  0
  3 18  1  0  0  0  0
  3  7  1  0  0  0  0
  4 20  1  0  0  0  0
  5  8  1  0  0  0  0
  5  1  1  0  0  0  0
  5 23  1  0  0  0  0
  6  2  1  0  0  0  0
  7  9  1  0  0  0  0
  8 28  1  0  0  0  0
  9  4  1  0  0  0  0
  9  8  1  0  0  0  0
  9  6  1  0  0  0  0
 10  1  1  0  0  0  0
 11  1  1  0  0  0  0
 16  3  1  0  0  0  0
 17  3  1  0  0  0  0
 19  4  1  0  0  0  0
 21  4  1  0  0  0  0
 22  5  1  0  0  0  0
 24  6  1  0  0  0  0
 25  6  1  0  0  0  0
 26  7  1  0  0  0  0
 27  7  1  0  0  0  0
 29  8  1  0  0  0  0
M  END
>  <HBA>
0

>  <HBD>
0

>  <TPSA>
0.0

>  <cid>
18313

>  <dipole>
0.1

>  <excitation_energy_1>
7.492

>  <excitation_energy_2>
7.542

>  <excitation_energy_3>
7.586

>  <excitation_energy_4>
7.869

>  <homo_energy>
-7.995

>  <homo_lumo_gap>
9.976

>  <logP>
3.613

>  <lumo_energy>
1.981

>  <melting_point>
-9.87

>  <molecular_refractivity>
45.12

>  <oscillator_strength_1>
0.0232

>  <oscillator_strength_2>
0.0017

>  <oscillator_strength_3>
0.0333

>  <oscillator_strength_4>
0.0019

>  <open_babel_can_smiles>
CCCC(CC)(CC)C

>  <mulliken_charges>
29
1   -0.442048
2   -0.456245
3   -0.456334
4   -0.458585
5   -0.261464
6   -0.25482
7   -0.254492
8   -0.260835
9   0.107894
10   0.140525
11   0.140727
12   0.140629
13   0.14133
14   0.145968
15   0.145319
16   0.141276
17   0.145253
18   0.146072
19   0.134606
20   0.140937
21   0.140849
22   0.13545
23   0.135355
24   0.12961
25   0.125064
26   0.124958
27   0.129658
28   0.126651
29   0.126694

>  <lowdin_charges>
29
1   -0.442639
2   -0.449821
3   -0.446194
4   -0.445798
5   -0.278272
6   -0.27268
7   -0.272208
8   -0.280344
9   0.00753
10   0.147295
11   0.147028
12   0.144755
13   0.151838
14   0.146912
15   0.146361
16   0.150349
17   0.145515
18   0.145893
19   0.144137
20   0.146798
21   0.148846
22   0.140103
23   0.142259
24   0.137897
25   0.138507
26   0.138067
27   0.137558
28   0.139041
29   0.141268

$$$$

