PCCDB-ID:  29995
public computational chemistry database (PCCDB) project, http://pccdb.org

 19 19  0  0  0  0  0  0  0  0999 V2000
    0.9637    0.2062    0.1336 C   0  0  0  0  0  0  0  0  0  0  0  0
    3.9426    1.6529   -2.5960 C   0  0  0  0  0  0  0  0  0  0  0  0
    2.5002    0.1537    0.0115 C   0  0  0  0  0  0  0  0  0  0  0  0
    3.5264    0.2332   -2.3689 C   0  0  0  0  0  0  0  0  0  0  0  0
    2.9528   -0.3667   -1.3130 C   0  0  0  0  0  0  0  0  0  0  0  0
    3.7050   -0.8716   -3.3807 C   0  0  0  0  0  0  0  0  0  0  0  0
    2.7971   -1.8387   -1.7110 C   0  0  0  0  0  0  0  0  0  0  0  0
    3.2973   -2.0420   -3.0256 N   0  0  0  0  0  0  0  0  0  0  0  0
    4.2538   -0.6602   -4.5800 O   0  0  0  0  0  0  0  0  0  0  0  0
    2.3231   -2.6971   -1.0003 O   0  0  0  0  0  0  0  0  0  0  0  0
    0.6740    0.5710    1.1248 H   0  0  0  0  0  0  0  0  0  0  0  0
    0.5362   -0.7908   -0.0044 H   0  0  0  0  0  0  0  0  0  0  0  0
    0.5298    0.8755   -0.6175 H   0  0  0  0  0  0  0  0  0  0  0  0
    3.7501    2.2661   -1.7114 H   0  0  0  0  0  0  0  0  0  0  0  0
    3.3964    2.1101   -3.4334 H   0  0  0  0  0  0  0  0  0  0  0  0
    5.0161    1.7332   -2.8195 H   0  0  0  0  0  0  0  0  0  0  0  0
    2.8895   -0.5103    0.7938 H   0  0  0  0  0  0  0  0  0  0  0  0
    2.9249    1.1489    0.1913 H   0  0  0  0  0  0  0  0  0  0  0  0
    4.4969    0.2758   -4.6687 H   0  0  0  0  0  0  0  0  0  0  0  0
  1 11  1  0  0  0  0
  2  4  1  0  0  0  0
  2 14  1  0  0  0  0
  3  1  1  0  0  0  0
  3 18  1  0  0  0  0
  3 17  1  0  0  0  0
  4  5  2  0  0  0  0
  5  3  1  0  0  0  0
  6  8  2  0  0  0  0
  6  4  1  0  0  0  0
  7  5  1  0  0  0  0
  7 10  2  0  0  0  0
  8  7  1  0  0  0  0
  9  6  1  0  0  0  0
 12  1  1  0  0  0  0
 13  1  1  0  0  0  0
 15  2  1  0  0  0  0
 16  2  1  0  0  0  0
 19  9  1  0  0  0  0
M  END
>  <HBA>
3

>  <HBD>
1

>  <TPSA>
46.17

>  <cid>
29995

>  <dipole>
6.71

>  <excitation_energy_1>
3.118

>  <excitation_energy_2>
3.571

>  <excitation_energy_3>
4.191

>  <excitation_energy_4>
5.635

>  <homo_energy>
-6.904

>  <homo_lumo_gap>
4.512

>  <logP>
0.698

>  <lumo_energy>
-2.392

>  <melting_point>
81.94

>  <molecular_refractivity>
40.29

>  <oscillator_strength_1>
0.0001

>  <oscillator_strength_2>
0.0093

>  <oscillator_strength_3>
0.0003

>  <oscillator_strength_4>
0.0008

>  <open_babel_can_smiles>
CCC1=C(C)C(=NC1=O)O

>  <mulliken_charges>
19
1   -0.449396
2   -0.570216
3   -0.339459
4   0.06231
5   0.056859
6   0.484135
7   0.520945
8   -0.497583
9   -0.571588
10   -0.445645
11   0.151336
12   0.181834
13   0.145593
14   0.187477
15   0.172917
16   0.170264
17   0.173317
18   0.141778
19   0.425122

>  <lowdin_charges>
19
1   -0.44041
2   -0.453306
3   -0.27004
4   -0.065681
5   -0.024758
6   0.151439
7   0.170892
8   -0.223
9   -0.305657
10   -0.200823
11   0.154407
12   0.166476
13   0.150001
14   0.177084
15   0.165928
16   0.161982
17   0.170022
18   0.148499
19   0.366945

$$$$

