PCCDB-ID:  22933
public computational chemistry database (PCCDB) project, http://pccdb.org

 17 16  0  0  1  0  0  0  0  0999 V2000
    0.8427    0.3918   -0.4678 C   0  0  0  0  0  0  0  0  0  0  0  0
    2.8575    0.7302    1.0856 C   0  0  0  0  0  0  0  0  0  0  0  0
    2.1802   -0.1433    0.0324 C   0  0  1  0  0  0  0  0  0  0  0  0
    2.3660    1.7938    3.1748 N   0  0  0  0  0  0  0  0  0  0  0  0
    2.9796   -2.3658    0.6026 N   0  0  0  0  0  0  0  0  0  0  0  0
    1.5475    1.9599    4.0430 O   0  0  0  0  0  0  0  0  0  0  0  0
    3.4924    2.2336    3.0662 O   0  0  0  0  0  0  0  0  0  0  0  0
    4.0590   -1.9667    0.2088 O   0  0  0  0  0  0  0  0  0  0  0  0
    2.6711   -3.4454    1.0369 O   0  0  0  0  0  0  0  0  0  0  0  0
    1.8948    0.9470    2.1359 O   0  0  0  0  0  0  0  0  0  0  0  0
    1.8809   -1.4640    0.5618 O   0  0  0  0  0  0  0  0  0  0  0  0
    0.9844    1.3922   -0.8899 H   0  0  0  0  0  0  0  0  0  0  0  0
    0.1174    0.4576    0.3461 H   0  0  0  0  0  0  0  0  0  0  0  0
    0.4448   -0.2625   -1.2476 H   0  0  0  0  0  0  0  0  0  0  0  0
    3.1468    1.6871    0.6393 H   0  0  0  0  0  0  0  0  0  0  0  0
    3.7504    0.2469    1.4873 H   0  0  0  0  0  0  0  0  0  0  0  0
    2.8873   -0.2572   -0.7938 H   0  0  0  0  0  0  0  0  0  0  0  0
  1  3  1  0  0  0  0
  1 13  1  0  0  0  0
  2 16  1  0  0  0  0
  2 10  1  0  0  0  0
  3 17  1  6  0  0  0
  3 11  1  0  0  0  0
  3  2  1  0  0  0  0
  4  6  2  0  0  0  0
  5  9  2  0  0  0  0
  7  4  2  0  0  0  0
  8  5  2  0  0  0  0
 10  4  1  0  0  0  0
 11  5  1  0  0  0  0
 12  1  1  0  0  0  0
 14  1  1  0  0  0  0
 15  2  1  0  0  0  0
M  END
>  <HBA>
0

>  <HBD>
0

>  <TPSA>
110.1

>  <cid>
22933

>  <dipole>
3.77

>  <excitation_energy_1>
4.716

>  <excitation_energy_2>
4.736

>  <excitation_energy_3>
5.605

>  <excitation_energy_4>
5.659

>  <homo_energy>
-8.795

>  <homo_lumo_gap>
6.675

>  <logP>
0.838

>  <lumo_energy>
-2.12

>  <melting_point>
23.74

>  <molecular_refractivity>
34.91

>  <oscillator_strength_1>
0.0001

>  <oscillator_strength_2>
0.0

>  <oscillator_strength_3>
0.002

>  <oscillator_strength_4>
0.0005

>  <open_babel_can_smiles>
O=N(=O)OC[C@@H](ON(=O)=O)C

>  <mulliken_charges>
17
1   -0.463587
2   -0.044815
3   0.084627
4   0.757646
5   0.748729
6   -0.346327
7   -0.363372
8   -0.370646
9   -0.339962
10   -0.382835
11   -0.377494
12   0.163456
13   0.196597
14   0.176777
15   0.178043
16   0.195093
17   0.188071

>  <lowdin_charges>
17
1   -0.446719
2   -0.153323
3   -0.010535
4   0.376409
5   0.373184
6   -0.184472
7   -0.211556
8   -0.223426
9   -0.177911
10   -0.184614
11   -0.179737
12   0.16571
13   0.177176
14   0.171061
15   0.166353
16   0.171543
17   0.170858

$$$$

