PCCDB-ID:  23167
public computational chemistry database (PCCDB) project, http://pccdb.org

 34 33  0  0  0  0  0  0  0  0999 V2000
    1.9772    1.0891   -1.1771 C   0  0  0  0  0  0  0  0  0  0  0  0
    5.6440   -5.1869    8.2957 C   0  0  0  0  0  0  0  0  0  0  0  0
    3.4298    0.7434   -0.8344 C   0  0  0  0  0  0  0  0  0  0  0  0
    3.5724   -0.0446    0.4739 C   0  0  0  0  0  0  0  0  0  0  0  0
    5.0244   -0.3929    0.8246 C   0  0  0  0  0  0  0  0  0  0  0  0
    5.1671   -1.1862    2.1302 C   0  0  0  0  0  0  0  0  0  0  0  0
    6.6265   -1.5215    2.4726 C   0  0  0  0  0  0  0  0  0  0  0  0
    6.8132   -2.4095    3.7148 C   0  0  0  0  0  0  0  0  0  0  0  0
    6.3830   -1.7271    5.0101 C   0  0  0  0  0  0  0  0  0  0  0  0
    7.6744   -3.8624    8.3157 C   0  0  0  0  0  0  0  0  0  0  0  0
    6.3964   -4.2105    7.7638 C   0  0  0  0  0  0  0  0  0  0  0  0
    5.8832   -3.4655    6.5596 C   0  0  0  0  0  0  0  0  0  0  0  0
    8.7080   -3.5957    8.7763 N   0  0  0  0  0  0  0  0  0  0  0  0
    4.8147   -3.7025    6.0372 O   0  0  0  0  0  0  0  0  0  0  0  0
    6.7529   -2.5255    6.1656 O   0  0  0  0  0  0  0  0  0  0  0  0
    1.9104    1.6536   -2.1142 H   0  0  0  0  0  0  0  0  0  0  0  0
    1.5179    1.6977   -0.3883 H   0  0  0  0  0  0  0  0  0  0  0  0
    1.3695    0.1828   -1.2903 H   0  0  0  0  0  0  0  0  0  0  0  0
    5.9675   -5.7506    9.1637 H   0  0  0  0  0  0  0  0  0  0  0  0
    4.6842   -5.4194    7.8462 H   0  0  0  0  0  0  0  0  0  0  0  0
    4.0196    1.6688   -0.7660 H   0  0  0  0  0  0  0  0  0  0  0  0
    3.8721    0.1628   -1.6565 H   0  0  0  0  0  0  0  0  0  0  0  0
    2.9828   -0.9711    0.4048 H   0  0  0  0  0  0  0  0  0  0  0  0
    3.1280    0.5354    1.2966 H   0  0  0  0  0  0  0  0  0  0  0  0
    5.6130    0.5340    0.8964 H   0  0  0  0  0  0  0  0  0  0  0  0
    5.4692   -0.9701    0.0004 H   0  0  0  0  0  0  0  0  0  0  0  0
    4.5901   -2.1196    2.0554 H   0  0  0  0  0  0  0  0  0  0  0  0
    4.7084   -0.6118    2.9475 H   0  0  0  0  0  0  0  0  0  0  0  0
    7.1962   -0.5891    2.6022 H   0  0  0  0  0  0  0  0  0  0  0  0
    7.0829   -2.0352    1.6159 H   0  0  0  0  0  0  0  0  0  0  0  0
    7.8708   -2.6851    3.8110 H   0  0  0  0  0  0  0  0  0  0  0  0
    6.2445   -3.3403    3.5988 H   0  0  0  0  0  0  0  0  0  0  0  0
    5.3062   -1.5500    5.0441 H   0  0  0  0  0  0  0  0  0  0  0  0
    6.9151   -0.7837    5.1578 H   0  0  0  0  0  0  0  0  0  0  0  0
  1  3  1  0  0  0  0
  1 17  1  0  0  0  0
  2 19  1  0  0  0  0
  3 21  1  0  0  0  0
  3  4  1  0  0  0  0
  4  5  1  0  0  0  0
  4 24  1  0  0  0  0
  5 25  1  0  0  0  0
  5  6  1  0  0  0  0
  6  7  1  0  0  0  0
  6 28  1  0  0  0  0
  7 29  1  0  0  0  0
  7  8  1  0  0  0  0
  8 31  1  0  0  0  0
  8  9  1  0  0  0  0
  9 33  1  0  0  0  0
  9 34  1  0  0  0  0
  9 15  1  0  0  0  0
 10 13  3  0  0  0  0
 11  2  2  0  0  0  0
 11 10  1  0  0  0  0
 12 11  1  0  0  0  0
 14 12  2  0  0  0  0
 15 12  1  0  0  0  0
 16  1  1  0  0  0  0
 18  1  1  0  0  0  0
 20  2  1  0  0  0  0
 22  3  1  0  0  0  0
 23  4  1  0  0  0  0
 26  5  1  0  0  0  0
 27  6  1  0  0  0  0
 30  7  1  0  0  0  0
 32  8  1  0  0  0  0
M  END
>  <HBA>
3

>  <HBD>
0

>  <TPSA>
50.09

>  <cid>
23167

>  <dipole>
2.74

>  <excitation_energy_1>
4.496

>  <excitation_energy_2>
5.376

>  <excitation_energy_3>
5.563

>  <excitation_energy_4>
5.635

>  <homo_energy>
-7.951

>  <homo_lumo_gap>
5.75

>  <logP>
2.97

>  <lumo_energy>
-2.201

>  <melting_point>
-1.38

>  <molecular_refractivity>
60.36

>  <oscillator_strength_1>
0.0001

>  <oscillator_strength_2>
0.0065

>  <oscillator_strength_3>
0.116

>  <oscillator_strength_4>
0.1407

>  <open_babel_can_smiles>
CCCCCCCCOC(=O)C(=C)C#N

>  <mulliken_charges>
34
1   -0.441589
2   -0.31925
3   -0.247328
4   -0.246795
5   -0.253885
6   -0.258019
7   -0.268382
8   -0.284518
9   -0.052052
10   0.286542
11   0.092795
12   0.631472
13   -0.472833
14   -0.481097
15   -0.468084
16   0.142385
17   0.141627
18   0.141971
19   0.190491
20   0.202689
21   0.130265
22   0.130614
23   0.128718
24   0.127197
25   0.12813
26   0.129086
27   0.137227
28   0.131455
29   0.132506
30   0.140382
31   0.15176
32   0.158976
33   0.176617
34   0.160928

>  <lowdin_charges>
34
1   -0.445822
2   -0.226349
3   -0.273203
4   -0.27565
5   -0.27516
6   -0.27872
7   -0.275467
8   -0.286652
9   -0.127655
10   -0.010073
11   -0.045931
12   0.19879
13   -0.103128
14   -0.260312
15   -0.166092
16   0.149618
17   0.147525
18   0.146869
19   0.18628
20   0.193297
21   0.138874
22   0.139967
23   0.138478
24   0.138562
25   0.138137
26   0.139435
27   0.142605
28   0.139187
29   0.140239
30   0.148731
31   0.152158
32   0.154681
33   0.159545
34   0.157236

$$$$

