PCCDB-ID:  66860
public computational chemistry database (PCCDB) project, http://pccdb.org

 28 29  0  0  0  0  0  0  0  0999 V2000
    0.7151    0.2187    0.2267 C   0  0  0  0  0  0  0  0  0  0  0  0
    6.1193    4.3429    0.1885 C   0  0  0  0  0  0  0  0  0  0  0  0
    4.3914    3.4097    1.7301 C   0  0  0  0  0  0  0  0  0  0  0  0
    4.9621   -0.1713   -0.4717 C   0  0  0  0  0  0  0  0  0  0  0  0
    6.0961    5.5193    0.8491 C   0  0  0  0  0  0  0  0  0  0  0  0
    4.3861    4.5722    2.4166 C   0  0  0  0  0  0  0  0  0  0  0  0
    4.1561   -1.2959   -0.4695 C   0  0  0  0  0  0  0  0  0  0  0  0
    3.0377    1.1930    0.0479 C   0  0  0  0  0  0  0  0  0  0  0  0
    2.2030    0.0805    0.0131 C   0  0  0  0  0  0  0  0  0  0  0  0
    5.2308    3.2347    0.5405 C   0  0  0  0  0  0  0  0  0  0  0  0
    4.4314    1.0999   -0.1685 C   0  0  0  0  0  0  0  0  0  0  0  0
    5.2095    5.7312    2.0087 C   0  0  0  0  0  0  0  0  0  0  0  0
    2.7721   -1.1939   -0.2308 C   0  0  0  0  0  0  0  0  0  0  0  0
    1.9805   -2.3360   -0.2040 N   0  0  0  0  0  0  0  0  0  0  0  0
    5.3060    2.1754   -0.2183 N   0  0  0  0  0  0  0  0  0  0  0  0
    5.1759    6.7964    2.6254 O   0  0  0  0  0  0  0  0  0  0  0  0
    0.4423    1.2575    0.4318 H   0  0  0  0  0  0  0  0  0  0  0  0
    0.3709   -0.3911    1.0727 H   0  0  0  0  0  0  0  0  0  0  0  0
    0.1397   -0.0986   -0.6558 H   0  0  0  0  0  0  0  0  0  0  0  0
    6.7676    4.1735   -0.6666 H   0  0  0  0  0  0  0  0  0  0  0  0
    3.8130    2.5609    2.0796 H   0  0  0  0  0  0  0  0  0  0  0  0
    6.0241   -0.2494   -0.6819 H   0  0  0  0  0  0  0  0  0  0  0  0
    6.7286    6.3552    0.5647 H   0  0  0  0  0  0  0  0  0  0  0  0
    3.7971    4.7016    3.3204 H   0  0  0  0  0  0  0  0  0  0  0  0
    4.5881   -2.2731   -0.6738 H   0  0  0  0  0  0  0  0  0  0  0  0
    2.5894    2.1721    0.1891 H   0  0  0  0  0  0  0  0  0  0  0  0
    2.3721   -3.1524   -0.6557 H   0  0  0  0  0  0  0  0  0  0  0  0
    0.9993   -2.2125   -0.4147 H   0  0  0  0  0  0  0  0  0  0  0  0
  1 17  1  0  0  0  0
  1 18  1  0  0  0  0
  2 10  1  0  0  0  0
  2  5  2  0  0  0  0
  3 21  1  0  0  0  0
  3  6  2  0  0  0  0
  4  7  2  0  0  0  0
  4 11  1  0  0  0  0
  5 12  1  0  0  0  0
  6 24  1  0  0  0  0
  7 13  1  0  0  0  0
  8 26  1  0  0  0  0
  9  8  1  0  0  0  0
  9  1  1  0  0  0  0
 10  3  1  0  0  0  0
 11  8  2  0  0  0  0
 12  6  1  0  0  0  0
 12 16  2  0  0  0  0
 13 14  1  0  0  0  0
 13  9  2  0  0  0  0
 15 11  1  0  0  0  0
 15 10  2  0  0  0  0
 19  1  1  0  0  0  0
 20  2  1  0  0  0  0
 22  4  1  0  0  0  0
 23  5  1  0  0  0  0
 25  7  1  0  0  0  0
 27 14  1  0  0  0  0
 28 14  1  0  0  0  0
M  END
>  <HBA>
3

>  <HBD>
1

>  <TPSA>
55.45

>  <cid>
66860

>  <dipole>
7.34

>  <excitation_energy_1>
2.358

>  <excitation_energy_2>
2.648

>  <excitation_energy_3>
3.528

>  <excitation_energy_4>
3.635

>  <homo_energy>
-5.388

>  <homo_lumo_gap>
2.656

>  <logP>
2.926

>  <lumo_energy>
-2.732

>  <melting_point>
143.78

>  <molecular_refractivity>
66.19

>  <oscillator_strength_1>
0.3281

>  <oscillator_strength_2>
0.016

>  <oscillator_strength_3>
0.0037

>  <oscillator_strength_4>
0.2091

>  <open_babel_can_smiles>
O=C1C=C/C(=N/c2ccc(c(c2)C)N)/C=C1

>  <mulliken_charges>
28
1   -0.556841
2   -0.122042
3   -0.138788
4   -0.155371
5   -0.187418
6   -0.19337
7   -0.17466
8   -0.240901
9   0.160211
10   0.280747
11   0.277164
12   0.435896
13   0.265724
14   -0.793473
15   -0.545084
16   -0.495714
17   0.168059
18   0.170383
19   0.154614
20   0.15385
21   0.161993
22   0.143364
23   0.150549
24   0.152122
25   0.125715
26   0.143158
27   0.328709
28   0.331405

>  <lowdin_charges>
28
1   -0.446234
2   -0.131746
3   -0.161909
4   -0.140525
5   -0.180584
6   -0.167492
7   -0.193531
8   -0.173655
9   -0.034434
10   0.045612
11   0.011233
12   0.133561
13   0.058801
14   -0.471498
15   -0.12039
16   -0.251374
17   0.164245
18   0.16265
19   0.153779
20   0.173631
21   0.174313
22   0.167627
23   0.173495
24   0.172141
25   0.156488
26   0.163774
27   0.281617
28   0.280405

$$$$

