PCCDB-ID:  57458
public computational chemistry database (PCCDB) project, http://pccdb.org

 31 32  0  0  1  0  0  0  0  0999 V2000
    1.0680   -1.4313   -2.5398 C   0  0  0  0  0  0  0  0  0  0  0  0
    2.5943   -1.5573   -2.5826 C   0  0  0  0  0  0  0  0  0  0  0  0
    5.9377    1.5468   -5.2767 C   0  0  0  0  0  0  0  0  0  0  0  0
    5.7042    2.3642   -4.1710 C   0  0  0  0  0  0  0  0  0  0  0  0
    6.0170    0.1617   -5.1061 C   0  0  0  0  0  0  0  0  0  0  0  0
    5.5514    1.7983   -2.9033 C   0  0  0  0  0  0  0  0  0  0  0  0
    5.8708   -0.3994   -3.8386 C   0  0  0  0  0  0  0  0  0  0  0  0
    3.2315   -1.2670   -1.2182 C   0  0  0  0  0  0  0  0  0  0  0  0
    6.8966   -0.7174   -0.7621 C   0  0  0  0  0  0  0  0  0  0  0  0
    5.6363    0.4137   -2.7200 C   0  0  0  0  0  0  0  0  0  0  0  0
    5.5383   -0.1744   -1.3278 C   0  0  1  0  0  0  0  0  0  0  0  0
    5.3632   -2.2081   -0.3291 C   0  0  0  0  0  0  0  0  0  0  0  0
    6.5727   -1.9334   -0.0096 N   0  0  0  0  0  0  0  0  0  0  0  0
    4.6922   -1.3775   -1.2107 N   0  0  0  0  0  0  0  0  0  0  0  0
    4.6883   -3.2860    0.1186 O   0  0  0  0  0  0  0  0  0  0  0  0
    0.6269   -1.6489   -3.5185 H   0  0  0  0  0  0  0  0  0  0  0  0
    0.7586   -0.4179   -2.2551 H   0  0  0  0  0  0  0  0  0  0  0  0
    0.6289   -2.1280   -1.8147 H   0  0  0  0  0  0  0  0  0  0  0  0
    3.0055   -0.8722   -3.3325 H   0  0  0  0  0  0  0  0  0  0  0  0
    2.8805   -2.5707   -2.8913 H   0  0  0  0  0  0  0  0  0  0  0  0
    6.0541    1.9833   -6.2650 H   0  0  0  0  0  0  0  0  0  0  0  0
    5.6354    3.4420   -4.2932 H   0  0  0  0  0  0  0  0  0  0  0  0
    6.1947   -0.4825   -5.9634 H   0  0  0  0  0  0  0  0  0  0  0  0
    5.3640    2.4403   -2.0449 H   0  0  0  0  0  0  0  0  0  0  0  0
    5.9237   -1.4770   -3.7095 H   0  0  0  0  0  0  0  0  0  0  0  0
    2.8353   -1.9673   -0.4766 H   0  0  0  0  0  0  0  0  0  0  0  0
    2.9545   -0.2540   -0.8857 H   0  0  0  0  0  0  0  0  0  0  0  0
    7.3951    0.0252   -0.1302 H   0  0  0  0  0  0  0  0  0  0  0  0
    7.5816   -0.9578   -1.5868 H   0  0  0  0  0  0  0  0  0  0  0  0
    5.1393    0.6016   -0.6525 H   0  0  0  0  0  0  0  0  0  0  0  0
    5.3145   -3.7593    0.6938 H   0  0  0  0  0  0  0  0  0  0  0  0
  1 17  1  0  0  0  0
  1 18  1  0  0  0  0
  2  1  1  0  0  0  0
  2  8  1  0  0  0  0
  3  5  2  0  0  0  0
  3  4  1  0  0  0  0
  4  6  2  0  0  0  0
  5  7  1  0  0  0  0
  6 10  1  0  0  0  0
  6 24  1  0  0  0  0
  7 25  1  0  0  0  0
  7 10  2  0  0  0  0
  8 14  1  0  0  0  0
  8 27  1  0  0  0  0
  8 26  1  0  0  0  0
  9 28  1  0  0  0  0
  9 13  1  0  0  0  0
 10 11  1  0  0  0  0
 11 14  1  0  0  0  0
 11  9  1  0  0  0  0
 11 30  1  1  0  0  0
 12 13  2  0  0  0  0
 12 15  1  0  0  0  0
 14 12  1  0  0  0  0
 15 31  1  0  0  0  0
 16  1  1  0  0  0  0
 19  2  1  0  0  0  0
 20  2  1  0  0  0  0
 21  3  1  0  0  0  0
 22  4  1  0  0  0  0
 23  5  1  0  0  0  0
 29  9  1  0  0  0  0
M  END
>  <HBA>
3

>  <HBD>
1

>  <TPSA>
32.34

>  <cid>
57458

>  <dipole>
1.66

>  <excitation_energy_1>
4.584

>  <excitation_energy_2>
4.794

>  <excitation_energy_3>
5.16

>  <excitation_energy_4>
5.257

>  <homo_energy>
-5.633

>  <homo_lumo_gap>
5.456

>  <logP>
2.43

>  <lumo_energy>
-0.177

>  <melting_point>
87.95

>  <molecular_refractivity>
67.45

>  <oscillator_strength_1>
0.0052

>  <oscillator_strength_2>
0.0017

>  <oscillator_strength_3>
0.0167

>  <oscillator_strength_4>
0.0016

>  <open_babel_can_smiles>
CCCN1C(=NC[C@H]1c1ccccc1)O

>  <mulliken_charges>
31
1   -0.450576
2   -0.249509
3   -0.129076
4   -0.129084
5   -0.131339
6   -0.191338
7   -0.176446
8   -0.138457
9   -0.154854
10   0.17311
11   -0.066612
12   0.685104
13   -0.511157
14   -0.453285
15   -0.619347
16   0.148539
17   0.142809
18   0.144018
19   0.152797
20   0.14263
21   0.130135
22   0.130352
23   0.131607
24   0.124903
25   0.140347
26   0.169229
27   0.134423
28   0.146956
29   0.150761
30   0.129472
31   0.423885

>  <lowdin_charges>
31
1   -0.446751
2   -0.282303
3   -0.157858
4   -0.152688
5   -0.155191
6   -0.169579
7   -0.157341
8   -0.195911
9   -0.201294
10   -0.015328
11   -0.061072
12   0.143696
13   -0.296459
14   -0.133421
15   -0.361036
16   0.153595
17   0.146189
18   0.14844
19   0.152651
20   0.145796
21   0.157647
22   0.156096
23   0.15918
24   0.155482
25   0.160899
26   0.16161
27   0.137003
28   0.150637
29   0.147096
30   0.135535
31   0.374679

$$$$

