PCCDB-ID:  43873
public computational chemistry database (PCCDB) project, http://pccdb.org

 26 25  0  0  0  0  0  0  0  0999 V2000
    2.8833    1.5543    1.0975 C   0  0  0  0  0  0  0  0  0  0  0  0
    3.2077    0.6807   -0.1185 C   0  0  0  0  0  0  0  0  0  0  0  0
    2.6188   -0.7324   -0.0131 C   0  0  0  0  0  0  0  0  0  0  0  0
    1.9087   -4.2821    0.8464 C   0  0  0  0  0  0  0  0  0  0  0  0
    2.9546   -1.5912   -1.2396 C   0  0  0  0  0  0  0  0  0  0  0  0
    2.8727   -3.9773   -0.3070 C   0  0  0  0  0  0  0  0  0  0  0  0
    2.4882   -5.3119    1.7890 C   0  0  0  0  0  0  0  0  0  0  0  0
    1.4389   -3.1956   -2.1189 N   0  0  0  0  0  0  0  0  0  0  0  0
    2.3786   -2.9313   -1.2016 N   0  0  0  0  0  0  0  0  0  0  0  0
    3.5878   -5.8134    1.6980 O   0  0  0  0  0  0  0  0  0  0  0  0
    1.6221   -5.6207    2.7838 O   0  0  0  0  0  0  0  0  0  0  0  0
    0.9934   -4.3422   -2.0840 O   0  0  0  0  0  0  0  0  0  0  0  0
    3.3153    2.5556    0.9931 H   0  0  0  0  0  0  0  0  0  0  0  0
    3.2810    1.1142    2.0201 H   0  0  0  0  0  0  0  0  0  0  0  0
    1.8002    1.6695    1.2246 H   0  0  0  0  0  0  0  0  0  0  0  0
    4.2979    0.6125   -0.2410 H   0  0  0  0  0  0  0  0  0  0  0  0
    2.8268    1.1636   -1.0291 H   0  0  0  0  0  0  0  0  0  0  0  0
    1.5270   -0.6774    0.0907 H   0  0  0  0  0  0  0  0  0  0  0  0
    2.9999   -1.2167    0.8971 H   0  0  0  0  0  0  0  0  0  0  0  0
    0.9583   -4.6540    0.4516 H   0  0  0  0  0  0  0  0  0  0  0  0
    1.6754   -3.3789    1.4231 H   0  0  0  0  0  0  0  0  0  0  0  0
    4.0439   -1.6793   -1.3534 H   0  0  0  0  0  0  0  0  0  0  0  0
    2.5608   -1.1269   -2.1486 H   0  0  0  0  0  0  0  0  0  0  0  0
    3.0194   -4.8827   -0.9030 H   0  0  0  0  0  0  0  0  0  0  0  0
    3.8444   -3.6585    0.0764 H   0  0  0  0  0  0  0  0  0  0  0  0
    2.0736   -6.2829    3.3407 H   0  0  0  0  0  0  0  0  0  0  0  0
  1 15  1  0  0  0  0
  1 14  1  0  0  0  0
  2  3  1  0  0  0  0
  2  1  1  0  0  0  0
  3 18  1  0  0  0  0
  3 19  1  0  0  0  0
  4 21  1  0  0  0  0
  4  7  1  0  0  0  0
  5  9  1  0  0  0  0
  5  3  1  0  0  0  0
  6 25  1  0  0  0  0
  6  4  1  0  0  0  0
  7 11  1  0  0  0  0
  8 12  1  0  0  0  0
  8  9  1  0  0  0  0
  9  6  1  0  0  0  0
 10  7  2  0  0  0  0
 11 26  1  0  0  0  0
 13  1  1  0  0  0  0
 16  2  1  0  0  0  0
 17  2  1  0  0  0  0
 20  4  1  0  0  0  0
 22  5  1  0  0  0  0
 23  5  1  0  0  0  0
 24  6  1  0  0  0  0
M  RAD  2   8   2  12   2
M  END
>  <HBA>
5

>  <HBD>
1

>  <TPSA>
69.97

>  <cid>
43873

>  <dipole>
3.95

>  <excitation_energy_1>
3.386

>  <excitation_energy_2>
5.397

>  <excitation_energy_3>
5.731

>  <excitation_energy_4>
5.82

>  <homo_energy>
-6.106

>  <homo_lumo_gap>
5.236

>  <logP>
1.245

>  <lumo_energy>
-0.871

>  <melting_point>
71.62

>  <molecular_refractivity>
45.17

>  <oscillator_strength_1>
0.0011

>  <oscillator_strength_2>
0.0022

>  <oscillator_strength_3>
0.0519

>  <oscillator_strength_4>
0.1305

>  <open_babel_can_smiles>
CCCCN(CCC(=O)O)[N][O]

>  <mulliken_charges>
26
1   -0.443083
2   -0.254867
3   -0.260166
4   -0.366257
5   -0.138153
6   -0.141822
7   0.586728
8   0.147882
9   -0.22479
10   -0.463717
11   -0.567083
12   -0.388373
13   0.149412
14   0.144979
15   0.147895
16   0.137123
17   0.141224
18   0.149485
19   0.137428
20   0.216358
21   0.182685
22   0.1532
23   0.177296
24   0.194981
25   0.170853
26   0.410781

>  <lowdin_charges>
26
1   -0.440727
2   -0.270208
3   -0.284372
4   -0.312004
5   -0.198965
6   -0.208486
7   0.196875
8   0.050312
9   -0.038908
10   -0.266412
11   -0.35719
12   -0.278118
13   0.152987
14   0.148526
15   0.148051
16   0.140074
17   0.144592
18   0.147333
19   0.142163
20   0.190766
21   0.173867
22   0.146579
23   0.167408
24   0.177032
25   0.164837
26   0.363987

$$$$

