PCCDB-ID:  15336
public computational chemistry database (PCCDB) project, http://pccdb.org

 29 29  0  0  1  0  0  0  0  0999 V2000
    0.6556    0.8116    0.3936 C   0  0  0  0  0  0  0  0  0  0  0  0
    8.8940    3.8460   -3.7942 C   0  0  0  0  0  0  0  0  0  0  0  0
    2.1056    0.4415    0.0656 C   0  0  0  0  0  0  0  0  0  0  0  0
    2.9359    1.6310   -0.4332 C   0  0  0  0  0  0  0  0  0  0  0  0
    4.3879    1.2660   -0.7658 C   0  0  0  0  0  0  0  0  0  0  0  0
    5.2047    2.4619   -1.2686 C   0  0  0  0  0  0  0  0  0  0  0  0
    7.7119    1.5524   -3.5710 C   0  0  0  0  0  0  0  0  0  0  0  0
    8.3947    2.7439   -2.8791 C   0  0  2  0  0  0  0  0  0  0  0  0
    6.6436    2.1038   -1.5961 C   0  0  1  0  0  0  0  0  0  0  0  0
    6.7082    1.1356   -2.6481 O   0  0  0  0  0  0  0  0  0  0  0  0
    7.3404    3.2429   -2.0530 O   0  0  0  0  0  0  0  0  0  0  0  0
    0.0907   -0.0579    0.7491 H   0  0  0  0  0  0  0  0  0  0  0  0
    0.1376    1.2070   -0.4888 H   0  0  0  0  0  0  0  0  0  0  0  0
    0.6095    1.5805    1.1749 H   0  0  0  0  0  0  0  0  0  0  0  0
    9.6919    3.4719   -4.4454 H   0  0  0  0  0  0  0  0  0  0  0  0
    9.2931    4.6797   -3.2082 H   0  0  0  0  0  0  0  0  0  0  0  0
    8.0772    4.2221   -4.4191 H   0  0  0  0  0  0  0  0  0  0  0  0
    2.1182   -0.3527   -0.6944 H   0  0  0  0  0  0  0  0  0  0  0  0
    2.5857    0.0146    0.9577 H   0  0  0  0  0  0  0  0  0  0  0  0
    2.9238    2.4263    0.3275 H   0  0  0  0  0  0  0  0  0  0  0  0
    2.4555    2.0587   -1.3257 H   0  0  0  0  0  0  0  0  0  0  0  0
    4.4060    0.4764   -1.5277 H   0  0  0  0  0  0  0  0  0  0  0  0
    4.8706    0.8435    0.1281 H   0  0  0  0  0  0  0  0  0  0  0  0
    5.2211    3.2582   -0.5125 H   0  0  0  0  0  0  0  0  0  0  0  0
    4.7539    2.8837   -2.1754 H   0  0  0  0  0  0  0  0  0  0  0  0
    8.4021    0.7238   -3.7695 H   0  0  0  0  0  0  0  0  0  0  0  0
    7.2440    1.8571   -4.5182 H   0  0  0  0  0  0  0  0  0  0  0  0
    9.2161    2.3770   -2.2404 H   0  0  0  0  0  0  0  0  0  0  0  0
    7.1575    1.6826   -0.7117 H   0  0  0  0  0  0  0  0  0  0  0  0
  1 12  1  0  0  0  0
  1 14  1  0  0  0  0
  2 16  1  0  0  0  0
  2  8  1  0  0  0  0
  3  1  1  0  0  0  0
  3 19  1  0  0  0  0
  4  3  1  0  0  0  0
  4 20  1  0  0  0  0
  5  4  1  0  0  0  0
  5 23  1  0  0  0  0
  6  5  1  0  0  0  0
  6 24  1  0  0  0  0
  7  8  1  0  0  0  0
  7 10  1  0  0  0  0
  8 28  1  1  0  0  0
  8 11  1  0  0  0  0
  9  6  1  0  0  0  0
  9 29  1  1  0  0  0
 10  9  1  0  0  0  0
 11  9  1  0  0  0  0
 13  1  1  0  0  0  0
 15  2  1  0  0  0  0
 17  2  1  0  0  0  0
 18  3  1  0  0  0  0
 21  4  1  0  0  0  0
 22  5  1  0  0  0  0
 25  6  1  0  0  0  0
 26  7  1  0  0  0  0
 27  7  1  0  0  0  0
M  END
>  <HBA>
2

>  <HBD>
0

>  <TPSA>
18.46

>  <cid>
15336

>  <dipole>
1.19

>  <excitation_energy_1>
6.469

>  <excitation_energy_2>
6.764

>  <excitation_energy_3>
6.915

>  <excitation_energy_4>
6.964

>  <homo_energy>
-6.738

>  <homo_lumo_gap>
9.217

>  <logP>
2.328

>  <lumo_energy>
2.479

>  <melting_point>
-23.88

>  <molecular_refractivity>
45.43

>  <oscillator_strength_1>
0.0193

>  <oscillator_strength_2>
0.0116

>  <oscillator_strength_3>
0.0228

>  <oscillator_strength_4>
0.0022

>  <open_babel_can_smiles>
CCCCC[C@H]1OC[C@H](O1)C

>  <mulliken_charges>
29
1   -0.441529
2   -0.464663
3   -0.246938
4   -0.245772
5   -0.265556
6   -0.280097
7   -0.021836
8   0.121655
9   0.385705
10   -0.509232
11   -0.507551
12   0.141198
13   0.141286
14   0.140626
15   0.148029
16   0.164711
17   0.159059
18   0.13199
19   0.129665
20   0.125641
21   0.128483
22   0.154038
23   0.126555
24   0.140951
25   0.142564
26   0.136804
27   0.133536
28   0.124725
29   0.105955

>  <lowdin_charges>
29
1   -0.44645
2   -0.449373
3   -0.273126
4   -0.274651
5   -0.276952
6   -0.286469
7   -0.145223
8   -0.008277
9   0.106706
10   -0.284493
11   -0.263013
12   0.149683
13   0.146864
14   0.146325
15   0.157525
16   0.163957
17   0.159405
18   0.140279
19   0.139199
20   0.137026
21   0.138941
22   0.151439
23   0.138492
24   0.151838
25   0.151816
26   0.144595
27   0.137203
28   0.130831
29   0.115904

$$$$

