PCCDB-ID:  35053
public computational chemistry database (PCCDB) project, http://pccdb.org

 29 30  0  0  1  0  0  0  0  0999 V2000
    0.9795   -0.3501   -0.0563 C   0  0  0  0  0  0  0  0  0  0  0  0
    2.4714   -0.0293   -0.2640 C   0  0  0  0  0  0  0  0  0  0  0  0
    3.3650    7.8702    3.5377 C   0  0  0  0  0  0  0  0  0  0  0  0
    2.7315    6.7549    4.0868 C   0  0  0  0  0  0  0  0  0  0  0  0
    3.7360    7.8518    2.1904 C   0  0  0  0  0  0  0  0  0  0  0  0
    2.4798    5.6266    3.3048 C   0  0  0  0  0  0  0  0  0  0  0  0
    3.4827    6.7320    1.4019 C   0  0  0  0  0  0  0  0  0  0  0  0
    2.8631    5.5964    1.9506 C   0  0  0  0  0  0  0  0  0  0  0  0
    2.9917    0.9792    0.7289 C   0  0  2  0  0  0  0  0  0  0  0  0
    4.1714    1.5589    2.6365 C   0  0  0  0  0  0  0  0  0  0  0  0
    2.9716    3.3228    1.3863 C   0  0  0  0  0  0  0  0  0  0  0  0
    4.9171    1.3273    3.6462 N   0  0  0  0  0  0  0  0  0  0  0  0
    2.5774    4.5088    1.1034 N   0  0  0  0  0  0  0  0  0  0  0  0
    3.7333    0.5970    1.7179 N   0  0  0  0  0  0  0  0  0  0  0  0
    2.6078    2.2827    0.5283 N   0  0  0  0  0  0  0  0  0  0  0  0
    3.7515    2.8885    2.4295 N   0  0  0  0  0  0  0  0  0  0  0  0
    0.6504   -1.0988   -0.7839 H   0  0  0  0  0  0  0  0  0  0  0  0
    0.3485    0.5372   -0.1805 H   0  0  0  0  0  0  0  0  0  0  0  0
    0.8070   -0.7495    0.9481 H   0  0  0  0  0  0  0  0  0  0  0  0
    2.6343    0.3467   -1.2831 H   0  0  0  0  0  0  0  0  0  0  0  0
    3.0721   -0.9334   -0.1432 H   0  0  0  0  0  0  0  0  0  0  0  0
    3.5599    8.7469    4.1489 H   0  0  0  0  0  0  0  0  0  0  0  0
    2.4250    6.7601    5.1298 H   0  0  0  0  0  0  0  0  0  0  0  0
    4.2226    8.7177    1.7487 H   0  0  0  0  0  0  0  0  0  0  0  0
    1.9573    4.7742    3.7316 H   0  0  0  0  0  0  0  0  0  0  0  0
    3.7590    6.7150    0.3518 H   0  0  0  0  0  0  0  0  0  0  0  0
    5.1346    0.3294    3.6629 H   0  0  0  0  0  0  0  0  0  0  0  0
    2.0366    2.5568   -0.2599 H   0  0  0  0  0  0  0  0  0  0  0  0
    4.0869    3.5734    3.0959 H   0  0  0  0  0  0  0  0  0  0  0  0
  1 19  1  0  0  0  0
  2 21  1  0  0  0  0
  2  1  1  0  0  0  0
  3  4  1  0  0  0  0
  3 22  1  0  0  0  0
  4 23  1  0  0  0  0
  5  3  2  0  0  0  0
  6 25  1  0  0  0  0
  6  4  2  0  0  0  0
  7  8  2  0  0  0  0
  7  5  1  0  0  0  0
  8  6  1  0  0  0  0
  9  2  1  1  0  0  0
  9 14  1  0  0  0  0
 10 12  1  0  0  0  0
 11 16  1  0  0  0  0
 12 27  1  0  0  0  0
 13 11  2  0  0  0  0
 13  8  1  0  0  0  0
 14 10  2  0  0  0  0
 15  9  1  0  0  0  0
 15 11  1  0  0  0  0
 16 10  1  0  0  0  0
 16 29  1  0  0  0  0
 17  1  1  0  0  0  0
 18  1  1  0  0  0  0
 20  2  1  0  0  0  0
 24  5  1  0  0  0  0
 26  7  1  0  0  0  0
 28 15  1  0  0  0  0
M  RAD  2   9   2  12   2
M  END
>  <HBA>
4

>  <HBD>
2

>  <TPSA>
76.72

>  <cid>
35053

>  <dipole>
3.64

>  <excitation_energy_1>
4.207

>  <excitation_energy_2>
4.867

>  <excitation_energy_3>
4.924

>  <excitation_energy_4>
4.971

>  <homo_energy>
-5.812

>  <homo_lumo_gap>
4.909

>  <logP>
2.414

>  <lumo_energy>
-0.903

>  <melting_point>
178.29

>  <molecular_refractivity>
63.55

>  <oscillator_strength_1>
0.0698

>  <oscillator_strength_2>
0.0059

>  <oscillator_strength_3>
0.0711

>  <oscillator_strength_4>
0.2449

>  <open_babel_can_smiles>
CC[C]1N/C(=N/c2ccccc2)/NC(=N1)[NH]

>  <mulliken_charges>
29
1   -0.450246
2   -0.34277
3   -0.130343
4   -0.135636
5   -0.136781
6   -0.179567
7   -0.146761
8   0.236489
9   0.527354
10   0.600422
11   0.748035
12   -0.645281
13   -0.573816
14   -0.506905
15   -0.67656
16   -0.680935
17   0.16423
18   0.149832
19   0.173507
20   0.155889
21   0.188145
22   0.126963
23   0.13133
24   0.129478
25   0.134466
26   0.129224
27   0.297898
28   0.35189
29   0.360447

>  <lowdin_charges>
29
1   -0.43993
2   -0.279835
3   -0.171898
4   -0.149623
5   -0.151028
6   -0.198096
7   -0.170387
8   0.043671
9   0.126199
10   0.118414
11   0.148117
12   -0.420165
13   -0.24045
14   -0.228725
15   -0.22397
16   -0.245201
17   0.162293
18   0.150505
19   0.16266
20   0.155926
21   0.177489
22   0.157821
23   0.156952
24   0.158456
25   0.159889
26   0.160019
27   0.263059
28   0.30642
29   0.311418

$$$$

