PCCDB-ID:  222
public computational chemistry database (PCCDB) project, http://pccdb.org

  4  3  0  0  0  0  0  0  0  0999 V2000
    0.9950    0.0511    0.0888 N   0  0  0  0  0  0  0  0  0  0  0  0
    2.0125   -0.0084    0.1070 H   0  0  0  0  0  0  0  0  0  0  0  0
    0.6852   -0.2198    1.0215 H   0  0  0  0  0  0  0  0  0  0  0  0
    0.6851   -0.6947   -0.5333 H   0  0  0  0  0  0  0  0  0  0  0  0
  1  2  1  0  0  0  0
  1  3  1  0  0  0  0
  4  1  1  0  0  0  0
M  END
>  <HBA>
1

>  <HBD>
1

>  <TPSA>
3.24

>  <cid>
222

>  <dipole>
1.91

>  <excitation_energy_1>
6.618

>  <excitation_energy_2>
8.507

>  <excitation_energy_3>
8.507

>  <excitation_energy_4>
9.906

>  <homo_energy>
-6.868

>  <homo_lumo_gap>
9.007

>  <logP>
0.324

>  <lumo_energy>
2.139

>  <melting_point>
110.39

>  <molecular_refractivity>
4.73

>  <oscillator_strength_1>
0.1251

>  <oscillator_strength_2>
0.0011

>  <oscillator_strength_3>
0.0011

>  <oscillator_strength_4>
0.0161

>  <open_babel_can_smiles>
N

>  <mulliken_charges>
4
1   -0.887641
2   0.295884
3   0.295878
4   0.295878

>  <lowdin_charges>
4
1   -0.768597
2   0.254761
3   0.256344
4   0.257492

$$$$

