PCCDB-ID:  47335
public computational chemistry database (PCCDB) project, http://pccdb.org

 38 39  0  0  1  0  0  0  0  0999 V2000
    3.0586    0.7884   -0.8735 C   0  0  0  0  0  0  0  0  0  0  0  0
    1.4539   -1.1206   -1.2079 C   0  0  0  0  0  0  0  0  0  0  0  0
    4.4261   -2.2191    3.9544 C   0  0  0  0  0  0  0  0  0  0  0  0
    4.5372   -2.1229    0.0918 C   0  0  0  0  0  0  0  0  0  0  0  0
    0.7393   -2.1374    2.1241 C   0  0  0  0  0  0  0  0  0  0  0  0
    2.2824   -3.4252    3.6129 C   0  0  0  0  0  0  0  0  0  0  0  0
    2.6417   -3.3383    1.0354 C   0  0  0  0  0  0  0  0  0  0  0  0
    2.2873   -0.9807    3.6959 C   0  0  0  0  0  0  0  0  0  0  0  0
    2.0580   -0.1529   -0.1759 C   0  0  0  0  0  0  0  0  0  0  0  0
    1.6414   -3.3766    2.2027 C   0  0  2  0  0  0  0  0  0  0  0  0
    1.6528   -0.9114    2.2800 C   0  0  1  0  0  0  0  0  0  0  0  0
    2.6811   -0.8128    1.1191 C   0  0  1  0  0  0  0  0  0  0  0  0
    2.9759   -2.2173    4.0494 N   0  0  0  0  0  0  0  0  0  0  0  0
    3.3913   -2.0896    0.9752 N   0  0  0  0  0  0  0  0  0  0  0  0
    2.5668    1.3448   -1.6808 H   0  0  0  0  0  0  0  0  0  0  0  0
    3.8980    0.2423   -1.3190 H   0  0  0  0  0  0  0  0  0  0  0  0
    3.4727    1.5209   -0.1706 H   0  0  0  0  0  0  0  0  0  0  0  0
    1.0079   -0.5534   -2.0349 H   0  0  0  0  0  0  0  0  0  0  0  0
    0.6671   -1.7548   -0.7905 H   0  0  0  0  0  0  0  0  0  0  0  0
    2.2156   -1.7783   -1.6396 H   0  0  0  0  0  0  0  0  0  0  0  0
    4.8139   -3.1192    4.4475 H   0  0  0  0  0  0  0  0  0  0  0  0
    4.8209   -1.3562    4.5048 H   0  0  0  0  0  0  0  0  0  0  0  0
    4.8218   -2.1863    2.9271 H   0  0  0  0  0  0  0  0  0  0  0  0
    5.1664   -2.9854    0.3490 H   0  0  0  0  0  0  0  0  0  0  0  0
    5.1392   -1.2173    0.2309 H   0  0  0  0  0  0  0  0  0  0  0  0
    4.2961   -2.2045   -0.9847 H   0  0  0  0  0  0  0  0  0  0  0  0
   -0.0047   -2.1537    2.9337 H   0  0  0  0  0  0  0  0  0  0  0  0
    0.1790   -2.1145    1.1832 H   0  0  0  0  0  0  0  0  0  0  0  0
    2.9782   -4.2693    3.6863 H   0  0  0  0  0  0  0  0  0  0  0  0
    1.4599   -3.6333    4.3197 H   0  0  0  0  0  0  0  0  0  0  0  0
    2.0938   -3.5583    0.0983 H   0  0  0  0  0  0  0  0  0  0  0  0
    3.3737   -4.1499    1.1553 H   0  0  0  0  0  0  0  0  0  0  0  0
    1.4572   -0.8299    4.4087 H   0  0  0  0  0  0  0  0  0  0  0  0
    2.9808   -0.1449    3.8437 H   0  0  0  0  0  0  0  0  0  0  0  0
    1.2400    0.4900    0.1810 H   0  0  0  0  0  0  0  0  0  0  0  0
    1.0398   -4.2895    2.0875 H   0  0  0  0  0  0  0  0  0  0  0  0
    1.0498    0.0060    2.2596 H   0  0  0  0  0  0  0  0  0  0  0  0
    3.4464   -0.0960    1.4571 H   0  0  0  0  0  0  0  0  0  0  0  0
  1  9  1  0  0  0  0
  1 17  1  0  0  0  0
  2 19  1  0  0  0  0
  2  9  1  0  0  0  0
  3 13  1  0  0  0  0
  3 21  1  0  0  0  0
  3 22  1  0  0  0  0
  4 25  1  0  0  0  0
  4 24  1  0  0  0  0
  4 14  1  0  0  0  0
  5 10  1  0  0  0  0
  5 11  1  0  0  0  0
  5 27  1  0  0  0  0
  6 29  1  0  0  0  0
  6 13  1  0  0  0  0
  6 30  1  0  0  0  0
  7 32  1  0  0  0  0
  7 10  1  0  0  0  0
  8 34  1  0  0  0  0
  8 13  1  0  0  0  0
  8 33  1  0  0  0  0
  9 35  1  0  0  0  0
  9 12  1  0  0  0  0
 10 36  1  6  0  0  0
 10  6  1  0  0  0  0
 11 37  1  6  0  0  0
 11  8  1  0  0  0  0
 12 38  1  1  0  0  0
 12 11  1  0  0  0  0
 14  7  1  0  0  0  0
 14 12  1  0  0  0  0
 15  1  1  0  0  0  0
 16  1  1  0  0  0  0
 18  2  1  0  0  0  0
 20  2  1  0  0  0  0
 23  3  1  0  0  0  0
 26  4  1  0  0  0  0
 28  5  1  0  0  0  0
 31  7  1  0  0  0  0
M  END
>  <HBA>
2

>  <HBD>
0

>  <TPSA>
6.48

>  <cid>
47335

>  <dipole>
1.03

>  <excitation_energy_1>
4.247

>  <excitation_energy_2>
4.61

>  <excitation_energy_3>
4.708

>  <excitation_energy_4>
4.738

>  <homo_energy>
-4.808

>  <homo_lumo_gap>
6.604

>  <logP>
1.4

>  <lumo_energy>
1.796

>  <melting_point>
19.88

>  <molecular_refractivity>
69.19

>  <oscillator_strength_1>
0.0149

>  <oscillator_strength_2>
0.0188

>  <oscillator_strength_3>
0.0092

>  <oscillator_strength_4>
0.0044

>  <open_babel_can_smiles>
CN1C[C@H]2C[C@@H](C1)[C@@H](N(C2)C)C(C)C

>  <mulliken_charges>
38
1   -0.457873
2   -0.45681
3   -0.301058
4   -0.29648
5   -0.286143
6   -0.127959
7   -0.1081
8   -0.133282
9   -0.07262
10   -0.101002
11   -0.11155
12   0.056359
13   -0.364276
14   -0.396006
15   0.138947
16   0.14555
17   0.139082
18   0.13805
19   0.148492
20   0.149365
21   0.134694
22   0.134756
23   0.147537
24   0.141108
25   0.145803
26   0.124198
27   0.127307
28   0.136226
29   0.127867
30   0.124706
31   0.111095
32   0.124946
33   0.12416
34   0.128505
35   0.120594
36   0.114483
37   0.11545
38   0.11388

>  <lowdin_charges>
38
1   -0.452111
2   -0.45233
3   -0.360148
4   -0.353139
5   -0.286091
6   -0.200699
7   -0.198341
8   -0.200977
9   -0.139121
10   -0.147256
11   -0.147254
12   -0.063828
13   -0.189188
14   -0.183923
15   0.148084
16   0.14885
17   0.146603
18   0.148777
19   0.148306
20   0.149834
21   0.14197
22   0.142334
23   0.132939
24   0.144547
25   0.148262
26   0.119076
27   0.140708
28   0.142846
29   0.143938
30   0.133827
31   0.119051
32   0.138769
33   0.133542
34   0.143834
35   0.139087
36   0.142029
37   0.141278
38   0.135914

$$$$

