PCCDB-ID:  21640
public computational chemistry database (PCCDB) project, http://pccdb.org

 19 20  0  0  0  0  0  0  0  0999 V2000
   -1.4591   -0.1346   -0.3386 C   0  0  0  0  0  0  0  0  0  0  0  0
   -0.9271    0.6344    0.6969 C   0  0  0  0  0  0  0  0  0  0  0  0
   -0.5978   -0.8619   -1.1623 C   0  0  0  0  0  0  0  0  0  0  0  0
    0.4496    0.6840    0.9086 C   0  0  0  0  0  0  0  0  0  0  0  0
    0.7824   -0.8212   -0.9747 C   0  0  0  0  0  0  0  0  0  0  0  0
    1.3061   -0.0426    0.0682 C   0  0  0  0  0  0  0  0  0  0  0  0
    3.6988   -0.9092   -0.0302 C   0  0  0  0  0  0  0  0  0  0  0  0
    3.5849   -1.9208   -0.7985 N   0  0  0  0  0  0  0  0  0  0  0  0
    4.8435   -0.4775    0.7090 N   0  0  0  0  0  0  0  0  0  0  0  0
    4.5699    0.5826    1.3426 N   0  0  0  0  0  0  0  0  0  0  0  0
    3.2496    0.8904    1.2110 N   0  0  0  0  0  0  0  0  0  0  0  0
    2.7065    0.0385    0.2425 N   0  0  0  0  0  0  0  0  0  0  0  0
   -2.5326   -0.1702   -0.4986 H   0  0  0  0  0  0  0  0  0  0  0  0
   -1.5841    1.1948    1.3563 H   0  0  0  0  0  0  0  0  0  0  0  0
   -1.0000   -1.4698   -1.9680 H   0  0  0  0  0  0  0  0  0  0  0  0
    0.8498    1.2559    1.7391 H   0  0  0  0  0  0  0  0  0  0  0  0
    1.4551   -1.3937   -1.6000 H   0  0  0  0  0  0  0  0  0  0  0  0
    4.4589   -2.4479   -0.7802 H   0  0  0  0  0  0  0  0  0  0  0  0
    3.0910    1.8854    1.0538 H   0  0  0  0  0  0  0  0  0  0  0  0
  1  2  2  0  0  0  0
  2  4  1  0  0  0  0
  2 14  1  0  0  0  0
  3  5  2  0  0  0  0
  3  1  1  0  0  0  0
  4 16  1  0  0  0  0
  5  6  1  0  0  0  0
  6 12  1  0  0  0  0
  6  4  2  0  0  0  0
  7 12  1  0  0  0  0
  7  9  2  0  0  0  0
  8 18  1  0  0  0  0
  8  7  1  0  0  0  0
  9 10  1  0  0  0  0
 11 10  1  0  0  0  0
 12 11  1  0  0  0  0
 13  1  1  0  0  0  0
 15  3  1  0  0  0  0
 17  5  1  0  0  0  0
 19 11  1  0  0  0  0
M  RAD  2   8   2  10   2
M  END
>  <HBA>
5

>  <HBD>
1

>  <TPSA>
69.62

>  <cid>
21640

>  <dipole>
3.32

>  <excitation_energy_1>
3.478

>  <excitation_energy_2>
4.259

>  <excitation_energy_3>
4.479

>  <excitation_energy_4>
4.824

>  <homo_energy>
-5.913

>  <homo_lumo_gap>
4.014

>  <logP>
0.826

>  <lumo_energy>
-1.899

>  <melting_point>
134.4

>  <molecular_refractivity>
43.56

>  <oscillator_strength_1>
0.1319

>  <oscillator_strength_2>
0.0057

>  <oscillator_strength_3>
0.0032

>  <oscillator_strength_4>
0.0358

>  <open_babel_can_smiles>
[NH]C1=N[N]NN1c1ccccc1

>  <mulliken_charges>
19
1   -0.122354
2   -0.137311
3   -0.143442
4   -0.182365
5   -0.157289
6   0.320121
7   0.661992
8   -0.654913
9   -0.310089
10   -0.007879
11   -0.223655
12   -0.47509
13   0.134016
14   0.13684
15   0.140502
16   0.142857
17   0.197331
18   0.309466
19   0.371262

>  <lowdin_charges>
19
1   -0.161918
2   -0.14753
3   -0.143692
4   -0.193509
5   -0.171016
6   0.050709
7   0.083296
8   -0.427585
9   -0.129037
10   -0.010217
11   -0.144682
12   -0.023554
13   0.15911
14   0.163259
15   0.16428
16   0.164141
17   0.194648
18   0.274671
19   0.298627

$$$$

