PCCDB-ID:  47190
public computational chemistry database (PCCDB) project, http://pccdb.org

 39 39  0  0  1  0  0  0  0  0999 V2000
    0.8202    1.0260   -1.2432 C   0  0  0  0  0  0  0  0  0  0  0  0
    9.8220    3.9833    0.7905 C   0  0  0  0  0  0  0  0  0  0  0  0
    8.6636    2.1776    2.1396 C   0  0  0  0  0  0  0  0  0  0  0  0
    2.1770    0.4363   -0.8977 C   0  0  0  0  0  0  0  0  0  0  0  0
    6.3199   -1.2002   -3.8194 C   0  0  0  0  0  0  0  0  0  0  0  0
    6.3845   -1.6623   -2.5052 C   0  0  0  0  0  0  0  0  0  0  0  0
    5.6458   -0.0081   -4.1031 C   0  0  0  0  0  0  0  0  0  0  0  0
    5.7753   -0.9350   -1.4785 C   0  0  0  0  0  0  0  0  0  0  0  0
    5.0455    0.7197   -3.0780 C   0  0  0  0  0  0  0  0  0  0  0  0
    7.4922    3.2700    0.1626 C   0  0  0  0  0  0  0  0  0  0  0  0
    8.8344    2.8088    0.7508 C   0  0  0  0  0  0  0  0  0  0  0  0
    5.1064    0.2631   -1.7532 C   0  0  0  0  0  0  0  0  0  0  0  0
    4.4632    1.0810   -0.6404 C   0  0  1  0  0  0  0  0  0  0  0  0
    5.2520    2.3726   -0.3234 C   0  0  0  0  0  0  0  0  0  0  0  0
    4.7327    3.5377   -0.2324 N   0  0  0  0  0  0  0  0  0  0  0  0
    6.5849    2.1478   -0.0495 N   0  0  0  0  0  0  0  0  0  0  0  0
    3.1438    1.4804   -0.9672 O   0  0  0  0  0  0  0  0  0  0  0  0
    0.0468    0.2516   -1.1956 H   0  0  0  0  0  0  0  0  0  0  0  0
    0.8292    1.4449   -2.2546 H   0  0  0  0  0  0  0  0  0  0  0  0
    0.5559    1.8245   -0.5425 H   0  0  0  0  0  0  0  0  0  0  0  0
   10.7969    3.6652    1.1773 H   0  0  0  0  0  0  0  0  0  0  0  0
    9.4503    4.7836    1.4430 H   0  0  0  0  0  0  0  0  0  0  0  0
    9.9789    4.4116   -0.2065 H   0  0  0  0  0  0  0  0  0  0  0  0
    9.6183    1.7942    2.5188 H   0  0  0  0  0  0  0  0  0  0  0  0
    7.9457    1.3517    2.1156 H   0  0  0  0  0  0  0  0  0  0  0  0
    8.2918    2.9200    2.8575 H   0  0  0  0  0  0  0  0  0  0  0  0
    2.4397   -0.3715   -1.5962 H   0  0  0  0  0  0  0  0  0  0  0  0
    2.1698    0.0071    0.1177 H   0  0  0  0  0  0  0  0  0  0  0  0
    6.7878   -1.7660   -4.6204 H   0  0  0  0  0  0  0  0  0  0  0  0
    6.8985   -2.5923   -2.2773 H   0  0  0  0  0  0  0  0  0  0  0  0
    5.5912    0.3547   -5.1262 H   0  0  0  0  0  0  0  0  0  0  0  0
    5.8142   -1.3058   -0.4560 H   0  0  0  0  0  0  0  0  0  0  0  0
    4.5182    1.6446   -3.2935 H   0  0  0  0  0  0  0  0  0  0  0  0
    7.6607    3.8215   -0.7765 H   0  0  0  0  0  0  0  0  0  0  0  0
    6.9927    3.9671    0.8427 H   0  0  0  0  0  0  0  0  0  0  0  0
    9.2524    2.0438    0.0753 H   0  0  0  0  0  0  0  0  0  0  0  0
    4.4523    0.4734    0.2803 H   0  0  0  0  0  0  0  0  0  0  0  0
    3.7273    3.4598   -0.3965 H   0  0  0  0  0  0  0  0  0  0  0  0
    6.9915    1.3472   -0.5184 H   0  0  0  0  0  0  0  0  0  0  0  0
  1 18  1  0  0  0  0
  1  4  1  0  0  0  0
  1 20  1  0  0  0  0
  2 21  1  0  0  0  0
  2 22  1  0  0  0  0
  3 24  1  0  0  0  0
  3 26  1  0  0  0  0
  4 28  1  0  0  0  0
  5  6  1  0  0  0  0
  6 30  1  0  0  0  0
  6  8  2  0  0  0  0
  7  5  2  0  0  0  0
  7  9  1  0  0  0  0
  8 32  1  0  0  0  0
  9 12  2  0  0  0  0
 10 11  1  0  0  0  0
 10 35  1  0  0  0  0
 11  2  1  0  0  0  0
 11  3  1  0  0  0  0
 12  8  1  0  0  0  0
 12 13  1  0  0  0  0
 13 14  1  0  0  0  0
 13 37  1  1  0  0  0
 14 15  2  0  0  0  0
 14 16  1  0  0  0  0
 16 10  1  0  0  0  0
 17  4  1  0  0  0  0
 17 13  1  0  0  0  0
 19  1  1  0  0  0  0
 23  2  1  0  0  0  0
 25  3  1  0  0  0  0
 27  4  1  0  0  0  0
 29  5  1  0  0  0  0
 31  7  1  0  0  0  0
 33  9  1  0  0  0  0
 34 10  1  0  0  0  0
 36 11  1  0  0  0  0
 38 15  1  0  0  0  0
 39 16  1  0  0  0  0
M  END
>  <HBA>
3

>  <HBD>
1

>  <TPSA>
47.61

>  <cid>
47190

>  <dipole>
3.64

>  <excitation_energy_1>
4.694

>  <excitation_energy_2>
4.832

>  <excitation_energy_3>
5.157

>  <excitation_energy_4>
5.346

>  <homo_energy>
-5.84

>  <homo_lumo_gap>
5.478

>  <logP>
3.478

>  <lumo_energy>
-0.362

>  <melting_point>
65.66

>  <molecular_refractivity>
72.53

>  <oscillator_strength_1>
0.0026

>  <oscillator_strength_2>
0.003

>  <oscillator_strength_3>
0.0019

>  <oscillator_strength_4>
0.0474

>  <open_babel_can_smiles>
CCO[C@@H](c1ccccc1)C(=N)NCC(C)C

>  <mulliken_charges>
39
1   -0.457136
2   -0.444321
3   -0.435026
4   -0.011785
5   -0.128501
6   -0.128705
7   -0.129538
8   -0.201857
9   -0.16851
10   -0.088338
11   -0.096059
12   0.122895
13   0.024535
14   0.470237
15   -0.667408
16   -0.619113
17   -0.494997
18   0.146574
19   0.160561
20   0.160698
21   0.141781
22   0.14484
23   0.142485
24   0.13613
25   0.148597
26   0.1419
27   0.136341
28   0.124424
29   0.13389
30   0.134055
31   0.135882
32   0.132367
33   0.15271
34   0.135072
35   0.172287
36   0.114427
37   0.138592
38   0.301472
39   0.318542

>  <lowdin_charges>
39
1   -0.449137
2   -0.443472
3   -0.447793
4   -0.125877
5   -0.157076
6   -0.154795
7   -0.15062
8   -0.176308
9   -0.151892
10   -0.194231
11   -0.127627
12   -0.030402
13   -0.020248
14   0.073934
15   -0.434494
16   -0.297028
17   -0.261089
18   0.156717
19   0.157425
20   0.158684
21   0.149276
22   0.149776
23   0.148399
24   0.146171
25   0.152015
26   0.148899
27   0.136372
28   0.12809
29   0.160994
30   0.159561
31   0.159518
32   0.156234
33   0.168959
34   0.137112
35   0.165164
36   0.131316
37   0.144233
38   0.258322
39   0.274916

$$$$

