PCCDB-ID:  41703
public computational chemistry database (PCCDB) project, http://pccdb.org

 43 42  0  0  0  0  0  0  0  0999 V2000
    2.5728   -1.6337   -1.2005 C   0  0  0  0  0  0  0  0  0  0  0  0
    5.3420    2.1316    5.7871 C   0  0  0  0  0  0  0  0  0  0  0  0
    5.9316   -4.4752    6.0025 C   0  0  0  0  0  0  0  0  0  0  0  0
    2.0919   -2.3888    0.0453 C   0  0  0  0  0  0  0  0  0  0  0  0
    6.4038    1.6890    4.7730 C   0  0  0  0  0  0  0  0  0  0  0  0
    6.0122   -4.4101    4.4728 C   0  0  0  0  0  0  0  0  0  0  0  0
    3.1742   -2.6138    1.1179 C   0  0  0  0  0  0  0  0  0  0  0  0
    6.2484    0.2416    4.2717 C   0  0  0  0  0  0  0  0  0  0  0  0
    4.7243   -3.9105    3.7902 C   0  0  0  0  0  0  0  0  0  0  0  0
    3.6525   -1.3213    1.7928 C   0  0  0  0  0  0  0  0  0  0  0  0
    4.9891    0.0043    3.4253 C   0  0  0  0  0  0  0  0  0  0  0  0
    4.4254   -2.4054    3.9993 C   0  0  0  0  0  0  0  0  0  0  0  0
    4.7973   -1.4312    2.8369 C   0  0  0  0  0  0  0  0  0  0  0  0
    5.9901   -1.9321    2.1261 N   0  0  0  0  0  0  0  0  0  0  0  0
    1.7753   -1.5588   -1.9491 H   0  0  0  0  0  0  0  0  0  0  0  0
    3.4202   -2.1510   -1.6672 H   0  0  0  0  0  0  0  0  0  0  0  0
    2.8952   -0.6129   -0.9663 H   0  0  0  0  0  0  0  0  0  0  0  0
    5.5455    3.1454    6.1506 H   0  0  0  0  0  0  0  0  0  0  0  0
    5.3267    1.4635    6.6574 H   0  0  0  0  0  0  0  0  0  0  0  0
    4.3362    2.1345    5.3528 H   0  0  0  0  0  0  0  0  0  0  0  0
    5.1341   -5.1573    6.3232 H   0  0  0  0  0  0  0  0  0  0  0  0
    5.7218   -3.4943    6.4465 H   0  0  0  0  0  0  0  0  0  0  0  0
    6.8719   -4.8352    6.4357 H   0  0  0  0  0  0  0  0  0  0  0  0
    1.7049   -3.3683   -0.2670 H   0  0  0  0  0  0  0  0  0  0  0  0
    1.2390   -1.8561    0.4906 H   0  0  0  0  0  0  0  0  0  0  0  0
    7.3965    1.7926    5.2321 H   0  0  0  0  0  0  0  0  0  0  0  0
    6.3948    2.3728    3.9123 H   0  0  0  0  0  0  0  0  0  0  0  0
    6.2460   -5.4130    4.0904 H   0  0  0  0  0  0  0  0  0  0  0  0
    6.8586   -3.7752    4.1761 H   0  0  0  0  0  0  0  0  0  0  0  0
    4.0320   -3.1288    0.6686 H   0  0  0  0  0  0  0  0  0  0  0  0
    2.7651   -3.2924    1.8771 H   0  0  0  0  0  0  0  0  0  0  0  0
    6.2631   -0.4338    5.1379 H   0  0  0  0  0  0  0  0  0  0  0  0
    7.1349   -0.0086    3.6729 H   0  0  0  0  0  0  0  0  0  0  0  0
    3.8829   -4.5022    4.1776 H   0  0  0  0  0  0  0  0  0  0  0  0
    4.7956   -4.1245    2.7221 H   0  0  0  0  0  0  0  0  0  0  0  0
    2.7939   -0.8368    2.2808 H   0  0  0  0  0  0  0  0  0  0  0  0
    3.9907   -0.6163    1.0190 H   0  0  0  0  0  0  0  0  0  0  0  0
    5.0069    0.7194    2.5884 H   0  0  0  0  0  0  0  0  0  0  0  0
    4.0951    0.2523    4.0140 H   0  0  0  0  0  0  0  0  0  0  0  0
    4.9354   -2.0747    4.9127 H   0  0  0  0  0  0  0  0  0  0  0  0
    3.3575   -2.2606    4.2069 H   0  0  0  0  0  0  0  0  0  0  0  0
    6.2506   -1.2683    1.3959 H   0  0  0  0  0  0  0  0  0  0  0  0
    6.7867   -1.9785    2.7595 H   0  0  0  0  0  0  0  0  0  0  0  0
  1 17  1  0  0  0  0
  1  4  1  0  0  0  0
  2 18  1  0  0  0  0
  2 19  1  0  0  0  0
  3 21  1  0  0  0  0
  3 23  1  0  0  0  0
  3 22  1  0  0  0  0
  4 25  1  0  0  0  0
  4  7  1  0  0  0  0
  5 26  1  0  0  0  0
  5  2  1  0  0  0  0
  6  3  1  0  0  0  0
  7 10  1  0  0  0  0
  7 31  1  0  0  0  0
  8  5  1  0  0  0  0
  8 32  1  0  0  0  0
  9 12  1  0  0  0  0
  9 34  1  0  0  0  0
  9  6  1  0  0  0  0
 10 36  1  0  0  0  0
 10 13  1  0  0  0  0
 11 39  1  0  0  0  0
 11  8  1  0  0  0  0
 12 41  1  0  0  0  0
 12 40  1  0  0  0  0
 13 11  1  0  0  0  0
 13 12  1  0  0  0  0
 14 43  1  0  0  0  0
 14 13  1  0  0  0  0
 15  1  1  0  0  0  0
 16  1  1  0  0  0  0
 20  2  1  0  0  0  0
 24  4  1  0  0  0  0
 27  5  1  0  0  0  0
 28  6  1  0  0  0  0
 29  6  1  0  0  0  0
 30  7  1  0  0  0  0
 33  8  1  0  0  0  0
 35  9  1  0  0  0  0
 37 10  1  0  0  0  0
 38 11  1  0  0  0  0
 42 14  1  0  0  0  0
M  END
>  <HBA>
1

>  <HBD>
1

>  <TPSA>
26.02

>  <cid>
41703

>  <dipole>
1.15

>  <excitation_energy_1>
5.521

>  <excitation_energy_2>
6.072

>  <excitation_energy_3>
6.131

>  <excitation_energy_4>
6.209

>  <homo_energy>
-6.18

>  <homo_lumo_gap>
7.97

>  <logP>
4.955

>  <lumo_energy>
1.791

>  <melting_point>
34.06

>  <molecular_refractivity>
67.35

>  <oscillator_strength_1>
0.0257

>  <oscillator_strength_2>
0.005

>  <oscillator_strength_3>
0.0028

>  <oscillator_strength_4>
0.0015

>  <open_babel_can_smiles>
CCCCC(CCCC)(CCCC)N

>  <mulliken_charges>
43
1   -0.443609
2   -0.44318
3   -0.442997
4   -0.250251
5   -0.247819
6   -0.256535
7   -0.255018
8   -0.262272
9   -0.245753
10   -0.260384
11   -0.269255
12   -0.303865
13   0.202242
14   -0.729087
15   0.140162
16   0.141602
17   0.142913
18   0.142475
19   0.140899
20   0.147442
21   0.140449
22   0.141532
23   0.13986
24   0.12952
25   0.125446
26   0.130443
27   0.129549
28   0.130688
29   0.124812
30   0.150296
31   0.131963
32   0.13211
33   0.113471
34   0.118437
35   0.166701
36   0.123099
37   0.118748
38   0.115777
39   0.130153
40   0.135491
41   0.132353
42   0.289679
43   0.301712

>  <lowdin_charges>
43
1   -0.448462
2   -0.446328
3   -0.449396
4   -0.273714
5   -0.271248
6   -0.27222
7   -0.282521
8   -0.284729
9   -0.283559
10   -0.279714
11   -0.29489
12   -0.287395
13   0.059691
14   -0.546147
15   0.149218
16   0.147049
17   0.144024
18   0.149265
19   0.146346
20   0.14679
21   0.146316
22   0.143435
23   0.148165
24   0.141014
25   0.136977
26   0.140856
27   0.138901
28   0.141367
29   0.134955
30   0.149723
31   0.144406
32   0.138186
33   0.133905
34   0.137422
35   0.158692
36   0.139485
37   0.135857
38   0.135589
39   0.14276
40   0.142038
41   0.143877
42   0.252189
43   0.251828

$$$$

