PCCDB-ID:  69816
public computational chemistry database (PCCDB) project, http://pccdb.org

 11 10  0  0  0  0  0  0  0  0999 V2000
    1.6217   -0.0939    1.0607 C   0  0  0  0  0  0  0  0  0  0  0  0
    2.3787   -0.0571   -0.0372 C   0  0  0  0  0  0  0  0  0  0  0  0
    3.0868    1.1718   -0.5151 C   0  0  0  0  0  0  0  0  0  0  0  0
    5.5266    2.1561   -1.2837 C   0  0  0  0  0  0  0  0  0  0  0  0
    5.9606    2.9948   -1.9689 N   0  0  0  0  0  0  0  0  0  0  0  0
    4.9314    0.9208   -0.2766 S   0  0  0  0  0  0  0  0  0  0  0  0
    1.1118   -1.0021    1.3687 H   0  0  0  0  0  0  0  0  0  0  0  0
    1.4772    0.7836    1.6871 H   0  0  0  0  0  0  0  0  0  0  0  0
    2.5118   -0.9538   -0.6405 H   0  0  0  0  0  0  0  0  0  0  0  0
    2.7901    2.0598    0.0467 H   0  0  0  0  0  0  0  0  0  0  0  0
    2.9311    1.3452   -1.5830 H   0  0  0  0  0  0  0  0  0  0  0  0
  1  7  1  0  0  0  0
  1  8  1  0  0  0  0
  2  1  2  0  0  0  0
  3  6  1  0  0  0  0
  3  2  1  0  0  0  0
  3 10  1  0  0  0  0
  4  6  1  0  0  0  0
  5  4  3  0  0  0  0
  9  2  1  0  0  0  0
 11  3  1  0  0  0  0
M  END
>  <HBA>
2

>  <HBD>
0

>  <TPSA>
49.09

>  <cid>
69816

>  <dipole>
4.54

>  <excitation_energy_1>
4.763

>  <excitation_energy_2>
5.519

>  <excitation_energy_3>
6.014

>  <excitation_energy_4>
6.512

>  <homo_energy>
-7.178

>  <homo_lumo_gap>
6.087

>  <logP>
1.387

>  <lumo_energy>
-1.091

>  <melting_point>
-2.96

>  <molecular_refractivity>
28.21

>  <oscillator_strength_1>
0.0021

>  <oscillator_strength_2>
0.0056

>  <oscillator_strength_3>
0.1474

>  <oscillator_strength_4>
0.007

>  <open_babel_can_smiles>
C=CCSC#N

>  <mulliken_charges>
11
1   -0.315029
2   -0.064708
3   -0.467203
4   0.112931
5   -0.381652
6   0.224581
7   0.161228
8   0.155273
9   0.158361
10   0.203479
11   0.212738

>  <lowdin_charges>
11
1   -0.306626
2   -0.161561
3   -0.345332
4   -0.17024
5   -0.120553
6   0.243983
7   0.170495
8   0.1646
9   0.166601
10   0.176549
11   0.182086

$$$$

