PCCDB-ID:  17243
public computational chemistry database (PCCDB) project, http://pccdb.org

 24 23  0  0  0  0  0  0  0  0999 V2000
    0.7659   -0.0488    1.6260 C   0  0  0  0  0  0  0  0  0  0  0  0
    8.5008   -1.2951    4.6959 C   0  0  0  0  0  0  0  0  0  0  0  0
    2.2835    0.1472    1.5602 C   0  0  0  0  0  0  0  0  0  0  0  0
    3.0211   -1.0816    0.9934 C   0  0  0  0  0  0  0  0  0  0  0  0
    4.5052   -0.8721    0.8783 C   0  0  0  0  0  0  0  0  0  0  0  0
    5.4405   -1.5999    1.4947 C   0  0  0  0  0  0  0  0  0  0  0  0
    6.9119   -1.3653    1.3382 C   0  0  0  0  0  0  0  0  0  0  0  0
    7.8513   -1.8908    3.4676 C   0  0  0  0  0  0  0  0  0  0  0  0
    7.6385   -3.0713    3.2897 O   0  0  0  0  0  0  0  0  0  0  0  0
    7.5321   -0.9221    2.5798 O   0  0  0  0  0  0  0  0  0  0  0  0
    0.2674    0.8377    2.0339 H   0  0  0  0  0  0  0  0  0  0  0  0
    0.5031   -0.9017    2.2637 H   0  0  0  0  0  0  0  0  0  0  0  0
    0.3468   -0.2392    0.6303 H   0  0  0  0  0  0  0  0  0  0  0  0
    8.7768   -2.0939    5.3850 H   0  0  0  0  0  0  0  0  0  0  0  0
    7.8078   -0.6035    5.1866 H   0  0  0  0  0  0  0  0  0  0  0  0
    9.3884   -0.7199    4.4136 H   0  0  0  0  0  0  0  0  0  0  0  0
    2.6756    0.3675    2.5616 H   0  0  0  0  0  0  0  0  0  0  0  0
    2.5147    1.0249    0.9405 H   0  0  0  0  0  0  0  0  0  0  0  0
    2.6071   -1.3080   -0.0017 H   0  0  0  0  0  0  0  0  0  0  0  0
    2.8169   -1.9582    1.6221 H   0  0  0  0  0  0  0  0  0  0  0  0
    4.8202   -0.0435    0.2390 H   0  0  0  0  0  0  0  0  0  0  0  0
    5.1565   -2.4283    2.1421 H   0  0  0  0  0  0  0  0  0  0  0  0
    7.1128   -0.5563    0.6321 H   0  0  0  0  0  0  0  0  0  0  0  0
    7.4256   -2.2748    1.0122 H   0  0  0  0  0  0  0  0  0  0  0  0
  1 11  1  0  0  0  0
  1 12  1  0  0  0  0
  2 15  1  0  0  0  0
  2 14  1  0  0  0  0
  3  1  1  0  0  0  0
  3 17  1  0  0  0  0
  4  3  1  0  0  0  0
  4 20  1  0  0  0  0
  5  4  1  0  0  0  0
  5  6  2  0  0  0  0
  6 22  1  0  0  0  0
  7  6  1  0  0  0  0
  7 10  1  0  0  0  0
  8  2  1  0  0  0  0
  9  8  2  0  0  0  0
 10  8  1  0  0  0  0
 13  1  1  0  0  0  0
 16  2  1  0  0  0  0
 18  3  1  0  0  0  0
 19  4  1  0  0  0  0
 21  5  1  0  0  0  0
 23  7  1  0  0  0  0
 24  7  1  0  0  0  0
M  END
>  <HBA>
2

>  <HBD>
0

>  <TPSA>
26.3

>  <cid>
17243

>  <dipole>
2.0

>  <excitation_energy_1>
5.791

>  <excitation_energy_2>
6.358

>  <excitation_energy_3>
6.579

>  <excitation_energy_4>
6.599

>  <homo_energy>
-6.841

>  <homo_lumo_gap>
7.124

>  <logP>
1.906

>  <lumo_energy>
0.283

>  <melting_point>
-5.66

>  <molecular_refractivity>
41.38

>  <oscillator_strength_1>
0.0009

>  <oscillator_strength_2>
0.0111

>  <oscillator_strength_3>
0.1217

>  <oscillator_strength_4>
0.1282

>  <open_babel_can_smiles>
CCC/C=C/COC(=O)C

>  <mulliken_charges>
24
1   -0.44233
2   -0.522367
3   -0.248986
4   -0.297704
5   -0.085598
6   -0.114948
7   -0.097484
8   0.600397
9   -0.4729
10   -0.447719
11   0.14536
12   0.144634
13   0.142718
14   0.181185
15   0.181945
16   0.180311
17   0.142084
18   0.133171
19   0.141955
20   0.141615
21   0.121459
22   0.14853
23   0.153029
24   0.171644

>  <lowdin_charges>
24
1   -0.445509
2   -0.466978
3   -0.270387
4   -0.271274
5   -0.147937
6   -0.186062
7   -0.128296
8   0.196427
9   -0.270176
10   -0.198432
11   0.152056
12   0.148636
13   0.146567
14   0.17573
15   0.17916
16   0.177279
17   0.144188
18   0.140721
19   0.148274
20   0.148036
21   0.147192
22   0.162304
23   0.156008
24   0.162473

$$$$

