PCCDB-ID:  18915
public computational chemistry database (PCCDB) project, http://pccdb.org

 34 33  0  0  0  0  0  0  0  0999 V2000
    3.1368    3.5180    2.3716 C   0  0  0  0  0  0  0  0  0  0  0  0
    3.9470    3.4872    1.0840 C   0  0  0  0  0  0  0  0  0  0  0  0
    5.2088   -3.7431   -0.3961 C   0  0  0  0  0  0  0  0  0  0  0  0
    6.2634   -4.8584   -0.4147 C   0  0  0  0  0  0  0  0  0  0  0  0
    5.7723   -2.3915    0.0630 C   0  0  0  0  0  0  0  0  0  0  0  0
    5.7209   -6.2526   -0.7752 C   0  0  0  0  0  0  0  0  0  0  0  0
    4.7230   -1.2735    0.0795 C   0  0  0  0  0  0  0  0  0  0  0  0
    5.2002   -6.3968   -2.2105 C   0  0  0  0  0  0  0  0  0  0  0  0
    5.2888    0.0611    0.5681 C   0  0  0  0  0  0  0  0  0  0  0  0
    6.2689   -6.3859   -3.2811 C   0  0  0  0  0  0  0  0  0  0  0  0
    4.2656    1.1810    0.5661 C   0  0  0  0  0  0  0  0  0  0  0  0
    7.4633   -6.3649   -3.0765 O   0  0  0  0  0  0  0  0  0  0  0  0
    3.1147    1.0813    0.1964 O   0  0  0  0  0  0  0  0  0  0  0  0
    4.8132    2.3287    1.0318 O   0  0  0  0  0  0  0  0  0  0  0  0
    2.5518    4.4436    2.4222 H   0  0  0  0  0  0  0  0  0  0  0  0
    3.7943    3.4788    3.2464 H   0  0  0  0  0  0  0  0  0  0  0  0
    2.4448    2.6720    2.4099 H   0  0  0  0  0  0  0  0  0  0  0  0
    4.6294    4.3386    1.0202 H   0  0  0  0  0  0  0  0  0  0  0  0
    3.2943    3.4791    0.2075 H   0  0  0  0  0  0  0  0  0  0  0  0
    4.3797   -4.0341    0.2665 H   0  0  0  0  0  0  0  0  0  0  0  0
    4.7683   -3.6186   -1.3957 H   0  0  0  0  0  0  0  0  0  0  0  0
    6.7255   -4.9208    0.5805 H   0  0  0  0  0  0  0  0  0  0  0  0
    7.0718   -4.5961   -1.1083 H   0  0  0  0  0  0  0  0  0  0  0  0
    6.6043   -2.1040   -0.5970 H   0  0  0  0  0  0  0  0  0  0  0  0
    6.2084   -2.5032    1.0669 H   0  0  0  0  0  0  0  0  0  0  0  0
    4.9099   -6.5155   -0.0828 H   0  0  0  0  0  0  0  0  0  0  0  0
    6.5163   -6.9918   -0.6249 H   0  0  0  0  0  0  0  0  0  0  0  0
    3.8788   -1.5625    0.7183 H   0  0  0  0  0  0  0  0  0  0  0  0
    4.3035   -1.1393   -0.9253 H   0  0  0  0  0  0  0  0  0  0  0  0
    4.4613   -5.6236   -2.4677 H   0  0  0  0  0  0  0  0  0  0  0  0
    4.6569   -7.3480   -2.3341 H   0  0  0  0  0  0  0  0  0  0  0  0
    6.1373    0.3824   -0.0515 H   0  0  0  0  0  0  0  0  0  0  0  0
    5.6906   -0.0257    1.5866 H   0  0  0  0  0  0  0  0  0  0  0  0
    5.8785   -6.4183   -4.3249 H   0  0  0  0  0  0  0  0  0  0  0  0
  1 17  1  0  0  0  0
  1 15  1  0  0  0  0
  1 16  1  0  0  0  0
  2  1  1  0  0  0  0
  3  5  1  0  0  0  0
  3 20  1  0  0  0  0
  4  3  1  0  0  0  0
  4 22  1  0  0  0  0
  5  7  1  0  0  0  0
  5 25  1  0  0  0  0
  6 27  1  0  0  0  0
  6  4  1  0  0  0  0
  6 26  1  0  0  0  0
  7  9  1  0  0  0  0
  7 28  1  0  0  0  0
  8  6  1  0  0  0  0
  9 33  1  0  0  0  0
 10 12  2  0  0  0  0
 10  8  1  0  0  0  0
 11  9  1  0  0  0  0
 11 14  1  0  0  0  0
 13 11  2  0  0  0  0
 14  2  1  0  0  0  0
 18  2  1  0  0  0  0
 19  2  1  0  0  0  0
 21  3  1  0  0  0  0
 23  4  1  0  0  0  0
 24  5  1  0  0  0  0
 29  7  1  0  0  0  0
 30  8  1  0  0  0  0
 31  8  1  0  0  0  0
 32  9  1  0  0  0  0
 34 10  1  0  0  0  0
M  END
>  <HBA>
3

>  <HBD>
0

>  <TPSA>
43.37

>  <cid>
18915

>  <dipole>
1.53

>  <excitation_energy_1>
4.307

>  <excitation_energy_2>
5.841

>  <excitation_energy_3>
6.327

>  <excitation_energy_4>
6.376

>  <homo_energy>
-6.876

>  <homo_lumo_gap>
6.324

>  <logP>
2.479

>  <lumo_energy>
-0.552

>  <melting_point>
14.28

>  <molecular_refractivity>
56.48

>  <oscillator_strength_1>
0.0001

>  <oscillator_strength_2>
0.0005

>  <oscillator_strength_3>
0.0001

>  <oscillator_strength_4>
0.0201

>  <open_babel_can_smiles>
O=CCCCCCCCC(=O)OCC

>  <mulliken_charges>
34
1   -0.461761
2   -0.042864
3   -0.25616
4   -0.262603
5   -0.257549
6   -0.255107
7   -0.249024
8   -0.351389
9   -0.363043
10   0.254944
11   0.6248
12   -0.383464
13   -0.482329
14   -0.464911
15   0.14955
16   0.156094
17   0.175706
18   0.151324
19   0.168706
20   0.127913
21   0.127098
22   0.130717
23   0.154277
24   0.131108
25   0.128279
26   0.131129
27   0.152706
28   0.146124
29   0.148076
30   0.1634
31   0.164753
32   0.170451
33   0.169111
34   0.103936

>  <lowdin_charges>
34
1   -0.456033
2   -0.129347
3   -0.276876
4   -0.278824
5   -0.274273
6   -0.275428
7   -0.270568
8   -0.31671
9   -0.30014
10   0.055722
11   0.196498
12   -0.221496
13   -0.269403
14   -0.199649
15   0.158426
16   0.15581
17   0.165453
18   0.152238
19   0.158094
20   0.138225
21   0.135418
22   0.142549
23   0.15158
24   0.140198
25   0.137247
26   0.144459
27   0.156174
28   0.149722
29   0.149383
30   0.163743
31   0.168576
32   0.168422
33   0.16607
34   0.11474

$$$$

