PCCDB-ID:  10934
public computational chemistry database (PCCDB) project, http://pccdb.org

 14 14  0  0  0  0  0  0  0  0999 V2000
    1.0521    0.0173    0.0453 C   0  0  0  0  0  0  0  0  0  0  0  0
    5.7171   -1.6582    0.0686 C   0  0  0  0  0  0  0  0  0  0  0  0
    3.2217    1.3690    0.0528 C   0  0  0  0  0  0  0  0  0  0  0  0
    2.5434    0.1838    0.0515 C   0  0  0  0  0  0  0  0  0  0  0  0
    4.6100   -0.6477    0.0622 C   0  0  0  0  0  0  0  0  0  0  0  0
    3.3447   -0.9462    0.0570 N   0  0  0  0  0  0  0  0  0  0  0  0
    4.9358    1.0877    0.0611 S   0  0  0  0  0  0  0  0  0  0  0  0
    0.5448    0.9865    0.0395 H   0  0  0  0  0  0  0  0  0  0  0  0
    0.7200   -0.5418    0.9279 H   0  0  0  0  0  0  0  0  0  0  0  0
    0.7281   -0.5484   -0.8361 H   0  0  0  0  0  0  0  0  0  0  0  0
    5.2747   -2.6570    0.0757 H   0  0  0  0  0  0  0  0  0  0  0  0
    6.3573   -1.5500    0.9518 H   0  0  0  0  0  0  0  0  0  0  0  0
    6.3559   -1.5624   -0.8172 H   0  0  0  0  0  0  0  0  0  0  0  0
    2.8179    2.3722    0.0493 H   0  0  0  0  0  0  0  0  0  0  0  0
  1  4  1  0  0  0  0
  1  9  1  0  0  0  0
  2 11  1  0  0  0  0
  2 12  1  0  0  0  0
  3  7  1  0  0  0  0
  4  3  2  0  0  0  0
  4  6  1  0  0  0  0
  5  2  1  0  0  0  0
  6  5  2  0  0  0  0
  7  5  1  0  0  0  0
  8  1  1  0  0  0  0
 10  1  1  0  0  0  0
 13  2  1  0  0  0  0
 14  3  1  0  0  0  0
M  END
>  <HBA>
2

>  <HBD>
0

>  <TPSA>
41.13

>  <cid>
10934

>  <dipole>
0.6

>  <excitation_energy_1>
5.249

>  <excitation_energy_2>
5.34

>  <excitation_energy_3>
5.397

>  <excitation_energy_4>
5.785

>  <homo_energy>
-6.24

>  <homo_lumo_gap>
5.807

>  <logP>
1.76

>  <lumo_energy>
-0.433

>  <melting_point>
26.73

>  <molecular_refractivity>
32.05

>  <oscillator_strength_1>
0.0904

>  <oscillator_strength_2>
0.0002

>  <oscillator_strength_3>
0.0002

>  <oscillator_strength_4>
0.0

>  <open_babel_can_smiles>
Cc1scc(n1)C

>  <mulliken_charges>
14
1   -0.50486
2   -0.508253
3   -0.387541
4   0.315558
5   0.10745
6   -0.430222
7   0.210498
8   0.150707
9   0.169466
10   0.169474
11   0.189261
12   0.174156
13   0.174366
14   0.16994

>  <lowdin_charges>
14
1   -0.437803
2   -0.442453
3   -0.351026
4   0.020389
5   -0.078377
6   -0.173615
7   0.270555
8   0.157312
9   0.16698
10   0.166993
11   0.178779
12   0.169646
13   0.169709
14   0.18291

$$$$

