PCCDB-ID:  35877
public computational chemistry database (PCCDB) project, http://pccdb.org

 42 41  0  0  0  0  0  0  0  0999 V2000
    3.9269   -3.4239   -3.3495 C   0  0  0  0  0  0  0  0  0  0  0  0
    3.3225   -1.8343   -1.4668 C   0  0  0  0  0  0  0  0  0  0  0  0
    6.3751    0.5750    4.4500 C   0  0  0  0  0  0  0  0  0  0  0  0
    8.5246    1.9005    4.2042 C   0  0  0  0  0  0  0  0  0  0  0  0
    8.3735   -1.6993   -0.7310 C   0  0  0  0  0  0  0  0  0  0  0  0
    7.9304   -1.2154    0.6600 C   0  0  0  0  0  0  0  0  0  0  0  0
    7.6418   -2.9579   -1.2513 C   0  0  0  0  0  0  0  0  0  0  0  0
    8.3313   -2.1587    1.8012 C   0  0  0  0  0  0  0  0  0  0  0  0
    5.7100   -1.8898   -2.3682 C   0  0  0  0  0  0  0  0  0  0  0  0
    8.5104   -0.5755    3.7111 C   0  0  0  0  0  0  0  0  0  0  0  0
    4.2136   -2.0641   -2.6979 C   0  0  0  0  0  0  0  0  0  0  0  0
    7.6880    0.7286    3.6731 C   0  0  0  0  0  0  0  0  0  0  0  0
    6.1891   -2.8772   -1.4017 N   0  0  0  0  0  0  0  0  0  0  0  0
    7.8261   -1.7279    3.1065 N   0  0  0  0  0  0  0  0  0  0  0  0
    2.8613   -3.5315   -3.5850 H   0  0  0  0  0  0  0  0  0  0  0  0
    4.2193   -4.2393   -2.6807 H   0  0  0  0  0  0  0  0  0  0  0  0
    4.4903   -3.5405   -4.2834 H   0  0  0  0  0  0  0  0  0  0  0  0
    2.2621   -1.8462   -1.7444 H   0  0  0  0  0  0  0  0  0  0  0  0
    3.5315   -0.8670   -0.9922 H   0  0  0  0  0  0  0  0  0  0  0  0
    3.4668   -2.6205   -0.7151 H   0  0  0  0  0  0  0  0  0  0  0  0
    5.7505    1.4716    4.3580 H   0  0  0  0  0  0  0  0  0  0  0  0
    6.5704    0.4152    5.5197 H   0  0  0  0  0  0  0  0  0  0  0  0
    5.8088   -0.2834    4.0763 H   0  0  0  0  0  0  0  0  0  0  0  0
    7.9612    2.8398    4.1640 H   0  0  0  0  0  0  0  0  0  0  0  0
    9.4447    2.0365    3.6222 H   0  0  0  0  0  0  0  0  0  0  0  0
    8.8147    1.7352    5.2506 H   0  0  0  0  0  0  0  0  0  0  0  0
    9.4528   -1.9115   -0.7171 H   0  0  0  0  0  0  0  0  0  0  0  0
    8.2368   -0.8819   -1.4506 H   0  0  0  0  0  0  0  0  0  0  0  0
    6.8416   -1.0743    0.6894 H   0  0  0  0  0  0  0  0  0  0  0  0
    8.3684   -0.2258    0.8417 H   0  0  0  0  0  0  0  0  0  0  0  0
    7.8538   -3.8099   -0.5921 H   0  0  0  0  0  0  0  0  0  0  0  0
    8.0581   -3.2223   -2.2327 H   0  0  0  0  0  0  0  0  0  0  0  0
    9.4344   -2.2698    1.7925 H   0  0  0  0  0  0  0  0  0  0  0  0
    7.9155   -3.1562    1.6129 H   0  0  0  0  0  0  0  0  0  0  0  0
    5.8789   -0.8436   -2.0498 H   0  0  0  0  0  0  0  0  0  0  0  0
    6.2925   -2.0303   -3.2893 H   0  0  0  0  0  0  0  0  0  0  0  0
    8.7273   -0.8061    4.7643 H   0  0  0  0  0  0  0  0  0  0  0  0
    9.4881   -0.4039    3.2277 H   0  0  0  0  0  0  0  0  0  0  0  0
    3.9744   -1.2761   -3.4281 H   0  0  0  0  0  0  0  0  0  0  0  0
    7.4364    0.9341    2.6231 H   0  0  0  0  0  0  0  0  0  0  0  0
    5.7591   -2.7081   -0.4949 H   0  0  0  0  0  0  0  0  0  0  0  0
    7.8702   -2.5167    3.7436 H   0  0  0  0  0  0  0  0  0  0  0  0
  1 11  1  0  0  0  0
  1 16  1  0  0  0  0
  2 19  1  0  0  0  0
  2 20  1  0  0  0  0
  3 22  1  0  0  0  0
  4 26  1  0  0  0  0
  5 27  1  0  0  0  0
  5  6  1  0  0  0  0
  6 29  1  0  0  0  0
  6 30  1  0  0  0  0
  6  8  1  0  0  0  0
  7  5  1  0  0  0  0
  7 31  1  0  0  0  0
  8 14  1  0  0  0  0
  9 35  1  0  0  0  0
  9 13  1  0  0  0  0
 10 37  1  0  0  0  0
 11  9  1  0  0  0  0
 11  2  1  0  0  0  0
 12 10  1  0  0  0  0
 12  4  1  0  0  0  0
 12  3  1  0  0  0  0
 13  7  1  0  0  0  0
 13 41  1  0  0  0  0
 14 10  1  0  0  0  0
 14 42  1  0  0  0  0
 15  1  1  0  0  0  0
 17  1  1  0  0  0  0
 18  2  1  0  0  0  0
 21  3  1  0  0  0  0
 23  3  1  0  0  0  0
 24  4  1  0  0  0  0
 25  4  1  0  0  0  0
 28  5  1  0  0  0  0
 32  7  1  0  0  0  0
 33  8  1  0  0  0  0
 34  8  1  0  0  0  0
 36  9  1  0  0  0  0
 38 10  1  0  0  0  0
 39 11  1  0  0  0  0
 40 12  1  0  0  0  0
M  END
>  <HBA>
2

>  <HBD>
2

>  <TPSA>
24.06

>  <cid>
35877

>  <dipole>
1.26

>  <excitation_energy_1>
5.166

>  <excitation_energy_2>
5.225

>  <excitation_energy_3>
5.361

>  <excitation_energy_4>
5.502

>  <homo_energy>
-5.693

>  <homo_lumo_gap>
7.54

>  <logP>
3.04

>  <lumo_energy>
1.848

>  <melting_point>
23.81

>  <molecular_refractivity>
65.4

>  <oscillator_strength_1>
0.0089

>  <oscillator_strength_2>
0.0015

>  <oscillator_strength_3>
0.0079

>  <oscillator_strength_4>
0.0038

>  <open_babel_can_smiles>
CC(CNCCCCNCC(C)C)C

>  <mulliken_charges>
42
1   -0.436086
2   -0.455511
3   -0.443696
4   -0.447577
5   -0.271828
6   -0.256409
7   -0.138456
8   -0.130806
9   -0.122106
10   -0.136517
11   -0.067969
12   -0.051985
13   -0.550629
14   -0.552047
15   0.131774
16   0.161012
17   0.132504
18   0.143672
19   0.137699
20   0.143756
21   0.134191
22   0.126784
23   0.159983
24   0.142116
25   0.136824
26   0.136047
27   0.125759
28   0.136453
29   0.133877
30   0.138195
31   0.135849
32   0.136858
33   0.11055
34   0.131183
35   0.111333
36   0.130122
37   0.122039
38   0.119645
39   0.117821
40   0.127109
41   0.300653
42   0.297814

>  <lowdin_charges>
42
1   -0.44564
2   -0.448999
3   -0.4482
4   -0.445215
5   -0.296548
6   -0.285827
7   -0.208101
8   -0.199977
9   -0.20364
10   -0.204542
11   -0.124794
12   -0.127471
13   -0.363889
14   -0.365848
15   0.142338
16   0.157241
17   0.144824
18   0.148996
19   0.145581
20   0.146944
21   0.145532
22   0.137821
23   0.157906
24   0.149663
25   0.145443
26   0.14262
27   0.140017
28   0.145221
29   0.138627
30   0.144396
31   0.140628
32   0.142524
33   0.112988
34   0.138846
35   0.115192
36   0.139884
37   0.134888
38   0.126908
39   0.137195
40   0.136686
41   0.251753
42   0.258031

$$$$

