PCCDB-ID:  11910
public computational chemistry database (PCCDB) project, http://pccdb.org

 20 21  0  0  0  0  0  0  0  0999 V2000
    1.0261   -0.0070    0.0035 C   0  0  0  0  0  0  0  0  0  0  0  0
    4.6350   -1.3085    0.0065 C   0  0  0  0  0  0  0  0  0  0  0  0
    4.7082    3.5214   -0.0512 C   0  0  0  0  0  0  0  0  0  0  0  0
    3.2195   -1.2570    0.0112 C   0  0  0  0  0  0  0  0  0  0  0  0
    5.3743   -0.1497   -0.0092 C   0  0  0  0  0  0  0  0  0  0  0  0
    5.4145    2.3421   -0.0380 C   0  0  0  0  0  0  0  0  0  0  0  0
    3.2932    3.4606   -0.0468 C   0  0  0  0  0  0  0  0  0  0  0  0
    2.5313   -0.0594   -0.0011 C   0  0  0  0  0  0  0  0  0  0  0  0
    4.7164    1.1081   -0.0220 C   0  0  0  0  0  0  0  0  0  0  0  0
    3.2850    1.1582   -0.0179 C   0  0  0  0  0  0  0  0  0  0  0  0
    2.6003    2.3393   -0.0307 N   0  0  0  0  0  0  0  0  0  0  0  0
    0.6004   -1.0153    0.0104 H   0  0  0  0  0  0  0  0  0  0  0  0
    0.6465    0.5281   -0.8738 H   0  0  0  0  0  0  0  0  0  0  0  0
    0.6521    0.5371    0.8778 H   0  0  0  0  0  0  0  0  0  0  0  0
    5.1327   -2.2745    0.0158 H   0  0  0  0  0  0  0  0  0  0  0  0
    5.2102    4.4843   -0.0628 H   0  0  0  0  0  0  0  0  0  0  0  0
    2.6588   -2.1887    0.0243 H   0  0  0  0  0  0  0  0  0  0  0  0
    6.4614   -0.1793   -0.0133 H   0  0  0  0  0  0  0  0  0  0  0  0
    6.5024    2.3376   -0.0406 H   0  0  0  0  0  0  0  0  0  0  0  0
    2.7151    4.3846   -0.0573 H   0  0  0  0  0  0  0  0  0  0  0  0
  1 12  1  0  0  0  0
  1 14  1  0  0  0  0
  2  4  1  0  0  0  0
  2 15  1  0  0  0  0
  3  7  2  0  0  0  0
  3  6  1  0  0  0  0
  4 17  1  0  0  0  0
  5  2  2  0  0  0  0
  6  9  2  0  0  0  0
  7 11  1  0  0  0  0
  8  1  1  0  0  0  0
  8  4  2  0  0  0  0
  9 10  1  0  0  0  0
  9  5  1  0  0  0  0
 10  8  1  0  0  0  0
 11 10  2  0  0  0  0
 13  1  1  0  0  0  0
 16  3  1  0  0  0  0
 18  5  1  0  0  0  0
 19  6  1  0  0  0  0
 20  7  1  0  0  0  0
M  END
>  <HBA>
1

>  <HBD>
0

>  <TPSA>
12.89

>  <cid>
11910

>  <dipole>
1.6

>  <excitation_energy_1>
4.196

>  <excitation_energy_2>
4.267

>  <excitation_energy_3>
4.463

>  <excitation_energy_4>
5.197

>  <homo_energy>
-6.082

>  <homo_lumo_gap>
4.765

>  <logP>
2.543

>  <lumo_energy>
-1.317

>  <melting_point>
67.99

>  <molecular_refractivity>
46.71

>  <oscillator_strength_1>
0.0568

>  <oscillator_strength_2>
0.0014

>  <oscillator_strength_3>
0.0117

>  <oscillator_strength_4>
0.0

>  <open_babel_can_smiles>
Cc1cccc2c1nccc2

>  <mulliken_charges>
20
1   -0.508183
2   -0.123632
3   -0.15184
4   -0.205425
5   -0.202676
6   -0.15281
7   0.043137
8   0.168424
9   0.172636
10   0.172532
11   -0.499384
12   0.141851
13   0.171088
14   0.170793
15   0.131747
16   0.136611
17   0.125951
18   0.129759
19   0.140659
20   0.13876

>  <lowdin_charges>
20
1   -0.43693
2   -0.153457
3   -0.182711
4   -0.166892
5   -0.161496
6   -0.124338
7   -0.085597
8   0.005419
9   -0.014055
10   0.033196
11   -0.152227
12   0.15024
13   0.168796
14   0.168643
15   0.159499
16   0.163977
17   0.157355
18   0.155445
19   0.159807
20   0.155325

$$$$

