PCCDB-ID:  878
public computational chemistry database (PCCDB) project, http://pccdb.org

  6  5  0  0  0  0  0  0  0  0999 V2000
    1.0969   -0.0095   -0.0879 C   0  0  0  0  0  0  0  0  0  0  0  0
    2.9310   -0.0701   -0.0320 S   0  0  0  0  0  0  0  0  0  0  0  0
    0.7194   -0.2509   -1.0841 H   0  0  0  0  0  0  0  0  0  0  0  0
    0.7194    0.9642    0.2324 H   0  0  0  0  0  0  0  0  0  0  0  0
    0.7451   -0.7695    0.6136 H   0  0  0  0  0  0  0  0  0  0  0  0
    3.1544    0.9092   -0.9351 H   0  0  0  0  0  0  0  0  0  0  0  0
  1  2  1  0  0  0  0
  1  4  1  0  0  0  0
  1  5  1  0  0  0  0
  3  1  1  0  0  0  0
  6  2  1  0  0  0  0
M  END
>  <HBA>
1

>  <HBD>
1

>  <TPSA>
38.8

>  <cid>
878

>  <dipole>
1.74

>  <excitation_energy_1>
5.164

>  <excitation_energy_2>
5.776

>  <excitation_energy_3>
6.731

>  <excitation_energy_4>
7.053

>  <homo_energy>
-6.433

>  <homo_lumo_gap>
7.189

>  <logP>
0.546

>  <lumo_energy>
0.756

>  <melting_point>
-2.98

>  <molecular_refractivity>
14.85

>  <oscillator_strength_1>
0.0076

>  <oscillator_strength_2>
0.0366

>  <oscillator_strength_3>
0.0122

>  <oscillator_strength_4>
0.0087

>  <open_babel_can_smiles>
CS

>  <mulliken_charges>
6
1   -0.57735
2   -0.079648
3   0.18581
4   0.185804
5   0.190083
6   0.095302

>  <lowdin_charges>
6
1   -0.542452
2   -0.081604
3   0.165989
4   0.166258
5   0.17802
6   0.113788

$$$$

