PCCDB-ID:  61935
public computational chemistry database (PCCDB) project, http://pccdb.org

 26 27  0  0  1  0  0  0  0  0999 V2000
    5.9531   -2.7473   -2.7653 C   0  0  0  0  0  0  0  0  0  0  0  0
    5.4170   -3.8226   -0.4971 C   0  0  0  0  0  0  0  0  0  0  0  0
    5.6493   -3.7065    1.0192 C   0  0  0  0  0  0  0  0  0  0  0  0
    5.1507   -2.1208    3.0436 C   0  0  0  0  0  0  0  0  0  0  0  0
    6.4367   -1.5313    3.6348 C   0  0  0  0  0  0  0  0  0  0  0  0
    6.1187   -1.4279   -0.6506 C   0  0  0  0  0  0  0  0  0  0  0  0
    6.6794   -0.2735    1.4500 C   0  0  0  0  0  0  0  0  0  0  0  0
    5.8415   -2.5930   -1.2740 C   0  0  0  0  0  0  0  0  0  0  0  0
    5.2002   -2.3164    1.5131 C   0  0  1  0  0  0  0  0  0  0  0  0
    6.0321   -1.2700    0.7963 C   0  0  0  0  0  0  0  0  0  0  0  0
    6.8523   -0.2544    2.9103 C   0  0  0  0  0  0  0  0  0  0  0  0
    7.3827    0.6829    3.4936 O   0  0  0  0  0  0  0  0  0  0  0  0
    6.7019   -3.5070   -3.0298 H   0  0  0  0  0  0  0  0  0  0  0  0
    6.2301   -1.8083   -3.2541 H   0  0  0  0  0  0  0  0  0  0  0  0
    5.0010   -3.0884   -3.1961 H   0  0  0  0  0  0  0  0  0  0  0  0
    4.3479   -4.0074   -0.6934 H   0  0  0  0  0  0  0  0  0  0  0  0
    5.9404   -4.7020   -0.8976 H   0  0  0  0  0  0  0  0  0  0  0  0
    6.7123   -3.8590    1.2484 H   0  0  0  0  0  0  0  0  0  0  0  0
    5.0905   -4.4919    1.5422 H   0  0  0  0  0  0  0  0  0  0  0  0
    4.9058   -3.0728    3.5306 H   0  0  0  0  0  0  0  0  0  0  0  0
    4.3255   -1.4356    3.2760 H   0  0  0  0  0  0  0  0  0  0  0  0
    7.2686   -2.2450    3.5390 H   0  0  0  0  0  0  0  0  0  0  0  0
    6.3275   -1.3089    4.7004 H   0  0  0  0  0  0  0  0  0  0  0  0
    6.4819   -0.5793   -1.2288 H   0  0  0  0  0  0  0  0  0  0  0  0
    7.2005    0.5076    0.8998 H   0  0  0  0  0  0  0  0  0  0  0  0
    4.1714   -2.1888    1.1402 H   0  0  0  0  0  0  0  0  0  0  0  0
  1  8  1  0  0  0  0
  2  3  1  0  0  0  0
  3 18  1  0  0  0  0
  3  9  1  0  0  0  0
  3 19  1  0  0  0  0
  4 21  1  0  0  0  0
  4 20  1  0  0  0  0
  4  5  1  0  0  0  0
  5 23  1  0  0  0  0
  6 10  1  0  0  0  0
  7 11  1  0  0  0  0
  8  6  2  0  0  0  0
  8  2  1  0  0  0  0
  9 26  1  6  0  0  0
  9  4  1  0  0  0  0
 10  7  2  0  0  0  0
 10  9  1  0  0  0  0
 11 12  2  0  0  0  0
 11  5  1  0  0  0  0
 13  1  1  0  0  0  0
 14  1  1  0  0  0  0
 15  1  1  0  0  0  0
 16  2  1  0  0  0  0
 17  2  1  0  0  0  0
 22  5  1  0  0  0  0
 24  6  1  0  0  0  0
 25  7  1  0  0  0  0
M  END
>  <HBA>
1

>  <HBD>
0

>  <TPSA>
17.07

>  <cid>
61935

>  <dipole>
5.2

>  <excitation_energy_1>
3.405

>  <excitation_energy_2>
4.483

>  <excitation_energy_3>
5.436

>  <excitation_energy_4>
5.586

>  <homo_energy>
-6.112

>  <homo_lumo_gap>
4.593

>  <logP>
2.632

>  <lumo_energy>
-1.518

>  <melting_point>
63.08

>  <molecular_refractivity>
50.02

>  <oscillator_strength_1>
0.0009

>  <oscillator_strength_2>
0.61

>  <oscillator_strength_3>
0.0437

>  <oscillator_strength_4>
0.0158

>  <open_babel_can_smiles>
CC1=CC2=CC(=O)CC[C@@H]2CC1

>  <mulliken_charges>
26
1   -0.517174
2   -0.333688
3   -0.273632
4   -0.29097
5   -0.355164
6   -0.199626
7   -0.269798
8   0.165129
9   -0.163881
10   0.187495
11   0.443536
12   -0.485184
13   0.160999
14   0.161599
15   0.160109
16   0.152325
17   0.149035
18   0.147673
19   0.138375
20   0.139148
21   0.1492
22   0.159797
23   0.161535
24   0.128923
25   0.136639
26   0.147599

>  <lowdin_charges>
26
1   -0.440575
2   -0.277049
3   -0.273476
4   -0.277267
5   -0.304272
6   -0.192668
7   -0.221857
8   0.013617
9   -0.127937
10   0.030095
11   0.144246
12   -0.257092
13   0.160961
14   0.160437
15   0.16032
16   0.151929
17   0.154731
18   0.145534
19   0.14868
20   0.14887
21   0.151019
22   0.160968
23   0.162243
24   0.159195
25   0.166596
26   0.15275

$$$$

