PCCDB-ID:  24982
public computational chemistry database (PCCDB) project, http://pccdb.org

 46 45  0  0  1  0  0  0  0  0999 V2000
    0.6132   -2.2224   -4.8714 C   0  0  0  0  0  0  0  0  0  0  0  0
    2.4665   -3.5004   -6.0083 C   0  0  0  0  0  0  0  0  0  0  0  0
    6.6726   -4.5076    1.6194 C   0  0  0  0  0  0  0  0  0  0  0  0
    8.1349   -4.6215   -0.4373 C   0  0  0  0  0  0  0  0  0  0  0  0
    5.3540   -0.8192   -3.8918 C   0  0  0  0  0  0  0  0  0  0  0  0
    6.6252   -6.1903   -4.1994 C   0  0  0  0  0  0  0  0  0  0  0  0
    5.6483   -5.3313   -3.4082 C   0  0  0  0  0  0  0  0  0  0  0  0
    3.0137   -1.6473   -4.3351 C   0  0  0  0  0  0  0  0  0  0  0  0
    5.6564   -3.9398   -0.6194 C   0  0  0  0  0  0  0  0  0  0  0  0
    4.4160   -2.7454   -2.5125 C   0  0  0  0  0  0  0  0  0  0  0  0
    2.0375   -2.7795   -4.7209 C   0  0  0  0  0  0  0  0  0  0  0  0
    6.9453   -3.9135    0.2292 C   0  0  0  0  0  0  0  0  0  0  0  0
    4.4379   -2.0541   -3.8926 C   0  0  2  0  0  0  0  0  0  0  0  0
    5.7626   -3.3069   -2.0226 C   0  0  2  0  0  0  0  0  0  0  0  0
    7.7257   -6.5972   -3.4046 O   0  0  0  0  0  0  0  0  0  0  0  0
    6.3751   -4.1809   -2.9919 O   0  0  0  0  0  0  0  0  0  0  0  0
   -0.0990   -3.0146   -5.1308 H   0  0  0  0  0  0  0  0  0  0  0  0
    0.5704   -1.4651   -5.6656 H   0  0  0  0  0  0  0  0  0  0  0  0
    0.2681   -1.7503   -3.9438 H   0  0  0  0  0  0  0  0  0  0  0  0
    1.7664   -4.3055   -6.2613 H   0  0  0  0  0  0  0  0  0  0  0  0
    3.4639   -3.9458   -5.9225 H   0  0  0  0  0  0  0  0  0  0  0  0
    2.4883   -2.8014   -6.8551 H   0  0  0  0  0  0  0  0  0  0  0  0
    7.5603   -4.4405    2.2592 H   0  0  0  0  0  0  0  0  0  0  0  0
    6.3970   -5.5675    1.5448 H   0  0  0  0  0  0  0  0  0  0  0  0
    5.8526   -3.9848    2.1265 H   0  0  0  0  0  0  0  0  0  0  0  0
    9.0073   -4.6181    0.2273 H   0  0  0  0  0  0  0  0  0  0  0  0
    8.4240   -4.1276   -1.3705 H   0  0  0  0  0  0  0  0  0  0  0  0
    7.8947   -5.6666   -0.6699 H   0  0  0  0  0  0  0  0  0  0  0  0
    5.3563   -0.3366   -4.8761 H   0  0  0  0  0  0  0  0  0  0  0  0
    6.3908   -1.0771   -3.6530 H   0  0  0  0  0  0  0  0  0  0  0  0
    5.0132   -0.0747   -3.1596 H   0  0  0  0  0  0  0  0  0  0  0  0
    6.9585   -5.6320   -5.0894 H   0  0  0  0  0  0  0  0  0  0  0  0
    6.1230   -7.1017   -4.5413 H   0  0  0  0  0  0  0  0  0  0  0  0
    5.2773   -5.9058   -2.5484 H   0  0  0  0  0  0  0  0  0  0  0  0
    4.7872   -5.0586   -4.0366 H   0  0  0  0  0  0  0  0  0  0  0  0
    2.5630   -1.0492   -3.5281 H   0  0  0  0  0  0  0  0  0  0  0  0
    3.0957   -0.9694   -5.1985 H   0  0  0  0  0  0  0  0  0  0  0  0
    4.8759   -3.4026   -0.0633 H   0  0  0  0  0  0  0  0  0  0  0  0
    5.2977   -4.9743   -0.7046 H   0  0  0  0  0  0  0  0  0  0  0  0
    3.6711   -3.5521   -2.5068 H   0  0  0  0  0  0  0  0  0  0  0  0
    4.0717   -2.0182   -1.7626 H   0  0  0  0  0  0  0  0  0  0  0  0
    2.0145   -3.5212   -3.9088 H   0  0  0  0  0  0  0  0  0  0  0  0
    7.2220   -2.8562    0.3677 H   0  0  0  0  0  0  0  0  0  0  0  0
    4.8484   -2.7620   -4.6239 H   0  0  0  0  0  0  0  0  0  0  0  0
    6.4802   -2.4797   -1.9628 H   0  0  0  0  0  0  0  0  0  0  0  0
    8.0786   -5.7800   -3.0166 H   0  0  0  0  0  0  0  0  0  0  0  0
  1 11  1  0  0  0  0
  1 19  1  0  0  0  0
  2 21  1  0  0  0  0
  2 11  1  0  0  0  0
  3 25  1  0  0  0  0
  3 23  1  0  0  0  0
  4 26  1  0  0  0  0
  4 12  1  0  0  0  0
  5 30  1  0  0  0  0
  5 31  1  0  0  0  0
  6  7  1  0  0  0  0
  6 15  1  0  0  0  0
  7 16  1  0  0  0  0
  7 34  1  0  0  0  0
  8 13  1  0  0  0  0
  8 36  1  0  0  0  0
  9 38  1  0  0  0  0
  9 12  1  0  0  0  0
 10 40  1  0  0  0  0
 10 14  1  0  0  0  0
 10 41  1  0  0  0  0
 11  8  1  0  0  0  0
 11 42  1  0  0  0  0
 12 43  1  0  0  0  0
 12  3  1  0  0  0  0
 13 44  1  6  0  0  0
 13  5  1  0  0  0  0
 13 10  1  0  0  0  0
 14 45  1  1  0  0  0
 14  9  1  0  0  0  0
 15 46  1  0  0  0  0
 16 14  1  0  0  0  0
 17  1  1  0  0  0  0
 18  1  1  0  0  0  0
 20  2  1  0  0  0  0
 22  2  1  0  0  0  0
 24  3  1  0  0  0  0
 27  4  1  0  0  0  0
 28  4  1  0  0  0  0
 29  5  1  0  0  0  0
 32  6  1  0  0  0  0
 33  6  1  0  0  0  0
 35  7  1  0  0  0  0
 37  8  1  0  0  0  0
 39  9  1  0  0  0  0
M  END
>  <HBA>
2

>  <HBD>
1

>  <TPSA>
29.46

>  <cid>
24982

>  <dipole>
2.39

>  <excitation_energy_1>
6.432

>  <excitation_energy_2>
6.53

>  <excitation_energy_3>
6.698

>  <excitation_energy_4>
6.758

>  <homo_energy>
-6.89

>  <homo_lumo_gap>
8.754

>  <logP>
3.482

>  <lumo_energy>
1.864

>  <melting_point>
-22.21

>  <molecular_refractivity>
71.66

>  <oscillator_strength_1>
0.0004

>  <oscillator_strength_2>
0.0162

>  <oscillator_strength_3>
0.0057

>  <oscillator_strength_4>
0.0045

>  <open_babel_can_smiles>
OCCO[C@@H](C[C@@H](CC(C)C)C)CC(C)C

>  <mulliken_charges>
46
1   -0.441695
2   -0.448783
3   -0.443925
4   -0.455774
5   -0.457997
6   -0.038185
7   -0.047053
8   -0.24831
9   -0.273479
10   -0.300509
11   -0.075001
12   -0.074525
13   -0.075763
14   0.149254
15   -0.627173
16   -0.512199
17   0.139396
18   0.139282
19   0.139574
20   0.140539
21   0.145283
22   0.139733
23   0.141893
24   0.142084
25   0.137874
26   0.137512
27   0.149537
28   0.152168
29   0.142157
30   0.15178
31   0.135662
32   0.128724
33   0.14213
34   0.135116
35   0.12674
36   0.120753
37   0.122909
38   0.131169
39   0.137062
40   0.138082
41   0.1304
42   0.122795
43   0.120293
44   0.136659
45   0.134771
46   0.409037

>  <lowdin_charges>
46
1   -0.445175
2   -0.448279
3   -0.444779
4   -0.451673
5   -0.445462
6   -0.139511
7   -0.155818
8   -0.276985
9   -0.293378
10   -0.296404
11   -0.12372
12   -0.117425
13   -0.128924
14   0.001052
15   -0.469623
16   -0.287767
17   0.14833
18   0.146059
19   0.147423
20   0.149356
21   0.145244
22   0.146539
23   0.149365
24   0.145395
25   0.147199
26   0.14719
27   0.149756
28   0.149689
29   0.149105
30   0.150392
31   0.144431
32   0.131484
33   0.149361
34   0.135306
35   0.132412
36   0.138587
37   0.139618
38   0.147785
39   0.14475
40   0.143954
41   0.146671
42   0.134473
43   0.131556
44   0.143878
45   0.143617
46   0.344945

$$$$

