PCCDB-ID:  11876
public computational chemistry database (PCCDB) project, http://pccdb.org

 18 18  0  0  0  0  0  0  0  0999 V2000
   -1.2699    0.3202   -0.4468 C   0  0  0  0  0  0  0  0  0  0  0  0
   -0.8550   -0.9813   -0.1600 C   0  0  0  0  0  0  0  0  0  0  0  0
   -0.3651    1.3763   -0.3693 C   0  0  0  0  0  0  0  0  0  0  0  0
    0.4689   -1.2125    0.1925 C   0  0  0  0  0  0  0  0  0  0  0  0
    0.9856    1.1796   -0.0340 C   0  0  0  0  0  0  0  0  0  0  0  0
    1.3734   -0.1482    0.2315 C   0  0  0  0  0  0  0  0  0  0  0  0
    1.8205    2.4402    0.0824 C   0  0  0  0  0  0  0  0  0  0  0  0
    1.5005    3.4193    0.8286 N   0  0  0  0  0  0  0  0  0  0  0  0
    2.7588   -0.5115    0.5695 N   0  0  0  0  0  0  0  0  0  0  0  0
    2.8705    2.5767   -0.7525 O   0  0  0  0  0  0  0  0  0  0  0  0
    2.9366   -1.4948    1.2779 O   0  0  0  0  0  0  0  0  0  0  0  0
    3.6781    0.1711    0.0987 O   0  0  0  0  0  0  0  0  0  0  0  0
   -2.3009    0.5173   -0.7255 H   0  0  0  0  0  0  0  0  0  0  0  0
   -1.5540   -1.8102   -0.2098 H   0  0  0  0  0  0  0  0  0  0  0  0
   -0.6971    2.3886   -0.5761 H   0  0  0  0  0  0  0  0  0  0  0  0
    0.8239   -2.2063    0.4364 H   0  0  0  0  0  0  0  0  0  0  0  0
    0.6567    3.2041    1.3612 H   0  0  0  0  0  0  0  0  0  0  0  0
    3.2469    1.6899   -0.9093 H   0  0  0  0  0  0  0  0  0  0  0  0
  1  3  2  0  0  0  0
  1  2  1  0  0  0  0
  2  4  2  0  0  0  0
  3  5  1  0  0  0  0
  4  6  1  0  0  0  0
  4 16  1  0  0  0  0
  5  7  1  0  0  0  0
  5  6  2  0  0  0  0
  6  9  1  0  0  0  0
  7  8  2  0  0  0  0
  8 17  1  0  0  0  0
  9 11  2  0  0  0  0
 10  7  1  0  0  0  0
 12  9  2  0  0  0  0
 13  1  1  0  0  0  0
 14  2  1  0  0  0  0
 15  3  1  0  0  0  0
 18 10  1  0  0  0  0
M  END
>  <HBA>
2

>  <HBD>
1

>  <TPSA>
88.91

>  <cid>
11876

>  <dipole>
6.35

>  <excitation_energy_1>
3.564

>  <excitation_energy_2>
3.639

>  <excitation_energy_3>
3.814

>  <excitation_energy_4>
4.302

>  <homo_energy>
-7.304

>  <homo_lumo_gap>
4.291

>  <logP>
1.917

>  <lumo_energy>
-3.012

>  <melting_point>
132.92

>  <molecular_refractivity>
43.36

>  <oscillator_strength_1>
0.0204

>  <oscillator_strength_2>
0.004

>  <oscillator_strength_3>
0.0233

>  <oscillator_strength_4>
0.0056

>  <open_babel_can_smiles>
O=N(=O)c1ccccc1C(=N)O

>  <mulliken_charges>
18
1   -0.105738
2   -0.1374
3   -0.187906
4   -0.136776
5   0.054793
6   0.224529
7   0.424626
8   -0.560099
9   0.369219
10   -0.577346
11   -0.36316
12   -0.408706
13   0.159141
14   0.159908
15   0.171507
16   0.188985
17   0.288768
18   0.435654

>  <lowdin_charges>
18
1   -0.126065
2   -0.143512
3   -0.144583
4   -0.133052
5   -0.025496
6   0.001339
7   0.125399
8   -0.374169
9   0.313328
10   -0.356717
11   -0.216224
12   -0.250549
13   0.171972
14   0.17426
15   0.178173
16   0.189305
17   0.259571
18   0.357018

$$$$

