PCCDB-ID:  13642
public computational chemistry database (PCCDB) project, http://pccdb.org

 23 23  0  0  0  0  0  0  0  0999 V2000
    3.6048    0.6723    1.0403 C   0  0  0  0  0  0  0  0  0  0  0  0
    3.4955   -6.5870   -0.5770 C   0  0  0  0  0  0  0  0  0  0  0  0
    2.5430    0.0512    0.1133 C   0  0  0  0  0  0  0  0  0  0  0  0
    2.4440   -2.4554    0.4879 C   0  0  0  0  0  0  0  0  0  0  0  0
    3.6610   -1.6350   -1.4191 C   0  0  0  0  0  0  0  0  0  0  0  0
    2.7825   -3.7628    0.1448 C   0  0  0  0  0  0  0  0  0  0  0  0
    4.0023   -2.9364   -1.7661 C   0  0  0  0  0  0  0  0  0  0  0  0
    3.9649   -5.4027   -1.4081 C   0  0  0  0  0  0  0  0  0  0  0  0
    2.8766   -1.3697   -0.2853 C   0  0  0  0  0  0  0  0  0  0  0  0
    3.5685   -4.0213   -0.9877 C   0  0  0  0  0  0  0  0  0  0  0  0
    4.6564   -5.5797   -2.4004 O   0  0  0  0  0  0  0  0  0  0  0  0
    3.3350    1.7007    1.3059 H   0  0  0  0  0  0  0  0  0  0  0  0
    4.5869    0.6925    0.5550 H   0  0  0  0  0  0  0  0  0  0  0  0
    3.7030    0.0958    1.9668 H   0  0  0  0  0  0  0  0  0  0  0  0
    2.4015   -6.6181   -0.5116 H   0  0  0  0  0  0  0  0  0  0  0  0
    3.8815   -6.5253    0.4478 H   0  0  0  0  0  0  0  0  0  0  0  0
    3.8570   -7.5052   -1.0428 H   0  0  0  0  0  0  0  0  0  0  0  0
    2.4452    0.6707   -0.7869 H   0  0  0  0  0  0  0  0  0  0  0  0
    1.5686    0.0723    0.6173 H   0  0  0  0  0  0  0  0  0  0  0  0
    1.8295   -2.2740    1.3671 H   0  0  0  0  0  0  0  0  0  0  0  0
    4.0014   -0.8065   -2.0367 H   0  0  0  0  0  0  0  0  0  0  0  0
    2.4269   -4.5803    0.7646 H   0  0  0  0  0  0  0  0  0  0  0  0
    4.6063   -3.1442   -2.6435 H   0  0  0  0  0  0  0  0  0  0  0  0
  1 12  1  0  0  0  0
  1 14  1  0  0  0  0
  2 15  1  0  0  0  0
  2 16  1  0  0  0  0
  3 19  1  0  0  0  0
  3  1  1  0  0  0  0
  4 20  1  0  0  0  0
  5  9  1  0  0  0  0
  6  4  1  0  0  0  0
  6 22  1  0  0  0  0
  7  5  2  0  0  0  0
  7 10  1  0  0  0  0
  8 10  1  0  0  0  0
  8  2  1  0  0  0  0
  9  3  1  0  0  0  0
  9  4  2  0  0  0  0
 10  6  2  0  0  0  0
 11  8  2  0  0  0  0
 13  1  1  0  0  0  0
 17  2  1  0  0  0  0
 18  3  1  0  0  0  0
 21  5  1  0  0  0  0
 23  7  1  0  0  0  0
M  END
>  <HBA>
1

>  <HBD>
0

>  <TPSA>
17.07

>  <cid>
13642

>  <dipole>
3.36

>  <excitation_energy_1>
3.762

>  <excitation_energy_2>
4.717

>  <excitation_energy_3>
4.958

>  <excitation_energy_4>
5.531

>  <homo_energy>
-6.637

>  <homo_lumo_gap>
5.255

>  <logP>
2.452

>  <lumo_energy>
-1.382

>  <melting_point>
42.39

>  <molecular_refractivity>
46.41

>  <oscillator_strength_1>
0.0001

>  <oscillator_strength_2>
0.0203

>  <oscillator_strength_3>
0.3531

>  <oscillator_strength_4>
0.0001

>  <open_babel_can_smiles>
CCc1ccc(cc1)C(=O)C

>  <mulliken_charges>
23
1   -0.43556
2   -0.542674
3   -0.342266
4   -0.185756
5   -0.182838
6   -0.181705
7   -0.15856
8   0.406819
9   0.183724
10   0.075343
11   -0.45575
12   0.148007
13   0.153162
14   0.1512
15   0.169029
16   0.170079
17   0.180562
18   0.148081
19   0.14639
20   0.127165
21   0.129779
22   0.132808
23   0.162962

>  <lowdin_charges>
23
1   -0.438117
2   -0.472895
3   -0.271533
4   -0.168577
5   -0.16768
6   -0.150217
7   -0.125498
8   0.158863
9   0.016197
10   -0.056355
11   -0.245011
12   0.150938
13   0.152137
14   0.151681
15   0.16668
16   0.168584
17   0.174736
18   0.152046
19   0.150379
20   0.15665
21   0.158677
22   0.161929
23   0.176385

$$$$

