PCCDB-ID:  3485
public computational chemistry database (PCCDB) project, http://pccdb.org

 15 14  0  0  0  0  0  0  0  0999 V2000
    1.4150   -0.8052    0.4151 C   0  0  0  0  0  0  0  0  0  0  0  0
    0.8776   -1.7318    1.5077 C   0  0  0  0  0  0  0  0  0  0  0  0
    2.9400   -0.8312    0.2824 C   0  0  0  0  0  0  0  0  0  0  0  0
   -0.6163   -1.6295    1.7076 C   0  0  0  0  0  0  0  0  0  0  0  0
    3.5203   -2.1291   -0.2339 C   0  0  0  0  0  0  0  0  0  0  0  0
   -1.3476   -0.8864    1.0899 O   0  0  0  0  0  0  0  0  0  0  0  0
    2.8763   -3.1138   -0.5262 O   0  0  0  0  0  0  0  0  0  0  0  0
    1.0882    0.2199    0.6198 H   0  0  0  0  0  0  0  0  0  0  0  0
    0.9625   -1.0854   -0.5419 H   0  0  0  0  0  0  0  0  0  0  0  0
    1.3507   -1.5280    2.4827 H   0  0  0  0  0  0  0  0  0  0  0  0
    1.1139   -2.7809    1.2830 H   0  0  0  0  0  0  0  0  0  0  0  0
    3.4377   -0.6084    1.2403 H   0  0  0  0  0  0  0  0  0  0  0  0
    3.2864   -0.0397   -0.4007 H   0  0  0  0  0  0  0  0  0  0  0  0
   -1.0291   -2.3054    2.4911 H   0  0  0  0  0  0  0  0  0  0  0  0
    4.6289   -2.1300   -0.3441 H   0  0  0  0  0  0  0  0  0  0  0  0
  1  8  1  0  0  0  0
  1  2  1  0  0  0  0
  2  4  1  0  0  0  0
  2 10  1  0  0  0  0
  3  1  1  0  0  0  0
  3 12  1  0  0  0  0
  4 14  1  0  0  0  0
  5  3  1  0  0  0  0
  6  4  2  0  0  0  0
  7  5  2  0  0  0  0
  9  1  1  0  0  0  0
 11  2  1  0  0  0  0
 13  3  1  0  0  0  0
 15  5  1  0  0  0  0
M  END
>  <HBA>
2

>  <HBD>
0

>  <TPSA>
34.14

>  <cid>
3485

>  <dipole>
3.38

>  <excitation_energy_1>
4.316

>  <excitation_energy_2>
4.358

>  <excitation_energy_3>
5.418

>  <excitation_energy_4>
5.834

>  <homo_energy>
-6.893

>  <homo_lumo_gap>
6.109

>  <logP>
0.554

>  <lumo_energy>
-0.784

>  <melting_point>
37.55

>  <molecular_refractivity>
26.55

>  <oscillator_strength_1>
0.0002

>  <oscillator_strength_2>
0.0002

>  <oscillator_strength_3>
0.0008

>  <oscillator_strength_4>
0.0044

>  <open_babel_can_smiles>
O=CCCCC=O

>  <mulliken_charges>
15
1   -0.246232
2   -0.356174
3   -0.358439
4   0.252873
5   0.255712
6   -0.383982
7   -0.382636
8   0.156139
9   0.169408
10   0.153557
11   0.193255
12   0.161415
13   0.169928
14   0.106
15   0.109176

>  <lowdin_charges>
15
1   -0.268126
2   -0.316877
3   -0.316187
4   0.058083
5   0.06158
6   -0.221385
7   -0.221946
8   0.156966
9   0.163344
10   0.159316
11   0.177544
12   0.163593
13   0.171239
14   0.117283
15   0.115573

$$$$

