PCCDB-ID:  13580
public computational chemistry database (PCCDB) project, http://pccdb.org

 25 24  0  0  0  0  0  0  0  0999 V2000
    1.0933   -0.0905   -0.0459 C   0  0  0  0  0  0  0  0  0  0  0  0
    0.5006   -1.3714    0.5558 C   0  0  0  0  0  0  0  0  0  0  0  0
    2.6176   -0.0090    0.0970 C   0  0  0  0  0  0  0  0  0  0  0  0
   -1.0232   -1.4610    0.4115 C   0  0  0  0  0  0  0  0  0  0  0  0
    3.2047    1.2660   -0.5119 C   0  0  0  0  0  0  0  0  0  0  0  0
   -1.6152   -2.7359    1.0161 C   0  0  0  0  0  0  0  0  0  0  0  0
    4.7165    1.3685   -0.3452 C   0  0  0  0  0  0  0  0  0  0  0  0
   -3.0686   -2.7771    0.8121 N   0  0  0  0  0  0  0  0  0  0  0  0
    5.4051    0.5582    0.2206 O   0  0  0  0  0  0  0  0  0  0  0  0
    5.2874    2.4803   -0.8927 O   0  0  0  0  0  0  0  0  0  0  0  0
    0.6316    0.7838    0.4371 H   0  0  0  0  0  0  0  0  0  0  0  0
    0.8183   -0.0299   -1.1095 H   0  0  0  0  0  0  0  0  0  0  0  0
    0.7744   -1.4306    1.6194 H   0  0  0  0  0  0  0  0  0  0  0  0
    0.9647   -2.2442    0.0738 H   0  0  0  0  0  0  0  0  0  0  0  0
    3.0875   -0.8781   -0.3792 H   0  0  0  0  0  0  0  0  0  0  0  0
    2.9013   -0.0582    1.1552 H   0  0  0  0  0  0  0  0  0  0  0  0
   -1.3092   -1.4154   -0.6473 H   0  0  0  0  0  0  0  0  0  0  0  0
   -1.4863   -0.5859    0.8937 H   0  0  0  0  0  0  0  0  0  0  0  0
    2.7476    2.1573   -0.0555 H   0  0  0  0  0  0  0  0  0  0  0  0
    2.9700    1.3248   -1.5855 H   0  0  0  0  0  0  0  0  0  0  0  0
   -1.3081   -2.8093    2.0766 H   0  0  0  0  0  0  0  0  0  0  0  0
   -1.1848   -3.6089    0.5082 H   0  0  0  0  0  0  0  0  0  0  0  0
   -3.5070   -2.0327    1.3541 H   0  0  0  0  0  0  0  0  0  0  0  0
   -3.4439   -3.6486    1.1834 H   0  0  0  0  0  0  0  0  0  0  0  0
    4.6052    3.0309   -1.3118 H   0  0  0  0  0  0  0  0  0  0  0  0
  1  3  1  0  0  0  0
  1 11  1  0  0  0  0
  1  2  1  0  0  0  0
  2 13  1  0  0  0  0
  3 16  1  0  0  0  0
  4  2  1  0  0  0  0
  4 18  1  0  0  0  0
  4  6  1  0  0  0  0
  5  7  1  0  0  0  0
  5 19  1  0  0  0  0
  5  3  1  0  0  0  0
  6 21  1  0  0  0  0
  7  9  2  0  0  0  0
  8  6  1  0  0  0  0
  8 24  1  0  0  0  0
  8 23  1  0  0  0  0
 10  7  1  0  0  0  0
 12  1  1  0  0  0  0
 14  2  1  0  0  0  0
 15  3  1  0  0  0  0
 17  4  1  0  0  0  0
 20  5  1  0  0  0  0
 22  6  1  0  0  0  0
 25 10  1  0  0  0  0
M  END
>  <HBA>
3

>  <HBD>
2

>  <TPSA>
63.32

>  <cid>
13580

>  <dipole>
3.72

>  <excitation_energy_1>
5.594

>  <excitation_energy_2>
5.746

>  <excitation_energy_3>
5.878

>  <excitation_energy_4>
6.214

>  <homo_energy>
-6.316

>  <homo_lumo_gap>
6.653

>  <logP>
1.681

>  <lumo_energy>
0.337

>  <melting_point>
104.18

>  <molecular_refractivity>
40.24

>  <oscillator_strength_1>
0.0137

>  <oscillator_strength_2>
0.0003

>  <oscillator_strength_3>
0.0001

>  <oscillator_strength_4>
0.0001

>  <open_babel_can_smiles>
NCCCCCCC(=O)O

>  <mulliken_charges>
25
1   -0.258559
2   -0.257902
3   -0.246709
4   -0.24709
5   -0.407902
6   -0.133821
7   0.609141
8   -0.716166
9   -0.436985
10   -0.569855
11   0.126721
12   0.129128
13   0.131233
14   0.133388
15   0.154442
16   0.155741
17   0.146305
18   0.120773
19   0.163532
20   0.16255
21   0.110564
22   0.138478
23   0.290262
24   0.295147
25   0.407584

>  <lowdin_charges>
25
1   -0.273571
2   -0.273062
3   -0.268327
4   -0.277647
5   -0.32208
6   -0.202792
7   0.197656
8   -0.561524
9   -0.236919
10   -0.36394
11   0.137679
12   0.136746
13   0.138089
14   0.141603
15   0.154424
16   0.15289
17   0.146664
18   0.135192
19   0.160877
20   0.158148
21   0.113836
22   0.141663
23   0.251531
24   0.254694
25   0.358169

$$$$

