PCCDB-ID:  41160
public computational chemistry database (PCCDB) project, http://pccdb.org

 20 21  0  0  0  0  0  0  0  0999 V2000
    2.1768   -0.1450    1.6539 C   0  0  0  0  0  0  0  0  0  0  0  0
    2.3473   -5.5727   -0.3092 C   0  0  0  0  0  0  0  0  0  0  0  0
    1.3090   -4.8998    0.3705 C   0  0  0  0  0  0  0  0  0  0  0  0
    3.3862   -4.8733   -0.9086 C   0  0  0  0  0  0  0  0  0  0  0  0
    1.2908   -3.5142    0.4697 C   0  0  0  0  0  0  0  0  0  0  0  0
    4.2834   -2.4437   -1.3213 C   0  0  0  0  0  0  0  0  0  0  0  0
    3.7679   -1.2371   -0.9217 C   0  0  0  0  0  0  0  0  0  0  0  0
    3.4033   -3.4689   -0.8308 C   0  0  0  0  0  0  0  0  0  0  0  0
    2.3465   -2.8200   -0.1294 C   0  0  0  0  0  0  0  0  0  0  0  0
    2.6149   -1.4710   -0.1990 N   0  0  0  0  0  0  0  0  0  0  0  0
    1.7989   -0.4791    0.3064 O   0  0  0  0  0  0  0  0  0  0  0  0
    1.4630    0.6216    1.9632 H   0  0  0  0  0  0  0  0  0  0  0  0
    3.1960    0.2564    1.6861 H   0  0  0  0  0  0  0  0  0  0  0  0
    2.1004   -1.0184    2.3101 H   0  0  0  0  0  0  0  0  0  0  0  0
    2.3272   -6.6575   -0.3671 H   0  0  0  0  0  0  0  0  0  0  0  0
    0.5054   -5.4762    0.8208 H   0  0  0  0  0  0  0  0  0  0  0  0
    4.1765   -5.4016   -1.4361 H   0  0  0  0  0  0  0  0  0  0  0  0
    0.4893   -2.9868    0.9773 H   0  0  0  0  0  0  0  0  0  0  0  0
    5.1831   -2.5851   -1.9044 H   0  0  0  0  0  0  0  0  0  0  0  0
    4.1018   -0.2229   -1.0860 H   0  0  0  0  0  0  0  0  0  0  0  0
  1 13  1  0  0  0  0
  1 12  1  0  0  0  0
  1 14  1  0  0  0  0
  2  3  2  0  0  0  0
  3  5  1  0  0  0  0
  3 16  1  0  0  0  0
  4  8  2  0  0  0  0
  4  2  1  0  0  0  0
  5 18  1  0  0  0  0
  6  7  2  0  0  0  0
  6  8  1  0  0  0  0
  7 10  1  0  0  0  0
  8  9  1  0  0  0  0
  9  5  2  0  0  0  0
 10  9  1  0  0  0  0
 10 11  1  0  0  0  0
 11  1  1  0  0  0  0
 15  2  1  0  0  0  0
 17  4  1  0  0  0  0
 19  6  1  0  0  0  0
 20  7  1  0  0  0  0
M  END
>  <HBA>
2

>  <HBD>
0

>  <TPSA>
14.16

>  <cid>
41160

>  <dipole>
2.26

>  <excitation_energy_1>
4.565

>  <excitation_energy_2>
4.84

>  <excitation_energy_3>
5.135

>  <excitation_energy_4>
5.415

>  <homo_energy>
-5.41

>  <homo_lumo_gap>
5.225

>  <logP>
1.7

>  <lumo_energy>
-0.185

>  <melting_point>
50.82

>  <molecular_refractivity>
44.38

>  <oscillator_strength_1>
0.0721

>  <oscillator_strength_2>
0.0377

>  <oscillator_strength_3>
0.0169

>  <oscillator_strength_4>
0.0007

>  <open_babel_can_smiles>
COn1ccc2c1cccc2

>  <mulliken_charges>
20
1   -0.199374
2   -0.137145
3   -0.153378
4   -0.207451
5   -0.159349
6   -0.24859
7   0.049111
8   0.10198
9   0.32572
10   -0.273319
11   -0.384724
12   0.171671
13   0.156887
14   0.164862
15   0.120303
16   0.123316
17   0.125465
18   0.132846
19   0.131977
20   0.159193

>  <lowdin_charges>
20
1   -0.279556
2   -0.174966
3   -0.164002
4   -0.160167
5   -0.187041
6   -0.22389
7   -0.128423
8   -0.026683
9   0.021483
10   0.074169
11   -0.18439
12   0.165478
13   0.147403
14   0.153601
15   0.152635
16   0.156829
17   0.15784
18   0.163189
19   0.164937
20   0.171553

$$$$

