PCCDB-ID:  71083
public computational chemistry database (PCCDB) project, http://pccdb.org

 20 20  0  0  1  0  0  0  0  0999 V2000
    3.1267   -1.1964    0.5151 C   0  0  0  0  0  0  0  0  0  0  0  0
    5.0507    0.0860    1.7981 C   0  0  0  0  0  0  0  0  0  0  0  0
    6.6773   -1.2397    1.3968 C   0  0  0  0  0  0  0  0  0  0  0  0
    4.5082   -0.9191    1.0276 C   0  0  0  0  0  0  0  0  0  0  0  0
    2.2535    0.0667    0.4372 C   0  0  2  0  0  0  0  0  0  0  0  0
    0.7929   -0.2994    0.0880 C   0  0  0  0  0  0  0  0  0  0  0  0
    2.7090    1.1213   -0.4838 N   0  0  0  0  0  0  0  0  0  0  0  0
    6.3957   -0.1199    2.0217 N   0  0  0  0  0  0  0  0  0  0  0  0
    5.5757   -1.7631    0.7756 N   0  0  0  0  0  0  0  0  0  0  0  0
    0.2668   -1.3317    0.4328 O   0  0  0  0  0  0  0  0  0  0  0  0
    0.1566    0.6552   -0.6059 O   0  0  0  0  0  0  0  0  0  0  0  0
    2.6004   -1.9270    1.1415 H   0  0  0  0  0  0  0  0  0  0  0  0
    3.1787   -1.6472   -0.4878 H   0  0  0  0  0  0  0  0  0  0  0  0
    4.5479    0.9476    2.2188 H   0  0  0  0  0  0  0  0  0  0  0  0
    7.6470   -1.7177    1.3538 H   0  0  0  0  0  0  0  0  0  0  0  0
    2.2056    0.5211    1.4360 H   0  0  0  0  0  0  0  0  0  0  0  0
    3.0561    0.7059   -1.3486 H   0  0  0  0  0  0  0  0  0  0  0  0
    3.4887    1.6361   -0.0814 H   0  0  0  0  0  0  0  0  0  0  0  0
    5.5366   -2.6236    0.2475 H   0  0  0  0  0  0  0  0  0  0  0  0
    0.8428    1.3482   -0.7771 H   0  0  0  0  0  0  0  0  0  0  0  0
  1  4  1  0  0  0  0
  1 12  1  0  0  0  0
  2  8  1  0  0  0  0
  2 14  1  0  0  0  0
  3  8  2  0  0  0  0
  4  2  2  0  0  0  0
  5  1  1  0  0  0  0
  5 16  1  1  0  0  0
  6 10  2  0  0  0  0
  6  5  1  0  0  0  0
  7 18  1  0  0  0  0
  7  5  1  0  0  0  0
  9  4  1  0  0  0  0
  9  3  1  0  0  0  0
 11  6  1  0  0  0  0
 13  1  1  0  0  0  0
 15  3  1  0  0  0  0
 17  7  1  0  0  0  0
 19  9  1  0  0  0  0
 20 11  1  0  0  0  0
M  END
>  <HBA>
4

>  <HBD>
3

>  <TPSA>
92.0

>  <cid>
71083

>  <dipole>
4.1

>  <excitation_energy_1>
5.136

>  <excitation_energy_2>
5.442

>  <excitation_energy_3>
5.553

>  <excitation_energy_4>
5.957

>  <homo_energy>
-6.289

>  <homo_lumo_gap>
6.419

>  <logP>
0.064

>  <lumo_energy>
0.131

>  <melting_point>
200.01

>  <molecular_refractivity>
37.65

>  <oscillator_strength_1>
0.0028

>  <oscillator_strength_2>
0.007

>  <oscillator_strength_3>
0.0031

>  <oscillator_strength_4>
0.0856

>  <open_babel_can_smiles>
N[C@@H](C(=O)O)Cc1cnc[nH]1

>  <mulliken_charges>
20
1   -0.354109
2   -0.098297
3   0.208851
4   0.334486
5   -0.106568
6   0.621465
7   -0.762557
8   -0.423969
9   -0.61147
10   -0.465364
11   -0.581548
12   0.200425
13   0.142181
14   0.127717
15   0.158727
16   0.189422
17   0.319445
18   0.333649
19   0.33375
20   0.433765

>  <lowdin_charges>
20
1   -0.28464
2   -0.188245
3   -0.094235
4   -0.016982
5   -0.106295
6   0.175552
7   -0.543167
8   -0.182484
9   -0.182392
10   -0.255123
11   -0.351386
12   0.182649
13   0.150178
14   0.157443
15   0.168399
16   0.171215
17   0.267218
18   0.276525
19   0.293876
20   0.361894

$$$$

