PCCDB-ID:  24473
public computational chemistry database (PCCDB) project, http://pccdb.org

 27 27  0  0  1  0  0  0  0  0999 V2000
    0.9472    0.5720   -0.5303 C   0  0  0  0  0  0  0  0  0  0  0  0
    2.7665   -1.0404   -1.0234 C   0  0  0  0  0  0  0  0  0  0  0  0
    3.9203    1.0785    5.3819 C   0  0  0  0  0  0  0  0  0  0  0  0
    3.4736   -0.5630    3.4624 C   0  0  0  0  0  0  0  0  0  0  0  0
    2.6627   -0.8425    2.1902 C   0  0  0  0  0  0  0  0  0  0  0  0
    2.3590    1.6327    1.8219 C   0  0  0  0  0  0  0  0  0  0  0  0
    2.0885   -0.0102   -0.1484 C   0  0  0  0  0  0  0  0  0  0  0  0
    3.0776    0.7684    4.1455 C   0  0  2  0  0  0  0  0  0  0  0  0
    2.7978    0.3056    1.1615 C   0  0  2  0  0  0  0  0  0  0  0  0
    3.1237    1.8964    3.1128 C   0  0  0  0  0  0  0  0  0  0  0  0
    3.7353    2.9317    3.3004 O   0  0  0  0  0  0  0  0  0  0  0  0
    0.4676    0.3068   -1.4692 H   0  0  0  0  0  0  0  0  0  0  0  0
    0.4460    1.3320    0.0609 H   0  0  0  0  0  0  0  0  0  0  0  0
    2.1954   -1.2264   -1.9378 H   0  0  0  0  0  0  0  0  0  0  0  0
    2.8933   -2.0002   -0.5063 H   0  0  0  0  0  0  0  0  0  0  0  0
    3.7724   -0.7063   -1.3132 H   0  0  0  0  0  0  0  0  0  0  0  0
    3.8329    0.2728    6.1194 H   0  0  0  0  0  0  0  0  0  0  0  0
    3.6055    2.0155    5.8500 H   0  0  0  0  0  0  0  0  0  0  0  0
    4.9767    1.1886    5.1148 H   0  0  0  0  0  0  0  0  0  0  0  0
    4.5442   -0.5277    3.2130 H   0  0  0  0  0  0  0  0  0  0  0  0
    3.3493   -1.3851    4.1783 H   0  0  0  0  0  0  0  0  0  0  0  0
    1.5996   -0.9653    2.4420 H   0  0  0  0  0  0  0  0  0  0  0  0
    2.9910   -1.7906    1.7488 H   0  0  0  0  0  0  0  0  0  0  0  0
    1.2892    1.5741    2.0712 H   0  0  0  0  0  0  0  0  0  0  0  0
    2.5038    2.4843    1.1514 H   0  0  0  0  0  0  0  0  0  0  0  0
    2.0189    0.6744    4.4407 H   0  0  0  0  0  0  0  0  0  0  0  0
    3.8715    0.3997    0.9281 H   0  0  0  0  0  0  0  0  0  0  0  0
  1  7  2  0  0  0  0
  1 13  1  0  0  0  0
  2 15  1  0  0  0  0
  2  7  1  0  0  0  0
  3 18  1  0  0  0  0
  3 17  1  0  0  0  0
  4  8  1  0  0  0  0
  4 21  1  0  0  0  0
  5 22  1  0  0  0  0
  5  4  1  0  0  0  0
  6 24  1  0  0  0  0
  6 10  1  0  0  0  0
  7  9  1  0  0  0  0
  8 26  1  1  0  0  0
  8  3  1  0  0  0  0
  9 27  1  6  0  0  0
  9  6  1  0  0  0  0
  9  5  1  0  0  0  0
 10 11  2  0  0  0  0
 10  8  1  0  0  0  0
 12  1  1  0  0  0  0
 14  2  1  0  0  0  0
 16  2  1  0  0  0  0
 19  3  1  0  0  0  0
 20  4  1  0  0  0  0
 23  5  1  0  0  0  0
 25  6  1  0  0  0  0
M  END
>  <HBA>
1

>  <HBD>
0

>  <TPSA>
17.07

>  <cid>
24473

>  <dipole>
2.98

>  <excitation_energy_1>
4.238

>  <excitation_energy_2>
5.583

>  <excitation_energy_3>
5.96

>  <excitation_energy_4>
6.086

>  <homo_energy>
-6.406

>  <homo_lumo_gap>
6.068

>  <logP>
2.568

>  <lumo_energy>
-0.337

>  <melting_point>
-2.43

>  <molecular_refractivity>
47.8

>  <oscillator_strength_1>
0.0001

>  <oscillator_strength_2>
0.0148

>  <oscillator_strength_3>
0.0008

>  <oscillator_strength_4>
0.0018

>  <open_babel_can_smiles>
CC(=C)[C@@H]1CC[C@H](C(=O)C1)C

>  <mulliken_charges>
27
1   -0.404479
2   -0.51687
3   -0.438232
4   -0.268123
5   -0.271051
6   -0.353423
7   0.229542
8   -0.166334
9   -0.157114
10   0.447802
11   -0.451047
12   0.133601
13   0.138261
14   0.1557
15   0.156139
16   0.156499
17   0.135516
18   0.160198
19   0.153982
20   0.140309
21   0.142476
22   0.138545
23   0.140664
24   0.152333
25   0.167882
26   0.142236
27   0.134992

>  <lowdin_charges>
27
1   -0.365565
2   -0.440919
3   -0.439247
4   -0.273196
5   -0.275876
6   -0.303485
7   0.006959
8   -0.156678
9   -0.122155
10   0.155983
11   -0.234141
12   0.156394
13   0.157539
14   0.158649
15   0.154775
16   0.156247
17   0.148249
18   0.161189
19   0.154443
20   0.142145
21   0.15046
22   0.142166
23   0.14895
24   0.156759
25   0.166886
26   0.150555
27   0.142916

$$$$

