PCCDB-ID:  47803
public computational chemistry database (PCCDB) project, http://pccdb.org

 24 24  0  0  1  0  0  0  0  0999 V2000
    0.7544    0.2243   -0.4152 C   0  0  0  0  0  0  0  0  0  0  0  0
    2.8532   -1.0543   -2.3339 C   0  0  0  0  0  0  0  0  0  0  0  0
    2.2599    0.1166   -0.1453 C   0  0  0  0  0  0  0  0  0  0  0  0
    2.5896   -2.4614   -0.1704 C   0  0  0  0  0  0  0  0  0  0  0  0
    4.4344   -1.2664   -0.2980 C   0  0  0  0  0  0  0  0  0  0  0  0
    4.0531   -2.6049    0.3734 C   0  0  2  0  0  0  0  0  0  0  0  0
    4.7947   -3.8327   -0.1225 C   0  0  0  0  0  0  0  0  0  0  0  0
    2.9656   -1.0793   -0.8077 C   0  0  1  0  0  0  0  0  0  0  0  0
    5.6857   -3.8332   -0.9348 O   0  0  0  0  0  0  0  0  0  0  0  0
    4.3574   -5.0139    0.4038 O   0  0  0  0  0  0  0  0  0  0  0  0
    0.3143    1.0430    0.1651 H   0  0  0  0  0  0  0  0  0  0  0  0
    0.2287   -0.6971   -0.1352 H   0  0  0  0  0  0  0  0  0  0  0  0
    0.5419    0.4193   -1.4716 H   0  0  0  0  0  0  0  0  0  0  0  0
    1.8122   -1.1377   -2.6676 H   0  0  0  0  0  0  0  0  0  0  0  0
    3.4120   -1.8859   -2.7783 H   0  0  0  0  0  0  0  0  0  0  0  0
    3.2647   -0.1217   -2.7410 H   0  0  0  0  0  0  0  0  0  0  0  0
    2.4244    0.0606    0.9407 H   0  0  0  0  0  0  0  0  0  0  0  0
    2.7574    1.0394   -0.4776 H   0  0  0  0  0  0  0  0  0  0  0  0
    1.8184   -2.4193    0.6061 H   0  0  0  0  0  0  0  0  0  0  0  0
    2.3029   -3.2297   -0.8966 H   0  0  0  0  0  0  0  0  0  0  0  0
    5.1784   -1.3962   -1.0882 H   0  0  0  0  0  0  0  0  0  0  0  0
    4.7843   -0.4927    0.3928 H   0  0  0  0  0  0  0  0  0  0  0  0
    4.1027   -2.5864    1.4694 H   0  0  0  0  0  0  0  0  0  0  0  0
    3.6268   -4.8452    1.0221 H   0  0  0  0  0  0  0  0  0  0  0  0
  1  3  1  0  0  0  0
  1 12  1  0  0  0  0
  1 11  1  0  0  0  0
  3 17  1  0  0  0  0
  4  6  1  0  0  0  0
  4 19  1  0  0  0  0
  5  6  1  0  0  0  0
  5 22  1  0  0  0  0
  6 23  1  1  0  0  0
  7  6  1  0  0  0  0
  7 10  1  0  0  0  0
  8  2  1  6  0  0  0
  8  5  1  0  0  0  0
  8  4  1  0  0  0  0
  8  3  1  0  0  0  0
  9  7  2  0  0  0  0
 10 24  1  0  0  0  0
 13  1  1  0  0  0  0
 14  2  1  0  0  0  0
 15  2  1  0  0  0  0
 16  2  1  0  0  0  0
 18  3  1  0  0  0  0
 20  4  1  0  0  0  0
 21  5  1  0  0  0  0
M  END
>  <HBA>
2

>  <HBD>
1

>  <TPSA>
37.3

>  <cid>
47803

>  <dipole>
4.31

>  <excitation_energy_1>
5.627

>  <excitation_energy_2>
6.36

>  <excitation_energy_3>
6.891

>  <excitation_energy_4>
7.003

>  <homo_energy>
-7.244

>  <homo_lumo_gap>
7.505

>  <logP>
1.897

>  <lumo_energy>
0.261

>  <melting_point>
90.53

>  <molecular_refractivity>
39.97

>  <oscillator_strength_1>
0.0021

>  <oscillator_strength_2>
0.0087

>  <oscillator_strength_3>
0.0043

>  <oscillator_strength_4>
0.0205

>  <open_babel_can_smiles>
CC[C@]1(C)C[C@H](C1)C(=O)O

>  <mulliken_charges>
24
1   -0.452458
2   -0.473427
3   -0.269292
4   -0.312578
5   -0.294722
6   -0.234184
7   0.593215
8   0.136713
9   -0.438571
10   -0.569281
11   0.14657
12   0.142745
13   0.151146
14   0.145497
15   0.154742
16   0.144518
17   0.12415
18   0.135903
19   0.141458
20   0.153654
21   0.174181
22   0.138742
23   0.15189
24   0.40939

>  <lowdin_charges>
24
1   -0.44878
2   -0.446474
3   -0.270955
4   -0.294305
5   -0.285824
6   -0.173452
7   0.189191
8   0.015521
9   -0.237794
10   -0.361055
11   0.153788
12   0.146459
13   0.149306
14   0.148394
15   0.156009
16   0.150999
17   0.135137
18   0.143984
19   0.147693
20   0.153289
21   0.166832
22   0.149538
23   0.153835
24   0.358664

$$$$

