PCCDB-ID:  70138
public computational chemistry database (PCCDB) project, http://pccdb.org

 28 29  0  0  1  0  0  0  0  0999 V2000
    1.1812   -1.6732    1.9271 C   0  0  0  0  0  0  0  0  0  0  0  0
    2.8015   -3.4835    1.2682 C   0  0  0  0  0  0  0  0  0  0  0  0
    2.4331   -1.4831   -0.2470 C   0  0  0  0  0  0  0  0  0  0  0  0
    5.5385    0.0107    3.4472 C   0  0  0  0  0  0  0  0  0  0  0  0
    5.5742   -1.2442    3.9006 C   0  0  0  0  0  0  0  0  0  0  0  0
    7.0415   -0.6277    1.5677 C   0  0  0  0  0  0  0  0  0  0  0  0
    7.0741   -1.8866    2.0235 C   0  0  0  0  0  0  0  0  0  0  0  0
    5.6619   -0.0506    1.9148 C   0  0  1  0  0  0  0  0  0  0  0  0
    5.7185   -2.1709    2.6831 C   0  0  2  0  0  0  0  0  0  0  0  0
    4.8318   -1.3576    1.6519 C   0  0  1  0  0  0  0  0  0  0  0  0
    2.4997   -1.9779    1.2079 C   0  0  0  0  0  0  0  0  0  0  0  0
    3.4724   -1.2142    1.9579 O   0  0  0  0  0  0  0  0  0  0  0  0
    0.3412   -2.1708    1.4302 H   0  0  0  0  0  0  0  0  0  0  0  0
    0.9952   -0.5944    1.9325 H   0  0  0  0  0  0  0  0  0  0  0  0
    1.2273   -2.0156    2.9658 H   0  0  0  0  0  0  0  0  0  0  0  0
    2.0049   -4.0519    0.7749 H   0  0  0  0  0  0  0  0  0  0  0  0
    2.8675   -3.8180    2.3089 H   0  0  0  0  0  0  0  0  0  0  0  0
    3.7430   -3.7309    0.7658 H   0  0  0  0  0  0  0  0  0  0  0  0
    1.6247   -1.9884   -0.7875 H   0  0  0  0  0  0  0  0  0  0  0  0
    3.3633   -1.6780   -0.7916 H   0  0  0  0  0  0  0  0  0  0  0  0
    2.2423   -0.4051   -0.2695 H   0  0  0  0  0  0  0  0  0  0  0  0
    5.4801    0.9294    4.0195 H   0  0  0  0  0  0  0  0  0  0  0  0
    5.5491   -1.5855    4.9292 H   0  0  0  0  0  0  0  0  0  0  0  0
    7.8246   -0.0833    1.0515 H   0  0  0  0  0  0  0  0  0  0  0  0
    7.8892   -2.5990    1.9574 H   0  0  0  0  0  0  0  0  0  0  0  0
    5.3543    0.8430    1.3679 H   0  0  0  0  0  0  0  0  0  0  0  0
    5.4697   -3.2218    2.8428 H   0  0  0  0  0  0  0  0  0  0  0  0
    4.9781   -1.7229    0.6303 H   0  0  0  0  0  0  0  0  0  0  0  0
  1 14  1  0  0  0  0
  1 15  1  0  0  0  0
  2 17  1  0  0  0  0
  3 11  1  0  0  0  0
  4  5  2  0  0  0  0
  4 22  1  0  0  0  0
  5 23  1  0  0  0  0
  6  8  1  0  0  0  0
  6  7  2  0  0  0  0
  7  9  1  0  0  0  0
  8 26  1  6  0  0  0
  8  4  1  0  0  0  0
  9 27  1  1  0  0  0
  9  5  1  0  0  0  0
 10 28  1  6  0  0  0
 10  8  1  0  0  0  0
 10 12  1  0  0  0  0
 10  9  1  0  0  0  0
 11  2  1  0  0  0  0
 11  1  1  0  0  0  0
 11 12  1  0  0  0  0
 13  1  1  0  0  0  0
 16  2  1  0  0  0  0
 18  2  1  0  0  0  0
 19  3  1  0  0  0  0
 20  3  1  0  0  0  0
 21  3  1  0  0  0  0
 24  6  1  0  0  0  0
 25  7  1  0  0  0  0
M  END
>  <HBA>
1

>  <HBD>
0

>  <TPSA>
9.23

>  <cid>
70138

>  <dipole>
1.19

>  <excitation_energy_1>
4.902

>  <excitation_energy_2>
5.532

>  <excitation_energy_3>
5.541

>  <excitation_energy_4>
5.629

>  <homo_energy>
-5.894

>  <homo_lumo_gap>
6.014

>  <logP>
2.542

>  <lumo_energy>
0.12

>  <melting_point>
36.93

>  <molecular_refractivity>
50.94

>  <oscillator_strength_1>
0.0004

>  <oscillator_strength_2>
0.044

>  <oscillator_strength_3>
0.0113

>  <oscillator_strength_4>
0.0097

>  <open_babel_can_smiles>
CC(O[C@@H]1[C@@H]2C=C[C@H]1C=C2)(C)C

>  <mulliken_charges>
28
1   -0.445333
2   -0.458503
3   -0.455054
4   -0.082934
5   -0.084605
6   -0.104123
7   -0.103814
8   -0.213944
9   -0.220416
10   0.173942
11   0.315892
12   -0.51234
13   0.134789
14   0.152444
15   0.151625
16   0.142585
17   0.152611
18   0.145134
19   0.140979
20   0.144898
21   0.151925
22   0.12732
23   0.126214
24   0.129112
25   0.128257
26   0.120627
27   0.117797
28   0.124915

>  <lowdin_charges>
28
1   -0.441825
2   -0.457084
3   -0.456732
4   -0.164881
5   -0.164579
6   -0.174218
7   -0.173915
8   -0.140165
9   -0.148832
10   0.009233
11   0.136098
12   -0.255664
13   0.149175
14   0.154734
15   0.154685
16   0.154748
17   0.154013
18   0.150915
19   0.153561
20   0.149771
21   0.153918
22   0.158612
23   0.156725
24   0.159346
25   0.158185
26   0.147494
27   0.143529
28   0.133152

$$$$

