PCCDB-ID:  65531
public computational chemistry database (PCCDB) project, http://pccdb.org

 17 18  0  0  0  0  0  0  0  0999 V2000
    2.1420   -0.6764   -0.0170 C   0  0  0  0  0  0  0  0  0  0  0  0
    2.1146    0.7296   -0.0434 C   0  0  0  0  0  0  0  0  0  0  0  0
    0.9662   -1.4216   -0.0234 C   0  0  0  0  0  0  0  0  0  0  0  0
    0.9055    1.4221   -0.0769 C   0  0  0  0  0  0  0  0  0  0  0  0
   -1.6427   -1.1826   -0.0740 C   0  0  0  0  0  0  0  0  0  0  0  0
   -0.2679   -0.7538   -0.0568 C   0  0  0  0  0  0  0  0  0  0  0  0
   -0.2681    0.6701   -0.0830 C   0  0  0  0  0  0  0  0  0  0  0  0
   -2.3998   -0.0392   -0.1074 C   0  0  0  0  0  0  0  0  0  0  0  0
   -1.5955    1.0759   -0.1139 N   0  0  0  0  0  0  0  0  0  0  0  0
   -3.7380    0.1791   -0.1354 O   0  0  0  0  0  0  0  0  0  0  0  0
    3.0999   -1.1891    0.0098 H   0  0  0  0  0  0  0  0  0  0  0  0
    3.0478    1.2859   -0.0365 H   0  0  0  0  0  0  0  0  0  0  0  0
    1.0021   -2.5079   -0.0039 H   0  0  0  0  0  0  0  0  0  0  0  0
    0.8803    2.5087   -0.0983 H   0  0  0  0  0  0  0  0  0  0  0  0
   -2.0145   -2.1981   -0.0607 H   0  0  0  0  0  0  0  0  0  0  0  0
   -1.9412    2.0227   -0.1366 H   0  0  0  0  0  0  0  0  0  0  0  0
   -4.1844   -0.6810   -0.1268 H   0  0  0  0  0  0  0  0  0  0  0  0
  1 11  1  0  0  0  0
  2 12  1  0  0  0  0
  2  1  2  0  0  0  0
  3  1  1  0  0  0  0
  3 13  1  0  0  0  0
  4  2  1  0  0  0  0
  5 15  1  0  0  0  0
  5  6  1  0  0  0  0
  6  3  2  0  0  0  0
  7  4  2  0  0  0  0
  7  6  1  0  0  0  0
  8  5  2  0  0  0  0
  9  8  1  0  0  0  0
  9  7  1  0  0  0  0
 10 17  1  0  0  0  0
 10  8  1  0  0  0  0
 14  4  1  0  0  0  0
 16  9  1  0  0  0  0
M  END
>  <HBA>
1

>  <HBD>
2

>  <TPSA>
36.02

>  <cid>
65531

>  <dipole>
2.13

>  <excitation_energy_1>
4.24

>  <excitation_energy_2>
4.713

>  <excitation_energy_3>
4.904

>  <excitation_energy_4>
4.953

>  <homo_energy>
-5.113

>  <homo_lumo_gap>
5.333

>  <logP>
1.873

>  <lumo_energy>
0.22

>  <melting_point>
135.9

>  <molecular_refractivity>
40.32

>  <oscillator_strength_1>
0.0012

>  <oscillator_strength_2>
0.0935

>  <oscillator_strength_3>
0.0001

>  <oscillator_strength_4>
0.0226

>  <open_babel_can_smiles>
Oc1cc2c([nH]1)cccc2

>  <mulliken_charges>
17
1   -0.135772
2   -0.155216
3   -0.215831
4   -0.171716
5   -0.268799
6   0.118625
7   0.324356
8   0.510631
9   -0.721607
10   -0.634449
11   0.1167
12   0.118625
13   0.119343
14   0.118605
15   0.120396
16   0.332596
17   0.423513

>  <lowdin_charges>
17
1   -0.174993
2   -0.173578
3   -0.168695
4   -0.185943
5   -0.296641
6   -0.01496
7   0.029848
8   0.126794
9   -0.210602
10   -0.370714
11   0.152983
12   0.154179
13   0.151837
14   0.152135
15   0.159538
16   0.296119
17   0.372693

$$$$

