PCCDB-ID:  49627
public computational chemistry database (PCCDB) project, http://pccdb.org

 32 31  0  0  1  0  0  0  0  0999 V2000
    1.7830    0.1279    0.7887 C   0  0  0  0  0  0  0  0  0  0  0  0
    3.2690    1.3074   -0.8985 C   0  0  0  0  0  0  0  0  0  0  0  0
    4.3489   -2.4579   -2.5047 C   0  0  0  0  0  0  0  0  0  0  0  0
    7.0443   -4.1381   -2.2862 C   0  0  0  0  0  0  0  0  0  0  0  0
    8.6750   -1.5125   -2.9520 C   0  0  0  0  0  0  0  0  0  0  0  0
    3.9392   -0.9069    0.1248 C   0  0  0  0  0  0  0  0  0  0  0  0
    5.2678   -1.1081   -0.5532 C   0  0  0  0  0  0  0  0  0  0  0  0
    3.0702    0.1087   -0.0027 C   0  0  0  0  0  0  0  0  0  0  0  0
    5.3620   -2.4336   -1.3497 C   0  0  2  0  0  0  0  0  0  0  0  0
    6.8213   -2.6893   -1.8118 C   0  0  2  0  0  0  0  0  0  0  0  0
    7.2337   -1.6729   -2.7928 N   0  0  0  0  0  0  0  0  0  0  0  0
    0.9082    0.1715    0.1241 H   0  0  0  0  0  0  0  0  0  0  0  0
    1.7261    1.0174    1.4325 H   0  0  0  0  0  0  0  0  0  0  0  0
    1.6813   -0.7571    1.4250 H   0  0  0  0  0  0  0  0  0  0  0  0
    2.4323    1.4066   -1.6042 H   0  0  0  0  0  0  0  0  0  0  0  0
    4.1934    1.2629   -1.4781 H   0  0  0  0  0  0  0  0  0  0  0  0
    3.2861    2.2344   -0.3080 H   0  0  0  0  0  0  0  0  0  0  0  0
    3.3342   -2.3007   -2.1256 H   0  0  0  0  0  0  0  0  0  0  0  0
    4.3583   -3.4119   -3.0441 H   0  0  0  0  0  0  0  0  0  0  0  0
    4.5549   -1.6547   -3.2228 H   0  0  0  0  0  0  0  0  0  0  0  0
    6.7671   -4.8590   -1.5075 H   0  0  0  0  0  0  0  0  0  0  0  0
    8.0959   -4.3142   -2.5386 H   0  0  0  0  0  0  0  0  0  0  0  0
    6.4468   -4.3649   -3.1777 H   0  0  0  0  0  0  0  0  0  0  0  0
    8.8688   -0.7473   -3.7116 H   0  0  0  0  0  0  0  0  0  0  0  0
    9.2249   -2.4249   -3.2460 H   0  0  0  0  0  0  0  0  0  0  0  0
    9.1053   -1.1572   -2.0081 H   0  0  0  0  0  0  0  0  0  0  0  0
    3.6633   -1.7084    0.8150 H   0  0  0  0  0  0  0  0  0  0  0  0
    6.0532   -1.1243    0.2194 H   0  0  0  0  0  0  0  0  0  0  0  0
    5.5204   -0.2825   -1.2245 H   0  0  0  0  0  0  0  0  0  0  0  0
    5.1062   -3.2540   -0.6609 H   0  0  0  0  0  0  0  0  0  0  0  0
    7.4615   -2.5291   -0.9320 H   0  0  0  0  0  0  0  0  0  0  0  0
    6.8199   -1.8942   -3.6967 H   0  0  0  0  0  0  0  0  0  0  0  0
  1 14  1  0  0  0  0
  1 13  1  0  0  0  0
  2 17  1  0  0  0  0
  2  8  1  0  0  0  0
  3 18  1  0  0  0  0
  3  9  1  0  0  0  0
  4 10  1  0  0  0  0
  4 21  1  0  0  0  0
  5 11  1  0  0  0  0
  5 26  1  0  0  0  0
  6 27  1  0  0  0  0
  7  6  1  0  0  0  0
  7 28  1  0  0  0  0
  8  6  2  0  0  0  0
  8  1  1  0  0  0  0
  9 30  1  1  0  0  0
  9  7  1  0  0  0  0
 10  9  1  0  0  0  0
 10 31  1  1  0  0  0
 11 10  1  0  0  0  0
 12  1  1  0  0  0  0
 15  2  1  0  0  0  0
 16  2  1  0  0  0  0
 19  3  1  0  0  0  0
 20  3  1  0  0  0  0
 22  4  1  0  0  0  0
 23  4  1  0  0  0  0
 24  5  1  0  0  0  0
 25  5  1  0  0  0  0
 29  7  1  0  0  0  0
 32 11  1  0  0  0  0
M  END
>  <HBA>
1

>  <HBD>
1

>  <TPSA>
12.03

>  <cid>
49627

>  <dipole>
0.87

>  <excitation_energy_1>
5.245

>  <excitation_energy_2>
5.608

>  <excitation_energy_3>
5.642

>  <excitation_energy_4>
5.792

>  <homo_energy>
-5.755

>  <homo_lumo_gap>
6.781

>  <logP>
2.978

>  <lumo_energy>
1.026

>  <melting_point>
11.17

>  <molecular_refractivity>
52.51

>  <oscillator_strength_1>
0.0047

>  <oscillator_strength_2>
0.0061

>  <oscillator_strength_3>
0.0049

>  <oscillator_strength_4>
0.0065

>  <open_babel_can_smiles>
CN[C@@H]([C@@H](CC=C(C)C)C)C

>  <mulliken_charges>
32
1   -0.505715
2   -0.512509
3   -0.467745
4   -0.462431
5   -0.300274
6   -0.16175
7   -0.30329
8   0.186318
9   -0.060803
10   0.037356
11   -0.54332
12   0.146528
13   0.147162
14   0.148956
15   0.147852
16   0.158714
17   0.149081
18   0.15449
19   0.136462
20   0.143758
21   0.141782
22   0.145079
23   0.1388
24   0.146615
25   0.121251
26   0.15057
27   0.104116
28   0.128119
29   0.159061
30   0.112239
31   0.121018
32   0.292509

>  <lowdin_charges>
32
1   -0.440663
2   -0.44563
3   -0.453928
4   -0.464118
5   -0.361308
6   -0.190652
7   -0.2774
8   -0.012529
9   -0.125525
10   -0.064796
11   -0.360984
12   0.151151
13   0.151451
14   0.153301
15   0.153479
16   0.157919
17   0.153658
18   0.156581
19   0.144424
20   0.147964
21   0.151191
22   0.148558
23   0.145328
24   0.150445
25   0.120867
26   0.147633
27   0.141703
28   0.144789
29   0.15573
30   0.134296
31   0.137201
32   0.249863

$$$$

