PCCDB-ID:  27529
public computational chemistry database (PCCDB) project, http://pccdb.org

 34 35  0  0  1  0  0  0  0  0999 V2000
    1.0018   -0.9531    0.3501 C   0  0  0  0  0  0  0  0  0  0  0  0
    4.8432   -1.6392    0.6495 C   0  0  0  0  0  0  0  0  0  0  0  0
    3.3352   -1.8452    0.8455 C   0  0  0  0  0  0  0  0  0  0  0  0
    5.2834   -0.2405    1.1243 C   0  0  0  0  0  0  0  0  0  0  0  0
    6.9060    4.6191   -2.7418 C   0  0  0  0  0  0  0  0  0  0  0  0
    7.3596    3.5972   -0.6218 C   0  0  0  0  0  0  0  0  0  0  0  0
    8.2721    4.8625   -2.8592 C   0  0  0  0  0  0  0  0  0  0  0  0
    8.7043    3.9057   -0.8348 C   0  0  0  0  0  0  0  0  0  0  0  0
    2.9504    0.6528    0.6170 C   0  0  0  0  0  0  0  0  0  0  0  0
    2.5072   -0.7554    0.1429 C   0  0  2  0  0  0  0  0  0  0  0  0
    6.4290    3.9580   -1.6030 C   0  0  0  0  0  0  0  0  0  0  0  0
    4.4476    0.8421    0.4834 C   0  0  0  0  0  0  0  0  0  0  0  0
    4.9387    3.7785   -1.5174 C   0  0  0  0  0  0  0  0  0  0  0  0
    9.1726    4.5186   -1.9283 N   0  0  0  0  0  0  0  0  0  0  0  0
    5.0806    1.7863   -0.1190 N   0  0  0  0  0  0  0  0  0  0  0  0
    4.3850    2.8010   -0.7132 N   0  0  0  0  0  0  0  0  0  0  0  0
    4.1783    4.5049   -2.1491 O   0  0  0  0  0  0  0  0  0  0  0  0
    0.6804   -1.9346   -0.0167 H   0  0  0  0  0  0  0  0  0  0  0  0
    0.4199   -0.1908   -0.1816 H   0  0  0  0  0  0  0  0  0  0  0  0
    0.7394   -0.8921    1.4141 H   0  0  0  0  0  0  0  0  0  0  0  0
    5.0940   -1.7523   -0.4141 H   0  0  0  0  0  0  0  0  0  0  0  0
    5.4080   -2.4080    1.1903 H   0  0  0  0  0  0  0  0  0  0  0  0
    3.0998   -1.8360    1.9212 H   0  0  0  0  0  0  0  0  0  0  0  0
    3.0352   -2.8322    0.4709 H   0  0  0  0  0  0  0  0  0  0  0  0
    6.3392   -0.0570    0.9053 H   0  0  0  0  0  0  0  0  0  0  0  0
    5.1578   -0.1847    2.2174 H   0  0  0  0  0  0  0  0  0  0  0  0
    6.2090    4.9362   -3.5092 H   0  0  0  0  0  0  0  0  0  0  0  0
    7.0522    3.0844    0.2791 H   0  0  0  0  0  0  0  0  0  0  0  0
    8.6643    5.3648   -3.7418 H   0  0  0  0  0  0  0  0  0  0  0  0
    9.4454    3.6418   -0.0818 H   0  0  0  0  0  0  0  0  0  0  0  0
    2.6848    0.7632    1.6801 H   0  0  0  0  0  0  0  0  0  0  0  0
    2.3694    1.4108    0.0803 H   0  0  0  0  0  0  0  0  0  0  0  0
    2.7177   -0.8181   -0.9356 H   0  0  0  0  0  0  0  0  0  0  0  0
    3.3685    2.7895   -0.7620 H   0  0  0  0  0  0  0  0  0  0  0  0
  1 20  1  0  0  0  0
  2  3  1  0  0  0  0
  2  4  1  0  0  0  0
  2 22  1  0  0  0  0
  3 23  1  0  0  0  0
  4 26  1  0  0  0  0
  5 11  1  0  0  0  0
  6 28  1  0  0  0  0
  7  5  2  0  0  0  0
  7 14  1  0  0  0  0
  8  6  1  0  0  0  0
  8 30  1  0  0  0  0
  9 31  1  0  0  0  0
 10 33  1  6  0  0  0
 10  1  1  0  0  0  0
 10  9  1  0  0  0  0
 10  3  1  0  0  0  0
 11 13  1  0  0  0  0
 11  6  2  0  0  0  0
 12  9  1  0  0  0  0
 12  4  1  0  0  0  0
 13 16  1  0  0  0  0
 14  8  2  0  0  0  0
 15 12  2  0  0  0  0
 16 15  1  0  0  0  0
 17 13  2  0  0  0  0
 18  1  1  0  0  0  0
 19  1  1  0  0  0  0
 21  2  1  0  0  0  0
 24  3  1  0  0  0  0
 25  4  1  0  0  0  0
 27  5  1  0  0  0  0
 29  7  1  0  0  0  0
 32  9  1  0  0  0  0
 34 16  1  0  0  0  0
M  END
>  <HBA>
4

>  <HBD>
1

>  <TPSA>
54.35

>  <cid>
27529

>  <dipole>
5.74

>  <excitation_energy_1>
4.225

>  <excitation_energy_2>
4.393

>  <excitation_energy_3>
4.539

>  <excitation_energy_4>
4.845

>  <homo_energy>
-6.455

>  <homo_lumo_gap>
5.034

>  <logP>
2.768

>  <lumo_energy>
-1.42

>  <melting_point>
117.35

>  <molecular_refractivity>
67.65

>  <oscillator_strength_1>
0.0071

>  <oscillator_strength_2>
0.1038

>  <oscillator_strength_3>
0.0765

>  <oscillator_strength_4>
0.0496

>  <open_babel_can_smiles>
C[C@@H]1CCC/C(=N/NC(=O)c2ccncc2)/C1

>  <mulliken_charges>
34
1   -0.44765
2   -0.269437
3   -0.259861
4   -0.320525
5   -0.160876
6   -0.155704
7   0.031401
8   0.028356
9   -0.339817
10   -0.077175
11   0.092423
12   0.328248
13   0.558094
14   -0.401617
15   -0.299141
16   -0.487246
17   -0.499955
18   0.1502
19   0.146583
20   0.143988
21   0.144701
22   0.142355
23   0.129574
24   0.139764
25   0.164031
26   0.145394
27   0.165944
28   0.163264
29   0.143383
30   0.141103
31   0.159814
32   0.138172
33   0.135065
34   0.327147

>  <lowdin_charges>
34
1   -0.443386
2   -0.275484
3   -0.277415
4   -0.273939
5   -0.153682
6   -0.163817
7   -0.092856
8   -0.096202
9   -0.296067
10   -0.118283
11   -0.01502
12   0.02525
13   0.170814
14   -0.14103
15   -0.104334
16   -0.189097
17   -0.294612
18   0.153815
19   0.152499
20   0.147031
21   0.144246
22   0.151315
23   0.137025
24   0.148468
25   0.162379
26   0.148199
27   0.18155
28   0.177872
29   0.158598
30   0.157993
31   0.15884
32   0.14957
33   0.139575
34   0.270182

$$$$

