PCCDB-ID:  29629
public computational chemistry database (PCCDB) project, http://pccdb.org

 27 27  0  0  1  0  0  0  0  0999 V2000
    1.1596    0.0389   -0.3336 C   0  0  0  0  0  0  0  0  0  0  0  0
    6.6369    0.0518    1.0743 C   0  0  0  0  0  0  0  0  0  0  0  0
    4.7660    1.1284    4.6973 C   0  0  0  0  0  0  0  0  0  0  0  0
    4.6706   -0.0415    2.6546 C   0  0  0  0  0  0  0  0  0  0  0  0
    4.5053    1.2899    0.5193 C   0  0  0  0  0  0  0  0  0  0  0  0
    4.5363   -1.1793    0.4229 C   0  0  0  0  0  0  0  0  0  0  0  0
    2.6719    0.0584   -0.2900 C   0  0  1  0  0  0  0  0  0  0  0  0
    5.1063    0.0339    1.1833 C   0  0  1  0  0  0  0  0  0  0  0  0
    5.1752    1.0877    3.3477 O   0  0  0  0  0  0  0  0  0  0  0  0
    3.0843    1.2033    0.4253 O   0  0  0  0  0  0  0  0  0  0  0  0
    3.1150   -1.1330    0.3337 O   0  0  0  0  0  0  0  0  0  0  0  0
    0.7880    0.9449   -0.8203 H   0  0  0  0  0  0  0  0  0  0  0  0
    0.7659   -0.0042    0.6859 H   0  0  0  0  0  0  0  0  0  0  0  0
    0.8116   -0.8375   -0.8872 H   0  0  0  0  0  0  0  0  0  0  0  0
    7.0523    0.8975    1.6292 H   0  0  0  0  0  0  0  0  0  0  0  0
    6.9610    0.1281    0.0293 H   0  0  0  0  0  0  0  0  0  0  0  0
    7.0681   -0.8664    1.4926 H   0  0  0  0  0  0  0  0  0  0  0  0
    5.1914    2.0343    5.1375 H   0  0  0  0  0  0  0  0  0  0  0  0
    5.1296    0.2532    5.2603 H   0  0  0  0  0  0  0  0  0  0  0  0
    3.6688    1.1660    4.7891 H   0  0  0  0  0  0  0  0  0  0  0  0
    5.0605   -0.9700    3.1096 H   0  0  0  0  0  0  0  0  0  0  0  0
    3.5738   -0.0720    2.7178 H   0  0  0  0  0  0  0  0  0  0  0  0
    4.9364    1.4172   -0.4888 H   0  0  0  0  0  0  0  0  0  0  0  0
    4.7225    2.1833    1.1084 H   0  0  0  0  0  0  0  0  0  0  0  0
    4.7825   -2.1215    0.9244 H   0  0  0  0  0  0  0  0  0  0  0  0
    4.9725   -1.2097   -0.5908 H   0  0  0  0  0  0  0  0  0  0  0  0
    3.1084    0.1016   -1.3080 H   0  0  0  0  0  0  0  0  0  0  0  0
  1  7  1  0  0  0  0
  1 13  1  0  0  0  0
  2 17  1  0  0  0  0
  2 15  1  0  0  0  0
  3 20  1  0  0  0  0
  3 18  1  0  0  0  0
  3 19  1  0  0  0  0
  4 22  1  0  0  0  0
  4 21  1  0  0  0  0
  4  9  1  0  0  0  0
  5 24  1  0  0  0  0
  5  8  1  0  0  0  0
  6 25  1  0  0  0  0
  6  8  1  0  0  0  0
  7 27  1  6  0  0  0
  7 11  1  0  0  0  0
  7 10  1  0  0  0  0
  8  2  1  6  0  0  0
  8  4  1  0  0  0  0
  9  3  1  0  0  0  0
 10  5  1  0  0  0  0
 11  6  1  0  0  0  0
 12  1  1  0  0  0  0
 14  1  1  0  0  0  0
 16  2  1  0  0  0  0
 23  5  1  0  0  0  0
 26  6  1  0  0  0  0
M  END
>  <HBA>
3

>  <HBD>
0

>  <TPSA>
27.69

>  <cid>
29629

>  <dipole>
1.02

>  <excitation_energy_1>
6.437

>  <excitation_energy_2>
6.577

>  <excitation_energy_3>
6.773

>  <excitation_energy_4>
6.9

>  <homo_energy>
-6.8

>  <homo_lumo_gap>
9.108

>  <logP>
1.032

>  <lumo_energy>
2.308

>  <melting_point>
-13.47

>  <molecular_refractivity>
41.45

>  <oscillator_strength_1>
0.0224

>  <oscillator_strength_2>
0.0029

>  <oscillator_strength_3>
0.0239

>  <oscillator_strength_4>
0.019

>  <open_babel_can_smiles>
COC[C@]1(C)CO[C@@H](OC1)C

>  <mulliken_charges>
27
1   -0.466005
2   -0.464349
3   -0.190118
4   -0.001415
5   -0.041928
6   -0.044241
7   0.362658
8   0.01606
9   -0.473303
10   -0.479975
11   -0.479668
12   0.156994
13   0.16538
14   0.155843
15   0.173361
16   0.139595
17   0.141956
18   0.156487
19   0.128805
20   0.134872
21   0.110413
22   0.147145
23   0.116716
24   0.169365
25   0.144802
26   0.122695
27   0.097854

>  <lowdin_charges>
27
1   -0.448815
2   -0.44492
3   -0.275992
4   -0.131504
5   -0.137938
6   -0.135496
7   0.101937
8   -0.031977
9   -0.273536
10   -0.26529
11   -0.268821
12   0.162811
13   0.163663
14   0.162309
15   0.16626
16   0.14642
17   0.151077
18   0.154801
19   0.131737
20   0.13216
21   0.124045
22   0.139378
23   0.12686
24   0.162544
25   0.149952
26   0.129925
27   0.108411

$$$$

