PCCDB-ID:  7633
public computational chemistry database (PCCDB) project, http://pccdb.org

 33 33  0  0  0  0  0  0  0  0999 V2000
    6.5043    2.2056    0.9359 C   0  0  0  0  0  0  0  0  0  0  0  0
    3.2240   -0.5999    0.1400 C   0  0  0  0  0  0  0  0  0  0  0  0
    5.1481   -1.2645   -1.3736 C   0  0  0  0  0  0  0  0  0  0  0  0
    6.8811   -5.8309    4.0069 C   0  0  0  0  0  0  0  0  0  0  0  0
    6.7019   -6.1400    2.6577 C   0  0  0  0  0  0  0  0  0  0  0  0
    6.9302   -4.4935    4.4054 C   0  0  0  0  0  0  0  0  0  0  0  0
    6.5707   -5.1175    1.7166 C   0  0  0  0  0  0  0  0  0  0  0  0
    6.7990   -3.4758    3.4602 C   0  0  0  0  0  0  0  0  0  0  0  0
    6.4369   -2.6627    1.0853 C   0  0  0  0  0  0  0  0  0  0  0  0
    4.9731   -2.1836    1.0023 C   0  0  0  0  0  0  0  0  0  0  0  0
    5.5694    1.3289    0.1285 C   0  0  0  0  0  0  0  0  0  0  0  0
    6.6160   -3.7712    2.1020 C   0  0  0  0  0  0  0  0  0  0  0  0
    4.7061   -0.9868    0.0681 C   0  0  0  0  0  0  0  0  0  0  0  0
    4.9595    1.6989   -0.8524 O   0  0  0  0  0  0  0  0  0  0  0  0
    5.5272    0.0876    0.6581 O   0  0  0  0  0  0  0  0  0  0  0  0
    6.4671    3.2253    0.5509 H   0  0  0  0  0  0  0  0  0  0  0  0
    7.5284    1.8233    0.8655 H   0  0  0  0  0  0  0  0  0  0  0  0
    6.2229    2.1919    1.9935 H   0  0  0  0  0  0  0  0  0  0  0  0
    2.6083   -1.4361   -0.2099 H   0  0  0  0  0  0  0  0  0  0  0  0
    3.0157    0.2717   -0.4826 H   0  0  0  0  0  0  0  0  0  0  0  0
    2.9370   -0.3764    1.1734 H   0  0  0  0  0  0  0  0  0  0  0  0
    4.6589   -2.1759   -1.7363 H   0  0  0  0  0  0  0  0  0  0  0  0
    6.2306   -1.4137   -1.4322 H   0  0  0  0  0  0  0  0  0  0  0  0
    4.8777   -0.4363   -2.0300 H   0  0  0  0  0  0  0  0  0  0  0  0
    6.9883   -6.6249    4.7411 H   0  0  0  0  0  0  0  0  0  0  0  0
    6.6673   -7.1778    2.3361 H   0  0  0  0  0  0  0  0  0  0  0  0
    7.0750   -4.2425    5.4532 H   0  0  0  0  0  0  0  0  0  0  0  0
    6.4360   -5.3664    0.6657 H   0  0  0  0  0  0  0  0  0  0  0  0
    6.8436   -2.4359    3.7778 H   0  0  0  0  0  0  0  0  0  0  0  0
    7.0710   -1.8085    1.3473 H   0  0  0  0  0  0  0  0  0  0  0  0
    6.7686   -3.0174    0.1027 H   0  0  0  0  0  0  0  0  0  0  0  0
    4.6346   -1.9091    2.0092 H   0  0  0  0  0  0  0  0  0  0  0  0
    4.3351   -3.0150    0.6760 H   0  0  0  0  0  0  0  0  0  0  0  0
  1 18  1  0  0  0  0
  2 21  1  0  0  0  0
  3 13  1  0  0  0  0
  4  6  1  0  0  0  0
  4 25  1  0  0  0  0
  5  4  2  0  0  0  0
  6 27  1  0  0  0  0
  7 12  2  0  0  0  0
  7  5  1  0  0  0  0
  8 29  1  0  0  0  0
  8  6  2  0  0  0  0
  9 30  1  0  0  0  0
  9 12  1  0  0  0  0
 10  9  1  0  0  0  0
 10 32  1  0  0  0  0
 11 15  1  0  0  0  0
 11  1  1  0  0  0  0
 12  8  1  0  0  0  0
 13  2  1  0  0  0  0
 13 15  1  0  0  0  0
 13 10  1  0  0  0  0
 14 11  2  0  0  0  0
 16  1  1  0  0  0  0
 17  1  1  0  0  0  0
 19  2  1  0  0  0  0
 20  2  1  0  0  0  0
 22  3  1  0  0  0  0
 23  3  1  0  0  0  0
 24  3  1  0  0  0  0
 26  5  1  0  0  0  0
 28  7  1  0  0  0  0
 31  9  1  0  0  0  0
 33 10  1  0  0  0  0
M  END
>  <HBA>
2

>  <HBD>
0

>  <TPSA>
26.3

>  <cid>
7633

>  <dipole>
1.6

>  <excitation_energy_1>
5.298

>  <excitation_energy_2>
5.654

>  <excitation_energy_3>
5.878

>  <excitation_energy_4>
5.98

>  <homo_energy>
-6.468

>  <homo_lumo_gap>
6.528

>  <logP>
2.961

>  <lumo_energy>
0.06

>  <melting_point>
26.63

>  <molecular_refractivity>
61.57

>  <oscillator_strength_1>
0.001

>  <oscillator_strength_2>
0.0013

>  <oscillator_strength_3>
0.0485

>  <oscillator_strength_4>
0.0017

>  <open_babel_can_smiles>
CC(=O)OC(CCc1ccccc1)(C)C

>  <mulliken_charges>
33
1   -0.520734
2   -0.470627
3   -0.47692
4   -0.131468
5   -0.127834
6   -0.128488
7   -0.181744
8   -0.179074
9   -0.360429
10   -0.26498
11   0.614046
12   0.168134
13   0.317083
14   -0.474618
15   -0.49138
16   0.180669
17   0.179271
18   0.177533
19   0.144595
20   0.185709
21   0.147227
22   0.142855
23   0.153304
24   0.187101
25   0.127266
26   0.127621
27   0.127656
28   0.120305
29   0.123606
30   0.157043
31   0.142697
32   0.145385
33   0.139189

>  <lowdin_charges>
33
1   -0.461899
2   -0.455969
3   -0.45834
4   -0.16347
5   -0.154107
6   -0.153484
7   -0.167731
8   -0.166629
9   -0.277643
10   -0.27669
11   0.203767
12   9.4e-05
13   0.140474
14   -0.270657
15   -0.203334
16   0.173401
17   0.175488
18   0.17355
19   0.156356
20   0.172563
21   0.152673
22   0.155061
23   0.153656
24   0.173833
25   0.157658
26   0.155463
27   0.155205
28   0.151491
29   0.153265
30   0.15662
31   0.148353
32   0.15057
33   0.150412

$$$$

