PCCDB-ID:  71291
public computational chemistry database (PCCDB) project, http://pccdb.org

 32 32  0  0  1  0  0  0  0  0999 V2000
    2.2919   -1.8222   -0.6728 C   0  0  0  0  0  0  0  0  0  0  0  0
    1.1763   -1.0186    4.2691 C   0  0  0  0  0  0  0  0  0  0  0  0
    2.5905    1.9311   -0.7851 C   0  0  0  0  0  0  0  0  0  0  0  0
    6.9852   -2.6070    1.0865 C   0  0  0  0  0  0  0  0  0  0  0  0
    6.9552   -1.2608    0.7250 C   0  0  0  0  0  0  0  0  0  0  0  0
    5.8120   -3.2282    1.5206 C   0  0  0  0  0  0  0  0  0  0  0  0
    5.7589   -0.5457    0.8051 C   0  0  0  0  0  0  0  0  0  0  0  0
    4.6135   -2.5178    1.5855 C   0  0  0  0  0  0  0  0  0  0  0  0
    2.3780   -0.4375   -0.0254 C   0  0  1  0  0  0  0  0  0  0  0  0
    1.7623   -1.3475    2.9120 C   0  0  0  0  0  0  0  0  0  0  0  0
    4.5709   -1.1615    1.2263 C   0  0  0  0  0  0  0  0  0  0  0  0
    3.3077   -0.3217    1.2410 C   0  0  2  0  0  0  0  0  0  0  0  0
    2.7683    0.5157   -1.0691 N   0  0  0  0  0  0  0  0  0  0  0  0
    1.5101   -2.3568    2.2874 O   0  0  0  0  0  0  0  0  0  0  0  0
    2.5988   -0.3661    2.5272 O   0  0  0  0  0  0  0  0  0  0  0  0
    1.9646   -2.5763    0.0422 H   0  0  0  0  0  0  0  0  0  0  0  0
    3.2645   -2.1248   -1.0781 H   0  0  0  0  0  0  0  0  0  0  0  0
    1.5826   -1.7744   -1.5044 H   0  0  0  0  0  0  0  0  0  0  0  0
    0.4457   -1.7805    4.5428 H   0  0  0  0  0  0  0  0  0  0  0  0
    0.7047   -0.0312    4.2530 H   0  0  0  0  0  0  0  0  0  0  0  0
    1.9741   -0.9862    5.0190 H   0  0  0  0  0  0  0  0  0  0  0  0
    2.8943    2.5105   -1.6634 H   0  0  0  0  0  0  0  0  0  0  0  0
    3.1487    2.3286    0.0838 H   0  0  0  0  0  0  0  0  0  0  0  0
    1.5270    2.1313   -0.6075 H   0  0  0  0  0  0  0  0  0  0  0  0
    7.9151   -3.1672    1.0357 H   0  0  0  0  0  0  0  0  0  0  0  0
    7.8624   -0.7606    0.3964 H   0  0  0  0  0  0  0  0  0  0  0  0
    5.8268   -4.2766    1.8069 H   0  0  0  0  0  0  0  0  0  0  0  0
    5.7519    0.5119    0.5491 H   0  0  0  0  0  0  0  0  0  0  0  0
    3.7078   -3.0153    1.9113 H   0  0  0  0  0  0  0  0  0  0  0  0
    1.3769   -0.1363    0.3104 H   0  0  0  0  0  0  0  0  0  0  0  0
    3.6314    0.7204    1.2648 H   0  0  0  0  0  0  0  0  0  0  0  0
    3.7151    0.3188   -1.3878 H   0  0  0  0  0  0  0  0  0  0  0  0
  1  9  1  0  0  0  0
  1 16  1  0  0  0  0
  2 19  1  0  0  0  0
  2 21  1  0  0  0  0
  3 24  1  0  0  0  0
  3 23  1  0  0  0  0
  4  6  2  0  0  0  0
  5  7  2  0  0  0  0
  5  4  1  0  0  0  0
  6  8  1  0  0  0  0
  6 27  1  0  0  0  0
  7 11  1  0  0  0  0
  8 29  1  0  0  0  0
  9 30  1  1  0  0  0
  9 12  1  0  0  0  0
 10  2  1  0  0  0  0
 11 12  1  0  0  0  0
 11  8  2  0  0  0  0
 12 31  1  6  0  0  0
 12 15  1  0  0  0  0
 13  3  1  0  0  0  0
 13  9  1  0  0  0  0
 14 10  2  0  0  0  0
 15 10  1  0  0  0  0
 17  1  1  0  0  0  0
 18  1  1  0  0  0  0
 20  2  1  0  0  0  0
 22  3  1  0  0  0  0
 25  4  1  0  0  0  0
 26  5  1  0  0  0  0
 28  7  1  0  0  0  0
 32 13  1  0  0  0  0
M  END
>  <HBA>
3

>  <HBD>
1

>  <TPSA>
38.33

>  <cid>
71291

>  <dipole>
2.29

>  <excitation_energy_1>
4.861

>  <excitation_energy_2>
5.006

>  <excitation_energy_3>
5.296

>  <excitation_energy_4>
5.351

>  <homo_energy>
-5.872

>  <homo_lumo_gap>
5.636

>  <logP>
2.29

>  <lumo_energy>
-0.237

>  <melting_point>
43.45

>  <molecular_refractivity>
59.53

>  <oscillator_strength_1>
0.0203

>  <oscillator_strength_2>
0.0115

>  <oscillator_strength_3>
0.0029

>  <oscillator_strength_4>
0.0081

>  <open_babel_can_smiles>
CN[C@H]([C@H](c1ccccc1)OC(=O)C)C

>  <mulliken_charges>
32
1   -0.45788
2   -0.519419
3   -0.304534
4   -0.1262
5   -0.12786
6   -0.134538
7   -0.194744
8   -0.181768
9   0.019213
10   0.612309
11   0.147201
12   0.029647
13   -0.541494
14   -0.473343
15   -0.47589
16   0.186959
17   0.139196
18   0.150984
19   0.180895
20   0.179141
21   0.183904
22   0.152742
23   0.121428
24   0.15485
25   0.131068
26   0.130535
27   0.133646
28   0.12444
29   0.170547
30   0.139343
31   0.153788
32   0.295835

>  <lowdin_charges>
32
1   -0.459178
2   -0.465233
3   -0.362467
4   -0.15569
5   -0.157893
6   -0.151407
7   -0.170058
8   -0.159952
9   -0.064413
10   0.202459
11   -0.017428
12   -0.006227
13   -0.35536
14   -0.271463
15   -0.195625
16   0.171347
17   0.147912
18   0.157126
19   0.175111
20   0.175588
21   0.179581
22   0.15455
23   0.118588
24   0.148601
25   0.158687
26   0.158761
27   0.157846
28   0.151572
29   0.176998
30   0.146922
31   0.157738
32   0.253007

$$$$

