PCCDB-ID:  58297
public computational chemistry database (PCCDB) project, http://pccdb.org

 28 29  0  0  0  0  0  0  0  0999 V2000
    5.6969    2.1645    1.3061 C   0  0  0  0  0  0  0  0  0  0  0  0
    3.7524    0.7094    0.8163 C   0  0  0  0  0  0  0  0  0  0  0  0
    6.9593   -3.1027   -6.4690 C   0  0  0  0  0  0  0  0  0  0  0  0
    7.4594   -1.9792   -7.1749 C   0  0  0  0  0  0  0  0  0  0  0  0
    6.3744   -2.9475   -5.2326 C   0  0  0  0  0  0  0  0  0  0  0  0
    7.3632   -0.7174   -6.6317 C   0  0  0  0  0  0  0  0  0  0  0  0
    5.6883   -1.4348   -3.3704 C   0  0  0  0  0  0  0  0  0  0  0  0
    6.1304    0.9045   -3.6757 C   0  0  0  0  0  0  0  0  0  0  0  0
    5.5512    0.9648   -0.8207 C   0  0  0  0  0  0  0  0  0  0  0  0
    6.2650   -1.6590   -4.6415 C   0  0  0  0  0  0  0  0  0  0  0  0
    5.6318   -0.1536   -2.8485 C   0  0  0  0  0  0  0  0  0  0  0  0
    6.7663   -0.5251   -5.3587 C   0  0  0  0  0  0  0  0  0  0  0  0
    6.6751    0.7433   -4.8610 N   0  0  0  0  0  0  0  0  0  0  0  0
    5.0517    0.0671   -1.5975 N   0  0  0  0  0  0  0  0  0  0  0  0
    4.9762    1.3426    0.3537 N   0  0  0  0  0  0  0  0  0  0  0  0
    6.0565    1.5759    2.1634 H   0  0  0  0  0  0  0  0  0  0  0  0
    5.0477    2.9618    1.6886 H   0  0  0  0  0  0  0  0  0  0  0  0
    6.5603    2.6267    0.8200 H   0  0  0  0  0  0  0  0  0  0  0  0
    3.9619   -0.0623    1.5711 H   0  0  0  0  0  0  0  0  0  0  0  0
    3.2586    0.2419   -0.0354 H   0  0  0  0  0  0  0  0  0  0  0  0
    3.0938    1.4634    1.2628 H   0  0  0  0  0  0  0  0  0  0  0  0
    7.0392   -4.0922   -6.9113 H   0  0  0  0  0  0  0  0  0  0  0  0
    7.9195   -2.1201   -8.1492 H   0  0  0  0  0  0  0  0  0  0  0  0
    5.9905   -3.8080   -4.6893 H   0  0  0  0  0  0  0  0  0  0  0  0
    7.7340    0.1607   -7.1517 H   0  0  0  0  0  0  0  0  0  0  0  0
    5.2976   -2.2655   -2.7882 H   0  0  0  0  0  0  0  0  0  0  0  0
    6.0327    1.9325   -3.3239 H   0  0  0  0  0  0  0  0  0  0  0  0
    6.4844    1.5003   -1.0376 H   0  0  0  0  0  0  0  0  0  0  0  0
  1 17  1  0  0  0  0
  1 16  1  0  0  0  0
  2 21  1  0  0  0  0
  2 19  1  0  0  0  0
  3  5  2  0  0  0  0
  4  6  2  0  0  0  0
  4  3  1  0  0  0  0
  5 24  1  0  0  0  0
  5 10  1  0  0  0  0
  6 12  1  0  0  0  0
  7 11  1  0  0  0  0
  7 26  1  0  0  0  0
  8 27  1  0  0  0  0
  8 11  2  0  0  0  0
  9 15  1  0  0  0  0
 10  7  2  0  0  0  0
 11 14  1  0  0  0  0
 12 13  2  0  0  0  0
 12 10  1  0  0  0  0
 13  8  1  0  0  0  0
 14  9  2  0  0  0  0
 15  2  1  0  0  0  0
 15  1  1  0  0  0  0
 18  1  1  0  0  0  0
 20  2  1  0  0  0  0
 22  3  1  0  0  0  0
 23  4  1  0  0  0  0
 25  6  1  0  0  0  0
 28  9  1  0  0  0  0
M  END
>  <HBA>
3

>  <HBD>
0

>  <TPSA>
28.49

>  <cid>
58297

>  <dipole>
4.27

>  <excitation_energy_1>
3.797

>  <excitation_energy_2>
4.11

>  <excitation_energy_3>
4.283

>  <excitation_energy_4>
4.699

>  <homo_energy>
-5.382

>  <homo_lumo_gap>
4.31

>  <logP>
2.456

>  <lumo_energy>
-1.072

>  <melting_point>
90.7

>  <molecular_refractivity>
63.46

>  <oscillator_strength_1>
0.137

>  <oscillator_strength_2>
0.0079

>  <oscillator_strength_3>
0.1255

>  <oscillator_strength_4>
0.5716

>  <open_babel_can_smiles>
CN(/C=N/c1cnc2c(c1)cccc2)C

>  <mulliken_charges>
28
1   -0.311304
2   -0.315218
3   -0.133489
4   -0.142462
5   -0.19949
6   -0.13989
7   -0.199814
8   0.005839
9   0.265562
10   0.163982
11   0.267472
12   0.229756
13   -0.504024
14   -0.542798
15   -0.3698
16   0.159968
17   0.163199
18   0.167596
19   0.155635
20   0.206011
21   0.153125
22   0.128062
23   0.128381
24   0.12823
25   0.138101
26   0.134432
27   0.128926
28   0.134009

>  <lowdin_charges>
28
1   -0.349382
2   -0.356304
3   -0.156784
4   -0.160955
5   -0.163084
6   -0.152628
7   -0.155476
8   -0.117201
9   -0.022151
10   -0.011285
11   0.024281
12   0.030268
13   -0.146401
14   -0.227364
15   -0.085428
16   0.149493
17   0.155613
18   0.163387
19   0.150124
20   0.185352
21   0.153844
22   0.157115
23   0.157405
24   0.15765
25   0.16747
26   0.16485
27   0.149628
28   0.137963

$$$$

