PCCDB-ID:  62433
public computational chemistry database (PCCDB) project, http://pccdb.org

 32 31  0  0  0  0  0  0  0  0999 V2000
   10.2777    0.6482    2.3252 C   0  0  0  0  0  0  0  0  0  0  0  0
    0.2241    4.9309   -2.1483 C   0  0  0  0  0  0  0  0  0  0  0  0
    8.8414    0.6972    1.7946 C   0  0  0  0  0  0  0  0  0  0  0  0
    1.2263    3.8157   -2.4624 C   0  0  0  0  0  0  0  0  0  0  0  0
    8.7128    1.4616    0.4705 C   0  0  0  0  0  0  0  0  0  0  0  0
    2.6017    4.0520   -1.8268 C   0  0  0  0  0  0  0  0  0  0  0  0
    7.2758    1.5026   -0.0660 C   0  0  0  0  0  0  0  0  0  0  0  0
    3.6001    2.9377   -2.1463 C   0  0  0  0  0  0  0  0  0  0  0  0
    7.1734    2.2718   -1.3792 C   0  0  0  0  0  0  0  0  0  0  0  0
    4.9561    3.1439   -1.4983 C   0  0  0  0  0  0  0  0  0  0  0  0
    5.2287    4.0152   -0.7000 O   0  0  0  0  0  0  0  0  0  0  0  0
    5.8375    2.2109   -1.9310 O   0  0  0  0  0  0  0  0  0  0  0  0
   10.3352    0.0966    3.2703 H   0  0  0  0  0  0  0  0  0  0  0  0
   10.6691    1.6571    2.5041 H   0  0  0  0  0  0  0  0  0  0  0  0
   10.9482    0.1554    1.6104 H   0  0  0  0  0  0  0  0  0  0  0  0
   -0.7494    4.7356   -2.6122 H   0  0  0  0  0  0  0  0  0  0  0  0
    0.5817    5.8998   -2.5175 H   0  0  0  0  0  0  0  0  0  0  0  0
    0.0655    5.0277   -1.0673 H   0  0  0  0  0  0  0  0  0  0  0  0
    8.1884    1.1642    2.5451 H   0  0  0  0  0  0  0  0  0  0  0  0
    8.4652   -0.3266    1.6589 H   0  0  0  0  0  0  0  0  0  0  0  0
    1.3381    3.7204   -3.5521 H   0  0  0  0  0  0  0  0  0  0  0  0
    0.8242    2.8532   -2.1144 H   0  0  0  0  0  0  0  0  0  0  0  0
    9.3725    0.9991   -0.2791 H   0  0  0  0  0  0  0  0  0  0  0  0
    9.0814    2.4886    0.6091 H   0  0  0  0  0  0  0  0  0  0  0  0
    2.5007    4.1438   -0.7384 H   0  0  0  0  0  0  0  0  0  0  0  0
    3.0097    5.0116   -2.1699 H   0  0  0  0  0  0  0  0  0  0  0  0
    6.6162    1.9764    0.6712 H   0  0  0  0  0  0  0  0  0  0  0  0
    6.9051    0.4810   -0.2236 H   0  0  0  0  0  0  0  0  0  0  0  0
    3.7522    2.8346   -3.2285 H   0  0  0  0  0  0  0  0  0  0  0  0
    3.2192    1.9623   -1.8119 H   0  0  0  0  0  0  0  0  0  0  0  0
    7.8090    1.8260   -2.1498 H   0  0  0  0  0  0  0  0  0  0  0  0
    7.4524    3.3202   -1.2429 H   0  0  0  0  0  0  0  0  0  0  0  0
  1 14  1  0  0  0  0
  1 13  1  0  0  0  0
  2 18  1  0  0  0  0
  3  1  1  0  0  0  0
  3 19  1  0  0  0  0
  4  2  1  0  0  0  0
  4 22  1  0  0  0  0
  4  6  1  0  0  0  0
  5 24  1  0  0  0  0
  5  3  1  0  0  0  0
  6 25  1  0  0  0  0
  7  5  1  0  0  0  0
  7 27  1  0  0  0  0
  8  6  1  0  0  0  0
  8 30  1  0  0  0  0
  8 10  1  0  0  0  0
  9 32  1  0  0  0  0
  9  7  1  0  0  0  0
 10 11  2  0  0  0  0
 12 10  1  0  0  0  0
 12  9  1  0  0  0  0
 15  1  1  0  0  0  0
 16  2  1  0  0  0  0
 17  2  1  0  0  0  0
 20  3  1  0  0  0  0
 21  4  1  0  0  0  0
 23  5  1  0  0  0  0
 26  6  1  0  0  0  0
 28  7  1  0  0  0  0
 29  8  1  0  0  0  0
 31  9  1  0  0  0  0
M  END
>  <HBA>
2

>  <HBD>
0

>  <TPSA>
26.3

>  <cid>
62433

>  <dipole>
1.56

>  <excitation_energy_1>
5.839

>  <excitation_energy_2>
7.031

>  <excitation_energy_3>
7.422

>  <excitation_energy_4>
7.475

>  <homo_energy>
-7.241

>  <homo_lumo_gap>
7.739

>  <logP>
2.91

>  <lumo_energy>
0.498

>  <melting_point>
-16.78

>  <molecular_refractivity>
51.47

>  <oscillator_strength_1>
0.0005

>  <oscillator_strength_2>
0.0185

>  <oscillator_strength_3>
0.0544

>  <oscillator_strength_4>
0.0287

>  <open_babel_can_smiles>
CCCCCOC(=O)CCCC

>  <mulliken_charges>
32
1   -0.442705
2   -0.44186
3   -0.246652
4   -0.251114
5   -0.257371
6   -0.241465
7   -0.278148
8   -0.363007
9   -0.04423
10   0.623454
11   -0.481719
12   -0.471011
13   0.143866
14   0.143579
15   0.141592
16   0.142246
17   0.144103
18   0.144483
19   0.13594
20   0.131962
21   0.130096
22   0.129846
23   0.128325
24   0.136302
25   0.150035
26   0.14468
27   0.158487
28   0.140354
29   0.167668
30   0.169299
31   0.146771
32   0.166195

>  <lowdin_charges>
32
1   -0.445045
2   -0.441406
3   -0.270887
4   -0.270431
5   -0.274587
6   -0.269051
7   -0.28729
8   -0.298992
9   -0.13186
10   0.197455
11   -0.269464
12   -0.198411
13   0.150434
14   0.146829
15   0.147648
16   0.149361
17   0.147642
18   0.146318
19   0.142987
20   0.138799
21   0.136427
22   0.138229
23   0.139043
24   0.14084
25   0.149101
26   0.148273
27   0.155878
28   0.144517
29   0.164247
30   0.167005
31   0.151022
32   0.15537

$$$$

