PCCDB-ID:  69589
public computational chemistry database (PCCDB) project, http://pccdb.org

 29 30  0  0  0  0  0  0  0  0999 V2000
    0.5401    1.3637   -0.4291 C   0  0  0  0  0  0  0  0  0  0  0  0
   -0.9702    1.0942   -0.3853 C   0  0  0  0  0  0  0  0  0  0  0  0
    1.2661    0.4880    0.5963 C   0  0  0  0  0  0  0  0  0  0  0  0
   -1.3029   -0.3749   -0.2773 C   0  0  0  0  0  0  0  0  0  0  0  0
    1.0506   -1.0002    0.2874 C   0  0  0  0  0  0  0  0  0  0  0  0
    0.0745   -3.6963   -0.4103 C   0  0  0  0  0  0  0  0  0  0  0  0
   -2.1747   -3.0449    0.1819 C   0  0  0  0  0  0  0  0  0  0  0  0
   -0.2210   -5.0858    0.1487 C   0  0  0  0  0  0  0  0  0  0  0  0
   -2.3920   -4.4601    0.7150 C   0  0  0  0  0  0  0  0  0  0  0  0
   -0.4132   -1.3343    0.0462 C   0  0  0  0  0  0  0  0  0  0  0  0
   -0.7604   -2.6911    0.2623 N   0  0  0  0  0  0  0  0  0  0  0  0
   -1.5968   -5.4138    0.0253 O   0  0  0  0  0  0  0  0  0  0  0  0
    0.7420    2.4262   -0.2461 H   0  0  0  0  0  0  0  0  0  0  0  0
    0.9247    1.1351   -1.4330 H   0  0  0  0  0  0  0  0  0  0  0  0
   -1.4507    1.5132   -1.2808 H   0  0  0  0  0  0  0  0  0  0  0  0
   -1.4161    1.6387    0.4640 H   0  0  0  0  0  0  0  0  0  0  0  0
    0.8811    0.7097    1.6013 H   0  0  0  0  0  0  0  0  0  0  0  0
    2.3402    0.7110    0.6111 H   0  0  0  0  0  0  0  0  0  0  0  0
   -2.3431   -0.6339   -0.4520 H   0  0  0  0  0  0  0  0  0  0  0  0
    1.4241   -1.6138    1.1173 H   0  0  0  0  0  0  0  0  0  0  0  0
    1.6525   -1.2724   -0.5930 H   0  0  0  0  0  0  0  0  0  0  0  0
   -0.1100   -3.6983   -1.5003 H   0  0  0  0  0  0  0  0  0  0  0  0
    1.1309   -3.4656   -0.2508 H   0  0  0  0  0  0  0  0  0  0  0  0
   -2.7491   -2.3417    0.7939 H   0  0  0  0  0  0  0  0  0  0  0  0
   -2.5551   -2.9804   -0.8543 H   0  0  0  0  0  0  0  0  0  0  0  0
    0.0849   -5.1285    1.2076 H   0  0  0  0  0  0  0  0  0  0  0  0
    0.3331   -5.8475   -0.4085 H   0  0  0  0  0  0  0  0  0  0  0  0
   -3.4340   -4.7633    0.5742 H   0  0  0  0  0  0  0  0  0  0  0  0
   -2.1597   -4.4847    1.7927 H   0  0  0  0  0  0  0  0  0  0  0  0
  1  2  1  0  0  0  0
  1 13  1  0  0  0  0
  1  3  1  0  0  0  0
  2  4  1  0  0  0  0
  2 16  1  0  0  0  0
  3 18  1  0  0  0  0
  3 17  1  0  0  0  0
  4 10  2  0  0  0  0
  5  3  1  0  0  0  0
  5 20  1  0  0  0  0
  6 23  1  0  0  0  0
  6  8  1  0  0  0  0
  6 11  1  0  0  0  0
  7 11  1  0  0  0  0
  7  9  1  0  0  0  0
  7 24  1  0  0  0  0
  8 26  1  0  0  0  0
  9 29  1  0  0  0  0
 10 11  1  0  0  0  0
 10  5  1  0  0  0  0
 12  8  1  0  0  0  0
 12  9  1  0  0  0  0
 14  1  1  0  0  0  0
 15  2  1  0  0  0  0
 19  4  1  0  0  0  0
 21  5  1  0  0  0  0
 22  6  1  0  0  0  0
 25  7  1  0  0  0  0
 27  8  1  0  0  0  0
 28  9  1  0  0  0  0
M  END
>  <HBA>
2

>  <HBD>
0

>  <TPSA>
12.47

>  <cid>
69589

>  <dipole>
0.97

>  <excitation_energy_1>
4.74

>  <excitation_energy_2>
5.089

>  <excitation_energy_3>
5.142

>  <excitation_energy_4>
5.251

>  <homo_energy>
-5.162

>  <homo_lumo_gap>
6.321

>  <logP>
1.714

>  <lumo_energy>
1.159

>  <melting_point>
22.83

>  <molecular_refractivity>
53.38

>  <oscillator_strength_1>
0.004

>  <oscillator_strength_2>
0.0656

>  <oscillator_strength_3>
0.0044

>  <oscillator_strength_4>
0.0553

>  <open_babel_can_smiles>
O1CCN(CC1)C1=CCCCC1

>  <mulliken_charges>
29
1   -0.261235
2   -0.290234
3   -0.265046
4   -0.210715
5   -0.339864
6   -0.147574
7   -0.13707
8   -0.03161
9   -0.035697
10   0.345583
11   -0.476915
12   -0.466219
13   0.128903
14   0.132727
15   0.135383
16   0.136139
17   0.138192
18   0.128751
19   0.114083
20   0.146778
21   0.144958
22   0.133636
23   0.150611
24   0.150737
25   0.130904
26   0.126578
27   0.145172
28   0.145316
29   0.127727

>  <lowdin_charges>
29
1   -0.273436
2   -0.271582
3   -0.269536
4   -0.246364
5   -0.284122
6   -0.208161
7   -0.215245
8   -0.137756
9   -0.134227
10   0.029479
11   -0.150326
12   -0.272347
13   0.141309
14   0.139223
15   0.146771
16   0.142397
17   0.141936
18   0.141031
19   0.149675
20   0.152127
21   0.146786
22   0.128428
23   0.155229
24   0.15838
25   0.128468
26   0.129068
27   0.153361
28   0.150489
29   0.128942

$$$$

