PCCDB-ID:  28429
public computational chemistry database (PCCDB) project, http://pccdb.org

 15 15  0  0  1  0  0  0  0  0999 V2000
    1.0264   -0.2954    0.4262 C   0  0  0  0  0  0  0  0  0  0  0  0
    4.2654   -3.5760   -0.5803 C   0  0  0  0  0  0  0  0  0  0  0  0
    2.4028   -0.1272   -0.1819 C   0  0  0  0  0  0  0  0  0  0  0  0
    3.1610   -2.6251   -0.1956 C   0  0  2  0  0  0  0  0  0  0  0  0
    3.4284   -1.1955    0.0946 C   0  0  2  0  0  0  0  0  0  0  0  0
    2.7172    0.8306   -0.8646 O   0  0  0  0  0  0  0  0  0  0  0  0
    3.1573   -2.1369    1.1466 O   0  0  0  0  0  0  0  0  0  0  0  0
    1.1017   -0.2662    1.5195 H   0  0  0  0  0  0  0  0  0  0  0  0
    0.5875   -1.2667    0.1716 H   0  0  0  0  0  0  0  0  0  0  0  0
    0.3770    0.5090    0.0762 H   0  0  0  0  0  0  0  0  0  0  0  0
    4.3483   -3.6484   -1.6708 H   0  0  0  0  0  0  0  0  0  0  0  0
    4.0583   -4.5783   -0.1879 H   0  0  0  0  0  0  0  0  0  0  0  0
    5.2249   -3.2408   -0.1753 H   0  0  0  0  0  0  0  0  0  0  0  0
    2.1677   -2.8830   -0.5705 H   0  0  0  0  0  0  0  0  0  0  0  0
    4.4588   -0.8459    0.0264 H   0  0  0  0  0  0  0  0  0  0  0  0
  1  8  1  0  0  0  0
  2  4  1  0  0  0  0
  2 12  1  0  0  0  0
  2 13  1  0  0  0  0
  3  5  1  0  0  0  0
  3  1  1  0  0  0  0
  4 14  1  6  0  0  0
  4  5  1  0  0  0  0
  4  7  1  0  0  0  0
  5 15  1  6  0  0  0
  5  7  1  0  0  0  0
  6  3  2  0  0  0  0
  9  1  1  0  0  0  0
 10  1  1  0  0  0  0
 11  2  1  0  0  0  0
M  END
>  <HBA>
2

>  <HBD>
0

>  <TPSA>
29.6

>  <cid>
28429

>  <dipole>
2.42

>  <excitation_energy_1>
4.249

>  <excitation_energy_2>
5.989

>  <excitation_energy_3>
6.443

>  <excitation_energy_4>
6.798

>  <homo_energy>
-6.768

>  <homo_lumo_gap>
6.038

>  <logP>
0.363

>  <lumo_energy>
-0.729

>  <melting_point>
9.12

>  <molecular_refractivity>
25.32

>  <oscillator_strength_1>
0.0001

>  <oscillator_strength_2>
0.0066

>  <oscillator_strength_3>
0.0321

>  <oscillator_strength_4>
0.1255

>  <open_babel_can_smiles>
CC(=O)[C@H]1O[C@@H]1C

>  <mulliken_charges>
15
1   -0.529582
2   -0.467982
3   0.440858
4   0.100034
5   0.003705
6   -0.443561
7   -0.446892
8   0.189823
9   0.169625
10   0.178581
11   0.161364
12   0.16702
13   0.167106
14   0.146781
15   0.163119

>  <lowdin_charges>
15
1   -0.471314
2   -0.44219
3   0.15461
4   -0.007574
5   -0.05767
6   -0.230562
7   -0.274703
8   0.180808
9   0.170195
10   0.173986
11   0.16215
12   0.163785
13   0.164866
14   0.147952
15   0.165662

$$$$

