PCCDB-ID:  19388
public computational chemistry database (PCCDB) project, http://pccdb.org

 12 11  0  0  0  0  0  0  0  0999 V2000
    0.7137    0.0803   -0.0373 C   0  0  0  0  0  0  0  0  0  0  0  0
    0.1510    1.4220   -0.5183 C   0  0  0  0  0  0  0  0  0  0  0  0
    2.9793    0.0331    1.0625 C   0  0  0  0  0  0  0  0  0  0  0  0
    0.2772    3.5843    0.7639 C   0  0  0  0  0  0  0  0  0  0  0  0
    2.1170    0.1618    0.2411 N   0  0  0  0  0  0  0  0  0  0  0  0
    0.2013    2.4159    0.5128 N   0  0  0  0  0  0  0  0  0  0  0  0
    4.2060   -0.1159    2.0590 S   0  0  0  0  0  0  0  0  0  0  0  0
    0.3657    5.1031    1.2173 S   0  0  0  0  0  0  0  0  0  0  0  0
    0.5529   -0.6592   -0.8307 H   0  0  0  0  0  0  0  0  0  0  0  0
    0.1719   -0.2529    0.8559 H   0  0  0  0  0  0  0  0  0  0  0  0
   -0.8934    1.2668   -0.8181 H   0  0  0  0  0  0  0  0  0  0  0  0
    0.7111    1.7662   -1.3962 H   0  0  0  0  0  0  0  0  0  0  0  0
  1  5  1  0  0  0  0
  1 10  1  0  0  0  0
  2  1  1  0  0  0  0
  2  6  1  0  0  0  0
  3  7  2  0  0  0  0
  4  8  2  0  0  0  0
  5  3  2  0  0  0  0
  6  4  2  0  0  0  0
  9  1  1  0  0  0  0
 11  2  1  0  0  0  0
 12  2  1  0  0  0  0
M  END
>  <HBA>
4

>  <HBD>
0

>  <TPSA>
88.9

>  <cid>
19388

>  <dipole>
4.69

>  <excitation_energy_1>
4.468

>  <excitation_energy_2>
4.479

>  <excitation_energy_3>
5.073

>  <excitation_energy_4>
5.083

>  <homo_energy>
-6.912

>  <homo_lumo_gap>
5.938

>  <logP>
1.192

>  <lumo_energy>
-0.974

>  <melting_point>
73.59

>  <molecular_refractivity>
39.67

>  <oscillator_strength_1>
0.0003

>  <oscillator_strength_2>
0.0001

>  <oscillator_strength_3>
0.0161

>  <oscillator_strength_4>
0.0132

>  <open_babel_can_smiles>
S=C=NCCN=C=S

>  <mulliken_charges>
12
1   -0.15728
2   -0.151401
3   0.221848
4   0.220872
5   -0.346188
6   -0.347421
7   -0.096604
8   -0.095869
9   0.183804
10   0.1916
11   0.183854
12   0.192785

>  <lowdin_charges>
12
1   -0.172911
2   -0.171945
3   -0.037255
4   -0.042833
5   -0.118162
6   -0.114064
7   -0.015489
8   -0.0112
9   0.170934
10   0.171474
11   0.169218
12   0.172234

$$$$

