PCCDB-ID:  21088
public computational chemistry database (PCCDB) project, http://pccdb.org

 29 28  0  0  0  0  0  0  0  0999 V2000
    2.4890   -1.3107    0.2295 C   0  0  0  0  0  0  0  0  0  0  0  0
    2.3223   -0.9493    1.7079 C   0  0  0  0  0  0  0  0  0  0  0  0
    3.1079   -0.1550   -0.5787 C   0  0  0  0  0  0  0  0  0  0  0  0
    2.2105   -0.7239   -2.8200 C   0  0  0  0  0  0  0  0  0  0  0  0
    4.5599   -1.2637   -2.2265 C   0  0  0  0  0  0  0  0  0  0  0  0
    1.3505    0.5314   -3.0137 C   0  0  0  0  0  0  0  0  0  0  0  0
    5.8483   -0.4427   -2.2778 C   0  0  0  0  0  0  0  0  0  0  0  0
    1.7605   -2.0809    2.4545 N   0  0  0  0  0  0  0  0  0  0  0  0
    3.3883   -0.4105   -2.0012 N   0  0  0  0  0  0  0  0  0  0  0  0
    2.1441    1.6099   -3.4691 O   0  0  0  0  0  0  0  0  0  0  0  0
    6.9223   -1.3600   -2.4478 O   0  0  0  0  0  0  0  0  0  0  0  0
    1.5050   -1.5725   -0.1839 H   0  0  0  0  0  0  0  0  0  0  0  0
    3.1084   -2.2126    0.1608 H   0  0  0  0  0  0  0  0  0  0  0  0
    1.7285   -0.0188    1.7885 H   0  0  0  0  0  0  0  0  0  0  0  0
    3.3071   -0.7262    2.1392 H   0  0  0  0  0  0  0  0  0  0  0  0
    4.0549    0.1400   -0.1105 H   0  0  0  0  0  0  0  0  0  0  0  0
    2.4551    0.7242   -0.5106 H   0  0  0  0  0  0  0  0  0  0  0  0
    2.5756   -1.0364   -3.8035 H   0  0  0  0  0  0  0  0  0  0  0  0
    1.5967   -1.5493   -2.4205 H   0  0  0  0  0  0  0  0  0  0  0  0
    4.6705   -2.0456   -1.4600 H   0  0  0  0  0  0  0  0  0  0  0  0
    4.4529   -1.7822   -3.1842 H   0  0  0  0  0  0  0  0  0  0  0  0
    0.8267    0.7893   -2.0767 H   0  0  0  0  0  0  0  0  0  0  0  0
    0.5786    0.3332   -3.7666 H   0  0  0  0  0  0  0  0  0  0  0  0
    5.9644    0.1422   -1.3510 H   0  0  0  0  0  0  0  0  0  0  0  0
    5.7830    0.2724   -3.1127 H   0  0  0  0  0  0  0  0  0  0  0  0
    0.8025   -2.2482    2.1475 H   0  0  0  0  0  0  0  0  0  0  0  0
    1.6985   -1.8440    3.4436 H   0  0  0  0  0  0  0  0  0  0  0  0
    3.0055    1.4663   -3.0309 H   0  0  0  0  0  0  0  0  0  0  0  0
    7.7464   -0.8529   -2.4907 H   0  0  0  0  0  0  0  0  0  0  0  0
  1  2  1  0  0  0  0
  2 14  1  0  0  0  0
  2 15  1  0  0  0  0
  2  8  1  0  0  0  0
  3 17  1  0  0  0  0
  3 16  1  0  0  0  0
  3  1  1  0  0  0  0
  4 19  1  0  0  0  0
  4  9  1  0  0  0  0
  5  9  1  0  0  0  0
  5 20  1  0  0  0  0
  6  4  1  0  0  0  0
  6 22  1  0  0  0  0
  7  5  1  0  0  0  0
  7 24  1  0  0  0  0
  8 27  1  0  0  0  0
  9  3  1  0  0  0  0
 10 28  1  0  0  0  0
 10  6  1  0  0  0  0
 11  7  1  0  0  0  0
 12  1  1  0  0  0  0
 13  1  1  0  0  0  0
 18  4  1  0  0  0  0
 21  5  1  0  0  0  0
 23  6  1  0  0  0  0
 25  7  1  0  0  0  0
 26  8  1  0  0  0  0
 29 11  1  0  0  0  0
M  END
>  <HBA>
4

>  <HBD>
3

>  <TPSA>
69.72

>  <cid>
21088

>  <dipole>
1.98

>  <excitation_energy_1>
5.336

>  <excitation_energy_2>
5.45

>  <excitation_energy_3>
5.628

>  <excitation_energy_4>
5.714

>  <homo_energy>
-5.943

>  <homo_lumo_gap>
7.84

>  <logP>
-0.678

>  <lumo_energy>
1.897

>  <melting_point>
66.89

>  <molecular_refractivity>
43.69

>  <oscillator_strength_1>
0.008

>  <oscillator_strength_2>
0.0084

>  <oscillator_strength_3>
0.0116

>  <oscillator_strength_4>
0.0107

>  <open_babel_can_smiles>
NCCCN(CCO)CCO

>  <mulliken_charges>
29
1   -0.266022
2   -0.135645
3   -0.147197
4   -0.154208
5   -0.137864
6   -0.019419
7   -0.027282
8   -0.714284
9   -0.427751
10   -0.633281
11   -0.620631
12   0.130616
13   0.158867
14   0.112963
15   0.139558
16   0.140863
17   0.147788
18   0.151309
19   0.125968
20   0.146824
21   0.152859
22   0.114828
23   0.138619
24   0.119853
25   0.124972
26   0.292121
27   0.296429
28   0.39414
29   0.395007

>  <lowdin_charges>
29
1   -0.296611
2   -0.202503
3   -0.209228
4   -0.222926
5   -0.206086
6   -0.14218
7   -0.143239
8   -0.553749
9   -0.19017
10   -0.478809
11   -0.472627
12   0.138277
13   0.153384
14   0.116031
15   0.140673
16   0.144827
17   0.145896
18   0.151426
19   0.130745
20   0.140134
21   0.153922
22   0.119787
23   0.146356
24   0.124447
25   0.128568
26   0.249759
27   0.253548
28   0.333018
29   0.347331

$$$$

