PCCDB-ID:  25806
public computational chemistry database (PCCDB) project, http://pccdb.org

 20 19  0  0  0  0  0  0  0  0999 V2000
    1.3853    1.1512   -1.5746 C   0  0  0  0  0  0  0  0  0  0  0  0
    3.0340    1.3886    4.0631 C   0  0  0  0  0  0  0  0  0  0  0  0
    2.6595    1.1340    0.6304 C   0  0  0  0  0  0  0  0  0  0  0  0
    1.7670    1.4224    1.8544 C   0  0  0  0  0  0  0  0  0  0  0  0
    1.7139   -0.8762   -0.3779 N   0  0  0  0  0  0  0  0  0  0  0  0
    2.7226    3.4226    2.8729 N   0  0  0  0  0  0  0  0  0  0  0  0
    1.9224    0.4463   -0.4239 N   0  0  0  0  0  0  0  0  0  0  0  0
    2.5064    2.1012    2.9128 N   0  0  0  0  0  0  0  0  0  0  0  0
    2.1640   -1.4332    0.6229 O   0  0  0  0  0  0  0  0  0  0  0  0
    2.2781    3.9865    1.8735 O   0  0  0  0  0  0  0  0  0  0  0  0
    2.1879    1.6322   -2.1456 H   0  0  0  0  0  0  0  0  0  0  0  0
    0.6666    1.9183   -1.2643 H   0  0  0  0  0  0  0  0  0  0  0  0
    0.8819    0.4141   -2.2029 H   0  0  0  0  0  0  0  0  0  0  0  0
    3.7480    0.6172    3.7527 H   0  0  0  0  0  0  0  0  0  0  0  0
    2.2258    0.9117    4.6297 H   0  0  0  0  0  0  0  0  0  0  0  0
    3.5410    2.1198    4.6954 H   0  0  0  0  0  0  0  0  0  0  0  0
    3.4940    0.4905    0.9231 H   0  0  0  0  0  0  0  0  0  0  0  0
    3.0415    2.0720    0.2240 H   0  0  0  0  0  0  0  0  0  0  0  0
    1.3786    0.4849    2.2559 H   0  0  0  0  0  0  0  0  0  0  0  0
    0.9371    2.0723    1.5629 H   0  0  0  0  0  0  0  0  0  0  0  0
  1 12  1  0  0  0  0
  1  7  1  0  0  0  0
  2 15  1  0  0  0  0
  2 16  1  0  0  0  0
  3 17  1  0  0  0  0
  3  4  1  0  0  0  0
  4 19  1  0  0  0  0
  4  8  1  0  0  0  0
  5  9  1  0  0  0  0
  6  8  1  0  0  0  0
  7  5  1  0  0  0  0
  7  3  1  0  0  0  0
  8  2  1  0  0  0  0
 10  6  1  0  0  0  0
 11  1  1  0  0  0  0
 13  1  1  0  0  0  0
 14  2  1  0  0  0  0
 18  3  1  0  0  0  0
 20  4  1  0  0  0  0
M  RAD  4   5   2   6   2   9   2  10   2
M  END
>  <HBA>
6

>  <HBD>
0

>  <TPSA>
65.34

>  <cid>
25806

>  <dipole>
0.03

>  <excitation_energy_1>
3.392

>  <excitation_energy_2>
3.414

>  <excitation_energy_3>
4.625

>  <excitation_energy_4>
4.656

>  <homo_energy>
-6.242

>  <homo_lumo_gap>
5.102

>  <logP>
0.213

>  <lumo_energy>
-1.14

>  <melting_point>
18.14

>  <molecular_refractivity>
36.61

>  <oscillator_strength_1>
0.0024

>  <oscillator_strength_2>
0.0

>  <oscillator_strength_3>
0.0

>  <oscillator_strength_4>
0.0038

>  <open_babel_can_smiles>
[O][N]N(CCN([N][O])C)C

>  <mulliken_charges>
20
1   -0.314087
2   -0.314087
3   -0.153428
4   -0.153365
5   0.150776
6   0.150778
7   -0.208456
8   -0.208414
9   -0.388239
10   -0.388228
11   0.17261
12   0.1766
13   0.19362
14   0.176868
15   0.17255
16   0.193567
17   0.183462
18   0.187124
19   0.187007
20   0.183343

>  <lowdin_charges>
20
1   -0.3575
2   -0.357468
3   -0.222548
4   -0.22257
5   0.054848
6   0.054889
7   -0.03889
8   -0.038843
9   -0.282072
10   -0.282079
11   0.161503
12   0.162649
13   0.179542
14   0.162795
15   0.161458
16   0.179529
17   0.170178
18   0.172236
19   0.172211
20   0.170133

$$$$

