PCCDB-ID:  66283
public computational chemistry database (PCCDB) project, http://pccdb.org

 26 25  0  0  0  0  0  0  0  0999 V2000
    1.0758    0.3193    1.3260 C   0  0  0  0  0  0  0  0  0  0  0  0
    5.1119    1.5935    1.6859 C   0  0  0  0  0  0  0  0  0  0  0  0
    5.0803   -0.3734    0.2252 C   0  0  0  0  0  0  0  0  0  0  0  0
    4.4928    1.9092   -2.4218 C   0  0  0  0  0  0  0  0  0  0  0  0
    2.1369    1.3792   -2.6763 C   0  0  0  0  0  0  0  0  0  0  0  0
    1.9031    0.3015    0.1207 N   0  0  0  0  0  0  0  0  0  0  0  0
    4.6054    0.9841    0.4581 N   0  0  0  0  0  0  0  0  0  0  0  0
    3.3152    1.2887   -1.8065 N   0  0  0  0  0  0  0  0  0  0  0  0
    2.7032    2.7865    0.4509 O   0  0  0  0  0  0  0  0  0  0  0  0
    3.0932    1.4722   -0.1374 P   0  0  0  0  0  0  0  0  0  0  0  0
    1.5377   -0.1984    2.1797 H   0  0  0  0  0  0  0  0  0  0  0  0
    0.1070   -0.1494    1.1189 H   0  0  0  0  0  0  0  0  0  0  0  0
    0.9031    1.3603    1.6060 H   0  0  0  0  0  0  0  0  0  0  0  0
    6.2065    1.6672    1.6342 H   0  0  0  0  0  0  0  0  0  0  0  0
    4.8543    1.0022    2.5801 H   0  0  0  0  0  0  0  0  0  0  0  0
    4.6928    2.5937    1.7962 H   0  0  0  0  0  0  0  0  0  0  0  0
    6.1780   -0.3889    0.2197 H   0  0  0  0  0  0  0  0  0  0  0  0
    4.7347   -0.7279   -0.7492 H   0  0  0  0  0  0  0  0  0  0  0  0
    4.7401   -1.0791    1.0023 H   0  0  0  0  0  0  0  0  0  0  0  0
    4.7228    1.3853   -3.3576 H   0  0  0  0  0  0  0  0  0  0  0  0
    5.3487    1.8290   -1.7513 H   0  0  0  0  0  0  0  0  0  0  0  0
    4.3249    2.9717   -2.6554 H   0  0  0  0  0  0  0  0  0  0  0  0
    1.8911    2.4222   -2.9277 H   0  0  0  0  0  0  0  0  0  0  0  0
    1.2753    0.9257   -2.1861 H   0  0  0  0  0  0  0  0  0  0  0  0
    2.3391    0.8410   -3.6109 H   0  0  0  0  0  0  0  0  0  0  0  0
    2.1085   -0.6238   -0.2400 H   0  0  0  0  0  0  0  0  0  0  0  0
  1 13  1  0  0  0  0
  1 11  1  0  0  0  0
  2 16  1  0  0  0  0
  2 15  1  0  0  0  0
  3  7  1  0  0  0  0
  3 19  1  0  0  0  0
  4  8  1  0  0  0  0
  4 21  1  0  0  0  0
  5 24  1  0  0  0  0
  5  8  1  0  0  0  0
  6  1  1  0  0  0  0
  7  2  1  0  0  0  0
  8 10  1  0  0  0  0
 10  6  1  0  0  0  0
 10  9  2  0  0  0  0
 10  7  1  0  0  0  0
 12  1  1  0  0  0  0
 14  2  1  0  0  0  0
 17  3  1  0  0  0  0
 18  3  1  0  0  0  0
 20  4  1  0  0  0  0
 22  4  1  0  0  0  0
 23  5  1  0  0  0  0
 25  5  1  0  0  0  0
 26  6  1  0  0  0  0
M  END
>  <HBA>
4

>  <HBD>
1

>  <TPSA>
45.39

>  <cid>
66283

>  <dipole>
3.85

>  <excitation_energy_1>
5.122

>  <excitation_energy_2>
5.506

>  <excitation_energy_3>
5.8

>  <excitation_energy_4>
5.89

>  <homo_energy>
-5.962

>  <homo_lumo_gap>
7.638

>  <logP>
0.828

>  <lumo_energy>
1.676

>  <melting_point>
17.29

>  <molecular_refractivity>
43.41

>  <oscillator_strength_1>
0.0087

>  <oscillator_strength_2>
0.001

>  <oscillator_strength_3>
0.0099

>  <oscillator_strength_4>
0.0042

>  <open_babel_can_smiles>
CNP(=O)(N(C)C)N(C)C

>  <mulliken_charges>
26
1   -0.310783
2   -0.309205
3   -0.31221
4   -0.310739
5   -0.312421
6   -0.689727
7   -0.516153
8   -0.529693
9   -0.576601
10   1.172274
11   0.138894
12   0.149291
13   0.201469
14   0.141033
15   0.132222
16   0.203036
17   0.152113
18   0.166288
19   0.136826
20   0.144777
21   0.177594
22   0.153125
23   0.152813
24   0.178302
25   0.14394
26   0.323536

>  <lowdin_charges>
26
1   -0.350574
2   -0.348139
3   -0.354167
4   -0.352101
5   -0.353685
6   -0.521793
7   -0.344635
8   -0.341332
9   -0.618838
10   1.02614
11   0.136085
12   0.148209
13   0.179566
14   0.140448
15   0.132556
16   0.182728
17   0.147472
18   0.1605
19   0.134293
20   0.146291
21   0.169484
22   0.142264
23   0.142786
24   0.170125
25   0.145416
26   0.280902

$$$$

