PCCDB-ID:  11406
public computational chemistry database (PCCDB) project, http://pccdb.org

 22 22  0  0  0  0  0  0  0  0999 V2000
    4.2592    1.4558   -2.2554 C   0  0  0  0  0  0  0  0  0  0  0  0
    4.6040    0.3770   -1.5531 C   0  0  0  0  0  0  0  0  0  0  0  0
    4.2798   -6.6535   -2.4116 C   0  0  0  0  0  0  0  0  0  0  0  0
    3.3537   -5.6955   -2.8314 C   0  0  0  0  0  0  0  0  0  0  0  0
    5.2788   -6.3090   -1.4971 C   0  0  0  0  0  0  0  0  0  0  0  0
    3.4214   -4.3936   -2.3381 C   0  0  0  0  0  0  0  0  0  0  0  0
    5.3515   -5.0091   -1.0034 C   0  0  0  0  0  0  0  0  0  0  0  0
    3.6208   -0.4764   -0.8082 C   0  0  0  0  0  0  0  0  0  0  0  0
    4.4227   -4.0458   -1.4206 C   0  0  0  0  0  0  0  0  0  0  0  0
    4.5472   -2.6712   -0.8574 C   0  0  0  0  0  0  0  0  0  0  0  0
    5.4085   -2.3298   -0.0683 O   0  0  0  0  0  0  0  0  0  0  0  0
    3.5883   -1.8352   -1.3202 O   0  0  0  0  0  0  0  0  0  0  0  0
    4.9992    2.0685   -2.7629 H   0  0  0  0  0  0  0  0  0  0  0  0
    3.2221    1.7734   -2.3457 H   0  0  0  0  0  0  0  0  0  0  0  0
    5.6464    0.0757   -1.4726 H   0  0  0  0  0  0  0  0  0  0  0  0
    4.2229   -7.6682   -2.7970 H   0  0  0  0  0  0  0  0  0  0  0  0
    2.5774   -5.9638   -3.5426 H   0  0  0  0  0  0  0  0  0  0  0  0
    5.9996   -7.0537   -1.1708 H   0  0  0  0  0  0  0  0  0  0  0  0
    2.7071   -3.6442   -2.6597 H   0  0  0  0  0  0  0  0  0  0  0  0
    6.1189   -4.7173   -0.2941 H   0  0  0  0  0  0  0  0  0  0  0  0
    2.5998   -0.1104   -0.9369 H   0  0  0  0  0  0  0  0  0  0  0  0
    3.8671   -0.5204    0.2570 H   0  0  0  0  0  0  0  0  0  0  0  0
  1  2  2  0  0  0  0
  2 15  1  0  0  0  0
  2  8  1  0  0  0  0
  3  5  1  0  0  0  0
  4  3  2  0  0  0  0
  4  6  1  0  0  0  0
  5 18  1  0  0  0  0
  5  7  2  0  0  0  0
  6  9  2  0  0  0  0
  7 20  1  0  0  0  0
  8 22  1  0  0  0  0
  9  7  1  0  0  0  0
  9 10  1  0  0  0  0
 10 11  2  0  0  0  0
 12 10  1  0  0  0  0
 12  8  1  0  0  0  0
 13  1  1  0  0  0  0
 14  1  1  0  0  0  0
 16  3  1  0  0  0  0
 17  4  1  0  0  0  0
 19  6  1  0  0  0  0
 21  8  1  0  0  0  0
M  END
>  <HBA>
2

>  <HBD>
0

>  <TPSA>
26.3

>  <cid>
11406

>  <dipole>
1.8

>  <excitation_energy_1>
4.863

>  <excitation_energy_2>
4.909

>  <excitation_energy_3>
5.365

>  <excitation_energy_4>
5.414

>  <homo_energy>
-6.996

>  <homo_lumo_gap>
5.799

>  <logP>
2.029

>  <lumo_energy>
-1.197

>  <melting_point>
7.33

>  <molecular_refractivity>
46.86

>  <oscillator_strength_1>
0.0002

>  <oscillator_strength_2>
0.018

>  <oscillator_strength_3>
0.2387

>  <oscillator_strength_4>
0.0691

>  <open_babel_can_smiles>
C=CCOC(=O)c1ccccc1

>  <mulliken_charges>
22
1   -0.331204
2   -0.060567
3   -0.116634
4   -0.137069
5   -0.138605
6   -0.157713
7   -0.151924
8   -0.092828
9   0.048537
10   0.59494
11   -0.496292
12   -0.476485
13   0.149889
14   0.141662
15   0.159672
16   0.13686
17   0.136455
18   0.137875
19   0.157414
20   0.163275
21   0.155343
22   0.177397

>  <lowdin_charges>
22
1   -0.321648
2   -0.156625
3   -0.138991
4   -0.157289
5   -0.157641
6   -0.139945
7   -0.130517
8   -0.122025
9   -0.045508
10   0.196582
11   -0.276484
12   -0.192008
13   0.165115
14   0.15561
15   0.166041
16   0.160161
17   0.161555
18   0.162753
19   0.173734
20   0.177521
21   0.155934
22   0.163675

$$$$

