PCCDB-ID:  17756
public computational chemistry database (PCCDB) project, http://pccdb.org

 19 18  0  0  0  0  0  0  0  0999 V2000
    0.8288   -0.1220    0.2813 C   0  0  0  0  0  0  0  0  0  0  0  0
    2.3504   -0.0254    0.1308 C   0  0  0  0  0  0  0  0  0  0  0  0
    6.2848   -0.3411   -2.4808 C   0  0  0  0  0  0  0  0  0  0  0  0
    2.8092   -0.2444   -1.3053 C   0  0  0  0  0  0  0  0  0  0  0  0
    4.7730   -0.3334   -2.6487 C   0  0  0  0  0  0  0  0  0  0  0  0
    6.6938   -1.3722   -1.5993 O   0  0  0  0  0  0  0  0  0  0  0  0
    4.2231   -0.1339   -1.3546 O   0  0  0  0  0  0  0  0  0  0  0  0
    0.5277    0.0417    1.3213 H   0  0  0  0  0  0  0  0  0  0  0  0
    0.4580   -1.1091   -0.0202 H   0  0  0  0  0  0  0  0  0  0  0  0
    0.3169    0.6277   -0.3342 H   0  0  0  0  0  0  0  0  0  0  0  0
    2.8418   -0.7687    0.7712 H   0  0  0  0  0  0  0  0  0  0  0  0
    2.7031    0.9588    0.4624 H   0  0  0  0  0  0  0  0  0  0  0  0
    6.6124    0.6488   -2.1228 H   0  0  0  0  0  0  0  0  0  0  0  0
    6.7684   -0.5286   -3.4454 H   0  0  0  0  0  0  0  0  0  0  0  0
    2.3494    0.5031   -1.9747 H   0  0  0  0  0  0  0  0  0  0  0  0
    2.4935   -1.2391   -1.6644 H   0  0  0  0  0  0  0  0  0  0  0  0
    4.4360   -1.2984   -3.0605 H   0  0  0  0  0  0  0  0  0  0  0  0
    4.4548    0.4665   -3.3384 H   0  0  0  0  0  0  0  0  0  0  0  0
    6.1252   -1.2773   -0.8166 H   0  0  0  0  0  0  0  0  0  0  0  0
  1  8  1  0  0  0  0
  2  1  1  0  0  0  0
  2 12  1  0  0  0  0
  2 11  1  0  0  0  0
  3 13  1  0  0  0  0
  3  6  1  0  0  0  0
  4  2  1  0  0  0  0
  5  3  1  0  0  0  0
  5  7  1  0  0  0  0
  6 19  1  0  0  0  0
  7  4  1  0  0  0  0
  9  1  1  0  0  0  0
 10  1  1  0  0  0  0
 14  3  1  0  0  0  0
 15  4  1  0  0  0  0
 16  4  1  0  0  0  0
 17  5  1  0  0  0  0
 18  5  1  0  0  0  0
M  END
>  <HBA>
2

>  <HBD>
1

>  <TPSA>
29.46

>  <cid>
17756

>  <dipole>
2.43

>  <excitation_energy_1>
6.824

>  <excitation_energy_2>
6.863

>  <excitation_energy_3>
7.059

>  <excitation_energy_4>
7.112

>  <homo_energy>
-7.04

>  <homo_lumo_gap>
9.344

>  <logP>
0.405

>  <lumo_energy>
2.305

>  <melting_point>
-16.23

>  <molecular_refractivity>
28.4

>  <oscillator_strength_1>
0.0164

>  <oscillator_strength_2>
0.0077

>  <oscillator_strength_3>
0.0158

>  <oscillator_strength_4>
0.0132

>  <open_babel_can_smiles>
CCCOCCO

>  <mulliken_charges>
19
1   -0.452267
2   -0.267657
3   -0.034042
4   0.003573
5   -0.031915
6   -0.62254
7   -0.494837
8   0.152092
9   0.14631
10   0.145862
11   0.144762
12   0.148711
13   0.129339
14   0.14351
15   0.118915
16   0.120768
17   0.130381
18   0.119625
19   0.399408

>  <lowdin_charges>
19
1   -0.444696
2   -0.279318
3   -0.138223
4   -0.127762
5   -0.149744
6   -0.469366
7   -0.284465
8   0.154437
9   0.148353
10   0.149705
11   0.149032
12   0.149388
13   0.130932
14   0.149082
15   0.127509
16   0.126305
17   0.132957
18   0.131797
19   0.344077

$$$$

