PCCDB-ID:  62257
public computational chemistry database (PCCDB) project, http://pccdb.org

 29 31  0  0  0  0  0  0  0  0999 V2000
    0.8276    0.0769    0.2874 C   0  0  0  0  0  0  0  0  0  0  0  0
    7.2492   -1.2819   -0.2172 C   0  0  0  0  0  0  0  0  0  0  0  0
    6.5111   -2.4849   -0.3248 C   0  0  0  0  0  0  0  0  0  0  0  0
    6.5914   -0.0874   -0.0371 C   0  0  0  0  0  0  0  0  0  0  0  0
    5.1369   -2.4747   -0.2440 C   0  0  0  0  0  0  0  0  0  0  0  0
    3.1011    1.2019    0.2903 C   0  0  0  0  0  0  0  0  0  0  0  0
    4.4729    1.1803    0.2178 C   0  0  0  0  0  0  0  0  0  0  0  0
    0.9056   -4.1379   -0.8180 C   0  0  0  0  0  0  0  0  0  0  0  0
    1.2390   -4.4401    0.4397 C   0  0  0  0  0  0  0  0  0  0  0  0
    2.3334    0.0110    0.2068 C   0  0  0  0  0  0  0  0  0  0  0  0
    5.1741   -0.0403    0.0464 C   0  0  0  0  0  0  0  0  0  0  0  0
    4.4272   -1.2587   -0.0526 C   0  0  0  0  0  0  0  0  0  0  0  0
    1.5268   -2.8207   -1.1836 C   0  0  0  0  0  0  0  0  0  0  0  0
    2.1058   -3.3446    0.9907 C   0  0  0  0  0  0  0  0  0  0  0  0
    3.0043   -1.1901    0.0405 C   0  0  0  0  0  0  0  0  0  0  0  0
    2.2510   -2.4053   -0.0505 N   0  0  0  0  0  0  0  0  0  0  0  0
    1.4260   -2.2172   -2.2298 O   0  0  0  0  0  0  0  0  0  0  0  0
    2.5880   -3.2641    2.0984 O   0  0  0  0  0  0  0  0  0  0  0  0
    0.4987    1.0793    0.5761 H   0  0  0  0  0  0  0  0  0  0  0  0
    0.4305   -0.6316    1.0232 H   0  0  0  0  0  0  0  0  0  0  0  0
    0.3713   -0.1612   -0.6807 H   0  0  0  0  0  0  0  0  0  0  0  0
    8.3335   -1.3063   -0.2802 H   0  0  0  0  0  0  0  0  0  0  0  0
    7.0350   -3.4252   -0.4730 H   0  0  0  0  0  0  0  0  0  0  0  0
    7.1477    0.8435    0.0426 H   0  0  0  0  0  0  0  0  0  0  0  0
    4.5845   -3.4037   -0.3337 H   0  0  0  0  0  0  0  0  0  0  0  0
    2.5802    2.1467    0.4207 H   0  0  0  0  0  0  0  0  0  0  0  0
    5.0397    2.1053    0.2912 H   0  0  0  0  0  0  0  0  0  0  0  0
    0.2921   -4.6891   -1.5193 H   0  0  0  0  0  0  0  0  0  0  0  0
    0.9690   -5.3028    1.0356 H   0  0  0  0  0  0  0  0  0  0  0  0
  1 19  1  0  0  0  0
  1 20  1  0  0  0  0
  2  4  2  0  0  0  0
  3  5  2  0  0  0  0
  3  2  1  0  0  0  0
  4 24  1  0  0  0  0
  4 11  1  0  0  0  0
  5 12  1  0  0  0  0
  6 26  1  0  0  0  0
  7  6  1  0  0  0  0
  7 27  1  0  0  0  0
  8  9  2  0  0  0  0
  9 14  1  0  0  0  0
  9 29  1  0  0  0  0
 10  1  1  0  0  0  0
 10  6  2  0  0  0  0
 11  7  2  0  0  0  0
 12 15  2  0  0  0  0
 12 11  1  0  0  0  0
 13  8  1  0  0  0  0
 13 16  1  0  0  0  0
 14 18  2  0  0  0  0
 15 10  1  0  0  0  0
 16 15  1  0  0  0  0
 16 14  1  0  0  0  0
 17 13  2  0  0  0  0
 21  1  1  0  0  0  0
 22  2  1  0  0  0  0
 23  3  1  0  0  0  0
 25  5  1  0  0  0  0
 28  8  1  0  0  0  0
M  END
>  <HBA>
3

>  <HBD>
0

>  <TPSA>
37.38

>  <cid>
62257

>  <dipole>
0.94

>  <excitation_energy_1>
2.514

>  <excitation_energy_2>
3.272

>  <excitation_energy_3>
3.431

>  <excitation_energy_4>
4.078

>  <homo_energy>
-5.908

>  <homo_lumo_gap>
3.282

>  <logP>
2.643

>  <lumo_energy>
-2.626

>  <melting_point>
136.66

>  <molecular_refractivity>
73.48

>  <oscillator_strength_1>
0.0002

>  <oscillator_strength_2>
0.0

>  <oscillator_strength_3>
0.0

>  <oscillator_strength_4>
0.0037

>  <open_babel_can_smiles>
O=C1C=CC(=O)N1c1c(C)ccc2c1cccc2

>  <mulliken_charges>
29
1   -0.544968
2   -0.131904
3   -0.135007
4   -0.193711
5   -0.174767
6   -0.211855
7   -0.166802
8   -0.163099
9   -0.163608
10   0.201689
11   0.112312
12   0.165603
13   0.595096
14   0.584145
15   0.1435
16   -0.644002
17   -0.466302
18   -0.45646
19   0.158277
20   0.16504
21   0.186996
22   0.132362
23   0.132491
24   0.132526
25   0.126049
26   0.130243
27   0.133713
28   0.176216
29   0.176227

>  <lowdin_charges>
29
1   -0.445966
2   -0.154888
3   -0.151201
4   -0.153333
5   -0.156352
6   -0.164356
7   -0.145547
8   -0.155159
9   -0.155022
10   0.012109
11   0.000704
12   0.005615
13   0.171358
14   0.165982
15   0.030916
16   -0.086474
17   -0.226712
18   -0.21965
19   0.15948
20   0.164125
21   0.172783
22   0.157996
23   0.160409
24   0.159253
25   0.160044
26   0.159909
27   0.161055
28   0.186786
29   0.186137

$$$$

