PCCDB-ID:  11158
public computational chemistry database (PCCDB) project, http://pccdb.org

 16 16  0  0  0  0  0  0  0  0999 V2000
   -0.7694    1.1442   -0.0088 C   0  0  0  0  0  0  0  0  0  0  0  0
    1.3844    0.0508   -0.0875 C   0  0  0  0  0  0  0  0  0  0  0  0
   -1.4038   -0.0888    0.0287 C   0  0  0  0  0  0  0  0  0  0  0  0
    0.7635   -1.1848   -0.0498 C   0  0  0  0  0  0  0  0  0  0  0  0
    1.2889    2.5488   -0.1115 C   0  0  0  0  0  0  0  0  0  0  0  0
    0.6292    1.2371   -0.0680 C   0  0  0  0  0  0  0  0  0  0  0  0
   -0.6450   -1.2762    0.0089 C   0  0  0  0  0  0  0  0  0  0  0  0
   -1.2644   -2.5111    0.0969 N   0  0  0  0  0  0  0  0  0  0  0  0
    2.4940    2.7283   -0.1676 O   0  0  0  0  0  0  0  0  0  0  0  0
   -1.3648    2.0551    0.0052 H   0  0  0  0  0  0  0  0  0  0  0  0
    2.4664    0.1291   -0.1353 H   0  0  0  0  0  0  0  0  0  0  0  0
   -2.4886   -0.1478    0.0772 H   0  0  0  0  0  0  0  0  0  0  0  0
    1.3556   -2.0971   -0.0624 H   0  0  0  0  0  0  0  0  0  0  0  0
    0.5899    3.4164   -0.0896 H   0  0  0  0  0  0  0  0  0  0  0  0
   -2.2391   -2.5515   -0.1690 H   0  0  0  0  0  0  0  0  0  0  0  0
   -0.7321   -3.3098   -0.2213 H   0  0  0  0  0  0  0  0  0  0  0  0
  1 10  1  0  0  0  0
  1  3  2  0  0  0  0
  2  6  2  0  0  0  0
  2  4  1  0  0  0  0
  3 12  1  0  0  0  0
  4  7  2  0  0  0  0
  5 14  1  0  0  0  0
  5  6  1  0  0  0  0
  6  1  1  0  0  0  0
  7  3  1  0  0  0  0
  7  8  1  0  0  0  0
  9  5  2  0  0  0  0
 11  2  1  0  0  0  0
 13  4  1  0  0  0  0
 15  8  1  0  0  0  0
 16  8  1  0  0  0  0
M  END
>  <HBA>
2

>  <HBD>
1

>  <TPSA>
43.09

>  <cid>
11158

>  <dipole>
5.51

>  <excitation_energy_1>
3.815

>  <excitation_energy_2>
4.455

>  <excitation_energy_3>
4.66

>  <excitation_energy_4>
5.001

>  <homo_energy>
-5.891

>  <homo_lumo_gap>
4.705

>  <logP>
1.663

>  <lumo_energy>
-1.186

>  <melting_point>
87.24

>  <molecular_refractivity>
36.23

>  <oscillator_strength_1>
0.0001

>  <oscillator_strength_2>
0.3786

>  <oscillator_strength_3>
0.0429

>  <oscillator_strength_4>
0.0027

>  <open_babel_can_smiles>
O=Cc1ccc(cc1)N

>  <mulliken_charges>
16
1   -0.186104
2   -0.166477
3   -0.177749
4   -0.173353
5   0.183394
6   0.096066
7   0.336225
8   -0.789463
9   -0.425299
10   0.137556
11   0.161315
12   0.124668
13   0.126972
14   0.090933
15   0.330306
16   0.331011

>  <lowdin_charges>
16
1   -0.130597
2   -0.111244
3   -0.201209
4   -0.197805
5   0.035774
6   -0.081474
7   0.079789
8   -0.469102
9   -0.248065
10   0.161591
11   0.173493
12   0.1541
13   0.15726
14   0.112733
15   0.281093
16   0.283661

$$$$

