PCCDB-ID:  27979
public computational chemistry database (PCCDB) project, http://pccdb.org

 26 25  0  0  0  0  0  0  0  0999 V2000
    3.3786    4.1339   -0.5015 C   0  0  0  0  0  0  0  0  0  0  0  0
   -1.0268    3.5415    4.8122 C   0  0  0  0  0  0  0  0  0  0  0  0
   -0.8718    5.2879    2.9748 C   0  0  0  0  0  0  0  0  0  0  0  0
    2.3290    3.6245    0.1537 C   0  0  0  0  0  0  0  0  0  0  0  0
   -0.9889    2.8225    2.3800 C   0  0  0  0  0  0  0  0  0  0  0  0
    0.9233    1.6013    1.6407 C   0  0  0  0  0  0  0  0  0  0  0  0
   -1.4154    3.9075    3.3724 C   0  0  0  0  0  0  0  0  0  0  0  0
    1.3971    2.6200   -0.4256 C   0  0  0  0  0  0  0  0  0  0  0  0
    0.7412    1.7260    0.2013 N   0  0  0  0  0  0  0  0  0  0  0  0
    1.2534    2.6437   -1.7826 O   0  0  0  0  0  0  0  0  0  0  0  0
    0.4331    2.6989    2.3944 O   0  0  0  0  0  0  0  0  0  0  0  0
    4.0452    4.8495   -0.0293 H   0  0  0  0  0  0  0  0  0  0  0  0
    3.6365    3.8375   -1.5164 H   0  0  0  0  0  0  0  0  0  0  0  0
   -1.3721    4.3057    5.5181 H   0  0  0  0  0  0  0  0  0  0  0  0
    0.0604    3.4540    4.9087 H   0  0  0  0  0  0  0  0  0  0  0  0
   -1.4687    2.5834    5.1117 H   0  0  0  0  0  0  0  0  0  0  0  0
   -1.2452    6.0646    3.6523 H   0  0  0  0  0  0  0  0  0  0  0  0
   -1.1746    5.5570    1.9555 H   0  0  0  0  0  0  0  0  0  0  0  0
    0.2225    5.3024    3.0165 H   0  0  0  0  0  0  0  0  0  0  0  0
    2.1263    3.9068    1.1815 H   0  0  0  0  0  0  0  0  0  0  0  0
   -1.3373    3.0702    1.3671 H   0  0  0  0  0  0  0  0  0  0  0  0
   -1.4407    1.8560    2.6585 H   0  0  0  0  0  0  0  0  0  0  0  0
    1.9823    1.5105    1.9154 H   0  0  0  0  0  0  0  0  0  0  0  0
    0.4057    0.6841    1.9535 H   0  0  0  0  0  0  0  0  0  0  0  0
   -2.5138    3.9445    3.3109 H   0  0  0  0  0  0  0  0  0  0  0  0
    1.5996    3.4870   -2.1143 H   0  0  0  0  0  0  0  0  0  0  0  0
  1 12  1  0  0  0  0
  1  4  2  0  0  0  0
  2 15  1  0  0  0  0
  2 16  1  0  0  0  0
  2 14  1  0  0  0  0
  3 19  1  0  0  0  0
  3  7  1  0  0  0  0
  3 17  1  0  0  0  0
  4 20  1  0  0  0  0
  5 11  1  0  0  0  0
  5 22  1  0  0  0  0
  5  7  1  0  0  0  0
  6 23  1  0  0  0  0
  6 24  1  0  0  0  0
  6 11  1  0  0  0  0
  7  2  1  0  0  0  0
  8  4  1  0  0  0  0
  8  9  2  0  0  0  0
  9  6  1  0  0  0  0
 10  8  1  0  0  0  0
 13  1  1  0  0  0  0
 18  3  1  0  0  0  0
 21  5  1  0  0  0  0
 25  7  1  0  0  0  0
 26 10  1  0  0  0  0
M  END
>  <HBA>
3

>  <HBD>
1

>  <TPSA>
38.33

>  <cid>
27979

>  <dipole>
2.85

>  <excitation_energy_1>
4.018

>  <excitation_energy_2>
4.9

>  <excitation_energy_3>
5.197

>  <excitation_energy_4>
6.017

>  <homo_energy>
-6.523

>  <homo_lumo_gap>
5.227

>  <logP>
1.31

>  <lumo_energy>
-1.295

>  <melting_point>
-8.87

>  <molecular_refractivity>
44.18

>  <oscillator_strength_1>
0.0008

>  <oscillator_strength_2>
0.0283

>  <oscillator_strength_3>
0.153

>  <oscillator_strength_4>
0.0084

>  <open_babel_can_smiles>
C=C/C(=N\COCC(C)C)/O

>  <mulliken_charges>
26
1   -0.353567
2   -0.441405
3   -0.44288
4   -0.130599
5   -0.014564
6   0.059465
7   -0.091564
8   0.463501
9   -0.430151
10   -0.580178
11   -0.48057
12   0.165721
13   0.155945
14   0.137438
15   0.158236
16   0.136284
17   0.139196
18   0.136333
19   0.154073
20   0.190444
21   0.137826
22   0.119096
23   0.142071
24   0.141547
25   0.125051
26   0.403249

>  <lowdin_charges>
26
1   -0.309178
2   -0.445593
3   -0.444264
4   -0.185851
5   -0.129733
6   -0.077773
7   -0.124735
8   0.138883
9   -0.221574
10   -0.361182
11   -0.28219
12   0.173373
13   0.160568
14   0.147881
15   0.153102
16   0.146428
17   0.14869
18   0.145545
19   0.149473
20   0.184079
21   0.136131
22   0.129502
23   0.137156
24   0.137587
25   0.13891
26   0.354764

$$$$

