PCCDB-ID:  44805
public computational chemistry database (PCCDB) project, http://pccdb.org

 31 30  0  0  0  0  0  0  0  0999 V2000
    2.1607    0.3133    0.4653 C   0  0  0  0  0  0  0  0  0  0  0  0
    7.1510   -1.6023   -2.9251 C   0  0  0  0  0  0  0  0  0  0  0  0
    4.6044    2.5955   -3.7062 C   0  0  0  0  0  0  0  0  0  0  0  0
    4.8685    3.3447   -1.4388 C   0  0  0  0  0  0  0  0  0  0  0  0
    2.1058   -0.0564   -1.0225 C   0  0  0  0  0  0  0  0  0  0  0  0
    6.5218   -0.3921   -2.2277 C   0  0  0  0  0  0  0  0  0  0  0  0
    2.8207    0.9422   -1.9525 C   0  0  0  0  0  0  0  0  0  0  0  0
    5.0169   -0.2631   -2.4915 C   0  0  0  0  0  0  0  0  0  0  0  0
    4.3674    0.9747   -1.8410 C   0  0  0  0  0  0  0  0  0  0  0  0
    4.9846    2.2188   -2.3515 N   0  0  0  0  0  0  0  0  0  0  0  0
    1.5996   -0.4085    1.0699 H   0  0  0  0  0  0  0  0  0  0  0  0
    1.7245    1.3046    0.6409 H   0  0  0  0  0  0  0  0  0  0  0  0
    3.1872    0.3317    0.8490 H   0  0  0  0  0  0  0  0  0  0  0  0
    8.2251   -1.6699   -2.7163 H   0  0  0  0  0  0  0  0  0  0  0  0
    7.0284   -1.5416   -4.0139 H   0  0  0  0  0  0  0  0  0  0  0  0
    6.6889   -2.5411   -2.5943 H   0  0  0  0  0  0  0  0  0  0  0  0
    5.2594    3.4053   -4.0490 H   0  0  0  0  0  0  0  0  0  0  0  0
    3.5608    2.9503   -3.8009 H   0  0  0  0  0  0  0  0  0  0  0  0
    4.7373    1.7521   -4.3902 H   0  0  0  0  0  0  0  0  0  0  0  0
    5.4733    4.1789   -1.8139 H   0  0  0  0  0  0  0  0  0  0  0  0
    5.2549    3.0659   -0.4524 H   0  0  0  0  0  0  0  0  0  0  0  0
    3.8349    3.7215   -1.3061 H   0  0  0  0  0  0  0  0  0  0  0  0
    1.0532   -0.1190   -1.3298 H   0  0  0  0  0  0  0  0  0  0  0  0
    2.5168   -1.0651   -1.1637 H   0  0  0  0  0  0  0  0  0  0  0  0
    7.0166    0.5309   -2.5500 H   0  0  0  0  0  0  0  0  0  0  0  0
    6.6918   -0.4673   -1.1436 H   0  0  0  0  0  0  0  0  0  0  0  0
    2.4272    1.9465   -1.7410 H   0  0  0  0  0  0  0  0  0  0  0  0
    2.5445    0.7196   -2.9923 H   0  0  0  0  0  0  0  0  0  0  0  0
    4.5059   -1.1614   -2.1196 H   0  0  0  0  0  0  0  0  0  0  0  0
    4.8339   -0.2487   -3.5758 H   0  0  0  0  0  0  0  0  0  0  0  0
    4.6332    0.9499   -0.7757 H   0  0  0  0  0  0  0  0  0  0  0  0
  1 12  1  0  0  0  0
  1 13  1  0  0  0  0
  1 11  1  0  0  0  0
  2 14  1  0  0  0  0
  2 16  1  0  0  0  0
  2  6  1  0  0  0  0
  3 10  1  0  0  0  0
  4 22  1  0  0  0  0
  4 21  1  0  0  0  0
  5  1  1  0  0  0  0
  6 26  1  0  0  0  0
  7  9  1  0  0  0  0
  7 27  1  0  0  0  0
  7  5  1  0  0  0  0
  8  6  1  0  0  0  0
  8 29  1  0  0  0  0
  8  9  1  0  0  0  0
  9 31  1  0  0  0  0
 10  9  1  0  0  0  0
 10  4  1  0  0  0  0
 15  2  1  0  0  0  0
 17  3  1  0  0  0  0
 18  3  1  0  0  0  0
 19  3  1  0  0  0  0
 20  4  1  0  0  0  0
 23  5  1  0  0  0  0
 24  5  1  0  0  0  0
 25  6  1  0  0  0  0
 28  7  1  0  0  0  0
 30  8  1  0  0  0  0
M  END
>  <HBA>
1

>  <HBD>
0

>  <TPSA>
3.24

>  <cid>
44805

>  <dipole>
0.69

>  <excitation_energy_1>
4.938

>  <excitation_energy_2>
5.252

>  <excitation_energy_3>
5.353

>  <excitation_energy_4>
5.436

>  <homo_energy>
-5.382

>  <homo_lumo_gap>
7.543

>  <logP>
2.517

>  <lumo_energy>
2.161

>  <melting_point>
-25.92

>  <molecular_refractivity>
48.27

>  <oscillator_strength_1>
0.0134

>  <oscillator_strength_2>
0.0039

>  <oscillator_strength_3>
0.0004

>  <oscillator_strength_4>
0.0191

>  <open_babel_can_smiles>
CCCC(N(C)C)CCC

>  <mulliken_charges>
31
1   -0.444697
2   -0.442365
3   -0.303669
4   -0.294525
5   -0.257423
6   -0.244704
7   -0.269074
8   -0.260471
9   0.041613
10   -0.370921
11   0.143044
12   0.141856
13   0.14591
14   0.139947
15   0.1382
16   0.136818
17   0.145566
18   0.120766
19   0.14948
20   0.144814
21   0.146156
22   0.116415
23   0.132268
24   0.135707
25   0.152656
26   0.121962
27   0.131702
28   0.128448
29   0.129233
30   0.124407
31   0.120878

>  <lowdin_charges>
31
1   -0.447687
2   -0.440911
3   -0.359398
4   -0.355912
5   -0.271866
6   -0.272614
7   -0.29072
8   -0.280903
9   -0.061601
10   -0.183736
11   0.151493
12   0.145749
13   0.145133
14   0.14647
15   0.142411
16   0.143312
17   0.149365
18   0.120334
19   0.150075
20   0.148674
21   0.147417
22   0.116712
23   0.141637
24   0.13886
25   0.150284
26   0.133741
27   0.140793
28   0.140303
29   0.141674
30   0.134722
31   0.136189

$$$$

