PCCDB-ID:  37326
public computational chemistry database (PCCDB) project, http://pccdb.org

 28 28  0  0  0  0  0  0  0  0999 V2000
    3.1485   -2.6534   -0.6228 C   0  0  0  0  0  0  0  0  0  0  0  0
    2.7693   -0.4333    0.5093 C   0  0  0  0  0  0  0  0  0  0  0  0
    6.0216    6.6843   -4.7928 C   0  0  0  0  0  0  0  0  0  0  0  0
    6.3832    1.1177   -4.4364 C   0  0  0  0  0  0  0  0  0  0  0  0
    6.3039    2.5073   -4.5440 C   0  0  0  0  0  0  0  0  0  0  0  0
    5.6895    0.4392   -3.4380 C   0  0  0  0  0  0  0  0  0  0  0  0
    4.8193    2.5443   -2.6277 C   0  0  0  0  0  0  0  0  0  0  0  0
    5.5166    3.2235   -3.6324 C   0  0  0  0  0  0  0  0  0  0  0  0
    4.8919    1.1518   -2.5236 C   0  0  0  0  0  0  0  0  0  0  0  0
    5.3886    4.7074   -3.6806 C   0  0  0  0  0  0  0  0  0  0  0  0
    4.1439    0.5755   -1.4674 N   0  0  0  0  0  0  0  0  0  0  0  0
    4.1128   -0.6931   -1.4989 N   0  0  0  0  0  0  0  0  0  0  0  0
    3.4749   -1.2484   -0.4684 N   0  0  0  0  0  0  0  0  0  0  0  0
    4.7219    5.3710   -2.9107 O   0  0  0  0  0  0  0  0  0  0  0  0
    6.1056    5.2561   -4.6916 O   0  0  0  0  0  0  0  0  0  0  0  0
    3.2926   -3.1796    0.3269 H   0  0  0  0  0  0  0  0  0  0  0  0
    3.8189   -3.0729   -1.3744 H   0  0  0  0  0  0  0  0  0  0  0  0
    2.1089   -2.8011   -0.9514 H   0  0  0  0  0  0  0  0  0  0  0  0
    2.4065   -1.0893    1.3036 H   0  0  0  0  0  0  0  0  0  0  0  0
    1.9245    0.0989    0.0510 H   0  0  0  0  0  0  0  0  0  0  0  0
    3.4485    0.3162    0.9223 H   0  0  0  0  0  0  0  0  0  0  0  0
    6.6434    6.9542   -5.6473 H   0  0  0  0  0  0  0  0  0  0  0  0
    6.3950    7.1580   -3.8808 H   0  0  0  0  0  0  0  0  0  0  0  0
    4.9871    6.9990   -4.9554 H   0  0  0  0  0  0  0  0  0  0  0  0
    6.9976    0.5583   -5.1370 H   0  0  0  0  0  0  0  0  0  0  0  0
    6.8463    3.0345   -5.3202 H   0  0  0  0  0  0  0  0  0  0  0  0
    5.7549   -0.6397   -3.3519 H   0  0  0  0  0  0  0  0  0  0  0  0
    4.2120    3.1018   -1.9234 H   0  0  0  0  0  0  0  0  0  0  0  0
  1 13  1  0  0  0  0
  1 16  1  0  0  0  0
  2 21  1  0  0  0  0
  2 19  1  0  0  0  0
  3 15  1  0  0  0  0
  3 23  1  0  0  0  0
  4  6  1  0  0  0  0
  5  4  2  0  0  0  0
  5  8  1  0  0  0  0
  6 27  1  0  0  0  0
  6  9  2  0  0  0  0
  7  9  1  0  0  0  0
  7 28  1  0  0  0  0
  8  7  2  0  0  0  0
  9 11  1  0  0  0  0
 10  8  1  0  0  0  0
 10 14  2  0  0  0  0
 12 11  1  0  0  0  0
 12 13  1  0  0  0  0
 13  2  1  0  0  0  0
 15 10  1  0  0  0  0
 17  1  1  0  0  0  0
 18  1  1  0  0  0  0
 20  2  1  0  0  0  0
 22  3  1  0  0  0  0
 24  3  1  0  0  0  0
 25  4  1  0  0  0  0
 26  5  1  0  0  0  0
M  RAD  2  11   2  12   2
M  END
>  <HBA>
5

>  <HBD>
0

>  <TPSA>
54.26

>  <cid>
37326

>  <dipole>
2.89

>  <excitation_energy_1>
3.842

>  <excitation_energy_2>
3.95

>  <excitation_energy_3>
4.449

>  <excitation_energy_4>
4.838

>  <homo_energy>
-5.674

>  <homo_lumo_gap>
4.389

>  <logP>
2.034

>  <lumo_energy>
-1.284

>  <melting_point>
55.14

>  <molecular_refractivity>
55.8

>  <oscillator_strength_1>
0.1223

>  <oscillator_strength_2>
0.0817

>  <oscillator_strength_3>
0.3105

>  <oscillator_strength_4>
0.001

>  <open_babel_can_smiles>
COC(=O)c1cccc(c1)[N][N]N(C)C

>  <mulliken_charges>
28
1   -0.300605
2   -0.303391
3   -0.214544
4   -0.151275
5   -0.157233
6   -0.12836
7   -0.190739
8   0.045802
9   0.286912
10   0.592907
11   -0.392191
12   -0.047907
13   -0.195783
14   -0.491987
15   -0.469784
16   0.161994
17   0.184984
18   0.159564
19   0.155181
20   0.171194
21   0.192124
22   0.161335
23   0.169872
24   0.169924
25   0.13277
26   0.151335
27   0.145686
28   0.162212

>  <lowdin_charges>
28
1   -0.351222
2   -0.369131
3   -0.276081
4   -0.15633
5   -0.14994
6   -0.154574
7   -0.138777
8   -0.046127
9   0.023342
10   0.197471
11   -0.169945
12   -0.037382
13   -0.038101
14   -0.271006
15   -0.194867
16   0.155794
17   0.174563
18   0.147712
19   0.160255
20   0.160765
21   0.176565
22   0.159284
23   0.159674
24   0.158202
25   0.160326
26   0.171529
27   0.165981
28   0.182019

$$$$

