PCCDB-ID:  58586
public computational chemistry database (PCCDB) project, http://pccdb.org

 43 44  0  0  1  0  0  0  0  0999 V2000
    1.3999    2.6238   -4.8831 C   0  0  0  0  0  0  0  0  0  0  0  0
    4.8329    5.9176   -2.4909 C   0  0  0  0  0  0  0  0  0  0  0  0
    2.8286    2.6161   -4.3294 C   0  0  0  0  0  0  0  0  0  0  0  0
    4.6011    4.6508   -1.6686 C   0  0  0  0  0  0  0  0  0  0  0  0
    6.6667   -1.3314    2.3741 C   0  0  0  0  0  0  0  0  0  0  0  0
    6.5471    0.2166    2.5663 C   0  0  0  0  0  0  0  0  0  0  0  0
    2.9588    3.4465   -3.0482 C   0  0  0  0  0  0  0  0  0  0  0  0
    8.3804   -0.2522    1.0904 C   0  0  0  0  0  0  0  0  0  0  0  0
    6.4573   -1.0117   -0.1075 C   0  0  0  0  0  0  0  0  0  0  0  0
    4.6526    2.2269   -1.7623 C   0  0  0  0  0  0  0  0  0  0  0  0
    7.4123   -1.4541    1.0250 C   0  0  2  0  0  0  0  0  0  0  0  0
    7.2614    0.7854    1.3176 C   0  0  1  0  0  0  0  0  0  0  0  0
    6.3490    0.5457    0.0822 C   0  0  1  0  0  0  0  0  0  0  0  0
    6.1647    1.9477   -1.8377 C   0  0  0  0  0  0  0  0  0  0  0  0
    6.8848    1.2358   -1.0753 N   0  0  0  0  0  0  0  0  0  0  0  0
    4.3243    3.4585   -2.4962 N   0  0  0  0  0  0  0  0  0  0  0  0
    6.7390    2.5401   -2.9135 O   0  0  0  0  0  0  0  0  0  0  0  0
    1.3318    2.0341   -5.8033 H   0  0  0  0  0  0  0  0  0  0  0  0
    1.0673    3.6428   -5.1161 H   0  0  0  0  0  0  0  0  0  0  0  0
    0.6896    2.1997   -4.1630 H   0  0  0  0  0  0  0  0  0  0  0  0
    5.0524    6.7592   -1.8247 H   0  0  0  0  0  0  0  0  0  0  0  0
    3.9600    6.1941   -3.0919 H   0  0  0  0  0  0  0  0  0  0  0  0
    5.6839    5.7861   -3.1676 H   0  0  0  0  0  0  0  0  0  0  0  0
    3.5259    3.0180   -5.0753 H   0  0  0  0  0  0  0  0  0  0  0  0
    3.1393    1.5796   -4.1445 H   0  0  0  0  0  0  0  0  0  0  0  0
    3.7903    4.8086   -0.9344 H   0  0  0  0  0  0  0  0  0  0  0  0
    5.5079    4.4404   -1.0915 H   0  0  0  0  0  0  0  0  0  0  0  0
    5.6923   -1.8332    2.3549 H   0  0  0  0  0  0  0  0  0  0  0  0
    7.2494   -1.7854    3.1841 H   0  0  0  0  0  0  0  0  0  0  0  0
    7.0544    0.5420    3.4813 H   0  0  0  0  0  0  0  0  0  0  0  0
    5.5060    0.5538    2.6380 H   0  0  0  0  0  0  0  0  0  0  0  0
    2.2330    3.0961   -2.2912 H   0  0  0  0  0  0  0  0  0  0  0  0
    2.6840    4.4803   -3.2804 H   0  0  0  0  0  0  0  0  0  0  0  0
    8.9278   -0.0808    0.1589 H   0  0  0  0  0  0  0  0  0  0  0  0
    9.0902   -0.3117    1.9245 H   0  0  0  0  0  0  0  0  0  0  0  0
    5.4808   -1.5079   -0.0536 H   0  0  0  0  0  0  0  0  0  0  0  0
    6.8897   -1.2208   -1.0910 H   0  0  0  0  0  0  0  0  0  0  0  0
    4.3126    2.2703   -0.7181 H   0  0  0  0  0  0  0  0  0  0  0  0
    4.1299    1.3864   -2.2315 H   0  0  0  0  0  0  0  0  0  0  0  0
    7.8669   -2.4353    0.8573 H   0  0  0  0  0  0  0  0  0  0  0  0
    7.5742    1.8289    1.4115 H   0  0  0  0  0  0  0  0  0  0  0  0
    5.3138    0.8310    0.3254 H   0  0  0  0  0  0  0  0  0  0  0  0
    6.0154    3.0776   -3.3133 H   0  0  0  0  0  0  0  0  0  0  0  0
  1  3  1  0  0  0  0
  1 20  1  0  0  0  0
  2 21  1  0  0  0  0
  2  4  1  0  0  0  0
  3 25  1  0  0  0  0
  3  7  1  0  0  0  0
  4 27  1  0  0  0  0
  4 26  1  0  0  0  0
  5  6  1  0  0  0  0
  5 29  1  0  0  0  0
  6 31  1  0  0  0  0
  6 30  1  0  0  0  0
  7 16  1  0  0  0  0
  7 32  1  0  0  0  0
  8 12  1  0  0  0  0
  8 35  1  0  0  0  0
  9 36  1  0  0  0  0
  9 13  1  0  0  0  0
  9 11  1  0  0  0  0
 10 38  1  0  0  0  0
 11 40  1  6  0  0  0
 11  8  1  0  0  0  0
 11  5  1  0  0  0  0
 12 41  1  1  0  0  0
 12  6  1  0  0  0  0
 13 42  1  1  0  0  0
 13 12  1  0  0  0  0
 14 10  1  0  0  0  0
 14 15  2  0  0  0  0
 15 13  1  0  0  0  0
 16 10  1  0  0  0  0
 16  4  1  0  0  0  0
 17 14  1  0  0  0  0
 18  1  1  0  0  0  0
 19  1  1  0  0  0  0
 22  2  1  0  0  0  0
 23  2  1  0  0  0  0
 24  3  1  0  0  0  0
 28  5  1  0  0  0  0
 33  7  1  0  0  0  0
 34  8  1  0  0  0  0
 37  9  1  0  0  0  0
 39 10  1  0  0  0  0
 43 17  1  0  0  0  0
M  END
>  <HBA>
3

>  <HBD>
1

>  <TPSA>
32.34

>  <cid>
58586

>  <dipole>
4.6

>  <excitation_energy_1>
5.451

>  <excitation_energy_2>
5.618

>  <excitation_energy_3>
5.746

>  <excitation_energy_4>
5.929

>  <homo_energy>
-6.082

>  <homo_lumo_gap>
7.023

>  <logP>
2.414

>  <lumo_energy>
0.942

>  <melting_point>
64.49

>  <molecular_refractivity>
71.08

>  <oscillator_strength_1>
0.0049

>  <oscillator_strength_2>
0.0062

>  <oscillator_strength_3>
0.0066

>  <oscillator_strength_4>
0.0113

>  <open_babel_can_smiles>
CCCN(C/C(=N\[C@H]1C[C@H]2C[C@@H]1CC2)/O)CC

>  <mulliken_charges>
43
1   -0.44858
2   -0.44993
3   -0.258745
4   -0.129582
5   -0.267688
6   -0.275322
7   -0.119294
8   -0.273603
9   -0.274286
10   -0.226341
11   -0.102657
12   -0.088036
13   0.014205
14   0.481308
15   -0.436379
16   -0.446613
17   -0.60284
18   0.152879
19   0.14553
20   0.146293
21   0.152743
22   0.150568
23   0.161098
24   0.146448
25   0.141894
26   0.129407
27   0.164095
28   0.126118
29   0.131436
30   0.133685
31   0.123919
32   0.123651
33   0.14417
34   0.159048
35   0.123146
36   0.120944
37   0.151551
38   0.158233
39   0.175523
40   0.112554
41   0.115128
42   0.097683
43   0.416638

>  <lowdin_charges>
43
1   -0.44512
2   -0.451652
3   -0.279663
4   -0.202307
5   -0.287435
6   -0.287182
7   -0.201731
8   -0.286732
9   -0.289645
10   -0.242398
11   -0.132693
12   -0.135185
13   -0.06803
14   0.10825
15   -0.209367
16   -0.192143
17   -0.379556
18   0.156022
19   0.147644
20   0.149958
21   0.158713
22   0.150211
23   0.157447
24   0.148837
25   0.141967
26   0.130052
27   0.157597
28   0.138709
29   0.143285
30   0.144718
31   0.136259
32   0.12766
33   0.14783
34   0.157071
35   0.13991
36   0.137538
37   0.154189
38   0.147739
39   0.167602
40   0.138901
41   0.140946
42   0.114739
43   0.347044

$$$$

