PCCDB-ID:  16606
public computational chemistry database (PCCDB) project, http://pccdb.org

 24 25  0  0  1  0  0  0  0  0999 V2000
   -1.6232   -0.8362    0.0891 C   0  0  0  0  0  0  0  0  0  0  0  0
    0.7492   -1.6927   -0.1912 C   0  0  0  0  0  0  0  0  0  0  0  0
    0.4433    0.5715    0.5250 C   0  0  0  0  0  0  0  0  0  0  0  0
    2.1272   -1.5282   -0.1534 C   0  0  0  0  0  0  0  0  0  0  0  0
    1.8296    0.7597    0.5698 C   0  0  0  0  0  0  0  0  0  0  0  0
    4.6638    1.0041    0.5654 C   0  0  0  0  0  0  0  0  0  0  0  0
    7.0025    0.5110    1.5837 C   0  0  0  0  0  0  0  0  0  0  0  0
   -0.1252   -0.6457    0.1468 C   0  0  0  0  0  0  0  0  0  0  0  0
    2.6778   -0.2959    0.2274 C   0  0  0  0  0  0  0  0  0  0  0  0
    6.1541    0.8105    0.4242 C   0  0  2  0  0  0  0  0  0  0  0  0
    4.0466   -0.2334    0.2372 O   0  0  0  0  0  0  0  0  0  0  0  0
    6.9524    1.8334    1.0269 O   0  0  0  0  0  0  0  0  0  0  0  0
   -1.9424   -1.7069    0.6753 H   0  0  0  0  0  0  0  0  0  0  0  0
   -1.9704   -0.9983   -0.9397 H   0  0  0  0  0  0  0  0  0  0  0  0
   -2.1517    0.0392    0.4802 H   0  0  0  0  0  0  0  0  0  0  0  0
    0.3406   -2.6563   -0.4886 H   0  0  0  0  0  0  0  0  0  0  0  0
   -0.2044    1.4024    0.7957 H   0  0  0  0  0  0  0  0  0  0  0  0
    2.7999   -2.3395   -0.4145 H   0  0  0  0  0  0  0  0  0  0  0  0
    2.2252    1.7224    0.8734 H   0  0  0  0  0  0  0  0  0  0  0  0
    4.3224    1.7976   -0.1154 H   0  0  0  0  0  0  0  0  0  0  0  0
    4.4240    1.3101    1.5934 H   0  0  0  0  0  0  0  0  0  0  0  0
    7.9439   -0.0192    1.4418 H   0  0  0  0  0  0  0  0  0  0  0  0
    6.5480    0.4017    2.5686 H   0  0  0  0  0  0  0  0  0  0  0  0
    6.4859    0.4882   -0.5641 H   0  0  0  0  0  0  0  0  0  0  0  0
  1  8  1  0  0  0  0
  1 15  1  0  0  0  0
  1 13  1  0  0  0  0
  2  4  2  0  0  0  0
  2  8  1  0  0  0  0
  3  5  1  0  0  0  0
  3 17  1  0  0  0  0
  4  9  1  0  0  0  0
  5 19  1  0  0  0  0
  6 21  1  0  0  0  0
  7 23  1  0  0  0  0
  8  3  2  0  0  0  0
  9 11  1  0  0  0  0
  9  5  2  0  0  0  0
 10 24  1  6  0  0  0
 10  6  1  0  0  0  0
 10 12  1  0  0  0  0
 10  7  1  0  0  0  0
 11  6  1  0  0  0  0
 12  7  1  0  0  0  0
 14  1  1  0  0  0  0
 16  2  1  0  0  0  0
 18  4  1  0  0  0  0
 20  6  1  0  0  0  0
 22  7  1  0  0  0  0
M  END
>  <HBA>
2

>  <HBD>
0

>  <TPSA>
21.76

>  <cid>
16606

>  <dipole>
1.1

>  <excitation_energy_1>
4.935

>  <excitation_energy_2>
5.458

>  <excitation_energy_3>
5.63

>  <excitation_energy_4>
5.745

>  <homo_energy>
-5.799

>  <homo_lumo_gap>
5.834

>  <logP>
1.773

>  <lumo_energy>
0.035

>  <melting_point>
25.56

>  <molecular_refractivity>
46.48

>  <oscillator_strength_1>
0.031

>  <oscillator_strength_2>
0.0038

>  <oscillator_strength_3>
0.1407

>  <oscillator_strength_4>
0.0012

>  <open_babel_can_smiles>
Cc1ccc(cc1)OC[C@H]1OC1

>  <mulliken_charges>
24
1   -0.530312
2   -0.18165
3   -0.19574
4   -0.17386
5   -0.191726
6   -0.052942
7   -0.103146
8   0.179506
9   0.376039
10   0.088895
11   -0.527216
12   -0.445275
13   0.158464
14   0.16081
15   0.153152
16   0.123405
17   0.123
18   0.134943
19   0.134956
20   0.152047
21   0.147388
22   0.15678
23   0.155008
24   0.157473

>  <lowdin_charges>
24
1   -0.442054
2   -0.155146
3   -0.159802
4   -0.18163
5   -0.213343
6   -0.131678
7   -0.159264
8   -0.016715
9   0.09942
10   -0.025331
11   -0.205762
12   -0.282146
13   0.158667
14   0.157974
15   0.156429
16   0.155443
17   0.155713
18   0.166123
19   0.162593
20   0.147839
21   0.144839
22   0.157759
23   0.154519
24   0.155552

$$$$

