PCCDB-ID:  27940
public computational chemistry database (PCCDB) project, http://pccdb.org

 24 26  0  0  0  0  0  0  0  0999 V2000
    0.8587   -0.0971    0.0596 C   0  0  0  0  0  0  0  0  0  0  0  0
    8.9992    0.2196    0.0607 C   0  0  0  0  0  0  0  0  0  0  0  0
    9.1977    1.6087    0.0622 C   0  0  0  0  0  0  0  0  0  0  0  0
    7.7136   -0.3108    0.0596 C   0  0  0  0  0  0  0  0  0  0  0  0
    8.1120    2.4814    0.0625 C   0  0  0  0  0  0  0  0  0  0  0  0
    3.1791   -1.1300    0.0609 C   0  0  0  0  0  0  0  0  0  0  0  0
    4.5669   -1.0406    0.0601 C   0  0  0  0  0  0  0  0  0  0  0  0
    2.9765    1.2771    0.0640 C   0  0  0  0  0  0  0  0  0  0  0  0
    2.3661    0.0185    0.0625 C   0  0  0  0  0  0  0  0  0  0  0  0
    6.6037    0.5475    0.0600 C   0  0  0  0  0  0  0  0  0  0  0  0
    5.1871    0.2157    0.0604 C   0  0  0  0  0  0  0  0  0  0  0  0
    6.8235    1.9438    0.0613 C   0  0  0  0  0  0  0  0  0  0  0  0
    4.3675    1.3671    0.0624 C   0  0  0  0  0  0  0  0  0  0  0  0
    5.3120    2.8629    0.0629 S   0  0  0  0  0  0  0  0  0  0  0  0
    0.5391   -1.1435    0.0812 H   0  0  0  0  0  0  0  0  0  0  0  0
    0.4231    0.3656   -0.8348 H   0  0  0  0  0  0  0  0  0  0  0  0
    0.4162    0.4050    0.9288 H   0  0  0  0  0  0  0  0  0  0  0  0
    9.8570   -0.4470    0.0608 H   0  0  0  0  0  0  0  0  0  0  0  0
   10.2071    2.0105    0.0634 H   0  0  0  0  0  0  0  0  0  0  0  0
    7.5675   -1.3878    0.0584 H   0  0  0  0  0  0  0  0  0  0  0  0
    8.2657    3.5566    0.0638 H   0  0  0  0  0  0  0  0  0  0  0  0
    2.7081   -2.1097    0.0606 H   0  0  0  0  0  0  0  0  0  0  0  0
    5.1684   -1.9458    0.0595 H   0  0  0  0  0  0  0  0  0  0  0  0
    2.3666    2.1773    0.0670 H   0  0  0  0  0  0  0  0  0  0  0  0
  1  9  1  0  0  0  0
  1 15  1  0  0  0  0
  1 17  1  0  0  0  0
  2 18  1  0  0  0  0
  2  3  2  0  0  0  0
  3  5  1  0  0  0  0
  3 19  1  0  0  0  0
  4 10  2  0  0  0  0
  4  2  1  0  0  0  0
  5 21  1  0  0  0  0
  6  9  2  0  0  0  0
  7 11  2  0  0  0  0
  7  6  1  0  0  0  0
  8 24  1  0  0  0  0
  9  8  1  0  0  0  0
 10 11  1  0  0  0  0
 10 12  1  0  0  0  0
 11 13  1  0  0  0  0
 12  5  2  0  0  0  0
 12 14  1  0  0  0  0
 13 14  1  0  0  0  0
 13  8  2  0  0  0  0
 16  1  1  0  0  0  0
 20  4  1  0  0  0  0
 22  6  1  0  0  0  0
 23  7  1  0  0  0  0
M  END
>  <HBA>
1

>  <HBD>
0

>  <TPSA>
28.24

>  <cid>
27940

>  <dipole>
0.97

>  <excitation_energy_1>
4.083

>  <excitation_energy_2>
4.463

>  <excitation_energy_3>
4.848

>  <excitation_energy_4>
4.871

>  <homo_energy>
-5.763

>  <homo_lumo_gap>
4.868

>  <logP>
4.363

>  <lumo_energy>
-0.895

>  <melting_point>
97.06

>  <molecular_refractivity>
64.3

>  <oscillator_strength_1>
0.0245

>  <oscillator_strength_2>
0.1959

>  <oscillator_strength_3>
0.0

>  <oscillator_strength_4>
0.0006

>  <open_babel_can_smiles>
Cc1ccc2c(c1)sc1c2cccc1

>  <mulliken_charges>
24
1   -0.532472
2   -0.147057
3   -0.114947
4   -0.165974
5   -0.183652
6   -0.201557
7   -0.164891
8   -0.23671
9   0.195447
10   0.108212
11   0.104909
12   -0.143779
13   -0.138848
14   0.206529
15   0.156647
16   0.165323
17   0.164706
18   0.131073
19   0.132123
20   0.132623
21   0.14135
22   0.12425
23   0.132477
24   0.134216

>  <lowdin_charges>
24
1   -0.4422
2   -0.162854
3   -0.15349
4   -0.15194
5   -0.16098
6   -0.17269
7   -0.153007
8   -0.174704
9   0.006903
10   -0.018585
11   -0.023356
12   -0.126101
13   -0.121577
14   0.253988
15   0.156633
16   0.162736
17   0.162653
18   0.159922
19   0.1597
20   0.157594
21   0.16296
22   0.155973
23   0.160079
24   0.162344

$$$$

