PCCDB-ID:  34341
public computational chemistry database (PCCDB) project, http://pccdb.org

 25 27  0  0  0  0  0  0  0  0999 V2000
   -3.6648    0.7127   -0.0618 C   0  0  0  0  0  0  0  0  0  0  0  0
   -3.6666   -0.7128   -0.0159 C   0  0  0  0  0  0  0  0  0  0  0  0
   -2.4842    1.4077   -0.0561 C   0  0  0  0  0  0  0  0  0  0  0  0
   -2.4871   -1.4071    0.0346 C   0  0  0  0  0  0  0  0  0  0  0  0
    3.6524    0.7248    0.1228 C   0  0  0  0  0  0  0  0  0  0  0  0
    2.4717    1.4095    0.0675 C   0  0  0  0  0  0  0  0  0  0  0  0
    2.4585   -1.4057    0.1628 C   0  0  0  0  0  0  0  0  0  0  0  0
   -0.0066    1.4059    0.0041 C   0  0  0  0  0  0  0  0  0  0  0  0
   -0.0105   -1.4025    0.0963 C   0  0  0  0  0  0  0  0  0  0  0  0
    4.8945   -1.4165    0.2351 C   0  0  0  0  0  0  0  0  0  0  0  0
    3.6493   -0.7100    0.1726 C   0  0  0  0  0  0  0  0  0  0  0  0
   -1.2306    0.7235   -0.0038 C   0  0  0  0  0  0  0  0  0  0  0  0
   -1.2324   -0.7216    0.0432 C   0  0  0  0  0  0  0  0  0  0  0  0
    1.2146    0.7264    0.0575 C   0  0  0  0  0  0  0  0  0  0  0  0
    1.2123   -0.7183    0.1055 C   0  0  0  0  0  0  0  0  0  0  0  0
    5.9058   -1.9899    0.2883 N   0  0  0  0  0  0  0  0  0  0  0  0
   -4.6109    1.2454   -0.1012 H   0  0  0  0  0  0  0  0  0  0  0  0
   -4.6138   -1.2448   -0.0216 H   0  0  0  0  0  0  0  0  0  0  0  0
   -2.4816    2.4945   -0.0912 H   0  0  0  0  0  0  0  0  0  0  0  0
   -2.4851   -2.4938    0.0697 H   0  0  0  0  0  0  0  0  0  0  0  0
    4.6027    1.2482    0.1310 H   0  0  0  0  0  0  0  0  0  0  0  0
    2.4726    2.4959    0.0305 H   0  0  0  0  0  0  0  0  0  0  0  0
    2.4637   -2.4912    0.2006 H   0  0  0  0  0  0  0  0  0  0  0  0
   -0.0067    2.4934   -0.0316 H   0  0  0  0  0  0  0  0  0  0  0  0
   -0.0095   -2.4898    0.1323 H   0  0  0  0  0  0  0  0  0  0  0  0
  1  3  2  0  0  0  0
  1  2  1  0  0  0  0
  2  4  2  0  0  0  0
  3 12  1  0  0  0  0
  4 13  1  0  0  0  0
  4 20  1  0  0  0  0
  5 21  1  0  0  0  0
  5 11  2  0  0  0  0
  6  5  1  0  0  0  0
  7 11  1  0  0  0  0
  7 23  1  0  0  0  0
  8 14  1  0  0  0  0
  9 15  1  0  0  0  0
  9 25  1  0  0  0  0
 10 16  3  0  0  0  0
 11 10  1  0  0  0  0
 12  8  2  0  0  0  0
 12 13  1  0  0  0  0
 13  9  2  0  0  0  0
 14  6  2  0  0  0  0
 14 15  1  0  0  0  0
 15  7  2  0  0  0  0
 17  1  1  0  0  0  0
 18  2  1  0  0  0  0
 19  3  1  0  0  0  0
 22  6  1  0  0  0  0
 24  8  1  0  0  0  0
M  END
>  <HBA>
1

>  <HBD>
0

>  <TPSA>
23.79

>  <cid>
34341

>  <dipole>
5.58

>  <excitation_energy_1>
3.099

>  <excitation_energy_2>
3.701

>  <excitation_energy_3>
4.44

>  <excitation_energy_4>
4.671

>  <homo_energy>
-5.733

>  <homo_lumo_gap>
3.467

>  <logP>
3.865

>  <lumo_energy>
-2.267

>  <melting_point>
131.73

>  <molecular_refractivity>
66.17

>  <oscillator_strength_1>
0.0546

>  <oscillator_strength_2>
0.0003

>  <oscillator_strength_3>
0.0199

>  <oscillator_strength_4>
0.5072

>  <open_babel_can_smiles>
N#Cc1ccc2c(c1)cc1c(c2)cccc1

>  <mulliken_charges>
25
1   -0.136557
2   -0.138376
3   -0.183691
4   -0.180994
5   -0.147278
6   -0.188764
7   -0.20812
8   -0.297228
9   -0.288583
10   0.234822
11   0.127093
12   0.151406
13   0.14477
14   0.15898
15   0.146451
16   -0.480469
17   0.137919
18   0.137968
19   0.136405
20   0.13733
21   0.156255
22   0.1435
23   0.159315
24   0.137356
25   0.14049

>  <lowdin_charges>
25
1   -0.151943
2   -0.154175
3   -0.150828
4   -0.148803
5   -0.14609
6   -0.143789
7   -0.121452
8   -0.154032
9   -0.147308
10   -0.013406
11   -0.02499
12   0.004626
13   0.001148
14   0.002706
15   -0.003554
16   -0.120749
17   0.162718
18   0.162758
19   0.159034
20   0.159448
21   0.174065
22   0.163331
23   0.172019
24   0.158929
25   0.160337

$$$$

