PCCDB-ID:  376
public computational chemistry database (PCCDB) project, http://pccdb.org

 20 19  0  0  1  0  0  0  0  0999 V2000
    4.7276    2.3723    1.9935 C   0  0  0  0  0  0  0  0  0  0  0  0
    3.1140    2.1071   -0.0121 C   0  0  0  0  0  0  0  0  0  0  0  0
    0.7686    3.1775    0.1271 C   0  0  0  0  0  0  0  0  0  0  0  0
    3.8402    3.0282    0.9559 C   0  0  0  0  0  0  0  0  0  0  0  0
    1.9496    2.7665   -0.7740 C   0  0  1  0  0  0  0  0  0  0  0  0
    0.0203    2.0224    0.7503 C   0  0  0  0  0  0  0  0  0  0  0  0
    3.7272    4.2463    0.9009 O   0  0  0  0  0  0  0  0  0  0  0  0
    2.3929    3.8805   -1.5327 O   0  0  0  0  0  0  0  0  0  0  0  0
    0.3596    0.8564    0.7463 O   0  0  0  0  0  0  0  0  0  0  0  0
   -1.1237    2.4358    1.3479 O   0  0  0  0  0  0  0  0  0  0  0  0
    5.3882    1.6311    1.5282 H   0  0  0  0  0  0  0  0  0  0  0  0
    4.1064    1.8308    2.7187 H   0  0  0  0  0  0  0  0  0  0  0  0
    5.3184    3.1278    2.5151 H   0  0  0  0  0  0  0  0  0  0  0  0
    2.7689    1.2070    0.5081 H   0  0  0  0  0  0  0  0  0  0  0  0
    3.8629    1.7726   -0.7458 H   0  0  0  0  0  0  0  0  0  0  0  0
    0.0633    3.7634   -0.4727 H   0  0  0  0  0  0  0  0  0  0  0  0
    1.1037    3.8464    0.9301 H   0  0  0  0  0  0  0  0  0  0  0  0
    1.5786    2.0377   -1.5024 H   0  0  0  0  0  0  0  0  0  0  0  0
    2.8350    4.4670   -0.8907 H   0  0  0  0  0  0  0  0  0  0  0  0
   -1.5367    1.6354    1.7244 H   0  0  0  0  0  0  0  0  0  0  0  0
  1 13  1  0  0  0  0
  1 12  1  0  0  0  0
  2 14  1  0  0  0  0
  2  4  1  0  0  0  0
  3  6  1  0  0  0  0
  3 17  1  0  0  0  0
  4  1  1  0  0  0  0
  5 18  1  6  0  0  0
  5  2  1  0  0  0  0
  5  3  1  0  0  0  0
  6 10  1  0  0  0  0
  7  4  2  0  0  0  0
  8 19  1  0  0  0  0
  8  5  1  0  0  0  0
  9  6  2  0  0  0  0
 10 20  1  0  0  0  0
 11  1  1  0  0  0  0
 15  2  1  0  0  0  0
 16  3  1  0  0  0  0
M  END
>  <HBA>
4

>  <HBD>
2

>  <TPSA>
74.6

>  <cid>
376

>  <dipole>
2.74

>  <excitation_energy_1>
4.387

>  <excitation_energy_2>
5.456

>  <excitation_energy_3>
5.803

>  <excitation_energy_4>
6.219

>  <homo_energy>
-7.04

>  <homo_lumo_gap>
6.199

>  <logP>
-0.199

>  <lumo_energy>
-0.841

>  <melting_point>
90.6

>  <molecular_refractivity>
34.09

>  <oscillator_strength_1>
0.0

>  <oscillator_strength_2>
0.0006

>  <oscillator_strength_3>
0.0008

>  <oscillator_strength_4>
0.0032

>  <open_babel_can_smiles>
CC(=O)C[C@@H](CC(=O)O)O

>  <mulliken_charges>
20
1   -0.528813
2   -0.388947
3   -0.391297
4   0.459387
5   0.157029
6   0.579688
7   -0.462707
8   -0.649907
9   -0.471047
10   -0.56411
11   0.174119
12   0.181373
13   0.183444
14   0.18936
15   0.18028
16   0.194485
17   0.189208
18   0.148395
19   0.411448
20   0.408611

>  <lowdin_charges>
20
1   -0.47451
2   -0.336371
3   -0.327138
4   0.177764
5   0.006901
6   0.197429
7   -0.25401
8   -0.470455
9   -0.276091
10   -0.35714
11   0.173946
12   0.179191
13   0.176089
14   0.17899
15   0.17956
16   0.185272
17   0.179445
18   0.154284
19   0.345665
20   0.361179

$$$$

