PCCDB-ID:  11984
public computational chemistry database (PCCDB) project, http://pccdb.org

 18 19  0  0  0  0  0  0  0  0999 V2000
    1.0480    0.0765   -0.0608 C   0  0  0  0  0  0  0  0  0  0  0  0
    6.9956   -0.5361   -0.0556 C   0  0  0  0  0  0  0  0  0  0  0  0
    6.9968    0.8726   -0.0601 C   0  0  0  0  0  0  0  0  0  0  0  0
    5.8064   -1.2595   -0.0547 C   0  0  0  0  0  0  0  0  0  0  0  0
    5.8092    1.6018   -0.0632 C   0  0  0  0  0  0  0  0  0  0  0  0
    2.5421    0.0628   -0.0609 C   0  0  0  0  0  0  0  0  0  0  0  0
    4.6010   -0.5480   -0.0579 C   0  0  0  0  0  0  0  0  0  0  0  0
    4.6224    0.8681   -0.0619 C   0  0  0  0  0  0  0  0  0  0  0  0
    3.2914   -1.0133   -0.0571 N   0  0  0  0  0  0  0  0  0  0  0  0
    3.2853    1.2296   -0.0646 N   0  0  0  0  0  0  0  0  0  0  0  0
    0.6888   -0.9539   -0.0631 H   0  0  0  0  0  0  0  0  0  0  0  0
    0.6481    0.5883   -0.9451 H   0  0  0  0  0  0  0  0  0  0  0  0
    0.6484    0.5838    0.8264 H   0  0  0  0  0  0  0  0  0  0  0  0
    7.9445   -1.0653   -0.0532 H   0  0  0  0  0  0  0  0  0  0  0  0
    7.9445    1.4041   -0.0617 H   0  0  0  0  0  0  0  0  0  0  0  0
    5.7992   -2.3452   -0.0506 H   0  0  0  0  0  0  0  0  0  0  0  0
    5.8148    2.6884   -0.0673 H   0  0  0  0  0  0  0  0  0  0  0  0
    2.9166    2.1690   -0.0670 H   0  0  0  0  0  0  0  0  0  0  0  0
  1 13  1  0  0  0  0
  2  4  1  0  0  0  0
  2 14  1  0  0  0  0
  3  2  2  0  0  0  0
  4 16  1  0  0  0  0
  5  8  2  0  0  0  0
  5  3  1  0  0  0  0
  6  1  1  0  0  0  0
  6  9  2  0  0  0  0
  7  9  1  0  0  0  0
  7  4  2  0  0  0  0
  8  7  1  0  0  0  0
 10  8  1  0  0  0  0
 10  6  1  0  0  0  0
 11  1  1  0  0  0  0
 12  1  1  0  0  0  0
 15  3  1  0  0  0  0
 17  5  1  0  0  0  0
 18 10  1  0  0  0  0
M  END
>  <HBA>
1

>  <HBD>
1

>  <TPSA>
28.68

>  <cid>
11984

>  <dipole>
3.5

>  <excitation_energy_1>
4.959

>  <excitation_energy_2>
5.212

>  <excitation_energy_3>
5.273

>  <excitation_energy_4>
5.371

>  <homo_energy>
-5.889

>  <homo_lumo_gap>
5.663

>  <logP>
1.871

>  <lumo_energy>
-0.226

>  <melting_point>
115.27

>  <molecular_refractivity>
41.06

>  <oscillator_strength_1>
0.0701

>  <oscillator_strength_2>
0.1197

>  <oscillator_strength_3>
0.0

>  <oscillator_strength_4>
0.0

>  <open_babel_can_smiles>
Cc1nc2c([nH]1)cccc2

>  <mulliken_charges>
18
1   -0.537323
2   -0.143239
3   -0.150204
4   -0.182375
5   -0.173385
6   0.504466
7   0.226664
8   0.349069
9   -0.534307
10   -0.724451
11   0.196768
12   0.166433
13   0.166737
14   0.123601
15   0.124455
16   0.137057
17   0.123484
18   0.32655

>  <lowdin_charges>
18
1   -0.449975
2   -0.172791
3   -0.163101
4   -0.155353
5   -0.18616
6   0.082649
7   0.00983
8   0.01804
9   -0.205698
10   -0.214256
11   0.183765
12   0.165341
13   0.165466
14   0.156377
15   0.156497
16   0.163372
17   0.154177
18   0.291821

$$$$

