PCCDB-ID:  33187
public computational chemistry database (PCCDB) project, http://pccdb.org

 33 32  0  0  1  0  0  0  0  0999 V2000
    7.2164   -2.2963    3.2250 C   0  0  0  0  0  0  0  0  0  0  0  0
    6.9470   -2.2989   -3.9885 C   0  0  0  0  0  0  0  0  0  0  0  0
    7.9873   -2.6847    1.9580 C   0  0  0  0  0  0  0  0  0  0  0  0
    7.5090   -3.9913    1.2996 C   0  0  0  0  0  0  0  0  0  0  0  0
    6.0557   -3.9919    0.7890 C   0  0  0  0  0  0  0  0  0  0  0  0
    5.7240   -2.9545   -0.2984 C   0  0  0  0  0  0  0  0  0  0  0  0
    6.4904   -3.1600   -1.6126 C   0  0  0  0  0  0  0  0  0  0  0  0
    2.6234   -2.8993   -3.8196 C   0  0  0  0  0  0  0  0  0  0  0  0
    6.1326   -2.1479   -2.7061 C   0  0  2  0  0  0  0  0  0  0  0  0
    4.0887   -3.1906   -3.5390 C   0  0  0  0  0  0  0  0  0  0  0  0
    4.6107   -4.2560   -3.7971 O   0  0  0  0  0  0  0  0  0  0  0  0
    4.6928   -2.1231   -2.9942 O   0  0  0  0  0  0  0  0  0  0  0  0
    2.3255   -2.6817   -5.6249 S   0  0  0  0  0  0  0  0  0  0  0  0
    7.6405   -1.3958    3.6839 H   0  0  0  0  0  0  0  0  0  0  0  0
    7.2548   -3.0997    3.9714 H   0  0  0  0  0  0  0  0  0  0  0  0
    6.1604   -2.0909    3.0157 H   0  0  0  0  0  0  0  0  0  0  0  0
    8.0040   -2.1090   -3.7701 H   0  0  0  0  0  0  0  0  0  0  0  0
    6.6189   -1.5707   -4.7375 H   0  0  0  0  0  0  0  0  0  0  0  0
    6.8506   -3.3029   -4.4065 H   0  0  0  0  0  0  0  0  0  0  0  0
    9.0509   -2.7962    2.2085 H   0  0  0  0  0  0  0  0  0  0  0  0
    7.9379   -1.8597    1.2339 H   0  0  0  0  0  0  0  0  0  0  0  0
    7.6169   -4.8092    2.0264 H   0  0  0  0  0  0  0  0  0  0  0  0
    8.1876   -4.2395    0.4724 H   0  0  0  0  0  0  0  0  0  0  0  0
    5.3734   -3.8388    1.6354 H   0  0  0  0  0  0  0  0  0  0  0  0
    5.8266   -4.9939    0.3996 H   0  0  0  0  0  0  0  0  0  0  0  0
    5.9128   -1.9396    0.0797 H   0  0  0  0  0  0  0  0  0  0  0  0
    4.6470   -3.0003   -0.5024 H   0  0  0  0  0  0  0  0  0  0  0  0
    6.3304   -4.1747   -1.9913 H   0  0  0  0  0  0  0  0  0  0  0  0
    7.5693   -3.0528   -1.4375 H   0  0  0  0  0  0  0  0  0  0  0  0
    2.3076   -1.9684   -3.3467 H   0  0  0  0  0  0  0  0  0  0  0  0
    2.0163   -3.7264   -3.4445 H   0  0  0  0  0  0  0  0  0  0  0  0
    6.2791   -1.1379   -2.3083 H   0  0  0  0  0  0  0  0  0  0  0  0
    2.7802   -3.9027   -5.9799 H   0  0  0  0  0  0  0  0  0  0  0  0
  1 14  1  0  0  0  0
  1 15  1  0  0  0  0
  2 17  1  0  0  0  0
  2  9  1  0  0  0  0
  3 20  1  0  0  0  0
  3  1  1  0  0  0  0
  4  3  1  0  0  0  0
  4 22  1  0  0  0  0
  5  4  1  0  0  0  0
  5 24  1  0  0  0  0
  6 26  1  0  0  0  0
  6  5  1  0  0  0  0
  7 29  1  0  0  0  0
  7  6  1  0  0  0  0
  8 10  1  0  0  0  0
  8 31  1  0  0  0  0
  8 30  1  0  0  0  0
  9 32  1  1  0  0  0
  9  7  1  0  0  0  0
 10 12  1  0  0  0  0
 11 10  2  0  0  0  0
 12  9  1  0  0  0  0
 13  8  1  0  0  0  0
 16  1  1  0  0  0  0
 18  2  1  0  0  0  0
 19  2  1  0  0  0  0
 21  3  1  0  0  0  0
 23  4  1  0  0  0  0
 25  5  1  0  0  0  0
 27  6  1  0  0  0  0
 28  7  1  0  0  0  0
 33 13  1  0  0  0  0
M  END
>  <HBA>
3

>  <HBD>
1

>  <TPSA>
65.1

>  <cid>
33187

>  <dipole>
2.01

>  <excitation_energy_1>
4.843

>  <excitation_energy_2>
5.468

>  <excitation_energy_3>
5.671

>  <excitation_energy_4>
6.241

>  <homo_energy>
-6.621

>  <homo_lumo_gap>
6.234

>  <logP>
2.818

>  <lumo_energy>
-0.386

>  <melting_point>
3.48

>  <molecular_refractivity>
59.4

>  <oscillator_strength_1>
0.0107

>  <oscillator_strength_2>
0.0046

>  <oscillator_strength_3>
0.0211

>  <oscillator_strength_4>
0.0136

>  <open_babel_can_smiles>
CCCCCC[C@H](OC(=O)CS)C

>  <mulliken_charges>
33
1   -0.443437
2   -0.474023
3   -0.250832
4   -0.255879
5   -0.261748
6   -0.262468
7   -0.28589
8   -0.49806
9   0.135753
10   0.637488
11   -0.474714
12   -0.471304
13   -0.059273
14   0.142301
15   0.141907
16   0.146017
17   0.147549
18   0.160078
19   0.186001
20   0.131971
21   0.130294
22   0.129167
23   0.131468
24   0.133401
25   0.133102
26   0.131168
27   0.135909
28   0.171697
29   0.138917
30   0.205245
31   0.205827
32   0.143198
33   0.119171

>  <lowdin_charges>
33
1   -0.446903
2   -0.45692
3   -0.275177
4   -0.281424
5   -0.278699
6   -0.276957
7   -0.290834
8   -0.396181
9   0.018298
10   0.192383
11   -0.274891
12   -0.188964
13   -0.054937
14   0.150459
15   0.147154
16   0.145563
17   0.156058
18   0.16114
19   0.170204
20   0.141087
21   0.137832
22   0.142242
23   0.141016
24   0.143224
25   0.143069
26   0.137549
27   0.142808
28   0.161233
29   0.147822
30   0.185325
31   0.181656
32   0.148537
33   0.127227

$$$$

