PCCDB-ID:  33296
public computational chemistry database (PCCDB) project, http://pccdb.org

 25 25  0  0  0  0  0  0  0  0999 V2000
    4.6746   -0.9177    2.4416 C   0  0  0  0  0  0  0  0  0  0  0  0
    2.1111   -4.3827    1.0409 C   0  0  0  0  0  0  0  0  0  0  0  0
    0.2450   -2.9808    1.6798 C   0  0  0  0  0  0  0  0  0  0  0  0
    2.8681   -3.2601    0.7459 C   0  0  0  0  0  0  0  0  0  0  0  0
    0.9934   -1.8579    1.3742 C   0  0  0  0  0  0  0  0  0  0  0  0
    0.0940   -5.5156    1.8082 C   0  0  0  0  0  0  0  0  0  0  0  0
   -2.1126   -4.7706    2.6843 C   0  0  0  0  0  0  0  0  0  0  0  0
   -1.5760   -7.1260    2.4894 C   0  0  0  0  0  0  0  0  0  0  0  0
    4.0481   -0.3918    1.1692 C   0  0  0  0  0  0  0  0  0  0  0  0
    0.7863   -4.2798    1.5225 C   0  0  0  0  0  0  0  0  0  0  0  0
   -1.1575   -5.7669    2.3079 C   0  0  0  0  0  0  0  0  0  0  0  0
    2.3245   -1.9718    0.9196 C   0  0  0  0  0  0  0  0  0  0  0  0
   -2.8995   -3.9726    2.9996 N   0  0  0  0  0  0  0  0  0  0  0  0
   -1.9083   -8.2321    2.6343 N   0  0  0  0  0  0  0  0  0  0  0  0
    3.0230   -0.8277    0.5607 N   0  0  0  0  0  0  0  0  0  0  0  0
    4.6465    0.7021    0.6326 O   0  0  0  0  0  0  0  0  0  0  0  0
    4.1283   -1.7790    2.8278 H   0  0  0  0  0  0  0  0  0  0  0  0
    4.6771   -0.1333    3.2088 H   0  0  0  0  0  0  0  0  0  0  0  0
    5.7153   -1.2147    2.2634 H   0  0  0  0  0  0  0  0  0  0  0  0
    2.5476   -5.3688    0.9015 H   0  0  0  0  0  0  0  0  0  0  0  0
   -0.7693   -2.8498    2.0360 H   0  0  0  0  0  0  0  0  0  0  0  0
    3.8772   -3.3627    0.3581 H   0  0  0  0  0  0  0  0  0  0  0  0
    0.5642   -0.8669    1.4817 H   0  0  0  0  0  0  0  0  0  0  0  0
    0.6712   -6.4121    1.5915 H   0  0  0  0  0  0  0  0  0  0  0  0
    5.3938    0.9702    1.1897 H   0  0  0  0  0  0  0  0  0  0  0  0
  1 17  1  0  0  0  0
  1 18  1  0  0  0  0
  2 10  2  0  0  0  0
  3 21  1  0  0  0  0
  4 12  2  0  0  0  0
  4  2  1  0  0  0  0
  5 23  1  0  0  0  0
  5  3  2  0  0  0  0
  6 11  2  0  0  0  0
  7 13  3  0  0  0  0
  8 14  3  0  0  0  0
  9  1  1  0  0  0  0
 10  3  1  0  0  0  0
 10  6  1  0  0  0  0
 11  8  1  0  0  0  0
 11  7  1  0  0  0  0
 12  5  1  0  0  0  0
 15 12  1  0  0  0  0
 15  9  2  0  0  0  0
 16  9  1  0  0  0  0
 16 25  1  0  0  0  0
 19  1  1  0  0  0  0
 20  2  1  0  0  0  0
 22  4  1  0  0  0  0
 24  6  1  0  0  0  0
M  END
>  <HBA>
4

>  <HBD>
1

>  <TPSA>
76.68

>  <cid>
33296

>  <dipole>
10.13

>  <excitation_energy_1>
3.583

>  <excitation_energy_2>
4.192

>  <excitation_energy_3>
4.683

>  <excitation_energy_4>
4.81

>  <homo_energy>
-6.335

>  <homo_lumo_gap>
3.723

>  <logP>
2.149

>  <lumo_energy>
-2.612

>  <melting_point>
153.02

>  <molecular_refractivity>
59.96

>  <oscillator_strength_1>
0.8669

>  <oscillator_strength_2>
0.0056

>  <oscillator_strength_3>
0.0042

>  <oscillator_strength_4>
0.0311

>  <open_babel_can_smiles>
N#CC(=Cc1ccc(cc1)/N=C(/O)\C)C#N

>  <mulliken_charges>
25
1   -0.554572
2   -0.188886
3   -0.190406
4   -0.15676
5   -0.15247
6   -0.169413
7   0.311918
8   0.281296
9   0.4873
10   0.171729
11   0.110768
12   0.251568
13   -0.498798
14   -0.46826
15   -0.455835
16   -0.558369
17   0.19896
18   0.184361
19   0.183243
20   0.147233
21   0.1816
22   0.14094
23   0.1538
24   0.173072
25   0.415983

>  <lowdin_charges>
25
1   -0.481323
2   -0.131818
3   -0.132135
4   -0.185292
5   -0.166025
6   -0.072578
7   -0.001251
8   -0.008067
9   0.157325
10   -0.033041
11   -0.062242
12   0.071906
13   -0.108416
14   -0.108144
15   -0.158761
16   -0.346725
17   0.185368
18   0.176079
19   0.173614
20   0.164516
21   0.184378
22   0.164571
23   0.17261
24   0.182429
25   0.363021

$$$$

