PCCDB-ID:  7196
public computational chemistry database (PCCDB) project, http://pccdb.org

 18 19  0  0  0  0  0  0  0  0999 V2000
    1.9039    1.0463    0.0209 C   0  0  0  0  0  0  0  0  0  0  0  0
    0.5838    1.5265    0.0177 C   0  0  0  0  0  0  0  0  0  0  0  0
    1.1407   -1.2757   -0.0366 C   0  0  0  0  0  0  0  0  0  0  0  0
   -2.3733   -0.5232   -0.0428 C   0  0  0  0  0  0  0  0  0  0  0  0
    2.1871   -0.3256    0.0043 C   0  0  0  0  0  0  0  0  0  0  0  0
   -0.4215    0.5794    0.0003 C   0  0  0  0  0  0  0  0  0  0  0  0
   -0.1457   -0.7897   -0.0281 C   0  0  0  0  0  0  0  0  0  0  0  0
    3.5838   -0.8626   -0.0145 C   0  0  0  0  0  0  0  0  0  0  0  0
    3.8657   -1.9726   -0.4015 O   0  0  0  0  0  0  0  0  0  0  0  0
    4.5671   -0.0337    0.4374 O   0  0  0  0  0  0  0  0  0  0  0  0
   -1.7726    0.7814    0.0002 O   0  0  0  0  0  0  0  0  0  0  0  0
   -1.3223   -1.4947   -0.0462 O   0  0  0  0  0  0  0  0  0  0  0  0
    2.7101    1.7744   -0.0125 H   0  0  0  0  0  0  0  0  0  0  0  0
    0.3609    2.5875    0.0185 H   0  0  0  0  0  0  0  0  0  0  0  0
    1.3673   -2.3344   -0.0718 H   0  0  0  0  0  0  0  0  0  0  0  0
   -2.9658   -0.6188   -0.9599 H   0  0  0  0  0  0  0  0  0  0  0  0
   -2.9998   -0.6621    0.8453 H   0  0  0  0  0  0  0  0  0  0  0  0
    4.1727    0.7355    0.8790 H   0  0  0  0  0  0  0  0  0  0  0  0
  2 14  1  0  0  0  0
  2  1  1  0  0  0  0
  3  7  2  0  0  0  0
  3  5  1  0  0  0  0
  4 11  1  0  0  0  0
  4 17  1  0  0  0  0
  5  1  2  0  0  0  0
  6  2  2  0  0  0  0
  7  6  1  0  0  0  0
  8  5  1  0  0  0  0
  8 10  1  0  0  0  0
  9  8  2  0  0  0  0
 10 18  1  0  0  0  0
 11  6  1  0  0  0  0
 12  4  1  0  0  0  0
 12  7  1  0  0  0  0
 13  1  1  0  0  0  0
 15  3  1  0  0  0  0
 16  4  1  0  0  0  0
M  END
>  <HBA>
4

>  <HBD>
1

>  <TPSA>
55.76

>  <cid>
7196

>  <dipole>
5.28

>  <excitation_energy_1>
4.419

>  <excitation_energy_2>
4.756

>  <excitation_energy_3>
4.901

>  <excitation_energy_4>
5.456

>  <homo_energy>
-6.185

>  <homo_lumo_gap>
4.982

>  <logP>
1.113

>  <lumo_energy>
-1.203

>  <melting_point>
130.1

>  <molecular_refractivity>
39.46

>  <oscillator_strength_1>
0.1164

>  <oscillator_strength_2>
0.0129

>  <oscillator_strength_3>
0.0145

>  <oscillator_strength_4>
0.0159

>  <open_babel_can_smiles>
OC(=O)c1ccc2c(c1)OCO2

>  <mulliken_charges>
18
1   -0.216076
2   -0.183285
3   -0.208534
4   0.190472
5   0.041599
6   0.346131
7   0.335773
8   0.550558
9   -0.448446
10   -0.577719
11   -0.524811
12   -0.527166
13   0.136704
14   0.155958
15   0.182211
16   0.169028
17   0.168879
18   0.408727

>  <lowdin_charges>
18
1   -0.170883
2   -0.180036
3   -0.154483
4   0.019938
5   -0.061915
6   0.08686
7   0.074315
8   0.191271
9   -0.242708
10   -0.358546
11   -0.196691
12   -0.197437
13   0.161108
14   0.174307
15   0.190276
16   0.153435
17   0.154107
18   0.357081

$$$$

