PCCDB-ID:  10801
public computational chemistry database (PCCDB) project, http://pccdb.org

 23 22  0  0  0  0  0  0  0  0999 V2000
    1.0113   -0.0835   -0.4532 C   0  0  0  0  0  0  0  0  0  0  0  0
    2.5402   -0.1627   -0.4015 C   0  0  0  0  0  0  0  0  0  0  0  0
    3.0512   -1.3707    0.3944 C   0  0  0  0  0  0  0  0  0  0  0  0
    4.5826   -1.4537    0.4266 C   0  0  0  0  0  0  0  0  0  0  0  0
    5.1200   -2.6605    1.2279 C   0  0  0  0  0  0  0  0  0  0  0  0
    6.6310   -2.8354    1.0053 C   0  0  0  0  0  0  0  0  0  0  0  0
    4.8732   -2.5051    2.7246 C   0  0  0  0  0  0  0  0  0  0  0  0
    7.4762   -2.5306    1.8054 O   0  0  0  0  0  0  0  0  0  0  0  0
    6.9811   -3.3351   -0.2099 O   0  0  0  0  0  0  0  0  0  0  0  0
    4.6112   -1.4710    3.2921 O   0  0  0  0  0  0  0  0  0  0  0  0
    4.9774   -3.6952    3.3557 O   0  0  0  0  0  0  0  0  0  0  0  0
    0.6775    0.7903   -1.0237 H   0  0  0  0  0  0  0  0  0  0  0  0
    0.5846   -0.0068    0.5541 H   0  0  0  0  0  0  0  0  0  0  0  0
    0.5827   -0.9749   -0.9278 H   0  0  0  0  0  0  0  0  0  0  0  0
    2.9407    0.7572    0.0458 H   0  0  0  0  0  0  0  0  0  0  0  0
    2.9402   -0.2042   -1.4249 H   0  0  0  0  0  0  0  0  0  0  0  0
    2.6429   -2.2944   -0.0437 H   0  0  0  0  0  0  0  0  0  0  0  0
    2.6711   -1.3148    1.4217 H   0  0  0  0  0  0  0  0  0  0  0  0
    4.9979   -0.5423    0.8698 H   0  0  0  0  0  0  0  0  0  0  0  0
    4.9662   -1.5110   -0.6011 H   0  0  0  0  0  0  0  0  0  0  0  0
    4.6147   -3.5815    0.9043 H   0  0  0  0  0  0  0  0  0  0  0  0
    6.1896   -3.5461   -0.7318 H   0  0  0  0  0  0  0  0  0  0  0  0
    4.8672   -3.5140    4.3084 H   0  0  0  0  0  0  0  0  0  0  0  0
  1  2  1  0  0  0  0
  1 13  1  0  0  0  0
  2 15  1  0  0  0  0
  2  3  1  0  0  0  0
  3  4  1  0  0  0  0
  3 18  1  0  0  0  0
  4 19  1  0  0  0  0
  4  5  1  0  0  0  0
  5  7  1  0  0  0  0
  6  5  1  0  0  0  0
  6  8  2  0  0  0  0
  7 10  2  0  0  0  0
  7 11  1  0  0  0  0
  9  6  1  0  0  0  0
 11 23  1  0  0  0  0
 12  1  1  0  0  0  0
 14  1  1  0  0  0  0
 16  2  1  0  0  0  0
 17  3  1  0  0  0  0
 20  4  1  0  0  0  0
 21  5  1  0  0  0  0
 22  9  1  0  0  0  0
M  END
>  <HBA>
4

>  <HBD>
2

>  <TPSA>
74.6

>  <cid>
10801

>  <dipole>
4.32

>  <excitation_energy_1>
5.65

>  <excitation_energy_2>
5.711

>  <excitation_energy_3>
6.258

>  <excitation_energy_4>
6.661

>  <homo_energy>
-7.603

>  <homo_lumo_gap>
7.423

>  <logP>
0.962

>  <lumo_energy>
-0.18

>  <melting_point>
127.09

>  <molecular_refractivity>
39.31

>  <oscillator_strength_1>
0.0025

>  <oscillator_strength_2>
0.0006

>  <oscillator_strength_3>
0.0011

>  <oscillator_strength_4>
0.0304

>  <open_babel_can_smiles>
CCCCC(C(=O)O)C(=O)O

>  <mulliken_charges>
23
1   -0.443547
2   -0.251379
3   -0.257982
4   -0.260878
5   -0.310523
6   0.624369
7   0.609028
8   -0.426844
9   -0.565789
10   -0.451396
11   -0.564332
12   0.14697
13   0.147958
14   0.141039
15   0.143734
16   0.130039
17   0.122748
18   0.158919
19   0.182436
20   0.128103
21   0.166909
22   0.414137
23   0.416281

>  <lowdin_charges>
23
1   -0.444501
2   -0.270354
3   -0.277373
4   -0.270755
5   -0.196479
6   0.205754
7   0.20456
8   -0.225934
9   -0.351311
10   -0.249778
11   -0.345558
12   0.152962
13   0.149137
14   0.146781
15   0.146111
16   0.137365
17   0.134929
18   0.152411
19   0.168962
20   0.140356
21   0.16725
22   0.360597
23   0.364868

$$$$

