PCCDB-ID:  69325
public computational chemistry database (PCCDB) project, http://pccdb.org

 17 17  0  0  0  0  0  0  0  0999 V2000
    0.8898   -0.2165   -0.1184 C   0  0  0  0  0  0  0  0  0  0  0  0
    3.2228   -1.2081   -0.0411 C   0  0  0  0  0  0  0  0  0  0  0  0
    3.0064    1.1762   -0.2164 C   0  0  0  0  0  0  0  0  0  0  0  0
    4.6107   -1.0946   -0.0698 C   0  0  0  0  0  0  0  0  0  0  0  0
    4.3921    1.3101   -0.2466 C   0  0  0  0  0  0  0  0  0  0  0  0
    7.6656    0.4128    0.2936 C   0  0  0  0  0  0  0  0  0  0  0  0
    2.3944   -0.0806   -0.1164 C   0  0  0  0  0  0  0  0  0  0  0  0
    5.2025    0.1708   -0.1641 C   0  0  0  0  0  0  0  0  0  0  0  0
    6.5882    0.2941   -0.2167 N   0  0  0  0  0  0  0  0  0  0  0  0
    8.7753    0.5292    0.6840 O   0  0  0  0  0  0  0  0  0  0  0  0
    0.5686   -1.1220    0.4069 H   0  0  0  0  0  0  0  0  0  0  0  0
    0.4964   -0.2770   -1.1421 H   0  0  0  0  0  0  0  0  0  0  0  0
    0.4087    0.6420    0.3625 H   0  0  0  0  0  0  0  0  0  0  0  0
    2.7756   -2.1959    0.0412 H   0  0  0  0  0  0  0  0  0  0  0  0
    2.3885    2.0694   -0.2722 H   0  0  0  0  0  0  0  0  0  0  0  0
    5.2421   -1.9758   -0.0138 H   0  0  0  0  0  0  0  0  0  0  0  0
    4.8550    2.2886   -0.3272 H   0  0  0  0  0  0  0  0  0  0  0  0
  1  7  1  0  0  0  0
  1 13  1  0  0  0  0
  1 11  1  0  0  0  0
  2 14  1  0  0  0  0
  3  7  1  0  0  0  0
  4  2  1  0  0  0  0
  4 16  1  0  0  0  0
  5  3  2  0  0  0  0
  5  8  1  0  0  0  0
  6 10  2  0  0  0  0
  7  2  2  0  0  0  0
  8  4  2  0  0  0  0
  9  8  1  0  0  0  0
  9  6  2  0  0  0  0
 12  1  1  0  0  0  0
 15  3  1  0  0  0  0
 17  5  1  0  0  0  0
M  END
>  <HBA>
2

>  <HBD>
0

>  <TPSA>
29.43

>  <cid>
69325

>  <dipole>
3.3

>  <excitation_energy_1>
4.972

>  <excitation_energy_2>
5.303

>  <excitation_energy_3>
5.72

>  <excitation_energy_4>
6.021

>  <homo_energy>
-6.329

>  <homo_lumo_gap>
5.788

>  <logP>
1.962

>  <lumo_energy>
-0.542

>  <melting_point>
66.3

>  <molecular_refractivity>
39.19

>  <oscillator_strength_1>
0.0064

>  <oscillator_strength_2>
0.2877

>  <oscillator_strength_3>
0.0237

>  <oscillator_strength_4>
0.0004

>  <open_babel_can_smiles>
O=C=Nc1ccc(cc1)C

>  <mulliken_charges>
17
1   -0.531161
2   -0.194775
3   -0.193698
4   -0.12769
5   -0.127835
6   0.561098
7   0.186133
8   0.267411
9   -0.467711
10   -0.408946
11   0.159394
12   0.169278
13   0.160181
14   0.131012
15   0.131002
16   0.143073
17   0.143233

>  <lowdin_charges>
17
1   -0.442362
2   -0.158734
3   -0.159491
4   -0.163975
5   -0.162579
6   0.18168
7   0.000521
8   0.064159
9   -0.133786
10   -0.163358
11   0.159903
12   0.163041
13   0.160775
14   0.15897
15   0.15994
16   0.168031
17   0.167265

$$$$

