PCCDB-ID:  15409
public computational chemistry database (PCCDB) project, http://pccdb.org

 35 36  0  0  1  0  0  0  0  0999 V2000
    0.4068    0.3134    2.4530 C   0  0  0  0  0  0  0  0  0  0  0  0
    1.9028    1.4506    0.9726 C   0  0  0  0  0  0  0  0  0  0  0  0
   -1.9866   -3.7271    0.6073 C   0  0  0  0  0  0  0  0  0  0  0  0
    4.4473   -3.3574   -2.9007 C   0  0  0  0  0  0  0  0  0  0  0  0
   -2.1460   -2.5067   -0.0550 C   0  0  0  0  0  0  0  0  0  0  0  0
   -0.7783   -4.0165    1.2415 C   0  0  0  0  0  0  0  0  0  0  0  0
    3.7427   -2.3963   -3.6317 C   0  0  0  0  0  0  0  0  0  0  0  0
    4.2410   -3.4724   -1.5254 C   0  0  0  0  0  0  0  0  0  0  0  0
   -1.1024   -1.5834   -0.0883 C   0  0  0  0  0  0  0  0  0  0  0  0
    0.2656   -3.0893    1.2118 C   0  0  0  0  0  0  0  0  0  0  0  0
    2.8398   -1.5575   -2.9876 C   0  0  0  0  0  0  0  0  0  0  0  0
    3.3359   -2.6307   -0.8791 C   0  0  0  0  0  0  0  0  0  0  0  0
    0.1143   -1.8670    0.5490 C   0  0  0  0  0  0  0  0  0  0  0  0
    2.6226   -1.6619   -1.6026 C   0  0  0  0  0  0  0  0  0  0  0  0
    1.2498   -0.8435    0.4993 C   0  0  1  0  0  0  0  0  0  0  0  0
    1.6382   -0.7030   -0.9947 C   0  0  0  0  0  0  0  0  0  0  0  0
    0.8461    0.4457    1.0668 N   0  0  0  0  0  0  0  0  0  0  0  0
    1.1071    0.1499   -1.6881 O   0  0  0  0  0  0  0  0  0  0  0  0
    0.0778    1.2933    2.8142 H   0  0  0  0  0  0  0  0  0  0  0  0
    1.2068   -0.0473    3.1309 H   0  0  0  0  0  0  0  0  0  0  0  0
   -0.4368   -0.3766    2.5238 H   0  0  0  0  0  0  0  0  0  0  0  0
    1.5389    2.3879    1.4058 H   0  0  0  0  0  0  0  0  0  0  0  0
    2.1553    1.6404   -0.0714 H   0  0  0  0  0  0  0  0  0  0  0  0
    2.8234    1.1609    1.5183 H   0  0  0  0  0  0  0  0  0  0  0  0
   -2.8009   -4.4465    0.6298 H   0  0  0  0  0  0  0  0  0  0  0  0
    5.1543   -4.0136   -3.4014 H   0  0  0  0  0  0  0  0  0  0  0  0
   -3.0854   -2.2754   -0.5502 H   0  0  0  0  0  0  0  0  0  0  0  0
   -0.6472   -4.9603    1.7642 H   0  0  0  0  0  0  0  0  0  0  0  0
    3.8988   -2.3039   -4.7030 H   0  0  0  0  0  0  0  0  0  0  0  0
    4.7860   -4.2179   -0.9529 H   0  0  0  0  0  0  0  0  0  0  0  0
   -1.2156   -0.6342   -0.6025 H   0  0  0  0  0  0  0  0  0  0  0  0
    1.2004   -3.3148    1.7203 H   0  0  0  0  0  0  0  0  0  0  0  0
    2.2839   -0.8042   -3.5355 H   0  0  0  0  0  0  0  0  0  0  0  0
    3.1911   -2.7405    0.1894 H   0  0  0  0  0  0  0  0  0  0  0  0
    2.1102   -1.2581    1.0576 H   0  0  0  0  0  0  0  0  0  0  0  0
  1 21  1  0  0  0  0
  1 19  1  0  0  0  0
  1 20  1  0  0  0  0
  2 17  1  0  0  0  0
  2 22  1  0  0  0  0
  2 24  1  0  0  0  0
  3 25  1  0  0  0  0
  3  6  2  0  0  0  0
  4  8  2  0  0  0  0
  5  3  1  0  0  0  0
  6 28  1  0  0  0  0
  7 11  2  0  0  0  0
  7  4  1  0  0  0  0
  8 30  1  0  0  0  0
  8 12  1  0  0  0  0
  9  5  2  0  0  0  0
  9 13  1  0  0  0  0
 10  6  1  0  0  0  0
 10 32  1  0  0  0  0
 11 14  1  0  0  0  0
 12 34  1  0  0  0  0
 13 10  2  0  0  0  0
 14 16  1  0  0  0  0
 14 12  2  0  0  0  0
 15 13  1  0  0  0  0
 15 35  1  1  0  0  0
 15 17  1  0  0  0  0
 16 15  1  0  0  0  0
 17  1  1  0  0  0  0
 18 16  2  0  0  0  0
 23  2  1  0  0  0  0
 26  4  1  0  0  0  0
 27  5  1  0  0  0  0
 29  7  1  0  0  0  0
 31  9  1  0  0  0  0
 33 11  1  0  0  0  0
M  END
>  <HBA>
2

>  <HBD>
0

>  <TPSA>
20.31

>  <cid>
15409

>  <dipole>
2.92

>  <excitation_energy_1>
3.287

>  <excitation_energy_2>
3.53

>  <excitation_energy_3>
4.411

>  <excitation_energy_4>
4.48

>  <homo_energy>
-5.793

>  <homo_lumo_gap>
4.199

>  <logP>
3.172

>  <lumo_energy>
-1.595

>  <melting_point>
69.91

>  <molecular_refractivity>
73.63

>  <oscillator_strength_1>
0.0002

>  <oscillator_strength_2>
0.0127

>  <oscillator_strength_3>
0.0329

>  <oscillator_strength_4>
0.0171

>  <open_babel_can_smiles>
CN([C@H](C(=O)c1ccccc1)c1ccccc1)C

>  <mulliken_charges>
35
1   -0.302853
2   -0.311403
3   -0.126393
4   -0.117374
5   -0.131476
6   -0.131397
7   -0.133207
8   -0.1371
9   -0.153229
10   -0.181455
11   -0.152446
12   -0.172327
13   0.11852
14   0.083173
15   -0.077861
16   0.383541
17   -0.363587
18   -0.46771
19   0.150247
20   0.111223
21   0.167955
22   0.150229
23   0.177377
24   0.111007
25   0.130445
26   0.137608
27   0.133557
28   0.129769
29   0.13835
30   0.135605
31   0.167897
32   0.123171
33   0.165146
34   0.13703
35   0.107969

>  <lowdin_charges>
35
1   -0.360781
2   -0.362109
3   -0.156212
4   -0.139263
5   -0.153213
6   -0.156259
7   -0.153349
8   -0.159113
9   -0.148133
10   -0.166836
11   -0.127484
12   -0.145654
13   -0.011335
14   -0.047647
15   -0.087009
16   0.161133
17   -0.168049
18   -0.23618
19   0.151383
20   0.118279
21   0.160673
22   0.152888
23   0.162468
24   0.117108
25   0.158875
26   0.16269
27   0.159364
28   0.157596
29   0.159949
30   0.161813
31   0.176865
32   0.152685
33   0.178643
34   0.158346
35   0.127868

$$$$

