PCCDB-ID:  71082
public computational chemistry database (PCCDB) project, http://pccdb.org

 21 20  0  0  1  0  0  0  0  0999 V2000
   -0.4146    2.0236    1.1650 C   0  0  0  0  0  0  0  0  0  0  0  0
   -1.3363    1.9680   -0.0609 C   0  0  0  0  0  0  0  0  0  0  0  0
   -0.9592    2.9391    2.2643 C   0  0  0  0  0  0  0  0  0  0  0  0
   -0.8728    1.0116   -1.1752 C   0  0  2  0  0  0  0  0  0  0  0  0
    0.3354    1.5548   -1.9772 C   0  0  0  0  0  0  0  0  0  0  0  0
   -0.0447    2.9648    3.4105 N   0  0  0  0  0  0  0  0  0  0  0  0
   -1.9214    0.6287   -2.1458 N   0  0  0  0  0  0  0  0  0  0  0  0
    1.2015    2.2532   -1.5044 O   0  0  0  0  0  0  0  0  0  0  0  0
    0.3497    1.1479   -3.2569 O   0  0  0  0  0  0  0  0  0  0  0  0
    0.5800    2.3644    0.8690 H   0  0  0  0  0  0  0  0  0  0  0  0
   -0.2989    1.0059    1.5711 H   0  0  0  0  0  0  0  0  0  0  0  0
   -1.4540    2.9762   -0.4824 H   0  0  0  0  0  0  0  0  0  0  0  0
   -2.3374    1.6400    0.2556 H   0  0  0  0  0  0  0  0  0  0  0  0
   -1.9914    2.6283    2.5197 H   0  0  0  0  0  0  0  0  0  0  0  0
   -1.0315    3.9633    1.8757 H   0  0  0  0  0  0  0  0  0  0  0  0
   -0.5216    0.0764   -0.7166 H   0  0  0  0  0  0  0  0  0  0  0  0
   -0.0351    2.0497    3.8602 H   0  0  0  0  0  0  0  0  0  0  0  0
   -0.3874    3.6187    4.1124 H   0  0  0  0  0  0  0  0  0  0  0  0
   -2.5066    1.4352   -2.3648 H   0  0  0  0  0  0  0  0  0  0  0  0
   -2.5366   -0.0811   -1.7548 H   0  0  0  0  0  0  0  0  0  0  0  0
   -0.4994    0.6520   -3.3749 H   0  0  0  0  0  0  0  0  0  0  0  0
  1 11  1  0  0  0  0
  1  3  1  0  0  0  0
  2 13  1  0  0  0  0
  2  1  1  0  0  0  0
  3 14  1  0  0  0  0
  3  6  1  0  0  0  0
  4 16  1  1  0  0  0
  4  2  1  0  0  0  0
  5  8  2  0  0  0  0
  5  4  1  0  0  0  0
  6 17  1  0  0  0  0
  6 18  1  0  0  0  0
  7 20  1  0  0  0  0
  7  4  1  0  0  0  0
  9  5  1  0  0  0  0
 10  1  1  0  0  0  0
 12  2  1  0  0  0  0
 15  3  1  0  0  0  0
 19  7  1  0  0  0  0
 21  9  1  0  0  0  0
M  END
>  <HBA>
4

>  <HBD>
3

>  <TPSA>
89.34

>  <cid>
71082

>  <dipole>
6.38

>  <excitation_energy_1>
5.339

>  <excitation_energy_2>
5.463

>  <excitation_energy_3>
5.575

>  <excitation_energy_4>
6.131

>  <homo_energy>
-6.272

>  <homo_lumo_gap>
6.645

>  <logP>
0.538

>  <lumo_energy>
0.373

>  <melting_point>
159.76

>  <molecular_refractivity>
33.34

>  <oscillator_strength_1>
0.0024

>  <oscillator_strength_2>
0.0013

>  <oscillator_strength_3>
0.0112

>  <oscillator_strength_4>
0.017

>  <open_babel_can_smiles>
N[C@@H](C(=O)O)CCCN

>  <mulliken_charges>
21
1   -0.260906
2   -0.264538
3   -0.135091
4   -0.091563
5   0.60727
6   -0.711951
7   -0.770197
8   -0.455773
9   -0.57969
10   0.200282
11   0.114654
12   0.145189
13   0.122624
14   0.101978
15   0.142182
16   0.174169
17   0.290221
18   0.295299
19   0.321273
20   0.32275
21   0.431815

>  <lowdin_charges>
21
1   -0.283166
2   -0.280271
3   -0.200745
4   -0.109229
5   0.177333
6   -0.556857
7   -0.547183
8   -0.252236
9   -0.357809
10   0.173943
11   0.131002
12   0.14813
13   0.136437
14   0.108591
15   0.141824
16   0.165414
17   0.250084
18   0.25585
19   0.267939
20   0.272209
21   0.358738

$$$$

