PCCDB-ID:  6495
public computational chemistry database (PCCDB) project, http://pccdb.org

 19 18  0  0  0  0  0  0  0  0999 V2000
    0.9123    0.0516    0.0802 C   0  0  0  0  0  0  0  0  0  0  0  0
    2.9145   -0.6854   -1.2823 C   0  0  0  0  0  0  0  0  0  0  0  0
    4.4003    1.1680    0.4295 C   0  0  0  0  0  0  0  0  0  0  0  0
    2.4331   -0.9994    2.3512 C   0  0  0  0  0  0  0  0  0  0  0  0
    2.4254   -0.1809    0.0774 C   0  0  0  0  0  0  0  0  0  0  0  0
    2.9820    1.0820    0.4279 O   0  0  0  0  0  0  0  0  0  0  0  0
    2.8277   -1.1889    0.9993 O   0  0  0  0  0  0  0  0  0  0  0  0
    0.6381    0.7264   -0.7358 H   0  0  0  0  0  0  0  0  0  0  0  0
    0.5913    0.5136    1.0176 H   0  0  0  0  0  0  0  0  0  0  0  0
    0.3844   -0.8977   -0.0520 H   0  0  0  0  0  0  0  0  0  0  0  0
    2.7620    0.0825   -2.0469 H   0  0  0  0  0  0  0  0  0  0  0  0
    2.3596   -1.5840   -1.5670 H   0  0  0  0  0  0  0  0  0  0  0  0
    3.9752   -0.9470   -1.2420 H   0  0  0  0  0  0  0  0  0  0  0  0
    4.6503    2.0999    0.9436 H   0  0  0  0  0  0  0  0  0  0  0  0
    4.8119    1.2088   -0.5886 H   0  0  0  0  0  0  0  0  0  0  0  0
    4.8563    0.3265    0.9646 H   0  0  0  0  0  0  0  0  0  0  0  0
    3.0206   -1.7056    2.9442 H   0  0  0  0  0  0  0  0  0  0  0  0
    1.3668   -1.2170    2.5029 H   0  0  0  0  0  0  0  0  0  0  0  0
    2.6407    0.0211    2.6939 H   0  0  0  0  0  0  0  0  0  0  0  0
  1  9  1  0  0  0  0
  2 13  1  0  0  0  0
  2  5  1  0  0  0  0
  3 14  1  0  0  0  0
  3 16  1  0  0  0  0
  4 18  1  0  0  0  0
  4 19  1  0  0  0  0
  4 17  1  0  0  0  0
  5  1  1  0  0  0  0
  5  6  1  0  0  0  0
  5  7  1  0  0  0  0
  6  3  1  0  0  0  0
  7  4  1  0  0  0  0
  8  1  1  0  0  0  0
 10  1  1  0  0  0  0
 11  2  1  0  0  0  0
 12  2  1  0  0  0  0
 15  3  1  0  0  0  0
M  END
>  <HBA>
2

>  <HBD>
0

>  <TPSA>
18.46

>  <cid>
6495

>  <dipole>
0.17

>  <excitation_energy_1>
6.744

>  <excitation_energy_2>
6.901

>  <excitation_energy_3>
7.086

>  <excitation_energy_4>
7.16

>  <homo_energy>
-6.983

>  <homo_lumo_gap>
9.429

>  <logP>
1.015

>  <lumo_energy>
2.446

>  <melting_point>
-32.77

>  <molecular_refractivity>
28.36

>  <oscillator_strength_1>
0.003

>  <oscillator_strength_2>
0.0025

>  <oscillator_strength_3>
0.0001

>  <oscillator_strength_4>
0.0088

>  <open_babel_can_smiles>
COC(OC)(C)C

>  <mulliken_charges>
19
1   -0.471822
2   -0.471968
3   -0.209308
4   -0.209457
5   0.529543
6   -0.485752
7   -0.48582
8   0.15523
9   0.157307
10   0.149771
11   0.149762
12   0.155369
13   0.157284
14   0.152994
15   0.135985
16   0.150895
17   0.152904
18   0.135944
19   0.151138

>  <lowdin_charges>
19
1   -0.458063
2   -0.456505
3   -0.286575
4   -0.285096
5   0.212845
6   -0.273865
7   -0.27349
8   0.162361
9   0.160223
10   0.156362
11   0.157032
12   0.162122
13   0.158615
14   0.153535
15   0.134578
16   0.144665
17   0.154848
18   0.133464
19   0.142946

$$$$

