PCCDB-ID:  33427
public computational chemistry database (PCCDB) project, http://pccdb.org

 34 34  0  0  1  0  0  0  0  0999 V2000
    1.6703   -3.4891   -0.9060 C   0  0  0  0  0  0  0  0  0  0  0  0
    9.4752    1.3489   -1.5452 C   0  0  0  0  0  0  0  0  0  0  0  0
   11.9324   -4.5184   -1.9922 C   0  0  0  0  0  0  0  0  0  0  0  0
    3.1712   -3.3650   -0.6248 C   0  0  0  0  0  0  0  0  0  0  0  0
    3.9853   -2.9681   -1.8631 C   0  0  0  0  0  0  0  0  0  0  0  0
    5.4866   -2.8344   -1.5814 C   0  0  0  0  0  0  0  0  0  0  0  0
    6.2924   -2.4291   -2.8338 C   0  0  0  0  0  0  0  0  0  0  0  0
    7.7612   -2.2611   -2.5378 C   0  0  1  0  0  0  0  0  0  0  0  0
    9.5833   -0.9750   -1.9124 C   0  0  0  0  0  0  0  0  0  0  0  0
    9.8884   -3.4149   -2.2589 C   0  0  0  0  0  0  0  0  0  0  0  0
   10.2013    0.0941   -1.5940 N   0  0  0  0  0  0  0  0  0  0  0  0
   10.5151   -4.5264   -2.3103 N   0  0  0  0  0  0  0  0  0  0  0  0
    8.2297   -1.0922   -2.2354 N   0  0  0  0  0  0  0  0  0  0  0  0
    8.5203   -3.4013   -2.5641 N   0  0  0  0  0  0  0  0  0  0  0  0
   10.3563   -2.1618   -1.9389 N   0  0  0  0  0  0  0  0  0  0  0  0
    1.1182   -3.7747   -0.0037 H   0  0  0  0  0  0  0  0  0  0  0  0
    1.4711   -4.2481   -1.6725 H   0  0  0  0  0  0  0  0  0  0  0  0
    1.2541   -2.5398   -1.2646 H   0  0  0  0  0  0  0  0  0  0  0  0
    9.9463    2.0627   -2.2338 H   0  0  0  0  0  0  0  0  0  0  0  0
    9.5674    1.7772   -0.5383 H   0  0  0  0  0  0  0  0  0  0  0  0
    8.4119    1.2623   -1.7972 H   0  0  0  0  0  0  0  0  0  0  0  0
   12.3220   -5.5365   -2.0780 H   0  0  0  0  0  0  0  0  0  0  0  0
   12.1367   -4.1748   -0.9644 H   0  0  0  0  0  0  0  0  0  0  0  0
   12.5193   -3.8840   -2.6774 H   0  0  0  0  0  0  0  0  0  0  0  0
    3.5509   -4.3189   -0.2322 H   0  0  0  0  0  0  0  0  0  0  0  0
    3.3358   -2.6224    0.1684 H   0  0  0  0  0  0  0  0  0  0  0  0
    3.6045   -2.0154   -2.2591 H   0  0  0  0  0  0  0  0  0  0  0  0
    3.8260   -3.7132   -2.6569 H   0  0  0  0  0  0  0  0  0  0  0  0
    5.8729   -3.7841   -1.1851 H   0  0  0  0  0  0  0  0  0  0  0  0
    5.6544   -2.0810   -0.8014 H   0  0  0  0  0  0  0  0  0  0  0  0
    5.9266   -1.4717   -3.2149 H   0  0  0  0  0  0  0  0  0  0  0  0
    6.1540   -3.1790   -3.6247 H   0  0  0  0  0  0  0  0  0  0  0  0
    8.1293   -4.2999   -2.8130 H   0  0  0  0  0  0  0  0  0  0  0  0
   11.3315   -2.0417   -1.7023 H   0  0  0  0  0  0  0  0  0  0  0  0
  1  4  1  0  0  0  0
  1 16  1  0  0  0  0
  2 20  1  0  0  0  0
  3 23  1  0  0  0  0
  4 25  1  0  0  0  0
  4 26  1  0  0  0  0
  5  6  1  0  0  0  0
  5  4  1  0  0  0  0
  6 29  1  0  0  0  0
  6 30  1  0  0  0  0
  7  6  1  0  0  0  0
  8  7  1  1  0  0  0
  8 13  1  0  0  0  0
  9 11  1  0  0  0  0
 10 15  1  0  0  0  0
 11  2  1  0  0  0  0
 12 10  2  0  0  0  0
 12  3  1  0  0  0  0
 13  9  2  0  0  0  0
 14  8  1  0  0  0  0
 14 10  1  0  0  0  0
 15  9  1  0  0  0  0
 15 34  1  0  0  0  0
 17  1  1  0  0  0  0
 18  1  1  0  0  0  0
 19  2  1  0  0  0  0
 21  2  1  0  0  0  0
 22  3  1  0  0  0  0
 24  3  1  0  0  0  0
 27  5  1  0  0  0  0
 28  5  1  0  0  0  0
 31  7  1  0  0  0  0
 32  7  1  0  0  0  0
 33 14  1  0  0  0  0
M  RAD  2   8   2  11   2
M  END
>  <HBA>
5

>  <HBD>
2

>  <TPSA>
62.73

>  <cid>
33427

>  <dipole>
2.82

>  <excitation_energy_1>
4.717

>  <excitation_energy_2>
4.833

>  <excitation_energy_3>
4.861

>  <excitation_energy_4>
5.462

>  <homo_energy>
-5.97

>  <homo_lumo_gap>
5.353

>  <logP>
1.834

>  <lumo_energy>
-0.618

>  <melting_point>
122.13

>  <molecular_refractivity>
62.63

>  <oscillator_strength_1>
0.055

>  <oscillator_strength_2>
0.0062

>  <oscillator_strength_3>
0.0987

>  <oscillator_strength_4>
0.0003

>  <open_babel_can_smiles>
CCCCC[C]1N/C(=N/C)/NC(=N1)[N]C

>  <mulliken_charges>
34
1   -0.442768
2   -0.320096
3   -0.340898
4   -0.249494
5   -0.246715
6   -0.262079
7   -0.343575
8   0.522404
9   0.653173
10   0.753256
11   -0.496341
12   -0.494139
13   -0.52129
14   -0.677435
15   -0.711754
16   0.145938
17   0.142524
18   0.144239
19   0.146179
20   0.145681
21   0.158754
22   0.164123
23   0.141061
24   0.141406
25   0.132946
26   0.136464
27   0.135973
28   0.128995
29   0.135419
30   0.159083
31   0.179574
32   0.144038
33   0.3477
34   0.347654

>  <lowdin_charges>
34
1   -0.445464
2   -0.356792
3   -0.362334
4   -0.272347
5   -0.274742
6   -0.271098
7   -0.281336
8   0.123517
9   0.11648
10   0.132283
11   -0.239618
12   -0.27403
13   -0.229161
14   -0.225586
15   -0.251635
16   0.152165
17   0.147604
18   0.147934
19   0.149162
20   0.147022
21   0.145022
22   0.157509
23   0.136943
24   0.139488
25   0.140237
26   0.142674
27   0.142015
28   0.138814
29   0.141102
30   0.154598
31   0.17319
32   0.15102
33   0.303959
34   0.301407

$$$$

