PCCDB-ID:  42772
public computational chemistry database (PCCDB) project, http://pccdb.org

 23 25  0  0  0  0  0  0  0  0999 V2000
    1.0235   -0.0654    0.0939 C   0  0  0  0  0  0  0  0  0  0  0  0
    7.1423    0.5465    0.0801 C   0  0  0  0  0  0  0  0  0  0  0  0
    4.3525   -3.4304    0.0859 C   0  0  0  0  0  0  0  0  0  0  0  0
    7.1220   -0.8374    0.0811 C   0  0  0  0  0  0  0  0  0  0  0  0
    5.6467   -2.9375    0.0840 C   0  0  0  0  0  0  0  0  0  0  0  0
    5.9518    1.3330    0.0827 C   0  0  0  0  0  0  0  0  0  0  0  0
    3.2089   -2.5790    0.0887 C   0  0  0  0  0  0  0  0  0  0  0  0
    3.3157    1.0918    0.0900 C   0  0  0  0  0  0  0  0  0  0  0  0
    2.5200   -0.0189    0.0911 C   0  0  0  0  0  0  0  0  0  0  0  0
    5.8736   -1.5296    0.0847 C   0  0  0  0  0  0  0  0  0  0  0  0
    4.7306    0.6895    0.0871 C   0  0  0  0  0  0  0  0  0  0  0  0
    3.4002   -1.2117    0.0906 C   0  0  0  0  0  0  0  0  0  0  0  0
    4.7299   -0.7276    0.0885 C   0  0  0  0  0  0  0  0  0  0  0  0
    0.5949    0.9416    0.0923 H   0  0  0  0  0  0  0  0  0  0  0  0
    0.6401   -0.5941    0.9771 H   0  0  0  0  0  0  0  0  0  0  0  0
    0.6369   -0.5983   -0.7854 H   0  0  0  0  0  0  0  0  0  0  0  0
    8.1001    1.0604    0.0773 H   0  0  0  0  0  0  0  0  0  0  0  0
    4.1968   -4.5061    0.0853 H   0  0  0  0  0  0  0  0  0  0  0  0
    8.0548   -1.3961    0.0791 H   0  0  0  0  0  0  0  0  0  0  0  0
    6.4897   -3.6245    0.0820 H   0  0  0  0  0  0  0  0  0  0  0  0
    6.0301    2.4176    0.0815 H   0  0  0  0  0  0  0  0  0  0  0  0
    2.2156   -3.0219    0.0904 H   0  0  0  0  0  0  0  0  0  0  0  0
    2.9593    2.1164    0.0893 H   0  0  0  0  0  0  0  0  0  0  0  0
  1 15  1  0  0  0  0
  2  4  2  0  0  0  0
  2  6  1  0  0  0  0
  3  7  1  0  0  0  0
  4 10  1  0  0  0  0
  5 10  1  0  0  0  0
  5  3  2  0  0  0  0
  6 11  2  0  0  0  0
  7 22  1  0  0  0  0
  7 12  2  0  0  0  0
  8  9  2  0  0  0  0
  9  1  1  0  0  0  0
 10 13  2  0  0  0  0
 11 13  1  0  0  0  0
 11  8  1  0  0  0  0
 12  9  1  0  0  0  0
 13 12  1  0  0  0  0
 14  1  1  0  0  0  0
 16  1  1  0  0  0  0
 17  2  1  0  0  0  0
 18  3  1  0  0  0  0
 19  4  1  0  0  0  0
 20  5  1  0  0  0  0
 21  6  1  0  0  0  0
 23  8  1  0  0  0  0
M  END
>  <HBA>
0

>  <HBD>
0

>  <TPSA>
0.0

>  <cid>
42772

>  <dipole>
0.31

>  <excitation_energy_1>
3.022

>  <excitation_energy_2>
3.862

>  <excitation_energy_3>
4.188

>  <excitation_energy_4>
4.766

>  <homo_energy>
-5.633

>  <homo_lumo_gap>
3.853

>  <logP>
3.714

>  <lumo_energy>
-1.78

>  <melting_point>
102.67

>  <molecular_refractivity>
57.68

>  <oscillator_strength_1>
0.012

>  <oscillator_strength_2>
0.1019

>  <oscillator_strength_3>
0.0874

>  <oscillator_strength_4>
0.0285

>  <open_babel_can_smiles>
CC1=Cc2c3c1cccc3ccc2

>  <mulliken_charges>
23
1   -0.529591
2   -0.126682
3   -0.128096
4   -0.208377
5   -0.207386
6   -0.226905
7   -0.230783
8   -0.250436
9   0.120771
10   0.208037
11   0.150963
12   0.116428
13   -0.074065
14   0.158407
15   0.160863
16   0.160764
17   0.128189
18   0.128649
19   0.130256
20   0.131209
21   0.132297
22   0.130758
23   0.124731

>  <lowdin_charges>
23
1   -0.441364
2   -0.159405
3   -0.158385
4   -0.152943
5   -0.149473
6   -0.144448
7   -0.145878
8   -0.18721
9   -0.003149
10   -0.001565
11   -0.003213
12   -0.01095
13   -0.027748
14   0.160153
15   0.160883
16   0.160868
17   0.158214
18   0.156442
19   0.158525
20   0.159415
21   0.156921
22   0.158283
23   0.156028

$$$$

