PCCDB-ID:  33828
public computational chemistry database (PCCDB) project, http://pccdb.org

 31 31  0  0  0  0  0  0  0  0999 V2000
    3.3249   -1.6377   -0.1170 C   0  0  0  0  0  0  0  0  0  0  0  0
    8.2467    2.6633   -3.6121 C   0  0  0  0  0  0  0  0  0  0  0  0
    4.2526    5.0501   -5.4322 C   0  0  0  0  0  0  0  0  0  0  0  0
    2.3718    4.0683   -4.1125 C   0  0  0  0  0  0  0  0  0  0  0  0
    2.9499   -0.2126    0.2953 C   0  0  0  0  0  0  0  0  0  0  0  0
    3.2391    0.8194   -0.8017 C   0  0  0  0  0  0  0  0  0  0  0  0
    6.7833    2.5711   -3.2750 C   0  0  0  0  0  0  0  0  0  0  0  0
    5.0828    1.6568   -2.0117 C   0  0  0  0  0  0  0  0  0  0  0  0
    4.6894    3.3293   -3.7489 C   0  0  0  0  0  0  0  0  0  0  0  0
    4.6583    0.8695   -1.0959 N   0  0  0  0  0  0  0  0  0  0  0  0
    6.4238    1.7463   -2.3280 N   0  0  0  0  0  0  0  0  0  0  0  0
    5.9749    3.3903   -4.0276 N   0  0  0  0  0  0  0  0  0  0  0  0
    4.2136    2.5005   -2.7702 N   0  0  0  0  0  0  0  0  0  0  0  0
    3.7898    4.0874   -4.4370 N   0  0  0  0  0  0  0  0  0  0  0  0
    3.1522   -2.3468    0.7007 H   0  0  0  0  0  0  0  0  0  0  0  0
    4.3810   -1.6827   -0.3991 H   0  0  0  0  0  0  0  0  0  0  0  0
    2.7302   -1.9698   -0.9783 H   0  0  0  0  0  0  0  0  0  0  0  0
    8.8252    1.9926   -2.9754 H   0  0  0  0  0  0  0  0  0  0  0  0
    8.5976    3.6937   -3.4821 H   0  0  0  0  0  0  0  0  0  0  0  0
    8.4060    2.4037   -4.6653 H   0  0  0  0  0  0  0  0  0  0  0  0
    3.7160    4.8987   -6.3757 H   0  0  0  0  0  0  0  0  0  0  0  0
    5.3184    4.8964   -5.5889 H   0  0  0  0  0  0  0  0  0  0  0  0
    4.0815    6.0787   -5.0890 H   0  0  0  0  0  0  0  0  0  0  0  0
    1.8441    4.6946   -4.8336 H   0  0  0  0  0  0  0  0  0  0  0  0
    2.1659    4.4664   -3.1084 H   0  0  0  0  0  0  0  0  0  0  0  0
    1.9519    3.0568   -4.1880 H   0  0  0  0  0  0  0  0  0  0  0  0
    3.5150    0.0751    1.1906 H   0  0  0  0  0  0  0  0  0  0  0  0
    1.8840   -0.1603    0.5575 H   0  0  0  0  0  0  0  0  0  0  0  0
    2.8623    1.8049   -0.4641 H   0  0  0  0  0  0  0  0  0  0  0  0
    2.6444    0.5498   -1.6985 H   0  0  0  0  0  0  0  0  0  0  0  0
    3.2304    2.4784   -2.5453 H   0  0  0  0  0  0  0  0  0  0  0  0
  1  5  1  0  0  0  0
  1 15  1  0  0  0  0
  2 19  1  0  0  0  0
  2  7  1  0  0  0  0
  2 18  1  0  0  0  0
  3 23  1  0  0  0  0
  3 14  1  0  0  0  0
  4 25  1  0  0  0  0
  5 28  1  0  0  0  0
  5 27  1  0  0  0  0
  6 29  1  0  0  0  0
  6  5  1  0  0  0  0
  7 11  2  0  0  0  0
  8 10  1  0  0  0  0
  9 13  1  0  0  0  0
 10  6  1  0  0  0  0
 11  8  2  0  0  0  0
 12  9  2  0  0  0  0
 12  7  1  0  0  0  0
 13 31  1  0  0  0  0
 13  8  1  0  0  0  0
 14  4  1  0  0  0  0
 14  9  1  0  0  0  0
 16  1  1  0  0  0  0
 17  1  1  0  0  0  0
 20  2  1  0  0  0  0
 21  3  1  0  0  0  0
 22  3  1  0  0  0  0
 24  4  1  0  0  0  0
 26  4  1  0  0  0  0
 30  6  1  0  0  0  0
M  RAD  1  10   2
M  END
>  <HBA>
5

>  <HBD>
1

>  <TPSA>
53.94

>  <cid>
33828

>  <dipole>
6.93

>  <excitation_energy_1>
4.423

>  <excitation_energy_2>
4.628

>  <excitation_energy_3>
4.778

>  <excitation_energy_4>
5.094

>  <homo_energy>
-5.565

>  <homo_lumo_gap>
5.184

>  <logP>
1.141

>  <lumo_energy>
-0.381

>  <melting_point>
98.25

>  <molecular_refractivity>
57.92

>  <oscillator_strength_1>
0.0958

>  <oscillator_strength_2>
0.0013

>  <oscillator_strength_3>
0.0008

>  <oscillator_strength_4>
0.0003

>  <open_babel_can_smiles>
CCC[N]C1=[N]=C(N=C(N1)N(C)C)C

>  <mulliken_charges>
31
1   -0.442308
2   -0.501404
3   -0.326861
4   -0.347605
5   -0.241631
6   -0.157274
7   0.430243
8   0.659551
9   0.803317
10   -0.471447
11   -0.485007
12   -0.566754
13   -0.736302
14   -0.46063
15   0.134467
16   0.178272
17   0.126983
18   0.176422
19   0.163757
20   0.164161
21   0.158703
22   0.221944
23   0.159822
24   0.183591
25   0.173005
26   0.174405
27   0.144599
28   0.115476
29   0.112797
30   0.108217
31   0.34749

>  <lowdin_charges>
31
1   -0.447285
2   -0.443808
3   -0.3506
4   -0.358334
5   -0.271122
6   -0.211043
7   0.113315
8   0.11915
9   0.163692
10   -0.238963
11   -0.201265
12   -0.273833
13   -0.25308
14   -0.095986
15   0.146587
16   0.163269
17   0.140074
18   0.171767
19   0.165594
20   0.165496
21   0.15287
22   0.191712
23   0.150173
24   0.176003
25   0.154597
26   0.15777
27   0.148646
28   0.132691
29   0.121868
30   0.117641
31   0.292402

$$$$

