PCCDB-ID:  61385
public computational chemistry database (PCCDB) project, http://pccdb.org

 23 23  0  0  0  0  0  0  0  0999 V2000
    1.6682    0.8066   -0.2157 C   0  0  0  0  0  0  0  0  0  0  0  0
    3.7368    1.4038    1.1108 C   0  0  0  0  0  0  0  0  0  0  0  0
    7.0762   -1.4255   -1.3756 C   0  0  0  0  0  0  0  0  0  0  0  0
    7.7442   -1.6383   -0.1697 C   0  0  0  0  0  0  0  0  0  0  0  0
    5.7058   -1.1830   -1.3476 C   0  0  0  0  0  0  0  0  0  0  0  0
    6.9971   -1.5965    1.0067 C   0  0  0  0  0  0  0  0  0  0  0  0
    3.5517   -0.8732   -0.0423 C   0  0  0  0  0  0  0  0  0  0  0  0
    3.1893    0.6330   -0.0980 C   0  0  0  0  0  0  0  0  0  0  0  0
    5.0354   -1.1571   -0.1148 C   0  0  0  0  0  0  0  0  0  0  0  0
    5.6792   -1.3636    1.0475 N   0  0  0  0  0  0  0  0  0  0  0  0
    1.3967    1.8666   -0.2864 H   0  0  0  0  0  0  0  0  0  0  0  0
    1.1581    0.3919    0.6635 H   0  0  0  0  0  0  0  0  0  0  0  0
    1.2715    0.2976   -1.1025 H   0  0  0  0  0  0  0  0  0  0  0  0
    3.4964    2.4708    1.0317 H   0  0  0  0  0  0  0  0  0  0  0  0
    4.8228    1.3045    1.2000 H   0  0  0  0  0  0  0  0  0  0  0  0
    3.2959    1.0284    2.0430 H   0  0  0  0  0  0  0  0  0  0  0  0
    7.6129   -1.4523   -2.3205 H   0  0  0  0  0  0  0  0  0  0  0  0
    8.8118   -1.8346   -0.1391 H   0  0  0  0  0  0  0  0  0  0  0  0
    5.1519   -1.0205   -2.2686 H   0  0  0  0  0  0  0  0  0  0  0  0
    7.4786   -1.7618    1.9698 H   0  0  0  0  0  0  0  0  0  0  0  0
    3.0470   -1.3828   -0.8741 H   0  0  0  0  0  0  0  0  0  0  0  0
    3.1662   -1.3027    0.8897 H   0  0  0  0  0  0  0  0  0  0  0  0
    3.6492    1.0501   -1.0070 H   0  0  0  0  0  0  0  0  0  0  0  0
  1  8  1  0  0  0  0
  1 12  1  0  0  0  0
  2 15  1  0  0  0  0
  2 16  1  0  0  0  0
  3  5  2  0  0  0  0
  3  4  1  0  0  0  0
  4 18  1  0  0  0  0
  4  6  2  0  0  0  0
  5  9  1  0  0  0  0
  6 10  1  0  0  0  0
  6 20  1  0  0  0  0
  7 22  1  0  0  0  0
  8  7  1  0  0  0  0
  8  2  1  0  0  0  0
  9  7  1  0  0  0  0
  9 10  2  0  0  0  0
 11  1  1  0  0  0  0
 13  1  1  0  0  0  0
 14  2  1  0  0  0  0
 17  3  1  0  0  0  0
 19  5  1  0  0  0  0
 21  7  1  0  0  0  0
 23  8  1  0  0  0  0
M  END
>  <HBA>
1

>  <HBD>
0

>  <TPSA>
12.89

>  <cid>
61385

>  <dipole>
1.86

>  <excitation_energy_1>
4.843

>  <excitation_energy_2>
5.094

>  <excitation_energy_3>
5.358

>  <excitation_energy_4>
6.034

>  <homo_energy>
-6.716

>  <homo_lumo_gap>
6.212

>  <logP>
2.28

>  <lumo_energy>
-0.503

>  <melting_point>
20.66

>  <molecular_refractivity>
43.62

>  <oscillator_strength_1>
0.0047

>  <oscillator_strength_2>
0.0005

>  <oscillator_strength_3>
0.0589

>  <oscillator_strength_4>
0.0892

>  <open_babel_can_smiles>
CC(Cc1ccccn1)C

>  <mulliken_charges>
23
1   -0.440313
2   -0.437819
3   -0.103376
4   -0.142182
5   -0.16557
6   0.034854
7   -0.318926
8   -0.072059
9   0.294811
10   -0.459978
11   0.141661
12   0.142204
13   0.137149
14   0.134741
15   0.15705
16   0.142825
17   0.140545
18   0.135433
19   0.131258
20   0.138384
21   0.134233
22   0.153456
23   0.121619

>  <lowdin_charges>
23
1   -0.444588
2   -0.442472
3   -0.128877
4   -0.179348
5   -0.183947
6   -0.089695
7   -0.282667
8   -0.115713
9   0.056127
10   -0.160565
11   0.147748
12   0.147944
13   0.146435
14   0.14411
15   0.154632
16   0.148685
17   0.162058
18   0.161314
19   0.160882
20   0.15536
21   0.148774
22   0.158883
23   0.13492

$$$$

