PCCDB-ID:  8131
public computational chemistry database (PCCDB) project, http://pccdb.org

 22 21  0  0  0  0  0  0  0  0999 V2000
    6.2021   -3.5035    0.4490 C   0  0  0  0  0  0  0  0  0  0  0  0
    4.9114   -2.9013    1.0051 C   0  0  0  0  0  0  0  0  0  0  0  0
    6.2274   -1.5348    4.8622 C   0  0  0  0  0  0  0  0  0  0  0  0
    5.6312   -0.5878    3.8080 C   0  0  0  0  0  0  0  0  0  0  0  0
    7.6887   -1.9004    4.6298 C   0  0  0  0  0  0  0  0  0  0  0  0
    5.7030   -1.1085    2.3766 C   0  0  0  0  0  0  0  0  0  0  0  0
    8.4530   -0.6966    4.5607 O   0  0  0  0  0  0  0  0  0  0  0  0
    5.0452   -2.3666    2.3128 O   0  0  0  0  0  0  0  0  0  0  0  0
    6.0142   -3.9665   -0.5271 H   0  0  0  0  0  0  0  0  0  0  0  0
    6.5858   -4.2737    1.1269 H   0  0  0  0  0  0  0  0  0  0  0  0
    6.9820   -2.7466    0.3130 H   0  0  0  0  0  0  0  0  0  0  0  0
    4.1444   -3.6797    1.0865 H   0  0  0  0  0  0  0  0  0  0  0  0
    4.5260   -2.1279    0.3192 H   0  0  0  0  0  0  0  0  0  0  0  0
    5.6469   -2.4641    4.8893 H   0  0  0  0  0  0  0  0  0  0  0  0
    6.1367   -1.0647    5.8496 H   0  0  0  0  0  0  0  0  0  0  0  0
    6.1540    0.3748    3.8426 H   0  0  0  0  0  0  0  0  0  0  0  0
    4.5802   -0.3981    4.0597 H   0  0  0  0  0  0  0  0  0  0  0  0
    7.7870   -2.4828    3.7001 H   0  0  0  0  0  0  0  0  0  0  0  0
    8.0388   -2.5421    5.4546 H   0  0  0  0  0  0  0  0  0  0  0  0
    6.7527   -1.1933    2.0561 H   0  0  0  0  0  0  0  0  0  0  0  0
    5.2129   -0.3942    1.6927 H   0  0  0  0  0  0  0  0  0  0  0  0
    9.3774   -0.9398    4.4032 H   0  0  0  0  0  0  0  0  0  0  0  0
  1  2  1  0  0  0  0
  1 10  1  0  0  0  0
  2 12  1  0  0  0  0
  2  8  1  0  0  0  0
  3 14  1  0  0  0  0
  3 15  1  0  0  0  0
  4 16  1  0  0  0  0
  4 17  1  0  0  0  0
  4  3  1  0  0  0  0
  5  3  1  0  0  0  0
  5 19  1  0  0  0  0
  6  4  1  0  0  0  0
  7  5  1  0  0  0  0
  8  6  1  0  0  0  0
  9  1  1  0  0  0  0
 11  1  1  0  0  0  0
 13  2  1  0  0  0  0
 18  5  1  0  0  0  0
 20  6  1  0  0  0  0
 21  6  1  0  0  0  0
 22  7  1  0  0  0  0
M  END
>  <HBA>
2

>  <HBD>
1

>  <TPSA>
29.46

>  <cid>
8131

>  <dipole>
1.78

>  <excitation_energy_1>
6.186

>  <excitation_energy_2>
6.323

>  <excitation_energy_3>
6.605

>  <excitation_energy_4>
6.752

>  <homo_energy>
-6.686

>  <homo_lumo_gap>
8.602

>  <logP>
0.795

>  <lumo_energy>
1.916

>  <melting_point>
-16.89

>  <molecular_refractivity>
33.2

>  <oscillator_strength_1>
0.0066

>  <oscillator_strength_2>
0.0014

>  <oscillator_strength_3>
0.0199

>  <oscillator_strength_4>
0.012

>  <open_babel_can_smiles>
OCCCCOCC

>  <mulliken_charges>
22
1   -0.460366
2   -0.009929
3   -0.262712
4   -0.270334
5   -0.042765
6   -0.025451
7   -0.620052
8   -0.47241
9   0.142396
10   0.154504
11   0.149603
12   0.14168
13   0.117182
14   0.151276
15   0.138673
16   0.153878
17   0.137343
18   0.125826
19   0.117952
20   0.128147
21   0.115324
22   0.390235

>  <lowdin_charges>
22
1   -0.463839
2   -0.130412
3   -0.28294
4   -0.280716
5   -0.138858
6   -0.1321
7   -0.477899
8   -0.28046
9   0.153738
10   0.155015
11   0.150942
12   0.145882
13   0.126778
14   0.15537
15   0.147119
16   0.156587
17   0.145865
18   0.126415
19   0.127944
20   0.125554
21   0.127855
22   0.342158

$$$$

