PCCDB-ID:  22785
public computational chemistry database (PCCDB) project, http://pccdb.org

 30 31  0  0  1  0  0  0  0  0999 V2000
    2.5805    1.4577   -0.8783 C   0  0  0  0  0  0  0  0  0  0  0  0
    0.6898   -0.3563    3.4470 C   0  0  0  0  0  0  0  0  0  0  0  0
    1.1193   -1.5228    2.5456 C   0  0  0  0  0  0  0  0  0  0  0  0
    0.8171    0.9855    2.7114 C   0  0  0  0  0  0  0  0  0  0  0  0
    2.5360   -1.3116    1.9818 C   0  0  0  0  0  0  0  0  0  0  0  0
    2.2479    1.1943    2.1903 C   0  0  0  0  0  0  0  0  0  0  0  0
    2.7527    0.0520    1.2766 C   0  0  0  0  0  0  0  0  0  0  0  0
    2.8378   -1.0207   -1.0376 C   0  0  0  0  0  0  0  0  0  0  0  0
    0.7455   -1.1647   -1.1373 C   0  0  0  0  0  0  0  0  0  0  0  0
    2.2332    0.1123   -0.1987 C   0  0  2  0  0  0  0  0  0  0  0  0
    1.9454   -1.7583   -1.6028 N   0  0  0  0  0  0  0  0  0  0  0  0
    0.7992   -0.1457   -0.3541 N   0  0  0  0  0  0  0  0  0  0  0  0
    4.1457   -1.2337   -1.2078 O   0  0  0  0  0  0  0  0  0  0  0  0
   -0.4032   -1.7183   -1.5474 O   0  0  0  0  0  0  0  0  0  0  0  0
    3.6471    1.6996   -0.7829 H   0  0  0  0  0  0  0  0  0  0  0  0
    2.0013    2.2654   -0.4274 H   0  0  0  0  0  0  0  0  0  0  0  0
    2.3270    1.4192   -1.9422 H   0  0  0  0  0  0  0  0  0  0  0  0
    1.3195   -0.3381    4.3500 H   0  0  0  0  0  0  0  0  0  0  0  0
   -0.3423   -0.5060    3.7880 H   0  0  0  0  0  0  0  0  0  0  0  0
    0.4022   -1.6215    1.7247 H   0  0  0  0  0  0  0  0  0  0  0  0
    1.0970   -2.4657    3.1075 H   0  0  0  0  0  0  0  0  0  0  0  0
    0.5549    1.8129    3.3838 H   0  0  0  0  0  0  0  0  0  0  0  0
    0.1148    1.0094    1.8716 H   0  0  0  0  0  0  0  0  0  0  0  0
    2.8044   -2.1398    1.3135 H   0  0  0  0  0  0  0  0  0  0  0  0
    3.2490   -1.3545    2.8178 H   0  0  0  0  0  0  0  0  0  0  0  0
    2.9308    1.2414    3.0513 H   0  0  0  0  0  0  0  0  0  0  0  0
    2.3339    2.1635    1.6870 H   0  0  0  0  0  0  0  0  0  0  0  0
    3.8448    0.1910    1.1837 H   0  0  0  0  0  0  0  0  0  0  0  0
    4.6441   -0.5859   -0.6827 H   0  0  0  0  0  0  0  0  0  0  0  0
   -0.1611   -2.4659   -2.1198 H   0  0  0  0  0  0  0  0  0  0  0  0
  1 15  1  0  0  0  0
  1 16  1  0  0  0  0
  2 19  1  0  0  0  0
  2 18  1  0  0  0  0
  3 21  1  0  0  0  0
  3  2  1  0  0  0  0
  4 22  1  0  0  0  0
  4  2  1  0  0  0  0
  5  3  1  0  0  0  0
  5 25  1  0  0  0  0
  6  4  1  0  0  0  0
  6 26  1  0  0  0  0
  7  5  1  0  0  0  0
  7  6  1  0  0  0  0
  8 10  1  0  0  0  0
  9 12  2  0  0  0  0
 10  1  1  6  0  0  0
 10  7  1  0  0  0  0
 11  9  2  0  0  0  0
 11  8  2  0  0  0  0
 12 10  1  0  0  0  0
 13  8  1  0  0  0  0
 13 29  1  0  0  0  0
 14  9  1  0  0  0  0
 17  1  1  0  0  0  0
 20  3  1  0  0  0  0
 23  4  1  0  0  0  0
 24  5  1  0  0  0  0
 27  6  1  0  0  0  0
 28  7  1  0  0  0  0
 30 14  1  0  0  0  0
M  END
>  <HBA>
4

>  <HBD>
2

>  <TPSA>
58.2

>  <cid>
22785

>  <dipole>
3.01

>  <excitation_energy_1>
5.204

>  <excitation_energy_2>
5.26

>  <excitation_energy_3>
5.447

>  <excitation_energy_4>
5.974

>  <homo_energy>
-6.52

>  <homo_lumo_gap>
5.959

>  <logP>
1.822

>  <lumo_energy>
-0.561

>  <melting_point>
134.43

>  <molecular_refractivity>
60.22

>  <oscillator_strength_1>
0.0302

>  <oscillator_strength_2>
0.0082

>  <oscillator_strength_3>
0.0018

>  <oscillator_strength_4>
0.004

>  <open_babel_can_smiles>
OC1=[N]=[C](=N[C@@]1(C)C1CCCCC1)O

>  <mulliken_charges>
30
1   -0.447006
2   -0.258496
3   -0.257515
4   -0.260859
5   -0.284323
6   -0.274489
7   -0.078436
8   0.535399
9   0.639484
10   0.080574
11   -0.515019
12   -0.468541
13   -0.591357
14   -0.60408
15   0.12606
16   0.18369
17   0.166913
18   0.118179
19   0.132025
20   0.163976
21   0.125342
22   0.123105
23   0.174494
24   0.140725
25   0.130416
26   0.128633
27   0.132274
28   0.087205
29   0.427937
30   0.423687

>  <lowdin_charges>
30
1   -0.436192
2   -0.275236
3   -0.2828
4   -0.285561
5   -0.285068
6   -0.277291
7   -0.122731
8   0.14364
9   0.142099
10   0.029618
11   -0.23504
12   -0.250556
13   -0.318443
14   -0.335593
15   0.140095
16   0.17204
17   0.162412
18   0.131609
19   0.143869
20   0.156272
21   0.141416
22   0.141333
23   0.160861
24   0.147485
25   0.142538
26   0.141414
27   0.144296
28   0.122069
29   0.370333
30   0.371115

$$$$

