PCCDB-ID:  12661
public computational chemistry database (PCCDB) project, http://pccdb.org

 10 10  0  0  0  0  0  0  0  0999 V2000
    1.0600    0.0446   -0.1603 C   0  0  0  0  0  0  0  0  0  0  0  0
    3.4292    1.2413    0.0730 C   0  0  0  0  0  0  0  0  0  0  0  0
    2.3514    0.1835    0.0866 C   0  0  0  0  0  0  0  0  0  0  0  0
    4.3093    0.0740    0.5336 C   0  0  0  0  0  0  0  0  0  0  0  0
    5.4416   -0.1440    0.8280 O   0  0  0  0  0  0  0  0  0  0  0  0
    3.2431   -0.8280    0.5137 O   0  0  0  0  0  0  0  0  0  0  0  0
    0.4707    0.8944   -0.4846 H   0  0  0  0  0  0  0  0  0  0  0  0
    0.5665   -0.9139   -0.0443 H   0  0  0  0  0  0  0  0  0  0  0  0
    3.3323    2.0505    0.8027 H   0  0  0  0  0  0  0  0  0  0  0  0
    3.6992    1.6544   -0.9033 H   0  0  0  0  0  0  0  0  0  0  0  0
  1  8  1  0  0  0  0
  1  3  2  0  0  0  0
  2  3  1  0  0  0  0
  2  4  1  0  0  0  0
  2  9  1  0  0  0  0
  3  6  1  0  0  0  0
  4  5  2  0  0  0  0
  6  4  1  0  0  0  0
  7  1  1  0  0  0  0
 10  2  1  0  0  0  0
M  END
>  <HBA>
2

>  <HBD>
0

>  <TPSA>
26.3

>  <cid>
12661

>  <dipole>
3.47

>  <excitation_energy_1>
5.857

>  <excitation_energy_2>
5.953

>  <excitation_energy_3>
6.347

>  <excitation_energy_4>
6.772

>  <homo_energy>
-7.053

>  <homo_lumo_gap>
6.838

>  <logP>
0.447

>  <lumo_energy>
-0.215

>  <melting_point>
-7.39

>  <molecular_refractivity>
20.04

>  <oscillator_strength_1>
0.0007

>  <oscillator_strength_2>
0.0281

>  <oscillator_strength_3>
0.0218

>  <oscillator_strength_4>
0.372

>  <open_babel_can_smiles>
C=C1CC(=O)O1

>  <mulliken_charges>
10
1   -0.462229
2   -0.493516
3   0.470315
4   0.6181
5   -0.420105
6   -0.456151
7   0.15902
8   0.16887
9   0.207838
10   0.20786

>  <lowdin_charges>
10
1   -0.38173
2   -0.31831
3   0.108032
4   0.206347
5   -0.184995
6   -0.169614
7   0.178567
8   0.181776
9   0.190304
10   0.189623

$$$$

