PCCDB-ID:  19507
public computational chemistry database (PCCDB) project, http://pccdb.org

 20 21  0  0  1  0  0  0  0  0999 V2000
    0.7868    1.4154   -0.3098 C   0  0  0  0  0  0  0  0  0  0  0  0
    0.7855   -0.4459    1.3802 C   0  0  0  0  0  0  0  0  0  0  0  0
   -0.7755    1.3515   -0.2987 C   0  0  0  0  0  0  0  0  0  0  0  0
   -0.7763   -0.4273    1.3169 C   0  0  0  0  0  0  0  0  0  0  0  0
   -0.7592   -0.9319   -1.0264 C   0  0  0  0  0  0  0  0  0  0  0  0
    1.3373    0.0007    0.0031 C   0  0  1  0  0  0  0  0  0  0  0  0
    0.7767   -0.9492   -1.0462 C   0  0  0  0  0  0  0  0  0  0  0  0
   -1.2692   -0.0063   -0.0065 N   0  0  2  0  0  0  0  0  0  0  0  0
    1.4371   -1.6317   -1.8031 O   0  0  0  0  0  0  0  0  0  0  0  0
    1.1616    2.1172    0.4457 H   0  0  0  0  0  0  0  0  0  0  0  0
    1.1626    1.7626   -1.2788 H   0  0  0  0  0  0  0  0  0  0  0  0
    1.1605   -1.4442    1.6325 H   0  0  0  0  0  0  0  0  0  0  0  0
    1.1607    0.2383    2.1514 H   0  0  0  0  0  0  0  0  0  0  0  0
   -1.1870    1.6579   -1.2668 H   0  0  0  0  0  0  0  0  0  0  0  0
   -1.1923    2.0278    0.4554 H   0  0  0  0  0  0  0  0  0  0  0  0
   -1.1926    0.2595    2.0618 H   0  0  0  0  0  0  0  0  0  0  0  0
   -1.1890   -1.4197    1.5295 H   0  0  0  0  0  0  0  0  0  0  0  0
   -1.1327   -1.9458   -0.8324 H   0  0  0  0  0  0  0  0  0  0  0  0
   -1.1325   -0.6404   -2.0167 H   0  0  0  0  0  0  0  0  0  0  0  0
    2.4300   -0.0252   -0.0247 H   0  0  0  0  0  0  0  0  0  0  0  0
  1  3  1  0  0  0  0
  1  6  1  0  0  0  0
  1 10  1  0  0  0  0
  2 12  1  0  0  0  0
  2 13  1  0  0  0  0
  3  8  1  0  0  0  0
  3 15  1  0  0  0  0
  4  2  1  0  0  0  0
  4 17  1  0  0  0  0
  4 16  1  0  0  0  0
  5 18  1  0  0  0  0
  6 20  1  6  0  0  0
  6  2  1  0  0  0  0
  7  5  1  0  0  0  0
  7  6  1  0  0  0  0
  8  5  1  6  0  0  0
  8  4  1  0  0  0  0
  9  7  2  0  0  0  0
 11  1  1  0  0  0  0
 14  3  1  0  0  0  0
 19  5  1  0  0  0  0
M  END
>  <HBA>
2

>  <HBD>
0

>  <TPSA>
20.31

>  <cid>
19507

>  <dipole>
2.66

>  <excitation_energy_1>
3.759

>  <excitation_energy_2>
5.029

>  <excitation_energy_3>
5.129

>  <excitation_energy_4>
5.578

>  <homo_energy>
-5.614

>  <homo_lumo_gap>
5.219

>  <logP>
0.219

>  <lumo_energy>
-0.395

>  <melting_point>
41.96

>  <molecular_refractivity>
38.55

>  <oscillator_strength_1>
0.0

>  <oscillator_strength_2>
0.0038

>  <oscillator_strength_3>
0.0005

>  <oscillator_strength_4>
0.0408

>  <open_babel_can_smiles>
O=C1CN2CC[C@H]1CC2

>  <mulliken_charges>
20
1   -0.298621
2   -0.298523
3   -0.149396
4   -0.149
5   -0.23675
6   -0.171115
7   0.44217
8   -0.375712
9   -0.451771
10   0.145582
11   0.153442
12   0.153339
13   0.145543
14   0.1489
15   0.147393
16   0.147373
17   0.148779
18   0.175107
19   0.175181
20   0.148078

>  <lowdin_charges>
20
1   -0.298587
2   -0.298147
3   -0.213097
4   -0.212805
5   -0.242318
6   -0.156298
7   0.141748
8   -0.185398
9   -0.234315
10   0.151372
11   0.152287
12   0.151837
13   0.151333
14   0.148823
15   0.150076
16   0.150066
17   0.148437
18   0.168672
19   0.169029
20   0.157286

$$$$

