PCCDB-ID:  8012
public computational chemistry database (PCCDB) project, http://pccdb.org

 15 14  0  0  0  0  0  0  0  0999 V2000
    0.9194   -0.1009    0.0180 C   0  0  0  0  0  0  0  0  0  0  0  0
    2.4496   -0.0399    0.0695 C   0  0  0  0  0  0  0  0  0  0  0  0
    2.9772    0.6503    1.3362 C   0  0  0  0  0  0  0  0  0  0  0  0
    4.5050    0.7123    1.3761 C   0  0  0  0  0  0  0  0  0  0  0  0
    5.2031    1.4748    2.9033 S   0  0  0  0  0  0  0  0  0  0  0  0
    0.5715   -0.5988   -0.8940 H   0  0  0  0  0  0  0  0  0  0  0  0
    0.4814    0.9045    0.0369 H   0  0  0  0  0  0  0  0  0  0  0  0
    0.5160   -0.6540    0.8748 H   0  0  0  0  0  0  0  0  0  0  0  0
    2.8253    0.4888   -0.8180 H   0  0  0  0  0  0  0  0  0  0  0  0
    2.8593   -1.0583    0.0134 H   0  0  0  0  0  0  0  0  0  0  0  0
    2.6136    0.1246    2.2283 H   0  0  0  0  0  0  0  0  0  0  0  0
    2.5702    1.6700    1.3917 H   0  0  0  0  0  0  0  0  0  0  0  0
    4.9015    1.2397    0.5021 H   0  0  0  0  0  0  0  0  0  0  0  0
    4.9321   -0.2966    1.3614 H   0  0  0  0  0  0  0  0  0  0  0  0
    4.6444    2.6946    2.7404 H   0  0  0  0  0  0  0  0  0  0  0  0
  1  7  1  0  0  0  0
  1  2  1  0  0  0  0
  1  8  1  0  0  0  0
  2  3  1  0  0  0  0
  3  4  1  0  0  0  0
  3 12  1  0  0  0  0
  3 11  1  0  0  0  0
  4  5  1  0  0  0  0
  6  1  1  0  0  0  0
  9  2  1  0  0  0  0
 10  2  1  0  0  0  0
 13  4  1  0  0  0  0
 14  4  1  0  0  0  0
 15  5  1  0  0  0  0
M  END
>  <HBA>
1

>  <HBD>
1

>  <TPSA>
38.8

>  <cid>
8012

>  <dipole>
1.95

>  <excitation_energy_1>
5.257

>  <excitation_energy_2>
5.862

>  <excitation_energy_3>
6.367

>  <excitation_energy_4>
6.471

>  <homo_energy>
-6.348

>  <homo_lumo_gap>
7.14

>  <logP>
1.716

>  <lumo_energy>
0.792

>  <melting_point>
-4.98

>  <molecular_refractivity>
29.27

>  <oscillator_strength_1>
0.0116

>  <oscillator_strength_2>
0.0319

>  <oscillator_strength_3>
0.009

>  <oscillator_strength_4>
0.0099

>  <open_babel_can_smiles>
CCCCS

>  <mulliken_charges>
15
1   -0.441438
2   -0.251933
3   -0.237951
4   -0.414132
5   -0.085255
6   0.145812
7   0.144007
8   0.145891
9   0.133441
10   0.135101
11   0.151951
12   0.133491
13   0.173902
14   0.176417
15   0.090697

>  <lowdin_charges>
15
1   -0.443915
2   -0.273262
3   -0.279194
4   -0.370078
5   -0.089398
6   0.15196
7   0.147189
8   0.149521
9   0.140841
10   0.140262
11   0.151579
12   0.140672
13   0.158177
14   0.16544
15   0.110208

$$$$

