PCCDB-ID:  18530
public computational chemistry database (PCCDB) project, http://pccdb.org

 16 15  0  0  0  0  0  0  0  0999 V2000
    0.7271   -0.0841   -0.0154 C   0  0  0  0  0  0  0  0  0  0  0  0
    4.9429    0.0668   -0.1348 C   0  0  0  0  0  0  0  0  0  0  0  0
    2.1907   -2.2589    1.1902 C   0  0  0  0  0  0  0  0  0  0  0  0
    2.0665   -0.1211   -0.0058 C   0  0  0  0  0  0  0  0  0  0  0  0
    4.2528   -1.1127    0.5354 C   0  0  0  0  0  0  0  0  0  0  0  0
    2.8580   -1.1284    0.5523 N   0  0  0  0  0  0  0  0  0  0  0  0
    4.9043   -2.0145    1.0425 O   0  0  0  0  0  0  0  0  0  0  0  0
    0.2243    0.7552   -0.4816 H   0  0  0  0  0  0  0  0  0  0  0  0
    0.1018   -0.8535    0.4217 H   0  0  0  0  0  0  0  0  0  0  0  0
    4.6988    1.0158    0.3554 H   0  0  0  0  0  0  0  0  0  0  0  0
    4.6732    0.1537   -1.1930 H   0  0  0  0  0  0  0  0  0  0  0  0
    6.0164   -0.1060   -0.0555 H   0  0  0  0  0  0  0  0  0  0  0  0
    1.5677   -1.9099    2.0217 H   0  0  0  0  0  0  0  0  0  0  0  0
    2.9581   -2.9352    1.5603 H   0  0  0  0  0  0  0  0  0  0  0  0
    1.5522   -2.7777    0.4662 H   0  0  0  0  0  0  0  0  0  0  0  0
    2.6258    0.6850   -0.4637 H   0  0  0  0  0  0  0  0  0  0  0  0
  1  4  2  0  0  0  0
  1  9  1  0  0  0  0
  2 12  1  0  0  0  0
  2 10  1  0  0  0  0
  2  5  1  0  0  0  0
  3 14  1  0  0  0  0
  3 13  1  0  0  0  0
  4  6  1  0  0  0  0
  5  6  1  0  0  0  0
  5  7  2  0  0  0  0
  6  3  1  0  0  0  0
  8  1  1  0  0  0  0
 11  2  1  0  0  0  0
 15  3  1  0  0  0  0
 16  4  1  0  0  0  0
M  END
>  <HBA>
2

>  <HBD>
0

>  <TPSA>
20.31

>  <cid>
18530

>  <dipole>
2.48

>  <excitation_energy_1>
5.225

>  <excitation_energy_2>
5.529

>  <excitation_energy_3>
5.54

>  <excitation_energy_4>
5.886

>  <homo_energy>
-6.027

>  <homo_lumo_gap>
5.902

>  <logP>
0.608

>  <lumo_energy>
-0.125

>  <melting_point>
-22.47

>  <molecular_refractivity>
28.77

>  <oscillator_strength_1>
0.0009

>  <oscillator_strength_2>
0.0414

>  <oscillator_strength_3>
0.495

>  <oscillator_strength_4>
0.0133

>  <open_babel_can_smiles>
CN(C(=O)C)C=C

>  <mulliken_charges>
16
1   -0.390988
2   -0.552995
3   -0.335831
4   0.105604
5   0.580934
6   -0.436309
7   -0.490232
8   0.144306
9   0.144633
10   0.175895
11   0.175409
12   0.191819
13   0.163742
14   0.208738
15   0.16372
16   0.151556

>  <lowdin_charges>
16
1   -0.399936
2   -0.472625
3   -0.36125
4   -0.099942
5   0.171424
6   -0.070893
7   -0.290069
8   0.168364
9   0.164255
10   0.170602
11   0.168943
12   0.180018
13   0.157062
14   0.18859
15   0.157786
16   0.167671

$$$$

