PCCDB-ID:  8446
public computational chemistry database (PCCDB) project, http://pccdb.org

 17 18  0  0  0  0  0  0  0  0999 V2000
    0.9564    0.2384    0.0424 C   0  0  0  0  0  0  0  0  0  0  0  0
    6.9948    0.8190    0.0401 C   0  0  0  0  0  0  0  0  0  0  0  0
    7.1333   -0.5793    0.0434 C   0  0  0  0  0  0  0  0  0  0  0  0
    5.7369    1.4108    0.0386 C   0  0  0  0  0  0  0  0  0  0  0  0
    6.0159   -1.4114    0.0459 C   0  0  0  0  0  0  0  0  0  0  0  0
    2.4443    0.0713    0.0437 C   0  0  0  0  0  0  0  0  0  0  0  0
    4.5997    0.5915    0.0402 C   0  0  0  0  0  0  0  0  0  0  0  0
    4.7527   -0.8162    0.0443 C   0  0  0  0  0  0  0  0  0  0  0  0
    3.2886    1.0495    0.0396 N   0  0  0  0  0  0  0  0  0  0  0  0
    3.1661   -1.5637    0.0485 S   0  0  0  0  0  0  0  0  0  0  0  0
    0.7236    1.3056    0.0512 H   0  0  0  0  0  0  0  0  0  0  0  0
    0.5016   -0.2326    0.9215 H   0  0  0  0  0  0  0  0  0  0  0  0
    0.5056   -0.2164   -0.8474 H   0  0  0  0  0  0  0  0  0  0  0  0
    7.8830    1.4444    0.0389 H   0  0  0  0  0  0  0  0  0  0  0  0
    8.1258   -1.0211    0.0438 H   0  0  0  0  0  0  0  0  0  0  0  0
    5.6135    2.4892    0.0372 H   0  0  0  0  0  0  0  0  0  0  0  0
    6.1282   -2.4913    0.0494 H   0  0  0  0  0  0  0  0  0  0  0  0
  1  6  1  0  0  0  0
  1 11  1  0  0  0  0
  1 12  1  0  0  0  0
  2  3  1  0  0  0  0
  3 15  1  0  0  0  0
  3  5  2  0  0  0  0
  4  2  2  0  0  0  0
  4  7  1  0  0  0  0
  5 17  1  0  0  0  0
  6 10  1  0  0  0  0
  7  8  2  0  0  0  0
  8  5  1  0  0  0  0
  8 10  1  0  0  0  0
  9  7  1  0  0  0  0
  9  6  2  0  0  0  0
 13  1  1  0  0  0  0
 14  2  1  0  0  0  0
 16  4  1  0  0  0  0
M  END
>  <HBA>
2

>  <HBD>
0

>  <TPSA>
41.13

>  <cid>
8446

>  <dipole>
0.76

>  <excitation_energy_1>
4.69

>  <excitation_energy_2>
5.064

>  <excitation_energy_3>
5.248

>  <excitation_energy_4>
5.307

>  <homo_energy>
-6.338

>  <homo_lumo_gap>
5.499

>  <logP>
2.605

>  <lumo_energy>
-0.838

>  <melting_point>
67.22

>  <molecular_refractivity>
44.59

>  <oscillator_strength_1>
0.0225

>  <oscillator_strength_2>
0.1395

>  <oscillator_strength_3>
0.0

>  <oscillator_strength_4>
0.0003

>  <open_babel_can_smiles>
Cc1nc2c(s1)cccc2

>  <mulliken_charges>
17
1   -0.515256
2   -0.14821
3   -0.118263
4   -0.145409
5   -0.180223
6   0.121979
7   0.274963
8   -0.125966
9   -0.461554
10   0.193803
11   0.192403
12   0.178078
13   0.178545
14   0.133738
15   0.133446
16   0.144383
17   0.143544

>  <lowdin_charges>
17
1   -0.443007
2   -0.160879
3   -0.155996
4   -0.151465
5   -0.15929
6   -0.056309
7   0.017916
8   -0.148091
9   -0.16145
10   0.240014
11   0.179594
12   0.172806
13   0.172955
14   0.161182
15   0.160406
16   0.168073
17   0.163542

$$$$

