PCCDB-ID:  59886
public computational chemistry database (PCCDB) project, http://pccdb.org

 17 16  0  0  1  0  0  0  0  0999 V2000
    0.1739    2.9640   -0.0630 C   0  0  0  0  0  0  0  0  0  0  0  0
    4.3804    4.8337   -0.9348 C   0  0  0  0  0  0  0  0  0  0  0  0
    0.8796    1.6442   -0.1948 C   0  0  2  0  0  0  0  0  0  0  0  0
    4.1900    2.5421   -0.4479 C   0  0  0  0  0  0  0  0  0  0  0  0
    4.9575    3.5273   -0.6602 N   0  0  0  0  0  0  0  0  0  0  0  0
    2.1302    1.4134   -0.3543 N   0  0  0  0  0  0  0  0  0  0  0  0
    0.1119    0.5225   -0.1474 O   0  0  0  0  0  0  0  0  0  0  0  0
    4.6574    1.3059   -0.2033 O   0  0  0  0  0  0  0  0  0  0  0  0
    2.8349    2.6550   -0.4225 O   0  0  0  0  0  0  0  0  0  0  0  0
    0.8822    3.7906   -0.0699 H   0  0  0  0  0  0  0  0  0  0  0  0
   -0.3949    2.9918    0.8750 H   0  0  0  0  0  0  0  0  0  0  0  0
   -0.5330    3.0967   -0.8917 H   0  0  0  0  0  0  0  0  0  0  0  0
    5.1710    5.4970   -1.2982 H   0  0  0  0  0  0  0  0  0  0  0  0
    3.9547    5.2896   -0.0289 H   0  0  0  0  0  0  0  0  0  0  0  0
    3.5846    4.8007   -1.6924 H   0  0  0  0  0  0  0  0  0  0  0  0
   -0.8113    0.7813   -0.0087 H   0  0  0  0  0  0  0  0  0  0  0  0
    5.6247    1.4048   -0.2573 H   0  0  0  0  0  0  0  0  0  0  0  0
  1 11  1  0  0  0  0
  2  5  1  0  0  0  0
  2 14  1  0  0  0  0
  3  6  1  6  0  0  0
  3  7  1  0  0  0  0
  3  1  1  0  0  0  0
  4  9  1  0  0  0  0
  4  8  1  0  0  0  0
  5  4  2  0  0  0  0
  7 16  1  0  0  0  0
  9  6  1  0  0  0  0
 10  1  1  0  0  0  0
 12  1  1  0  0  0  0
 13  2  1  0  0  0  0
 15  2  1  0  0  0  0
 17  8  1  0  0  0  0
M  RAD  2   3   2   6   2
M  END
>  <HBA>
5

>  <HBD>
2

>  <TPSA>
67.43

>  <cid>
59886

>  <dipole>
4.28

>  <excitation_energy_1>
5.317

>  <excitation_energy_2>
5.725

>  <excitation_energy_3>
5.757

>  <excitation_energy_4>
6.158

>  <homo_energy>
-6.163

>  <homo_lumo_gap>
6.354

>  <logP>
0.175

>  <lumo_energy>
0.19

>  <melting_point>
75.64

>  <molecular_refractivity>
28.82

>  <oscillator_strength_1>
0.0027

>  <oscillator_strength_2>
0.1408

>  <oscillator_strength_3>
0.0049

>  <oscillator_strength_4>
0.005

>  <open_babel_can_smiles>
C/N=C(\O[N][C](O)C)/O

>  <mulliken_charges>
17
1   -0.553875
2   -0.315907
3   0.522413
4   0.754908
5   -0.496756
6   -0.186293
7   -0.574047
8   -0.569852
9   -0.428856
10   0.215864
11   0.176386
12   0.181225
13   0.152822
14   0.142827
15   0.141371
16   0.417158
17   0.420612

>  <lowdin_charges>
17
1   -0.478219
2   -0.355509
3   0.118009
4   0.190646
5   -0.277584
6   -0.067642
7   -0.350188
8   -0.338459
9   -0.145619
10   0.191547
11   0.171587
12   0.174507
13   0.152474
14   0.142735
15   0.139756
16   0.36292
17   0.369037

$$$$

