PCCDB-ID:  16526
public computational chemistry database (PCCDB) project, http://pccdb.org

 15 15  0  0  1  0  0  0  0  0999 V2000
   -0.8480   -1.1045   -0.2690 C   0  0  0  0  0  0  0  0  0  0  0  0
    0.6821   -0.9654   -0.0609 C   0  0  1  0  0  0  0  0  0  0  0  0
    1.4810   -1.8949   -0.9786 C   0  0  0  0  0  0  0  0  0  0  0  0
    0.0139    1.3490   -0.2441 C   0  0  0  0  0  0  0  0  0  0  0  0
    0.0382    2.6055   -0.4237 N   0  0  0  0  0  0  0  0  0  0  0  0
    1.0416    0.4119   -0.3242 N   0  0  0  0  0  0  0  0  0  0  0  0
    2.2223   -1.5009   -1.8436 O   0  0  0  0  0  0  0  0  0  0  0  0
    1.3014   -3.2183   -0.7657 O   0  0  0  0  0  0  0  0  0  0  0  0
   -1.5212    0.5261    0.2342 S   0  0  0  0  0  0  0  0  0  0  0  0
   -1.2827   -1.8895    0.3553 H   0  0  0  0  0  0  0  0  0  0  0  0
   -1.0919   -1.3032   -1.3174 H   0  0  0  0  0  0  0  0  0  0  0  0
    0.9197   -1.2273    0.9832 H   0  0  0  0  0  0  0  0  0  0  0  0
    0.9912    2.9359   -0.6003 H   0  0  0  0  0  0  0  0  0  0  0  0
    1.7437    0.5384   -1.0473 H   0  0  0  0  0  0  0  0  0  0  0  0
    0.6980   -3.3683   -0.0181 H   0  0  0  0  0  0  0  0  0  0  0  0
  1  2  1  0  0  0  0
  1  9  1  0  0  0  0
  1 10  1  0  0  0  0
  2 12  1  1  0  0  0
  3  8  1  0  0  0  0
  3  2  1  0  0  0  0
  4  9  1  0  0  0  0
  5  4  2  0  0  0  0
  6  4  1  0  0  0  0
  6  2  1  0  0  0  0
  7  3  2  0  0  0  0
  8 15  1  0  0  0  0
 11  1  1  0  0  0  0
 13  5  1  0  0  0  0
 14  6  1  0  0  0  0
M  END
>  <HBA>
5

>  <HBD>
2

>  <TPSA>
100.98

>  <cid>
16526

>  <dipole>
3.87

>  <excitation_energy_1>
4.707

>  <excitation_energy_2>
5.104

>  <excitation_energy_3>
5.373

>  <excitation_energy_4>
5.629

>  <homo_energy>
-6.582

>  <homo_lumo_gap>
5.815

>  <logP>
-0.363

>  <lumo_energy>
-0.767

>  <melting_point>
155.58

>  <molecular_refractivity>
38.31

>  <oscillator_strength_1>
0.0003

>  <oscillator_strength_2>
0.0049

>  <oscillator_strength_3>
0.0

>  <oscillator_strength_4>
0.0007

>  <open_babel_can_smiles>
OC(=O)[C@@H]1CSC(=N)N1

>  <mulliken_charges>
15
1   -0.458888
2   -0.064063
3   0.603129
4   0.292555
5   -0.606606
6   -0.575768
7   -0.434347
8   -0.555978
9   0.180736
10   0.175363
11   0.205151
12   0.179704
13   0.286211
14   0.354073
15   0.418728

>  <lowdin_charges>
15
1   -0.388461
2   -0.101716
3   0.191366
4   -0.011728
5   -0.409155
6   -0.305526
7   -0.227818
8   -0.337801
9   0.172476
10   0.168758
11   0.170054
12   0.15887
13   0.258097
14   0.29737
15   0.365211

$$$$

