PCCDB-ID:  23342
public computational chemistry database (PCCDB) project, http://pccdb.org

 24 23  0  0  0  0  0  0  0  0999 V2000
    1.6428   -0.9723    1.4318 C   0  0  0  0  0  0  0  0  0  0  0  0
    3.0369   -0.4900   -0.5829 C   0  0  0  0  0  0  0  0  0  0  0  0
    2.1795   -1.0371   -1.7316 C   0  0  0  0  0  0  0  0  0  0  0  0
    2.1166    1.3529    0.7573 C   0  0  0  0  0  0  0  0  0  0  0  0
    2.4885    2.2219   -0.1375 N   0  0  0  0  0  0  0  0  0  0  0  0
    1.5062    1.7015    1.9580 N   0  0  0  0  0  0  0  0  0  0  0  0
    2.2723    0.0076    0.5573 N   0  0  0  0  0  0  0  0  0  0  0  0
    2.7307    1.8357   -2.7232 O   0  0  0  0  0  0  0  0  0  0  0  0
    2.2488    0.2070   -4.5137 O   0  0  0  0  0  0  0  0  0  0  0  0
    0.2683    1.7019   -3.7260 O   0  0  0  0  0  0  0  0  0  0  0  0
    1.1831   -0.1207   -2.1898 O   0  0  0  0  0  0  0  0  0  0  0  0
    1.5118    1.0205   -3.3101 P   0  0  0  0  0  0  0  0  0  0  0  0
    1.4830   -1.8985    0.8750 H   0  0  0  0  0  0  0  0  0  0  0  0
    0.6667   -0.6168    1.7706 H   0  0  0  0  0  0  0  0  0  0  0  0
    2.2626   -1.2153    2.3096 H   0  0  0  0  0  0  0  0  0  0  0  0
    3.6777    0.3152   -0.9401 H   0  0  0  0  0  0  0  0  0  0  0  0
    3.6892   -1.3039   -0.2355 H   0  0  0  0  0  0  0  0  0  0  0  0
    1.6239   -1.9235   -1.4058 H   0  0  0  0  0  0  0  0  0  0  0  0
    2.8397   -1.3420   -2.5526 H   0  0  0  0  0  0  0  0  0  0  0  0
    2.3977    3.1798    0.1903 H   0  0  0  0  0  0  0  0  0  0  0  0
    1.4767    2.6956    2.1406 H   0  0  0  0  0  0  0  0  0  0  0  0
    1.7602    1.1630    2.7767 H   0  0  0  0  0  0  0  0  0  0  0  0
    2.6210    2.0397   -1.7112 H   0  0  0  0  0  0  0  0  0  0  0  0
    1.6250    0.1451   -5.2550 H   0  0  0  0  0  0  0  0  0  0  0  0
  1 14  1  0  0  0  0
  1 15  1  0  0  0  0
  2 17  1  0  0  0  0
  2  7  1  0  0  0  0
  3 18  1  0  0  0  0
  3  2  1  0  0  0  0
  4  6  2  0  0  0  0
  5 20  1  0  0  0  0
  5  4  1  0  0  0  0
  6 21  1  0  0  0  0
  6 22  1  0  0  0  0
  7  4  1  0  0  0  0
  7  1  1  0  0  0  0
  8 23  1  0  0  0  0
  9 12  1  0  0  0  0
 10 12  2  0  0  0  0
 11  3  1  0  0  0  0
 12  8  1  0  0  0  0
 12 11  1  0  0  0  0
 13  1  1  0  0  0  0
 16  2  1  0  0  0  0
 19  3  1  0  0  0  0
 24  9  1  0  0  0  0
M  RAD  1   5   2
M  END
>  <HBA>
7

>  <HBD>
4

>  <TPSA>
129.68

>  <cid>
23342

>  <dipole>
8.24

>  <excitation_energy_1>
5.225

>  <excitation_energy_2>
5.817

>  <excitation_energy_3>
6.129

>  <excitation_energy_4>
6.162

>  <homo_energy>
-6.446

>  <homo_lumo_gap>
7.266

>  <logP>
-0.279

>  <lumo_energy>
0.819

>  <melting_point>
142.68

>  <molecular_refractivity>
42.61

>  <oscillator_strength_1>
0.0088

>  <oscillator_strength_2>
0.0218

>  <oscillator_strength_3>
0.0135

>  <oscillator_strength_4>
0.018

>  <open_babel_can_smiles>
[NH]C(=[NH2])N(CCOP(=O)(O)O)C

>  <mulliken_charges>
24
1   -0.338207
2   -0.188284
3   -0.042153
4   0.710419
5   -0.762646
6   -0.765265
7   -0.401485
8   -0.698954
9   -0.665834
10   -0.548367
11   -0.525478
12   1.146963
13   0.175301
14   0.193507
15   0.151137
16   0.204844
17   0.146647
18   0.146877
19   0.169707
20   0.29423
21   0.335634
22   0.335995
23   0.492392
24   0.433019

>  <lowdin_charges>
24
1   -0.357886
2   -0.216092
3   -0.136696
4   0.161818
5   -0.500578
6   -0.486644
7   -0.103126
8   -0.600932
9   -0.580363
10   -0.590217
11   -0.400933
12   1.09788
13   0.166459
14   0.172222
15   0.143235
16   0.18315
17   0.151464
18   0.147534
19   0.161453
20   0.262425
21   0.284804
22   0.287217
23   0.373054
24   0.380753

$$$$

