PCCDB-ID:  15066
public computational chemistry database (PCCDB) project, http://pccdb.org

 19 20  0  0  1  0  0  0  0  0999 V2000
    0.9447   -0.0302    0.0784 C   0  0  0  0  0  0  0  0  0  0  0  0
    2.9576   -1.5254   -0.2492 C   0  0  0  0  0  0  0  0  0  0  0  0
    3.0527    0.3246    1.4289 C   0  0  0  0  0  0  0  0  0  0  0  0
    3.0467    0.8532   -1.0136 C   0  0  0  0  0  0  0  0  0  0  0  0
    2.4748   -0.0934    0.0614 C   0  0  2  0  0  0  0  0  0  0  0  0
    6.6317   -0.2643    0.0145 O   0  0  0  0  0  0  0  0  0  0  0  0
    4.4037   -1.6015   -0.2691 O   0  0  0  0  0  0  0  0  0  0  0  0
    4.5000    0.2700    1.4296 O   0  0  0  0  0  0  0  0  0  0  0  0
    4.4937    0.8054   -1.0427 O   0  0  0  0  0  0  0  0  0  0  0  0
    5.1697   -0.2041    0.0311 P   0  0  1  0  0  0  0  0  0  0  0  0
    0.5318   -0.7007    0.8404 H   0  0  0  0  0  0  0  0  0  0  0  0
    0.5283   -0.3259   -0.8909 H   0  0  0  0  0  0  0  0  0  0  0  0
    0.5958    0.9847    0.2989 H   0  0  0  0  0  0  0  0  0  0  0  0
    2.5951   -1.8535   -1.2299 H   0  0  0  0  0  0  0  0  0  0  0  0
    2.5996   -2.2300    0.5100 H   0  0  0  0  0  0  0  0  0  0  0  0
    2.6961   -0.3428    2.2218 H   0  0  0  0  0  0  0  0  0  0  0  0
    2.7605    1.3512    1.6776 H   0  0  0  0  0  0  0  0  0  0  0  0
    2.7539    1.8904   -0.8137 H   0  0  0  0  0  0  0  0  0  0  0  0
    2.6867    0.5739   -2.0103 H   0  0  0  0  0  0  0  0  0  0  0  0
  1 13  1  0  0  0  0
  1 11  1  0  0  0  0
  2  5  1  0  0  0  0
  2 15  1  0  0  0  0
  3  8  1  0  0  0  0
  3 17  1  0  0  0  0
  3 16  1  0  0  0  0
  4 18  1  0  0  0  0
  4  5  1  0  0  0  0
  5  1  1  1  0  0  0
  5  3  1  0  0  0  0
  7  2  1  0  0  0  0
  7 10  1  0  0  0  0
  9  4  1  0  0  0  0
  9 10  1  0  0  0  0
 10  6  2  6  0  0  0
 10  8  1  0  0  0  0
 12  1  1  0  0  0  0
 14  2  1  0  0  0  0
 19  4  1  0  0  0  0
M  END
>  <HBA>
4

>  <HBD>
0

>  <TPSA>
54.57

>  <cid>
15066

>  <dipole>
7.99

>  <excitation_energy_1>
6.892

>  <excitation_energy_2>
7.2

>  <excitation_energy_3>
7.243

>  <excitation_energy_4>
7.243

>  <homo_energy>
-7.951

>  <homo_lumo_gap>
8.827

>  <logP>
1.178

>  <lumo_energy>
0.876

>  <melting_point>
28.87

>  <molecular_refractivity>
33.58

>  <oscillator_strength_1>
0.0

>  <oscillator_strength_2>
0.0

>  <oscillator_strength_3>
0.0024

>  <oscillator_strength_4>
0.0024

>  <open_babel_can_smiles>
C[C@]12CO[P@](=O)(OC1)OC2

>  <mulliken_charges>
19
1   -0.464733
2   -0.009673
3   -0.009269
4   -0.009427
5   -0.127124
6   -0.493982
7   -0.538865
8   -0.53881
9   -0.538936
10   1.264938
11   0.164948
12   0.164987
13   0.16495
14   0.161836
15   0.161873
16   0.161769
17   0.161801
18   0.16183
19   0.161886

>  <lowdin_charges>
19
1   -0.436972
2   -0.119111
3   -0.118287
4   -0.116597
5   -0.052918
6   -0.531026
7   -0.395582
8   -0.39555
9   -0.39415
10   1.13972
11   0.163633
12   0.162457
13   0.161885
14   0.155303
15   0.156661
16   0.156562
17   0.154563
18   0.154352
19   0.155056

$$$$

