PCCDB-ID:  34731
public computational chemistry database (PCCDB) project, http://pccdb.org

 29 29  0  0  1  0  0  0  0  0999 V2000
    1.0514    0.0120   -0.1232 C   0  0  0  0  0  0  0  0  0  0  0  0
    3.1277    0.1768    1.2993 C   0  0  0  0  0  0  0  0  0  0  0  0
    5.0671   -1.8776   -1.8517 C   0  0  0  0  0  0  0  0  0  0  0  0
    3.0397   -1.1270   -3.1367 C   0  0  0  0  0  0  0  0  0  0  0  0
    4.7290    1.3068   -3.0514 C   0  0  0  0  0  0  0  0  0  0  0  0
    3.1161    1.2202   -1.0413 C   0  0  0  0  0  0  0  0  0  0  0  0
    2.5825    0.0878   -0.1325 C   0  0  0  0  0  0  0  0  0  0  0  0
    3.9048   -0.8846   -1.8855 C   0  0  0  0  0  0  0  0  0  0  0  0
    4.3421    0.6076   -1.7459 C   0  0  1  0  0  0  0  0  0  0  0  0
    5.4799    0.6208   -0.8650 O   0  0  0  0  0  0  0  0  0  0  0  0
    3.0933   -1.1319   -0.7199 O   0  0  0  0  0  0  0  0  0  0  0  0
    0.6154    0.9168    0.3178 H   0  0  0  0  0  0  0  0  0  0  0  0
    0.7192   -0.8495    0.4657 H   0  0  0  0  0  0  0  0  0  0  0  0
    0.6605   -0.0999   -1.1401 H   0  0  0  0  0  0  0  0  0  0  0  0
    2.7306    1.0576    1.8194 H   0  0  0  0  0  0  0  0  0  0  0  0
    4.2185    0.2357    1.2816 H   0  0  0  0  0  0  0  0  0  0  0  0
    2.8351   -0.7149    1.8642 H   0  0  0  0  0  0  0  0  0  0  0  0
    5.7392   -1.7257   -2.7040 H   0  0  0  0  0  0  0  0  0  0  0  0
    4.6746   -2.8988   -1.9036 H   0  0  0  0  0  0  0  0  0  0  0  0
    5.6401   -1.7651   -0.9310 H   0  0  0  0  0  0  0  0  0  0  0  0
    3.6304   -1.0868   -4.0584 H   0  0  0  0  0  0  0  0  0  0  0  0
    2.2255   -0.3990   -3.2154 H   0  0  0  0  0  0  0  0  0  0  0  0
    2.5908   -2.1223   -3.0613 H   0  0  0  0  0  0  0  0  0  0  0  0
    3.9044    1.3463   -3.7689 H   0  0  0  0  0  0  0  0  0  0  0  0
    5.5778    0.7970   -3.5192 H   0  0  0  0  0  0  0  0  0  0  0  0
    5.0336    2.3416   -2.8462 H   0  0  0  0  0  0  0  0  0  0  0  0
    3.3828    2.1226   -0.4789 H   0  0  0  0  0  0  0  0  0  0  0  0
    2.3614    1.5124   -1.7816 H   0  0  0  0  0  0  0  0  0  0  0  0
    5.7096    1.5508   -0.7107 H   0  0  0  0  0  0  0  0  0  0  0  0
  1 12  1  0  0  0  0
  1 13  1  0  0  0  0
  2 15  1  0  0  0  0
  2 17  1  0  0  0  0
  3 20  1  0  0  0  0
  4 23  1  0  0  0  0
  4  8  1  0  0  0  0
  5 26  1  0  0  0  0
  5  9  1  0  0  0  0
  6 27  1  0  0  0  0
  6  7  1  0  0  0  0
  7  1  1  0  0  0  0
  7  2  1  0  0  0  0
  8  3  1  0  0  0  0
  8  9  1  0  0  0  0
  8 11  1  0  0  0  0
  9  6  1  0  0  0  0
  9 10  1  1  0  0  0
 10 29  1  0  0  0  0
 11  7  1  0  0  0  0
 14  1  1  0  0  0  0
 16  2  1  0  0  0  0
 18  3  1  0  0  0  0
 19  3  1  0  0  0  0
 21  4  1  0  0  0  0
 22  4  1  0  0  0  0
 24  5  1  0  0  0  0
 25  5  1  0  0  0  0
 28  6  1  0  0  0  0
M  END
>  <HBA>
2

>  <HBD>
1

>  <TPSA>
29.46

>  <cid>
34731

>  <dipole>
2.66

>  <excitation_energy_1>
5.773

>  <excitation_energy_2>
6.302

>  <excitation_energy_3>
6.393

>  <excitation_energy_4>
6.435

>  <homo_energy>
-6.324

>  <homo_lumo_gap>
7.943

>  <logP>
1.715

>  <lumo_energy>
1.619

>  <melting_point>
36.76

>  <molecular_refractivity>
45.62

>  <oscillator_strength_1>
0.01

>  <oscillator_strength_2>
0.0281

>  <oscillator_strength_3>
0.0011

>  <oscillator_strength_4>
0.02

>  <open_babel_can_smiles>
CC1(C)OC([C@](C1)(C)O)(C)C

>  <mulliken_charges>
29
1   -0.454384
2   -0.45814
3   -0.447306
4   -0.462717
5   -0.47221
6   -0.337963
7   0.362356
8   0.325506
9   0.287049
10   -0.64022
11   -0.546655
12   0.133676
13   0.151664
14   0.141034
15   0.124681
16   0.164809
17   0.147175
18   0.131487
19   0.143501
20   0.175982
21   0.139023
22   0.138414
23   0.157184
24   0.150479
25   0.160356
26   0.131521
27   0.130813
28   0.137245
29   0.385643

>  <lowdin_charges>
29
1   -0.450851
2   -0.455866
3   -0.445369
4   -0.456856
5   -0.456904
6   -0.305027
7   0.135038
8   0.124137
9   0.109173
10   -0.450918
11   -0.277316
12   0.147702
13   0.1564
14   0.148137
15   0.142749
16   0.159132
17   0.154282
18   0.148229
19   0.152318
20   0.16842
21   0.149307
22   0.146663
23   0.159656
24   0.156779
25   0.159463
26   0.145404
27   0.148554
28   0.149749
29   0.337817

$$$$

