PCCDB-ID:  69480
public computational chemistry database (PCCDB) project, http://pccdb.org

 16 15  0  0  0  0  0  0  0  0999 V2000
    2.2738    1.5963   -1.6919 C   0  0  0  0  0  0  0  0  0  0  0  0
    2.3621    0.1624   -1.1942 C   0  0  0  0  0  0  0  0  0  0  0  0
    5.1844   -0.0384    1.2169 C   0  0  0  0  0  0  0  0  0  0  0  0
    4.4944   -0.0280   -0.1475 C   0  0  0  0  0  0  0  0  0  0  0  0
    8.2171    0.6297   -0.0647 N   0  0  0  0  0  0  0  0  0  0  0  0
    6.5579   -0.5338    1.1701 N   0  0  0  0  0  0  0  0  0  0  0  0
    7.3589    0.1275    0.4925 N   0  0  0  0  0  0  0  0  0  0  0  0
    5.0721   -0.0709   -1.2090 O   0  0  0  0  0  0  0  0  0  0  0  0
    3.1627    0.0718    0.0155 O   0  0  0  0  0  0  0  0  0  0  0  0
    1.6104    1.6439   -2.5630 H   0  0  0  0  0  0  0  0  0  0  0  0
    3.2590    1.9627   -1.9940 H   0  0  0  0  0  0  0  0  0  0  0  0
    1.8699    2.2554   -0.9167 H   0  0  0  0  0  0  0  0  0  0  0  0
    2.7965   -0.4972   -1.9490 H   0  0  0  0  0  0  0  0  0  0  0  0
    1.3846   -0.2219   -0.8945 H   0  0  0  0  0  0  0  0  0  0  0  0
    4.6387   -0.6938    1.8976 H   0  0  0  0  0  0  0  0  0  0  0  0
    5.1261    0.9792    1.6322 H   0  0  0  0  0  0  0  0  0  0  0  0
  1  2  1  0  0  0  0
  1 12  1  0  0  0  0
  2 14  1  0  0  0  0
  2  9  1  0  0  0  0
  3 16  1  0  0  0  0
  3 15  1  0  0  0  0
  4  9  1  0  0  0  0
  4  3  1  0  0  0  0
  5  7  2  0  0  0  0
  6  3  1  0  0  0  0
  7  6  2  0  0  0  0
  8  4  2  0  0  0  0
 10  1  1  0  0  0  0
 11  1  1  0  0  0  0
 13  2  1  0  0  0  0
M  RAD  1   5   2
M  END
>  <HBA>
3

>  <HBD>
0

>  <TPSA>
76.05

>  <cid>
69480

>  <dipole>
3.92

>  <excitation_energy_1>
4.363

>  <excitation_energy_2>
5.594

>  <excitation_energy_3>
5.727

>  <excitation_energy_4>
6.081

>  <homo_energy>
-6.969

>  <homo_lumo_gap>
6.196

>  <logP>
0.313

>  <lumo_energy>
-0.773

>  <melting_point>
34.13

>  <molecular_refractivity>
27.45

>  <oscillator_strength_1>
0.0001

>  <oscillator_strength_2>
0.0045

>  <oscillator_strength_3>
0.0002

>  <oscillator_strength_4>
0.0069

>  <open_babel_can_smiles>
CCOC(=O)CN=[N]=[N]

>  <mulliken_charges>
16
1   -0.464368
2   -0.049027
3   -0.236245
4   0.618932
5   -0.247819
6   -0.346328
7   0.413755
8   -0.461392
9   -0.455136
10   0.15703
11   0.178605
12   0.159967
13   0.177627
14   0.159772
15   0.204422
16   0.190204

>  <lowdin_charges>
16
1   -0.455786
2   -0.126979
3   -0.219016
4   0.187252
5   -0.096407
6   -0.212443
7   0.20434
8   -0.254025
9   -0.192437
10   0.163035
11   0.166317
12   0.158676
13   0.163586
14   0.155945
15   0.187473
16   0.170468

$$$$

