PCCDB-ID:  14473
public computational chemistry database (PCCDB) project, http://pccdb.org

 23 22  0  0  0  0  0  0  0  0999 V2000
    1.0066   -0.0985    0.3862 C   0  0  0  0  0  0  0  0  0  0  0  0
    2.8247   -1.0233    1.8808 C   0  0  0  0  0  0  0  0  0  0  0  0
    5.4505    1.2009   -0.1442 C   0  0  0  0  0  0  0  0  0  0  0  0
    7.1552   -1.1765    0.2479 C   0  0  0  0  0  0  0  0  0  0  0  0
    3.3792   -0.1614   -0.4745 C   0  0  0  0  0  0  0  0  0  0  0  0
    2.4868   -0.0051    0.7833 C   0  0  0  0  0  0  0  0  0  0  0  0
    4.8638   -0.0039   -0.2184 C   0  0  0  0  0  0  0  0  0  0  0  0
    5.6658   -1.2647   -0.0556 C   0  0  0  0  0  0  0  0  0  0  0  0
    5.1294   -2.3567   -0.1760 O   0  0  0  0  0  0  0  0  0  0  0  0
    0.3548    0.0590    1.2536 H   0  0  0  0  0  0  0  0  0  0  0  0
    0.7746   -1.0878   -0.0285 H   0  0  0  0  0  0  0  0  0  0  0  0
    0.7450    0.6505   -0.3712 H   0  0  0  0  0  0  0  0  0  0  0  0
    2.1596   -0.8966    2.7433 H   0  0  0  0  0  0  0  0  0  0  0  0
    3.8542   -0.9084    2.2373 H   0  0  0  0  0  0  0  0  0  0  0  0
    2.7156   -2.0499    1.5129 H   0  0  0  0  0  0  0  0  0  0  0  0
    4.8778    2.1150   -0.2829 H   0  0  0  0  0  0  0  0  0  0  0  0
    6.5101    1.3293    0.0527 H   0  0  0  0  0  0  0  0  0  0  0  0
    7.6925   -0.6549   -0.5524 H   0  0  0  0  0  0  0  0  0  0  0  0
    7.5479   -2.1903    0.3414 H   0  0  0  0  0  0  0  0  0  0  0  0
    7.3401   -0.6291    1.1792 H   0  0  0  0  0  0  0  0  0  0  0  0
    3.0663    0.5886   -1.2117 H   0  0  0  0  0  0  0  0  0  0  0  0
    3.2019   -1.1482   -0.9146 H   0  0  0  0  0  0  0  0  0  0  0  0
    2.6668    1.0026    1.1884 H   0  0  0  0  0  0  0  0  0  0  0  0
  1  6  1  0  0  0  0
  1 10  1  0  0  0  0
  2 14  1  0  0  0  0
  2 13  1  0  0  0  0
  3 17  1  0  0  0  0
  4 19  1  0  0  0  0
  4 20  1  0  0  0  0
  5  7  1  0  0  0  0
  5  6  1  0  0  0  0
  6 23  1  0  0  0  0
  6  2  1  0  0  0  0
  7  3  2  0  0  0  0
  7  8  1  0  0  0  0
  8  4  1  0  0  0  0
  9  8  2  0  0  0  0
 11  1  1  0  0  0  0
 12  1  1  0  0  0  0
 15  2  1  0  0  0  0
 16  3  1  0  0  0  0
 18  4  1  0  0  0  0
 21  5  1  0  0  0  0
 22  5  1  0  0  0  0
M  END
>  <HBA>
1

>  <HBD>
0

>  <TPSA>
17.07

>  <cid>
14473

>  <dipole>
2.67

>  <excitation_energy_1>
3.645

>  <excitation_energy_2>
5.442

>  <excitation_energy_3>
6.115

>  <excitation_energy_4>
6.207

>  <homo_energy>
-6.708

>  <homo_lumo_gap>
5.26

>  <logP>
2.178

>  <lumo_energy>
-1.448

>  <melting_point>
-23.68

>  <molecular_refractivity>
40.3

>  <oscillator_strength_1>
0.0003

>  <oscillator_strength_2>
0.1717

>  <oscillator_strength_3>
0.0065

>  <oscillator_strength_4>
0.0006

>  <open_babel_can_smiles>
CC(CC(=C)C(=O)C)C

>  <mulliken_charges>
23
1   -0.441216
2   -0.4411
3   -0.393983
4   -0.542885
5   -0.332434
6   -0.064725
7   0.147764
8   0.41872
9   -0.45212
10   0.141095
11   0.144941
12   0.136958
13   0.135571
14   0.137656
15   0.158372
16   0.153921
17   0.151763
18   0.170907
19   0.181051
20   0.169833
21   0.135082
22   0.165991
23   0.118836

>  <lowdin_charges>
23
1   -0.445688
2   -0.444832
3   -0.309515
4   -0.47675
5   -0.280379
6   -0.112673
7   -0.029696
8   0.15878
9   -0.23868
10   0.14934
11   0.148284
12   0.146746
13   0.146653
14   0.146364
15   0.154766
16   0.164782
17   0.162698
18   0.171029
19   0.174067
20   0.169101
21   0.150078
22   0.163261
23   0.132263

$$$$

