PCCDB-ID:  1060
public computational chemistry database (PCCDB) project, http://pccdb.org

 10  9  0  0  0  0  0  0  0  0999 V2000
    1.2051    0.6083    0.6994 C   0  0  0  0  0  0  0  0  0  0  0  0
    2.4795    0.0108    0.1586 C   0  0  0  0  0  0  0  0  0  0  0  0
    3.1694    0.8511   -0.9417 C   0  0  0  0  0  0  0  0  0  0  0  0
    2.9616   -1.0372    0.5241 O   0  0  0  0  0  0  0  0  0  0  0  0
    4.2958    0.2771   -1.3919 O   0  0  0  0  0  0  0  0  0  0  0  0
    2.7292    1.9069   -1.3415 O   0  0  0  0  0  0  0  0  0  0  0  0
    1.3999    1.6039    1.1140 H   0  0  0  0  0  0  0  0  0  0  0  0
    0.7931   -0.0478    1.4676 H   0  0  0  0  0  0  0  0  0  0  0  0
    0.4796    0.7492   -0.1098 H   0  0  0  0  0  0  0  0  0  0  0  0
    4.6545    0.8742   -2.0758 H   0  0  0  0  0  0  0  0  0  0  0  0
  1  7  1  0  0  0  0
  1  8  1  0  0  0  0
  2  4  2  0  0  0  0
  2  1  1  0  0  0  0
  3  2  1  0  0  0  0
  5  3  1  0  0  0  0
  6  3  2  0  0  0  0
  9  1  1  0  0  0  0
 10  5  1  0  0  0  0
M  END
>  <HBA>
3

>  <HBD>
1

>  <TPSA>
54.37

>  <cid>
1060

>  <dipole>
1.26

>  <excitation_energy_1>
3.267

>  <excitation_energy_2>
5.057

>  <excitation_energy_3>
6.322

>  <excitation_energy_4>
6.546

>  <homo_energy>
-7.108

>  <homo_lumo_gap>
4.925

>  <logP>
-0.34

>  <lumo_energy>
-2.182

>  <melting_point>
73.98

>  <molecular_refractivity>
18.51

>  <oscillator_strength_1>
0.0

>  <oscillator_strength_2>
0.0001

>  <oscillator_strength_3>
0.0342

>  <oscillator_strength_4>
0.0237

>  <open_babel_can_smiles>
OC(=O)C(=O)C

>  <mulliken_charges>
10
1   -0.522556
2   0.401298
3   0.517509
4   -0.39551
5   -0.536134
6   -0.445011
7   0.190413
8   0.182551
9   0.190363
10   0.417077

>  <lowdin_charges>
10
1   -0.467244
2   0.138645
3   0.156816
4   -0.177972
5   -0.320193
6   -0.244784
7   0.184
8   0.176782
9   0.185003
10   0.368947

$$$$

