PCCDB-ID:  19827
public computational chemistry database (PCCDB) project, http://pccdb.org

 20 20  0  0  0  0  0  0  0  0999 V2000
    1.0294   -0.0399   -0.1419 C   0  0  0  0  0  0  0  0  0  0  0  0
    3.1545    1.3662   -0.2586 C   0  0  0  0  0  0  0  0  0  0  0  0
    4.5306    1.5041   -0.1453 C   0  0  0  0  0  0  0  0  0  0  0  0
    2.5247    0.1332   -0.0242 C   0  0  0  0  0  0  0  0  0  0  0  0
    5.3458    0.4169    0.2089 C   0  0  0  0  0  0  0  0  0  0  0  0
    3.3330   -0.9478    0.3286 C   0  0  0  0  0  0  0  0  0  0  0  0
    4.7235   -0.8152    0.4454 C   0  0  0  0  0  0  0  0  0  0  0  0
    6.8272    0.6673    0.3066 C   0  0  0  0  0  0  0  0  0  0  0  0
    2.8651   -2.2196    0.5903 O   0  0  0  0  0  0  0  0  0  0  0  0
    5.4587   -1.9197    0.7971 O   0  0  0  0  0  0  0  0  0  0  0  0
    7.3052    1.7585    0.0859 O   0  0  0  0  0  0  0  0  0  0  0  0
    7.6224   -0.3668    0.6514 O   0  0  0  0  0  0  0  0  0  0  0  0
    0.5511    0.9025   -0.4209 H   0  0  0  0  0  0  0  0  0  0  0  0
    0.5755   -0.3632    0.8059 H   0  0  0  0  0  0  0  0  0  0  0  0
    0.7594   -0.7792   -0.9094 H   0  0  0  0  0  0  0  0  0  0  0  0
    2.5454    2.2229   -0.5329 H   0  0  0  0  0  0  0  0  0  0  0  0
    5.0190    2.4549   -0.3258 H   0  0  0  0  0  0  0  0  0  0  0  0
    1.8998   -2.2423    0.5164 H   0  0  0  0  0  0  0  0  0  0  0  0
    4.8475   -2.6671    0.9232 H   0  0  0  0  0  0  0  0  0  0  0  0
    7.0948   -1.1763    0.7961 H   0  0  0  0  0  0  0  0  0  0  0  0
  1  4  1  0  0  0  0
  1 14  1  0  0  0  0
  2  3  2  0  0  0  0
  2  4  1  0  0  0  0
  3  5  1  0  0  0  0
  4  6  2  0  0  0  0
  5  8  1  0  0  0  0
  5  7  2  0  0  0  0
  6  7  1  0  0  0  0
  6  9  1  0  0  0  0
  7 10  1  0  0  0  0
  8 12  1  0  0  0  0
 10 19  1  0  0  0  0
 11  8  2  0  0  0  0
 12 20  1  0  0  0  0
 13  1  1  0  0  0  0
 15  1  1  0  0  0  0
 16  2  1  0  0  0  0
 17  3  1  0  0  0  0
 18  9  1  0  0  0  0
M  END
>  <HBA>
4

>  <HBD>
3

>  <TPSA>
77.76

>  <cid>
19827

>  <dipole>
7.91

>  <excitation_energy_1>
4.496

>  <excitation_energy_2>
4.704

>  <excitation_energy_3>
4.919

>  <excitation_energy_4>
5.279

>  <homo_energy>
-6.299

>  <homo_lumo_gap>
5.184

>  <logP>
1.104

>  <lumo_energy>
-1.116

>  <melting_point>
181.43

>  <molecular_refractivity>
42.41

>  <oscillator_strength_1>
0.0501

>  <oscillator_strength_2>
0.0

>  <oscillator_strength_3>
0.0012

>  <oscillator_strength_4>
0.1726

>  <open_babel_can_smiles>
OC(=O)c1ccc(c(c1O)O)C

>  <mulliken_charges>
20
1   -0.577472
2   -0.197237
3   -0.175354
4   0.169572
5   0.01766
6   0.233757
7   0.272637
8   0.571858
9   -0.688662
10   -0.699971
11   -0.462874
12   -0.601792
13   0.181773
14   0.166301
15   0.168018
16   0.132374
17   0.171225
18   0.428986
19   0.446646
20   0.442555

>  <lowdin_charges>
20
1   -0.452766
2   -0.174621
3   -0.134487
4   -0.027084
5   -0.082552
6   0.0523
7   0.081485
8   0.1956
9   -0.40081
10   -0.385809
11   -0.257586
12   -0.360872
13   0.173938
14   0.15962
15   0.16112
16   0.162221
17   0.183808
18   0.367505
19   0.377156
20   0.361833

$$$$

