PCCDB-ID:  69684
public computational chemistry database (PCCDB) project, http://pccdb.org

 24 24  0  0  0  0  0  0  0  0999 V2000
    0.8720    1.1785   -1.3102 C   0  0  0  0  0  0  0  0  0  0  0  0
    1.4629    0.1363   -0.3479 C   0  0  0  0  0  0  0  0  0  0  0  0
   -0.5229    1.6338   -0.8535 C   0  0  0  0  0  0  0  0  0  0  0  0
    0.5198   -1.0635   -0.1692 C   0  0  0  0  0  0  0  0  0  0  0  0
   -1.4708    0.4374   -0.6561 C   0  0  0  0  0  0  0  0  0  0  0  0
   -0.8940   -0.6349    0.2869 C   0  0  0  0  0  0  0  0  0  0  0  0
   -0.7515   -0.9728    2.7507 C   0  0  0  0  0  0  0  0  0  0  0  0
   -0.7867   -2.2488    2.8515 N   0  0  0  0  0  0  0  0  0  0  0  0
   -0.9308   -0.1492    1.6657 N   0  0  0  0  0  0  0  0  0  0  0  0
   -0.5357   -0.2245    3.8691 O   0  0  0  0  0  0  0  0  0  0  0  0
    0.7952    0.7394   -2.3160 H   0  0  0  0  0  0  0  0  0  0  0  0
    1.5429    2.0423   -1.3970 H   0  0  0  0  0  0  0  0  0  0  0  0
    1.6477    0.6046    0.6295 H   0  0  0  0  0  0  0  0  0  0  0  0
    2.4384   -0.2093   -0.7114 H   0  0  0  0  0  0  0  0  0  0  0  0
   -0.9578    2.3282   -1.5828 H   0  0  0  0  0  0  0  0  0  0  0  0
   -0.4300    2.2052    0.0828 H   0  0  0  0  0  0  0  0  0  0  0  0
    0.9336   -1.7756    0.5543 H   0  0  0  0  0  0  0  0  0  0  0  0
    0.4255   -1.5985   -1.1253 H   0  0  0  0  0  0  0  0  0  0  0  0
   -1.6481   -0.0352   -1.6313 H   0  0  0  0  0  0  0  0  0  0  0  0
   -2.4454    0.7687   -0.2787 H   0  0  0  0  0  0  0  0  0  0  0  0
   -1.5578   -1.5082    0.2506 H   0  0  0  0  0  0  0  0  0  0  0  0
   -0.9619   -2.7028    1.9571 H   0  0  0  0  0  0  0  0  0  0  0  0
   -0.6823    0.8167    1.8307 H   0  0  0  0  0  0  0  0  0  0  0  0
   -0.4633   -0.8756    4.5888 H   0  0  0  0  0  0  0  0  0  0  0  0
  1  3  1  0  0  0  0
  1  2  1  0  0  0  0
  2  4  1  0  0  0  0
  2 13  1  0  0  0  0
  3  5  1  0  0  0  0
  3 16  1  0  0  0  0
  4  6  1  0  0  0  0
  4 17  1  0  0  0  0
  5 20  1  0  0  0  0
  5  6  1  0  0  0  0
  6  9  1  0  0  0  0
  7  8  2  0  0  0  0
  7 10  1  0  0  0  0
  9 23  1  0  0  0  0
  9  7  1  0  0  0  0
 10 24  1  0  0  0  0
 11  1  1  0  0  0  0
 12  1  1  0  0  0  0
 14  2  1  0  0  0  0
 15  3  1  0  0  0  0
 18  4  1  0  0  0  0
 19  5  1  0  0  0  0
 21  6  1  0  0  0  0
 22  8  1  0  0  0  0
M  END
>  <HBA>
3

>  <HBD>
2

>  <TPSA>
55.12

>  <cid>
69684

>  <dipole>
2.8

>  <excitation_energy_1>
5.526

>  <excitation_energy_2>
5.837

>  <excitation_energy_3>
6.116

>  <excitation_energy_4>
6.294

>  <homo_energy>
-6.082

>  <homo_lumo_gap>
7.78

>  <logP>
2.079

>  <lumo_energy>
1.698

>  <melting_point>
108.5

>  <molecular_refractivity>
39.75

>  <oscillator_strength_1>
0.0025

>  <oscillator_strength_2>
0.0054

>  <oscillator_strength_3>
0.0047

>  <oscillator_strength_4>
0.0316

>  <open_babel_can_smiles>
OC(=N)NC1CCCCC1

>  <mulliken_charges>
24
1   -0.255215
2   -0.265593
3   -0.271702
4   -0.262774
5   -0.280394
6   0.031316
7   0.648526
8   -0.670266
9   -0.605194
10   -0.612225
11   0.130497
12   0.135345
13   0.133143
14   0.138562
15   0.140994
16   0.126377
17   0.14974
18   0.129751
19   0.139501
20   0.148653
21   0.136214
22   0.282465
23   0.333811
24   0.418467

>  <lowdin_charges>
24
1   -0.27846
2   -0.280091
3   -0.282448
4   -0.294169
5   -0.282381
6   -0.059357
7   0.158405
8   -0.499959
9   -0.297778
10   -0.387805
11   0.138265
12   0.14638
13   0.139394
14   0.148162
15   0.150523
16   0.134375
17   0.154347
18   0.142297
19   0.147773
20   0.152114
21   0.145032
22   0.255076
23   0.283186
24   0.367118

$$$$

