PCCDB-ID:  27135
public computational chemistry database (PCCDB) project, http://pccdb.org

 12 12  0  0  0  0  0  0  0  0999 V2000
    0.3647    1.0518   -0.0110 C   0  0  0  0  0  0  0  0  0  0  0  0
   -1.0336    0.3704   -0.1103 C   0  0  0  0  0  0  0  0  0  0  0  0
    1.0189   -0.3610    0.0047 C   0  0  0  0  0  0  0  0  0  0  0  0
   -0.7945   -2.0990    0.2145 N   0  0  0  0  0  0  0  0  0  0  0  0
   -0.3310   -0.9206   -0.1868 N   0  0  0  0  0  0  0  0  0  0  0  0
    0.0945   -2.9168    0.4540 O   0  0  0  0  0  0  0  0  0  0  0  0
    0.5213    1.6382    0.8962 H   0  0  0  0  0  0  0  0  0  0  0  0
    0.6266    1.6555   -0.8819 H   0  0  0  0  0  0  0  0  0  0  0  0
   -1.6225    0.6049   -1.0026 H   0  0  0  0  0  0  0  0  0  0  0  0
   -1.6663    0.4597    0.7786 H   0  0  0  0  0  0  0  0  0  0  0  0
    1.4574   -0.6853    0.9547 H   0  0  0  0  0  0  0  0  0  0  0  0
    1.7145   -0.5918   -0.8071 H   0  0  0  0  0  0  0  0  0  0  0  0
  1  3  1  0  0  0  0
  1  7  1  0  0  0  0
  2  1  1  0  0  0  0
  2 10  1  0  0  0  0
  3 11  1  0  0  0  0
  4  6  1  0  0  0  0
  5  2  1  0  0  0  0
  5  3  1  0  0  0  0
  5  4  1  0  0  0  0
  8  1  1  0  0  0  0
  9  2  1  0  0  0  0
 12  3  1  0  0  0  0
M  RAD  2   4   2   6   2
M  END
>  <HBA>
3

>  <HBD>
0

>  <TPSA>
32.67

>  <cid>
27135

>  <dipole>
4.46

>  <excitation_energy_1>
3.221

>  <excitation_energy_2>
5.687

>  <excitation_energy_3>
5.724

>  <excitation_energy_4>
6.12

>  <homo_energy>
-6.0

>  <homo_lumo_gap>
5.07

>  <logP>
0.311

>  <lumo_energy>
-0.931

>  <melting_point>
19.69

>  <molecular_refractivity>
25.97

>  <oscillator_strength_1>
0.0015

>  <oscillator_strength_2>
0.1308

>  <oscillator_strength_3>
0.0014

>  <oscillator_strength_4>
0.0048

>  <open_babel_can_smiles>
[O][N]N1CCC1

>  <mulliken_charges>
12
1   -0.336485
2   -0.109611
3   -0.120026
4   0.127966
5   -0.219084
6   -0.367317
7   0.166699
8   0.166031
9   0.170505
10   0.171332
11   0.175688
12   0.1743

>  <lowdin_charges>
12
1   -0.285678
2   -0.191633
3   -0.206399
4   0.058235
5   -0.068173
6   -0.269812
7   0.160963
8   0.160993
9   0.158426
10   0.158621
11   0.161897
12   0.162561

$$$$

