PCCDB-ID:  65097
public computational chemistry database (PCCDB) project, http://pccdb.org

 20 19  0  0  1  0  0  0  0  0999 V2000
    1.7205   -1.2967    1.3048 C   0  0  0  0  0  0  0  0  0  0  0  0
    1.7876    0.0130    0.5150 C   0  0  0  0  0  0  0  0  0  0  0  0
    2.7285    1.0694    1.1033 C   0  0  1  0  0  0  0  0  0  0  0  0
    2.4095    1.4743    2.5596 C   0  0  1  0  0  0  0  0  0  0  0  0
    3.2826    2.6585    3.0565 C   0  0  0  0  0  0  0  0  0  0  0  0
    0.9831    1.7330    2.7181 N   0  0  0  0  0  0  0  0  0  0  0  0
    4.0934    0.5839    1.1308 O   0  0  0  0  0  0  0  0  0  0  0  0
    2.8064    3.5797    3.6803 O   0  0  0  0  0  0  0  0  0  0  0  0
    4.5978    2.5946    2.7868 O   0  0  0  0  0  0  0  0  0  0  0  0
    1.1280   -2.0404    0.7613 H   0  0  0  0  0  0  0  0  0  0  0  0
    1.2442   -1.1403    2.2775 H   0  0  0  0  0  0  0  0  0  0  0  0
    2.7196   -1.7143    1.4684 H   0  0  0  0  0  0  0  0  0  0  0  0
    0.7888    0.4539    0.4382 H   0  0  0  0  0  0  0  0  0  0  0  0
    2.1236   -0.1870   -0.5141 H   0  0  0  0  0  0  0  0  0  0  0  0
    2.6869    1.9706    0.4700 H   0  0  0  0  0  0  0  0  0  0  0  0
    2.6683    0.6101    3.1871 H   0  0  0  0  0  0  0  0  0  0  0  0
    0.7618    2.6123    2.2479 H   0  0  0  0  0  0  0  0  0  0  0  0
    0.8147    1.9401    3.7018 H   0  0  0  0  0  0  0  0  0  0  0  0
    4.4000    0.4758    0.2169 H   0  0  0  0  0  0  0  0  0  0  0  0
    4.7585    1.8099    2.2116 H   0  0  0  0  0  0  0  0  0  0  0  0
  1 12  1  0  0  0  0
  1 11  1  0  0  0  0
  2  3  1  0  0  0  0
  2  1  1  0  0  0  0
  3 15  1  6  0  0  0
  3  7  1  0  0  0  0
  3  4  1  0  0  0  0
  4  6  1  0  0  0  0
  4  5  1  0  0  0  0
  4 16  1  1  0  0  0
  5  8  2  0  0  0  0
  6 18  1  0  0  0  0
  9  5  1  0  0  0  0
 10  1  1  0  0  0  0
 13  2  1  0  0  0  0
 14  2  1  0  0  0  0
 17  6  1  0  0  0  0
 19  7  1  0  0  0  0
 20  9  1  0  0  0  0
M  END
>  <HBA>
4

>  <HBD>
3

>  <TPSA>
83.55

>  <cid>
65097

>  <dipole>
4.5

>  <excitation_energy_1>
5.638

>  <excitation_energy_2>
5.938

>  <excitation_energy_3>
6.106

>  <excitation_energy_4>
6.386

>  <homo_energy>
-6.797

>  <homo_lumo_gap>
7.276

>  <logP>
-0.131

>  <lumo_energy>
0.479

>  <melting_point>
124.13

>  <molecular_refractivity>
31.79

>  <oscillator_strength_1>
0.0008

>  <oscillator_strength_2>
0.0013

>  <oscillator_strength_3>
0.0066

>  <oscillator_strength_4>
0.0013

>  <open_babel_can_smiles>
CC[C@@H]([C@@H](C(=O)O)N)O

>  <mulliken_charges>
20
1   -0.456012
2   -0.249701
3   0.109094
4   -0.108968
5   0.57152
6   -0.700904
7   -0.649315
8   -0.462819
9   -0.586611
10   0.146638
11   0.168053
12   0.151378
13   0.165117
14   0.119379
15   0.131448
16   0.179411
17   0.303894
18   0.319791
19   0.411062
20   0.437547

>  <lowdin_charges>
20
1   -0.450416
2   -0.282054
3   -0.005039
4   -0.123285
5   0.167883
6   -0.527507
7   -0.463097
8   -0.261882
9   -0.365004
10   0.155498
11   0.159246
12   0.150653
13   0.163317
14   0.135719
15   0.134909
16   0.168479
17   0.258998
18   0.26841
19   0.355406
20   0.359767

$$$$

