PCCDB-ID:  31541
public computational chemistry database (PCCDB) project, http://pccdb.org

 36 36  0  0  1  0  0  0  0  0999 V2000
    7.1775    3.4277    3.1135 C   0  0  0  0  0  0  0  0  0  0  0  0
    5.1643    3.6476    4.6370 C   0  0  0  0  0  0  0  0  0  0  0  0
    0.9193   -5.5421    2.9468 C   0  0  0  0  0  0  0  0  0  0  0  0
    0.3670   -4.3374    3.3840 C   0  0  0  0  0  0  0  0  0  0  0  0
    2.1506   -5.5344    2.2876 C   0  0  0  0  0  0  0  0  0  0  0  0
    1.0432   -3.1361    3.1634 C   0  0  0  0  0  0  0  0  0  0  0  0
    2.8212   -4.3308    2.0695 C   0  0  0  0  0  0  0  0  0  0  0  0
    3.0309   -1.8147    2.2964 C   0  0  0  0  0  0  0  0  0  0  0  0
    4.1024   -1.5742    3.3803 C   0  0  0  0  0  0  0  0  0  0  0  0
    4.2730    0.9879    3.1231 C   0  0  0  0  0  0  0  0  0  0  0  0
    5.9927    2.6983    3.7545 C   0  0  0  0  0  0  0  0  0  0  0  0
    2.2798   -3.1127    2.5052 C   0  0  0  0  0  0  0  0  0  0  0  0
    5.0101   -0.3649    3.1317 C   0  0  2  0  0  0  0  0  0  0  0  0
    5.2022    2.0443    2.6940 N   0  0  0  0  0  0  0  0  0  0  0  0
    5.6775   -0.5357    1.8913 O   0  0  0  0  0  0  0  0  0  0  0  0
    7.8123    3.8948    3.8748 H   0  0  0  0  0  0  0  0  0  0  0  0
    6.8269    4.2216    2.4406 H   0  0  0  0  0  0  0  0  0  0  0  0
    7.7868    2.7338    2.5263 H   0  0  0  0  0  0  0  0  0  0  0  0
    5.7746    4.0690    5.4443 H   0  0  0  0  0  0  0  0  0  0  0  0
    4.3117    3.1364    5.0976 H   0  0  0  0  0  0  0  0  0  0  0  0
    4.7758    4.4850    4.0420 H   0  0  0  0  0  0  0  0  0  0  0  0
    0.3934   -6.4784    3.1136 H   0  0  0  0  0  0  0  0  0  0  0  0
   -0.5934   -4.3310    3.8936 H   0  0  0  0  0  0  0  0  0  0  0  0
    2.5865   -6.4666    1.9370 H   0  0  0  0  0  0  0  0  0  0  0  0
    0.6033   -2.2007    3.5040 H   0  0  0  0  0  0  0  0  0  0  0  0
    3.7774   -4.3319    1.5501 H   0  0  0  0  0  0  0  0  0  0  0  0
    3.5296   -1.8171    1.3212 H   0  0  0  0  0  0  0  0  0  0  0  0
    2.3140   -0.9842    2.2865 H   0  0  0  0  0  0  0  0  0  0  0  0
    4.7433   -2.4622    3.4413 H   0  0  0  0  0  0  0  0  0  0  0  0
    3.6255   -1.4675    4.3644 H   0  0  0  0  0  0  0  0  0  0  0  0
    3.8154    1.1769    4.1080 H   0  0  0  0  0  0  0  0  0  0  0  0
    3.4634    0.9473    2.3875 H   0  0  0  0  0  0  0  0  0  0  0  0
    6.3879    1.8926    4.3865 H   0  0  0  0  0  0  0  0  0  0  0  0
    5.7511   -0.3398    3.9528 H   0  0  0  0  0  0  0  0  0  0  0  0
    4.7030    2.7575    2.1665 H   0  0  0  0  0  0  0  0  0  0  0  0
    5.9739    0.3695    1.6648 H   0  0  0  0  0  0  0  0  0  0  0  0
  1 11  1  0  0  0  0
  1 16  1  0  0  0  0
  2 20  1  0  0  0  0
  2 19  1  0  0  0  0
  3 22  1  0  0  0  0
  3  4  2  0  0  0  0
  4 23  1  0  0  0  0
  5  3  1  0  0  0  0
  6  4  1  0  0  0  0
  6 25  1  0  0  0  0
  7  5  2  0  0  0  0
  7 12  1  0  0  0  0
  8 12  1  0  0  0  0
  8  9  1  0  0  0  0
  9 29  1  0  0  0  0
  9 30  1  0  0  0  0
 10 13  1  0  0  0  0
 10 31  1  0  0  0  0
 11 33  1  0  0  0  0
 11  2  1  0  0  0  0
 12  6  2  0  0  0  0
 13  9  1  0  0  0  0
 13 34  1  1  0  0  0
 14 10  1  0  0  0  0
 14 11  1  0  0  0  0
 15 13  1  0  0  0  0
 17  1  1  0  0  0  0
 18  1  1  0  0  0  0
 21  2  1  0  0  0  0
 24  5  1  0  0  0  0
 26  7  1  0  0  0  0
 27  8  1  0  0  0  0
 28  8  1  0  0  0  0
 32 10  1  0  0  0  0
 35 14  1  0  0  0  0
 36 15  1  0  0  0  0
M  END
>  <HBA>
2

>  <HBD>
2

>  <TPSA>
32.26

>  <cid>
31541

>  <dipole>
3.09

>  <excitation_energy_1>
5.287

>  <excitation_energy_2>
5.683

>  <excitation_energy_3>
5.83

>  <excitation_energy_4>
5.885

>  <homo_energy>
-6.202

>  <homo_lumo_gap>
6.441

>  <logP>
2.369

>  <lumo_energy>
0.239

>  <melting_point>
48.96

>  <molecular_refractivity>
64.21

>  <oscillator_strength_1>
0.0015

>  <oscillator_strength_2>
0.0113

>  <oscillator_strength_3>
0.0535

>  <oscillator_strength_4>
0.0029

>  <open_babel_can_smiles>
O[C@@H](CNC(C)C)CCc1ccccc1

>  <mulliken_charges>
36
1   -0.435552
2   -0.450243
3   -0.132103
4   -0.128075
5   -0.129279
6   -0.182339
7   -0.179683
8   -0.357995
9   -0.265214
10   -0.162056
11   0.037875
12   0.168542
13   0.166787
14   -0.581348
15   -0.64964
16   0.14372
17   0.136127
18   0.155209
19   0.147428
20   0.149659
21   0.136325
22   0.124382
23   0.124211
24   0.126045
25   0.11605
26   0.129195
27   0.169542
28   0.131727
29   0.150657
30   0.128504
31   0.122866
32   0.144808
33   0.141208
34   0.103915
35   0.299287
36   0.399456

>  <lowdin_charges>
36
1   -0.449809
2   -0.46275
3   -0.164778
4   -0.155786
5   -0.156538
6   -0.171777
7   -0.165486
8   -0.277277
9   -0.279356
10   -0.229346
11   -0.061628
12   0.001505
13   -0.009935
14   -0.360387
15   -0.478659
16   0.152663
17   0.146307
18   0.157704
19   0.154695
20   0.151636
21   0.145768
22   0.155474
23   0.154363
24   0.156056
25   0.151261
26   0.156442
27   0.162136
28   0.142705
29   0.154632
30   0.143056
31   0.129725
32   0.149474
33   0.144092
34   0.120189
35   0.258018
36   0.335613

$$$$

