PCCDB-ID:  7345
public computational chemistry database (PCCDB) project, http://pccdb.org

 18 17  0  0  1  0  0  0  0  0999 V2000
    1.0270    0.1203   -0.2533 C   0  0  0  0  0  0  0  0  0  0  0  0
    3.2585   -2.7231   -0.6221 C   0  0  0  0  0  0  0  0  0  0  0  0
    2.5388    0.1340    0.0325 C   0  0  1  0  0  0  0  0  0  0  0  0
    3.2181   -2.0548    0.7339 C   0  0  0  0  0  0  0  0  0  0  0  0
    2.9322    1.5292    0.5689 C   0  0  0  0  0  0  0  0  0  0  0  0
    2.9094   -0.8602    1.0267 N   0  0  0  0  0  0  0  0  0  0  0  0
    3.5553   -2.8606    1.7794 O   0  0  0  0  0  0  0  0  0  0  0  0
    2.8502    2.5242   -0.1126 O   0  0  0  0  0  0  0  0  0  0  0  0
    3.3418    1.5431    1.8452 O   0  0  0  0  0  0  0  0  0  0  0  0
    0.7716    0.9515   -0.9157 H   0  0  0  0  0  0  0  0  0  0  0  0
    0.4635    0.2247    0.6795 H   0  0  0  0  0  0  0  0  0  0  0  0
    0.7313   -0.8211   -0.7290 H   0  0  0  0  0  0  0  0  0  0  0  0
    3.0524   -2.0259   -1.4346 H   0  0  0  0  0  0  0  0  0  0  0  0
    2.5144   -3.5280   -0.6666 H   0  0  0  0  0  0  0  0  0  0  0  0
    4.2453   -3.1700   -0.7948 H   0  0  0  0  0  0  0  0  0  0  0  0
    3.0819    0.0187   -0.9158 H   0  0  0  0  0  0  0  0  0  0  0  0
    3.7685   -3.7479    1.4516 H   0  0  0  0  0  0  0  0  0  0  0  0
    3.3165    0.6004    2.1410 H   0  0  0  0  0  0  0  0  0  0  0  0
  1  3  1  0  0  0  0
  1 11  1  0  0  0  0
  2  4  1  0  0  0  0
  3 16  1  6  0  0  0
  3  5  1  0  0  0  0
  3  6  1  0  0  0  0
  4  6  2  0  0  0  0
  4  7  1  0  0  0  0
  5  9  1  0  0  0  0
  8  5  2  0  0  0  0
  9 18  1  0  0  0  0
 10  1  1  0  0  0  0
 12  1  1  0  0  0  0
 13  2  1  0  0  0  0
 14  2  1  0  0  0  0
 15  2  1  0  0  0  0
 17  7  1  0  0  0  0
M  END
>  <HBA>
4

>  <HBD>
2

>  <TPSA>
66.4

>  <cid>
7345

>  <dipole>
7.59

>  <excitation_energy_1>
5.539

>  <excitation_energy_2>
5.801

>  <excitation_energy_3>
5.885

>  <excitation_energy_4>
6.194

>  <homo_energy>
-6.754

>  <homo_lumo_gap>
6.531

>  <logP>
-0.013

>  <lumo_energy>
-0.223

>  <melting_point>
99.83

>  <molecular_refractivity>
30.92

>  <oscillator_strength_1>
0.0069

>  <oscillator_strength_2>
0.0124

>  <oscillator_strength_3>
0.001

>  <oscillator_strength_4>
0.0388

>  <open_babel_can_smiles>
C/C(=N\[C@H](C(=O)O)C)/O

>  <mulliken_charges>
18
1   -0.442956
2   -0.561896
3   -0.076289
4   0.51027
5   0.600187
6   -0.465253
7   -0.569205
8   -0.471179
9   -0.576746
10   0.18263
11   0.166408
12   0.141652
13   0.193758
14   0.187414
15   0.18156
16   0.155808
17   0.4133
18   0.430536

>  <lowdin_charges>
18
1   -0.441579
2   -0.481486
3   -0.099495
4   0.146074
5   0.182514
6   -0.222669
7   -0.354245
8   -0.263084
9   -0.350551
10   0.173302
11   0.161719
12   0.148594
13   0.180484
14   0.177365
15   0.173402
16   0.151812
17   0.359966
18   0.357877

$$$$

