PCCDB-ID:  7637
public computational chemistry database (PCCDB) project, http://pccdb.org

 28 29  0  0  0  0  0  0  0  0999 V2000
   -1.8428   -0.2854    0.0154 C   0  0  0  0  0  0  0  0  0  0  0  0
   -1.1607    0.7038   -0.6929 C   0  0  0  0  0  0  0  0  0  0  0  0
   -1.1237   -1.2117    0.7758 C   0  0  0  0  0  0  0  0  0  0  0  0
    0.2340    0.7646   -0.6420 C   0  0  0  0  0  0  0  0  0  0  0  0
    0.2678   -1.1461    0.8283 C   0  0  0  0  0  0  0  0  0  0  0  0
    5.0199   -2.6125   -0.8948 C   0  0  0  0  0  0  0  0  0  0  0  0
    5.3550   -0.5926    0.3712 C   0  0  0  0  0  0  0  0  0  0  0  0
    6.3959   -2.8161   -0.9403 C   0  0  0  0  0  0  0  0  0  0  0  0
    6.7333   -0.8011    0.3334 C   0  0  0  0  0  0  0  0  0  0  0  0
    2.4736   -0.0796    0.1907 C   0  0  0  0  0  0  0  0  0  0  0  0
    0.9625   -0.1544    0.1205 C   0  0  0  0  0  0  0  0  0  0  0  0
    4.4689   -1.4992   -0.2366 C   0  0  0  0  0  0  0  0  0  0  0  0
    7.2648   -1.9117   -0.3217 C   0  0  0  0  0  0  0  0  0  0  0  0
    3.0734   -1.3578   -0.1748 N   0  0  0  0  0  0  0  0  0  0  0  0
    8.6316   -2.0608   -0.3307 O   0  0  0  0  0  0  0  0  0  0  0  0
   -2.9276   -0.3363   -0.0244 H   0  0  0  0  0  0  0  0  0  0  0  0
   -1.7114    1.4261   -1.2897 H   0  0  0  0  0  0  0  0  0  0  0  0
   -1.6490   -1.9850    1.3304 H   0  0  0  0  0  0  0  0  0  0  0  0
    0.7623    1.5349   -1.1993 H   0  0  0  0  0  0  0  0  0  0  0  0
    0.8286   -1.8682    1.4156 H   0  0  0  0  0  0  0  0  0  0  0  0
    4.3576   -3.3323   -1.3713 H   0  0  0  0  0  0  0  0  0  0  0  0
    4.9759    0.2871    0.8800 H   0  0  0  0  0  0  0  0  0  0  0  0
    6.7929   -3.6870   -1.4598 H   0  0  0  0  0  0  0  0  0  0  0  0
    7.4105   -0.0968    0.8069 H   0  0  0  0  0  0  0  0  0  0  0  0
    2.7788    0.1554    1.2197 H   0  0  0  0  0  0  0  0  0  0  0  0
    2.8348    0.7519   -0.4396 H   0  0  0  0  0  0  0  0  0  0  0  0
    2.5975   -1.7936   -0.9566 H   0  0  0  0  0  0  0  0  0  0  0  0
    8.8511   -2.8749   -0.8086 H   0  0  0  0  0  0  0  0  0  0  0  0
  1  3  2  0  0  0  0
  2  4  2  0  0  0  0
  2  1  1  0  0  0  0
  3  5  1  0  0  0  0
  3 18  1  0  0  0  0
  4 11  1  0  0  0  0
  5 20  1  0  0  0  0
  6 12  1  0  0  0  0
  7 22  1  0  0  0  0
  8  6  2  0  0  0  0
  8 13  1  0  0  0  0
  9  7  1  0  0  0  0
  9 24  1  0  0  0  0
 10 25  1  0  0  0  0
 11 10  1  0  0  0  0
 11  5  2  0  0  0  0
 12 14  1  0  0  0  0
 12  7  2  0  0  0  0
 13  9  2  0  0  0  0
 14 10  1  0  0  0  0
 15 13  1  0  0  0  0
 16  1  1  0  0  0  0
 17  2  1  0  0  0  0
 19  4  1  0  0  0  0
 21  6  1  0  0  0  0
 23  8  1  0  0  0  0
 26 10  1  0  0  0  0
 27 14  1  0  0  0  0
 28 15  1  0  0  0  0
M  END
>  <HBA>
2

>  <HBD>
2

>  <TPSA>
32.26

>  <cid>
7637

>  <dipole>
2.05

>  <excitation_energy_1>
4.015

>  <excitation_energy_2>
4.192

>  <excitation_energy_3>
4.255

>  <excitation_energy_4>
4.424

>  <homo_energy>
-4.895

>  <homo_lumo_gap>
4.735

>  <logP>
3.077

>  <lumo_energy>
-0.161

>  <melting_point>
109.24

>  <molecular_refractivity>
62.26

>  <oscillator_strength_1>
0.0221

>  <oscillator_strength_2>
0.0089

>  <oscillator_strength_3>
0.0409

>  <oscillator_strength_4>
0.0013

>  <open_babel_can_smiles>
Oc1ccc(cc1)NCc1ccccc1

>  <mulliken_charges>
28
1   -0.127849
2   -0.129137
3   -0.131129
4   -0.184096
5   -0.164283
6   -0.191591
7   -0.186733
8   -0.198335
9   -0.171378
10   -0.183009
11   0.118816
12   0.348312
13   0.344347
14   -0.664465
15   -0.653122
16   0.130303
17   0.130754
18   0.131558
19   0.12758
20   0.143177
21   0.119064
22   0.127743
23   0.114656
24   0.135549
25   0.16198
26   0.136553
27   0.311912
28   0.402824

>  <lowdin_charges>
28
1   -0.154984
2   -0.1571
3   -0.155836
4   -0.167738
5   -0.160306
6   -0.1868
7   -0.194796
8   -0.203889
9   -0.178305
10   -0.191312
11   -0.016428
12   0.040761
13   0.082197
14   -0.309559
15   -0.392659
16   0.155977
17   0.159551
18   0.159481
19   0.157292
20   0.166019
21   0.155043
22   0.15975
23   0.152206
24   0.166866
25   0.153277
26   0.134141
27   0.272394
28   0.354759

$$$$

