PCCDB-ID:  17754
public computational chemistry database (PCCDB) project, http://pccdb.org

 21 21  0  0  0  0  0  0  0  0999 V2000
    0.9221    0.0345   -0.1511 C   0  0  0  0  0  0  0  0  0  0  0  0
    2.1278    0.1050   -0.0508 C   0  0  0  0  0  0  0  0  0  0  0  0
    5.6958    2.5200    2.7749 C   0  0  0  0  0  0  0  0  0  0  0  0
    6.2788    1.2538    2.1304 C   0  0  0  0  0  0  0  0  0  0  0  0
    4.1615    2.5177    2.7187 C   0  0  0  0  0  0  0  0  0  0  0  0
    3.5472    0.1432    0.0462 C   0  0  0  0  0  0  0  0  0  0  0  0
    5.7727    1.0770    0.6823 C   0  0  0  0  0  0  0  0  0  0  0  0
    3.6473    2.3432    1.2726 C   0  0  0  0  0  0  0  0  0  0  0  0
    4.2654    1.1331    0.6171 C   0  0  0  0  0  0  0  0  0  0  0  0
   -0.1390   -0.0156   -0.2386 H   0  0  0  0  0  0  0  0  0  0  0  0
    6.0784    3.4061    2.2463 H   0  0  0  0  0  0  0  0  0  0  0  0
    6.0382    2.6068    3.8139 H   0  0  0  0  0  0  0  0  0  0  0  0
    5.9846    0.3752    2.7211 H   0  0  0  0  0  0  0  0  0  0  0  0
    7.3755    1.2876    2.1372 H   0  0  0  0  0  0  0  0  0  0  0  0
    3.7597    3.4476    3.1400 H   0  0  0  0  0  0  0  0  0  0  0  0
    3.7755    1.6967    3.3383 H   0  0  0  0  0  0  0  0  0  0  0  0
    4.0774   -0.7033   -0.3910 H   0  0  0  0  0  0  0  0  0  0  0  0
    6.1438    0.1379    0.2555 H   0  0  0  0  0  0  0  0  0  0  0  0
    6.1878    1.8926    0.0683 H   0  0  0  0  0  0  0  0  0  0  0  0
    3.9254    3.2394    0.6949 H   0  0  0  0  0  0  0  0  0  0  0  0
    2.5556    2.2758    1.2534 H   0  0  0  0  0  0  0  0  0  0  0  0
  1  2  3  0  0  0  0
  2  6  1  0  0  0  0
  3 12  1  0  0  0  0
  4 14  1  0  0  0  0
  4 13  1  0  0  0  0
  4  3  1  0  0  0  0
  5  3  1  0  0  0  0
  5 15  1  0  0  0  0
  5 16  1  0  0  0  0
  6  9  2  0  0  0  0
  7  4  1  0  0  0  0
  8  5  1  0  0  0  0
  9  7  1  0  0  0  0
  9  8  1  0  0  0  0
 10  1  1  0  0  0  0
 11  3  1  0  0  0  0
 17  6  1  0  0  0  0
 18  7  1  0  0  0  0
 19  7  1  0  0  0  0
 20  8  1  0  0  0  0
 21  8  1  0  0  0  0
M  END
>  <HBA>
0

>  <HBD>
0

>  <TPSA>
0.0

>  <cid>
17754

>  <dipole>
1.22

>  <excitation_energy_1>
5.187

>  <excitation_energy_2>
5.361

>  <excitation_energy_3>
5.538

>  <excitation_energy_4>
5.839

>  <homo_energy>
-5.976

>  <homo_lumo_gap>
5.606

>  <logP>
2.51

>  <lumo_energy>
-0.37

>  <melting_point>
24.58

>  <molecular_refractivity>
40.95

>  <oscillator_strength_1>
0.3999

>  <oscillator_strength_2>
0.0001

>  <oscillator_strength_3>
0.0176

>  <oscillator_strength_4>
0.0314

>  <open_babel_can_smiles>
C#CC=C1CCCCC1

>  <mulliken_charges>
21
1   -0.541875
2   0.374129
3   -0.259674
4   -0.258357
5   -0.259502
6   -0.343395
7   -0.328054
8   -0.335904
9   0.216918
10   0.189765
11   0.129067
12   0.135421
13   0.138276
14   0.134665
15   0.135058
16   0.140102
17   0.147115
18   0.141767
19   0.143888
20   0.142394
21   0.158196

>  <lowdin_charges>
21
1   -0.258334
2   -0.032118
3   -0.278928
4   -0.273842
5   -0.275756
6   -0.192741
7   -0.27586
8   -0.277511
9   0.022901
10   0.202875
11   0.138328
12   0.145156
13   0.1434
14   0.143443
15   0.146338
16   0.144702
17   0.167337
18   0.150082
19   0.15007
20   0.150079
21   0.16038

$$$$

