PCCDB-ID:  118
public computational chemistry database (PCCDB) project, http://pccdb.org

 15 14  0  0  0  0  0  0  0  0999 V2000
    1.2305   -0.1432    0.0102 C   0  0  0  0  0  0  0  0  0  0  0  0
    0.7269   -0.6782    1.3658 C   0  0  0  0  0  0  0  0  0  0  0  0
    2.7605   -0.1056   -0.1218 C   0  0  0  0  0  0  0  0  0  0  0  0
    0.8108   -2.1807    1.4961 C   0  0  0  0  0  0  0  0  0  0  0  0
    3.3491    0.7506    0.9144 N   0  0  0  0  0  0  0  0  0  0  0  0
   -0.0374   -2.8753    2.0134 O   0  0  0  0  0  0  0  0  0  0  0  0
    0.8431    0.8759   -0.1251 H   0  0  0  0  0  0  0  0  0  0  0  0
    0.8149   -0.7352   -0.8164 H   0  0  0  0  0  0  0  0  0  0  0  0
   -0.3101   -0.3856    1.5602 H   0  0  0  0  0  0  0  0  0  0  0  0
    1.3548   -0.2373    2.1543 H   0  0  0  0  0  0  0  0  0  0  0  0
    3.0150    0.1984   -1.1526 H   0  0  0  0  0  0  0  0  0  0  0  0
    3.1730   -1.1133    0.0125 H   0  0  0  0  0  0  0  0  0  0  0  0
    1.7346   -2.6473    1.0805 H   0  0  0  0  0  0  0  0  0  0  0  0
    3.1266    1.7267    0.7218 H   0  0  0  0  0  0  0  0  0  0  0  0
    4.3646    0.6811    0.8915 H   0  0  0  0  0  0  0  0  0  0  0  0
  1  2  1  0  0  0  0
  2  4  1  0  0  0  0
  2  9  1  0  0  0  0
  2 10  1  0  0  0  0
  3  1  1  0  0  0  0
  3 12  1  0  0  0  0
  3  5  1  0  0  0  0
  4  6  2  0  0  0  0
  7  1  1  0  0  0  0
  8  1  1  0  0  0  0
 11  3  1  0  0  0  0
 13  4  1  0  0  0  0
 14  5  1  0  0  0  0
 15  5  1  0  0  0  0
M  END
>  <HBA>
2

>  <HBD>
1

>  <TPSA>
43.09

>  <cid>
118

>  <dipole>
4.3

>  <excitation_energy_1>
4.209

>  <excitation_energy_2>
5.4

>  <excitation_energy_3>
5.775

>  <excitation_energy_4>
6.192

>  <homo_energy>
-6.588

>  <homo_lumo_gap>
6.196

>  <logP>
0.625

>  <lumo_energy>
-0.392

>  <melting_point>
60.74

>  <molecular_refractivity>
24.25

>  <oscillator_strength_1>
0.0001

>  <oscillator_strength_2>
0.016

>  <oscillator_strength_3>
0.0051

>  <oscillator_strength_4>
0.0034

>  <open_babel_can_smiles>
NCCCC=O

>  <mulliken_charges>
15
1   -0.275439
2   -0.335795
3   -0.145348
4   0.258831
5   -0.71392
6   -0.392562
7   0.140929
8   0.143524
9   0.160073
10   0.196655
11   0.123007
12   0.145818
13   0.094841
14   0.296495
15   0.302893

>  <lowdin_charges>
15
1   -0.28031
2   -0.316442
3   -0.206348
4   0.056379
5   -0.554092
6   -0.223459
7   0.147071
8   0.148858
9   0.161448
10   0.183607
11   0.123442
12   0.140745
13   0.109946
14   0.252393
15   0.256762

$$$$

