PCCDB-ID:  13414
public computational chemistry database (PCCDB) project, http://pccdb.org

 23 24  0  0  0  0  0  0  0  0999 V2000
    0.8831    0.0225   -0.0223 C   0  0  0  0  0  0  0  0  0  0  0  0
    8.7657   -1.1055   -0.2829 C   0  0  0  0  0  0  0  0  0  0  0  0
    3.1448    1.1725   -0.1072 C   0  0  0  0  0  0  0  0  0  0  0  0
    6.6030   -2.4393   -0.2033 C   0  0  0  0  0  0  0  0  0  0  0  0
    5.2326   -2.4914   -0.1570 C   0  0  0  0  0  0  0  0  0  0  0  0
    4.5192    1.1626   -0.1537 C   0  0  0  0  0  0  0  0  0  0  0  0
    3.0710   -1.2360   -0.0905 C   0  0  0  0  0  0  0  0  0  0  0  0
    2.3907   -0.0350   -0.0747 C   0  0  0  0  0  0  0  0  0  0  0  0
    7.2589   -1.1731   -0.2318 C   0  0  0  0  0  0  0  0  0  0  0  0
    4.4882   -1.2837   -0.1386 C   0  0  0  0  0  0  0  0  0  0  0  0
    5.2322   -0.0652   -0.1703 C   0  0  0  0  0  0  0  0  0  0  0  0
    6.5968   -0.0299   -0.2161 N   0  0  0  0  0  0  0  0  0  0  0  0
    0.4734    0.5501   -0.8931 H   0  0  0  0  0  0  0  0  0  0  0  0
    0.5352    0.5604    0.8688 H   0  0  0  0  0  0  0  0  0  0  0  0
    0.4438   -0.9796   -0.0010 H   0  0  0  0  0  0  0  0  0  0  0  0
    9.1551   -1.6058   -1.1788 H   0  0  0  0  0  0  0  0  0  0  0  0
    9.2153   -1.6048    0.5850 H   0  0  0  0  0  0  0  0  0  0  0  0
    9.0877   -0.0622   -0.2947 H   0  0  0  0  0  0  0  0  0  0  0  0
    2.6134    2.1218   -0.0954 H   0  0  0  0  0  0  0  0  0  0  0  0
    7.1959   -3.3499   -0.2176 H   0  0  0  0  0  0  0  0  0  0  0  0
    4.7086   -3.4447   -0.1344 H   0  0  0  0  0  0  0  0  0  0  0  0
    5.0962    2.0820   -0.1786 H   0  0  0  0  0  0  0  0  0  0  0  0
    2.5180   -2.1735   -0.0661 H   0  0  0  0  0  0  0  0  0  0  0  0
  1 15  1  0  0  0  0
  1 14  1  0  0  0  0
  2  9  1  0  0  0  0
  2 17  1  0  0  0  0
  3 19  1  0  0  0  0
  3  8  2  0  0  0  0
  4  5  2  0  0  0  0
  5 10  1  0  0  0  0
  5 21  1  0  0  0  0
  6  3  1  0  0  0  0
  7  8  1  0  0  0  0
  7 23  1  0  0  0  0
  8  1  1  0  0  0  0
  9 12  2  0  0  0  0
  9  4  1  0  0  0  0
 10  7  2  0  0  0  0
 11  6  2  0  0  0  0
 11 10  1  0  0  0  0
 12 11  1  0  0  0  0
 13  1  1  0  0  0  0
 16  2  1  0  0  0  0
 18  2  1  0  0  0  0
 20  4  1  0  0  0  0
 22  6  1  0  0  0  0
M  END
>  <HBA>
1

>  <HBD>
0

>  <TPSA>
12.89

>  <cid>
13414

>  <dipole>
1.81

>  <excitation_energy_1>
4.308

>  <excitation_energy_2>
4.383

>  <excitation_energy_3>
4.513

>  <excitation_energy_4>
5.179

>  <homo_energy>
-6.063

>  <homo_lumo_gap>
4.912

>  <logP>
2.852

>  <lumo_energy>
-1.151

>  <melting_point>
72.83

>  <molecular_refractivity>
51.67

>  <oscillator_strength_1>
0.0349

>  <oscillator_strength_2>
0.0013

>  <oscillator_strength_3>
0.0201

>  <oscillator_strength_4>
0.0001

>  <open_babel_can_smiles>
Cc1ccc2c(c1)ccc(n2)C

>  <mulliken_charges>
23
1   -0.531928
2   -0.522687
3   -0.181775
4   -0.178171
5   -0.148971
6   -0.143719
7   -0.267965
8   0.181823
9   0.315067
10   0.166251
11   0.233579
12   -0.555241
13   0.163233
14   0.163284
15   0.156218
16   0.159558
17   0.159367
18   0.176831
19   0.125884
20   0.129699
21   0.136809
22   0.140639
23   0.122216

>  <lowdin_charges>
23
1   -0.442123
2   -0.449828
3   -0.160425
4   -0.187063
5   -0.12909
6   -0.151455
7   -0.172945
8   0.001095
9   0.057932
10   -0.017097
11   0.039033
12   -0.162944
13   0.161773
14   0.161618
15   0.156748
16   0.161573
17   0.161667
18   0.16974
19   0.15727
20   0.161421
21   0.160628
22   0.168394
23   0.154078

$$$$

