PCCDB-ID:  65700
public computational chemistry database (PCCDB) project, http://pccdb.org

 36 38  0  0  1  0  0  0  0  0999 V2000
    0.6747   -1.2517    0.8523 C   0  0  0  0  0  0  0  0  0  0  0  0
    5.3214   -1.9821   -3.5713 C   0  0  0  0  0  0  0  0  0  0  0  0
    3.5989    2.5225   -2.2397 C   0  0  0  0  0  0  0  0  0  0  0  0
    2.4223   -4.9428   -0.7284 C   0  0  0  0  0  0  0  0  0  0  0  0
    3.6511    1.8827   -3.4778 C   0  0  0  0  0  0  0  0  0  0  0  0
    2.9304   -4.9915   -2.0220 C   0  0  0  0  0  0  0  0  0  0  0  0
    3.8024    1.7782   -1.0778 C   0  0  0  0  0  0  0  0  0  0  0  0
    2.5344   -3.7489   -0.0212 C   0  0  0  0  0  0  0  0  0  0  0  0
    3.8979    0.5124   -3.5444 C   0  0  0  0  0  0  0  0  0  0  0  0
    3.5506   -3.8713   -2.5662 C   0  0  0  0  0  0  0  0  0  0  0  0
    4.2932   -0.3959    0.1277 C   0  0  0  0  0  0  0  0  0  0  0  0
    4.0775    0.4074   -1.1258 C   0  0  0  0  0  0  0  0  0  0  0  0
    3.1329   -2.5916   -0.5430 C   0  0  0  0  0  0  0  0  0  0  0  0
    3.1231   -1.3671    0.3771 C   0  0  2  0  0  0  0  0  0  0  0  0
    4.1103   -0.2375   -2.3758 C   0  0  0  0  0  0  0  0  0  0  0  0
    3.6894   -2.6607   -1.8524 C   0  0  0  0  0  0  0  0  0  0  0  0
    1.8775   -0.5794    0.3790 N   0  0  0  0  0  0  0  0  0  0  0  0
    4.4384   -1.6210   -2.4653 N   0  0  0  0  0  0  0  0  0  0  0  0
    0.3670   -2.1357    0.2689 H   0  0  0  0  0  0  0  0  0  0  0  0
   -0.1525   -0.5332    0.8455 H   0  0  0  0  0  0  0  0  0  0  0  0
    0.8222   -1.5734    1.8912 H   0  0  0  0  0  0  0  0  0  0  0  0
    6.0302   -1.1658   -3.7278 H   0  0  0  0  0  0  0  0  0  0  0  0
    4.8022   -2.1706   -4.5245 H   0  0  0  0  0  0  0  0  0  0  0  0
    5.8826   -2.8837   -3.3089 H   0  0  0  0  0  0  0  0  0  0  0  0
    3.4027    3.5892   -2.1777 H   0  0  0  0  0  0  0  0  0  0  0  0
    1.9554   -5.8118   -0.2740 H   0  0  0  0  0  0  0  0  0  0  0  0
    3.4879    2.4435   -4.3943 H   0  0  0  0  0  0  0  0  0  0  0  0
    2.8519   -5.8979   -2.6170 H   0  0  0  0  0  0  0  0  0  0  0  0
    3.7637    2.2655   -0.1070 H   0  0  0  0  0  0  0  0  0  0  0  0
    2.1612   -3.7072    0.9992 H   0  0  0  0  0  0  0  0  0  0  0  0
    3.9156    0.0180   -4.5105 H   0  0  0  0  0  0  0  0  0  0  0  0
    3.9254   -3.9390   -3.5798 H   0  0  0  0  0  0  0  0  0  0  0  0
    4.3686    0.2764    0.9875 H   0  0  0  0  0  0  0  0  0  0  0  0
    5.2269   -0.9684    0.0553 H   0  0  0  0  0  0  0  0  0  0  0  0
    3.2266   -1.7515    1.4006 H   0  0  0  0  0  0  0  0  0  0  0  0
    1.7165   -0.2046   -0.5532 H   0  0  0  0  0  0  0  0  0  0  0  0
  1 21  1  0  0  0  0
  2 24  1  0  0  0  0
  2 18  1  0  0  0  0
  3 25  1  0  0  0  0
  3  7  2  0  0  0  0
  4 26  1  0  0  0  0
  4  8  2  0  0  0  0
  5  3  1  0  0  0  0
  6  4  1  0  0  0  0
  7 29  1  0  0  0  0
  8 30  1  0  0  0  0
  9  5  2  0  0  0  0
  9 15  1  0  0  0  0
 10  6  2  0  0  0  0
 10 16  1  0  0  0  0
 11 14  1  0  0  0  0
 11 33  1  0  0  0  0
 12  7  1  0  0  0  0
 12 11  1  0  0  0  0
 13  8  1  0  0  0  0
 13 14  1  0  0  0  0
 14 17  1  0  0  0  0
 14 35  1  1  0  0  0
 15 12  2  0  0  0  0
 16 13  2  0  0  0  0
 17  1  1  0  0  0  0
 18 15  1  0  0  0  0
 18 16  1  0  0  0  0
 19  1  1  0  0  0  0
 20  1  1  0  0  0  0
 22  2  1  0  0  0  0
 23  2  1  0  0  0  0
 27  5  1  0  0  0  0
 28  6  1  0  0  0  0
 31  9  1  0  0  0  0
 32 10  1  0  0  0  0
 34 11  1  0  0  0  0
 36 17  1  0  0  0  0
M  END
>  <HBA>
1

>  <HBD>
1

>  <TPSA>
15.27

>  <cid>
65700

>  <dipole>
1.22

>  <excitation_energy_1>
4.226

>  <excitation_energy_2>
4.352

>  <excitation_energy_3>
4.465

>  <excitation_energy_4>
4.686

>  <homo_energy>
-5.127

>  <homo_lumo_gap>
5.094

>  <logP>
3.727

>  <lumo_energy>
-0.033

>  <melting_point>
106.03

>  <molecular_refractivity>
79.25

>  <oscillator_strength_1>
0.0574

>  <oscillator_strength_2>
0.1095

>  <oscillator_strength_3>
0.0803

>  <oscillator_strength_4>
0.0058

>  <open_babel_can_smiles>
CN[C@@H]1Cc2ccccc2N(c2c1cccc2)C

>  <mulliken_charges>
36
1   -0.304333
2   -0.326654
3   -0.124888
4   -0.128029
5   -0.144239
6   -0.140259
7   -0.198097
8   -0.209008
9   -0.158992
10   -0.184966
11   -0.331083
12   0.125657
13   0.159532
14   -0.072843
15   0.221538
16   0.257827
17   -0.53527
18   -0.56805
19   0.136448
20   0.146992
21   0.14199
22   0.17061
23   0.146896
24   0.1694
25   0.126675
26   0.122169
27   0.127825
28   0.124523
29   0.131739
30   0.124571
31   0.129334
32   0.126005
33   0.14519
34   0.152406
35   0.136818
36   0.302566

>  <lowdin_charges>
36
1   -0.363981
2   -0.352987
3   -0.165608
4   -0.180671
5   -0.158255
6   -0.153638
7   -0.159598
8   -0.157719
9   -0.183536
10   -0.19882
11   -0.274553
12   -0.021366
13   -0.050729
14   -0.060382
15   0.036648
16   0.050692
17   -0.356521
18   -0.108386
19   0.130753
20   0.150879
21   0.142061
22   0.16392
23   0.135848
24   0.161667
25   0.155654
26   0.1563
27   0.157653
28   0.156002
29   0.159681
30   0.153109
31   0.159907
32   0.159214
33   0.157233
34   0.157641
35   0.145698
36   0.256191

$$$$

