PCCDB-ID:  20614
public computational chemistry database (PCCDB) project, http://pccdb.org

 21 21  0  0  1  0  0  0  0  0999 V2000
    0.7560    1.2600   -0.2700 C   0  0  0  0  0  0  0  0  0  0  0  0
    1.4743   -0.0680    0.0298 C   0  0  0  0  0  0  0  0  0  0  0  0
   -0.6301    1.3365    0.3971 C   0  0  0  0  0  0  0  0  0  0  0  0
    0.5854   -1.2858   -0.2789 C   0  0  0  0  0  0  0  0  0  0  0  0
   -1.4528    0.1058   -0.0013 C   0  0  2  0  0  0  0  0  0  0  0  0
   -2.9172    0.1287    0.4582 C   0  0  0  0  0  0  0  0  0  0  0  0
   -0.7463   -1.5952    1.6489 N   0  0  0  0  0  0  0  0  0  0  0  0
   -0.7231   -1.1260    0.3726 N   0  0  0  0  0  0  0  0  0  0  0  0
   -3.4751    1.1393    0.7987 O   0  0  0  0  0  0  0  0  0  0  0  0
   -3.6000   -1.0271    0.2737 O   0  0  0  0  0  0  0  0  0  0  0  0
   -1.6189   -1.1182    2.3588 O   0  0  0  0  0  0  0  0  0  0  0  0
    0.6360    1.3707   -1.3580 H   0  0  0  0  0  0  0  0  0  0  0  0
    1.3775    2.1002    0.0598 H   0  0  0  0  0  0  0  0  0  0  0  0
    1.7480   -0.1093    1.0923 H   0  0  0  0  0  0  0  0  0  0  0  0
    2.4051   -0.1414   -0.5455 H   0  0  0  0  0  0  0  0  0  0  0  0
   -1.1695    2.2383    0.0946 H   0  0  0  0  0  0  0  0  0  0  0  0
   -0.5433    1.3655    1.4891 H   0  0  0  0  0  0  0  0  0  0  0  0
    1.0239   -2.2116    0.1012 H   0  0  0  0  0  0  0  0  0  0  0  0
    0.4172   -1.3963   -1.3563 H   0  0  0  0  0  0  0  0  0  0  0  0
   -1.5089    0.0643   -1.0995 H   0  0  0  0  0  0  0  0  0  0  0  0
   -2.9753   -1.7505    0.0893 H   0  0  0  0  0  0  0  0  0  0  0  0
  1  2  1  0  0  0  0
  1 13  1  0  0  0  0
  1  3  1  0  0  0  0
  2 14  1  0  0  0  0
  3 17  1  0  0  0  0
  4  2  1  0  0  0  0
  4 18  1  0  0  0  0
  4  8  1  0  0  0  0
  5 20  1  6  0  0  0
  5  8  1  0  0  0  0
  5  3  1  0  0  0  0
  5  6  1  0  0  0  0
  6  9  2  0  0  0  0
  7 11  2  0  0  0  0
  8  7  1  0  0  0  0
 10  6  1  0  0  0  0
 12  1  1  0  0  0  0
 15  2  1  0  0  0  0
 16  3  1  0  0  0  0
 19  4  1  0  0  0  0
 21 10  1  0  0  0  0
M  END
>  <HBA>
5

>  <HBD>
1

>  <TPSA>
69.97

>  <cid>
20614

>  <dipole>
6.41

>  <excitation_energy_1>
3.145

>  <excitation_energy_2>
4.842

>  <excitation_energy_3>
5.401

>  <excitation_energy_4>
5.73

>  <homo_energy>
-6.751

>  <homo_lumo_gap>
4.98

>  <logP>
0.545

>  <lumo_energy>
-1.771

>  <melting_point>
94.86

>  <molecular_refractivity>
42.16

>  <oscillator_strength_1>
0.0015

>  <oscillator_strength_2>
0.0031

>  <oscillator_strength_3>
0.088

>  <oscillator_strength_4>
0.0096

>  <open_babel_can_smiles>
O=NN1CCCC[C@@H]1C(=O)O

>  <mulliken_charges>
21
1   -0.280506
2   -0.271625
3   -0.255885
4   -0.148317
5   -0.110006
6   0.645872
7   0.170931
8   -0.278931
9   -0.450073
10   -0.572488
11   -0.337361
12   0.136559
13   0.15489
14   0.160223
15   0.15115
16   0.175804
17   0.172474
18   0.183965
19   0.157815
20   0.178696
21   0.416814

>  <lowdin_charges>
21
1   -0.2793
2   -0.285796
3   -0.276765
4   -0.202822
5   -0.110453
6   0.190577
7   0.061651
8   -0.078276
9   -0.234091
10   -0.351045
11   -0.222886
12   0.139608
13   0.157612
14   0.15267
15   0.156414
16   0.171379
17   0.161142
18   0.171651
19   0.150529
20   0.167992
21   0.360209

$$$$

