PCCDB-ID:  25121
public computational chemistry database (PCCDB) project, http://pccdb.org

 25 26  0  0  1  0  0  0  0  0999 V2000
    1.2454    0.9224    0.6083 C   0  0  0  0  0  0  0  0  0  0  0  0
    3.7005    1.0865    0.1801 C   0  0  0  0  0  0  0  0  0  0  0  0
    1.1879   -2.8962    0.2177 C   0  0  0  0  0  0  0  0  0  0  0  0
    2.2187   -0.2850   -1.3954 C   0  0  0  0  0  0  0  0  0  0  0  0
    2.7610   -1.0785    1.1479 C   0  0  0  0  0  0  0  0  0  0  0  0
    2.6050   -1.7203   -1.9066 C   0  0  0  0  0  0  0  0  0  0  0  0
    3.5002   -2.2280   -0.8299 C   0  0  1  0  0  0  0  0  0  0  0  0
    2.4832    0.1382    0.1301 C   0  0  0  0  0  0  0  0  0  0  0  0
    2.5966   -2.3477    0.3388 C   0  0  2  0  0  0  0  0  0  0  0  0
    2.0954   -2.2408   -2.8710 O   0  0  0  0  0  0  0  0  0  0  0  0
    3.5794   -3.3714    0.0171 O   0  0  0  0  0  0  0  0  0  0  0  0
    1.0297    1.7640   -0.0608 H   0  0  0  0  0  0  0  0  0  0  0  0
    1.4026    1.3286    1.6147 H   0  0  0  0  0  0  0  0  0  0  0  0
    0.3535    0.2852    0.6401 H   0  0  0  0  0  0  0  0  0  0  0  0
    3.5294    1.9798   -0.4325 H   0  0  0  0  0  0  0  0  0  0  0  0
    4.6131    0.6013   -0.1871 H   0  0  0  0  0  0  0  0  0  0  0  0
    3.8937    1.4176    1.2074 H   0  0  0  0  0  0  0  0  0  0  0  0
    0.4413   -2.0979    0.1449 H   0  0  0  0  0  0  0  0  0  0  0  0
    0.9629   -3.4771    1.1204 H   0  0  0  0  0  0  0  0  0  0  0  0
    1.0885   -3.5546   -0.6485 H   0  0  0  0  0  0  0  0  0  0  0  0
    1.1491   -0.2101   -1.6221 H   0  0  0  0  0  0  0  0  0  0  0  0
    2.7077    0.4504   -2.0468 H   0  0  0  0  0  0  0  0  0  0  0  0
    2.0728   -1.0231    1.9997 H   0  0  0  0  0  0  0  0  0  0  0  0
    3.7805   -1.0061    1.5398 H   0  0  0  0  0  0  0  0  0  0  0  0
    4.3428   -1.5520   -0.6719 H   0  0  0  0  0  0  0  0  0  0  0  0
  1 14  1  0  0  0  0
  1 13  1  0  0  0  0
  2 17  1  0  0  0  0
  3 19  1  0  0  0  0
  4  8  1  0  0  0  0
  5 24  1  0  0  0  0
  5 23  1  0  0  0  0
  6  4  1  0  0  0  0
  6  7  1  0  0  0  0
  7 25  1  1  0  0  0
  7 11  1  0  0  0  0
  7  9  1  0  0  0  0
  8  2  1  0  0  0  0
  8  1  1  0  0  0  0
  8  5  1  0  0  0  0
  9  3  1  6  0  0  0
  9  5  1  0  0  0  0
 10  6  2  0  0  0  0
 11  9  1  0  0  0  0
 12  1  1  0  0  0  0
 15  2  1  0  0  0  0
 16  2  1  0  0  0  0
 18  3  1  0  0  0  0
 20  3  1  0  0  0  0
 21  4  1  0  0  0  0
 22  4  1  0  0  0  0
M  END
>  <HBA>
2

>  <HBD>
0

>  <TPSA>
29.6

>  <cid>
25121

>  <dipole>
4.14

>  <excitation_energy_1>
4.445

>  <excitation_energy_2>
5.931

>  <excitation_energy_3>
5.982

>  <excitation_energy_4>
6.265

>  <homo_energy>
-6.525

>  <homo_lumo_gap>
6.172

>  <logP>
1.533

>  <lumo_energy>
-0.354

>  <melting_point>
58.75

>  <molecular_refractivity>
42.21

>  <oscillator_strength_1>
0.001

>  <oscillator_strength_2>
0.0313

>  <oscillator_strength_3>
0.0078

>  <oscillator_strength_4>
0.0092

>  <open_babel_can_smiles>
O=C1CC(C)(C)C[C@]2([C@H]1O2)C

>  <mulliken_charges>
25
1   -0.468256
2   -0.46669
3   -0.482356
4   -0.395023
5   -0.333628
6   0.429162
7   0.006059
8   0.127489
9   0.285814
10   -0.450914
11   -0.466535
12   0.149022
13   0.147657
14   0.14863
15   0.147732
16   0.148141
17   0.149324
18   0.156118
19   0.168155
20   0.186434
21   0.179339
22   0.172646
23   0.146937
24   0.161456
25   0.153287

>  <lowdin_charges>
25
1   -0.444019
2   -0.445096
3   -0.451065
4   -0.318721
5   -0.282347
6   0.146966
7   -0.074868
8   0.014223
9   0.103779
10   -0.225383
11   -0.24042
12   0.152184
13   0.149875
14   0.148702
15   0.150188
16   0.14678
17   0.150237
18   0.157207
19   0.168746
20   0.175705
21   0.171064
22   0.173389
23   0.151002
24   0.161654
25   0.160218

$$$$

