PCCDB-ID:  16969
public computational chemistry database (PCCDB) project, http://pccdb.org

 21 20  0  0  0  0  0  0  0  0999 V2000
    3.7217   -1.0197   -2.6590 C   0  0  0  0  0  0  0  0  0  0  0  0
    8.3001   -3.8735    3.8827 C   0  0  0  0  0  0  0  0  0  0  0  0
    3.5617   -0.5391   -1.5622 C   0  0  0  0  0  0  0  0  0  0  0  0
    7.9126   -3.1529    2.9943 C   0  0  0  0  0  0  0  0  0  0  0  0
    3.3796    0.0339   -0.2267 C   0  0  0  0  0  0  0  0  0  0  0  0
    7.4240   -2.2773    1.9282 C   0  0  0  0  0  0  0  0  0  0  0  0
    3.8962   -0.8754    0.9111 C   0  0  0  0  0  0  0  0  0  0  0  0
    5.9000   -2.0393    1.9878 C   0  0  0  0  0  0  0  0  0  0  0  0
    5.4078   -1.1229    0.8621 C   0  0  0  0  0  0  0  0  0  0  0  0
    3.8531   -1.4431   -3.6286 H   0  0  0  0  0  0  0  0  0  0  0  0
    8.6417   -4.5104    4.6664 H   0  0  0  0  0  0  0  0  0  0  0  0
    2.3129    0.2419   -0.0672 H   0  0  0  0  0  0  0  0  0  0  0  0
    3.8901    1.0063   -0.1756 H   0  0  0  0  0  0  0  0  0  0  0  0
    7.6872   -2.7075    0.9516 H   0  0  0  0  0  0  0  0  0  0  0  0
    7.9463   -1.3116    1.9848 H   0  0  0  0  0  0  0  0  0  0  0  0
    3.3625   -1.8336    0.8667 H   0  0  0  0  0  0  0  0  0  0  0  0
    3.6277   -0.4077    1.8677 H   0  0  0  0  0  0  0  0  0  0  0  0
    5.6452   -1.6078    2.9645 H   0  0  0  0  0  0  0  0  0  0  0  0
    5.3863   -3.0077    1.9327 H   0  0  0  0  0  0  0  0  0  0  0  0
    5.9359   -0.1591    0.9200 H   0  0  0  0  0  0  0  0  0  0  0  0
    5.6687   -1.5598   -0.1111 H   0  0  0  0  0  0  0  0  0  0  0  0
  1  3  3  0  0  0  0
  2 11  1  0  0  0  0
  3  5  1  0  0  0  0
  4  2  3  0  0  0  0
  5 13  1  0  0  0  0
  5 12  1  0  0  0  0
  5  7  1  0  0  0  0
  6 15  1  0  0  0  0
  6  8  1  0  0  0  0
  6  4  1  0  0  0  0
  7 17  1  0  0  0  0
  8 18  1  0  0  0  0
  9  7  1  0  0  0  0
  9 20  1  0  0  0  0
  9  8  1  0  0  0  0
 10  1  1  0  0  0  0
 14  6  1  0  0  0  0
 16  7  1  0  0  0  0
 19  8  1  0  0  0  0
 21  9  1  0  0  0  0
M  END
>  <HBA>
0

>  <HBD>
0

>  <TPSA>
0.0

>  <cid>
16969

>  <dipole>
0.74

>  <excitation_energy_1>
6.359

>  <excitation_energy_2>
6.501

>  <excitation_energy_3>
6.51

>  <excitation_energy_4>
6.603

>  <homo_energy>
-6.972

>  <homo_lumo_gap>
8.365

>  <logP>
2.203

>  <lumo_energy>
1.393

>  <melting_point>
6.14

>  <molecular_refractivity>
41.7

>  <oscillator_strength_1>
0.0007

>  <oscillator_strength_2>
0.0011

>  <oscillator_strength_3>
0.0209

>  <oscillator_strength_4>
0.0046

>  <open_babel_can_smiles>
C#CCCCCCC#C

>  <mulliken_charges>
21
1   -0.489087
2   -0.525325
3   0.329744
4   0.36199
5   -0.403697
6   -0.403708
7   -0.256519
8   -0.25813
9   -0.253122
10   0.185301
11   0.184462
12   0.169803
13   0.167727
14   0.168918
15   0.16677
16   0.146687
17   0.137116
18   0.144703
19   0.14761
20   0.128117
21   0.150639

>  <lowdin_charges>
21
1   -0.265685
2   -0.267752
3   -0.03949
4   -0.038314
5   -0.260644
6   -0.261454
7   -0.266715
8   -0.266244
9   -0.278187
10   0.202745
11   0.203098
12   0.167054
13   0.164483
14   0.165348
15   0.164347
16   0.148498
17   0.14465
18   0.146677
19   0.148561
20   0.138513
21   0.15051

$$$$

