PCCDB-ID:  7006
public computational chemistry database (PCCDB) project, http://pccdb.org

 16 17  0  0  0  0  0  0  0  0999 V2000
   -2.4231   -0.7184   -0.0476 C   0  0  0  0  0  0  0  0  0  0  0  0
   -2.3910    0.6969   -0.0478 C   0  0  0  0  0  0  0  0  0  0  0  0
   -1.2526   -1.4484   -0.0171 C   0  0  0  0  0  0  0  0  0  0  0  0
   -1.1892    1.3704   -0.0182 C   0  0  0  0  0  0  0  0  0  0  0  0
   -0.0086   -0.7747    0.0139 C   0  0  0  0  0  0  0  0  0  0  0  0
    0.0227    0.6404    0.0131 C   0  0  0  0  0  0  0  0  0  0  0  0
    1.2905   -1.3662    0.0457 C   0  0  0  0  0  0  0  0  0  0  0  0
    1.2051    1.3391    0.0434 N   0  0  0  0  0  0  0  0  0  0  0  0
    2.3951   -0.6536    0.0770 N   0  0  0  0  0  0  0  0  0  0  0  0
    2.3302    0.7049    0.0758 N   0  0  0  0  0  0  0  0  0  0  0  0
    1.4843   -2.6998    0.0463 O   0  0  0  0  0  0  0  0  0  0  0  0
   -3.3793   -1.2325   -0.0712 H   0  0  0  0  0  0  0  0  0  0  0  0
   -3.3252    1.2503   -0.0715 H   0  0  0  0  0  0  0  0  0  0  0  0
   -1.3069   -2.5350   -0.0165 H   0  0  0  0  0  0  0  0  0  0  0  0
   -1.1309    2.4539   -0.0169 H   0  0  0  0  0  0  0  0  0  0  0  0
    0.6317   -3.1610    0.0196 H   0  0  0  0  0  0  0  0  0  0  0  0
  1  3  1  0  0  0  0
  2  1  2  0  0  0  0
  2  4  1  0  0  0  0
  3 14  1  0  0  0  0
  3  5  2  0  0  0  0
  4 15  1  0  0  0  0
  4  6  2  0  0  0  0
  5  7  1  0  0  0  0
  6  5  1  0  0  0  0
  6  8  1  0  0  0  0
  7 11  1  0  0  0  0
  7  9  2  0  0  0  0
  8 10  2  0  0  0  0
 10  9  1  0  0  0  0
 12  1  1  0  0  0  0
 13  2  1  0  0  0  0
 16 11  1  0  0  0  0
M  END
>  <HBA>
3

>  <HBD>
1

>  <TPSA>
58.64

>  <cid>
7006

>  <dipole>
7.3

>  <excitation_energy_1>
3.428

>  <excitation_energy_2>
3.901

>  <excitation_energy_3>
3.989

>  <excitation_energy_4>
4.487

>  <homo_energy>
-6.689

>  <homo_lumo_gap>
4.542

>  <logP>
0.318

>  <lumo_energy>
-2.147

>  <melting_point>
161.38

>  <molecular_refractivity>
40.16

>  <oscillator_strength_1>
0.002

>  <oscillator_strength_2>
0.0007

>  <oscillator_strength_3>
0.0009

>  <oscillator_strength_4>
0.011

>  <open_babel_can_smiles>
Oc1nnnc2c1cccc2

>  <mulliken_charges>
16
1   -0.122883
2   -0.13415
3   -0.210386
4   -0.122687
5   0.130943
6   0.256525
7   0.479912
8   -0.358955
9   -0.338634
10   -0.036383
11   -0.575387
12   0.151838
13   0.154233
14   0.133625
15   0.168133
16   0.424257

>  <lowdin_charges>
16
1   -0.137143
2   -0.137738
3   -0.156995
4   -0.129874
5   -0.053215
6   0.034648
7   0.1393
8   -0.113441
9   -0.137542
10   -0.017828
11   -0.326699
12   0.169283
13   0.170762
14   0.154586
15   0.179585
16   0.36231

$$$$

