PCCDB-ID:  7919
public computational chemistry database (PCCDB) project, http://pccdb.org

 15 14  0  0  0  0  0  0  0  0999 V2000
    1.1185   -0.4772   -0.9002 C   0  0  0  0  0  0  0  0  0  0  0  0
    2.2288    1.4446   -2.1637 C   0  0  0  0  0  0  0  0  0  0  0  0
    1.9142    0.8182   -0.8137 C   0  0  0  0  0  0  0  0  0  0  0  0
    1.1796    1.9322    1.2254 C   0  0  0  0  0  0  0  0  0  0  0  0
    1.1056    1.8172   -0.0978 O   0  0  0  0  0  0  0  0  0  0  0  0
    2.1234    1.0867    2.2823 S   0  0  0  0  0  0  0  0  0  0  0  0
    0.0777    3.1938    1.8177 S   0  0  0  0  0  0  0  0  0  0  0  0
    1.7008   -1.2321   -1.4402 H   0  0  0  0  0  0  0  0  0  0  0  0
    0.1768   -0.3185   -1.4366 H   0  0  0  0  0  0  0  0  0  0  0  0
    0.8987   -0.8656    0.0979 H   0  0  0  0  0  0  0  0  0  0  0  0
    2.8616    0.7655   -2.7450 H   0  0  0  0  0  0  0  0  0  0  0  0
    2.7624    2.3919   -2.0407 H   0  0  0  0  0  0  0  0  0  0  0  0
    1.3117    1.6315   -2.7330 H   0  0  0  0  0  0  0  0  0  0  0  0
    2.8252    0.6663   -0.2294 H   0  0  0  0  0  0  0  0  0  0  0  0
   -0.4146    3.5619    0.6121 H   0  0  0  0  0  0  0  0  0  0  0  0
  1  3  1  0  0  0  0
  1 10  1  0  0  0  0
  2 12  1  0  0  0  0
  2  3  1  0  0  0  0
  3 14  1  0  0  0  0
  3  5  1  0  0  0  0
  4  7  1  0  0  0  0
  4  6  2  0  0  0  0
  5  4  1  0  0  0  0
  8  1  1  0  0  0  0
  9  1  1  0  0  0  0
 11  2  1  0  0  0  0
 13  2  1  0  0  0  0
 15  7  1  0  0  0  0
M  END
>  <HBA>
3

>  <HBD>
1

>  <TPSA>
80.12

>  <cid>
7919

>  <dipole>
3.87

>  <excitation_energy_1>
3.541

>  <excitation_energy_2>
4.881

>  <excitation_energy_3>
5.368

>  <excitation_energy_4>
5.512

>  <homo_energy>
-6.299

>  <homo_lumo_gap>
4.972

>  <logP>
1.626

>  <lumo_energy>
-1.328

>  <melting_point>
16.44

>  <molecular_refractivity>
38.15

>  <oscillator_strength_1>
0.0002

>  <oscillator_strength_2>
0.1364

>  <oscillator_strength_3>
0.009

>  <oscillator_strength_4>
0.0001

>  <open_babel_can_smiles>
CC(OC(=S)S)C

>  <mulliken_charges>
15
1   -0.453383
2   -0.452179
3   0.110007
4   0.065151
5   -0.409617
6   -0.174846
7   0.047767
8   0.156057
9   0.15566
10   0.182142
11   0.158285
12   0.165599
13   0.158515
14   0.182332
15   0.108509

>  <lowdin_charges>
15
1   -0.452227
2   -0.448786
3   0.013896
4   -0.106178
5   -0.171172
6   -0.151113
7   0.049618
8   0.163328
9   0.156762
10   0.170776
11   0.163888
12   0.162871
13   0.158122
14   0.166243
15   0.123972

$$$$

