PCCDB-ID:  59005
public computational chemistry database (PCCDB) project, http://pccdb.org

 28 29  0  0  0  0  0  0  0  0999 V2000
    3.4372   -0.4373    2.0187 C   0  0  0  0  0  0  0  0  0  0  0  0
    5.4445    2.3001    1.0184 C   0  0  0  0  0  0  0  0  0  0  0  0
    5.6635    3.6644    1.1540 C   0  0  0  0  0  0  0  0  0  0  0  0
    1.1712    5.2031   -0.5722 C   0  0  0  0  0  0  0  0  0  0  0  0
    0.1138    4.8256    0.4803 C   0  0  0  0  0  0  0  0  0  0  0  0
    3.1981    2.6663    0.1389 C   0  0  0  0  0  0  0  0  0  0  0  0
    3.3295    6.3017    0.2949 C   0  0  0  0  0  0  0  0  0  0  0  0
    2.5740    5.2056   -0.0363 C   0  0  0  0  0  0  0  0  0  0  0  0
    4.2186    1.7964    0.5200 C   0  0  0  0  0  0  0  0  0  0  0  0
    3.3915    4.0522    0.2645 C   0  0  0  0  0  0  0  0  0  0  0  0
    4.6306    4.5290    0.7751 C   0  0  0  0  0  0  0  0  0  0  0  0
   -1.2168    4.7715   -0.1346 N   0  0  0  0  0  0  0  0  0  0  0  0
    4.5626    5.9044    0.7852 N   0  0  0  0  0  0  0  0  0  0  0  0
    3.9977    0.0229    0.3321 S   0  0  0  0  0  0  0  0  0  0  0  0
    3.2714   -1.5186    2.0122 H   0  0  0  0  0  0  0  0  0  0  0  0
    2.5010    0.0677    2.2710 H   0  0  0  0  0  0  0  0  0  0  0  0
    4.1987   -0.1976    2.7657 H   0  0  0  0  0  0  0  0  0  0  0  0
    6.2273    1.5985    1.2894 H   0  0  0  0  0  0  0  0  0  0  0  0
    6.6095    4.0431    1.5326 H   0  0  0  0  0  0  0  0  0  0  0  0
    0.9313    6.1977   -0.9741 H   0  0  0  0  0  0  0  0  0  0  0  0
    1.0773    4.5014   -1.4105 H   0  0  0  0  0  0  0  0  0  0  0  0
    0.1961    5.5261    1.3312 H   0  0  0  0  0  0  0  0  0  0  0  0
    0.3403    3.8282    0.8757 H   0  0  0  0  0  0  0  0  0  0  0  0
    2.2685    2.2667   -0.2558 H   0  0  0  0  0  0  0  0  0  0  0  0
    3.0849    7.3530    0.2193 H   0  0  0  0  0  0  0  0  0  0  0  0
   -1.5027    5.7104   -0.4120 H   0  0  0  0  0  0  0  0  0  0  0  0
   -1.9027    4.4628    0.5525 H   0  0  0  0  0  0  0  0  0  0  0  0
    5.3015    6.5250    1.0761 H   0  0  0  0  0  0  0  0  0  0  0  0
  1 16  1  0  0  0  0
  1 17  1  0  0  0  0
  2  3  1  0  0  0  0
  2 18  1  0  0  0  0
  3 19  1  0  0  0  0
  4  8  1  0  0  0  0
  4  5  1  0  0  0  0
  5 23  1  0  0  0  0
  5 22  1  0  0  0  0
  6 10  2  0  0  0  0
  6  9  1  0  0  0  0
  7 13  1  0  0  0  0
  8 10  1  0  0  0  0
  8  7  2  0  0  0  0
  9  2  2  0  0  0  0
 10 11  1  0  0  0  0
 11 13  1  0  0  0  0
 11  3  2  0  0  0  0
 12  5  1  0  0  0  0
 12 27  1  0  0  0  0
 13 28  1  0  0  0  0
 14  9  1  0  0  0  0
 14  1  1  0  0  0  0
 15  1  1  0  0  0  0
 20  4  1  0  0  0  0
 21  4  1  0  0  0  0
 24  6  1  0  0  0  0
 25  7  1  0  0  0  0
 26 12  1  0  0  0  0
M  END
>  <HBA>
2

>  <HBD>
2

>  <TPSA>
67.11

>  <cid>
59005

>  <dipole>
4.99

>  <excitation_energy_1>
4.46

>  <excitation_energy_2>
4.504

>  <excitation_energy_3>
4.699

>  <excitation_energy_4>
4.764

>  <homo_energy>
-5.475

>  <homo_lumo_gap>
5.189

>  <logP>
3.091

>  <lumo_energy>
-0.286

>  <melting_point>
167.17

>  <molecular_refractivity>
62.5

>  <oscillator_strength_1>
0.0073

>  <oscillator_strength_2>
0.0425

>  <oscillator_strength_3>
0.0031

>  <oscillator_strength_4>
0.0013

>  <open_babel_can_smiles>
NCCc1c[nH]c2c1cc(SC)cc2

>  <mulliken_charges>
28
1   -0.572714
2   -0.164458
3   -0.151945
4   -0.335635
5   -0.131988
6   -0.230122
7   -0.007036
8   0.079105
9   -0.10249
10   0.089399
11   0.312998
12   -0.714342
13   -0.69025
14   0.066625
15   0.175739
16   0.178103
17   0.17695
18   0.13942
19   0.124101
20   0.128732
21   0.160905
22   0.113411
23   0.146599
24   0.148855
25   0.146182
26   0.290399
27   0.296085
28   0.327371

>  <lowdin_charges>
28
1   -0.542584
2   -0.163776
3   -0.186946
4   -0.272018
5   -0.204021
6   -0.158529
7   -0.134395
8   -0.055952
9   -0.14672
10   -0.036212
11   0.036299
12   -0.55967
13   -0.203065
14   0.116887
15   0.169298
16   0.162365
17   0.162231
18   0.165908
19   0.157157
20   0.143466
21   0.159371
22   0.118099
23   0.144463
24   0.168406
25   0.161945
26   0.249078
27   0.25612
28   0.292796

$$$$

