PCCDB-ID:  7103
public computational chemistry database (PCCDB) project, http://pccdb.org

 23 24  0  0  0  0  0  0  0  0999 V2000
   -1.4198   -0.1035    0.4544 C   0  0  0  0  0  0  0  0  0  0  0  0
   -0.8879    0.9454   -0.2978 C   0  0  0  0  0  0  0  0  0  0  0  0
   -0.5641   -1.0774    0.9723 C   0  0  0  0  0  0  0  0  0  0  0  0
    0.4845    1.0175   -0.5318 C   0  0  0  0  0  0  0  0  0  0  0  0
    0.8087   -1.0019    0.7414 C   0  0  0  0  0  0  0  0  0  0  0  0
    3.5842   -1.0304   -0.4961 C   0  0  0  0  0  0  0  0  0  0  0  0
    3.4930    1.3604   -0.2828 C   0  0  0  0  0  0  0  0  0  0  0  0
    4.9554   -0.9608   -0.7333 C   0  0  0  0  0  0  0  0  0  0  0  0
    4.8603    1.4451   -0.5188 C   0  0  0  0  0  0  0  0  0  0  0  0
    1.3598    0.0460   -0.0162 C   0  0  0  0  0  0  0  0  0  0  0  0
    2.8208    0.1247   -0.2658 C   0  0  0  0  0  0  0  0  0  0  0  0
    5.6002    0.2799   -0.7462 C   0  0  0  0  0  0  0  0  0  0  0  0
    6.9418    0.4166   -0.9743 O   0  0  0  0  0  0  0  0  0  0  0  0
   -2.4898   -0.1612    0.6353 H   0  0  0  0  0  0  0  0  0  0  0  0
   -1.5443    1.7062   -0.7125 H   0  0  0  0  0  0  0  0  0  0  0  0
   -0.9648   -1.8949    1.5661 H   0  0  0  0  0  0  0  0  0  0  0  0
    0.8825    1.8225   -1.1436 H   0  0  0  0  0  0  0  0  0  0  0  0
    1.4672   -1.7492    1.1757 H   0  0  0  0  0  0  0  0  0  0  0  0
    3.0952   -2.0002   -0.5180 H   0  0  0  0  0  0  0  0  0  0  0  0
    2.9368    2.2718   -0.0822 H   0  0  0  0  0  0  0  0  0  0  0  0
    5.5221   -1.8713   -0.9214 H   0  0  0  0  0  0  0  0  0  0  0  0
    5.3726    2.4021   -0.5215 H   0  0  0  0  0  0  0  0  0  0  0  0
    7.3288   -0.4624   -1.1094 H   0  0  0  0  0  0  0  0  0  0  0  0
  1 14  1  0  0  0  0
  1  3  2  0  0  0  0
  2  1  1  0  0  0  0
  3 16  1  0  0  0  0
  4  2  2  0  0  0  0
  4 10  1  0  0  0  0
  5  3  1  0  0  0  0
  5 18  1  0  0  0  0
  6 11  2  0  0  0  0
  7 11  1  0  0  0  0
  7 20  1  0  0  0  0
  8  6  1  0  0  0  0
  9  7  2  0  0  0  0
 10  5  2  0  0  0  0
 11 10  1  0  0  0  0
 12  8  2  0  0  0  0
 12  9  1  0  0  0  0
 13 12  1  0  0  0  0
 15  2  1  0  0  0  0
 17  4  1  0  0  0  0
 19  6  1  0  0  0  0
 21  8  1  0  0  0  0
 22  9  1  0  0  0  0
 23 13  1  0  0  0  0
M  END
>  <HBA>
1

>  <HBD>
1

>  <TPSA>
20.23

>  <cid>
7103

>  <dipole>
1.38

>  <excitation_energy_1>
4.656

>  <excitation_energy_2>
4.666

>  <excitation_energy_3>
4.817

>  <excitation_energy_4>
4.984

>  <homo_energy>
-5.63

>  <homo_lumo_gap>
5.14

>  <logP>
3.059

>  <lumo_energy>
-0.49

>  <melting_point>
81.56

>  <molecular_refractivity>
53.9

>  <oscillator_strength_1>
0.0142

>  <oscillator_strength_2>
0.4648

>  <oscillator_strength_3>
0.0089

>  <oscillator_strength_4>
0.0031

>  <open_babel_can_smiles>
Oc1ccc(cc1)c1ccccc1

>  <mulliken_charges>
23
1   -0.128198
2   -0.133568
3   -0.133507
4   -0.175477
5   -0.175491
6   -0.180272
7   -0.180472
8   -0.199085
9   -0.163417
10   0.090265
11   0.086081
12   0.353519
13   -0.641966
14   0.127786
15   0.128855
16   0.128363
17   0.130407
18   0.128671
19   0.134576
20   0.135138
21   0.119276
22   0.140903
23   0.407612

>  <lowdin_charges>
23
1   -0.158875
2   -0.156213
3   -0.155486
4   -0.164591
5   -0.166091
6   -0.149002
7   -0.148798
8   -0.214029
9   -0.184477
10   0.000643
11   -0.021429
12   0.104936
13   -0.378077
14   0.15537
15   0.158523
16   0.157876
17   0.159143
18   0.158785
19   0.160711
20   0.161883
21   0.154072
22   0.168036
23   0.357089

$$$$

