PCCDB-ID:  41543
public computational chemistry database (PCCDB) project, http://pccdb.org

 28 27  0  0  0  0  0  0  0  0999 V2000
    7.1890   -0.8451    2.5058 C   0  0  0  0  0  0  0  0  0  0  0  0
    4.7813    5.6696   -2.0057 C   0  0  0  0  0  0  0  0  0  0  0  0
    3.4185    4.8441   -0.0578 C   0  0  0  0  0  0  0  0  0  0  0  0
    5.4634    6.2538    0.3461 C   0  0  0  0  0  0  0  0  0  0  0  0
    7.2479   -0.2432    1.1112 C   0  0  0  0  0  0  0  0  0  0  0  0
    5.4432    2.6952   -0.1426 C   0  0  0  0  0  0  0  0  0  0  0  0
    5.7509    3.9413   -0.5094 C   0  0  0  0  0  0  0  0  0  0  0  0
    6.4097    1.5491   -0.1839 C   0  0  0  0  0  0  0  0  0  0  0  0
    4.8420    5.1555   -0.5480 C   0  0  0  0  0  0  0  0  0  0  0  0
    6.4299    0.9129    1.0862 O   0  0  0  0  0  0  0  0  0  0  0  0
    7.8137   -1.7435    2.5628 H   0  0  0  0  0  0  0  0  0  0  0  0
    6.1605   -1.1196    2.7619 H   0  0  0  0  0  0  0  0  0  0  0  0
    7.5463   -0.1252    3.2492 H   0  0  0  0  0  0  0  0  0  0  0  0
    4.1805    6.5854   -2.0684 H   0  0  0  0  0  0  0  0  0  0  0  0
    4.3326    4.9208   -2.6683 H   0  0  0  0  0  0  0  0  0  0  0  0
    5.7832    5.8997   -2.3883 H   0  0  0  0  0  0  0  0  0  0  0  0
    2.7975    5.7464   -0.0983 H   0  0  0  0  0  0  0  0  0  0  0  0
    3.4211    4.4859    0.9779 H   0  0  0  0  0  0  0  0  0  0  0  0
    2.9379    4.0804   -0.6800 H   0  0  0  0  0  0  0  0  0  0  0  0
    4.8652    7.1723    0.3024 H   0  0  0  0  0  0  0  0  0  0  0  0
    6.4815    6.5011    0.0217 H   0  0  0  0  0  0  0  0  0  0  0  0
    5.5139    5.9279    1.3911 H   0  0  0  0  0  0  0  0  0  0  0  0
    6.8996   -0.9728    0.3586 H   0  0  0  0  0  0  0  0  0  0  0  0
    8.2875    0.0184    0.8469 H   0  0  0  0  0  0  0  0  0  0  0  0
    4.4417    2.4407    0.1987 H   0  0  0  0  0  0  0  0  0  0  0  0
    6.7755    4.1425   -0.8341 H   0  0  0  0  0  0  0  0  0  0  0  0
    7.4184    1.9004   -0.4611 H   0  0  0  0  0  0  0  0  0  0  0  0
    6.1004    0.8171   -0.9539 H   0  0  0  0  0  0  0  0  0  0  0  0
  1 11  1  0  0  0  0
  1 12  1  0  0  0  0
  1 13  1  0  0  0  0
  2  9  1  0  0  0  0
  3 18  1  0  0  0  0
  4 22  1  0  0  0  0
  5  1  1  0  0  0  0
  6 25  1  0  0  0  0
  7  6  2  0  0  0  0
  8  6  1  0  0  0  0
  8 10  1  0  0  0  0
  9  7  1  0  0  0  0
  9  3  1  0  0  0  0
  9  4  1  0  0  0  0
 10  5  1  0  0  0  0
 14  2  1  0  0  0  0
 15  2  1  0  0  0  0
 16  2  1  0  0  0  0
 17  3  1  0  0  0  0
 19  3  1  0  0  0  0
 20  4  1  0  0  0  0
 21  4  1  0  0  0  0
 23  5  1  0  0  0  0
 24  5  1  0  0  0  0
 26  7  1  0  0  0  0
 27  8  1  0  0  0  0
 28  8  1  0  0  0  0
M  END
>  <HBA>
1

>  <HBD>
0

>  <TPSA>
9.23

>  <cid>
41543

>  <dipole>
0.94

>  <excitation_energy_1>
6.237

>  <excitation_energy_2>
6.278

>  <excitation_energy_3>
6.526

>  <excitation_energy_4>
6.618

>  <homo_energy>
-6.555

>  <homo_lumo_gap>
7.187

>  <logP>
2.625

>  <lumo_energy>
0.631

>  <melting_point>
-9.03

>  <molecular_refractivity>
45.73

>  <oscillator_strength_1>
0.015

>  <oscillator_strength_2>
0.0528

>  <oscillator_strength_3>
0.0267

>  <oscillator_strength_4>
0.0038

>  <open_babel_can_smiles>
CCOC/C=C/C(C)(C)C

>  <mulliken_charges>
28
1   -0.452224
2   -0.440442
3   -0.454441
4   -0.441416
5   0.000499
6   -0.105799
7   -0.100916
8   -0.056902
9   0.066677
10   -0.471232
11   0.140705
12   0.157058
13   0.158444
14   0.139389
15   0.14581
16   0.13813
17   0.138384
18   0.14878
19   0.143308
20   0.138792
21   0.138091
22   0.150216
23   0.11514
24   0.115839
25   0.133462
26   0.112324
27   0.121546
28   0.120778

>  <lowdin_charges>
28
1   -0.448582
2   -0.440322
3   -0.443448
4   -0.43718
5   -0.124586
6   -0.179073
7   -0.153503
8   -0.123883
9   0.016984
10   -0.277175
11   0.153018
12   0.155454
13   0.158023
14   0.147449
15   0.151699
16   0.14636
17   0.149404
18   0.150842
19   0.150459
20   0.147125
21   0.146083
22   0.151463
23   0.123659
24   0.121735
25   0.156987
26   0.143877
27   0.127708
28   0.12942

$$$$

