PCCDB-ID:  35029
public computational chemistry database (PCCDB) project, http://pccdb.org

 33 33  0  0  0  0  0  0  0  0999 V2000
    1.4774   -0.8806    0.1423 C   0  0  0  0  0  0  0  0  0  0  0  0
   11.4236   -1.0341   -4.9645 C   0  0  0  0  0  0  0  0  0  0  0  0
    5.4258    5.9317   -2.6554 C   0  0  0  0  0  0  0  0  0  0  0  0
    1.9781   -0.6938   -1.0781 C   0  0  0  0  0  0  0  0  0  0  0  0
   10.1444   -0.8283   -5.2750 C   0  0  0  0  0  0  0  0  0  0  0  0
    5.2833    4.4567   -2.2805 C   0  0  0  0  0  0  0  0  0  0  0  0
    3.0145    0.3358   -1.3991 C   0  0  0  0  0  0  0  0  0  0  0  0
    9.3003    0.2342   -4.6459 C   0  0  0  0  0  0  0  0  0  0  0  0
    6.2455    2.4110   -2.9315 C   0  0  0  0  0  0  0  0  0  0  0  0
    5.1041    0.4371   -2.5096 C   0  0  0  0  0  0  0  0  0  0  0  0
    7.1914    0.4081   -3.5878 C   0  0  0  0  0  0  0  0  0  0  0  0
    6.3540    3.6817   -2.8907 N   0  0  0  0  0  0  0  0  0  0  0  0
    5.1258    1.7126   -2.4015 N   0  0  0  0  0  0  0  0  0  0  0  0
    7.3008    1.6784   -3.5269 N   0  0  0  0  0  0  0  0  0  0  0  0
    6.0999   -0.3021   -3.1127 N   0  0  0  0  0  0  0  0  0  0  0  0
    4.1186   -0.3451   -2.0542 O   0  0  0  0  0  0  0  0  0  0  0  0
    8.1098   -0.4103   -4.1167 O   0  0  0  0  0  0  0  0  0  0  0  0
    0.6924   -1.6069    0.3323 H   0  0  0  0  0  0  0  0  0  0  0  0
    1.8272   -0.3071    0.9981 H   0  0  0  0  0  0  0  0  0  0  0  0
   12.0218   -1.7841   -5.4743 H   0  0  0  0  0  0  0  0  0  0  0  0
   11.9254   -0.4526   -4.1940 H   0  0  0  0  0  0  0  0  0  0  0  0
    4.6404    6.5345   -2.1831 H   0  0  0  0  0  0  0  0  0  0  0  0
    5.3544    6.0627   -3.7409 H   0  0  0  0  0  0  0  0  0  0  0  0
    6.4001    6.3179   -2.3374 H   0  0  0  0  0  0  0  0  0  0  0  0
    1.6150   -1.2822   -1.9198 H   0  0  0  0  0  0  0  0  0  0  0  0
    9.6615   -1.4252   -6.0478 H   0  0  0  0  0  0  0  0  0  0  0  0
    4.2902    4.0842   -2.5735 H   0  0  0  0  0  0  0  0  0  0  0  0
    5.3292    4.3504   -1.1847 H   0  0  0  0  0  0  0  0  0  0  0  0
    3.3870    0.8412   -0.5033 H   0  0  0  0  0  0  0  0  0  0  0  0
    2.6371    1.1029   -2.0845 H   0  0  0  0  0  0  0  0  0  0  0  0
    8.9800    0.9913   -5.3704 H   0  0  0  0  0  0  0  0  0  0  0  0
    9.8196    0.7502   -3.8332 H   0  0  0  0  0  0  0  0  0  0  0  0
    6.0710   -1.3119   -3.1381 H   0  0  0  0  0  0  0  0  0  0  0  0
  1 18  1  0  0  0  0
  1 19  1  0  0  0  0
  2 21  1  0  0  0  0
  3 24  1  0  0  0  0
  3  6  1  0  0  0  0
  3 22  1  0  0  0  0
  4  1  2  0  0  0  0
  5  2  2  0  0  0  0
  5  8  1  0  0  0  0
  6 28  1  0  0  0  0
  7  4  1  0  0  0  0
  7 29  1  0  0  0  0
  8 17  1  0  0  0  0
  8 32  1  0  0  0  0
  9 12  1  0  0  0  0
  9 13  2  0  0  0  0
 10 13  2  0  0  0  0
 10 16  1  0  0  0  0
 11 14  2  0  0  0  0
 11 15  1  0  0  0  0
 12  6  1  0  0  0  0
 14  9  2  0  0  0  0
 15 10  1  0  0  0  0
 16  7  1  0  0  0  0
 17 11  1  0  0  0  0
 20  2  1  0  0  0  0
 23  3  1  0  0  0  0
 25  4  1  0  0  0  0
 26  5  1  0  0  0  0
 27  6  1  0  0  0  0
 30  7  1  0  0  0  0
 31  8  1  0  0  0  0
 33 15  1  0  0  0  0
M  RAD  1  12   2
M  END
>  <HBA>
6

>  <HBD>
1

>  <TPSA>
69.16

>  <cid>
35029

>  <dipole>
5.23

>  <excitation_energy_1>
4.835

>  <excitation_energy_2>
4.863

>  <excitation_energy_3>
5.004

>  <excitation_energy_4>
5.022

>  <homo_energy>
-5.674

>  <homo_lumo_gap>
5.532

>  <logP>
1.506

>  <lumo_energy>
-0.142

>  <melting_point>
52.09

>  <molecular_refractivity>
65.2

>  <oscillator_strength_1>
0.0052

>  <oscillator_strength_2>
0.0016

>  <oscillator_strength_3>
0.001

>  <oscillator_strength_4>
0.0012

>  <open_babel_can_smiles>
C=CCOC1=[N]=[C](=[N]=C(N1)OCC=C)[N]CC

>  <mulliken_charges>
33
1   -0.33016
2   -0.330516
3   -0.432381
4   -0.05955
5   -0.059545
6   -0.117867
7   -0.082653
8   -0.083268
9   0.561735
10   0.777723
11   0.774499
12   -0.469495
13   -0.541764
14   -0.510628
15   -0.708931
16   -0.506757
17   -0.51149
18   0.153485
19   0.150074
20   0.151741
21   0.150073
22   0.122238
23   0.143064
24   0.147128
25   0.145509
26   0.143729
27   0.128791
28   0.128101
29   0.171243
30   0.181041
31   0.184038
32   0.173822
33   0.356972

>  <lowdin_charges>
33
1   -0.316097
2   -0.318437
3   -0.44653
4   -0.157017
5   -0.157013
6   -0.19533
7   -0.116368
8   -0.116313
9   0.1028
10   0.178685
11   0.170857
12   -0.210496
13   -0.246029
14   -0.212809
15   -0.235157
16   -0.187537
17   -0.191076
18   0.166213
19   0.16184
20   0.166062
21   0.162267
22   0.140846
23   0.146552
24   0.150563
25   0.161378
26   0.1607
27   0.132059
28   0.133917
29   0.161855
30   0.167103
31   0.168665
32   0.164073
33   0.309773

$$$$

