PCCDB-ID:  29583
public computational chemistry database (PCCDB) project, http://pccdb.org

 33 33  0  0  1  0  0  0  0  0999 V2000
    3.0651   -0.8856   -0.1268 C   0  0  0  0  0  0  0  0  0  0  0  0
    3.7407   -2.4737   -1.9519 C   0  0  0  0  0  0  0  0  0  0  0  0
    9.8619    4.4159   -2.0547 C   0  0  0  0  0  0  0  0  0  0  0  0
    9.7200    4.5094   -3.5813 C   0  0  0  0  0  0  0  0  0  0  0  0
    9.0361    3.2458   -1.4965 C   0  0  0  0  0  0  0  0  0  0  0  0
    6.7524    2.1174   -1.4759 C   0  0  0  0  0  0  0  0  0  0  0  0
    8.2358    4.5445   -3.9829 C   0  0  0  0  0  0  0  0  0  0  0  0
    5.2841    2.1869   -1.8880 C   0  0  0  0  0  0  0  0  0  0  0  0
    3.7353   -1.1370   -1.2583 C   0  0  0  0  0  0  0  0  0  0  0  0
    7.5692    3.3182   -1.9702 C   0  0  2  0  0  0  0  0  0  0  0  0
    4.5531   -0.0792   -1.9302 C   0  0  0  0  0  0  0  0  0  0  0  0
    7.4396    3.4424   -3.4312 N   0  0  0  0  0  0  0  0  0  0  0  0
    5.1820   -0.2798   -2.9537 O   0  0  0  0  0  0  0  0  0  0  0  0
    4.5210    1.1108   -1.2910 O   0  0  0  0  0  0  0  0  0  0  0  0
    2.4746   -1.6588    0.3579 H   0  0  0  0  0  0  0  0  0  0  0  0
    3.0873    0.0914    0.3422 H   0  0  0  0  0  0  0  0  0  0  0  0
    3.1085   -3.1915   -1.4213 H   0  0  0  0  0  0  0  0  0  0  0  0
    4.7574   -2.8782   -2.0148 H   0  0  0  0  0  0  0  0  0  0  0  0
    3.3823   -2.3809   -2.9831 H   0  0  0  0  0  0  0  0  0  0  0  0
    9.5103    5.3549   -1.6012 H   0  0  0  0  0  0  0  0  0  0  0  0
   10.9159    4.3097   -1.7694 H   0  0  0  0  0  0  0  0  0  0  0  0
   10.1985    3.6359   -4.0490 H   0  0  0  0  0  0  0  0  0  0  0  0
   10.2386    5.3976   -3.9663 H   0  0  0  0  0  0  0  0  0  0  0  0
    9.0786    3.2353   -0.3988 H   0  0  0  0  0  0  0  0  0  0  0  0
    9.4690    2.2929   -1.8376 H   0  0  0  0  0  0  0  0  0  0  0  0
    7.1870    1.1895   -1.8698 H   0  0  0  0  0  0  0  0  0  0  0  0
    6.8169    2.0627   -0.3818 H   0  0  0  0  0  0  0  0  0  0  0  0
    8.1251    4.5329   -5.0735 H   0  0  0  0  0  0  0  0  0  0  0  0
    7.7863    5.4841   -3.6297 H   0  0  0  0  0  0  0  0  0  0  0  0
    5.1777    2.1509   -2.9721 H   0  0  0  0  0  0  0  0  0  0  0  0
    4.8113    3.0974   -1.5101 H   0  0  0  0  0  0  0  0  0  0  0  0
    7.1273    4.2363   -1.5486 H   0  0  0  0  0  0  0  0  0  0  0  0
    7.7401    2.5652   -3.8601 H   0  0  0  0  0  0  0  0  0  0  0  0
  1 16  1  0  0  0  0
  1 15  1  0  0  0  0
  2 17  1  0  0  0  0
  2  9  1  0  0  0  0
  3 21  1  0  0  0  0
  3 20  1  0  0  0  0
  3  5  1  0  0  0  0
  4  3  1  0  0  0  0
  5 24  1  0  0  0  0
  6 27  1  0  0  0  0
  7 29  1  0  0  0  0
  7  4  1  0  0  0  0
  7 12  1  0  0  0  0
  8 31  1  0  0  0  0
  8  6  1  0  0  0  0
  8 14  1  0  0  0  0
  9  1  2  0  0  0  0
 10 32  1  1  0  0  0
 10  5  1  0  0  0  0
 10  6  1  0  0  0  0
 11 14  1  0  0  0  0
 11  9  1  0  0  0  0
 12 10  1  0  0  0  0
 13 11  2  0  0  0  0
 18  2  1  0  0  0  0
 19  2  1  0  0  0  0
 22  4  1  0  0  0  0
 23  4  1  0  0  0  0
 25  5  1  0  0  0  0
 26  6  1  0  0  0  0
 28  7  1  0  0  0  0
 30  8  1  0  0  0  0
 33 12  1  0  0  0  0
M  END
>  <HBA>
3

>  <HBD>
1

>  <TPSA>
38.33

>  <cid>
29583

>  <dipole>
1.7

>  <excitation_energy_1>
4.196

>  <excitation_energy_2>
4.782

>  <excitation_energy_3>
5.385

>  <excitation_energy_4>
5.526

>  <homo_energy>
-5.812

>  <homo_lumo_gap>
4.871

>  <logP>
1.967

>  <lumo_energy>
-0.942

>  <melting_point>
15.14

>  <molecular_refractivity>
60.4

>  <oscillator_strength_1>
0.006

>  <oscillator_strength_2>
0.0001

>  <oscillator_strength_3>
0.0122

>  <oscillator_strength_4>
0.0144

>  <open_babel_can_smiles>
CC(=C)C(=O)OCC[C@H]1CCCCN1

>  <mulliken_charges>
33
1   -0.37012
2   -0.49976
3   -0.263163
4   -0.261587
5   -0.258156
6   -0.297425
7   -0.140505
8   -0.034862
9   0.127354
10   0.027488
11   0.595645
12   -0.544479
13   -0.492323
14   -0.483227
15   0.146242
16   0.171078
17   0.14574
18   0.170566
19   0.172657
20   0.128787
21   0.134414
22   0.125896
23   0.13028
24   0.128642
25   0.124013
26   0.154552
27   0.142069
28   0.139621
29   0.136271
30   0.184408
31   0.145494
32   0.12233
33   0.292063

>  <lowdin_charges>
33
1   -0.30456
2   -0.434363
3   -0.277967
4   -0.296387
5   -0.290072
6   -0.289957
7   -0.206127
8   -0.127758
9   -0.027538
10   -0.066596
11   0.192538
12   -0.362164
13   -0.275115
14   -0.191376
15   0.163262
16   0.174474
17   0.155869
18   0.166734
19   0.16757
20   0.138153
21   0.143671
22   0.137275
23   0.145629
24   0.141822
25   0.137088
26   0.153464
27   0.148067
28   0.144151
29   0.139213
30   0.164293
31   0.151295
32   0.133595
33   0.251818

$$$$

