PCCDB-ID:  12584
public computational chemistry database (PCCDB) project, http://pccdb.org

 13 13  0  0  0  0  0  0  0  0999 V2000
   -0.6841    1.1814   -0.0046 C   0  0  0  0  0  0  0  0  0  0  0  0
   -0.6880   -1.1385    0.0206 C   0  0  0  0  0  0  0  0  0  0  0  0
    1.3254    0.0453    0.0222 C   0  0  0  0  0  0  0  0  0  0  0  0
   -1.2878    2.3057   -0.0194 N   0  0  0  0  0  0  0  0  0  0  0  0
   -1.3784   -0.0627    0.0035 N   0  0  0  0  0  0  0  0  0  0  0  0
    0.7301    1.1731    0.0051 N   0  0  0  0  0  0  0  0  0  0  0  0
    0.6882   -1.1802    0.0303 N   0  0  0  0  0  0  0  0  0  0  0  0
   -1.2391   -2.3625    0.0304 O   0  0  0  0  0  0  0  0  0  0  0  0
    2.6624   -0.0765    0.0340 O   0  0  0  0  0  0  0  0  0  0  0  0
   -2.2951    2.1256   -0.0244 H   0  0  0  0  0  0  0  0  0  0  0  0
    1.1993   -2.0521    0.0443 H   0  0  0  0  0  0  0  0  0  0  0  0
   -2.2033   -2.2199    0.0246 H   0  0  0  0  0  0  0  0  0  0  0  0
    3.0088    0.8351    0.0274 H   0  0  0  0  0  0  0  0  0  0  0  0
  1  5  2  0  0  0  0
  1  6  2  0  0  0  0
  2  7  1  0  0  0  0
  2  8  1  0  0  0  0
  3  7  1  0  0  0  0
  3  9  1  0  0  0  0
  4  1  1  0  0  0  0
  5  2  2  0  0  0  0
  6  3  2  0  0  0  0
  7 11  1  0  0  0  0
 10  4  1  0  0  0  0
 12  8  1  0  0  0  0
 13  9  1  0  0  0  0
M  RAD  1   4   2
M  END
>  <HBA>
4

>  <HBD>
3

>  <TPSA>
104.63

>  <cid>
12584

>  <dipole>
4.99

>  <excitation_energy_1>
5.002

>  <excitation_energy_2>
5.275

>  <excitation_energy_3>
5.632

>  <excitation_energy_4>
5.686

>  <homo_energy>
-6.215

>  <homo_lumo_gap>
6.014

>  <logP>
-1.378

>  <lumo_energy>
-0.201

>  <melting_point>
233.41

>  <molecular_refractivity>
29.88

>  <oscillator_strength_1>
0.0012

>  <oscillator_strength_2>
0.0005

>  <oscillator_strength_3>
0.0044

>  <oscillator_strength_4>
0.0017

>  <open_babel_can_smiles>
OC1=[N]=[C](=[N]=C(N1)O)[NH]

>  <mulliken_charges>
13
1   0.523865
2   0.718885
3   0.715498
4   -0.614028
5   -0.514887
6   -0.479383
7   -0.661173
8   -0.60311
9   -0.605791
10   0.283559
11   0.36742
12   0.43364
13   0.435508

>  <lowdin_charges>
13
1   0.109835
2   0.18077
3   0.177064
4   -0.390731
5   -0.258359
6   -0.220059
7   -0.236015
8   -0.342806
9   -0.346553
10   0.252384
11   0.317806
12   0.377373
13   0.379291

$$$$

