PCCDB-ID:  34182
public computational chemistry database (PCCDB) project, http://pccdb.org

 24 24  0  0  1  0  0  0  0  0999 V2000
    2.7242    1.4376    0.0789 C   0  0  0  0  0  0  0  0  0  0  0  0
    4.9809    0.5844    4.3936 C   0  0  0  0  0  0  0  0  0  0  0  0
    3.9000   -1.6473    3.8761 C   0  0  0  0  0  0  0  0  0  0  0  0
    2.2629   -0.9163   -0.7724 C   0  0  0  0  0  0  0  0  0  0  0  0
    2.1706    0.0534    0.4333 C   0  0  1  0  0  0  0  0  0  0  0  0
    4.1236   -0.3154    3.5450 C   0  0  0  0  0  0  0  0  0  0  0  0
    3.0930   -2.3836    2.9974 C   0  0  0  0  0  0  0  0  0  0  0  0
    2.8175   -0.5422    1.6747 C   0  0  0  0  0  0  0  0  0  0  0  0
    3.5832    0.2375    2.4408 N   0  0  0  0  0  0  0  0  0  0  0  0
    2.5526   -1.8433    1.9136 N   0  0  0  0  0  0  0  0  0  0  0  0
    1.4521   -2.0642   -0.6464 O   0  0  0  0  0  0  0  0  0  0  0  0
    2.8046   -3.6896    3.1849 O   0  0  0  0  0  0  0  0  0  0  0  0
    2.1788    1.8485   -0.7779 H   0  0  0  0  0  0  0  0  0  0  0  0
    3.7866    1.3845   -0.1854 H   0  0  0  0  0  0  0  0  0  0  0  0
    2.6337    2.1313    0.9177 H   0  0  0  0  0  0  0  0  0  0  0  0
    5.3619    0.0709    5.2809 H   0  0  0  0  0  0  0  0  0  0  0  0
    4.4054    1.4615    4.7090 H   0  0  0  0  0  0  0  0  0  0  0  0
    5.8292    0.9544    3.8070 H   0  0  0  0  0  0  0  0  0  0  0  0
    4.3330   -2.0917    4.7679 H   0  0  0  0  0  0  0  0  0  0  0  0
    3.3233   -1.1776   -0.9414 H   0  0  0  0  0  0  0  0  0  0  0  0
    1.9153   -0.3868   -1.6664 H   0  0  0  0  0  0  0  0  0  0  0  0
    1.0965    0.1442    0.6565 H   0  0  0  0  0  0  0  0  0  0  0  0
    1.6908   -2.4561    0.2160 H   0  0  0  0  0  0  0  0  0  0  0  0
    3.2454   -4.0016    3.9916 H   0  0  0  0  0  0  0  0  0  0  0  0
  1  5  1  0  0  0  0
  1 15  1  0  0  0  0
  2 17  1  0  0  0  0
  2 16  1  0  0  0  0
  3 19  1  0  0  0  0
  4 11  1  0  0  0  0
  4  5  1  0  0  0  0
  5 22  1  1  0  0  0
  5  8  1  0  0  0  0
  6  3  2  0  0  0  0
  6  2  1  0  0  0  0
  7 12  1  0  0  0  0
  7  3  1  0  0  0  0
  8 10  1  0  0  0  0
  8  9  2  0  0  0  0
  9  6  1  0  0  0  0
 10  7  2  0  0  0  0
 11 23  1  0  0  0  0
 12 24  1  0  0  0  0
 13  1  1  0  0  0  0
 14  1  1  0  0  0  0
 18  2  1  0  0  0  0
 20  4  1  0  0  0  0
 21  4  1  0  0  0  0
M  END
>  <HBA>
3

>  <HBD>
2

>  <TPSA>
65.98

>  <cid>
34182

>  <dipole>
5.62

>  <excitation_energy_1>
4.674

>  <excitation_energy_2>
4.882

>  <excitation_energy_3>
5.032

>  <excitation_energy_4>
5.239

>  <homo_energy>
-6.479

>  <homo_lumo_gap>
5.505

>  <logP>
0.174

>  <lumo_energy>
-0.974

>  <melting_point>
127.5

>  <molecular_refractivity>
45.57

>  <oscillator_strength_1>
0.003

>  <oscillator_strength_2>
0.0036

>  <oscillator_strength_3>
0.0031

>  <oscillator_strength_4>
0.0066

>  <open_babel_can_smiles>
OC[C@@H](c1nc(C)cc(n1)O)C

>  <mulliken_charges>
24
1   -0.44191
2   -0.509382
3   -0.25503
4   -0.012425
5   -0.179199
6   0.32387
7   0.534347
8   0.47139
9   -0.513606
10   -0.526518
11   -0.641796
12   -0.59079
13   0.139452
14   0.146393
15   0.161944
16   0.152679
17   0.1826
18   0.182735
19   0.134288
20   0.109652
21   0.136651
22   0.164373
23   0.413903
24   0.416381

>  <lowdin_charges>
24
1   -0.441178
2   -0.445062
3   -0.263367
4   -0.129308
5   -0.151693
6   0.093055
7   0.158793
8   0.112374
9   -0.1884
10   -0.188374
11   -0.482796
12   -0.339513
13   0.149823
14   0.149924
15   0.162147
16   0.156857
17   0.176734
18   0.177052
19   0.164396
20   0.118671
21   0.144949
22   0.162264
23   0.338451
24   0.364201

$$$$

