PCCDB-ID:  10625
public computational chemistry database (PCCDB) project, http://pccdb.org

 28 29  0  0  0  0  0  0  0  0999 V2000
    1.5644   -0.5425    1.4442 C   0  0  0  0  0  0  0  0  0  0  0  0
    3.2861    1.3265    1.5121 C   0  0  0  0  0  0  0  0  0  0  0  0
    2.9442   -0.0761   -0.5654 C   0  0  0  0  0  0  0  0  0  0  0  0
    4.0198    0.5592   -1.4130 C   0  0  0  0  0  0  0  0  0  0  0  0
    1.2381    2.7154   -5.2452 C   0  0  0  0  0  0  0  0  0  0  0  0
    4.2804   -0.0054   -3.8594 C   0  0  0  0  0  0  0  0  0  0  0  0
    2.6219    0.2384    0.7015 C   0  0  0  0  0  0  0  0  0  0  0  0
    2.7027    1.4601   -3.4379 C   0  0  0  0  0  0  0  0  0  0  0  0
    1.7318    2.3856   -3.0143 C   0  0  0  0  0  0  0  0  0  0  0  0
    2.8378    1.2205   -4.8217 C   0  0  0  0  0  0  0  0  0  0  0  0
    1.5166    2.7324   -1.6945 N   0  0  0  0  0  0  0  0  0  0  0  0
    1.0086    3.0114   -3.9493 N   0  0  0  0  0  0  0  0  0  0  0  0
    2.1001    1.8456   -5.7574 N   0  0  0  0  0  0  0  0  0  0  0  0
    3.8326    0.2908   -5.0549 N   0  0  0  0  0  0  0  0  0  0  0  0
    3.6547    0.6501   -2.8264 N   0  0  0  0  0  0  0  0  0  0  0  0
    1.9944   -1.0288    2.3303 H   0  0  0  0  0  0  0  0  0  0  0  0
    1.1041   -1.3149    0.8210 H   0  0  0  0  0  0  0  0  0  0  0  0
    0.7715    0.1228    1.8114 H   0  0  0  0  0  0  0  0  0  0  0  0
    3.9190    0.8836    2.2937 H   0  0  0  0  0  0  0  0  0  0  0  0
    2.5356    1.9356    2.0314 H   0  0  0  0  0  0  0  0  0  0  0  0
    3.9143    1.9957    0.9196 H   0  0  0  0  0  0  0  0  0  0  0  0
    2.4251   -0.9047   -1.0468 H   0  0  0  0  0  0  0  0  0  0  0  0
    4.9357   -0.0454   -1.3814 H   0  0  0  0  0  0  0  0  0  0  0  0
    4.2896    1.5570   -1.0545 H   0  0  0  0  0  0  0  0  0  0  0  0
    0.6226    3.2627   -5.9567 H   0  0  0  0  0  0  0  0  0  0  0  0
    5.0831   -0.7049   -3.6556 H   0  0  0  0  0  0  0  0  0  0  0  0
    1.6158    1.9870   -1.0138 H   0  0  0  0  0  0  0  0  0  0  0  0
    0.6747    3.2860   -1.5805 H   0  0  0  0  0  0  0  0  0  0  0  0
  1 18  1  0  0  0  0
  1 16  1  0  0  0  0
  2 20  1  0  0  0  0
  2 19  1  0  0  0  0
  3  7  2  0  0  0  0
  4 23  1  0  0  0  0
  4 24  1  0  0  0  0
  4  3  1  0  0  0  0
  5 12  2  0  0  0  0
  6 26  1  0  0  0  0
  6 15  1  0  0  0  0
  7  1  1  0  0  0  0
  7  2  1  0  0  0  0
  8  9  2  0  0  0  0
  8 15  1  0  0  0  0
  9 11  1  0  0  0  0
 10  8  1  0  0  0  0
 11 28  1  0  0  0  0
 11 27  1  0  0  0  0
 12  9  1  0  0  0  0
 13  5  1  0  0  0  0
 13 10  2  0  0  0  0
 14 10  1  0  0  0  0
 14  6  2  0  0  0  0
 15  4  1  0  0  0  0
 17  1  1  0  0  0  0
 21  2  1  0  0  0  0
 22  3  1  0  0  0  0
 25  5  1  0  0  0  0
M  END
>  <HBA>
5

>  <HBD>
1

>  <TPSA>
69.62

>  <cid>
10625

>  <dipole>
8.5

>  <excitation_energy_1>
4.728

>  <excitation_energy_2>
4.807

>  <excitation_energy_3>
4.995

>  <excitation_energy_4>
5.198

>  <homo_energy>
-5.973

>  <homo_lumo_gap>
5.407

>  <logP>
1.956

>  <lumo_energy>
-0.566

>  <melting_point>
158.05

>  <molecular_refractivity>
59.74

>  <oscillator_strength_1>
0.0355

>  <oscillator_strength_2>
0.0636

>  <oscillator_strength_3>
0.0286

>  <oscillator_strength_4>
0.0114

>  <open_babel_can_smiles>
CC(=CCn1cnc2c1c(N)ncn2)C

>  <mulliken_charges>
28
1   -0.507717
2   -0.517464
3   -0.186148
4   -0.207803
5   0.152648
6   0.213662
7   0.175038
8   0.313637
9   0.463606
10   0.383324
11   -0.786268
12   -0.496804
13   -0.471663
14   -0.472086
15   -0.5213
16   0.164316
17   0.163879
18   0.159289
19   0.170854
20   0.162965
21   0.164747
22   0.14418
23   0.17704
24   0.185066
25   0.143494
26   0.16134
27   0.332721
28   0.335447

>  <lowdin_charges>
28
1   -0.442047
2   -0.451813
3   -0.216661
4   -0.189786
5   -0.045938
6   -0.063269
7   0.002901
8   -0.056999
9   0.105364
10   0.059092
11   -0.480338
12   -0.217624
13   -0.168962
14   -0.176835
15   -0.026496
16   0.162539
17   0.162214
18   0.160101
19   0.167986
20   0.163068
21   0.162016
22   0.162659
23   0.168626
24   0.166174
25   0.158184
26   0.168515
27   0.280418
28   0.286912

$$$$

