PCCDB-ID:  8009
public computational chemistry database (PCCDB) project, http://pccdb.org

 10  9  0  0  0  0  0  0  0  0999 V2000
    0.8544   -0.0288    0.1268 C   0  0  0  0  0  0  0  0  0  0  0  0
    2.1365    0.1575   -0.1784 C   0  0  0  0  0  0  0  0  0  0  0  0
    2.8616   -0.6035   -1.2687 C   0  0  0  0  0  0  0  0  0  0  0  0
    3.4588    0.2885   -2.2730 C   0  0  0  0  0  0  0  0  0  0  0  0
    3.9318    1.0051   -3.0539 N   0  0  0  0  0  0  0  0  0  0  0  0
    0.3775    0.5256    0.9298 H   0  0  0  0  0  0  0  0  0  0  0  0
    0.2320   -0.7411   -0.4105 H   0  0  0  0  0  0  0  0  0  0  0  0
    2.7343    0.8836    0.3696 H   0  0  0  0  0  0  0  0  0  0  0  0
    2.1772   -1.2956   -1.7733 H   0  0  0  0  0  0  0  0  0  0  0  0
    3.6707   -1.2110   -0.8384 H   0  0  0  0  0  0  0  0  0  0  0  0
  1  6  1  0  0  0  0
  2  1  2  0  0  0  0
  2  8  1  0  0  0  0
  3 10  1  0  0  0  0
  3  2  1  0  0  0  0
  4  3  1  0  0  0  0
  5  4  3  0  0  0  0
  7  1  1  0  0  0  0
  9  3  1  0  0  0  0
M  END
>  <HBA>
1

>  <HBD>
0

>  <TPSA>
23.79

>  <cid>
8009

>  <dipole>
3.86

>  <excitation_energy_1>
6.835

>  <excitation_energy_2>
7.177

>  <excitation_energy_3>
7.335

>  <excitation_energy_4>
7.479

>  <homo_energy>
-7.695

>  <homo_lumo_gap>
7.489

>  <logP>
1.086

>  <lumo_energy>
-0.207

>  <melting_point>
-11.93

>  <molecular_refractivity>
20.62

>  <oscillator_strength_1>
0.0657

>  <oscillator_strength_2>
0.2152

>  <oscillator_strength_3>
0.0249

>  <oscillator_strength_4>
0.0053

>  <open_babel_can_smiles>
C=CCC#N

>  <mulliken_charges>
10
1   -0.327105
2   -0.039435
3   -0.389555
4   0.353067
5   -0.461707
6   0.157195
7   0.148162
8   0.155572
9   0.198965
10   0.204841

>  <lowdin_charges>
10
1   -0.321387
2   -0.14308
3   -0.269522
4   -0.015828
5   -0.123584
6   0.169524
7   0.161832
8   0.166553
9   0.18656
10   0.188932

$$$$

