PCCDB-ID:  34204
public computational chemistry database (PCCDB) project, http://pccdb.org

 25 24  0  0  1  0  0  0  0  0999 V2000
    3.3057   -1.5218   -1.0162 C   0  0  0  0  0  0  0  0  0  0  0  0
    1.2087   -0.1823   -0.5919 C   0  0  0  0  0  0  0  0  0  0  0  0
    6.4086    0.2916    3.1475 C   0  0  0  0  0  0  0  0  0  0  0  0
    3.0866   -0.0876    1.0963 C   0  0  0  0  0  0  0  0  0  0  0  0
    4.5849    0.0508    1.3959 C   0  0  0  0  0  0  0  0  0  0  0  0
    2.7314   -0.2385   -0.3957 C   0  0  0  0  0  0  0  0  0  0  0  0
    4.8982    0.3691    2.8682 C   0  0  2  0  0  0  0  0  0  0  0  0
    4.2959    1.6650    3.2287 N   0  0  0  0  0  0  0  0  0  0  0  0
    3.0217   -1.6096   -2.0718 H   0  0  0  0  0  0  0  0  0  0  0  0
    2.9239   -2.4103   -0.4955 H   0  0  0  0  0  0  0  0  0  0  0  0
    4.3998   -1.5509   -0.9672 H   0  0  0  0  0  0  0  0  0  0  0  0
    0.9393   -0.2479   -1.6531 H   0  0  0  0  0  0  0  0  0  0  0  0
    0.7898    0.7501   -0.1954 H   0  0  0  0  0  0  0  0  0  0  0  0
    0.7157   -1.0150   -0.0728 H   0  0  0  0  0  0  0  0  0  0  0  0
    6.8143   -0.7013    2.9159 H   0  0  0  0  0  0  0  0  0  0  0  0
    6.6248    0.5035    4.2021 H   0  0  0  0  0  0  0  0  0  0  0  0
    6.9540    1.0259    2.5394 H   0  0  0  0  0  0  0  0  0  0  0  0
    2.5760    0.7931    1.5028 H   0  0  0  0  0  0  0  0  0  0  0  0
    2.6868   -0.9544    1.6460 H   0  0  0  0  0  0  0  0  0  0  0  0
    5.0137    0.8495    0.7683 H   0  0  0  0  0  0  0  0  0  0  0  0
    5.1174   -0.8684    1.1200 H   0  0  0  0  0  0  0  0  0  0  0  0
    3.1692    0.6191   -0.9310 H   0  0  0  0  0  0  0  0  0  0  0  0
    4.3948   -0.3843    3.4915 H   0  0  0  0  0  0  0  0  0  0  0  0
    4.7836    2.4084    2.7257 H   0  0  0  0  0  0  0  0  0  0  0  0
    4.4552    1.8512    4.2186 H   0  0  0  0  0  0  0  0  0  0  0  0
  1 11  1  0  0  0  0
  1 10  1  0  0  0  0
  1  6  1  0  0  0  0
  2  6  1  0  0  0  0
  2 13  1  0  0  0  0
  2 14  1  0  0  0  0
  3 16  1  0  0  0  0
  4  5  1  0  0  0  0
  4 18  1  0  0  0  0
  4 19  1  0  0  0  0
  5  7  1  0  0  0  0
  6  4  1  0  0  0  0
  7  3  1  0  0  0  0
  7  8  1  0  0  0  0
  7 23  1  1  0  0  0
  8 25  1  0  0  0  0
  9  1  1  0  0  0  0
 12  2  1  0  0  0  0
 15  3  1  0  0  0  0
 17  3  1  0  0  0  0
 20  5  1  0  0  0  0
 21  5  1  0  0  0  0
 22  6  1  0  0  0  0
 24  8  1  0  0  0  0
M  END
>  <HBA>
1

>  <HBD>
1

>  <TPSA>
26.02

>  <cid>
34204

>  <dipole>
1.43

>  <excitation_energy_1>
5.706

>  <excitation_energy_2>
6.356

>  <excitation_energy_3>
6.421

>  <excitation_energy_4>
6.557

>  <homo_energy>
-6.248

>  <homo_lumo_gap>
8.319

>  <logP>
2.47

>  <lumo_energy>
2.071

>  <melting_point>
27.02

>  <molecular_refractivity>
38.47

>  <oscillator_strength_1>
0.0393

>  <oscillator_strength_2>
0.0051

>  <oscillator_strength_3>
0.0023

>  <oscillator_strength_4>
0.0082

>  <open_babel_can_smiles>
CC(CC[C@H](N)C)C

>  <mulliken_charges>
25
1   -0.443679
2   -0.441055
3   -0.446828
4   -0.245821
5   -0.25396
6   -0.066908
7   0.025668
8   -0.704736
9   0.13723
10   0.135723
11   0.141392
12   0.135384
13   0.140584
14   0.136665
15   0.140118
16   0.133566
17   0.133771
18   0.157857
19   0.116078
20   0.115981
21   0.130463
22   0.115761
23   0.128598
24   0.285807
25   0.29234

>  <lowdin_charges>
25
1   -0.444386
2   -0.444194
3   -0.461752
4   -0.27953
5   -0.28092
6   -0.120701
7   -0.064498
8   -0.550149
9   0.145276
10   0.144394
11   0.144641
12   0.143924
13   0.148046
14   0.145374
15   0.14851
16   0.143061
17   0.144672
18   0.155675
19   0.134913
20   0.134579
21   0.141925
22   0.13296
23   0.138317
24   0.24909
25   0.250774

$$$$

