PCCDB-ID:  18054
public computational chemistry database (PCCDB) project, http://pccdb.org

 23 23  0  0  1  0  0  0  0  0999 V2000
    0.8338    0.3097    0.3275 C   0  0  0  0  0  0  0  0  0  0  0  0
    2.3237    0.0007    0.1594 C   0  0  0  0  0  0  0  0  0  0  0  0
    2.4140    4.1923   -2.8506 C   0  0  0  0  0  0  0  0  0  0  0  0
    1.7327    3.1301   -3.4440 C   0  0  0  0  0  0  0  0  0  0  0  0
    3.2305    3.9520   -1.7421 C   0  0  0  0  0  0  0  0  0  0  0  0
    1.8685    1.8376   -2.9309 C   0  0  0  0  0  0  0  0  0  0  0  0
    3.3623    2.6599   -1.2359 C   0  0  0  0  0  0  0  0  0  0  0  0
    2.6829    1.5803   -1.8214 C   0  0  0  0  0  0  0  0  0  0  0  0
    2.8424    0.1587   -1.2822 C   0  0  1  0  0  0  0  0  0  0  0  0
    4.2223   -0.3604   -1.3419 N   0  0  0  0  0  0  0  0  0  0  0  0
    0.5213    0.1680    1.3680 H   0  0  0  0  0  0  0  0  0  0  0  0
    0.2197   -0.3518   -0.2962 H   0  0  0  0  0  0  0  0  0  0  0  0
    0.6034    1.3424    0.0446 H   0  0  0  0  0  0  0  0  0  0  0  0
    2.5357   -1.0301    0.4672 H   0  0  0  0  0  0  0  0  0  0  0  0
    2.9108    0.6501    0.8256 H   0  0  0  0  0  0  0  0  0  0  0  0
    2.3121    5.1991   -3.2468 H   0  0  0  0  0  0  0  0  0  0  0  0
    1.0956    3.3042   -4.3074 H   0  0  0  0  0  0  0  0  0  0  0  0
    3.7650    4.7736   -1.2717 H   0  0  0  0  0  0  0  0  0  0  0  0
    1.3335    1.0140   -3.3997 H   0  0  0  0  0  0  0  0  0  0  0  0
    4.0035    2.4904   -0.3730 H   0  0  0  0  0  0  0  0  0  0  0  0
    2.2407   -0.5021   -1.9214 H   0  0  0  0  0  0  0  0  0  0  0  0
    4.8194    0.1967   -0.7299 H   0  0  0  0  0  0  0  0  0  0  0  0
    4.5922   -0.2224   -2.2824 H   0  0  0  0  0  0  0  0  0  0  0  0
  1 11  1  0  0  0  0
  2  1  1  0  0  0  0
  2 14  1  0  0  0  0
  2 15  1  0  0  0  0
  3  5  2  0  0  0  0
  4  6  2  0  0  0  0
  4  3  1  0  0  0  0
  5 18  1  0  0  0  0
  5  7  1  0  0  0  0
  6  8  1  0  0  0  0
  7 20  1  0  0  0  0
  8  9  1  0  0  0  0
  8  7  2  0  0  0  0
  9 21  1  6  0  0  0
  9  2  1  0  0  0  0
 10  9  1  0  0  0  0
 10 22  1  0  0  0  0
 12  1  1  0  0  0  0
 13  1  1  0  0  0  0
 16  3  1  0  0  0  0
 17  4  1  0  0  0  0
 19  6  1  0  0  0  0
 23 10  1  0  0  0  0
M  END
>  <HBA>
1

>  <HBD>
1

>  <TPSA>
26.02

>  <cid>
18054

>  <dipole>
1.23

>  <excitation_energy_1>
5.146

>  <excitation_energy_2>
5.371

>  <excitation_energy_3>
5.65

>  <excitation_energy_4>
5.723

>  <homo_energy>
-6.142

>  <homo_lumo_gap>
6.09

>  <logP>
2.797

>  <lumo_energy>
-0.052

>  <melting_point>
60.07

>  <molecular_refractivity>
43.73

>  <oscillator_strength_1>
0.0033

>  <oscillator_strength_2>
0.0585

>  <oscillator_strength_3>
0.0244

>  <oscillator_strength_4>
0.0357

>  <open_babel_can_smiles>
CC[C@@H](c1ccccc1)N

>  <mulliken_charges>
23
1   -0.448368
2   -0.246779
3   -0.13209
4   -0.124516
5   -0.128667
6   -0.197655
7   -0.19075
8   0.178936
9   -0.067921
10   -0.704668
11   0.14331
12   0.140722
13   0.155752
14   0.152105
15   0.124446
16   0.128472
17   0.128776
18   0.128392
19   0.124767
20   0.1177
21   0.132125
22   0.290502
23   0.295409

>  <lowdin_charges>
23
1   -0.44651
2   -0.274909
3   -0.160758
4   -0.154259
5   -0.156362
6   -0.172811
7   -0.168381
8   -0.019345
9   -0.066985
10   -0.546378
11   0.150091
12   0.147732
13   0.15295
14   0.151943
15   0.138147
16   0.15649
17   0.157346
18   0.157818
19   0.155336
20   0.150057
21   0.14342
22   0.251385
23   0.253982

$$$$

