PCCDB-ID:  30873
public computational chemistry database (PCCDB) project, http://pccdb.org

 20 19  0  0  0  0  0  0  0  0999 V2000
    0.6420   -0.7160   -0.4936 C   0  0  0  0  0  0  0  0  0  0  0  0
    5.3732    1.5215   -2.6387 C   0  0  0  0  0  0  0  0  0  0  0  0
    2.8784    3.6091   -1.1495 C   0  0  0  0  0  0  0  0  0  0  0  0
    1.8867   -0.0493   -1.0033 C   0  0  0  0  0  0  0  0  0  0  0  0
    2.6304    0.8111   -0.3062 C   0  0  0  0  0  0  0  0  0  0  0  0
    3.8976    1.4697   -0.7916 C   0  0  0  0  0  0  0  0  0  0  0  0
    4.0830    1.1790   -2.1544 O   0  0  0  0  0  0  0  0  0  0  0  0
    3.9188    2.8645   -0.5241 O   0  0  0  0  0  0  0  0  0  0  0  0
   -0.2234   -0.4721   -1.1246 H   0  0  0  0  0  0  0  0  0  0  0  0
    0.4099   -0.4147    0.5336 H   0  0  0  0  0  0  0  0  0  0  0  0
    0.7430   -1.8097   -0.5134 H   0  0  0  0  0  0  0  0  0  0  0  0
    5.3968    1.2413   -3.6945 H   0  0  0  0  0  0  0  0  0  0  0  0
    6.1589    0.9681   -2.1019 H   0  0  0  0  0  0  0  0  0  0  0  0
    5.5706    2.5955   -2.5394 H   0  0  0  0  0  0  0  0  0  0  0  0
    3.0430    4.6530   -0.8713 H   0  0  0  0  0  0  0  0  0  0  0  0
    1.8856    3.2938   -0.8025 H   0  0  0  0  0  0  0  0  0  0  0  0
    2.9132    3.5132   -2.2415 H   0  0  0  0  0  0  0  0  0  0  0  0
    2.1966   -0.2955   -2.0171 H   0  0  0  0  0  0  0  0  0  0  0  0
    2.3601    1.0772    0.7158 H   0  0  0  0  0  0  0  0  0  0  0  0
    4.7598    1.1013   -0.2118 H   0  0  0  0  0  0  0  0  0  0  0  0
  1 10  1  0  0  0  0
  2 14  1  0  0  0  0
  2  7  1  0  0  0  0
  2 13  1  0  0  0  0
  3 15  1  0  0  0  0
  3 16  1  0  0  0  0
  3  8  1  0  0  0  0
  4  1  1  0  0  0  0
  4  5  2  0  0  0  0
  5 19  1  0  0  0  0
  6  8  1  0  0  0  0
  6  5  1  0  0  0  0
  6 20  1  0  0  0  0
  7  6  1  0  0  0  0
  9  1  1  0  0  0  0
 11  1  1  0  0  0  0
 12  2  1  0  0  0  0
 17  3  1  0  0  0  0
 18  4  1  0  0  0  0
M  END
>  <HBA>
2

>  <HBD>
0

>  <TPSA>
18.46

>  <cid>
30873

>  <dipole>
0.57

>  <excitation_energy_1>
6.392

>  <excitation_energy_2>
6.443

>  <excitation_energy_3>
6.691

>  <excitation_energy_4>
6.744

>  <homo_energy>
-6.724

>  <homo_lumo_gap>
7.287

>  <logP>
1.181

>  <lumo_energy>
0.563

>  <melting_point>
-34.67

>  <molecular_refractivity>
32.65

>  <oscillator_strength_1>
0.0179

>  <oscillator_strength_2>
0.0022

>  <oscillator_strength_3>
0.0337

>  <oscillator_strength_4>
0.0455

>  <open_babel_can_smiles>
C/C=C/C(OC)OC

>  <mulliken_charges>
20
1   -0.48991
2   -0.205135
3   -0.210437
4   -0.065351
5   -0.179453
6   0.344625
7   -0.475006
8   -0.47684
9   0.157307
10   0.152409
11   0.157177
12   0.156273
13   0.134531
14   0.154066
15   0.15265
16   0.141218
17   0.147308
18   0.149339
19   0.129745
20   0.125484

>  <lowdin_charges>
20
1   -0.436743
2   -0.279584
3   -0.283594
4   -0.142325
5   -0.202933
6   0.099687
7   -0.261205
8   -0.276603
9   0.158887
10   0.153239
11   0.156316
12   0.153191
13   0.136881
14   0.14322
15   0.15182
16   0.138919
17   0.139209
18   0.161754
19   0.154292
20   0.135572

$$$$

