PCCDB-ID:  46284
public computational chemistry database (PCCDB) project, http://pccdb.org

 33 34  0  0  0  0  0  0  0  0999 V2000
    5.1668   -1.3793   -0.2624 C   0  0  0  0  0  0  0  0  0  0  0  0
    2.8827   -1.0644    0.3932 C   0  0  0  0  0  0  0  0  0  0  0  0
    7.4310    6.1405    7.4942 C   0  0  0  0  0  0  0  0  0  0  0  0
    8.4770    6.9029    6.9414 C   0  0  0  0  0  0  0  0  0  0  0  0
    5.7200    1.3375    1.0636 C   0  0  0  0  0  0  0  0  0  0  0  0
    6.7879    5.1483    6.7578 C   0  0  0  0  0  0  0  0  0  0  0  0
    8.9142    6.6974    5.6330 C   0  0  0  0  0  0  0  0  0  0  0  0
    4.5857    0.3436    1.3531 C   0  0  0  0  0  0  0  0  0  0  0  0
    6.0028    2.2141    2.2853 C   0  0  0  0  0  0  0  0  0  0  0  0
    7.2112    4.9254    5.4431 C   0  0  0  0  0  0  0  0  0  0  0  0
    8.2652    5.7017    4.9048 C   0  0  0  0  0  0  0  0  0  0  0  0
    7.4851    4.2239    3.4394 C   0  0  0  0  0  0  0  0  0  0  0  0
    6.7470    4.0116    4.5008 N   0  0  0  0  0  0  0  0  0  0  0  0
    8.4195    5.2257    3.6101 N   0  0  0  0  0  0  0  0  0  0  0  0
    4.1672   -0.4114    0.1727 N   0  0  0  0  0  0  0  0  0  0  0  0
    7.3801    3.3742    1.8984 S   0  0  0  0  0  0  0  0  0  0  0  0
    4.8091   -1.8907   -1.1623 H   0  0  0  0  0  0  0  0  0  0  0  0
    5.3869   -2.1492    0.5045 H   0  0  0  0  0  0  0  0  0  0  0  0
    6.1041   -0.8774   -0.5186 H   0  0  0  0  0  0  0  0  0  0  0  0
    2.5645   -1.5669   -0.5267 H   0  0  0  0  0  0  0  0  0  0  0  0
    2.1248   -0.3165    0.6504 H   0  0  0  0  0  0  0  0  0  0  0  0
    2.9071   -1.8211    1.2028 H   0  0  0  0  0  0  0  0  0  0  0  0
    7.1205    6.3329    8.5174 H   0  0  0  0  0  0  0  0  0  0  0  0
    8.9551    7.6688    7.5456 H   0  0  0  0  0  0  0  0  0  0  0  0
    5.4305    1.9560    0.2060 H   0  0  0  0  0  0  0  0  0  0  0  0
    6.6353    0.8035    0.7821 H   0  0  0  0  0  0  0  0  0  0  0  0
    5.9810    4.5571    7.1797 H   0  0  0  0  0  0  0  0  0  0  0  0
    9.7228    7.2861    5.2089 H   0  0  0  0  0  0  0  0  0  0  0  0
    3.7132    0.9086    1.7046 H   0  0  0  0  0  0  0  0  0  0  0  0
    4.8829   -0.3271    2.1862 H   0  0  0  0  0  0  0  0  0  0  0  0
    6.2999    1.6220    3.1545 H   0  0  0  0  0  0  0  0  0  0  0  0
    5.1326    2.8114    2.5690 H   0  0  0  0  0  0  0  0  0  0  0  0
    9.0813    5.5479    2.9195 H   0  0  0  0  0  0  0  0  0  0  0  0
  1 15  1  0  0  0  0
  1 18  1  0  0  0  0
  2 21  1  0  0  0  0
  2 22  1  0  0  0  0
  3 23  1  0  0  0  0
  4  3  1  0  0  0  0
  4 24  1  0  0  0  0
  5  8  1  0  0  0  0
  5  9  1  0  0  0  0
  6 27  1  0  0  0  0
  6  3  2  0  0  0  0
  7  4  2  0  0  0  0
  8 29  1  0  0  0  0
  8 30  1  0  0  0  0
  9 32  1  0  0  0  0
  9 31  1  0  0  0  0
 10  6  1  0  0  0  0
 11 10  2  0  0  0  0
 11  7  1  0  0  0  0
 12 14  1  0  0  0  0
 12 13  2  0  0  0  0
 13 10  1  0  0  0  0
 14 11  1  0  0  0  0
 15  2  1  0  0  0  0
 15  8  1  0  0  0  0
 16  9  1  0  0  0  0
 16 12  1  0  0  0  0
 17  1  1  0  0  0  0
 19  1  1  0  0  0  0
 20  2  1  0  0  0  0
 25  5  1  0  0  0  0
 26  5  1  0  0  0  0
 28  7  1  0  0  0  0
 33 14  1  0  0  0  0
M  END
>  <HBA>
3

>  <HBD>
1

>  <TPSA>
57.22

>  <cid>
46284

>  <dipole>
1.48

>  <excitation_energy_1>
4.646

>  <excitation_energy_2>
4.731

>  <excitation_energy_3>
5.093

>  <excitation_energy_4>
5.132

>  <homo_energy>
-5.584

>  <homo_lumo_gap>
5.366

>  <logP>
2.607

>  <lumo_energy>
-0.218

>  <melting_point>
124.23

>  <molecular_refractivity>
69.94

>  <oscillator_strength_1>
0.0006

>  <oscillator_strength_2>
0.291

>  <oscillator_strength_3>
0.0036

>  <oscillator_strength_4>
0.0828

>  <open_babel_can_smiles>
CN(CCCSc1nc2c([nH]1)cccc2)C

>  <mulliken_charges>
33
1   -0.302799
2   -0.295004
3   -0.143599
4   -0.150347
5   -0.289037
6   -0.17554
7   -0.171572
8   -0.109681
9   -0.405016
10   0.230023
11   0.350127
12   0.303099
13   -0.538725
14   -0.722964
15   -0.368261
16   0.134577
17   0.150496
18   0.117925
19   0.153935
20   0.149107
21   0.150145
22   0.118518
23   0.124316
24   0.125485
25   0.164891
26   0.154335
27   0.135791
28   0.126349
29   0.139356
30   0.112586
31   0.197011
32   0.196173
33   0.3383

>  <lowdin_charges>
33
1   -0.360535
2   -0.357142
3   -0.169983
4   -0.16439
5   -0.287012
6   -0.161728
7   -0.188984
8   -0.199025
9   -0.353345
10   0.014141
11   0.022233
12   -0.039369
13   -0.221298
14   -0.215178
15   -0.182964
16   0.158843
17   0.152205
18   0.121251
19   0.151094
20   0.15074
21   0.151004
22   0.121029
23   0.155634
24   0.158195
25   0.158691
26   0.151035
27   0.165776
28   0.158649
29   0.146842
30   0.11843
31   0.172643
32   0.172095
33   0.30042

$$$$

