PCCDB-ID:  18992
public computational chemistry database (PCCDB) project, http://pccdb.org

 20 21  0  0  0  0  0  0  0  0999 V2000
    0.9695   -0.1342    0.0312 C   0  0  0  0  0  0  0  0  0  0  0  0
    4.6011    3.4962   -0.0834 C   0  0  0  0  0  0  0  0  0  0  0  0
    3.2004    3.5336   -0.0562 C   0  0  0  0  0  0  0  0  0  0  0  0
    5.2528    2.2705   -0.0832 C   0  0  0  0  0  0  0  0  0  0  0  0
    2.4547    2.3606   -0.0279 C   0  0  0  0  0  0  0  0  0  0  0  0
    3.1520   -1.2586    0.0001 C   0  0  0  0  0  0  0  0  0  0  0  0
    4.5263    1.0732   -0.0549 C   0  0  0  0  0  0  0  0  0  0  0  0
    3.1175    1.1212   -0.0271 C   0  0  0  0  0  0  0  0  0  0  0  0
    5.2363   -0.2337   -0.0596 C   0  0  0  0  0  0  0  0  0  0  0  0
    4.4350   -1.3890   -0.0274 N   0  0  0  0  0  0  0  0  0  0  0  0
    2.4269   -0.0954    0.0014 N   0  0  0  0  0  0  0  0  0  0  0  0
    6.4555   -0.3097   -0.0894 O   0  0  0  0  0  0  0  0  0  0  0  0
    0.6469   -1.1765    0.0563 H   0  0  0  0  0  0  0  0  0  0  0  0
    0.5478    0.3424   -0.8603 H   0  0  0  0  0  0  0  0  0  0  0  0
    0.5841    0.3732    0.9220 H   0  0  0  0  0  0  0  0  0  0  0  0
    5.1702    4.4209   -0.1039 H   0  0  0  0  0  0  0  0  0  0  0  0
    2.6829    4.4890   -0.0578 H   0  0  0  0  0  0  0  0  0  0  0  0
    6.3352    2.1955   -0.1048 H   0  0  0  0  0  0  0  0  0  0  0  0
    1.3720    2.4111   -0.0081 H   0  0  0  0  0  0  0  0  0  0  0  0
    2.5371   -2.1593    0.0242 H   0  0  0  0  0  0  0  0  0  0  0  0
  1 13  1  0  0  0  0
  1 15  1  0  0  0  0
  2  4  2  0  0  0  0
  2  3  1  0  0  0  0
  3  5  2  0  0  0  0
  4  7  1  0  0  0  0
  5  8  1  0  0  0  0
  5 19  1  0  0  0  0
  6 11  1  0  0  0  0
  6 20  1  0  0  0  0
  7  8  2  0  0  0  0
  8 11  1  0  0  0  0
  9  7  1  0  0  0  0
  9 10  1  0  0  0  0
 10  6  2  0  0  0  0
 11  1  1  0  0  0  0
 12  9  2  0  0  0  0
 14  1  1  0  0  0  0
 16  2  1  0  0  0  0
 17  3  1  0  0  0  0
 18  4  1  0  0  0  0
M  END
>  <HBA>
3

>  <HBD>
0

>  <TPSA>
34.89

>  <cid>
18992

>  <dipole>
7.32

>  <excitation_energy_1>
3.842

>  <excitation_energy_2>
4.378

>  <excitation_energy_3>
4.626

>  <excitation_energy_4>
4.774

>  <homo_energy>
-6.272

>  <homo_lumo_gap>
4.977

>  <logP>
0.933

>  <lumo_energy>
-1.295

>  <melting_point>
101.77

>  <molecular_refractivity>
47.27

>  <oscillator_strength_1>
0.0001

>  <oscillator_strength_2>
0.129

>  <oscillator_strength_3>
0.0005

>  <oscillator_strength_4>
0.0475

>  <open_babel_can_smiles>
Cn1cnc(=O)c2c1cccc2

>  <mulliken_charges>
20
1   -0.33233
2   -0.126681
3   -0.133652
4   -0.184801
5   -0.178009
6   0.215429
7   0.038963
8   0.32233
9   0.516234
10   -0.460752
11   -0.489796
12   -0.484471
13   0.181807
14   0.182724
15   0.182654
16   0.140634
17   0.140681
18   0.172657
19   0.137196
20   0.159182

>  <lowdin_charges>
20
1   -0.346334
2   -0.162034
3   -0.134415
4   -0.116822
5   -0.190185
6   -0.022902
7   -0.059978
8   0.050601
9   0.143628
10   -0.194299
11   -0.039335
12   -0.264353
13   0.170714
14   0.165343
15   0.165336
16   0.164354
17   0.16374
18   0.180719
19   0.162147
20   0.164073

$$$$

