PCCDB-ID:  42828
public computational chemistry database (PCCDB) project, http://pccdb.org

 21 22  0  0  0  0  0  0  0  0999 V2000
   -2.4277   -0.7460    0.0058 C   0  0  0  0  0  0  0  0  0  0  0  0
   -2.4542    0.6643   -0.0596 C   0  0  0  0  0  0  0  0  0  0  0  0
   -1.2251   -1.4172    0.0224 C   0  0  0  0  0  0  0  0  0  0  0  0
   -1.2747    1.3759   -0.0871 C   0  0  0  0  0  0  0  0  0  0  0  0
    2.4465   -0.6596   -0.0688 C   0  0  0  0  0  0  0  0  0  0  0  0
    2.4265    0.7410   -0.0735 C   0  0  0  0  0  0  0  0  0  0  0  0
    1.3225   -2.8205    0.0082 C   0  0  0  0  0  0  0  0  0  0  0  0
    1.2699   -1.3935   -0.0231 C   0  0  0  0  0  0  0  0  0  0  0  0
    0.0060   -0.7129   -0.0117 C   0  0  0  0  0  0  0  0  0  0  0  0
   -0.0173    0.7178   -0.0462 C   0  0  0  0  0  0  0  0  0  0  0  0
    1.2264    1.4429   -0.0480 C   0  0  0  0  0  0  0  0  0  0  0  0
    1.3585   -3.9848    0.0363 N   0  0  0  0  0  0  0  0  0  0  0  0
    1.2224    2.8301   -0.0783 N   0  0  0  0  0  0  0  0  0  0  0  0
   -3.3594   -1.3041    0.0311 H   0  0  0  0  0  0  0  0  0  0  0  0
   -3.4051    1.1879   -0.0982 H   0  0  0  0  0  0  0  0  0  0  0  0
   -1.2024   -2.5023    0.0563 H   0  0  0  0  0  0  0  0  0  0  0  0
   -1.3154    2.4571   -0.1774 H   0  0  0  0  0  0  0  0  0  0  0  0
    3.3990   -1.1799   -0.0833 H   0  0  0  0  0  0  0  0  0  0  0  0
    3.3658    1.2880   -0.0853 H   0  0  0  0  0  0  0  0  0  0  0  0
    2.1149    3.2642    0.1204 H   0  0  0  0  0  0  0  0  0  0  0  0
    0.4643    3.2888    0.4089 H   0  0  0  0  0  0  0  0  0  0  0  0
  1  3  2  0  0  0  0
  1 14  1  0  0  0  0
  2  1  1  0  0  0  0
  3 16  1  0  0  0  0
  4  2  2  0  0  0  0
  4 10  1  0  0  0  0
  5  8  1  0  0  0  0
  6  5  2  0  0  0  0
  6 11  1  0  0  0  0
  7 12  3  0  0  0  0
  8  9  2  0  0  0  0
  8  7  1  0  0  0  0
  9  3  1  0  0  0  0
 10  9  1  0  0  0  0
 11 10  2  0  0  0  0
 13 11  1  0  0  0  0
 13 20  1  0  0  0  0
 13 21  1  0  0  0  0
 15  2  1  0  0  0  0
 17  4  1  0  0  0  0
 18  5  1  0  0  0  0
 19  6  1  0  0  0  0
M  END
>  <HBA>
2

>  <HBD>
1

>  <TPSA>
49.81

>  <cid>
42828

>  <dipole>
6.5

>  <excitation_energy_1>
3.756

>  <excitation_energy_2>
4.183

>  <excitation_energy_3>
4.748

>  <excitation_energy_4>
4.912

>  <homo_energy>
-5.668

>  <homo_lumo_gap>
4.15

>  <logP>
2.875

>  <lumo_energy>
-1.518

>  <melting_point>
136.55

>  <molecular_refractivity>
53.07

>  <oscillator_strength_1>
0.1829

>  <oscillator_strength_2>
0.0148

>  <oscillator_strength_3>
0.0056

>  <oscillator_strength_4>
0.0347

>  <open_babel_can_smiles>
N#Cc1ccc(c2c1cccc2)N

>  <mulliken_charges>
21
1   -0.13092
2   -0.128238
3   -0.19952
4   -0.201321
5   -0.158164
6   -0.190456
7   0.212951
8   0.098065
9   0.10671
10   0.0976
11   0.271171
12   -0.501395
13   -0.791256
14   0.140554
15   0.135457
16   0.162985
17   0.12851
18   0.156325
19   0.128009
20   0.331153
21   0.331781

>  <lowdin_charges>
21
1   -0.147008
2   -0.154585
3   -0.150079
4   -0.157671
5   -0.119011
6   -0.212312
7   -0.017546
8   -0.053049
9   0.01841
10   -0.026555
11   0.077752
12   -0.140024
13   -0.471421
14   0.164204
15   0.161723
16   0.174055
17   0.154847
18   0.173725
19   0.159377
20   0.282202
21   0.282966

$$$$

