PCCDB-ID:  24858
public computational chemistry database (PCCDB) project, http://pccdb.org

 19 18  0  0  0  0  0  0  0  0999 V2000
    1.4180   -0.4514   -1.3324 C   0  0  0  0  0  0  0  0  0  0  0  0
    1.9416   -1.5737    0.8369 C   0  0  0  0  0  0  0  0  0  0  0  0
    3.2644    0.4783    0.0362 C   0  0  0  0  0  0  0  0  0  0  0  0
    2.1602   -0.5236   -0.2229 C   0  0  0  0  0  0  0  0  0  0  0  0
    5.6455    0.4933    0.6596 C   0  0  0  0  0  0  0  0  0  0  0  0
    5.4868    1.6279    1.2376 N   0  0  0  0  0  0  0  0  0  0  0  0
    6.8516   -0.2038    0.4633 N   0  0  0  0  0  0  0  0  0  0  0  0
    4.5657   -0.1888    0.1093 N   0  0  0  0  0  0  0  0  0  0  0  0
    0.6075   -1.1498   -1.5266 H   0  0  0  0  0  0  0  0  0  0  0  0
    1.5868    0.3168   -2.0834 H   0  0  0  0  0  0  0  0  0  0  0  0
    1.1548   -2.2790    0.5523 H   0  0  0  0  0  0  0  0  0  0  0  0
    1.6568   -1.1088    1.7909 H   0  0  0  0  0  0  0  0  0  0  0  0
    2.8637   -2.1349    1.0284 H   0  0  0  0  0  0  0  0  0  0  0  0
    3.1205    0.9786    0.9993 H   0  0  0  0  0  0  0  0  0  0  0  0
    3.2566    1.2659   -0.7310 H   0  0  0  0  0  0  0  0  0  0  0  0
    6.3537    1.9350    1.6822 H   0  0  0  0  0  0  0  0  0  0  0  0
    7.6216    0.1629    1.0098 H   0  0  0  0  0  0  0  0  0  0  0  0
    6.7663   -1.2085    0.5813 H   0  0  0  0  0  0  0  0  0  0  0  0
    4.8029   -0.7047   -0.7313 H   0  0  0  0  0  0  0  0  0  0  0  0
  1  4  2  0  0  0  0
  2 13  1  0  0  0  0
  2 12  1  0  0  0  0
  3  8  1  0  0  0  0
  3 14  1  0  0  0  0
  4  3  1  0  0  0  0
  4  2  1  0  0  0  0
  5  6  1  0  0  0  0
  6 16  1  0  0  0  0
  7 18  1  0  0  0  0
  7  5  2  0  0  0  0
  7 17  1  0  0  0  0
  8  5  1  0  0  0  0
  9  1  1  0  0  0  0
 10  1  1  0  0  0  0
 11  2  1  0  0  0  0
 15  3  1  0  0  0  0
 19  8  1  0  0  0  0
M  RAD  1   6   2
M  END
>  <HBA>
3

>  <HBD>
2

>  <TPSA>
64.4

>  <cid>
24858

>  <dipole>
2.85

>  <excitation_energy_1>
5.265

>  <excitation_energy_2>
5.709

>  <excitation_energy_3>
5.894

>  <excitation_energy_4>
6.028

>  <homo_energy>
-6.068

>  <homo_lumo_gap>
6.7

>  <logP>
1.236

>  <lumo_energy>
0.631

>  <melting_point>
83.28

>  <molecular_refractivity>
34.77

>  <oscillator_strength_1>
0.0022

>  <oscillator_strength_2>
0.004

>  <oscillator_strength_3>
0.0134

>  <oscillator_strength_4>
0.0412

>  <open_babel_can_smiles>
CC(=C)CNC(=[NH2])[NH]

>  <mulliken_charges>
19
1   -0.399308
2   -0.501958
3   -0.177236
4   0.207949
5   0.588939
6   -0.645425
7   -0.756267
8   -0.603364
9   0.133794
10   0.135554
11   0.148432
12   0.156205
13   0.16081
14   0.186387
15   0.14442
16   0.263972
17   0.318229
18   0.320883
19   0.317986

>  <lowdin_charges>
19
1   -0.361113
2   -0.442432
3   -0.188882
4   -0.000613
5   0.122236
6   -0.477629
7   -0.512089
8   -0.311017
9   0.155054
10   0.155579
11   0.15518
12   0.158396
13   0.159858
14   0.17324
15   0.143303
16   0.246202
17   0.275795
18   0.275042
19   0.273889

$$$$

