PCCDB-ID:  8897
public computational chemistry database (PCCDB) project, http://pccdb.org

 16 15  0  0  0  0  0  0  0  0999 V2000
    0.4962    0.1310   -1.2270 C   0  0  0  0  0  0  0  0  0  0  0  0
    2.7048    1.2076   -1.0024 C   0  0  0  0  0  0  0  0  0  0  0  0
   -0.9342    0.1021   -0.6736 C   0  0  0  0  0  0  0  0  0  0  0  0
    3.5014    2.2592   -0.2195 C   0  0  0  0  0  0  0  0  0  0  0  0
    1.4129    0.8980   -0.3666 N   0  0  0  0  0  0  0  0  0  0  0  0
   -1.7366   -0.7375   -0.9911 O   0  0  0  0  0  0  0  0  0  0  0  0
   -1.2302    1.1147    0.1660 O   0  0  0  0  0  0  0  0  0  0  0  0
    4.6930    2.3886   -0.3330 O   0  0  0  0  0  0  0  0  0  0  0  0
    2.7534    3.0507    0.5755 O   0  0  0  0  0  0  0  0  0  0  0  0
    0.4541    0.6251   -2.2056 H   0  0  0  0  0  0  0  0  0  0  0  0
    0.8114   -0.9053   -1.4011 H   0  0  0  0  0  0  0  0  0  0  0  0
    3.3513    0.3331   -1.1462 H   0  0  0  0  0  0  0  0  0  0  0  0
    2.5033    1.6281   -1.9955 H   0  0  0  0  0  0  0  0  0  0  0  0
    1.5930    0.3521    0.4776 H   0  0  0  0  0  0  0  0  0  0  0  0
   -0.4167    1.6514    0.2598 H   0  0  0  0  0  0  0  0  0  0  0  0
    1.8278    2.7427    0.4912 H   0  0  0  0  0  0  0  0  0  0  0  0
  1  3  1  0  0  0  0
  1  5  1  0  0  0  0
  2  5  1  0  0  0  0
  2  4  1  0  0  0  0
  3  7  1  0  0  0  0
  4  9  1  0  0  0  0
  5 14  1  0  0  0  0
  6  3  2  0  0  0  0
  7 15  1  0  0  0  0
  8  4  2  0  0  0  0
 10  1  1  0  0  0  0
 11  1  1  0  0  0  0
 12  2  1  0  0  0  0
 13  2  1  0  0  0  0
 16  9  1  0  0  0  0
M  END
>  <HBA>
5

>  <HBD>
3

>  <TPSA>
86.63

>  <cid>
8897

>  <dipole>
1.21

>  <excitation_energy_1>
5.552

>  <excitation_energy_2>
5.629

>  <excitation_energy_3>
6.317

>  <excitation_energy_4>
6.35

>  <homo_energy>
-7.619

>  <homo_lumo_gap>
7.154

>  <logP>
-0.864

>  <lumo_energy>
-0.465

>  <melting_point>
156.26

>  <molecular_refractivity>
27.69

>  <oscillator_strength_1>
0.0007

>  <oscillator_strength_2>
0.0008

>  <oscillator_strength_3>
0.0005

>  <oscillator_strength_4>
0.0001

>  <open_babel_can_smiles>
OC(=O)CNCC(=O)O

>  <mulliken_charges>
16
1   -0.23421
2   -0.233963
3   0.586098
4   0.585904
5   -0.648183
6   -0.437211
7   -0.56206
8   -0.437098
9   -0.561989
10   0.197676
11   0.188228
12   0.188155
13   0.197664
14   0.337988
15   0.416499
16   0.416501

>  <lowdin_charges>
16
1   -0.244504
2   -0.244812
3   0.181573
4   0.17555
5   -0.370957
6   -0.233721
7   -0.349565
8   -0.231114
9   -0.346257
10   0.17824
11   0.166702
12   0.168513
13   0.178063
14   0.273993
15   0.349625
16   0.348671

$$$$

