PCCDB-ID:  3614
public computational chemistry database (PCCDB) project, http://pccdb.org

 20 20  0  0  0  0  0  0  0  0999 V2000
    0.7267    0.2101   -0.0704 C   0  0  0  0  0  0  0  0  0  0  0  0
    5.6000   -1.1162   -0.0153 C   0  0  0  0  0  0  0  0  0  0  0  0
    6.4481   -0.7246   -1.2350 C   0  0  0  0  0  0  0  0  0  0  0  0
    3.0229   -0.8614   -0.1244 C   0  0  0  0  0  0  0  0  0  0  0  0
    2.9753    1.3007    0.2646 C   0  0  0  0  0  0  0  0  0  0  0  0
    4.2981   -0.3763    0.0523 C   0  0  0  0  0  0  0  0  0  0  0  0
    7.7095   -1.4782   -1.2368 N   0  0  0  0  0  0  0  0  0  0  0  0
    4.2512    0.9844    0.2949 N   0  0  0  0  0  0  0  0  0  0  0  0
    2.1752    0.2220    0.0132 N   0  0  0  0  0  0  0  0  0  0  0  0
    0.2950   -0.4304    0.7063 H   0  0  0  0  0  0  0  0  0  0  0  0
    0.3960   -0.1493   -1.0507 H   0  0  0  0  0  0  0  0  0  0  0  0
    0.3560    1.2281    0.0705 H   0  0  0  0  0  0  0  0  0  0  0  0
    6.1790   -0.9057    0.8957 H   0  0  0  0  0  0  0  0  0  0  0  0
    5.4251   -2.1977   -0.0381 H   0  0  0  0  0  0  0  0  0  0  0  0
    6.5716    0.3712   -1.2375 H   0  0  0  0  0  0  0  0  0  0  0  0
    5.9001   -0.9852   -2.1491 H   0  0  0  0  0  0  0  0  0  0  0  0
    2.6471   -1.8537   -0.3282 H   0  0  0  0  0  0  0  0  0  0  0  0
    2.5623    2.2900    0.4189 H   0  0  0  0  0  0  0  0  0  0  0  0
    8.2796   -1.1770   -0.4461 H   0  0  0  0  0  0  0  0  0  0  0  0
    8.2472   -1.2401   -2.0692 H   0  0  0  0  0  0  0  0  0  0  0  0
  1  9  1  0  0  0  0
  1 12  1  0  0  0  0
  1 10  1  0  0  0  0
  2  6  1  0  0  0  0
  2 13  1  0  0  0  0
  3  2  1  0  0  0  0
  4  9  1  0  0  0  0
  4  6  2  0  0  0  0
  5  8  2  0  0  0  0
  5 18  1  0  0  0  0
  6  8  1  0  0  0  0
  7  3  1  0  0  0  0
  7 19  1  0  0  0  0
  9  5  1  0  0  0  0
 11  1  1  0  0  0  0
 14  2  1  0  0  0  0
 15  3  1  0  0  0  0
 16  3  1  0  0  0  0
 17  4  1  0  0  0  0
 20  7  1  0  0  0  0
M  END
>  <HBA>
3

>  <HBD>
1

>  <TPSA>
43.84

>  <cid>
3614

>  <dipole>
3.22

>  <excitation_energy_1>
5.248

>  <excitation_energy_2>
5.561

>  <excitation_energy_3>
5.633

>  <excitation_energy_4>
5.819

>  <homo_energy>
-5.769

>  <homo_lumo_gap>
6.71

>  <logP>
0.622

>  <lumo_energy>
0.942

>  <melting_point>
79.41

>  <molecular_refractivity>
35.97

>  <oscillator_strength_1>
0.0026

>  <oscillator_strength_2>
0.0369

>  <oscillator_strength_3>
0.0604

>  <oscillator_strength_4>
0.013

>  <open_babel_can_smiles>
Cn1cc(nc1)CCN

>  <mulliken_charges>
20
1   -0.322826
2   -0.324162
3   -0.134428
4   -0.029714
5   0.197442
6   0.224695
7   -0.720061
8   -0.481604
9   -0.367278
10   0.176303
11   0.1758
12   0.173148
13   0.142187
14   0.145504
15   0.137973
16   0.134431
17   0.143154
18   0.145711
19   0.290745
20   0.29298

>  <lowdin_charges>
20
1   -0.344793
2   -0.272569
3   -0.201178
4   -0.194073
5   -0.104632
6   -0.001161
7   -0.564682
8   -0.20268
9   -0.008531
10   0.163463
11   0.162156
12   0.167168
13   0.15072
14   0.151387
15   0.127251
16   0.140022
17   0.165466
18   0.161525
19   0.25125
20   0.25389

$$$$

