PCCDB-ID:  30932
public computational chemistry database (PCCDB) project, http://pccdb.org

 25 26  0  0  0  0  0  0  0  0999 V2000
    1.0412    0.0030   -0.0660 C   0  0  0  0  0  0  0  0  0  0  0  0
    7.9043    0.7665   -0.0082 C   0  0  0  0  0  0  0  0  0  0  0  0
    8.0709   -2.5108   -0.0539 C   0  0  0  0  0  0  0  0  0  0  0  0
    3.2608    1.2372   -0.0342 C   0  0  0  0  0  0  0  0  0  0  0  0
    4.6508    1.2871   -0.0227 C   0  0  0  0  0  0  0  0  0  0  0  0
    3.2661   -1.1878   -0.0731 C   0  0  0  0  0  0  0  0  0  0  0  0
    2.5544    0.0142   -0.0593 C   0  0  0  0  0  0  0  0  0  0  0  0
    6.7867   -0.2330   -0.0300 C   0  0  0  0  0  0  0  0  0  0  0  0
    6.8802   -1.6064   -0.0511 C   0  0  0  0  0  0  0  0  0  0  0  0
    5.3794    0.0886   -0.0374 C   0  0  0  0  0  0  0  0  0  0  0  0
    4.6609   -1.1368   -0.0621 C   0  0  0  0  0  0  0  0  0  0  0  0
    5.5978   -2.1488   -0.0705 N   0  0  0  0  0  0  0  0  0  0  0  0
    0.6367    1.0199   -0.0881 H   0  0  0  0  0  0  0  0  0  0  0  0
    0.6358   -0.4943    0.8248 H   0  0  0  0  0  0  0  0  0  0  0  0
    0.6437   -0.5306   -0.9389 H   0  0  0  0  0  0  0  0  0  0  0  0
    8.8861    0.2826    0.0083 H   0  0  0  0  0  0  0  0  0  0  0  0
    7.8463    1.4173    0.8745 H   0  0  0  0  0  0  0  0  0  0  0  0
    7.8779    1.4219   -0.8891 H   0  0  0  0  0  0  0  0  0  0  0  0
    8.9973   -1.9316   -0.0382 H   0  0  0  0  0  0  0  0  0  0  0  0
    8.0954   -3.1485   -0.9482 H   0  0  0  0  0  0  0  0  0  0  0  0
    8.0803   -3.1745    0.8215 H   0  0  0  0  0  0  0  0  0  0  0  0
    2.6946    2.1655   -0.0233 H   0  0  0  0  0  0  0  0  0  0  0  0
    5.1626    2.2462   -0.0036 H   0  0  0  0  0  0  0  0  0  0  0  0
    2.7400   -2.1405   -0.0911 H   0  0  0  0  0  0  0  0  0  0  0  0
    5.3919   -3.1355   -0.0831 H   0  0  0  0  0  0  0  0  0  0  0  0
  1  7  1  0  0  0  0
  1 14  1  0  0  0  0
  2 16  1  0  0  0  0
  2 17  1  0  0  0  0
  3  9  1  0  0  0  0
  3 19  1  0  0  0  0
  3 21  1  0  0  0  0
  4 22  1  0  0  0  0
  4  5  1  0  0  0  0
  5 23  1  0  0  0  0
  6 11  2  0  0  0  0
  6  7  1  0  0  0  0
  7  4  2  0  0  0  0
  8  2  1  0  0  0  0
  9  8  2  0  0  0  0
 10  8  1  0  0  0  0
 10  5  2  0  0  0  0
 11 10  1  0  0  0  0
 12 11  1  0  0  0  0
 12  9  1  0  0  0  0
 13  1  1  0  0  0  0
 15  1  1  0  0  0  0
 18  2  1  0  0  0  0
 20  3  1  0  0  0  0
 24  6  1  0  0  0  0
 25 12  1  0  0  0  0
M  END
>  <HBA>
0

>  <HBD>
1

>  <TPSA>
15.79

>  <cid>
30932

>  <dipole>
2.26

>  <excitation_energy_1>
4.45

>  <excitation_energy_2>
4.455

>  <excitation_energy_3>
4.711

>  <excitation_energy_4>
4.961

>  <homo_energy>
-5.018

>  <homo_lumo_gap>
5.059

>  <logP>
3.093

>  <lumo_energy>
0.041

>  <melting_point>
109.44

>  <molecular_refractivity>
53.2

>  <oscillator_strength_1>
0.1037

>  <oscillator_strength_2>
0.0034

>  <oscillator_strength_3>
0.0293

>  <oscillator_strength_4>
0.0008

>  <open_babel_can_smiles>
Cc1ccc2c(c1)[nH]c(c2C)C

>  <mulliken_charges>
25
1   -0.53036
2   -0.534299
3   -0.539393
4   -0.195374
5   -0.210152
6   -0.226805
7   0.162831
8   0.045646
9   0.298541
10   0.080429
11   0.331688
12   -0.748498
13   0.15183
14   0.155857
15   0.154977
16   0.146644
17   0.155924
18   0.156097
19   0.171513
20   0.1605
21   0.160441
22   0.109401
23   0.117962
24   0.107984
25   0.316617

>  <lowdin_charges>
25
1   -0.442697
2   -0.437689
3   -0.446464
4   -0.189434
5   -0.165634
6   -0.201471
7   -0.005441
8   -0.072912
9   0.018077
10   -0.036587
11   0.035368
12   -0.211935
13   0.154161
14   0.156727
15   0.15653
16   0.152621
17   0.155999
18   0.15597
19   0.168276
20   0.159164
21   0.159204
22   0.150053
23   0.153965
24   0.149735
25   0.284413

$$$$

