PCCDB-ID:  28488
public computational chemistry database (PCCDB) project, http://pccdb.org

 24 23  0  0  0  0  0  0  0  0999 V2000
    5.2934   -1.7641    0.3768 C   0  0  0  0  0  0  0  0  0  0  0  0
    3.5415   -0.0438   -0.2700 C   0  0  0  0  0  0  0  0  0  0  0  0
    7.4403    1.2692   -2.2472 C   0  0  0  0  0  0  0  0  0  0  0  0
    7.0631   -1.1777   -2.6921 C   0  0  0  0  0  0  0  0  0  0  0  0
    5.3258    0.5311   -3.3916 C   0  0  0  0  0  0  0  0  0  0  0  0
    4.7838   -0.8188   -0.7135 C   0  0  0  0  0  0  0  0  0  0  0  0
    6.3869    0.1590   -2.3414 C   0  0  0  0  0  0  0  0  0  0  0  0
    5.8176    0.1265   -1.0185 O   0  0  0  0  0  0  0  0  0  0  0  0
    4.5177   -2.4806    0.6724 H   0  0  0  0  0  0  0  0  0  0  0  0
    5.5886   -1.1896    1.2620 H   0  0  0  0  0  0  0  0  0  0  0  0
    6.1675   -2.3243    0.0300 H   0  0  0  0  0  0  0  0  0  0  0  0
    2.7299   -0.7250    0.0123 H   0  0  0  0  0  0  0  0  0  0  0  0
    3.1831    0.6081   -1.0730 H   0  0  0  0  0  0  0  0  0  0  0  0
    3.7815    0.5848    0.5950 H   0  0  0  0  0  0  0  0  0  0  0  0
    7.9410    1.4168   -3.2104 H   0  0  0  0  0  0  0  0  0  0  0  0
    8.1946    1.0136   -1.4959 H   0  0  0  0  0  0  0  0  0  0  0  0
    6.9690    2.2113   -1.9492 H   0  0  0  0  0  0  0  0  0  0  0  0
    7.5627   -1.1122   -3.6655 H   0  0  0  0  0  0  0  0  0  0  0  0
    6.3404   -1.9992   -2.7491 H   0  0  0  0  0  0  0  0  0  0  0  0
    7.8143   -1.4321   -1.9369 H   0  0  0  0  0  0  0  0  0  0  0  0
    5.7837    0.6361   -4.3819 H   0  0  0  0  0  0  0  0  0  0  0  0
    4.8513    1.4827   -3.1295 H   0  0  0  0  0  0  0  0  0  0  0  0
    4.5440   -0.2323   -3.4712 H   0  0  0  0  0  0  0  0  0  0  0  0
    4.5318   -1.4093   -1.6046 H   0  0  0  0  0  0  0  0  0  0  0  0
  1  9  1  0  0  0  0
  1 10  1  0  0  0  0
  2 12  1  0  0  0  0
  2 14  1  0  0  0  0
  3 17  1  0  0  0  0
  3 16  1  0  0  0  0
  4  7  1  0  0  0  0
  4 20  1  0  0  0  0
  5 22  1  0  0  0  0
  5  7  1  0  0  0  0
  6  2  1  0  0  0  0
  6  1  1  0  0  0  0
  7  3  1  0  0  0  0
  7  8  1  0  0  0  0
  8  6  1  0  0  0  0
 11  1  1  0  0  0  0
 13  2  1  0  0  0  0
 15  3  1  0  0  0  0
 18  4  1  0  0  0  0
 19  4  1  0  0  0  0
 21  5  1  0  0  0  0
 23  5  1  0  0  0  0
 24  6  1  0  0  0  0
M  END
>  <HBA>
1

>  <HBD>
0

>  <TPSA>
9.23

>  <cid>
28488

>  <dipole>
1.12

>  <excitation_energy_1>
6.119

>  <excitation_energy_2>
6.679

>  <excitation_energy_3>
6.751

>  <excitation_energy_4>
6.812

>  <homo_energy>
-6.501

>  <homo_lumo_gap>
8.55

>  <logP>
2.21

>  <lumo_energy>
2.049

>  <melting_point>
-25.15

>  <molecular_refractivity>
36.89

>  <oscillator_strength_1>
0.0254

>  <oscillator_strength_2>
0.0007

>  <oscillator_strength_3>
0.002

>  <oscillator_strength_4>
0.0158

>  <open_babel_can_smiles>
CC(OC(C)(C)C)C

>  <mulliken_charges>
24
1   -0.443118
2   -0.44266
3   -0.44422
4   -0.456144
5   -0.455285
6   0.155387
7   0.322975
8   -0.510746
9   0.133471
10   0.15098
11   0.146219
12   0.133517
13   0.146285
14   0.151055
15   0.134071
16   0.149381
17   0.150351
18   0.140186
19   0.141511
20   0.150746
21   0.139823
22   0.150638
23   0.141276
24   0.1143

>  <lowdin_charges>
24
1   -0.454593
2   -0.454379
3   -0.444281
4   -0.45858
5   -0.457582
6   0.00858
7   0.134348
8   -0.281272
9   0.148277
10   0.154481
11   0.152507
12   0.148178
13   0.152976
14   0.154544
15   0.147721
16   0.155323
17   0.155182
18   0.151854
19   0.149085
20   0.154945
21   0.15138
22   0.154217
23   0.14901
24   0.128078

$$$$

