PCCDB-ID:  72565
public computational chemistry database (PCCDB) project, http://pccdb.org

 27 28  0  0  0  0  0  0  0  0999 V2000
    1.1414    0.0944    0.6206 C   0  0  0  0  0  0  0  0  0  0  0  0
    1.1886   -5.0066   -0.2624 C   0  0  0  0  0  0  0  0  0  0  0  0
    2.2562   -4.7857    0.6102 C   0  0  0  0  0  0  0  0  0  0  0  0
    0.7742   -3.9847   -1.1177 C   0  0  0  0  0  0  0  0  0  0  0  0
    2.9007   -3.5489    0.6318 C   0  0  0  0  0  0  0  0  0  0  0  0
    1.4244   -2.7498   -1.1008 C   0  0  0  0  0  0  0  0  0  0  0  0
    2.5698   -0.0351    0.1666 C   0  0  0  0  0  0  0  0  0  0  0  0
    2.4901   -2.5075   -0.2192 C   0  0  0  0  0  0  0  0  0  0  0  0
    3.1887   -1.1926   -0.1936 C   0  0  0  0  0  0  0  0  0  0  0  0
    4.6180   -1.1502   -0.5738 C   0  0  0  0  0  0  0  0  0  0  0  0
    4.6116    1.3115   -0.1710 C   0  0  0  0  0  0  0  0  0  0  0  0
    5.3746   -2.1162   -0.9535 N   0  0  0  0  0  0  0  0  0  0  0  0
    5.2925    2.3978   -0.1825 N   0  0  0  0  0  0  0  0  0  0  0  0
    3.2617    1.1683    0.1589 N   0  0  0  0  0  0  0  0  0  0  0  0
    5.2050    0.1156   -0.5084 N   0  0  0  0  0  0  0  0  0  0  0  0
    0.6630   -0.8797    0.7141 H   0  0  0  0  0  0  0  0  0  0  0  0
    0.5581    0.6982   -0.0869 H   0  0  0  0  0  0  0  0  0  0  0  0
    1.0975    0.5972    1.5957 H   0  0  0  0  0  0  0  0  0  0  0  0
    0.6864   -5.9701   -0.2782 H   0  0  0  0  0  0  0  0  0  0  0  0
    2.5853   -5.5758    1.2798 H   0  0  0  0  0  0  0  0  0  0  0  0
   -0.0494   -4.1502   -1.8072 H   0  0  0  0  0  0  0  0  0  0  0  0
    3.7256   -3.3786    1.3181 H   0  0  0  0  0  0  0  0  0  0  0  0
    1.1130   -1.9640   -1.7840 H   0  0  0  0  0  0  0  0  0  0  0  0
    4.8449   -2.9875   -0.9821 H   0  0  0  0  0  0  0  0  0  0  0  0
    4.7228    3.2004    0.0867 H   0  0  0  0  0  0  0  0  0  0  0  0
    2.7786    2.0035    0.4554 H   0  0  0  0  0  0  0  0  0  0  0  0
    6.1798    0.1676   -0.7767 H   0  0  0  0  0  0  0  0  0  0  0  0
  1 16  1  0  0  0  0
  1 18  1  0  0  0  0
  2  3  2  0  0  0  0
  3  5  1  0  0  0  0
  3 20  1  0  0  0  0
  4  6  2  0  0  0  0
  4  2  1  0  0  0  0
  5 22  1  0  0  0  0
  6  8  1  0  0  0  0
  7  1  1  0  0  0  0
  8  9  1  0  0  0  0
  8  5  2  0  0  0  0
  9  7  2  0  0  0  0
 10 15  1  0  0  0  0
 10  9  1  0  0  0  0
 11 14  1  0  0  0  0
 12 10  2  0  0  0  0
 13 11  2  0  0  0  0
 13 25  1  0  0  0  0
 14  7  1  0  0  0  0
 14 26  1  0  0  0  0
 15 11  1  0  0  0  0
 17  1  1  0  0  0  0
 19  2  1  0  0  0  0
 21  4  1  0  0  0  0
 23  6  1  0  0  0  0
 24 12  1  0  0  0  0
 27 15  1  0  0  0  0
M  END
>  <HBA>
4

>  <HBD>
2

>  <TPSA>
77.82

>  <cid>
72565

>  <dipole>
5.88

>  <excitation_energy_1>
4.412

>  <excitation_energy_2>
4.601

>  <excitation_energy_3>
4.691

>  <excitation_energy_4>
4.769

>  <homo_energy>
-5.736

>  <homo_lumo_gap>
5.031

>  <logP>
2.779

>  <lumo_energy>
-0.705

>  <melting_point>
176.75

>  <molecular_refractivity>
61.24

>  <oscillator_strength_1>
0.1665

>  <oscillator_strength_2>
0.0025

>  <oscillator_strength_3>
0.0138

>  <oscillator_strength_4>
0.0043

>  <open_babel_can_smiles>
Cc1[nH]c(=N)[nH]c(=N)c1c1ccccc1

>  <mulliken_charges>
27
1   -0.538991
2   -0.125207
3   -0.132528
4   -0.133054
5   -0.166989
6   -0.159724
7   0.364447
8   0.027892
9   -0.070033
10   0.489978
11   0.691024
12   -0.657875
13   -0.651299
14   -0.723187
15   -0.676986
16   0.196024
17   0.172978
18   0.16787
19   0.134056
20   0.136484
21   0.134105
22   0.146643
23   0.132462
24   0.291988
25   0.268348
26   0.329659
27   0.351912

>  <lowdin_charges>
27
1   -0.451243
2   -0.154392
3   -0.155808
4   -0.1556
5   -0.161186
6   -0.162998
7   0.070614
8   -0.005076
9   -0.104032
10   0.097809
11   0.137424
12   -0.441819
13   -0.473288
14   -0.249337
15   -0.223072
16   0.183056
17   0.168397
18   0.164283
19   0.159744
20   0.161947
21   0.16019
22   0.165903
23   0.160339
24   0.258552
25   0.250809
26   0.292086
27   0.3067

$$$$

