PCCDB-ID:  70360
public computational chemistry database (PCCDB) project, http://pccdb.org

 23 25  0  0  0  0  0  0  0  0999 V2000
    3.4889    0.9135    0.2927 C   0  0  0  0  0  0  0  0  0  0  0  0
   -3.4885    0.9156    0.2923 C   0  0  0  0  0  0  0  0  0  0  0  0
    3.6260   -0.4468    0.5872 C   0  0  0  0  0  0  0  0  0  0  0  0
   -3.6264   -0.4447    0.5868 C   0  0  0  0  0  0  0  0  0  0  0  0
    2.2706    1.4233   -0.1517 C   0  0  0  0  0  0  0  0  0  0  0  0
   -2.2699    1.4246   -0.1519 C   0  0  0  0  0  0  0  0  0  0  0  0
    2.5432   -1.3052    0.4075 C   0  0  0  0  0  0  0  0  0  0  0  0
   -2.5441   -1.3037    0.4072 C   0  0  0  0  0  0  0  0  0  0  0  0
    1.1861    0.5619   -0.3229 C   0  0  0  0  0  0  0  0  0  0  0  0
   -1.1858    0.5626   -0.3230 C   0  0  0  0  0  0  0  0  0  0  0  0
    1.3287   -0.8030   -0.0619 C   0  0  0  0  0  0  0  0  0  0  0  0
   -1.3293   -0.8022   -0.0620 C   0  0  0  0  0  0  0  0  0  0  0  0
   -0.0010   -3.0966    0.5555 O   0  0  0  0  0  0  0  0  0  0  0  0
    0.0003    1.1262   -0.7475 O   0  0  0  0  0  0  0  0  0  0  0  0
   -0.0006   -1.9730   -0.4537 S   0  0  0  0  0  0  0  0  0  0  0  0
    4.3312    1.5866    0.4244 H   0  0  0  0  0  0  0  0  0  0  0  0
   -4.3305    1.5891    0.4239 H   0  0  0  0  0  0  0  0  0  0  0  0
    4.5726   -0.8359    0.9496 H   0  0  0  0  0  0  0  0  0  0  0  0
   -4.5733   -0.8333    0.9491 H   0  0  0  0  0  0  0  0  0  0  0  0
    2.1341    2.4811   -0.3527 H   0  0  0  0  0  0  0  0  0  0  0  0
   -2.1327    2.4823   -0.3529 H   0  0  0  0  0  0  0  0  0  0  0  0
    2.6188   -2.3654    0.6316 H   0  0  0  0  0  0  0  0  0  0  0  0
   -2.6204   -2.3639    0.6312 H   0  0  0  0  0  0  0  0  0  0  0  0
  1 16  1  0  0  0  0
  1  3  2  0  0  0  0
  2 17  1  0  0  0  0
  2  4  2  0  0  0  0
  3 18  1  0  0  0  0
  4 19  1  0  0  0  0
  5  1  1  0  0  0  0
  6  2  1  0  0  0  0
  7  3  1  0  0  0  0
  7 22  1  0  0  0  0
  8  4  1  0  0  0  0
  8 23  1  0  0  0  0
  9  5  2  0  0  0  0
  9 11  1  0  0  0  0
 10  6  2  0  0  0  0
 10 12  1  0  0  0  0
 11  7  2  0  0  0  0
 12  8  2  0  0  0  0
 14 10  1  0  0  0  0
 14  9  1  0  0  0  0
 15 12  1  0  0  0  0
 15 11  1  0  0  0  0
 15 13  2  0  0  0  0
 20  5  1  0  0  0  0
 21  6  1  0  0  0  0
M  END
>  <HBA>
2

>  <HBD>
0

>  <TPSA>
45.51

>  <cid>
70360

>  <dipole>
3.16

>  <excitation_energy_1>
4.352

>  <excitation_energy_2>
4.436

>  <excitation_energy_3>
4.775

>  <excitation_energy_4>
4.839

>  <homo_energy>
-6.125

>  <homo_lumo_gap>
5.206

>  <logP>
3.825

>  <lumo_energy>
-0.92

>  <melting_point>
93.65

>  <molecular_refractivity>
57.77

>  <oscillator_strength_1>
0.0329

>  <oscillator_strength_2>
0.0008

>  <oscillator_strength_3>
0.0118

>  <oscillator_strength_4>
0.0013

>  <open_babel_can_smiles>
O=S1c2ccccc2Oc2c1cccc2

>  <mulliken_charges>
23
1   -0.135193
2   -0.135192
3   -0.117394
4   -0.117379
5   -0.164969
6   -0.164977
7   -0.172244
8   -0.172266
9   0.342979
10   0.342998
11   -0.190482
12   -0.190474
13   -0.613371
14   -0.559522
15   0.826758
16   0.14331
17   0.14331
18   0.14191
19   0.141909
20   0.150636
21   0.150634
22   0.17451
23   0.174508

>  <lowdin_charges>
23
1   -0.141021
2   -0.141022
3   -0.159096
4   -0.159092
5   -0.168257
6   -0.16826
7   -0.136502
8   -0.136503
9   0.102933
10   0.102938
11   -0.204706
12   -0.204708
13   -0.654969
14   -0.154022
15   0.858156
16   0.165918
17   0.16592
18   0.165256
19   0.165253
20   0.171502
21   0.171504
22   0.179389
23   0.17939

$$$$

