PCCDB-ID:  66953
public computational chemistry database (PCCDB) project, http://pccdb.org

 14 14  0  0  0  0  0  0  0  0999 V2000
   -1.0338    0.9796    0.1395 C   0  0  0  0  0  0  0  0  0  0  0  0
    0.4363    1.2493   -0.1649 C   0  0  0  0  0  0  0  0  0  0  0  0
    1.0016   -0.9974    0.1683 C   0  0  0  0  0  0  0  0  0  0  0  0
   -0.4824   -1.2780   -0.0117 C   0  0  0  0  0  0  0  0  0  0  0  0
   -1.4136   -0.4226   -0.0234 N   0  0  0  0  0  0  0  0  0  0  0  0
   -0.8085   -2.5884   -0.2166 O   0  0  0  0  0  0  0  0  0  0  0  0
    1.2576    0.3322    0.5592 O   0  0  0  0  0  0  0  0  0  0  0  0
   -1.6698    1.5858   -0.5184 H   0  0  0  0  0  0  0  0  0  0  0  0
   -1.2636    1.2842    1.1696 H   0  0  0  0  0  0  0  0  0  0  0  0
    0.7410    2.2491    0.1564 H   0  0  0  0  0  0  0  0  0  0  0  0
    0.6306    1.1566   -1.2466 H   0  0  0  0  0  0  0  0  0  0  0  0
    1.5276   -1.2484   -0.7726 H   0  0  0  0  0  0  0  0  0  0  0  0
    1.4119   -1.6418    0.9570 H   0  0  0  0  0  0  0  0  0  0  0  0
   -0.0193   -3.1415   -0.1047 H   0  0  0  0  0  0  0  0  0  0  0  0
  1  9  1  0  0  0  0
  2  1  1  0  0  0  0
  2 10  1  0  0  0  0
  2  7  1  0  0  0  0
  3  7  1  0  0  0  0
  3 13  1  0  0  0  0
  4  3  1  0  0  0  0
  5  4  2  0  0  0  0
  5  1  1  0  0  0  0
  6 14  1  0  0  0  0
  6  4  1  0  0  0  0
  8  1  1  0  0  0  0
 11  2  1  0  0  0  0
 12  3  1  0  0  0  0
M  END
>  <HBA>
3

>  <HBD>
1

>  <TPSA>
38.33

>  <cid>
66953

>  <dipole>
2.52

>  <excitation_energy_1>
5.494

>  <excitation_energy_2>
5.617

>  <excitation_energy_3>
6.046

>  <excitation_energy_4>
6.223

>  <homo_energy>
-6.43

>  <homo_lumo_gap>
7.002

>  <logP>
-0.538

>  <lumo_energy>
0.571

>  <melting_point>
36.96

>  <molecular_refractivity>
27.23

>  <oscillator_strength_1>
0.0048

>  <oscillator_strength_2>
0.0062

>  <oscillator_strength_3>
0.003

>  <oscillator_strength_4>
0.0156

>  <open_babel_can_smiles>
OC1=NCCOC1

>  <mulliken_charges>
14
1   -0.149743
2   -0.063254
3   -0.109437
4   0.467756
5   -0.415484
6   -0.580273
7   -0.461
8   0.148377
9   0.157855
10   0.153648
11   0.132234
12   0.149485
13   0.162994
14   0.406842

>  <lowdin_charges>
14
1   -0.213284
2   -0.143259
3   -0.17272
4   0.105967
5   -0.201123
6   -0.364374
7   -0.264456
8   0.153798
9   0.151992
10   0.156241
11   0.130098
12   0.143208
13   0.161691
14   0.356222

$$$$

