PCCDB-ID:  29638
public computational chemistry database (PCCDB) project, http://pccdb.org

 27 27  0  0  1  0  0  0  0  0999 V2000
    4.0882    0.4439   -2.6008 C   0  0  0  0  0  0  0  0  0  0  0  0
    5.4397    3.8734   -1.0642 C   0  0  0  0  0  0  0  0  0  0  0  0
    3.1221    1.4394   -1.9477 C   0  0  0  0  0  0  0  0  0  0  0  0
    2.4051    3.8589    0.1091 C   0  0  0  0  0  0  0  0  0  0  0  0
    3.7333    4.1543    0.8230 C   0  0  0  0  0  0  0  0  0  0  0  0
    2.0605    2.3635    0.1904 C   0  0  0  0  0  0  0  0  0  0  0  0
    4.5296    1.8165    0.2355 C   0  0  0  0  0  0  0  0  0  0  0  0
    4.9081    3.3182    0.2689 C   0  0  1  0  0  0  0  0  0  0  0  0
    3.1637    1.4582   -0.4028 C   0  0  2  0  0  0  0  0  0  0  0  0
    5.1362    0.7130   -2.4290 H   0  0  0  0  0  0  0  0  0  0  0  0
    3.9375   -0.5698   -2.2082 H   0  0  0  0  0  0  0  0  0  0  0  0
    3.9349    0.4053   -3.6855 H   0  0  0  0  0  0  0  0  0  0  0  0
    5.8690    4.8721   -0.9161 H   0  0  0  0  0  0  0  0  0  0  0  0
    4.6626    3.9664   -1.8293 H   0  0  0  0  0  0  0  0  0  0  0  0
    6.2297    3.2312   -1.4722 H   0  0  0  0  0  0  0  0  0  0  0  0
    2.0965    1.1769   -2.2444 H   0  0  0  0  0  0  0  0  0  0  0  0
    3.3019    2.4395   -2.3588 H   0  0  0  0  0  0  0  0  0  0  0  0
    2.4610    4.1768   -0.9406 H   0  0  0  0  0  0  0  0  0  0  0  0
    1.6001    4.4512    0.5631 H   0  0  0  0  0  0  0  0  0  0  0  0
    3.6102    3.9257    1.8920 H   0  0  0  0  0  0  0  0  0  0  0  0
    3.9738    5.2242    0.7604 H   0  0  0  0  0  0  0  0  0  0  0  0
    1.1037    2.1628   -0.3099 H   0  0  0  0  0  0  0  0  0  0  0  0
    1.9186    2.0989    1.2488 H   0  0  0  0  0  0  0  0  0  0  0  0
    4.4928    1.4699    1.2788 H   0  0  0  0  0  0  0  0  0  0  0  0
    5.3363    1.2432   -0.2386 H   0  0  0  0  0  0  0  0  0  0  0  0
    5.7382    3.4078    0.9849 H   0  0  0  0  0  0  0  0  0  0  0  0
    2.9399    0.4261   -0.0907 H   0  0  0  0  0  0  0  0  0  0  0  0
  1 10  1  0  0  0  0
  1 11  1  0  0  0  0
  1  3  1  0  0  0  0
  2 13  1  0  0  0  0
  2  8  1  0  0  0  0
  3  9  1  0  0  0  0
  4  6  1  0  0  0  0
  4 19  1  0  0  0  0
  4  5  1  0  0  0  0
  5 20  1  0  0  0  0
  6 23  1  0  0  0  0
  7  8  1  0  0  0  0
  7 24  1  0  0  0  0
  8  5  1  0  0  0  0
  8 26  1  1  0  0  0
  9 27  1  1  0  0  0
  9  6  1  0  0  0  0
  9  7  1  0  0  0  0
 12  1  1  0  0  0  0
 14  2  1  0  0  0  0
 15  2  1  0  0  0  0
 16  3  1  0  0  0  0
 17  3  1  0  0  0  0
 18  4  1  0  0  0  0
 21  5  1  0  0  0  0
 22  6  1  0  0  0  0
 25  7  1  0  0  0  0
M  END
>  <HBA>
0

>  <HBD>
0

>  <TPSA>
0.0

>  <cid>
29638

>  <dipole>
0.07

>  <excitation_energy_1>
7.103

>  <excitation_energy_2>
7.135

>  <excitation_energy_3>
7.444

>  <excitation_energy_4>
7.515

>  <homo_energy>
-7.698

>  <homo_lumo_gap>
9.636

>  <logP>
3.223

>  <lumo_energy>
1.937

>  <melting_point>
-5.98

>  <molecular_refractivity>
43.26

>  <oscillator_strength_1>
0.0009

>  <oscillator_strength_2>
0.0013

>  <oscillator_strength_3>
0.0195

>  <oscillator_strength_4>
0.0133

>  <open_babel_can_smiles>
CC[C@@H]1CCC[C@@H](C1)C

>  <mulliken_charges>
27
1   -0.449193
2   -0.452429
3   -0.253772
4   -0.262515
5   -0.258507
6   -0.264166
7   -0.275918
8   -0.067585
9   -0.068122
10   0.146215
11   0.139832
12   0.140619
13   0.138147
14   0.146988
15   0.138638
16   0.126779
17   0.13463
18   0.131672
19   0.128801
20   0.123705
21   0.124761
22   0.124349
23   0.123283
24   0.124142
25   0.128377
26   0.11805
27   0.113218

>  <lowdin_charges>
27
1   -0.442643
2   -0.451243
3   -0.277587
4   -0.280853
5   -0.275664
6   -0.277042
7   -0.284146
8   -0.12605
9   -0.12789
10   0.145269
11   0.14462
12   0.147635
13   0.146293
14   0.14671
15   0.147989
16   0.138599
17   0.13909
18   0.136549
19   0.144391
20   0.135774
21   0.1387
22   0.139916
23   0.135968
24   0.139394
25   0.142862
26   0.138528
27   0.134833

$$$$

