PCCDB-ID:  41175
public computational chemistry database (PCCDB) project, http://pccdb.org

 32 34  0  0  0  0  0  0  0  0999 V2000
   -1.4248   -0.2773    0.2304 C   0  0  0  0  0  0  0  0  0  0  0  0
   -0.5949   -1.3992    0.1784 C   0  0  0  0  0  0  0  0  0  0  0  0
   -0.8720    1.0033    0.1341 C   0  0  0  0  0  0  0  0  0  0  0  0
    0.7822   -1.2473    0.0309 C   0  0  0  0  0  0  0  0  0  0  0  0
    0.5020    1.1640   -0.0133 C   0  0  0  0  0  0  0  0  0  0  0  0
    7.1880   -0.3321   -0.6287 C   0  0  0  0  0  0  0  0  0  0  0  0
    6.0390   -1.1136   -0.4897 C   0  0  0  0  0  0  0  0  0  0  0  0
    8.4333    1.8585   -0.8727 C   0  0  0  0  0  0  0  0  0  0  0  0
    8.7943    2.0500   -2.3557 C   0  0  0  0  0  0  0  0  0  0  0  0
    5.9218    1.7452   -0.5854 C   0  0  0  0  0  0  0  0  0  0  0  0
    7.1489    1.0799   -0.6778 C   0  0  0  0  0  0  0  0  0  0  0  0
    1.3398    0.0373   -0.0659 C   0  0  0  0  0  0  0  0  0  0  0  0
    4.7602    0.9813   -0.4465 C   0  0  0  0  0  0  0  0  0  0  0  0
    4.8445   -0.4167   -0.4032 C   0  0  0  0  0  0  0  0  0  0  0  0
    2.7785    0.2287   -0.2190 C   0  0  0  0  0  0  0  0  0  0  0  0
   10.0794    2.7457   -2.4799 N   0  0  0  0  0  0  0  0  0  0  0  0
    3.4240    1.3529   -0.3259 N   0  0  0  0  0  0  0  0  0  0  0  0
    3.5695   -0.9032   -0.2562 O   0  0  0  0  0  0  0  0  0  0  0  0
   -2.4984   -0.3994    0.3459 H   0  0  0  0  0  0  0  0  0  0  0  0
   -1.0207   -2.3960    0.2528 H   0  0  0  0  0  0  0  0  0  0  0  0
   -1.5148    1.8783    0.1743 H   0  0  0  0  0  0  0  0  0  0  0  0
    1.4293   -2.1170   -0.0089 H   0  0  0  0  0  0  0  0  0  0  0  0
    0.9465    2.1508   -0.0891 H   0  0  0  0  0  0  0  0  0  0  0  0
    8.1531   -0.8281   -0.6961 H   0  0  0  0  0  0  0  0  0  0  0  0
    6.0812   -2.1967   -0.4471 H   0  0  0  0  0  0  0  0  0  0  0  0
    8.3429    2.8456   -0.3988 H   0  0  0  0  0  0  0  0  0  0  0  0
    9.2720    1.3506   -0.3831 H   0  0  0  0  0  0  0  0  0  0  0  0
    7.9523    2.5528   -2.8651 H   0  0  0  0  0  0  0  0  0  0  0  0
    8.8982    1.0646   -2.8265 H   0  0  0  0  0  0  0  0  0  0  0  0
    5.8667    2.8298   -0.6136 H   0  0  0  0  0  0  0  0  0  0  0  0
    9.9811    3.7052   -2.1486 H   0  0  0  0  0  0  0  0  0  0  0  0
   10.3400    2.8149   -3.4623 H   0  0  0  0  0  0  0  0  0  0  0  0
  1 19  1  0  0  0  0
  2  1  1  0  0  0  0
  2 20  1  0  0  0  0
  3 21  1  0  0  0  0
  3  1  2  0  0  0  0
  4  2  2  0  0  0  0
  5  3  1  0  0  0  0
  6  7  1  0  0  0  0
  7 25  1  0  0  0  0
  7 14  2  0  0  0  0
  8 11  1  0  0  0  0
  8 26  1  0  0  0  0
  8 27  1  0  0  0  0
  9  8  1  0  0  0  0
 10 13  2  0  0  0  0
 11  6  2  0  0  0  0
 11 10  1  0  0  0  0
 12  5  2  0  0  0  0
 12  4  1  0  0  0  0
 13 14  1  0  0  0  0
 13 17  1  0  0  0  0
 14 18  1  0  0  0  0
 15 12  1  0  0  0  0
 16  9  1  0  0  0  0
 16 31  1  0  0  0  0
 17 15  2  0  0  0  0
 18 15  1  0  0  0  0
 22  4  1  0  0  0  0
 23  5  1  0  0  0  0
 24  6  1  0  0  0  0
 28  9  1  0  0  0  0
 29  9  1  0  0  0  0
 30 10  1  0  0  0  0
 32 16  1  0  0  0  0
M  END
>  <HBA>
3

>  <HBD>
1

>  <TPSA>
52.05

>  <cid>
41175

>  <dipole>
1.18

>  <excitation_energy_1>
4.124

>  <excitation_energy_2>
4.451

>  <excitation_energy_3>
4.635

>  <excitation_energy_4>
4.693

>  <homo_energy>
-5.924

>  <homo_lumo_gap>
4.52

>  <logP>
3.696

>  <lumo_energy>
-1.404

>  <melting_point>
159.08

>  <molecular_refractivity>
71.93

>  <oscillator_strength_1>
0.7202

>  <oscillator_strength_2>
0.0779

>  <oscillator_strength_3>
0.0092

>  <oscillator_strength_4>
0.0068

>  <open_babel_can_smiles>
NCCc1ccc2c(c1)nc(o2)c1ccccc1

>  <mulliken_charges>
32
1   -0.119674
2   -0.137304
3   -0.137995
4   -0.165127
5   -0.156477
6   -0.197436
7   -0.185196
8   -0.341325
9   -0.129693
10   -0.234166
11   0.156032
12   0.068589
13   0.258836
14   0.334953
15   0.485867
16   -0.715074
17   -0.545782
18   -0.530772
19   0.135632
20   0.136373
21   0.137352
22   0.154229
23   0.166553
24   0.131782
25   0.146425
26   0.136565
27   0.157493
28   0.119832
29   0.143371
30   0.136365
31   0.292496
32   0.297276

>  <lowdin_charges>
32
1   -0.143988
2   -0.153516
3   -0.154546
4   -0.148527
5   -0.135553
6   -0.164675
7   -0.172313
8   -0.276685
9   -0.203584
10   -0.167009
11   -0.0046
12   -0.020961
13   0.010276
14   0.069629
15   0.130867
16   -0.555817
17   -0.180772
18   -0.122306
19   0.159014
20   0.160706
21   0.162398
22   0.171118
23   0.177196
24   0.159972
25   0.168177
26   0.145141
27   0.158325
28   0.121544
29   0.143155
30   0.16322
31   0.250002
32   0.254111

$$$$

