PCCDB-ID:  44238
public computational chemistry database (PCCDB) project, http://pccdb.org

 40 40  0  0  0  0  0  0  0  0999 V2000
    1.6207    0.0215   -3.2342 C   0  0  0  0  0  0  0  0  0  0  0  0
    4.6136    3.0535   -3.3700 C   0  0  0  0  0  0  0  0  0  0  0  0
    5.4145   -6.4038   -3.8225 C   0  0  0  0  0  0  0  0  0  0  0  0
    2.1585    1.2629   -2.5203 C   0  0  0  0  0  0  0  0  0  0  0  0
    4.2243    2.4505   -2.0190 C   0  0  0  0  0  0  0  0  0  0  0  0
    6.5290   -5.2437   -1.8639 C   0  0  0  0  0  0  0  0  0  0  0  0
    4.3481   -4.4968   -2.5353 C   0  0  0  0  0  0  0  0  0  0  0  0
    6.5562   -4.2756   -0.8626 C   0  0  0  0  0  0  0  0  0  0  0  0
    4.3724   -3.5203   -1.5407 C   0  0  0  0  0  0  0  0  0  0  0  0
    5.1074   -0.4171   -0.9403 C   0  0  0  0  0  0  0  0  0  0  0  0
    3.7583    0.3194   -0.9411 C   0  0  0  0  0  0  0  0  0  0  0  0
    5.4269   -5.3704   -2.7207 C   0  0  0  0  0  0  0  0  0  0  0  0
    5.4804   -3.3908   -0.6926 C   0  0  0  0  0  0  0  0  0  0  0  0
    5.5141   -2.3627    0.4000 C   0  0  0  0  0  0  0  0  0  0  0  0
    5.8966   -2.8907    1.6343 N   0  0  0  0  0  0  0  0  0  0  0  0
    5.3004   -1.1017    0.3243 N   0  0  0  0  0  0  0  0  0  0  0  0
    3.5713    1.1405   -2.1426 N   0  0  0  0  0  0  0  0  0  0  0  0
    0.5718    0.1676   -3.5186 H   0  0  0  0  0  0  0  0  0  0  0  0
    1.6675   -0.8709   -2.5999 H   0  0  0  0  0  0  0  0  0  0  0  0
    2.2047   -0.1794   -4.1383 H   0  0  0  0  0  0  0  0  0  0  0  0
    5.1114    4.0201   -3.2281 H   0  0  0  0  0  0  0  0  0  0  0  0
    3.7427    3.2235   -4.0129 H   0  0  0  0  0  0  0  0  0  0  0  0
    5.2961    2.3828   -3.9021 H   0  0  0  0  0  0  0  0  0  0  0  0
    5.9422   -6.0388   -4.7138 H   0  0  0  0  0  0  0  0  0  0  0  0
    4.3929   -6.6525   -4.1278 H   0  0  0  0  0  0  0  0  0  0  0  0
    5.9106   -7.3295   -3.5105 H   0  0  0  0  0  0  0  0  0  0  0  0
    1.5253    1.5007   -1.6425 H   0  0  0  0  0  0  0  0  0  0  0  0
    2.0650    2.1160   -3.2003 H   0  0  0  0  0  0  0  0  0  0  0  0
    3.5918    3.1622   -1.4522 H   0  0  0  0  0  0  0  0  0  0  0  0
    5.1347    2.3170   -1.4253 H   0  0  0  0  0  0  0  0  0  0  0  0
    7.3773   -5.9148   -1.9813 H   0  0  0  0  0  0  0  0  0  0  0  0
    3.4731   -4.5839   -3.1755 H   0  0  0  0  0  0  0  0  0  0  0  0
    7.4170   -4.1939   -0.2056 H   0  0  0  0  0  0  0  0  0  0  0  0
    3.5154   -2.8662   -1.4084 H   0  0  0  0  0  0  0  0  0  0  0  0
    5.9152    0.3222   -1.0398 H   0  0  0  0  0  0  0  0  0  0  0  0
    5.1603   -1.0619   -1.8281 H   0  0  0  0  0  0  0  0  0  0  0  0
    3.6674    0.9126   -0.0129 H   0  0  0  0  0  0  0  0  0  0  0  0
    2.9613   -0.4311   -0.9002 H   0  0  0  0  0  0  0  0  0  0  0  0
    5.5356   -3.8122    1.8511 H   0  0  0  0  0  0  0  0  0  0  0  0
    5.7888   -2.2218    2.3896 H   0  0  0  0  0  0  0  0  0  0  0  0
  1 19  1  0  0  0  0
  1  4  1  0  0  0  0
  2 21  1  0  0  0  0
  2  5  1  0  0  0  0
  3 26  1  0  0  0  0
  3 12  1  0  0  0  0
  4 17  1  0  0  0  0
  4 27  1  0  0  0  0
  5 29  1  0  0  0  0
  5 30  1  0  0  0  0
  6  8  2  0  0  0  0
  7  9  1  0  0  0  0
  8 13  1  0  0  0  0
  8 33  1  0  0  0  0
  9 34  1  0  0  0  0
  9 13  2  0  0  0  0
 10 16  1  0  0  0  0
 11 10  1  0  0  0  0
 11 38  1  0  0  0  0
 11 37  1  0  0  0  0
 12  7  2  0  0  0  0
 12  6  1  0  0  0  0
 13 14  1  0  0  0  0
 14 15  1  0  0  0  0
 15 39  1  0  0  0  0
 15 40  1  0  0  0  0
 16 14  2  0  0  0  0
 17  5  1  0  0  0  0
 17 11  1  0  0  0  0
 18  1  1  0  0  0  0
 20  1  1  0  0  0  0
 22  2  1  0  0  0  0
 23  2  1  0  0  0  0
 24  3  1  0  0  0  0
 25  3  1  0  0  0  0
 28  4  1  0  0  0  0
 31  6  1  0  0  0  0
 32  7  1  0  0  0  0
 35 10  1  0  0  0  0
 36 10  1  0  0  0  0
M  END
>  <HBA>
3

>  <HBD>
1

>  <TPSA>
41.62

>  <cid>
44238

>  <dipole>
2.28

>  <excitation_energy_1>
4.277

>  <excitation_energy_2>
4.645

>  <excitation_energy_3>
4.763

>  <excitation_energy_4>
4.848

>  <homo_energy>
-5.407

>  <homo_lumo_gap>
4.944

>  <logP>
2.742

>  <lumo_energy>
-0.463

>  <melting_point>
82.75

>  <molecular_refractivity>
74.5

>  <oscillator_strength_1>
0.0061

>  <oscillator_strength_2>
0.0002

>  <oscillator_strength_3>
0.0019

>  <oscillator_strength_4>
0.0928

>  <open_babel_can_smiles>
CCN(CC/N=C(\c1ccc(cc1)C)/N)CC

>  <mulliken_charges>
40
1   -0.439304
2   -0.439002
3   -0.530303
4   -0.11971
5   -0.122961
6   -0.182031
7   -0.187474
8   -0.161256
9   -0.16366
10   -0.147339
11   -0.131116
12   0.182172
13   0.07333
14   0.365276
15   -0.73416
16   -0.454771
17   -0.378247
18   0.136581
19   0.14097
20   0.153516
21   0.136911
22   0.143469
23   0.15333
24   0.169572
25   0.157619
26   0.159136
27   0.111751
28   0.136186
29   0.111278
30   0.142237
31   0.12539
32   0.126357
33   0.14788
34   0.143819
35   0.1387
36   0.136344
37   0.126122
38   0.13076
39   0.318146
40   0.324482

>  <lowdin_charges>
40
1   -0.448554
2   -0.451074
3   -0.442496
4   -0.197926
5   -0.199316
6   -0.167225
7   -0.167698
8   -0.152496
9   -0.152568
10   -0.211353
11   -0.206277
12   0.007477
13   -0.035364
14   0.08889
15   -0.482408
16   -0.240427
17   -0.193474
18   0.147263
19   0.14448
20   0.153929
21   0.148461
22   0.146684
23   0.154862
24   0.164786
25   0.157736
26   0.159657
27   0.118643
28   0.144525
29   0.119583
30   0.146602
31   0.15654
32   0.157029
33   0.167899
34   0.163109
35   0.142491
36   0.135853
37   0.127629
38   0.140199
39   0.27488
40   0.279446

$$$$

