PCCDB-ID:  9017
public computational chemistry database (PCCDB) project, http://pccdb.org

 36 35  0  0  1  0  0  0  0  0999 V2000
    0.5391    2.7024    2.3010 C   0  0  0  0  0  0  0  0  0  0  0  0
    2.4032    4.3959    2.6192 C   0  0  0  0  0  0  0  0  0  0  0  0
    7.2483    0.6019    0.3328 C   0  0  0  0  0  0  0  0  0  0  0  0
    8.0459    6.7979    2.9095 C   0  0  0  0  0  0  0  0  0  0  0  0
    4.3747    1.9388    2.6801 C   0  0  0  0  0  0  0  0  0  0  0  0
    2.8780    1.9097    2.5175 C   0  0  0  0  0  0  0  0  0  0  0  0
    5.1058    1.3788    1.4420 C   0  0  0  0  0  0  0  0  0  0  0  0
    7.3590    2.5049    2.0391 C   0  0  0  0  0  0  0  0  0  0  0  0
    7.2090    3.6813    1.0756 C   0  0  0  0  0  0  0  0  0  0  0  0
    2.0202    2.9416    2.4831 C   0  0  0  0  0  0  0  0  0  0  0  0
    6.6321    1.2108    1.6034 C   0  0  2  0  0  0  0  0  0  0  0  0
    7.2008    5.6358    2.4413 C   0  0  0  0  0  0  0  0  0  0  0  0
    6.0587    5.4214    2.7924 O   0  0  0  0  0  0  0  0  0  0  0  0
    7.8933    4.8540    1.5842 O   0  0  0  0  0  0  0  0  0  0  0  0
    0.1631    3.2129    1.4028 H   0  0  0  0  0  0  0  0  0  0  0  0
   -0.0345    3.1062    3.1477 H   0  0  0  0  0  0  0  0  0  0  0  0
    0.3031    1.6372    2.2097 H   0  0  0  0  0  0  0  0  0  0  0  0
    2.0343    4.9699    1.7573 H   0  0  0  0  0  0  0  0  0  0  0  0
    3.4785    4.5676    2.6995 H   0  0  0  0  0  0  0  0  0  0  0  0
    1.9261    4.8376    3.5059 H   0  0  0  0  0  0  0  0  0  0  0  0
    6.7961   -0.3710    0.1078 H   0  0  0  0  0  0  0  0  0  0  0  0
    8.3287    0.4507    0.4456 H   0  0  0  0  0  0  0  0  0  0  0  0
    7.0906    1.2426   -0.5437 H   0  0  0  0  0  0  0  0  0  0  0  0
    8.8295    6.4330    3.5832 H   0  0  0  0  0  0  0  0  0  0  0  0
    7.4174    7.5126    3.4421 H   0  0  0  0  0  0  0  0  0  0  0  0
    8.5406    7.2820    2.0626 H   0  0  0  0  0  0  0  0  0  0  0  0
    4.6528    1.3257    3.5527 H   0  0  0  0  0  0  0  0  0  0  0  0
    4.7249    2.9527    2.8926 H   0  0  0  0  0  0  0  0  0  0  0  0
    2.4572    0.9080    2.4025 H   0  0  0  0  0  0  0  0  0  0  0  0
    4.8845    2.0206    0.5777 H   0  0  0  0  0  0  0  0  0  0  0  0
    4.6819    0.3953    1.1934 H   0  0  0  0  0  0  0  0  0  0  0  0
    6.9857    2.8209    3.0190 H   0  0  0  0  0  0  0  0  0  0  0  0
    8.4291    2.2926    2.1630 H   0  0  0  0  0  0  0  0  0  0  0  0
    6.1608    3.9375    0.9089 H   0  0  0  0  0  0  0  0  0  0  0  0
    7.6899    3.4862    0.1147 H   0  0  0  0  0  0  0  0  0  0  0  0
    6.7915    0.4913    2.4210 H   0  0  0  0  0  0  0  0  0  0  0  0
  1 10  1  0  0  0  0
  1 16  1  0  0  0  0
  2 19  1  0  0  0  0
  2 20  1  0  0  0  0
  3 22  1  0  0  0  0
  3 11  1  0  0  0  0
  4 25  1  0  0  0  0
  4 24  1  0  0  0  0
  5 28  1  0  0  0  0
  5 27  1  0  0  0  0
  6  5  1  0  0  0  0
  7 11  1  0  0  0  0
  7  5  1  0  0  0  0
  8 33  1  0  0  0  0
  8 32  1  0  0  0  0
  9 14  1  0  0  0  0
  9  8  1  0  0  0  0
 10  6  2  0  0  0  0
 10  2  1  0  0  0  0
 11  8  1  0  0  0  0
 11 36  1  1  0  0  0
 12 13  2  0  0  0  0
 12  4  1  0  0  0  0
 14 12  1  0  0  0  0
 15  1  1  0  0  0  0
 17  1  1  0  0  0  0
 18  2  1  0  0  0  0
 21  3  1  0  0  0  0
 23  3  1  0  0  0  0
 26  4  1  0  0  0  0
 29  6  1  0  0  0  0
 30  7  1  0  0  0  0
 31  7  1  0  0  0  0
 34  9  1  0  0  0  0
 35  9  1  0  0  0  0
M  END
>  <HBA>
2

>  <HBD>
0

>  <TPSA>
26.3

>  <cid>
9017

>  <dipole>
1.81

>  <excitation_energy_1>
5.566

>  <excitation_energy_2>
5.614

>  <excitation_energy_3>
5.817

>  <excitation_energy_4>
5.892

>  <homo_energy>
-5.973

>  <homo_lumo_gap>
6.302

>  <logP>
3.322

>  <lumo_energy>
0.329

>  <melting_point>
-4.9

>  <molecular_refractivity>
60.61

>  <oscillator_strength_1>
0.0082

>  <oscillator_strength_2>
0.0057

>  <oscillator_strength_3>
0.0014

>  <oscillator_strength_4>
0.0155

>  <open_babel_can_smiles>
C[C@H](CCC=C(C)C)CCOC(=O)C

>  <mulliken_charges>
36
1   -0.504828
2   -0.53286
3   -0.45205
4   -0.523954
5   -0.323609
6   -0.165286
7   -0.255152
8   -0.287968
9   -0.051789
10   0.189392
11   -0.080209
12   0.603012
13   -0.469127
14   -0.454584
15   0.14599
16   0.147062
17   0.147276
18   0.143799
19   0.190567
20   0.147785
21   0.145118
22   0.140779
23   0.140868
24   0.183962
25   0.182588
26   0.18031
27   0.131102
28   0.170725
29   0.103909
30   0.131694
31   0.128085
32   0.160993
33   0.137316
34   0.171328
35   0.152766
36   0.124989

>  <lowdin_charges>
36
1   -0.439783
2   -0.450316
3   -0.445416
4   -0.466959
5   -0.281985
6   -0.192482
7   -0.27705
8   -0.290872
9   -0.13302
10   -0.008811
11   -0.124501
12   0.200779
13   -0.273605
14   -0.193438
15   0.151132
16   0.152027
17   0.150555
18   0.152343
19   0.167998
20   0.154283
21   0.150746
22   0.146182
23   0.145299
24   0.18047
25   0.177104
26   0.177061
27   0.143554
28   0.157436
29   0.140103
30   0.139371
31   0.140733
32   0.156181
33   0.144668
34   0.157019
35   0.152342
36   0.140853

$$$$

