PCCDB-ID:  49121
public computational chemistry database (PCCDB) project, http://pccdb.org

 30 30  0  0  0  0  0  0  0  0999 V2000
    1.2853   -2.4210    1.0931 C   0  0  0  0  0  0  0  0  0  0  0  0
    3.1204    1.6914    1.9811 C   0  0  0  0  0  0  0  0  0  0  0  0
    4.5018    3.6141    1.2485 C   0  0  0  0  0  0  0  0  0  0  0  0
    7.4963   -2.1418   -0.4245 C   0  0  0  0  0  0  0  0  0  0  0  0
    6.8797   -0.9872    0.0555 C   0  0  0  0  0  0  0  0  0  0  0  0
    6.7022   -3.2106   -0.8332 C   0  0  0  0  0  0  0  0  0  0  0  0
    3.2421   -2.1013   -0.3136 C   0  0  0  0  0  0  0  0  0  0  0  0
    4.7542   -2.0801   -0.3482 C   0  0  0  0  0  0  0  0  0  0  0  0
    5.4870   -0.9637    0.0928 C   0  0  0  0  0  0  0  0  0  0  0  0
    5.1365    1.3877    0.5356 C   0  0  0  0  0  0  0  0  0  0  0  0
    2.7391   -2.2921    1.0526 N   0  0  0  0  0  0  0  0  0  0  0  0
    5.3644   -3.1857   -0.7950 N   0  0  0  0  0  0  0  0  0  0  0  0
    4.2764    2.1776    1.2377 N   0  0  0  0  0  0  0  0  0  0  0  0
    6.1115    1.7712   -0.0845 O   0  0  0  0  0  0  0  0  0  0  0  0
    4.7376    0.0709    0.6162 O   0  0  0  0  0  0  0  0  0  0  0  0
    0.9665   -2.6318    2.1192 H   0  0  0  0  0  0  0  0  0  0  0  0
    0.8800   -3.2113    0.4341 H   0  0  0  0  0  0  0  0  0  0  0  0
    0.8282   -1.4715    0.7890 H   0  0  0  0  0  0  0  0  0  0  0  0
    2.1958    2.1060    1.5569 H   0  0  0  0  0  0  0  0  0  0  0  0
    3.1896    2.0167    3.0275 H   0  0  0  0  0  0  0  0  0  0  0  0
    3.0735    0.6044    1.9474 H   0  0  0  0  0  0  0  0  0  0  0  0
    3.6249    4.1405    0.8494 H   0  0  0  0  0  0  0  0  0  0  0  0
    5.3713    3.8407    0.6333 H   0  0  0  0  0  0  0  0  0  0  0  0
    4.6782    3.9669    2.2732 H   0  0  0  0  0  0  0  0  0  0  0  0
    8.5791   -2.2070   -0.4758 H   0  0  0  0  0  0  0  0  0  0  0  0
    7.4528   -0.1280    0.3763 H   0  0  0  0  0  0  0  0  0  0  0  0
    7.1534   -4.1273   -1.2084 H   0  0  0  0  0  0  0  0  0  0  0  0
    2.9110   -2.8913   -1.0085 H   0  0  0  0  0  0  0  0  0  0  0  0
    2.8459   -1.1456   -0.6788 H   0  0  0  0  0  0  0  0  0  0  0  0
    3.1583   -3.1428    1.4267 H   0  0  0  0  0  0  0  0  0  0  0  0
  1 16  1  0  0  0  0
  2 20  1  0  0  0  0
  3 24  1  0  0  0  0
  4  5  2  0  0  0  0
  5  9  1  0  0  0  0
  5 26  1  0  0  0  0
  6 12  2  0  0  0  0
  6  4  1  0  0  0  0
  7 11  1  0  0  0  0
  8  7  1  0  0  0  0
  8  9  2  0  0  0  0
  9 15  1  0  0  0  0
 10 15  1  0  0  0  0
 10 13  1  0  0  0  0
 11  1  1  0  0  0  0
 11 30  1  0  0  0  0
 12  8  1  0  0  0  0
 13  3  1  0  0  0  0
 13  2  1  0  0  0  0
 14 10  2  0  0  0  0
 17  1  1  0  0  0  0
 18  1  1  0  0  0  0
 19  2  1  0  0  0  0
 21  2  1  0  0  0  0
 22  3  1  0  0  0  0
 23  3  1  0  0  0  0
 25  4  1  0  0  0  0
 27  6  1  0  0  0  0
 28  7  1  0  0  0  0
 29  7  1  0  0  0  0
M  END
>  <HBA>
5

>  <HBD>
1

>  <TPSA>
54.46

>  <cid>
49121

>  <dipole>
2.71

>  <excitation_energy_1>
4.646

>  <excitation_energy_2>
4.935

>  <excitation_energy_3>
4.967

>  <excitation_energy_4>
5.135

>  <homo_energy>
-6.06

>  <homo_lumo_gap>
5.546

>  <logP>
1.252

>  <lumo_energy>
-0.514

>  <melting_point>
88.31

>  <molecular_refractivity>
56.4

>  <oscillator_strength_1>
0.0032

>  <oscillator_strength_2>
0.0076

>  <oscillator_strength_3>
0.0029

>  <oscillator_strength_4>
0.0766

>  <open_babel_can_smiles>
CNCc1ncccc1OC(=O)N(C)C

>  <mulliken_charges>
30
1   -0.300412
2   -0.334615
3   -0.317931
4   -0.15357
5   -0.113884
6   0.035336
7   -0.163697
8   0.21883
9   0.337333
10   0.78397
11   -0.540827
12   -0.47424
13   -0.43519
14   -0.514387
15   -0.544426
16   0.149131
17   0.12554
18   0.148299
19   0.153131
20   0.154464
21   0.227205
22   0.155441
23   0.204358
24   0.155601
25   0.140144
26   0.178056
27   0.138705
28   0.138809
29   0.146042
30   0.302784

>  <lowdin_charges>
30
1   -0.361213
2   -0.354247
3   -0.350003
4   -0.166644
5   -0.149227
6   -0.103038
7   -0.203927
8   0.022461
9   0.090896
10   0.216093
11   -0.362905
12   -0.152868
13   -0.101608
14   -0.309551
15   -0.158182
16   0.150184
17   0.124924
18   0.14657
19   0.148709
20   0.148845
21   0.188527
22   0.151059
23   0.185073
24   0.14929
25   0.163735
26   0.186064
27   0.156623
28   0.138428
29   0.149514
30   0.256416

$$$$

