PCCDB-ID:  28093
public computational chemistry database (PCCDB) project, http://pccdb.org

 40 40  0  0  0  0  0  0  0  0999 V2000
    0.9056    0.0239    0.9551 C   0  0  0  0  0  0  0  0  0  0  0  0
    1.5827   -0.0974   -1.4896 C   0  0  0  0  0  0  0  0  0  0  0  0
    4.1926    5.7001    0.3300 C   0  0  0  0  0  0  0  0  0  0  0  0
    8.8934   -0.1788    1.2458 C   0  0  0  0  0  0  0  0  0  0  0  0
    8.0464   -0.0098    3.5097 C   0  0  0  0  0  0  0  0  0  0  0  0
    6.4977   -0.4800    1.6690 C   0  0  0  0  0  0  0  0  0  0  0  0
    5.9732    0.9328    1.3638 C   0  0  0  0  0  0  0  0  0  0  0  0
    4.4191    3.1853    0.6093 C   0  0  0  0  0  0  0  0  0  0  0  0
    1.8587    2.7645   -0.3300 C   0  0  0  0  0  0  0  0  0  0  0  0
    2.0447    0.2406   -0.0600 C   0  0  0  0  0  0  0  0  0  0  0  0
    3.6556    4.2948    0.2341 C   0  0  0  0  0  0  0  0  0  0  0  0
    2.6172    1.6496    0.0402 C   0  0  0  0  0  0  0  0  0  0  0  0
    2.3579    4.0637   -0.2394 C   0  0  0  0  0  0  0  0  0  0  0  0
    3.9197    1.8805    0.5216 C   0  0  0  0  0  0  0  0  0  0  0  0
    7.8566   -0.5775    2.1845 N   0  0  0  0  0  0  0  0  0  0  0  0
    1.6175    5.1660   -0.6025 O   0  0  0  0  0  0  0  0  0  0  0  0
    4.6434    0.7692    0.8903 O   0  0  0  0  0  0  0  0  0  0  0  0
    0.5317   -1.0060    0.9036 H   0  0  0  0  0  0  0  0  0  0  0  0
    0.0610    0.6958    0.7578 H   0  0  0  0  0  0  0  0  0  0  0  0
    1.2481    0.2114    1.9786 H   0  0  0  0  0  0  0  0  0  0  0  0
    1.2331   -1.1355   -1.5435 H   0  0  0  0  0  0  0  0  0  0  0  0
    2.3995    0.0249   -2.2093 H   0  0  0  0  0  0  0  0  0  0  0  0
    0.7544    0.5450   -1.8126 H   0  0  0  0  0  0  0  0  0  0  0  0
    5.2242    5.7030    0.6954 H   0  0  0  0  0  0  0  0  0  0  0  0
    3.5867    6.3132    1.0084 H   0  0  0  0  0  0  0  0  0  0  0  0
    4.1708    6.2025   -0.6445 H   0  0  0  0  0  0  0  0  0  0  0  0
    9.8708   -0.4926    1.6312 H   0  0  0  0  0  0  0  0  0  0  0  0
    8.9477    0.9106    1.0562 H   0  0  0  0  0  0  0  0  0  0  0  0
    8.7324   -0.6812    0.2854 H   0  0  0  0  0  0  0  0  0  0  0  0
    9.0245   -0.3173    3.8983 H   0  0  0  0  0  0  0  0  0  0  0  0
    7.2775   -0.3957    4.1882 H   0  0  0  0  0  0  0  0  0  0  0  0
    8.0097    1.0962    3.5462 H   0  0  0  0  0  0  0  0  0  0  0  0
    6.4330   -1.0726    0.7481 H   0  0  0  0  0  0  0  0  0  0  0  0
    5.8179   -0.9442    2.3943 H   0  0  0  0  0  0  0  0  0  0  0  0
    6.5906    1.4284    0.6009 H   0  0  0  0  0  0  0  0  0  0  0  0
    5.9814    1.5608    2.2662 H   0  0  0  0  0  0  0  0  0  0  0  0
    5.4247    3.3593    0.9764 H   0  0  0  0  0  0  0  0  0  0  0  0
    0.8458    2.6147   -0.7019 H   0  0  0  0  0  0  0  0  0  0  0  0
    2.8504   -0.4523    0.1972 H   0  0  0  0  0  0  0  0  0  0  0  0
    0.7499    4.8665   -0.9143 H   0  0  0  0  0  0  0  0  0  0  0  0
  1 20  1  0  0  0  0
  2 10  1  0  0  0  0
  3 24  1  0  0  0  0
  3 25  1  0  0  0  0
  4 27  1  0  0  0  0
  4 15  1  0  0  0  0
  5 32  1  0  0  0  0
  5 30  1  0  0  0  0
  5 31  1  0  0  0  0
  6 15  1  0  0  0  0
  6 34  1  0  0  0  0
  7  6  1  0  0  0  0
  7 36  1  0  0  0  0
  8 37  1  0  0  0  0
  9 13  2  0  0  0  0
  9 12  1  0  0  0  0
 10 12  1  0  0  0  0
 10 39  1  0  0  0  0
 10  1  1  0  0  0  0
 11  3  1  0  0  0  0
 11  8  2  0  0  0  0
 12 14  2  0  0  0  0
 13 11  1  0  0  0  0
 14  8  1  0  0  0  0
 14 17  1  0  0  0  0
 15  5  1  0  0  0  0
 16 13  1  0  0  0  0
 17  7  1  0  0  0  0
 18  1  1  0  0  0  0
 19  1  1  0  0  0  0
 21  2  1  0  0  0  0
 22  2  1  0  0  0  0
 23  2  1  0  0  0  0
 26  3  1  0  0  0  0
 28  4  1  0  0  0  0
 29  4  1  0  0  0  0
 33  6  1  0  0  0  0
 35  7  1  0  0  0  0
 38  9  1  0  0  0  0
 40 16  1  0  0  0  0
M  END
>  <HBA>
3

>  <HBD>
1

>  <TPSA>
32.7

>  <cid>
28093

>  <dipole>
0.21

>  <excitation_energy_1>
4.552

>  <excitation_energy_2>
4.586

>  <excitation_energy_3>
4.883

>  <excitation_energy_4>
5.032

>  <homo_energy>
-5.162

>  <homo_lumo_gap>
5.344

>  <logP>
2.764

>  <lumo_energy>
0.182

>  <melting_point>
58.39

>  <molecular_refractivity>
71.82

>  <oscillator_strength_1>
0.0023

>  <oscillator_strength_2>
0.0953

>  <oscillator_strength_3>
0.0043

>  <oscillator_strength_4>
0.0135

>  <open_babel_can_smiles>
CN(CCOc1cc(C)c(cc1C(C)C)O)C

>  <mulliken_charges>
40
1   -0.435303
2   -0.439057
3   -0.515279
4   -0.299413
5   -0.299477
6   -0.156312
7   -0.034904
8   -0.265626
9   -0.266506
10   -0.154638
11   0.141435
12   0.12336
13   0.298227
14   0.320986
15   -0.360253
16   -0.654614
17   -0.538854
18   0.138109
19   0.135474
20   0.149811
21   0.139175
22   0.149295
23   0.134828
24   0.143569
25   0.165965
26   0.166358
27   0.150106
28   0.120108
29   0.150297
30   0.150071
31   0.150405
32   0.120117
33   0.150296
34   0.150612
35   0.138427
36   0.138356
37   0.124826
38   0.109619
39   0.15586
40   0.404542

>  <lowdin_charges>
40
1   -0.438225
2   -0.441182
3   -0.435782
4   -0.354447
5   -0.354618
6   -0.211295
7   -0.146022
8   -0.209858
9   -0.208987
10   -0.122497
11   -0.02343
12   -0.022303
13   0.076978
14   0.075614
15   -0.180185
16   -0.390222
17   -0.211107
18   0.145369
19   0.143471
20   0.151811
21   0.146206
22   0.152996
23   0.142693
24   0.150852
25   0.164418
26   0.163131
27   0.149918
28   0.117758
29   0.151103
30   0.150075
31   0.152371
32   0.117284
33   0.150219
34   0.151693
35   0.138537
36   0.13704
37   0.158713
38   0.148109
39   0.158438
40   0.355364

$$$$

