PCCDB-ID:  3279
public computational chemistry database (PCCDB) project, http://pccdb.org

 38 37  0  0  1  0  0  0  0  0999 V2000
    0.1579    1.4848   -0.2969 C   0  0  0  0  0  0  0  0  0  0  0  0
    7.1691    6.7057   -1.3433 C   0  0  0  0  0  0  0  0  0  0  0  0
    1.6377    1.8232   -0.5216 C   0  0  0  0  0  0  0  0  0  0  0  0
    7.7929    6.2898   -0.0093 C   0  0  0  0  0  0  0  0  0  0  0  0
    4.3512    2.8619    0.3581 C   0  0  0  0  0  0  0  0  0  0  0  0
    5.8664    3.0510    0.2659 C   0  0  0  0  0  0  0  0  0  0  0  0
    2.4733   -0.4218    0.3051 C   0  0  0  0  0  0  0  0  0  0  0  0
    8.4602    4.3766    1.5347 C   0  0  0  0  0  0  0  0  0  0  0  0
    2.6011    1.1066    0.4389 C   0  0  1  0  0  0  0  0  0  0  0  0
    7.6361    4.7875    0.2978 C   0  0  1  0  0  0  0  0  0  0  0  0
    4.0019    1.4546    0.1664 N   0  0  0  0  0  0  0  0  0  0  0  0
    6.2113    4.4602    0.4338 N   0  0  0  0  0  0  0  0  0  0  0  0
    3.5002   -1.1262    1.0057 O   0  0  0  0  0  0  0  0  0  0  0  0
    7.9782    4.9893    2.7320 O   0  0  0  0  0  0  0  0  0  0  0  0
   -0.4807    2.1090   -0.9316 H   0  0  0  0  0  0  0  0  0  0  0  0
   -0.1354    1.6637    0.7450 H   0  0  0  0  0  0  0  0  0  0  0  0
   -0.0719    0.4398   -0.5322 H   0  0  0  0  0  0  0  0  0  0  0  0
    7.2443    7.7881   -1.4973 H   0  0  0  0  0  0  0  0  0  0  0  0
    6.1140    6.4199   -1.3694 H   0  0  0  0  0  0  0  0  0  0  0  0
    7.6738    6.2132   -2.1839 H   0  0  0  0  0  0  0  0  0  0  0  0
    1.7648    2.9067   -0.4128 H   0  0  0  0  0  0  0  0  0  0  0  0
    1.9318    1.5806   -1.5519 H   0  0  0  0  0  0  0  0  0  0  0  0
    7.3267    6.8674    0.8028 H   0  0  0  0  0  0  0  0  0  0  0  0
    8.8627    6.5454   -0.0015 H   0  0  0  0  0  0  0  0  0  0  0  0
    3.8850    3.4709   -0.4221 H   0  0  0  0  0  0  0  0  0  0  0  0
    3.9909    3.2578    1.3297 H   0  0  0  0  0  0  0  0  0  0  0  0
    6.2007    2.7269   -0.7270 H   0  0  0  0  0  0  0  0  0  0  0  0
    6.3580    2.3798    0.9988 H   0  0  0  0  0  0  0  0  0  0  0  0
    2.4770   -0.6941   -0.7609 H   0  0  0  0  0  0  0  0  0  0  0  0
    1.5268   -0.7588    0.7370 H   0  0  0  0  0  0  0  0  0  0  0  0
    9.5276    4.5987    1.3759 H   0  0  0  0  0  0  0  0  0  0  0  0
    8.3721    3.2995    1.7080 H   0  0  0  0  0  0  0  0  0  0  0  0
    2.3203    1.3836    1.4758 H   0  0  0  0  0  0  0  0  0  0  0  0
    8.0261    4.2212   -0.5611 H   0  0  0  0  0  0  0  0  0  0  0  0
    4.5516    0.9121    0.8326 H   0  0  0  0  0  0  0  0  0  0  0  0
    5.9221    4.7659    1.3640 H   0  0  0  0  0  0  0  0  0  0  0  0
    4.2649   -1.1694    0.4120 H   0  0  0  0  0  0  0  0  0  0  0  0
    8.2144    5.9288    2.6959 H   0  0  0  0  0  0  0  0  0  0  0  0
  1 16  1  0  0  0  0
  2  4  1  0  0  0  0
  3 21  1  0  0  0  0
  3  1  1  0  0  0  0
  3  9  1  0  0  0  0
  4 24  1  0  0  0  0
  4 10  1  0  0  0  0
  4 23  1  0  0  0  0
  5 26  1  0  0  0  0
  6  5  1  0  0  0  0
  6 12  1  0  0  0  0
  6 28  1  0  0  0  0
  7  9  1  0  0  0  0
  7 30  1  0  0  0  0
  7 13  1  0  0  0  0
  8 32  1  0  0  0  0
  8 14  1  0  0  0  0
  9 33  1  1  0  0  0
 10 34  1  6  0  0  0
 10 12  1  0  0  0  0
 10  8  1  0  0  0  0
 11  5  1  0  0  0  0
 11  9  1  0  0  0  0
 11 35  1  0  0  0  0
 12 36  1  0  0  0  0
 15  1  1  0  0  0  0
 17  1  1  0  0  0  0
 18  2  1  0  0  0  0
 19  2  1  0  0  0  0
 20  2  1  0  0  0  0
 22  3  1  0  0  0  0
 25  5  1  0  0  0  0
 27  6  1  0  0  0  0
 29  7  1  0  0  0  0
 31  8  1  0  0  0  0
 37 13  1  0  0  0  0
 38 14  1  0  0  0  0
M  END
>  <HBA>
4

>  <HBD>
4

>  <TPSA>
64.52

>  <cid>
3279

>  <dipole>
1.95

>  <excitation_energy_1>
5.247

>  <excitation_energy_2>
5.411

>  <excitation_energy_3>
5.538

>  <excitation_energy_4>
5.709

>  <homo_energy>
-5.823

>  <homo_lumo_gap>
7.513

>  <logP>
0.489

>  <lumo_energy>
1.69

>  <melting_point>
62.38

>  <molecular_refractivity>
58.11

>  <oscillator_strength_1>
0.0035

>  <oscillator_strength_2>
0.0146

>  <oscillator_strength_3>
0.0043

>  <oscillator_strength_4>
0.0087

>  <open_babel_can_smiles>
CC[C@H](NCCN[C@H](CO)CC)CO

>  <mulliken_charges>
38
1   -0.45559
2   -0.440076
3   -0.264539
4   -0.262718
5   -0.118523
6   -0.129689
7   -0.049756
8   -0.056435
9   0.060779
10   0.032212
11   -0.598295
12   -0.560252
13   -0.62368
14   -0.619328
15   0.146624
16   0.146061
17   0.148299
18   0.136628
19   0.169836
20   0.136048
21   0.142455
22   0.139837
23   0.120678
24   0.123541
25   0.15635
26   0.107635
27   0.148764
28   0.107482
29   0.126735
30   0.147271
31   0.120583
32   0.149294
33   0.105161
34   0.121938
35   0.291272
36   0.300619
37   0.397019
38   0.395759

>  <lowdin_charges>
38
1   -0.446334
2   -0.442401
3   -0.277
4   -0.281995
5   -0.206745
6   -0.206114
7   -0.141313
8   -0.148638
9   -0.077875
10   -0.084531
11   -0.376026
12   -0.356612
13   -0.467938
14   -0.468497
15   0.154224
16   0.14749
17   0.146762
18   0.145228
19   0.159692
20   0.145138
21   0.14532
22   0.143867
23   0.136017
24   0.135354
25   0.150144
26   0.115074
27   0.145849
28   0.113806
29   0.130394
30   0.148296
31   0.127281
32   0.145677
33   0.115025
34   0.141182
35   0.249201
36   0.25325
37   0.346296
38   0.341455

$$$$

