PCCDB-ID:  117
public computational chemistry database (PCCDB) project, http://pccdb.org

 14 14  0  0  0  0  0  0  0  0999 V2000
   -0.8354   -0.0559    0.6108 C   0  0  0  0  0  0  0  0  0  0  0  0
    1.2453   -0.3632    0.1939 C   0  0  0  0  0  0  0  0  0  0  0  0
    0.9809    0.9371   -0.2058 C   0  0  0  0  0  0  0  0  0  0  0  0
    2.5442   -1.0226    0.1437 C   0  0  0  0  0  0  0  0  0  0  0  0
    1.7918    1.8597   -0.8309 N   0  0  0  0  0  0  0  0  0  0  0  0
    0.0992   -0.9620    0.6967 N   0  0  0  0  0  0  0  0  0  0  0  0
   -0.3520    1.1241    0.0687 N   0  0  0  0  0  0  0  0  0  0  0  0
    3.5531   -0.4871   -0.2893 O   0  0  0  0  0  0  0  0  0  0  0  0
    2.5604   -2.2851    0.6240 O   0  0  0  0  0  0  0  0  0  0  0  0
   -1.8650   -0.1607    0.9234 H   0  0  0  0  0  0  0  0  0  0  0  0
    1.7500    2.8040   -0.4614 H   0  0  0  0  0  0  0  0  0  0  0  0
    2.7459    1.5018   -0.8657 H   0  0  0  0  0  0  0  0  0  0  0  0
   -0.8952    1.9421   -0.1695 H   0  0  0  0  0  0  0  0  0  0  0  0
    1.6493   -2.4962    0.9120 H   0  0  0  0  0  0  0  0  0  0  0  0
  1  6  2  0  0  0  0
  1 10  1  0  0  0  0
  2  6  1  0  0  0  0
  3  7  1  0  0  0  0
  3  2  2  0  0  0  0
  4  2  1  0  0  0  0
  4  9  1  0  0  0  0
  5 11  1  0  0  0  0
  5  3  1  0  0  0  0
  7  1  1  0  0  0  0
  8  4  2  0  0  0  0
  9 14  1  0  0  0  0
 12  5  1  0  0  0  0
 13  7  1  0  0  0  0
M  END
>  <HBA>
4

>  <HBD>
3

>  <TPSA>
92.0

>  <cid>
117

>  <dipole>
6.71

>  <excitation_energy_1>
4.764

>  <excitation_energy_2>
5.105

>  <excitation_energy_3>
5.373

>  <excitation_energy_4>
5.488

>  <homo_energy>
-5.889

>  <homo_lumo_gap>
5.652

>  <logP>
0.271

>  <lumo_energy>
-0.237

>  <melting_point>
207.58

>  <molecular_refractivity>
29.95

>  <oscillator_strength_1>
0.0065

>  <oscillator_strength_2>
0.1625

>  <oscillator_strength_3>
0.0322

>  <oscillator_strength_4>
0.026

>  <open_babel_can_smiles>
Nc1c(nc[nH]1)C(=O)O

>  <mulliken_charges>
14
1   0.222599
2   0.115389
3   0.47934
4   0.590787
5   -0.793002
6   -0.523486
7   -0.622028
8   -0.51209
9   -0.589945
10   0.167459
11   0.325201
12   0.370996
13   0.339289
14   0.429491

>  <lowdin_charges>
14
1   -0.081554
2   -0.113432
3   0.087315
4   0.193807
5   -0.473841
6   -0.189537
7   -0.196568
8   -0.294822
9   -0.350995
10   0.171718
11   0.281171
12   0.303219
13   0.299332
14   0.364188

$$$$

