PCCDB-ID:  70721
public computational chemistry database (PCCDB) project, http://pccdb.org

 18 19  0  0  0  0  0  0  0  0999 V2000
   -1.2603   -0.6135    1.2329 C   0  0  0  0  0  0  0  0  0  0  0  0
   -0.8586    0.7303    0.7340 C   0  0  0  0  0  0  0  0  0  0  0  0
   -1.0958   -0.9151   -3.8991 C   0  0  0  0  0  0  0  0  0  0  0  0
   -1.4879   -2.2621   -3.4014 C   0  0  0  0  0  0  0  0  0  0  0  0
   -0.5338   -0.5024   -0.1030 C   0  0  0  0  0  0  0  0  0  0  0  0
   -0.6529   -1.3520   -2.5070 C   0  0  0  0  0  0  0  0  0  0  0  0
   -1.3391   -0.7208   -1.3410 C   0  0  0  0  0  0  0  0  0  0  0  0
   -2.5202   -0.3947   -1.3977 O   0  0  0  0  0  0  0  0  0  0  0  0
   -2.3116   -0.8776    1.1721 H   0  0  0  0  0  0  0  0  0  0  0  0
   -0.7104   -1.0574    2.0577 H   0  0  0  0  0  0  0  0  0  0  0  0
   -0.0236    1.2414    1.2044 H   0  0  0  0  0  0  0  0  0  0  0  0
   -1.6392    1.3721    0.3370 H   0  0  0  0  0  0  0  0  0  0  0  0
   -1.8628   -0.1471   -3.9250 H   0  0  0  0  0  0  0  0  0  0  0  0
   -0.3247   -0.8361   -4.6600 H   0  0  0  0  0  0  0  0  0  0  0  0
   -0.9951   -3.1403   -3.8083 H   0  0  0  0  0  0  0  0  0  0  0  0
   -2.5192   -2.4025   -3.0923 H   0  0  0  0  0  0  0  0  0  0  0  0
    0.5034   -0.8237   -0.1337 H   0  0  0  0  0  0  0  0  0  0  0  0
    0.3943   -1.6086   -2.3752 H   0  0  0  0  0  0  0  0  0  0  0  0
  1 10  1  0  0  0  0
  2 11  1  0  0  0  0
  2  1  1  0  0  0  0
  3  4  1  0  0  0  0
  3  6  1  0  0  0  0
  4 16  1  0  0  0  0
  4  6  1  0  0  0  0
  5  2  1  0  0  0  0
  5  1  1  0  0  0  0
  6 18  1  0  0  0  0
  6  7  1  0  0  0  0
  7  5  1  0  0  0  0
  8  7  2  0  0  0  0
  9  1  1  0  0  0  0
 12  2  1  0  0  0  0
 13  3  1  0  0  0  0
 14  3  1  0  0  0  0
 15  4  1  0  0  0  0
 17  5  1  0  0  0  0
M  END
>  <HBA>
1

>  <HBD>
0

>  <TPSA>
17.07

>  <cid>
70721

>  <dipole>
2.56

>  <excitation_energy_1>
4.487

>  <excitation_energy_2>
6.199

>  <excitation_energy_3>
6.571

>  <excitation_energy_4>
6.591

>  <homo_energy>
-6.596

>  <homo_lumo_gap>
6.231

>  <logP>
1.375

>  <lumo_energy>
-0.365

>  <melting_point>
39.32

>  <molecular_refractivity>
31.73

>  <oscillator_strength_1>
0.0

>  <oscillator_strength_2>
0.0028

>  <oscillator_strength_3>
0.0

>  <oscillator_strength_4>
0.0036

>  <open_babel_can_smiles>
O=C(C1CC1)C1CC1

>  <mulliken_charges>
18
1   -0.298266
2   -0.298507
3   -0.298475
4   -0.298411
5   -0.209275
6   -0.209221
7   0.490951
8   -0.510191
9   0.181345
10   0.156214
11   0.156273
12   0.181218
13   0.181357
14   0.156242
15   0.156266
16   0.18122
17   0.14065
18   0.140612

>  <lowdin_charges>
18
1   -0.288477
2   -0.291134
3   -0.289761
4   -0.288818
5   -0.19405
6   -0.194053
7   0.170281
8   -0.283603
9   0.172661
10   0.163018
11   0.162986
12   0.174975
13   0.174532
14   0.162629
15   0.162722
16   0.172861
17   0.156694
18   0.156536

$$$$

