PCCDB-ID:  18984
public computational chemistry database (PCCDB) project, http://pccdb.org

 25 25  0  0  0  0  0  0  0  0999 V2000
    0.3975    0.4225   -1.1552 C   0  0  0  0  0  0  0  0  0  0  0  0
    1.6252    0.4777   -2.0696 C   0  0  0  0  0  0  0  0  0  0  0  0
    2.5638   -0.7202   -1.8801 C   0  0  0  0  0  0  0  0  0  0  0  0
    2.7821   -1.5133   -6.2973 C   0  0  0  0  0  0  0  0  0  0  0  0
    3.6160   -0.2367   -6.4846 C   0  0  0  0  0  0  0  0  0  0  0  0
    3.8130   -0.6829   -2.7738 C   0  0  0  0  0  0  0  0  0  0  0  0
    3.1455   -1.9839   -4.8720 C   0  0  0  0  0  0  0  0  0  0  0  0
    3.8589    0.2701   -5.0612 C   0  0  0  0  0  0  0  0  0  0  0  0
    3.5280   -0.7491   -4.1983 N   0  0  0  0  0  0  0  0  0  0  0  0
    4.2919    1.3650   -4.7360 O   0  0  0  0  0  0  0  0  0  0  0  0
   -0.2582    1.2862   -1.3145 H   0  0  0  0  0  0  0  0  0  0  0  0
    0.6887    0.4172   -0.0974 H   0  0  0  0  0  0  0  0  0  0  0  0
   -0.1957   -0.4826   -1.3378 H   0  0  0  0  0  0  0  0  0  0  0  0
    2.1835    1.4056   -1.8866 H   0  0  0  0  0  0  0  0  0  0  0  0
    1.3026    0.5222   -3.1177 H   0  0  0  0  0  0  0  0  0  0  0  0
    2.0103   -1.6550   -2.0532 H   0  0  0  0  0  0  0  0  0  0  0  0
    2.9043   -0.7613   -0.8356 H   0  0  0  0  0  0  0  0  0  0  0  0
    2.9824   -2.2832   -7.0473 H   0  0  0  0  0  0  0  0  0  0  0  0
    1.7141   -1.2740   -6.3414 H   0  0  0  0  0  0  0  0  0  0  0  0
    3.1339    0.5347   -7.0902 H   0  0  0  0  0  0  0  0  0  0  0  0
    4.5941   -0.4434   -6.9386 H   0  0  0  0  0  0  0  0  0  0  0  0
    4.4840   -1.5136   -2.5086 H   0  0  0  0  0  0  0  0  0  0  0  0
    4.3595    0.2527   -2.6204 H   0  0  0  0  0  0  0  0  0  0  0  0
    3.9836   -2.6999   -4.8767 H   0  0  0  0  0  0  0  0  0  0  0  0
    2.3035   -2.4678   -4.3647 H   0  0  0  0  0  0  0  0  0  0  0  0
  1 12  1  0  0  0  0
  2 14  1  0  0  0  0
  2  3  1  0  0  0  0
  2  1  1  0  0  0  0
  3 17  1  0  0  0  0
  4  7  1  0  0  0  0
  5  4  1  0  0  0  0
  5  8  1  0  0  0  0
  6 23  1  0  0  0  0
  6 22  1  0  0  0  0
  6  3  1  0  0  0  0
  7 25  1  0  0  0  0
  7  9  1  0  0  0  0
  8 10  2  0  0  0  0
  8  9  1  0  0  0  0
  9  6  1  0  0  0  0
 11  1  1  0  0  0  0
 13  1  1  0  0  0  0
 15  2  1  0  0  0  0
 16  3  1  0  0  0  0
 18  4  1  0  0  0  0
 19  4  1  0  0  0  0
 20  5  1  0  0  0  0
 21  5  1  0  0  0  0
 24  7  1  0  0  0  0
M  END
>  <HBA>
2

>  <HBD>
0

>  <TPSA>
20.31

>  <cid>
18984

>  <dipole>
3.61

>  <excitation_energy_1>
5.632

>  <excitation_energy_2>
5.82

>  <excitation_energy_3>
6.152

>  <excitation_energy_4>
6.21

>  <homo_energy>
-6.332

>  <homo_lumo_gap>
7.306

>  <logP>
1.347

>  <lumo_energy>
0.974

>  <melting_point>
18.71

>  <molecular_refractivity>
45.47

>  <oscillator_strength_1>
0.0015

>  <oscillator_strength_2>
0.0224

>  <oscillator_strength_3>
0.0058

>  <oscillator_strength_4>
0.0425

>  <open_babel_can_smiles>
CCCCN1CCCC1=O

>  <mulliken_charges>
25
1   -0.442928
2   -0.243921
3   -0.256175
4   -0.298631
5   -0.370493
6   -0.149476
7   -0.120079
8   0.587457
9   -0.414606
10   -0.521529
11   0.145219
12   0.141233
13   0.137597
14   0.145808
15   0.139399
16   0.126932
17   0.134404
18   0.149658
19   0.157349
20   0.172851
21   0.169802
22   0.134819
23   0.181686
24   0.141562
25   0.152063

>  <lowdin_charges>
25
1   -0.443454
2   -0.272367
3   -0.280443
4   -0.281105
5   -0.306657
6   -0.199405
7   -0.19588
8   0.146279
9   -0.109628
10   -0.308465
11   0.151488
12   0.144383
13   0.1445
14   0.147664
15   0.142421
16   0.136494
17   0.144161
18   0.154345
19   0.151516
20   0.170006
21   0.166008
22   0.142323
23   0.170949
24   0.136442
25   0.148424

$$$$

