PCCDB-ID:  18144
public computational chemistry database (PCCDB) project, http://pccdb.org

 28 28  0  0  1  0  0  0  0  0999 V2000
    0.9086    0.9419    0.6073 C   0  0  0  0  0  0  0  0  0  0  0  0
    9.6027    3.2860    1.4025 C   0  0  0  0  0  0  0  0  0  0  0  0
    3.1700    1.3117   -0.0073 C   0  0  0  0  0  0  0  0  0  0  0  0
    7.4291    2.5577    2.0118 C   0  0  0  0  0  0  0  0  0  0  0  0
    5.0646   -0.0774    0.9122 C   0  0  2  0  0  0  0  0  0  0  0  0
    6.5059    0.3276    1.2762 C   0  0  2  0  0  0  0  0  0  0  0  0
    5.2103    2.2709    0.9821 C   0  0  0  0  0  0  0  0  0  0  0  0
    4.5059    1.1879    0.4627 N   0  0  0  0  0  0  0  0  0  0  0  0
    6.3479    1.7401    1.5841 N   0  0  0  0  0  0  0  0  0  0  0  0
    4.4280   -0.5884    2.0628 O   0  0  0  0  0  0  0  0  0  0  0  0
    7.3418    0.0924    0.1644 O   0  0  0  0  0  0  0  0  0  0  0  0
    4.8948    3.4446    0.9223 O   0  0  0  0  0  0  0  0  0  0  0  0
    2.2628    0.9026    1.0246 O   0  0  0  0  0  0  0  0  0  0  0  0
    8.4542    2.5536    1.0098 O   0  0  0  0  0  0  0  0  0  0  0  0
    0.3035    0.6071    1.4523 H   0  0  0  0  0  0  0  0  0  0  0  0
    0.7284    0.2767   -0.2516 H   0  0  0  0  0  0  0  0  0  0  0  0
    0.6070    1.9628    0.3311 H   0  0  0  0  0  0  0  0  0  0  0  0
   10.3179    3.2247    0.5796 H   0  0  0  0  0  0  0  0  0  0  0  0
   10.0612    2.8665    2.3116 H   0  0  0  0  0  0  0  0  0  0  0  0
    9.3574    4.3420    1.5873 H   0  0  0  0  0  0  0  0  0  0  0  0
    3.0197    0.6706   -0.8898 H   0  0  0  0  0  0  0  0  0  0  0  0
    3.0011    2.3609   -0.2771 H   0  0  0  0  0  0  0  0  0  0  0  0
    7.8481    2.1681    2.9527 H   0  0  0  0  0  0  0  0  0  0  0  0
    7.0448    3.5725    2.1689 H   0  0  0  0  0  0  0  0  0  0  0  0
    5.0664   -0.8044    0.0901 H   0  0  0  0  0  0  0  0  0  0  0  0
    6.8451   -0.2188    2.1654 H   0  0  0  0  0  0  0  0  0  0  0  0
    3.4813   -0.3706    1.9774 H   0  0  0  0  0  0  0  0  0  0  0  0
    8.0599    0.7502    0.2132 H   0  0  0  0  0  0  0  0  0  0  0  0
  1 13  1  0  0  0  0
  1 15  1  0  0  0  0
  2 20  1  0  0  0  0
  2 19  1  0  0  0  0
  3  8  1  0  0  0  0
  3 13  1  0  0  0  0
  4 24  1  0  0  0  0
  4 23  1  0  0  0  0
  5 25  1  6  0  0  0
  5  6  1  0  0  0  0
  5 10  1  0  0  0  0
  6  9  1  0  0  0  0
  6 26  1  1  0  0  0
  7  9  1  0  0  0  0
  8  5  1  0  0  0  0
  8  7  1  0  0  0  0
  9  4  1  0  0  0  0
 11 28  1  0  0  0  0
 11  6  1  0  0  0  0
 12  7  2  0  0  0  0
 14  2  1  0  0  0  0
 14  4  1  0  0  0  0
 16  1  1  0  0  0  0
 17  1  1  0  0  0  0
 18  2  1  0  0  0  0
 21  3  1  0  0  0  0
 22  3  1  0  0  0  0
 27 10  1  0  0  0  0
M  END
>  <HBA>
7

>  <HBD>
2

>  <TPSA>
82.47

>  <cid>
18144

>  <dipole>
0.17

>  <excitation_energy_1>
6.479

>  <excitation_energy_2>
6.635

>  <excitation_energy_3>
6.731

>  <excitation_energy_4>
6.874

>  <homo_energy>
-7.042

>  <homo_lumo_gap>
8.139

>  <logP>
-1.556

>  <lumo_energy>
1.097

>  <melting_point>
51.68

>  <molecular_refractivity>
52.35

>  <oscillator_strength_1>
0.0033

>  <oscillator_strength_2>
0.1651

>  <oscillator_strength_3>
0.0194

>  <oscillator_strength_4>
0.021

>  <open_babel_can_smiles>
COCN1[C@H](O)[C@H](N(C1=O)COC)O

>  <mulliken_charges>
28
1   -0.202724
2   -0.202862
3   0.097121
4   0.097143
5   0.247301
6   0.246458
7   0.820534
8   -0.506088
9   -0.505826
10   -0.642658
11   -0.641615
12   -0.537252
13   -0.480732
14   -0.480274
15   0.170037
16   0.13968
17   0.14886
18   0.170066
19   0.139733
20   0.148545
21   0.1391
22   0.17732
23   0.138724
24   0.177495
25   0.15273
26   0.152605
27   0.418571
28   0.418009

>  <lowdin_charges>
28
1   -0.280996
2   -0.2806
3   -0.066072
4   -0.067182
5   0.046179
6   0.047014
7   0.190228
8   -0.122429
9   -0.123597
10   -0.465806
11   -0.467483
12   -0.306186
13   -0.287856
14   -0.287105
15   0.16351
16   0.137439
17   0.142297
18   0.163181
19   0.137364
20   0.141164
21   0.136729
22   0.162263
23   0.1362
24   0.163031
25   0.146664
26   0.146337
27   0.346929
28   0.348784

$$$$

