PCCDB-ID:  27851
public computational chemistry database (PCCDB) project, http://pccdb.org

 28 27  0  0  0  0  0  0  0  0999 V2000
    0.9431    0.4000    0.4944 C   0  0  0  0  0  0  0  0  0  0  0  0
    8.8324   -0.1443   -5.9019 C   0  0  0  0  0  0  0  0  0  0  0  0
    2.4211    0.0369    0.3184 C   0  0  0  0  0  0  0  0  0  0  0  0
    2.9308    0.2552   -1.1121 C   0  0  0  0  0  0  0  0  0  0  0  0
    4.4111   -0.1024   -1.2964 C   0  0  0  0  0  0  0  0  0  0  0  0
    4.9077    0.1150   -2.7314 C   0  0  0  0  0  0  0  0  0  0  0  0
    6.3885   -0.2393   -2.8941 C   0  0  0  0  0  0  0  0  0  0  0  0
    6.8760   -0.0265   -4.3171 C   0  0  0  0  0  0  0  0  0  0  0  0
    9.0012   -0.7558   -3.5334 N   0  0  0  0  0  0  0  0  0  0  0  0
    8.2434   -0.3146   -4.5760 N   0  0  0  0  0  0  0  0  0  0  0  0
    6.1714    0.3682   -5.2244 O   0  0  0  0  0  0  0  0  0  0  0  0
   10.1612   -0.9819   -3.8298 O   0  0  0  0  0  0  0  0  0  0  0  0
    0.6100    0.2328    1.5250 H   0  0  0  0  0  0  0  0  0  0  0  0
    0.3056   -0.2031   -0.1639 H   0  0  0  0  0  0  0  0  0  0  0  0
    0.7626    1.4545    0.2525 H   0  0  0  0  0  0  0  0  0  0  0  0
    8.0492    0.2298   -6.5576 H   0  0  0  0  0  0  0  0  0  0  0  0
    9.2157   -1.1031   -6.2613 H   0  0  0  0  0  0  0  0  0  0  0  0
    9.6649    0.5618   -5.8454 H   0  0  0  0  0  0  0  0  0  0  0  0
    2.5765   -1.0139    0.6016 H   0  0  0  0  0  0  0  0  0  0  0  0
    3.0296    0.6319    1.0142 H   0  0  0  0  0  0  0  0  0  0  0  0
    2.7733    1.3060   -1.3971 H   0  0  0  0  0  0  0  0  0  0  0  0
    2.3236   -0.3418   -1.8085 H   0  0  0  0  0  0  0  0  0  0  0  0
    4.5696   -1.1522   -1.0079 H   0  0  0  0  0  0  0  0  0  0  0  0
    5.0185    0.4976   -0.6024 H   0  0  0  0  0  0  0  0  0  0  0  0
    4.7500    1.1594   -3.0270 H   0  0  0  0  0  0  0  0  0  0  0  0
    4.3116   -0.4871   -3.4279 H   0  0  0  0  0  0  0  0  0  0  0  0
    6.5786   -1.2821   -2.6104 H   0  0  0  0  0  0  0  0  0  0  0  0
    7.0140    0.3536   -2.2153 H   0  0  0  0  0  0  0  0  0  0  0  0
  1 13  1  0  0  0  0
  2 18  1  0  0  0  0
  2 10  1  0  0  0  0
  3  1  1  0  0  0  0
  3 19  1  0  0  0  0
  3 20  1  0  0  0  0
  4  3  1  0  0  0  0
  5  4  1  0  0  0  0
  5 23  1  0  0  0  0
  5 24  1  0  0  0  0
  6  5  1  0  0  0  0
  7  6  1  0  0  0  0
  7 27  1  0  0  0  0
  7 28  1  0  0  0  0
  8  7  1  0  0  0  0
 10  8  1  0  0  0  0
 10  9  1  0  0  0  0
 11  8  2  0  0  0  0
 12  9  1  0  0  0  0
 14  1  1  0  0  0  0
 15  1  1  0  0  0  0
 16  2  1  0  0  0  0
 17  2  1  0  0  0  0
 21  4  1  0  0  0  0
 22  4  1  0  0  0  0
 25  6  1  0  0  0  0
 26  6  1  0  0  0  0
M  RAD  2   9   2  12   2
M  END
>  <HBA>
4

>  <HBD>
0

>  <TPSA>
49.74

>  <cid>
27851

>  <dipole>
0.8

>  <excitation_energy_1>
2.943

>  <excitation_energy_2>
4.411

>  <excitation_energy_3>
5.579

>  <excitation_energy_4>
5.809

>  <homo_energy>
-6.77

>  <homo_lumo_gap>
4.713

>  <logP>
2.097

>  <lumo_energy>
-2.057

>  <melting_point>
15.19

>  <molecular_refractivity>
48.4

>  <oscillator_strength_1>
0.0009

>  <oscillator_strength_2>
0.0

>  <oscillator_strength_3>
0.2295

>  <oscillator_strength_4>
0.0

>  <open_babel_can_smiles>
CCCCCCC(=O)N([N][O])C

>  <mulliken_charges>
28
1   -0.441582
2   -0.333519
3   -0.247388
4   -0.246844
5   -0.258912
6   -0.251664
7   -0.358753
8   0.611652
9   0.177649
10   -0.300386
11   -0.461467
12   -0.338028
13   0.142534
14   0.142143
15   0.142132
16   0.208004
17   0.186974
18   0.187242
19   0.13066
20   0.130679
21   0.129722
22   0.129818
23   0.129182
24   0.129189
25   0.149451
26   0.150103
27   0.180676
28   0.180734

>  <lowdin_charges>
28
1   -0.443503
2   -0.372222
3   -0.272035
4   -0.274019
5   -0.275027
6   -0.270443
7   -0.306699
8   0.186598
9   0.068634
10   -0.041902
11   -0.245247
12   -0.213243
13   0.148851
14   0.148071
15   0.145375
16   0.189865
17   0.172488
18   0.173161
19   0.137667
20   0.140392
21   0.137744
22   0.140494
23   0.137187
24   0.139868
25   0.149627
26   0.152608
27   0.171614
28   0.174096

$$$$

