PCCDB-ID:  14461
public computational chemistry database (PCCDB) project, http://pccdb.org

 15 14  0  0  0  0  0  0  0  0999 V2000
    0.9636    0.0250    0.2374 C   0  0  0  0  0  0  0  0  0  0  0  0
    3.1390   -1.0556    0.0160 C   0  0  0  0  0  0  0  0  0  0  0  0
    3.0087    1.3558   -0.1458 C   0  0  0  0  0  0  0  0  0  0  0  0
    4.2451    1.3945    0.2054 N   0  0  0  0  0  0  0  0  0  0  0  0
    2.1991    2.4649   -0.4610 N   0  0  0  0  0  0  0  0  0  0  0  0
    2.3402    0.1363   -0.2370 N   0  0  0  0  0  0  0  0  0  0  0  0
    0.4494   -0.7726   -0.3112 H   0  0  0  0  0  0  0  0  0  0  0  0
    0.4247    0.9599    0.0862 H   0  0  0  0  0  0  0  0  0  0  0  0
    0.9215   -0.2176    1.3124 H   0  0  0  0  0  0  0  0  0  0  0  0
    2.5946   -1.9263   -0.3661 H   0  0  0  0  0  0  0  0  0  0  0  0
    3.3397   -1.2041    1.0880 H   0  0  0  0  0  0  0  0  0  0  0  0
    4.0977   -0.9676   -0.4947 H   0  0  0  0  0  0  0  0  0  0  0  0
    4.6258    2.3350    0.0834 H   0  0  0  0  0  0  0  0  0  0  0  0
    2.7311    3.3224   -0.5479 H   0  0  0  0  0  0  0  0  0  0  0  0
    1.6066    2.3226   -1.2730 H   0  0  0  0  0  0  0  0  0  0  0  0
  1  9  1  0  0  0  0
  2 11  1  0  0  0  0
  3  4  1  0  0  0  0
  5  3  2  0  0  0  0
  6  3  1  0  0  0  0
  6  2  1  0  0  0  0
  6  1  1  0  0  0  0
  7  1  1  0  0  0  0
  8  1  1  0  0  0  0
 10  2  1  0  0  0  0
 12  2  1  0  0  0  0
 13  4  1  0  0  0  0
 14  5  1  0  0  0  0
 15  5  1  0  0  0  0
M  RAD  1   4   2
M  END
>  <HBA>
3

>  <HBD>
2

>  <TPSA>
53.11

>  <cid>
14461

>  <dipole>
2.69

>  <excitation_energy_1>
5.065

>  <excitation_energy_2>
5.694

>  <excitation_energy_3>
5.807

>  <excitation_energy_4>
6.089

>  <homo_energy>
-5.785

>  <homo_lumo_gap>
7.219

>  <logP>
0.241

>  <lumo_energy>
1.434

>  <melting_point>
63.61

>  <molecular_refractivity>
25.73

>  <oscillator_strength_1>
0.0084

>  <oscillator_strength_2>
0.0093

>  <oscillator_strength_3>
0.0033

>  <oscillator_strength_4>
0.0291

>  <open_babel_can_smiles>
CN(C(=[NH2])[NH])C

>  <mulliken_charges>
15
1   -0.311687
2   -0.287184
3   0.574652
4   -0.646474
5   -0.750458
6   -0.411483
7   0.151206
8   0.168331
9   0.147036
10   0.135706
11   0.146867
12   0.183622
13   0.260243
14   0.317554
15   0.32207

>  <lowdin_charges>
15
1   -0.351996
2   -0.347408
3   0.118963
4   -0.47397
5   -0.509902
6   -0.137688
7   0.149608
8   0.162612
9   0.137953
10   0.144944
11   0.140416
12   0.172779
13   0.242294
14   0.274338
15   0.277058

$$$$

