PCCDB-ID:  41504
public computational chemistry database (PCCDB) project, http://pccdb.org

 23 24  0  0  0  0  0  0  0  0999 V2000
   -2.1202   -0.9656   -0.0146 C   0  0  0  0  0  0  0  0  0  0  0  0
   -2.2363    0.4391   -0.0393 C   0  0  0  0  0  0  0  0  0  0  0  0
   -0.8768   -1.5886    0.0144 C   0  0  0  0  0  0  0  0  0  0  0  0
   -1.1132    1.2625   -0.0384 C   0  0  0  0  0  0  0  0  0  0  0  0
    1.8493    3.0737   -1.4775 C   0  0  0  0  0  0  0  0  0  0  0  0
    1.8574    2.5051   -0.0505 C   0  0  0  0  0  0  0  0  0  0  0  0
    2.2476    0.0047    0.0451 C   0  0  0  0  0  0  0  0  0  0  0  0
    0.2671   -0.7802    0.0163 C   0  0  0  0  0  0  0  0  0  0  0  0
    0.1326    0.6297   -0.0111 C   0  0  0  0  0  0  0  0  0  0  0  0
    2.2973    4.4673   -1.4394 N   0  0  0  0  0  0  0  0  0  0  0  0
    1.6093   -1.1371    0.0507 N   0  0  0  0  0  0  0  0  0  0  0  0
    1.4322    1.1160    0.0133 N   0  0  0  0  0  0  0  0  0  0  0  0
   -3.0231   -1.5701   -0.0172 H   0  0  0  0  0  0  0  0  0  0  0  0
   -3.2245    0.8904   -0.0609 H   0  0  0  0  0  0  0  0  0  0  0  0
   -0.7800   -2.6698    0.0364 H   0  0  0  0  0  0  0  0  0  0  0  0
   -1.2108    2.3444   -0.0583 H   0  0  0  0  0  0  0  0  0  0  0  0
    0.8523    2.9185   -1.9239 H   0  0  0  0  0  0  0  0  0  0  0  0
    2.5600    2.5012   -2.0842 H   0  0  0  0  0  0  0  0  0  0  0  0
    1.1999    3.0980    0.5974 H   0  0  0  0  0  0  0  0  0  0  0  0
    2.8675    2.5815    0.3618 H   0  0  0  0  0  0  0  0  0  0  0  0
    3.3256    0.1154    0.0715 H   0  0  0  0  0  0  0  0  0  0  0  0
    1.5558    5.0637   -1.0744 H   0  0  0  0  0  0  0  0  0  0  0  0
    2.4867    4.7978   -2.3830 H   0  0  0  0  0  0  0  0  0  0  0  0
  1  3  2  0  0  0  0
  2  4  2  0  0  0  0
  2  1  1  0  0  0  0
  3  8  1  0  0  0  0
  3 15  1  0  0  0  0
  4  9  1  0  0  0  0
  5 10  1  0  0  0  0
  5  6  1  0  0  0  0
  6 12  1  0  0  0  0
  6 20  1  0  0  0  0
  6 19  1  0  0  0  0
  7 11  2  0  0  0  0
  7 21  1  0  0  0  0
  8 11  1  0  0  0  0
  9 12  1  0  0  0  0
  9  8  2  0  0  0  0
 10 22  1  0  0  0  0
 12  7  1  0  0  0  0
 13  1  1  0  0  0  0
 14  2  1  0  0  0  0
 16  4  1  0  0  0  0
 17  5  1  0  0  0  0
 18  5  1  0  0  0  0
 23 10  1  0  0  0  0
M  END
>  <HBA>
3

>  <HBD>
1

>  <TPSA>
43.84

>  <cid>
41504

>  <dipole>
4.14

>  <excitation_energy_1>
4.871

>  <excitation_energy_2>
5.063

>  <excitation_energy_3>
5.244

>  <excitation_energy_4>
5.386

>  <homo_energy>
-5.932

>  <homo_lumo_gap>
5.636

>  <logP>
1.695

>  <lumo_energy>
-0.297

>  <melting_point>
119.91

>  <molecular_refractivity>
48.51

>  <oscillator_strength_1>
0.0471

>  <oscillator_strength_2>
0.1024

>  <oscillator_strength_3>
0.0196

>  <oscillator_strength_4>
0.0025

>  <open_babel_can_smiles>
NCCn1cnc2c1cccc2

>  <mulliken_charges>
23
1   -0.143734
2   -0.15112
3   -0.174972
4   -0.168901
5   -0.144559
6   -0.151641
7   0.209449
8   0.218328
9   0.3255
10   -0.717953
11   -0.503188
12   -0.498071
13   0.124634
14   0.124544
15   0.138668
16   0.122204
17   0.138722
18   0.154928
19   0.157861
20   0.175968
21   0.156647
22   0.299023
23   0.307663

>  <lowdin_charges>
23
1   -0.172617
2   -0.162042
3   -0.153125
4   -0.188086
5   -0.213888
6   -0.197984
7   -0.066663
8   0.008521
9   0.009549
10   -0.556391
11   -0.192501
12   -0.031044
13   0.157227
14   0.155964
15   0.164276
16   0.153012
17   0.129825
18   0.152384
19   0.155544
20   0.165779
21   0.164246
22   0.256403
23   0.261611

$$$$

