PCCDB-ID:  15123
public computational chemistry database (PCCDB) project, http://pccdb.org

 11 10  0  0  0  0  0  0  0  0999 V2000
    1.8087    1.1291    0.4262 C   0  0  0  0  0  0  0  0  0  0  0  0
    2.2951   -0.0183   -0.0445 C   0  0  0  0  0  0  0  0  0  0  0  0
    2.4804   -0.3148   -1.5099 C   0  0  0  0  0  0  0  0  0  0  0  0
    4.9591   -0.3020   -1.5621 C   0  0  0  0  0  0  0  0  0  0  0  0
    3.8467   -0.6794   -1.8482 N   0  0  0  0  0  0  0  0  0  0  0  0
    6.0954   -0.0453   -1.3728 O   0  0  0  0  0  0  0  0  0  0  0  0
    1.6777    1.2995    1.4911 H   0  0  0  0  0  0  0  0  0  0  0  0
    1.5180    1.9426   -0.2355 H   0  0  0  0  0  0  0  0  0  0  0  0
    2.5854   -0.8165    0.6379 H   0  0  0  0  0  0  0  0  0  0  0  0
    2.1752    0.5470   -2.1163 H   0  0  0  0  0  0  0  0  0  0  0  0
    1.8479   -1.1582   -1.8104 H   0  0  0  0  0  0  0  0  0  0  0  0
  1  7  1  0  0  0  0
  2  1  2  0  0  0  0
  2  9  1  0  0  0  0
  3  2  1  0  0  0  0
  4  6  2  0  0  0  0
  5  4  2  0  0  0  0
  5  3  1  0  0  0  0
  8  1  1  0  0  0  0
 10  3  1  0  0  0  0
 11  3  1  0  0  0  0
M  END
>  <HBA>
2

>  <HBD>
0

>  <TPSA>
29.43

>  <cid>
15123

>  <dipole>
2.88

>  <excitation_energy_1>
6.073

>  <excitation_energy_2>
6.371

>  <excitation_energy_3>
6.663

>  <excitation_energy_4>
6.736

>  <homo_energy>
-7.372

>  <homo_lumo_gap>
7.314

>  <logP>
0.508

>  <lumo_energy>
-0.057

>  <melting_point>
4.94

>  <molecular_refractivity>
23.13

>  <oscillator_strength_1>
0.0028

>  <oscillator_strength_2>
0.0421

>  <oscillator_strength_3>
0.0036

>  <oscillator_strength_4>
0.0244

>  <open_babel_can_smiles>
C=CCN=C=O

>  <mulliken_charges>
11
1   -0.331408
2   -0.05746
3   -0.180273
4   0.624306
5   -0.439957
6   -0.410257
7   0.154038
8   0.14675
9   0.147143
10   0.169589
11   0.17753

>  <lowdin_charges>
11
1   -0.321273
2   -0.159776
3   -0.164564
4   0.176819
5   -0.187256
6   -0.157893
7   0.164837
8   0.160444
9   0.16185
10   0.160594
11   0.166219

$$$$

