PCCDB-ID:  59650
public computational chemistry database (PCCDB) project, http://pccdb.org

 27 28  0  0  1  0  0  0  0  0999 V2000
    1.5788    0.0340   -0.7754 C   0  0  0  0  0  0  0  0  0  0  0  0
    5.6258    0.0721    0.5923 C   0  0  0  0  0  0  0  0  0  0  0  0
    5.2743   -1.2167    1.3615 C   0  0  0  0  0  0  0  0  0  0  0  0
    5.2455    1.3458    1.3732 C   0  0  0  0  0  0  0  0  0  0  0  0
    3.7289    0.0403    2.8975 C   0  0  0  0  0  0  0  0  0  0  0  0
    2.7116   -1.1839    0.9734 C   0  0  0  0  0  0  0  0  0  0  0  0
    2.6840    1.2596    0.9853 C   0  0  0  0  0  0  0  0  0  0  0  0
    3.8645   -1.1960    1.9940 C   0  0  1  0  0  0  0  0  0  0  0  0
    3.8368    1.2877    2.0057 C   0  0  2  0  0  0  0  0  0  0  0  0
    2.6776    0.0415    0.1735 N   0  0  0  0  0  0  0  0  0  0  0  0
    1.6498   -0.8494   -1.4203 H   0  0  0  0  0  0  0  0  0  0  0  0
    1.6307    0.9250   -1.4116 H   0  0  0  0  0  0  0  0  0  0  0  0
    0.5821    0.0209   -0.2886 H   0  0  0  0  0  0  0  0  0  0  0  0
    5.0957    0.0705   -0.3629 H   0  0  0  0  0  0  0  0  0  0  0  0
    6.7013    0.0853    0.3690 H   0  0  0  0  0  0  0  0  0  0  0  0
    5.9985   -1.3635    2.1768 H   0  0  0  0  0  0  0  0  0  0  0  0
    5.3782   -2.0853    0.6973 H   0  0  0  0  0  0  0  0  0  0  0  0
    5.3295    2.2225    0.7168 H   0  0  0  0  0  0  0  0  0  0  0  0
    5.9666    1.5015    2.1897 H   0  0  0  0  0  0  0  0  0  0  0  0
    4.5142    0.0453    3.6659 H   0  0  0  0  0  0  0  0  0  0  0  0
    2.7632    0.0271    3.4214 H   0  0  0  0  0  0  0  0  0  0  0  0
    1.7573   -1.3290    1.5258 H   0  0  0  0  0  0  0  0  0  0  0  0
    2.8074   -2.0329    0.2835 H   0  0  0  0  0  0  0  0  0  0  0  0
    2.7604    2.1172    0.3037 H   0  0  0  0  0  0  0  0  0  0  0  0
    1.7270    1.3775    1.5392 H   0  0  0  0  0  0  0  0  0  0  0  0
    3.7451   -2.1074    2.5960 H   0  0  0  0  0  0  0  0  0  0  0  0
    3.6973    2.1906    2.6163 H   0  0  0  0  0  0  0  0  0  0  0  0
  1 13  1  0  0  0  0
  1 10  1  0  0  0  0
  2  3  1  0  0  0  0
  2  4  1  0  0  0  0
  3  8  1  0  0  0  0
  3 16  1  0  0  0  0
  4  9  1  0  0  0  0
  4 19  1  0  0  0  0
  5 21  1  0  0  0  0
  5 20  1  0  0  0  0
  6 22  1  0  0  0  0
  6  8  1  0  0  0  0
  7 25  1  0  0  0  0
  7  9  1  0  0  0  0
  8 26  1  1  0  0  0
  8  5  1  0  0  0  0
  9 27  1  1  0  0  0
  9  5  1  0  0  0  0
 10  6  1  0  0  0  0
 10  7  1  0  0  0  0
 11  1  1  0  0  0  0
 12  1  1  0  0  0  0
 14  2  1  0  0  0  0
 15  2  1  0  0  0  0
 17  3  1  0  0  0  0
 18  4  1  0  0  0  0
 23  6  1  0  0  0  0
 24  7  1  0  0  0  0
M  END
>  <HBA>
1

>  <HBD>
0

>  <TPSA>
3.24

>  <cid>
59650

>  <dipole>
0.48

>  <excitation_energy_1>
4.958

>  <excitation_energy_2>
5.433

>  <excitation_energy_3>
5.488

>  <excitation_energy_4>
5.671

>  <homo_energy>
-5.508

>  <homo_lumo_gap>
7.491

>  <logP>
1.676

>  <lumo_energy>
1.984

>  <melting_point>
19.24

>  <molecular_refractivity>
47.96

>  <oscillator_strength_1>
0.0176

>  <oscillator_strength_2>
0.0036

>  <oscillator_strength_3>
0.0027

>  <oscillator_strength_4>
0.076

>  <open_babel_can_smiles>
CN1C[C@@H]2CCC[C@H](C1)C2

>  <mulliken_charges>
27
1   -0.289773
2   -0.252735
3   -0.259074
4   -0.25906
5   -0.268442
6   -0.112881
7   -0.112726
8   -0.097252
9   -0.097292
10   -0.381231
11   0.145828
12   0.145834
13   0.114628
14   0.159099
15   0.118564
16   0.12297
17   0.124794
18   0.124779
19   0.122965
20   0.126736
21   0.123911
22   0.101359
23   0.131451
24   0.131408
25   0.101333
26   0.117411
27   0.117399

>  <lowdin_charges>
27
1   -0.354122
2   -0.285477
3   -0.277815
4   -0.277745
5   -0.282193
6   -0.20127
7   -0.201141
8   -0.134857
9   -0.134937
10   -0.183644
11   0.148754
12   0.148727
13   0.117719
14   0.153207
15   0.135656
16   0.137648
17   0.14094
18   0.140885
19   0.137658
20   0.140653
21   0.138628
22   0.112972
23   0.141853
24   0.141785
25   0.112912
26   0.141572
27   0.141633

$$$$

