PCCDB-ID:  12798
public computational chemistry database (PCCDB) project, http://pccdb.org

 25 25  0  0  0  0  0  0  0  0999 V2000
    1.3356    0.3218    0.6644 C   0  0  0  0  0  0  0  0  0  0  0  0
    5.4184   -0.6808   -1.2784 C   0  0  0  0  0  0  0  0  0  0  0  0
    2.5350    0.3558   -0.2970 C   0  0  0  0  0  0  0  0  0  0  0  0
    4.0791   -0.7293   -2.0239 C   0  0  0  0  0  0  0  0  0  0  0  0
    1.5964   -1.1928   -2.0630 C   0  0  0  0  0  0  0  0  0  0  0  0
    2.9303   -2.1898   -0.3175 C   0  0  0  0  0  0  0  0  0  0  0  0
    2.1172   -3.5419   -2.0206 C   0  0  0  0  0  0  0  0  0  0  0  0
    2.8013   -0.9154   -1.1473 C   0  0  0  0  0  0  0  0  0  0  0  0
    2.5850   -3.3579   -0.7099 N   0  0  0  0  0  0  0  0  0  0  0  0
    3.4624   -2.1122    0.9188 O   0  0  0  0  0  0  0  0  0  0  0  0
    2.0669   -4.6230   -2.5474 O   0  0  0  0  0  0  0  0  0  0  0  0
    1.7192   -2.4392   -2.7464 O   0  0  0  0  0  0  0  0  0  0  0  0
    1.3004    1.2484    1.2468 H   0  0  0  0  0  0  0  0  0  0  0  0
    1.3964   -0.5135    1.3700 H   0  0  0  0  0  0  0  0  0  0  0  0
    0.3827    0.2377    0.1335 H   0  0  0  0  0  0  0  0  0  0  0  0
    6.2363   -0.5556   -1.9953 H   0  0  0  0  0  0  0  0  0  0  0  0
    5.6112   -1.6053   -0.7232 H   0  0  0  0  0  0  0  0  0  0  0  0
    5.4790    0.1598   -0.5765 H   0  0  0  0  0  0  0  0  0  0  0  0
    3.4425    0.6149    0.2678 H   0  0  0  0  0  0  0  0  0  0  0  0
    2.4085    1.1888   -1.0008 H   0  0  0  0  0  0  0  0  0  0  0  0
    4.1082   -1.5415   -2.7581 H   0  0  0  0  0  0  0  0  0  0  0  0
    3.9435    0.1988   -2.5959 H   0  0  0  0  0  0  0  0  0  0  0  0
    1.5209   -0.4301   -2.8436 H   0  0  0  0  0  0  0  0  0  0  0  0
    0.6626   -1.1953   -1.4884 H   0  0  0  0  0  0  0  0  0  0  0  0
    3.6978   -1.1917    1.1149 H   0  0  0  0  0  0  0  0  0  0  0  0
  1 13  1  0  0  0  0
  1 14  1  0  0  0  0
  2 17  1  0  0  0  0
  2 18  1  0  0  0  0
  3 19  1  0  0  0  0
  3  1  1  0  0  0  0
  4  2  1  0  0  0  0
  4  8  1  0  0  0  0
  5 24  1  0  0  0  0
  5  8  1  0  0  0  0
  6 10  1  0  0  0  0
  7  9  2  0  0  0  0
  8  6  1  0  0  0  0
  8  3  1  0  0  0  0
  9  6  2  0  0  0  0
 10 25  1  0  0  0  0
 11  7  2  0  0  0  0
 12  5  1  0  0  0  0
 12  7  1  0  0  0  0
 15  1  1  0  0  0  0
 16  2  1  0  0  0  0
 20  3  1  0  0  0  0
 21  4  1  0  0  0  0
 22  4  1  0  0  0  0
 23  5  1  0  0  0  0
M  END
>  <HBA>
4

>  <HBD>
1

>  <TPSA>
55.4

>  <cid>
12798

>  <dipole>
8.15

>  <excitation_energy_1>
4.875

>  <excitation_energy_2>
4.911

>  <excitation_energy_3>
5.989

>  <excitation_energy_4>
6.284

>  <homo_energy>
-7.255

>  <homo_lumo_gap>
6.221

>  <logP>
1.388

>  <lumo_energy>
-1.034

>  <melting_point>
84.72

>  <molecular_refractivity>
46.79

>  <oscillator_strength_1>
0.0011

>  <oscillator_strength_2>
0.0016

>  <oscillator_strength_3>
0.0093

>  <oscillator_strength_4>
0.1491

>  <open_babel_can_smiles>
CCC1(CC)CO[C](=[N]=C1O)=O

>  <mulliken_charges>
25
1   -0.466137
2   -0.480111
3   -0.317532
4   -0.260707
5   -0.045011
6   0.518526
7   0.68266
8   -0.032016
9   -0.468088
10   -0.568191
11   -0.441249
12   -0.456637
13   0.161072
14   0.164709
15   0.164949
16   0.166256
17   0.172347
18   0.142579
19   0.138132
20   0.159126
21   0.176918
22   0.144707
23   0.159648
24   0.159387
25   0.42466

>  <lowdin_charges>
25
1   -0.457841
2   -0.457976
3   -0.284516
4   -0.271711
5   -0.131175
6   0.15708
7   0.204025
8   -0.046322
9   -0.194242
10   -0.320821
11   -0.224698
12   -0.205556
13   0.161619
14   0.157702
15   0.157225
16   0.165067
17   0.160527
18   0.14468
19   0.142397
20   0.159351
21   0.164949
22   0.149196
23   0.15957
24   0.150097
25   0.361374

$$$$

