PCCDB-ID:  6549
public computational chemistry database (PCCDB) project, http://pccdb.org

 29 28  0  0  1  0  0  0  0  0999 V2000
    0.2249    2.6829   -1.8915 C   0  0  0  0  0  0  0  0  0  0  0  0
    1.8416    4.9065    3.0522 C   0  0  0  0  0  0  0  0  0  0  0  0
    2.4427    3.5152    5.0878 C   0  0  0  0  0  0  0  0  0  0  0  0
    2.6739    0.0887   -1.3370 C   0  0  0  0  0  0  0  0  0  0  0  0
    1.4109    2.2355   -1.4795 C   0  0  0  0  0  0  0  0  0  0  0  0
    1.1488    2.1842    1.6209 C   0  0  0  0  0  0  0  0  0  0  0  0
    1.6459    2.3839    3.0277 C   0  0  0  0  0  0  0  0  0  0  0  0
    2.1392    1.3598    0.7768 C   0  0  0  0  0  0  0  0  0  0  0  0
    1.9530    3.5283    3.6583 C   0  0  0  0  0  0  0  0  0  0  0  0
    1.6384    0.9921   -0.6382 C   0  0  2  0  0  0  0  0  0  0  0  0
    0.4237    0.2593   -0.4436 O   0  0  0  0  0  0  0  0  0  0  0  0
    0.1345    3.5726   -2.5084 H   0  0  0  0  0  0  0  0  0  0  0  0
   -0.6978    2.1821   -1.6111 H   0  0  0  0  0  0  0  0  0  0  0  0
    2.8104    5.4246    3.0880 H   0  0  0  0  0  0  0  0  0  0  0  0
    1.1393    5.5276    3.6262 H   0  0  0  0  0  0  0  0  0  0  0  0
    1.5049    4.8964    2.0132 H   0  0  0  0  0  0  0  0  0  0  0  0
    3.4362    3.9787    5.1720 H   0  0  0  0  0  0  0  0  0  0  0  0
    2.5082    2.4986    5.4885 H   0  0  0  0  0  0  0  0  0  0  0  0
    1.7753    4.0951    5.7414 H   0  0  0  0  0  0  0  0  0  0  0  0
    3.6385    0.5962   -1.4522 H   0  0  0  0  0  0  0  0  0  0  0  0
    2.3262   -0.1953   -2.3383 H   0  0  0  0  0  0  0  0  0  0  0  0
    2.8270   -0.8233   -0.7510 H   0  0  0  0  0  0  0  0  0  0  0  0
    2.3173    2.7730   -1.7617 H   0  0  0  0  0  0  0  0  0  0  0  0
    0.9501    3.1383    1.1239 H   0  0  0  0  0  0  0  0  0  0  0  0
    0.1940    1.6430    1.6447 H   0  0  0  0  0  0  0  0  0  0  0  0
    1.7775    1.4574    3.5912 H   0  0  0  0  0  0  0  0  0  0  0  0
    2.3664    0.4204    1.2983 H   0  0  0  0  0  0  0  0  0  0  0  0
    3.0870    1.9051    0.6827 H   0  0  0  0  0  0  0  0  0  0  0  0
    0.0972    0.0080   -1.3229 H   0  0  0  0  0  0  0  0  0  0  0  0
  1 13  1  0  0  0  0
  1  5  2  0  0  0  0
  2 14  1  0  0  0  0
  2 15  1  0  0  0  0
  2  9  1  0  0  0  0
  3 17  1  0  0  0  0
  3 18  1  0  0  0  0
  3 19  1  0  0  0  0
  4 22  1  0  0  0  0
  4 10  1  0  0  0  0
  6 25  1  0  0  0  0
  6  7  1  0  0  0  0
  7 26  1  0  0  0  0
  7  9  2  0  0  0  0
  8 27  1  0  0  0  0
  8  6  1  0  0  0  0
  9  3  1  0  0  0  0
 10  5  1  6  0  0  0
 10 11  1  0  0  0  0
 10  8  1  0  0  0  0
 12  1  1  0  0  0  0
 16  2  1  0  0  0  0
 20  4  1  0  0  0  0
 21  4  1  0  0  0  0
 23  5  1  0  0  0  0
 24  6  1  0  0  0  0
 28  8  1  0  0  0  0
 29 11  1  0  0  0  0
M  END
>  <HBA>
1

>  <HBD>
1

>  <TPSA>
20.23

>  <cid>
6549

>  <dipole>
1.54

>  <excitation_energy_1>
5.498

>  <excitation_energy_2>
5.597

>  <excitation_energy_3>
5.854

>  <excitation_energy_4>
6.118

>  <homo_energy>
-6.016

>  <homo_lumo_gap>
6.517

>  <logP>
2.67

>  <lumo_energy>
0.501

>  <melting_point>
-6.97

>  <molecular_refractivity>
50.44

>  <oscillator_strength_1>
0.0192

>  <oscillator_strength_2>
0.0042

>  <oscillator_strength_3>
0.015

>  <oscillator_strength_4>
0.0322

>  <open_babel_can_smiles>
C=C[C@@](CCC=C(C)C)(O)C

>  <mulliken_charges>
29
1   -0.35385
2   -0.513134
3   -0.505237
4   -0.463804
5   -0.069549
6   -0.307838
7   -0.164923
8   -0.257821
9   0.186745
10   0.276978
11   -0.641349
12   0.14015
13   0.143458
14   0.147494
15   0.150282
16   0.15544
17   0.145646
18   0.149626
19   0.147148
20   0.142645
21   0.137806
22   0.156886
23   0.124569
24   0.142767
25   0.164177
26   0.108117
27   0.139362
28   0.131679
29   0.38653

>  <lowdin_charges>
29
1   -0.347068
2   -0.444779
3   -0.439649
4   -0.453611
5   -0.163354
6   -0.277639
7   -0.188582
8   -0.271688
9   -0.01394
10   0.119325
11   -0.452658
12   0.159825
13   0.159383
14   0.152416
15   0.155354
16   0.154706
17   0.149785
18   0.152721
19   0.152434
20   0.152278
21   0.147028
22   0.15772
23   0.15357
24   0.1488
25   0.16033
26   0.143405
27   0.148211
28   0.144964
29   0.340713

$$$$

