PCCDB-ID:  47742
public computational chemistry database (PCCDB) project, http://pccdb.org

 26 25  0  0  0  0  0  0  0  0999 V2000
    2.3061    1.3781    1.7315 C   0  0  0  0  0  0  0  0  0  0  0  0
    5.0925   -5.7663    0.3702 C   0  0  0  0  0  0  0  0  0  0  0  0
    6.6566   -2.4025    1.4280 C   0  0  0  0  0  0  0  0  0  0  0  0
    3.2796    0.7740    0.7145 C   0  0  0  0  0  0  0  0  0  0  0  0
    3.5170   -0.7253    0.9344 C   0  0  0  0  0  0  0  0  0  0  0  0
    4.4849   -1.3336   -0.1024 C   0  0  0  0  0  0  0  0  0  0  0  0
    5.9958   -4.7182    0.9778 C   0  0  0  0  0  0  0  0  0  0  0  0
    4.6066   -2.8448    0.0719 C   0  0  0  0  0  0  0  0  0  0  0  0
    5.7011   -3.3334    0.8056 N   0  0  0  0  0  0  0  0  0  0  0  0
    6.9853   -5.0377    1.6145 O   0  0  0  0  0  0  0  0  0  0  0  0
    3.7462   -3.5718   -0.3986 O   0  0  0  0  0  0  0  0  0  0  0  0
    2.1557    2.4481    1.5501 H   0  0  0  0  0  0  0  0  0  0  0  0
    2.6802    1.2630    2.7562 H   0  0  0  0  0  0  0  0  0  0  0  0
    1.3256    0.8898    1.6799 H   0  0  0  0  0  0  0  0  0  0  0  0
    4.0799   -5.7043    0.7753 H   0  0  0  0  0  0  0  0  0  0  0  0
    5.5393   -6.7343    0.6043 H   0  0  0  0  0  0  0  0  0  0  0  0
    4.9958   -5.6401   -0.7106 H   0  0  0  0  0  0  0  0  0  0  0  0
    7.2601   -2.9763    2.1276 H   0  0  0  0  0  0  0  0  0  0  0  0
    6.1285   -1.6131    1.9654 H   0  0  0  0  0  0  0  0  0  0  0  0
    7.3202   -1.9539    0.6809 H   0  0  0  0  0  0  0  0  0  0  0  0
    4.2400    1.3064    0.7642 H   0  0  0  0  0  0  0  0  0  0  0  0
    2.8951    0.9320   -0.3027 H   0  0  0  0  0  0  0  0  0  0  0  0
    2.5646   -1.2670    0.8752 H   0  0  0  0  0  0  0  0  0  0  0  0
    3.9032   -0.8875    1.9510 H   0  0  0  0  0  0  0  0  0  0  0  0
    5.4487   -0.8182   -0.0726 H   0  0  0  0  0  0  0  0  0  0  0  0
    4.0642   -1.1930   -1.1032 H   0  0  0  0  0  0  0  0  0  0  0  0
  1 13  1  0  0  0  0
  2 16  1  0  0  0  0
  2 15  1  0  0  0  0
  2  7  1  0  0  0  0
  3 19  1  0  0  0  0
  3 18  1  0  0  0  0
  4 21  1  0  0  0  0
  4  5  1  0  0  0  0
  4  1  1  0  0  0  0
  5 24  1  0  0  0  0
  6 25  1  0  0  0  0
  6  8  1  0  0  0  0
  6  5  1  0  0  0  0
  7 10  2  0  0  0  0
  8  9  1  0  0  0  0
  9  7  1  0  0  0  0
  9  3  1  0  0  0  0
 11  8  2  0  0  0  0
 12  1  1  0  0  0  0
 14  1  1  0  0  0  0
 17  2  1  0  0  0  0
 20  3  1  0  0  0  0
 22  4  1  0  0  0  0
 23  5  1  0  0  0  0
 26  6  1  0  0  0  0
M  END
>  <HBA>
3

>  <HBD>
0

>  <TPSA>
37.38

>  <cid>
47742

>  <dipole>
3.13

>  <excitation_energy_1>
4.772

>  <excitation_energy_2>
5.071

>  <excitation_energy_3>
6.115

>  <excitation_energy_4>
6.505

>  <homo_energy>
-6.98

>  <homo_lumo_gap>
6.351

>  <logP>
1.181

>  <lumo_energy>
-0.629

>  <melting_point>
17.53

>  <molecular_refractivity>
43.87

>  <oscillator_strength_1>
0.0016

>  <oscillator_strength_2>
0.0008

>  <oscillator_strength_3>
0.2556

>  <oscillator_strength_4>
0.0118

>  <open_babel_can_smiles>
CCCCC(=O)N(C(=O)C)C

>  <mulliken_charges>
26
1   -0.443743
2   -0.501078
3   -0.344009
4   -0.249053
5   -0.262069
6   -0.347366
7   0.576745
8   0.577812
9   -0.479989
10   -0.4726
11   -0.48583
12   0.147442
13   0.144004
14   0.148207
15   0.189638
16   0.169087
17   0.186678
18   0.216372
19   0.166937
20   0.169308
21   0.132881
22   0.139417
23   0.160867
24   0.13815
25   0.148337
26   0.173856

>  <lowdin_charges>
26
1   -0.44085
2   -0.459805
3   -0.367357
4   -0.270515
5   -0.26923
6   -0.303111
7   0.1936
8   0.178915
9   -0.104939
10   -0.269121
11   -0.275056
12   0.151097
13   0.146803
14   0.149534
15   0.182346
16   0.168277
17   0.179695
18   0.192027
19   0.159772
20   0.158019
21   0.139503
22   0.142537
23   0.154582
24   0.139318
25   0.153744
26   0.170215

$$$$

