PCCDB-ID:  16136
public computational chemistry database (PCCDB) project, http://pccdb.org

 30 30  0  0  0  0  0  0  0  0999 V2000
    0.8620   -0.0806    2.7340 C   0  0  0  0  0  0  0  0  0  0  0  0
    4.9491   -1.4649    0.0999 C   0  0  0  0  0  0  0  0  0  0  0  0
    5.1153    0.6857    1.3457 C   0  0  0  0  0  0  0  0  0  0  0  0
    2.3941   -0.0271    2.7314 C   0  0  0  0  0  0  0  0  0  0  0  0
    6.1510   -3.0791    4.7562 C   0  0  0  0  0  0  0  0  0  0  0  0
    6.5560   -1.7592    4.5720 C   0  0  0  0  0  0  0  0  0  0  0  0
    5.2311   -3.6366    3.8658 C   0  0  0  0  0  0  0  0  0  0  0  0
    6.0477   -1.0042    3.5109 C   0  0  0  0  0  0  0  0  0  0  0  0
    4.7294   -2.8794    2.8091 C   0  0  0  0  0  0  0  0  0  0  0  0
    2.9995   -0.6960    1.4897 C   0  0  0  0  0  0  0  0  0  0  0  0
    5.1238   -1.5447    2.6054 C   0  0  0  0  0  0  0  0  0  0  0  0
    4.5549   -0.7485    1.4152 C   0  0  0  0  0  0  0  0  0  0  0  0
    0.4481    0.3993    3.6282 H   0  0  0  0  0  0  0  0  0  0  0  0
    0.5015   -1.1166    2.7154 H   0  0  0  0  0  0  0  0  0  0  0  0
    0.4430    0.4303    1.8580 H   0  0  0  0  0  0  0  0  0  0  0  0
    4.5688   -0.9102   -0.7668 H   0  0  0  0  0  0  0  0  0  0  0  0
    4.5410   -2.4799    0.0509 H   0  0  0  0  0  0  0  0  0  0  0  0
    6.0384   -1.5377    0.0054 H   0  0  0  0  0  0  0  0  0  0  0  0
    4.6676    1.2155    0.4969 H   0  0  0  0  0  0  0  0  0  0  0  0
    6.2011    0.6834    1.1973 H   0  0  0  0  0  0  0  0  0  0  0  0
    4.9020    1.2673    2.2480 H   0  0  0  0  0  0  0  0  0  0  0  0
    2.7787   -0.5170    3.6347 H   0  0  0  0  0  0  0  0  0  0  0  0
    2.7158    1.0207    2.7887 H   0  0  0  0  0  0  0  0  0  0  0  0
    6.5455   -3.6673    5.5805 H   0  0  0  0  0  0  0  0  0  0  0  0
    7.2714   -1.3073    5.2545 H   0  0  0  0  0  0  0  0  0  0  0  0
    4.9026   -4.6652    3.9930 H   0  0  0  0  0  0  0  0  0  0  0  0
    6.3851    0.0203    3.3980 H   0  0  0  0  0  0  0  0  0  0  0  0
    4.0153   -3.3400    2.1318 H   0  0  0  0  0  0  0  0  0  0  0  0
    2.6384   -0.1754    0.5902 H   0  0  0  0  0  0  0  0  0  0  0  0
    2.6073   -1.7197    1.4180 H   0  0  0  0  0  0  0  0  0  0  0  0
  1 13  1  0  0  0  0
  2 12  1  0  0  0  0
  3 12  1  0  0  0  0
  3 21  1  0  0  0  0
  4  1  1  0  0  0  0
  4 23  1  0  0  0  0
  4 22  1  0  0  0  0
  5 24  1  0  0  0  0
  6  5  1  0  0  0  0
  6 25  1  0  0  0  0
  7 26  1  0  0  0  0
  7  5  2  0  0  0  0
  8  6  2  0  0  0  0
  9  7  1  0  0  0  0
 10  4  1  0  0  0  0
 11  9  2  0  0  0  0
 11  8  1  0  0  0  0
 12 10  1  0  0  0  0
 12 11  1  0  0  0  0
 14  1  1  0  0  0  0
 15  1  1  0  0  0  0
 16  2  1  0  0  0  0
 17  2  1  0  0  0  0
 18  2  1  0  0  0  0
 19  3  1  0  0  0  0
 20  3  1  0  0  0  0
 27  8  1  0  0  0  0
 28  9  1  0  0  0  0
 29 10  1  0  0  0  0
 30 10  1  0  0  0  0
M  END
>  <HBA>
0

>  <HBD>
0

>  <TPSA>
0.0

>  <cid>
16136

>  <dipole>
0.23

>  <excitation_energy_1>
5.306

>  <excitation_energy_2>
5.901

>  <excitation_energy_3>
5.943

>  <excitation_energy_4>
6.148

>  <homo_energy>
-6.397

>  <homo_lumo_gap>
6.501

>  <logP>
3.764

>  <lumo_energy>
0.103

>  <melting_point>
10.78

>  <molecular_refractivity>
55.33

>  <oscillator_strength_1>
0.0008

>  <oscillator_strength_2>
0.0273

>  <oscillator_strength_3>
0.0012

>  <oscillator_strength_4>
0.0005

>  <open_babel_can_smiles>
CCCC(c1ccccc1)(C)C

>  <mulliken_charges>
30
1   -0.442625
2   -0.44215
3   -0.466532
4   -0.256813
5   -0.130255
6   -0.130011
7   -0.130999
8   -0.194246
9   -0.188188
10   -0.246292
11   0.174935
12   0.014321
13   0.141823
14   0.140936
15   0.139531
16   0.137485
17   0.141683
18   0.146666
19   0.140172
20   0.145157
21   0.1505
22   0.146367
23   0.132193
24   0.125767
25   0.125668
26   0.125963
27   0.124955
28   0.124733
29   0.123393
30   0.125861

>  <lowdin_charges>
30
1   -0.443677
2   -0.436157
3   -0.445511
4   -0.277108
5   -0.163547
6   -0.157549
7   -0.155235
8   -0.172795
9   -0.168232
10   -0.272024
11   0.001741
12   0.012637
13   0.149887
14   0.14471
15   0.145582
16   0.14689
17   0.147267
18   0.149514
19   0.150912
20   0.148067
21   0.150776
22   0.148452
23   0.138606
24   0.156894
25   0.156703
26   0.15451
27   0.157323
28   0.154765
29   0.138664
30   0.137937

$$$$

