PCCDB-ID:  34665
public computational chemistry database (PCCDB) project, http://pccdb.org

 16 16  0  0  0  0  0  0  0  0999 V2000
    0.9602   -0.0163   -0.4801 C   0  0  0  0  0  0  0  0  0  0  0  0
    0.2447   -1.4301   -2.4748 C   0  0  0  0  0  0  0  0  0  0  0  0
    0.4410   -0.2429   -1.8720 C   0  0  0  0  0  0  0  0  0  0  0  0
    1.9976    1.1071   -0.3776 C   0  0  0  0  0  0  0  0  0  0  0  0
   -0.4407    0.5537   -3.9161 C   0  0  0  0  0  0  0  0  0  0  0  0
   -0.8033    1.3176   -4.8680 N   0  0  0  0  0  0  0  0  0  0  0  0
    0.0169    0.8488   -2.6302 N   0  0  0  0  0  0  0  0  0  0  0  0
    1.9450    2.1255   -1.0272 O   0  0  0  0  0  0  0  0  0  0  0  0
    2.9713    0.9479    0.5458 O   0  0  0  0  0  0  0  0  0  0  0  0
   -0.4716   -1.2408   -4.0773 S   0  0  0  0  0  0  0  0  0  0  0  0
    1.3513   -0.9621   -0.0909 H   0  0  0  0  0  0  0  0  0  0  0  0
    0.1349    0.2843    0.1856 H   0  0  0  0  0  0  0  0  0  0  0  0
    0.4426   -2.4101   -2.0648 H   0  0  0  0  0  0  0  0  0  0  0  0
   -0.7443    2.3037   -4.6029 H   0  0  0  0  0  0  0  0  0  0  0  0
    0.4048    1.7629   -2.4164 H   0  0  0  0  0  0  0  0  0  0  0  0
    2.9031    0.0785    0.9728 H   0  0  0  0  0  0  0  0  0  0  0  0
  1  4  1  0  0  0  0
  1 11  1  0  0  0  0
  1 12  1  0  0  0  0
  2 13  1  0  0  0  0
  2  3  2  0  0  0  0
  3  1  1  0  0  0  0
  4  9  1  0  0  0  0
  5  7  1  0  0  0  0
  6 14  1  0  0  0  0
  6  5  2  0  0  0  0
  7 15  1  0  0  0  0
  7  3  1  0  0  0  0
  8  4  2  0  0  0  0
  9 16  1  0  0  0  0
 10  5  1  0  0  0  0
 10  2  1  0  0  0  0
M  END
>  <HBA>
5

>  <HBD>
2

>  <TPSA>
104.45

>  <cid>
34665

>  <dipole>
6.35

>  <excitation_energy_1>
3.825

>  <excitation_energy_2>
4.014

>  <excitation_energy_3>
4.517

>  <excitation_energy_4>
4.842

>  <homo_energy>
-5.304

>  <homo_lumo_gap>
4.727

>  <logP>
0.934

>  <lumo_energy>
-0.577

>  <melting_point>
148.54

>  <molecular_refractivity>
38.06

>  <oscillator_strength_1>
0.0092

>  <oscillator_strength_2>
0.0021

>  <oscillator_strength_3>
0.0003

>  <oscillator_strength_4>
0.0885

>  <open_babel_can_smiles>
OC(=O)Cc1csc(=N)[nH]1

>  <mulliken_charges>
16
1   -0.474096
2   -0.422583
3   0.402001
4   0.615678
5   0.29656
6   -0.629881
7   -0.634504
8   -0.442233
9   -0.546818
10   0.230093
11   0.162898
12   0.213343
13   0.166664
14   0.281635
15   0.362941
16   0.418302

>  <lowdin_charges>
16
1   -0.313226
2   -0.354508
3   0.026788
4   0.205265
5   -0.010767
6   -0.435964
7   -0.253746
8   -0.24342
9   -0.334554
10   0.250293
11   0.167124
12   0.191073
13   0.183197
14   0.256512
15   0.301865
16   0.364069

$$$$

