PCCDB-ID:  26479
public computational chemistry database (PCCDB) project, http://pccdb.org

 31 31  0  0  0  0  0  0  0  0999 V2000
    0.1572   -1.8794    1.1972 C   0  0  0  0  0  0  0  0  0  0  0  0
    7.2459    2.6223    0.4866 C   0  0  0  0  0  0  0  0  0  0  0  0
    0.5665    2.1815    2.4604 C   0  0  0  0  0  0  0  0  0  0  0  0
   -0.7518    1.1973    0.6954 C   0  0  0  0  0  0  0  0  0  0  0  0
    2.5489   -1.7239    0.4252 C   0  0  0  0  0  0  0  0  0  0  0  0
    3.7467   -1.0462    0.1969 C   0  0  0  0  0  0  0  0  0  0  0  0
    2.6775    0.9949    0.9425 C   0  0  0  0  0  0  0  0  0  0  0  0
    1.4045   -1.0808    0.9050 C   0  0  0  0  0  0  0  0  0  0  0  0
    3.7934    0.3144    0.4653 C   0  0  0  0  0  0  0  0  0  0  0  0
    1.4706    0.3130    1.1554 C   0  0  0  0  0  0  0  0  0  0  0  0
    5.1929    2.0223   -0.4987 C   0  0  0  0  0  0  0  0  0  0  0  0
    6.1884    2.8005   -0.4940 N   0  0  0  0  0  0  0  0  0  0  0  0
    0.3224    0.9861    1.6661 N   0  0  0  0  0  0  0  0  0  0  0  0
    4.1840    2.1646   -1.3897 O   0  0  0  0  0  0  0  0  0  0  0  0
    5.0272    0.9608    0.3324 O   0  0  0  0  0  0  0  0  0  0  0  0
    0.4093   -2.9218    1.4174 H   0  0  0  0  0  0  0  0  0  0  0  0
   -0.5421   -1.8923    0.3498 H   0  0  0  0  0  0  0  0  0  0  0  0
   -0.3786   -1.4569    2.0528 H   0  0  0  0  0  0  0  0  0  0  0  0
    6.9541    2.0103    1.3494 H   0  0  0  0  0  0  0  0  0  0  0  0
    7.5659    3.6068    0.8457 H   0  0  0  0  0  0  0  0  0  0  0  0
    8.1186    2.1515    0.0148 H   0  0  0  0  0  0  0  0  0  0  0  0
   -0.3567    2.4452    2.9886 H   0  0  0  0  0  0  0  0  0  0  0  0
    0.8697    3.0618    1.8640 H   0  0  0  0  0  0  0  0  0  0  0  0
    1.3429    1.9816    3.2040 H   0  0  0  0  0  0  0  0  0  0  0  0
   -1.6661    1.4907    1.2237 H   0  0  0  0  0  0  0  0  0  0  0  0
   -0.9570    0.2789    0.1428 H   0  0  0  0  0  0  0  0  0  0  0  0
   -0.5061    1.9879   -0.0362 H   0  0  0  0  0  0  0  0  0  0  0  0
    2.5081   -2.7956    0.2455 H   0  0  0  0  0  0  0  0  0  0  0  0
    4.6328   -1.5590   -0.1616 H   0  0  0  0  0  0  0  0  0  0  0  0
    2.7520    2.0592    1.1321 H   0  0  0  0  0  0  0  0  0  0  0  0
    4.4372    2.9388   -1.9230 H   0  0  0  0  0  0  0  0  0  0  0  0
  1 16  1  0  0  0  0
  1 18  1  0  0  0  0
  2 20  1  0  0  0  0
  2 19  1  0  0  0  0
  3 22  1  0  0  0  0
  3 24  1  0  0  0  0
  4 25  1  0  0  0  0
  4 13  1  0  0  0  0
  5  8  1  0  0  0  0
  6  5  2  0  0  0  0
  6  9  1  0  0  0  0
  7 30  1  0  0  0  0
  7 10  1  0  0  0  0
  8 10  2  0  0  0  0
  8  1  1  0  0  0  0
  9  7  2  0  0  0  0
 10 13  1  0  0  0  0
 11 12  2  0  0  0  0
 11 15  1  0  0  0  0
 12  2  1  0  0  0  0
 13  3  1  0  0  0  0
 14 11  1  0  0  0  0
 15  9  1  0  0  0  0
 17  1  1  0  0  0  0
 21  2  1  0  0  0  0
 23  3  1  0  0  0  0
 26  4  1  0  0  0  0
 27  4  1  0  0  0  0
 28  5  1  0  0  0  0
 29  6  1  0  0  0  0
 31 14  1  0  0  0  0
M  END
>  <HBA>
4

>  <HBD>
1

>  <TPSA>
41.57

>  <cid>
26479

>  <dipole>
1.96

>  <excitation_energy_1>
4.634

>  <excitation_energy_2>
4.875

>  <excitation_energy_3>
5.178

>  <excitation_energy_4>
5.427

>  <homo_energy>
-5.581

>  <homo_lumo_gap>
5.636

>  <logP>
2.17

>  <lumo_energy>
0.054

>  <melting_point>
81.85

>  <molecular_refractivity>
60.3

>  <oscillator_strength_1>
0.0315

>  <oscillator_strength_2>
0.1148

>  <oscillator_strength_3>
0.0238

>  <oscillator_strength_4>
0.0029

>  <open_babel_can_smiles>
C/N=C(\Oc1ccc(c(c1)N(C)C)C)/O

>  <mulliken_charges>
31
1   -0.53813
2   -0.322638
3   -0.307182
4   -0.30559
5   -0.211655
6   -0.157253
7   -0.190971
8   0.171226
9   0.348223
10   0.217101
11   0.70176
12   -0.482031
13   -0.454261
14   -0.591316
15   -0.538978
16   0.152822
17   0.156875
18   0.174635
19   0.152335
20   0.151545
21   0.15318
22   0.153569
23   0.130459
24   0.164854
25   0.150464
26   0.162562
27   0.135744
28   0.126534
29   0.137281
30   0.137286
31   0.421548

>  <lowdin_charges>
31
1   -0.44484
2   -0.354363
3   -0.356834
4   -0.350418
5   -0.154062
6   -0.183113
7   -0.19971
8   -0.01971
9   0.103373
10   0.04207
11   0.189256
12   -0.266266
13   -0.150721
14   -0.362644
15   -0.160894
16   0.155747
17   0.155042
18   0.167633
19   0.144213
20   0.150318
21   0.151218
22   0.153557
23   0.1273
24   0.160039
25   0.150035
26   0.159295
27   0.131945
28   0.155322
29   0.168236
30   0.167122
31   0.371854

$$$$

