PCCDB-ID:  31450
public computational chemistry database (PCCDB) project, http://pccdb.org

 39 39  0  0  1  0  0  0  0  0999 V2000
    2.0686   -0.1976    1.3886 C   0  0  0  0  0  0  0  0  0  0  0  0
    1.1539   -0.3879   -0.9762 C   0  0  0  0  0  0  0  0  0  0  0  0
    4.7692    3.8156    2.7098 C   0  0  0  0  0  0  0  0  0  0  0  0
    2.7324    5.2324    2.3014 C   0  0  0  0  0  0  0  0  0  0  0  0
    5.1688    6.3781   -2.1138 C   0  0  0  0  0  0  0  0  0  0  0  0
    4.3440    5.2682   -0.2054 C   0  0  0  0  0  0  0  0  0  0  0  0
    2.4493    3.6180   -0.4450 C   0  0  0  0  0  0  0  0  0  0  0  0
    4.7246    2.7810   -0.0822 C   0  0  0  0  0  0  0  0  0  0  0  0
    2.3787   -0.0665   -0.1089 C   0  0  0  0  0  0  0  0  0  0  0  0
    3.5052    3.9791    1.8463 C   0  0  0  0  0  0  0  0  0  0  0  0
    2.9381    1.3130   -0.4611 C   0  0  1  0  0  0  0  0  0  0  0  0
    3.7695    3.9354    0.3002 C   0  0  1  0  0  0  0  0  0  0  0  0
    4.6593    5.1724   -1.5864 O   0  0  0  0  0  0  0  0  0  0  0  0
    1.9845    2.3048   -0.1344 O   0  0  0  0  0  0  0  0  0  0  0  0
    4.1500    1.5136    0.2378 O   0  0  0  0  0  0  0  0  0  0  0  0
    1.7301   -1.2144    1.6196 H   0  0  0  0  0  0  0  0  0  0  0  0
    1.2773    0.4994    1.6836 H   0  0  0  0  0  0  0  0  0  0  0  0
    2.9556    0.0148    1.9923 H   0  0  0  0  0  0  0  0  0  0  0  0
    0.7968   -1.4043   -0.7757 H   0  0  0  0  0  0  0  0  0  0  0  0
    1.3883   -0.3206   -2.0457 H   0  0  0  0  0  0  0  0  0  0  0  0
    0.3365    0.3097   -0.7663 H   0  0  0  0  0  0  0  0  0  0  0  0
    4.5101    3.9171    3.7702 H   0  0  0  0  0  0  0  0  0  0  0  0
    5.5270    4.5782    2.4883 H   0  0  0  0  0  0  0  0  0  0  0  0
    5.2281    2.8311    2.5817 H   0  0  0  0  0  0  0  0  0  0  0  0
    2.4062    5.1091    3.3403 H   0  0  0  0  0  0  0  0  0  0  0  0
    1.8353    5.4192    1.7008 H   0  0  0  0  0  0  0  0  0  0  0  0
    3.3540    6.1357    2.2651 H   0  0  0  0  0  0  0  0  0  0  0  0
    5.3793    6.2045   -3.1723 H   0  0  0  0  0  0  0  0  0  0  0  0
    6.0996    6.6822   -1.6085 H   0  0  0  0  0  0  0  0  0  0  0  0
    4.4421    7.2016   -2.0231 H   0  0  0  0  0  0  0  0  0  0  0  0
    5.2498    5.5349    0.3663 H   0  0  0  0  0  0  0  0  0  0  0  0
    3.6148    6.0802   -0.0512 H   0  0  0  0  0  0  0  0  0  0  0  0
    2.6102    3.7127   -1.5288 H   0  0  0  0  0  0  0  0  0  0  0  0
    1.6421    4.2984   -0.1589 H   0  0  0  0  0  0  0  0  0  0  0  0
    5.6760    2.8362    0.4518 H   0  0  0  0  0  0  0  0  0  0  0  0
    4.9371    2.8301   -1.1589 H   0  0  0  0  0  0  0  0  0  0  0  0
    3.1822   -0.7726   -0.3599 H   0  0  0  0  0  0  0  0  0  0  0  0
    2.8662    3.1133    2.0498 H   0  0  0  0  0  0  0  0  0  0  0  0
    3.1494    1.3787   -1.5472 H   0  0  0  0  0  0  0  0  0  0  0  0
  1 16  1  0  0  0  0
  1 17  1  0  0  0  0
  1 18  1  0  0  0  0
  2 19  1  0  0  0  0
  2 21  1  0  0  0  0
  2  9  1  0  0  0  0
  3 22  1  0  0  0  0
  4 25  1  0  0  0  0
  5 30  1  0  0  0  0
  5 29  1  0  0  0  0
  5 13  1  0  0  0  0
  6 32  1  0  0  0  0
  6 31  1  0  0  0  0
  7 34  1  0  0  0  0
  7 14  1  0  0  0  0
  7 12  1  0  0  0  0
  8 15  1  0  0  0  0
  8 12  1  0  0  0  0
  8 35  1  0  0  0  0
  9  1  1  0  0  0  0
 10 38  1  0  0  0  0
 10  4  1  0  0  0  0
 10  3  1  0  0  0  0
 11 39  1  6  0  0  0
 11 14  1  0  0  0  0
 11  9  1  0  0  0  0
 11 15  1  0  0  0  0
 12  6  1  6  0  0  0
 12 10  1  0  0  0  0
 13  6  1  0  0  0  0
 20  2  1  0  0  0  0
 23  3  1  0  0  0  0
 24  3  1  0  0  0  0
 26  4  1  0  0  0  0
 27  4  1  0  0  0  0
 28  5  1  0  0  0  0
 33  7  1  0  0  0  0
 36  8  1  0  0  0  0
 37  9  1  0  0  0  0
M  END
>  <HBA>
3

>  <HBD>
0

>  <TPSA>
27.69

>  <cid>
31450

>  <dipole>
2.46

>  <excitation_energy_1>
6.254

>  <excitation_energy_2>
6.532

>  <excitation_energy_3>
6.578

>  <excitation_energy_4>
6.631

>  <homo_energy>
-6.67

>  <homo_lumo_gap>
8.792

>  <logP>
2.304

>  <lumo_energy>
2.123

>  <melting_point>
-16.13

>  <molecular_refractivity>
60.68

>  <oscillator_strength_1>
0.016

>  <oscillator_strength_2>
0.0112

>  <oscillator_strength_3>
0.0005

>  <oscillator_strength_4>
0.0035

>  <open_babel_can_smiles>
COC[C@@]1(CO[C@H](OC1)C(C)C)C(C)C

>  <mulliken_charges>
39
1   -0.451319
2   -0.449982
3   -0.467657
4   -0.464356
5   -0.191594
6   -0.029431
7   -0.056017
8   -0.057936
9   -0.107497
10   -0.073179
11   0.380902
12   0.018335
13   -0.471616
14   -0.489688
15   -0.496229
16   0.133729
17   0.15537
18   0.158739
19   0.140665
20   0.13592
21   0.160902
22   0.142083
23   0.134703
24   0.162129
25   0.146473
26   0.144298
27   0.139455
28   0.160778
29   0.1321
30   0.131846
31   0.123902
32   0.126629
33   0.146221
34   0.142233
35   0.145023
36   0.150251
37   0.135538
38   0.160257
39   0.098018

>  <lowdin_charges>
39
1   -0.447621
2   -0.442935
3   -0.449096
4   -0.449469
5   -0.277994
6   -0.133355
7   -0.138966
8   -0.139766
9   -0.130441
10   -0.126618
11   0.097609
12   -0.035722
13   -0.272958
14   -0.264519
15   -0.266208
16   0.145144
17   0.154196
18   0.157345
19   0.148483
20   0.14429
21   0.156961
22   0.149492
23   0.141343
24   0.156386
25   0.151331
26   0.147181
27   0.143708
28   0.154888
29   0.132974
30   0.133314
31   0.130809
32   0.133728
33   0.139476
34   0.148896
35   0.150268
36   0.141664
37   0.148612
38   0.157337
39   0.110231

$$$$

