PCCDB-ID:  45188
public computational chemistry database (PCCDB) project, http://pccdb.org

 30 31  0  0  1  0  0  0  0  0999 V2000
    3.1521    1.1367   -0.7749 C   0  0  0  0  0  0  0  0  0  0  0  0
    4.2751   -2.0514    0.3559 C   0  0  0  0  0  0  0  0  0  0  0  0
    2.2416    0.1654   -0.0135 C   0  0  0  0  0  0  0  0  0  0  0  0
    2.5323   -0.7346    4.3059 C   0  0  0  0  0  0  0  0  0  0  0  0
    2.4139   -1.9234    3.2997 C   0  0  0  0  0  0  0  0  0  0  0  0
    0.7914   -0.2743    2.7283 C   0  0  0  0  0  0  0  0  0  0  0  0
    2.8555    0.8761    2.3998 C   0  0  0  0  0  0  0  0  0  0  0  0
    1.8959    0.4433    3.5310 C   0  0  2  0  0  0  0  0  0  0  0  0
    1.7672   -1.2684    2.0560 C   0  0  1  0  0  0  0  0  0  0  0  0
    2.7930   -0.3054    1.3620 C   0  0  1  0  0  0  0  0  0  0  0  0
    4.1325   -0.9166    1.2638 N   0  0  0  0  0  0  0  0  0  0  0  0
    2.6801    1.4574   -1.7103 H   0  0  0  0  0  0  0  0  0  0  0  0
    4.1116    0.6752   -1.0364 H   0  0  0  0  0  0  0  0  0  0  0  0
    3.3662    2.0395   -0.1902 H   0  0  0  0  0  0  0  0  0  0  0  0
    5.3118   -2.4037    0.3951 H   0  0  0  0  0  0  0  0  0  0  0  0
    4.0273   -1.8508   -0.7010 H   0  0  0  0  0  0  0  0  0  0  0  0
    3.6367   -2.8748    0.6939 H   0  0  0  0  0  0  0  0  0  0  0  0
    2.0525   -0.7143   -0.6427 H   0  0  0  0  0  0  0  0  0  0  0  0
    1.2641    0.6394    0.1351 H   0  0  0  0  0  0  0  0  0  0  0  0
    3.5713   -0.5266    4.5835 H   0  0  0  0  0  0  0  0  0  0  0  0
    1.9785   -0.9361    5.2304 H   0  0  0  0  0  0  0  0  0  0  0  0
    1.7544   -2.7074    3.6903 H   0  0  0  0  0  0  0  0  0  0  0  0
    3.3837   -2.3708    3.0775 H   0  0  0  0  0  0  0  0  0  0  0  0
    0.2624    0.3826    2.0300 H   0  0  0  0  0  0  0  0  0  0  0  0
    0.0484   -0.7754    3.3603 H   0  0  0  0  0  0  0  0  0  0  0  0
    3.8774    1.0303    2.7642 H   0  0  0  0  0  0  0  0  0  0  0  0
    2.5168    1.8163    1.9485 H   0  0  0  0  0  0  0  0  0  0  0  0
    1.5714    1.2711    4.1696 H   0  0  0  0  0  0  0  0  0  0  0  0
    1.3100   -1.9859    1.3665 H   0  0  0  0  0  0  0  0  0  0  0  0
    4.8039   -0.1957    1.0093 H   0  0  0  0  0  0  0  0  0  0  0  0
  1 14  1  0  0  0  0
  1  3  1  0  0  0  0
  2 15  1  0  0  0  0
  2 17  1  0  0  0  0
  2 11  1  0  0  0  0
  3 19  1  0  0  0  0
  4 20  1  0  0  0  0
  4 21  1  0  0  0  0
  5 22  1  0  0  0  0
  5  4  1  0  0  0  0
  6 25  1  0  0  0  0
  6  8  1  0  0  0  0
  7 26  1  0  0  0  0
  7  8  1  0  0  0  0
  8 28  1  1  0  0  0
  8  4  1  0  0  0  0
  9 29  1  6  0  0  0
  9  6  1  0  0  0  0
  9  5  1  0  0  0  0
 10  3  1  6  0  0  0
 10  9  1  0  0  0  0
 10  7  1  0  0  0  0
 11 10  1  0  0  0  0
 12  1  1  0  0  0  0
 13  1  1  0  0  0  0
 16  2  1  0  0  0  0
 18  3  1  0  0  0  0
 23  5  1  0  0  0  0
 24  6  1  0  0  0  0
 27  7  1  0  0  0  0
 30 11  1  0  0  0  0
M  END
>  <HBA>
1

>  <HBD>
1

>  <TPSA>
12.03

>  <cid>
45188

>  <dipole>
0.92

>  <excitation_energy_1>
5.196

>  <excitation_energy_2>
5.559

>  <excitation_energy_3>
5.684

>  <excitation_energy_4>
5.859

>  <homo_energy>
-5.72

>  <homo_lumo_gap>
7.78

>  <logP>
2.566

>  <lumo_energy>
2.06

>  <melting_point>
54.14

>  <molecular_refractivity>
48.8

>  <oscillator_strength_1>
0.0019

>  <oscillator_strength_2>
0.0027

>  <oscillator_strength_3>
0.0109

>  <oscillator_strength_4>
0.0088

>  <open_babel_can_smiles>
CC[C@@]1(NC)C[C@H]2C[C@@H]1CC2

>  <mulliken_charges>
30
1   -0.460187
2   -0.308593
3   -0.277508
4   -0.268005
5   -0.261337
6   -0.278224
7   -0.298479
8   -0.099476
9   -0.126523
10   0.24977
11   -0.575915
12   0.145698
13   0.13852
14   0.146498
15   0.14614
16   0.125491
17   0.153831
18   0.131641
19   0.132772
20   0.134823
21   0.127681
22   0.123511
23   0.158126
24   0.13122
25   0.130105
26   0.132792
27   0.130848
28   0.11081
29   0.10866
30   0.295308

>  <lowdin_charges>
30
1   -0.451805
2   -0.362949
3   -0.291434
4   -0.282414
5   -0.287637
6   -0.288347
7   -0.286793
8   -0.131728
9   -0.14333
10   0.055143
11   -0.361663
12   0.152628
13   0.14357
14   0.147406
15   0.149061
16   0.121461
17   0.149904
18   0.141697
19   0.143275
20   0.143033
21   0.140625
22   0.140145
23   0.156838
24   0.142305
25   0.143968
26   0.144064
27   0.142169
28   0.138543
29   0.138249
30   0.254014

$$$$

