PCCDB-ID:  6990
public computational chemistry database (PCCDB) project, http://pccdb.org

 19 19  0  0  0  0  0  0  0  0999 V2000
    2.4529    1.5606    0.1429 C   0  0  0  0  0  0  0  0  0  0  0  0
    3.5442   -2.9074   -1.9914 C   0  0  0  0  0  0  0  0  0  0  0  0
    3.0328   -2.0967   -0.9915 C   0  0  0  0  0  0  0  0  0  0  0  0
    4.1771   -0.9185   -3.2221 C   0  0  0  0  0  0  0  0  0  0  0  0
    2.4722    0.0444    0.1071 C   0  0  0  0  0  0  0  0  0  0  0  0
    4.1224   -2.3083   -3.1194 C   0  0  0  0  0  0  0  0  0  0  0  0
    3.0663   -0.6922   -1.0554 C   0  0  0  0  0  0  0  0  0  0  0  0
    3.6558   -0.1162   -2.2042 C   0  0  0  0  0  0  0  0  0  0  0  0
    1.9961   -0.5891    1.0417 O   0  0  0  0  0  0  0  0  0  0  0  0
    4.6485   -3.0280   -4.1486 O   0  0  0  0  0  0  0  0  0  0  0  0
    3.7142    1.2436   -2.3155 O   0  0  0  0  0  0  0  0  0  0  0  0
    1.9094    1.9684   -0.7157 H   0  0  0  0  0  0  0  0  0  0  0  0
    3.4670    1.9694    0.0866 H   0  0  0  0  0  0  0  0  0  0  0  0
    1.9734    1.8709    1.0733 H   0  0  0  0  0  0  0  0  0  0  0  0
    3.4999   -3.9910   -1.9061 H   0  0  0  0  0  0  0  0  0  0  0  0
    2.5801   -2.5306   -0.1062 H   0  0  0  0  0  0  0  0  0  0  0  0
    4.6292   -0.4746   -4.1056 H   0  0  0  0  0  0  0  0  0  0  0  0
    4.5476   -3.9735   -3.9561 H   0  0  0  0  0  0  0  0  0  0  0  0
    4.1416    1.4686   -3.1570 H   0  0  0  0  0  0  0  0  0  0  0  0
  1 14  1  0  0  0  0
  2 15  1  0  0  0  0
  2  3  2  0  0  0  0
  3 16  1  0  0  0  0
  4  6  2  0  0  0  0
  4  8  1  0  0  0  0
  5  1  1  0  0  0  0
  5  9  2  0  0  0  0
  6  2  1  0  0  0  0
  7  3  1  0  0  0  0
  7  5  1  0  0  0  0
  8  7  2  0  0  0  0
 10 18  1  0  0  0  0
 10  6  1  0  0  0  0
 11  8  1  0  0  0  0
 12  1  1  0  0  0  0
 13  1  1  0  0  0  0
 17  4  1  0  0  0  0
 19 11  1  0  0  0  0
M  END
>  <HBA>
3

>  <HBD>
2

>  <TPSA>
57.53

>  <cid>
6990

>  <dipole>
3.99

>  <excitation_energy_1>
3.896

>  <excitation_energy_2>
4.547

>  <excitation_energy_3>
4.96

>  <excitation_energy_4>
5.34

>  <homo_energy>
-6.207

>  <homo_lumo_gap>
5.154

>  <logP>
1.3

>  <lumo_energy>
-1.053

>  <melting_point>
120.16

>  <molecular_refractivity>
40.68

>  <oscillator_strength_1>
0.0001

>  <oscillator_strength_2>
0.0969

>  <oscillator_strength_3>
0.2132

>  <oscillator_strength_4>
0.001

>  <open_babel_can_smiles>
Oc1ccc(c(c1)O)C(=O)C

>  <mulliken_charges>
19
1   -0.515897
2   -0.194662
3   -0.182043
4   -0.24069
5   0.407053
6   0.361655
7   0.04988
8   0.294241
9   -0.46772
10   -0.636813
11   -0.644646
12   0.171659
13   0.171888
14   0.166103
15   0.125363
16   0.172213
17   0.132644
18   0.414368
19   0.415404

>  <lowdin_charges>
19
1   -0.471761
2   -0.230849
3   -0.105363
4   -0.249114
5   0.167468
6   0.123803
7   -0.104084
8   0.124201
9   -0.262853
10   -0.362991
11   -0.365001
12   0.172501
13   0.171191
14   0.166522
15   0.155514
16   0.182816
17   0.165559
18   0.360998
19   0.361443

$$$$

