PCCDB-ID:  49984
public computational chemistry database (PCCDB) project, http://pccdb.org

 25 27  0  0  0  0  0  0  0  0999 V2000
   -3.4844    0.2170   -0.1251 C   0  0  0  0  0  0  0  0  0  0  0  0
   -3.0676   -1.1051   -0.3158 C   0  0  0  0  0  0  0  0  0  0  0  0
   -2.5474    1.2339    0.0923 C   0  0  0  0  0  0  0  0  0  0  0  0
   -1.7110   -1.4345   -0.2933 C   0  0  0  0  0  0  0  0  0  0  0  0
    2.9557   -1.2802   -0.0029 C   0  0  0  0  0  0  0  0  0  0  0  0
    1.5907   -1.5258   -0.1213 C   0  0  0  0  0  0  0  0  0  0  0  0
    0.0065    1.8110    0.3293 C   0  0  0  0  0  0  0  0  0  0  0  0
    2.5276    1.0944    0.3575 C   0  0  0  0  0  0  0  0  0  0  0  0
   -1.1956    0.9119    0.1154 C   0  0  0  0  0  0  0  0  0  0  0  0
    1.1688    0.8420    0.2384 C   0  0  0  0  0  0  0  0  0  0  0  0
    3.4249    0.0204    0.2348 C   0  0  0  0  0  0  0  0  0  0  0  0
   -0.7744   -0.4211   -0.0766 C   0  0  0  0  0  0  0  0  0  0  0  0
    0.6905   -0.4639    0.0000 C   0  0  0  0  0  0  0  0  0  0  0  0
    5.8733    2.2538    0.7396 N   0  0  0  0  0  0  0  0  0  0  0  0
    4.8352    0.1571    0.3378 N   0  0  0  0  0  0  0  0  0  0  0  0
    5.3067    1.2805    0.5486 N   0  0  0  0  0  0  0  0  0  0  0  0
   -4.5441    0.4563   -0.1450 H   0  0  0  0  0  0  0  0  0  0  0  0
   -3.8072   -1.8833   -0.4839 H   0  0  0  0  0  0  0  0  0  0  0  0
   -2.8779    2.2595    0.2401 H   0  0  0  0  0  0  0  0  0  0  0  0
   -1.3945   -2.4637   -0.4423 H   0  0  0  0  0  0  0  0  0  0  0  0
    3.6791   -2.0841   -0.0920 H   0  0  0  0  0  0  0  0  0  0  0  0
    1.2392   -2.5376   -0.3047 H   0  0  0  0  0  0  0  0  0  0  0  0
   -0.0272    2.3187    1.3033 H   0  0  0  0  0  0  0  0  0  0  0  0
    0.0716    2.6027   -0.4299 H   0  0  0  0  0  0  0  0  0  0  0  0
    2.8957    2.1012    0.5396 H   0  0  0  0  0  0  0  0  0  0  0  0
  1  3  2  0  0  0  0
  2  4  2  0  0  0  0
  2  1  1  0  0  0  0
  3  9  1  0  0  0  0
  3 19  1  0  0  0  0
  4 12  1  0  0  0  0
  5 11  1  0  0  0  0
  6  5  2  0  0  0  0
  6 13  1  0  0  0  0
  7 23  1  0  0  0  0
  8 25  1  0  0  0  0
  9  7  1  0  0  0  0
 10  7  1  0  0  0  0
 10  8  1  0  0  0  0
 11 15  1  0  0  0  0
 11  8  2  0  0  0  0
 12 13  1  0  0  0  0
 12  9  2  0  0  0  0
 13 10  2  0  0  0  0
 15 16  2  0  0  0  0
 16 14  2  0  0  0  0
 17  1  1  0  0  0  0
 18  2  1  0  0  0  0
 20  4  1  0  0  0  0
 21  5  1  0  0  0  0
 22  6  1  0  0  0  0
 24  7  1  0  0  0  0
M  RAD  1  14   2
M  END
>  <HBA>
1

>  <HBD>
0

>  <TPSA>
49.75

>  <cid>
49984

>  <dipole>
2.11

>  <excitation_energy_1>
3.476

>  <excitation_energy_2>
4.055

>  <excitation_energy_3>
4.313

>  <excitation_energy_4>
4.665

>  <homo_energy>
-5.641

>  <homo_lumo_gap>
4.435

>  <logP>
3.652

>  <lumo_energy>
-1.205

>  <melting_point>
129.48

>  <molecular_refractivity>
60.43

>  <oscillator_strength_1>
0.0001

>  <oscillator_strength_2>
0.593

>  <oscillator_strength_3>
0.1256

>  <oscillator_strength_4>
0.003

>  <open_babel_can_smiles>
[N]=[N]=Nc1ccc2c(c1)Cc1c2cccc1

>  <mulliken_charges>
25
1   -0.129069
2   -0.13754
3   -0.203138
4   -0.190475
5   -0.160562
6   -0.19933
7   -0.420145
8   -0.234322
9   0.107072
10   0.093199
11   0.299438
12   0.085564
13   0.091863
14   -0.252819
15   -0.473614
16   0.435336
17   0.129158
18   0.129916
19   0.126778
20   0.129861
21   0.145821
22   0.137384
23   0.17652
24   0.176448
25   0.136654

>  <lowdin_charges>
25
1   -0.155691
2   -0.156492
3   -0.161716
4   -0.161077
5   -0.165156
6   -0.151495
7   -0.27411
8   -0.193578
9   -0.005486
10   0.006351
11   0.045806
12   -0.011415
13   -0.01659
14   -0.095184
15   -0.163378
16   0.193578
17   0.1568
18   0.15937
19   0.156314
20   0.15672
21   0.17108
22   0.161393
23   0.170913
24   0.171646
25   0.161396

$$$$

