PCCDB-ID:  15466
public computational chemistry database (PCCDB) project, http://pccdb.org

 18 18  0  0  0  0  0  0  0  0999 V2000
    1.0578    0.1285    0.1038 C   0  0  0  0  0  0  0  0  0  0  0  0
    6.5838    2.3263   -0.4413 C   0  0  0  0  0  0  0  0  0  0  0  0
    2.5528    0.0346   -0.0046 C   0  0  0  0  0  0  0  0  0  0  0  0
    4.4808   -1.2376   -0.0916 C   0  0  0  0  0  0  0  0  0  0  0  0
    4.4926    1.1772   -0.2111 C   0  0  0  0  0  0  0  0  0  0  0  0
    5.2096   -2.2869   -0.0977 N   0  0  0  0  0  0  0  0  0  0  0  0
    3.1027   -1.1529    0.0125 N   0  0  0  0  0  0  0  0  0  0  0  0
    3.1948    1.2492   -0.1148 N   0  0  0  0  0  0  0  0  0  0  0  0
    5.1669    0.0056   -0.2054 N   0  0  0  0  0  0  0  0  0  0  0  0
    5.1594    2.3324   -0.3192 O   0  0  0  0  0  0  0  0  0  0  0  0
    0.6170   -0.8652    0.1930 H   0  0  0  0  0  0  0  0  0  0  0  0
    0.6535    0.6384   -0.7782 H   0  0  0  0  0  0  0  0  0  0  0  0
    0.7857    0.7380    0.9731 H   0  0  0  0  0  0  0  0  0  0  0  0
    6.8697    3.3746   -0.5242 H   0  0  0  0  0  0  0  0  0  0  0  0
    6.9050    1.7931   -1.3439 H   0  0  0  0  0  0  0  0  0  0  0  0
    7.0592    1.8931    0.4468 H   0  0  0  0  0  0  0  0  0  0  0  0
    4.6012   -3.1025   -0.0108 H   0  0  0  0  0  0  0  0  0  0  0  0
    6.1734   -0.0653   -0.2784 H   0  0  0  0  0  0  0  0  0  0  0  0
  1 11  1  0  0  0  0
  1 13  1  0  0  0  0
  2 10  1  0  0  0  0
  2 16  1  0  0  0  0
  3  7  2  0  0  0  0
  3  1  1  0  0  0  0
  4  7  2  0  0  0  0
  5  9  1  0  0  0  0
  5  8  2  0  0  0  0
  6  4  1  0  0  0  0
  6 17  1  0  0  0  0
  8  3  1  0  0  0  0
  9  4  1  0  0  0  0
 10  5  1  0  0  0  0
 12  1  1  0  0  0  0
 14  2  1  0  0  0  0
 15  2  1  0  0  0  0
 18  9  1  0  0  0  0
M  RAD  1   6   2
M  END
>  <HBA>
5

>  <HBD>
1

>  <TPSA>
73.92

>  <cid>
15466

>  <dipole>
3.54

>  <excitation_energy_1>
4.434

>  <excitation_energy_2>
4.78

>  <excitation_energy_3>
5.33

>  <excitation_energy_4>
5.521

>  <homo_energy>
-6.106

>  <homo_lumo_gap>
5.222

>  <logP>
0.352

>  <lumo_energy>
-0.884

>  <melting_point>
109.94

>  <molecular_refractivity>
35.69

>  <oscillator_strength_1>
0.0544

>  <oscillator_strength_2>
0.0009

>  <oscillator_strength_3>
0.0026

>  <oscillator_strength_4>
0.0025

>  <open_babel_can_smiles>
COC1=NC(=[N]=C(N1)[NH])C

>  <mulliken_charges>
18
1   -0.500144
2   -0.254491
3   0.42603
4   0.603125
5   0.777972
6   -0.667771
7   -0.486193
8   -0.513156
9   -0.659506
10   -0.447775
11   0.174719
12   0.174904
13   0.174811
14   0.199802
15   0.173082
16   0.173012
17   0.297917
18   0.353664

>  <lowdin_charges>
18
1   -0.444441
2   -0.282091
3   0.125486
4   0.114614
5   0.195158
6   -0.447711
7   -0.225449
8   -0.237876
9   -0.225383
10   -0.153143
11   0.169332
12   0.173944
13   0.173768
14   0.17913
15   0.157403
16   0.1576
17   0.266566
18   0.303093

$$$$

