PCCDB-ID:  13239
public computational chemistry database (PCCDB) project, http://pccdb.org

 36 37  0  0  0  0  0  0  0  0999 V2000
   -2.8311   -0.7750   -0.7198 C   0  0  0  0  0  0  0  0  0  0  0  0
    3.3538   -3.3738    3.9054 C   0  0  0  0  0  0  0  0  0  0  0  0
   -1.3664   -0.4664   -1.0655 C   0  0  0  0  0  0  0  0  0  0  0  0
   -2.9399   -1.5987    0.5729 C   0  0  0  0  0  0  0  0  0  0  0  0
    2.3013   -2.3477    4.3519 C   0  0  0  0  0  0  0  0  0  0  0  0
    3.1281   -3.8041    2.4481 C   0  0  0  0  0  0  0  0  0  0  0  0
   -0.5341   -1.7545   -1.1561 C   0  0  0  0  0  0  0  0  0  0  0  0
   -2.0846   -2.8744    0.5072 C   0  0  0  0  0  0  0  0  0  0  0  0
    0.8763   -2.8848    4.1384 C   0  0  0  0  0  0  0  0  0  0  0  0
    1.7011   -4.3347    2.2321 C   0  0  0  0  0  0  0  0  0  0  0  0
   -0.6099   -2.6007    0.1356 C   0  0  0  0  0  0  0  0  0  0  0  0
    0.6078   -3.3393    2.6854 C   0  0  0  0  0  0  0  0  0  0  0  0
    0.4805   -1.8578    1.5024 P   0  0  0  0  0  0  0  0  0  0  0  0
   -3.2816   -1.3428   -1.5480 H   0  0  0  0  0  0  0  0  0  0  0  0
   -3.4086    0.1539   -0.6285 H   0  0  0  0  0  0  0  0  0  0  0  0
    3.2948   -4.2582    4.5579 H   0  0  0  0  0  0  0  0  0  0  0  0
    4.3635   -2.9618    4.0285 H   0  0  0  0  0  0  0  0  0  0  0  0
   -0.9379    0.1947   -0.2977 H   0  0  0  0  0  0  0  0  0  0  0  0
   -1.3068    0.0831   -2.0135 H   0  0  0  0  0  0  0  0  0  0  0  0
   -3.9863   -1.8687    0.7645 H   0  0  0  0  0  0  0  0  0  0  0  0
   -2.6215   -0.9806    1.4234 H   0  0  0  0  0  0  0  0  0  0  0  0
    2.4373   -1.4176    3.7832 H   0  0  0  0  0  0  0  0  0  0  0  0
    2.4437   -2.0915    5.4097 H   0  0  0  0  0  0  0  0  0  0  0  0
    3.8550   -4.5750    2.1616 H   0  0  0  0  0  0  0  0  0  0  0  0
    3.3035   -2.9448    1.7873 H   0  0  0  0  0  0  0  0  0  0  0  0
    0.5102   -1.5174   -1.3917 H   0  0  0  0  0  0  0  0  0  0  0  0
   -0.9172   -2.3618   -1.9909 H   0  0  0  0  0  0  0  0  0  0  0  0
   -2.5106   -3.5369   -0.2627 H   0  0  0  0  0  0  0  0  0  0  0  0
   -2.1520   -3.4251    1.4537 H   0  0  0  0  0  0  0  0  0  0  0  0
    0.1348   -2.1377    4.4487 H   0  0  0  0  0  0  0  0  0  0  0  0
    0.7300   -3.7554    4.7964 H   0  0  0  0  0  0  0  0  0  0  0  0
    1.5761   -5.2614    2.8130 H   0  0  0  0  0  0  0  0  0  0  0  0
    1.5583   -4.6168    1.1803 H   0  0  0  0  0  0  0  0  0  0  0  0
   -0.1229   -3.5647   -0.0707 H   0  0  0  0  0  0  0  0  0  0  0  0
   -0.3598   -3.8574    2.6657 H   0  0  0  0  0  0  0  0  0  0  0  0
   -0.5263   -1.1731    2.2436 H   0  0  0  0  0  0  0  0  0  0  0  0
  1 15  1  0  0  0  0
  1  4  1  0  0  0  0
  2 17  1  0  0  0  0
  2  5  1  0  0  0  0
  2 16  1  0  0  0  0
  3  1  1  0  0  0  0
  3 18  1  0  0  0  0
  4 20  1  0  0  0  0
  4 21  1  0  0  0  0
  5 23  1  0  0  0  0
  6  2  1  0  0  0  0
  7  3  1  0  0  0  0
  7 11  1  0  0  0  0
  8  4  1  0  0  0  0
  8 29  1  0  0  0  0
  9  5  1  0  0  0  0
  9 30  1  0  0  0  0
  9 31  1  0  0  0  0
 10  6  1  0  0  0  0
 10 12  1  0  0  0  0
 10 32  1  0  0  0  0
 11  8  1  0  0  0  0
 11 13  1  0  0  0  0
 12  9  1  0  0  0  0
 13 36  1  0  0  0  0
 13 12  1  0  0  0  0
 14  1  1  0  0  0  0
 19  3  1  0  0  0  0
 22  5  1  0  0  0  0
 24  6  1  0  0  0  0
 25  6  1  0  0  0  0
 26  7  1  0  0  0  0
 27  7  1  0  0  0  0
 28  8  1  0  0  0  0
 33 10  1  0  0  0  0
 34 11  1  0  0  0  0
 35 12  1  0  0  0  0
M  END
>  <HBA>
0

>  <HBD>
1

>  <TPSA>
13.59

>  <cid>
13239

>  <dipole>
1.24

>  <excitation_energy_1>
5.356

>  <excitation_energy_2>
5.66

>  <excitation_energy_3>
5.81

>  <excitation_energy_4>
5.892

>  <homo_energy>
-6.027

>  <homo_lumo_gap>
7.187

>  <logP>
4.33

>  <lumo_energy>
1.159

>  <melting_point>
14.61

>  <molecular_refractivity>
63.88

>  <oscillator_strength_1>
0.0102

>  <oscillator_strength_2>
0.0057

>  <oscillator_strength_3>
0.028

>  <oscillator_strength_4>
0.0378

>  <open_babel_can_smiles>
C1CCC(CC1)PC1CCCCC1

>  <mulliken_charges>
36
1   -0.253393
2   -0.253537
3   -0.265521
4   -0.259556
5   -0.264427
6   -0.263153
7   -0.264243
8   -0.263002
9   -0.270106
10   -0.274573
11   -0.271318
12   -0.262471
13   0.222544
14   0.125786
15   0.130129
16   0.123751
17   0.130381
18   0.142796
19   0.131585
20   0.130545
21   0.13422
22   0.15192
23   0.129175
24   0.128161
25   0.153993
26   0.14487
27   0.126569
28   0.129696
29   0.135745
30   0.133574
31   0.13
32   0.131384
33   0.132632
34   0.146258
35   0.146059
36   -0.026471

>  <lowdin_charges>
36
1   -0.279316
2   -0.276699
3   -0.280531
4   -0.280159
5   -0.279053
6   -0.282789
7   -0.277969
8   -0.278988
9   -0.278179
10   -0.27794
11   -0.271165
12   -0.270074
13   0.15514
14   0.137206
15   0.143291
16   0.135268
17   0.142721
18   0.145596
19   0.144306
20   0.14257
21   0.141586
22   0.148731
23   0.141651
24   0.143624
25   0.151172
26   0.1495
27   0.138438
28   0.140862
29   0.142933
30   0.146013
31   0.140362
32   0.140454
33   0.140444
34   0.153961
35   0.147299
36   0.019734

$$$$

