PCCDB-ID:  3292
public computational chemistry database (PCCDB) project, http://pccdb.org

 27 28  0  0  1  0  0  0  0  0999 V2000
    2.5237   -1.1728   -0.0474 C   0  0  0  0  0  0  0  0  0  0  0  0
    3.6127   -0.1515    0.2868 C   0  0  0  0  0  0  0  0  0  0  0  0
   -1.6704    4.4310    2.1493 C   0  0  0  0  0  0  0  0  0  0  0  0
   -1.3250    3.4635    3.0928 C   0  0  0  0  0  0  0  0  0  0  0  0
   -0.7155    4.8672    1.2277 C   0  0  0  0  0  0  0  0  0  0  0  0
   -0.0338    2.9317    3.1165 C   0  0  0  0  0  0  0  0  0  0  0  0
    0.5756    4.3414    1.2512 C   0  0  0  0  0  0  0  0  0  0  0  0
    0.9243    3.3666    2.1961 C   0  0  0  0  0  0  0  0  0  0  0  0
    2.3425    2.8093    2.2163 C   0  0  2  0  0  0  0  0  0  0  0  0
    2.7515    2.1550    0.8722 C   0  0  0  0  0  0  0  0  0  0  0  0
    3.0183    0.7628    2.6035 C   0  0  0  0  0  0  0  0  0  0  0  0
    2.5726    1.7803    3.2372 N   0  0  0  0  0  0  0  0  0  0  0  0
    3.1652    0.8727    1.2271 N   0  0  0  0  0  0  0  0  0  0  0  0
    2.7537    2.6157   -0.2504 O   0  0  0  0  0  0  0  0  0  0  0  0
    3.3756   -0.4085    3.1505 O   0  0  0  0  0  0  0  0  0  0  0  0
    2.9064   -1.9031   -0.7689 H   0  0  0  0  0  0  0  0  0  0  0  0
    1.6522   -0.6790   -0.4887 H   0  0  0  0  0  0  0  0  0  0  0  0
    2.2037   -1.7133    0.8490 H   0  0  0  0  0  0  0  0  0  0  0  0
    3.9228    0.3923   -0.6098 H   0  0  0  0  0  0  0  0  0  0  0  0
    4.4925   -0.6439    0.7119 H   0  0  0  0  0  0  0  0  0  0  0  0
   -2.6758    4.8435    2.1313 H   0  0  0  0  0  0  0  0  0  0  0  0
   -2.0612    3.1188    3.8146 H   0  0  0  0  0  0  0  0  0  0  0  0
   -0.9758    5.6188    0.4869 H   0  0  0  0  0  0  0  0  0  0  0  0
    0.2439    2.1839    3.8512 H   0  0  0  0  0  0  0  0  0  0  0  0
    1.3114    4.6705    0.5239 H   0  0  0  0  0  0  0  0  0  0  0  0
    3.0429    3.6405    2.3874 H   0  0  0  0  0  0  0  0  0  0  0  0
    3.2245   -0.3149    4.1086 H   0  0  0  0  0  0  0  0  0  0  0  0
  1  2  1  0  0  0  0
  1 18  1  0  0  0  0
  2 20  1  0  0  0  0
  2 13  1  0  0  0  0
  3  4  2  0  0  0  0
  4  6  1  0  0  0  0
  4 22  1  0  0  0  0
  5  7  2  0  0  0  0
  5  3  1  0  0  0  0
  6 24  1  0  0  0  0
  7  8  1  0  0  0  0
  8  9  1  0  0  0  0
  8  6  2  0  0  0  0
  9 26  1  1  0  0  0
  9 12  1  0  0  0  0
 10 13  1  0  0  0  0
 10  9  1  0  0  0  0
 11 15  1  0  0  0  0
 11 12  2  0  0  0  0
 13 11  1  0  0  0  0
 14 10  2  0  0  0  0
 15 27  1  0  0  0  0
 16  1  1  0  0  0  0
 17  1  1  0  0  0  0
 19  2  1  0  0  0  0
 21  3  1  0  0  0  0
 23  5  1  0  0  0  0
 25  7  1  0  0  0  0
M  END
>  <HBA>
4

>  <HBD>
1

>  <TPSA>
49.41

>  <cid>
3292

>  <dipole>
2.81

>  <excitation_energy_1>
4.974

>  <excitation_energy_2>
5.249

>  <excitation_energy_3>
5.434

>  <excitation_energy_4>
5.542

>  <homo_energy>
-6.368

>  <homo_lumo_gap>
6.109

>  <logP>
1.566

>  <lumo_energy>
-0.259

>  <melting_point>
110.0

>  <molecular_refractivity>
62.84

>  <oscillator_strength_1>
0.0182

>  <oscillator_strength_2>
0.0015

>  <oscillator_strength_3>
0.0152

>  <oscillator_strength_4>
0.0078

>  <open_babel_can_smiles>
CCN1C(=O)[C@H](N=C1O)c1ccccc1

>  <mulliken_charges>
27
1   -0.449796
2   -0.150198
3   -0.12485
4   -0.134107
5   -0.136541
6   -0.167767
7   -0.165245
8   0.137887
9   -0.169497
10   0.598872
11   0.710501
12   -0.50155
13   -0.483788
14   -0.496136
15   -0.608704
16   0.154737
17   0.169496
18   0.164383
19   0.185584
20   0.169564
21   0.126225
22   0.126352
23   0.129532
24   0.143427
25   0.150073
26   0.192193
27   0.429355

>  <lowdin_charges>
27
1   -0.452495
2   -0.192747
3   -0.158425
4   -0.158714
5   -0.1552
6   -0.163631
7   -0.161826
8   -0.009579
9   -0.082329
10   0.160968
11   0.158446
12   -0.271286
13   -0.082435
14   -0.265397
15   -0.343788
16   0.1601
17   0.16256
18   0.158978
19   0.17354
20   0.161573
21   0.155374
22   0.157071
23   0.158169
24   0.167103
25   0.169411
26   0.178702
27   0.375857

$$$$

