PCCDB-ID:  29454
public computational chemistry database (PCCDB) project, http://pccdb.org

 34 36  0  0  1  0  0  0  0  0999 V2000
    0.8869    0.0412    0.0574 C   0  0  0  0  0  0  0  0  0  0  0  0
    6.4386   -3.7537    1.3860 C   0  0  0  0  0  0  0  0  0  0  0  0
    4.5515    0.8798    0.8913 C   0  0  0  0  0  0  0  0  0  0  0  0
    7.8409   -4.9086   -1.1725 C   0  0  0  0  0  0  0  0  0  0  0  0
    3.1483    0.9685    0.7754 C   0  0  0  0  0  0  0  0  0  0  0  0
    5.2452   -0.2235    0.4141 C   0  0  0  0  0  0  0  0  0  0  0  0
    6.4370   -4.4364   -1.6320 C   0  0  0  0  0  0  0  0  0  0  0  0
    8.3043   -3.7975   -0.1808 C   0  0  0  0  0  0  0  0  0  0  0  0
    3.7227   -3.1064   -1.2205 C   0  0  0  0  0  0  0  0  0  0  0  0
    2.3878   -0.0371    0.1837 C   0  0  0  0  0  0  0  0  0  0  0  0
    4.5177   -1.2594   -0.1990 C   0  0  0  0  0  0  0  0  0  0  0  0
    4.8904   -2.5217   -0.7965 C   0  0  0  0  0  0  0  0  0  0  0  0
    6.2874   -3.0333   -0.9796 C   0  0  1  0  0  0  0  0  0  0  0  0
    3.1066   -1.1445   -0.2968 C   0  0  0  0  0  0  0  0  0  0  0  0
    2.6484   -2.2877   -0.9239 N   0  0  0  0  0  0  0  0  0  0  0  0
    7.0999   -3.0821    0.2644 N   0  0  0  0  0  0  0  0  0  0  0  0
    0.5035    0.9669    0.4970 H   0  0  0  0  0  0  0  0  0  0  0  0
    0.3902   -0.7961    0.5676 H   0  0  0  0  0  0  0  0  0  0  0  0
    0.5633    0.0166   -0.9928 H   0  0  0  0  0  0  0  0  0  0  0  0
    7.1204   -3.7510    2.2431 H   0  0  0  0  0  0  0  0  0  0  0  0
    6.1422   -4.8009    1.1922 H   0  0  0  0  0  0  0  0  0  0  0  0
    5.5417   -3.1967    1.6667 H   0  0  0  0  0  0  0  0  0  0  0  0
    5.0930    1.6921    1.3689 H   0  0  0  0  0  0  0  0  0  0  0  0
    8.5399   -5.0117   -2.0090 H   0  0  0  0  0  0  0  0  0  0  0  0
    7.7867   -5.8847   -0.6796 H   0  0  0  0  0  0  0  0  0  0  0  0
    2.6390    1.8479    1.1635 H   0  0  0  0  0  0  0  0  0  0  0  0
    6.3224   -0.3064    0.5213 H   0  0  0  0  0  0  0  0  0  0  0  0
    5.6602   -5.1153   -1.2622 H   0  0  0  0  0  0  0  0  0  0  0  0
    6.3368   -4.3904   -2.7213 H   0  0  0  0  0  0  0  0  0  0  0  0
    8.9552   -3.0838   -0.7028 H   0  0  0  0  0  0  0  0  0  0  0  0
    8.8614   -4.1835    0.6779 H   0  0  0  0  0  0  0  0  0  0  0  0
    3.5639   -4.0473   -1.7283 H   0  0  0  0  0  0  0  0  0  0  0  0
    6.8220   -2.3206   -1.6284 H   0  0  0  0  0  0  0  0  0  0  0  0
    1.6867   -2.4899   -1.1450 H   0  0  0  0  0  0  0  0  0  0  0  0
  1 10  1  0  0  0  0
  1 17  1  0  0  0  0
  1 18  1  0  0  0  0
  2 22  1  0  0  0  0
  2 20  1  0  0  0  0
  3 23  1  0  0  0  0
  4 25  1  0  0  0  0
  4  8  1  0  0  0  0
  5  3  1  0  0  0  0
  5 26  1  0  0  0  0
  6 27  1  0  0  0  0
  6  3  2  0  0  0  0
  7 28  1  0  0  0  0
  7  4  1  0  0  0  0
  7 13  1  0  0  0  0
  8 16  1  0  0  0  0
  8 31  1  0  0  0  0
  9 15  1  0  0  0  0
  9 12  2  0  0  0  0
 10  5  2  0  0  0  0
 11  6  1  0  0  0  0
 12 11  1  0  0  0  0
 13 33  1  6  0  0  0
 13 12  1  0  0  0  0
 13 16  1  0  0  0  0
 14 11  2  0  0  0  0
 14 10  1  0  0  0  0
 15 14  1  0  0  0  0
 16  2  1  0  0  0  0
 19  1  1  0  0  0  0
 21  2  1  0  0  0  0
 24  4  1  0  0  0  0
 29  7  1  0  0  0  0
 30  8  1  0  0  0  0
 32  9  1  0  0  0  0
 34 15  1  0  0  0  0
M  END
>  <HBA>
1

>  <HBD>
1

>  <TPSA>
19.03

>  <cid>
29454

>  <dipole>
2.79

>  <excitation_energy_1>
4.572

>  <excitation_energy_2>
4.66

>  <excitation_energy_3>
4.708

>  <excitation_energy_4>
4.84

>  <homo_energy>
-5.246

>  <homo_lumo_gap>
5.284

>  <logP>
3.181

>  <lumo_energy>
0.038

>  <melting_point>
127.16

>  <molecular_refractivity>
72.16

>  <oscillator_strength_1>
0.0005

>  <oscillator_strength_2>
0.0912

>  <oscillator_strength_3>
0.001

>  <oscillator_strength_4>
0.0279

>  <open_babel_can_smiles>
CN1CCC[C@H]1c1c[nH]c2c1cccc2C

>  <mulliken_charges>
34
1   -0.544838
2   -0.309077
3   -0.135185
4   -0.293229
5   -0.218967
6   -0.211376
7   -0.286892
8   -0.133455
9   -0.004767
10   0.189233
11   0.090859
12   0.048841
13   -0.039538
14   0.234306
15   -0.709188
16   -0.381466
17   0.162196
18   0.152674
19   0.153216
20   0.144553
21   0.11532
22   0.168369
23   0.11725
24   0.136584
25   0.140015
26   0.111473
27   0.142658
28   0.135577
29   0.138004
30   0.140132
31   0.136625
32   0.146363
33   0.138737
34   0.324994

>  <lowdin_charges>
34
1   -0.444236
2   -0.363248
3   -0.178037
4   -0.30303
5   -0.177972
6   -0.16099
7   -0.298117
8   -0.212181
9   -0.13839
10   -0.027945
11   -0.03317
12   -0.066666
13   -0.060795
14   0.020513
15   -0.200791
16   -0.192641
17   0.162485
18   0.153975
19   0.152152
20   0.148651
21   0.118139
22   0.161385
23   0.154307
24   0.147434
25   0.145126
26   0.151488
27   0.164035
28   0.143092
29   0.146118
30   0.142814
31   0.147138
32   0.163555
33   0.146853
34   0.28895

$$$$

