PCCDB-ID:  17760
public computational chemistry database (PCCDB) project, http://pccdb.org

 39 39  0  0  1  0  0  0  0  0999 V2000
    2.8266   -1.3345   -0.7380 C   0  0  0  0  0  0  0  0  0  0  0  0
    0.8577   -0.0156    0.1178 C   0  0  0  0  0  0  0  0  0  0  0  0
    2.8271    2.0842    5.9989 C   0  0  0  0  0  0  0  0  0  0  0  0
    3.0636    3.5857    4.1462 C   0  0  0  0  0  0  0  0  0  0  0  0
    7.3849   -0.1962    1.1972 C   0  0  0  0  0  0  0  0  0  0  0  0
    6.7264   -1.2666    1.7996 C   0  0  0  0  0  0  0  0  0  0  0  0
    6.6385    0.8808    0.7147 C   0  0  0  0  0  0  0  0  0  0  0  0
    5.3346   -1.2633    1.9202 C   0  0  0  0  0  0  0  0  0  0  0  0
    5.2499    0.8834    0.8361 C   0  0  0  0  0  0  0  0  0  0  0  0
    2.5821    1.1016    2.3773 C   0  0  0  0  0  0  0  0  0  0  0  0
    3.1819    1.1831    3.7885 C   0  0  0  0  0  0  0  0  0  0  0  0
    2.5321   -1.3456    2.2452 C   0  0  0  0  0  0  0  0  0  0  0  0
    2.3912   -0.1237    0.1019 C   0  0  0  0  0  0  0  0  0  0  0  0
    4.5754   -0.1892    1.4406 C   0  0  0  0  0  0  0  0  0  0  0  0
    3.0359   -0.1442    1.5485 C   0  0  1  0  0  0  0  0  0  0  0  0
    2.1040   -2.2787    2.7886 N   0  0  0  0  0  0  0  0  0  0  0  0
    2.5946    2.2730    4.5719 N   0  0  0  0  0  0  0  0  0  0  0  0
    2.4185   -1.2508   -1.7512 H   0  0  0  0  0  0  0  0  0  0  0  0
    2.4523   -2.2693   -0.3044 H   0  0  0  0  0  0  0  0  0  0  0  0
    3.9148   -1.4087   -0.8177 H   0  0  0  0  0  0  0  0  0  0  0  0
    0.4783   -0.0457   -0.9096 H   0  0  0  0  0  0  0  0  0  0  0  0
    0.5042    0.9158    0.5695 H   0  0  0  0  0  0  0  0  0  0  0  0
    0.4058   -0.8530    0.6622 H   0  0  0  0  0  0  0  0  0  0  0  0
    2.3218    2.8782    6.5598 H   0  0  0  0  0  0  0  0  0  0  0  0
    3.9000    2.1030    6.2762 H   0  0  0  0  0  0  0  0  0  0  0  0
    2.4096    1.1240    6.3193 H   0  0  0  0  0  0  0  0  0  0  0  0
    2.5653    4.3607    4.7385 H   0  0  0  0  0  0  0  0  0  0  0  0
    2.8136    3.7626    3.0957 H   0  0  0  0  0  0  0  0  0  0  0  0
    4.1584    3.7152    4.2642 H   0  0  0  0  0  0  0  0  0  0  0  0
    8.4674   -0.1986    1.1040 H   0  0  0  0  0  0  0  0  0  0  0  0
    7.2925   -2.1122    2.1809 H   0  0  0  0  0  0  0  0  0  0  0  0
    7.1370    1.7235    0.2432 H   0  0  0  0  0  0  0  0  0  0  0  0
    4.8391   -2.1066    2.3912 H   0  0  0  0  0  0  0  0  0  0  0  0
    4.6912    1.7333    0.4542 H   0  0  0  0  0  0  0  0  0  0  0  0
    2.8396    1.9922    1.7934 H   0  0  0  0  0  0  0  0  0  0  0  0
    1.4943    1.0915    2.4840 H   0  0  0  0  0  0  0  0  0  0  0  0
    4.2837    1.2638    3.7372 H   0  0  0  0  0  0  0  0  0  0  0  0
    2.9577    0.2463    4.3116 H   0  0  0  0  0  0  0  0  0  0  0  0
    2.7888    0.7822   -0.3743 H   0  0  0  0  0  0  0  0  0  0  0  0
  1 19  1  0  0  0  0
  1 13  1  0  0  0  0
  2 22  1  0  0  0  0
  2 23  1  0  0  0  0
  3 25  1  0  0  0  0
  3 26  1  0  0  0  0
  3 24  1  0  0  0  0
  4 29  1  0  0  0  0
  4 17  1  0  0  0  0
  4 27  1  0  0  0  0
  5  6  2  0  0  0  0
  6  8  1  0  0  0  0
  6 31  1  0  0  0  0
  7  9  2  0  0  0  0
  7  5  1  0  0  0  0
  8 33  1  0  0  0  0
  9 14  1  0  0  0  0
 10 36  1  0  0  0  0
 10 11  1  0  0  0  0
 11 38  1  0  0  0  0
 11 17  1  0  0  0  0
 12 16  3  0  0  0  0
 13  2  1  0  0  0  0
 13 15  1  0  0  0  0
 14 15  1  0  0  0  0
 14  8  2  0  0  0  0
 15 12  1  1  0  0  0
 15 10  1  0  0  0  0
 17  3  1  0  0  0  0
 18  1  1  0  0  0  0
 20  1  1  0  0  0  0
 21  2  1  0  0  0  0
 28  4  1  0  0  0  0
 30  5  1  0  0  0  0
 32  7  1  0  0  0  0
 34  9  1  0  0  0  0
 35 10  1  0  0  0  0
 37 11  1  0  0  0  0
 39 13  1  0  0  0  0
M  END
>  <HBA>
2

>  <HBD>
0

>  <TPSA>
27.03

>  <cid>
17760

>  <dipole>
3.89

>  <excitation_energy_1>
4.714

>  <excitation_energy_2>
4.86

>  <excitation_energy_3>
5.194

>  <excitation_energy_4>
5.338

>  <homo_energy>
-5.758

>  <homo_lumo_gap>
5.412

>  <logP>
3.056

>  <lumo_energy>
-0.346

>  <melting_point>
45.32

>  <molecular_refractivity>
72.39

>  <oscillator_strength_1>
0.0037

>  <oscillator_strength_2>
0.0055

>  <oscillator_strength_3>
0.0066

>  <oscillator_strength_4>
0.0013

>  <open_babel_can_smiles>
CC([C@](c1ccccc1)(C#N)CCN(C)C)C

>  <mulliken_charges>
39
1   -0.463708
2   -0.464189
3   -0.296478
4   -0.301039
5   -0.123621
6   -0.136493
7   -0.136576
8   -0.181715
9   -0.173325
10   -0.281253
11   -0.13138
12   0.370245
13   -0.077547
14   0.144449
15   -0.057659
16   -0.521032
17   -0.370461
18   0.145702
19   0.163975
20   0.161663
21   0.148826
22   0.151457
23   0.16816
24   0.14749
25   0.118359
26   0.155491
27   0.150436
28   0.147364
29   0.118626
30   0.133287
31   0.137453
32   0.133532
33   0.157772
34   0.13006
35   0.142521
36   0.17152
37   0.128117
38   0.155828
39   0.134145

>  <lowdin_charges>
39
1   -0.449389
2   -0.452186
3   -0.355062
4   -0.356132
5   -0.153835
6   -0.151198
7   -0.153311
8   -0.169061
9   -0.168882
10   -0.270162
11   -0.204207
12   -0.00678
13   -0.111157
14   2.1e-05
15   0.00383
16   -0.142372
17   -0.184068
18   0.152397
19   0.158985
20   0.157611
21   0.154578
22   0.152747
23   0.161869
24   0.150582
25   0.119143
26   0.152563
27   0.152568
28   0.145817
29   0.118397
30   0.157898
31   0.162363
32   0.160429
33   0.174354
34   0.157008
35   0.147952
36   0.161614
37   0.125436
38   0.154947
39   0.144691

$$$$

