PCCDB-ID:  7291
public computational chemistry database (PCCDB) project, http://pccdb.org

 14 13  0  0  1  0  0  0  0  0999 V2000
    1.2648   -0.0495   -0.0869 C   0  0  0  0  0  0  0  0  0  0  0  0
    1.4373    0.8919    2.2627 C   0  0  0  0  0  0  0  0  0  0  0  0
    0.7007   -0.0713    1.3389 C   0  0  1  0  0  0  0  0  0  0  0  0
    0.4198   -0.8051   -0.9593 O   0  0  0  0  0  0  0  0  0  0  0  0
   -0.6655    0.3095    1.3000 O   0  0  0  0  0  0  0  0  0  0  0  0
    0.8712    0.8119    4.0119 S   0  0  0  0  0  0  0  0  0  0  0  0
    2.3012   -0.4158   -0.1112 H   0  0  0  0  0  0  0  0  0  0  0  0
    1.2486    0.9726   -0.4780 H   0  0  0  0  0  0  0  0  0  0  0  0
    1.3279    1.9148    1.8896 H   0  0  0  0  0  0  0  0  0  0  0  0
    2.5041    0.6477    2.2934 H   0  0  0  0  0  0  0  0  0  0  0  0
    0.8019   -1.0957    1.7418 H   0  0  0  0  0  0  0  0  0  0  0  0
    0.5594   -1.7460   -0.7654 H   0  0  0  0  0  0  0  0  0  0  0  0
   -1.0241   -0.1028    0.4935 H   0  0  0  0  0  0  0  0  0  0  0  0
   -0.4358    0.9980    3.7337 H   0  0  0  0  0  0  0  0  0  0  0  0
  1  3  1  0  0  0  0
  2 10  1  0  0  0  0
  2  6  1  0  0  0  0
  3 11  1  1  0  0  0
  3  2  1  0  0  0  0
  4 12  1  0  0  0  0
  4  1  1  0  0  0  0
  5  3  1  0  0  0  0
  7  1  1  0  0  0  0
  8  1  1  0  0  0  0
  9  2  1  0  0  0  0
 13  5  1  0  0  0  0
 14  6  1  0  0  0  0
M  END
>  <HBA>
3

>  <HBD>
3

>  <TPSA>
79.26

>  <cid>
7291

>  <dipole>
2.75

>  <excitation_energy_1>
5.367

>  <excitation_energy_2>
5.497

>  <excitation_energy_3>
5.964

>  <excitation_energy_4>
6.315

>  <homo_energy>
-6.321

>  <homo_lumo_gap>
7.187

>  <logP>
-0.731

>  <lumo_energy>
0.865

>  <melting_point>
32.92

>  <molecular_refractivity>
26.79

>  <oscillator_strength_1>
0.0076

>  <oscillator_strength_2>
0.0064

>  <oscillator_strength_3>
0.0299

>  <oscillator_strength_4>
0.0066

>  <open_babel_can_smiles>
OC[C@@H](CS)O

>  <mulliken_charges>
14
1   -0.064902
2   -0.422263
3   0.137463
4   -0.61711
5   -0.637808
6   -0.093575
7   0.132392
8   0.161255
9   0.183924
10   0.171894
11   0.119391
12   0.397647
13   0.405291
14   0.126401

>  <lowdin_charges>
14
1   -0.1545
2   -0.375508
3   -0.023463
4   -0.459229
5   -0.470554
6   -0.087276
7   0.136082
8   0.154349
9   0.164115
10   0.166747
11   0.125588
12   0.346133
13   0.347087
14   0.130429

$$$$

