PCCDB-ID:  16320
public computational chemistry database (PCCDB) project, http://pccdb.org

 33 32  0  0  1  0  0  0  0  0999 V2000
    4.5411   -3.9428   -4.4270 C   0  0  0  0  0  0  0  0  0  0  0  0
    9.2220   -3.2530   -0.1511 C   0  0  0  0  0  0  0  0  0  0  0  0
    3.6969   -3.1729   -3.4043 C   0  0  0  0  0  0  0  0  0  0  0  0
    9.4495   -1.7451    0.0308 C   0  0  0  0  0  0  0  0  0  0  0  0
    4.5042   -2.2310   -2.4954 C   0  0  0  0  0  0  0  0  0  0  0  0
    5.1719   -1.0602   -3.2324 C   0  0  0  0  0  0  0  0  0  0  0  0
    5.8084   -0.0093   -2.3046 C   0  0  0  0  0  0  0  0  0  0  0  0
    9.5151   -0.9093   -1.2620 C   0  0  0  0  0  0  0  0  0  0  0  0
    6.9790   -0.4728   -1.4161 C   0  0  0  0  0  0  0  0  0  0  0  0
    8.2643   -0.8623   -2.1644 C   0  0  2  0  0  0  0  0  0  0  0  0
    8.1169   -2.0670   -2.9303 O   0  0  0  0  0  0  0  0  0  0  0  0
    3.9201   -4.6306   -5.0127 H   0  0  0  0  0  0  0  0  0  0  0  0
    5.3171   -4.5385   -3.9298 H   0  0  0  0  0  0  0  0  0  0  0  0
    5.0433   -3.2702   -5.1307 H   0  0  0  0  0  0  0  0  0  0  0  0
    9.3914   -3.7885    0.7900 H   0  0  0  0  0  0  0  0  0  0  0  0
    9.9010   -3.6729   -0.9024 H   0  0  0  0  0  0  0  0  0  0  0  0
    8.1941   -3.4870   -0.4576 H   0  0  0  0  0  0  0  0  0  0  0  0
    3.1553   -3.8923   -2.7747 H   0  0  0  0  0  0  0  0  0  0  0  0
    2.9265   -2.5911   -3.9306 H   0  0  0  0  0  0  0  0  0  0  0  0
   10.4022   -1.6025    0.5580 H   0  0  0  0  0  0  0  0  0  0  0  0
    8.6782   -1.3400    0.6995 H   0  0  0  0  0  0  0  0  0  0  0  0
    5.2652   -2.8208   -1.9637 H   0  0  0  0  0  0  0  0  0  0  0  0
    3.8345   -1.8311   -1.7196 H   0  0  0  0  0  0  0  0  0  0  0  0
    4.4079   -0.5530   -3.8404 H   0  0  0  0  0  0  0  0  0  0  0  0
    5.9298   -1.4386   -3.9243 H   0  0  0  0  0  0  0  0  0  0  0  0
    5.0257    0.3981   -1.6481 H   0  0  0  0  0  0  0  0  0  0  0  0
    6.1558    0.8356   -2.9164 H   0  0  0  0  0  0  0  0  0  0  0  0
   10.3445   -1.2710   -1.8839 H   0  0  0  0  0  0  0  0  0  0  0  0
    9.7637    0.1247   -0.9828 H   0  0  0  0  0  0  0  0  0  0  0  0
    6.6626   -1.3071   -0.7740 H   0  0  0  0  0  0  0  0  0  0  0  0
    7.2262    0.3495   -0.7294 H   0  0  0  0  0  0  0  0  0  0  0  0
    8.4560   -0.0983   -2.9293 H   0  0  0  0  0  0  0  0  0  0  0  0
    7.8476   -2.7723   -2.3230 H   0  0  0  0  0  0  0  0  0  0  0  0
  1 13  1  0  0  0  0
  1  3  1  0  0  0  0
  2  4  1  0  0  0  0
  2 15  1  0  0  0  0
  3 18  1  0  0  0  0
  3  5  1  0  0  0  0
  4 20  1  0  0  0  0
  4 21  1  0  0  0  0
  5 22  1  0  0  0  0
  5 23  1  0  0  0  0
  6  5  1  0  0  0  0
  6  7  1  0  0  0  0
  7 26  1  0  0  0  0
  7  9  1  0  0  0  0
  8 29  1  0  0  0  0
  8  4  1  0  0  0  0
  9 30  1  0  0  0  0
  9 31  1  0  0  0  0
 10 32  1  6  0  0  0
 10  9  1  0  0  0  0
 10  8  1  0  0  0  0
 11 33  1  0  0  0  0
 11 10  1  0  0  0  0
 12  1  1  0  0  0  0
 14  1  1  0  0  0  0
 16  2  1  0  0  0  0
 17  2  1  0  0  0  0
 19  3  1  0  0  0  0
 24  6  1  0  0  0  0
 25  6  1  0  0  0  0
 27  7  1  0  0  0  0
 28  8  1  0  0  0  0
M  END
>  <HBA>
1

>  <HBD>
1

>  <TPSA>
20.23

>  <cid>
16320

>  <dipole>
1.63

>  <excitation_energy_1>
6.267

>  <excitation_energy_2>
6.639

>  <excitation_energy_3>
6.912

>  <excitation_energy_4>
6.949

>  <homo_energy>
-6.879

>  <homo_lumo_gap>
8.286

>  <logP>
3.118

>  <lumo_energy>
1.407

>  <melting_point>
-10.6

>  <molecular_refractivity>
51.35

>  <oscillator_strength_1>
0.007

>  <oscillator_strength_2>
0.0013

>  <oscillator_strength_3>
0.0178

>  <oscillator_strength_4>
0.0033

>  <open_babel_can_smiles>
CCCCCC[C@@H](CCC)O

>  <mulliken_charges>
33
1   -0.440253
2   -0.454567
3   -0.249358
4   -0.258199
5   -0.247014
6   -0.256881
7   -0.262884
8   -0.27232
9   -0.281865
10   0.137227
11   -0.631384
12   0.139193
13   0.136018
14   0.153052
15   0.14799
16   0.156236
17   0.127334
18   0.126804
19   0.129257
20   0.137584
21   0.137921
22   0.111442
23   0.122617
24   0.119303
25   0.166946
26   0.12505
27   0.127505
28   0.141569
29   0.126977
30   0.129962
31   0.130703
32   0.129876
33   0.394162

>  <lowdin_charges>
33
1   -0.450083
2   -0.450689
3   -0.275017
4   -0.278867
5   -0.278897
6   -0.288342
7   -0.275044
8   -0.294407
9   -0.296862
10   -0.00407
11   -0.468609
12   0.149587
13   0.144941
14   0.152419
15   0.152872
16   0.154121
17   0.134883
18   0.140866
19   0.139492
20   0.146377
21   0.142718
22   0.129598
23   0.137951
24   0.13798
25   0.156594
26   0.1396
27   0.141027
28   0.149461
29   0.143475
30   0.139842
31   0.147547
32   0.142336
33   0.3372

$$$$

