PCCDB-ID:  7870
public computational chemistry database (PCCDB) project, http://pccdb.org

 22 21  0  0  1  0  0  0  0  0999 V2000
    0.6819    0.4649    0.0120 C   0  0  0  0  0  0  0  0  0  0  0  0
    2.7511   -2.7792   -2.6864 C   0  0  0  0  0  0  0  0  0  0  0  0
    1.5505   -3.2700   -0.5232 C   0  0  0  0  0  0  0  0  0  0  0  0
    2.6020   -0.9746   -0.9481 C   0  0  0  0  0  0  0  0  0  0  0  0
    1.9854   -0.2844    0.2838 C   0  0  1  0  0  0  0  0  0  0  0  0
    1.8790   -2.1888   -1.5655 C   0  0  0  0  0  0  0  0  0  0  0  0
    2.9607    0.5949    0.8626 O   0  0  0  0  0  0  0  0  0  0  0  0
    0.6590   -1.6862   -2.1431 O   0  0  0  0  0  0  0  0  0  0  0  0
   -0.0948   -0.2070   -0.3603 H   0  0  0  0  0  0  0  0  0  0  0  0
    0.8369    1.2358   -0.7556 H   0  0  0  0  0  0  0  0  0  0  0  0
    0.3383    0.9564    0.9284 H   0  0  0  0  0  0  0  0  0  0  0  0
    3.6987   -3.1699   -2.2984 H   0  0  0  0  0  0  0  0  0  0  0  0
    2.9711   -2.0156   -3.4398 H   0  0  0  0  0  0  0  0  0  0  0  0
    2.2294   -3.6074   -3.1843 H   0  0  0  0  0  0  0  0  0  0  0  0
    2.4514   -3.6084    0.0014 H   0  0  0  0  0  0  0  0  0  0  0  0
    1.1032   -4.1463   -1.0107 H   0  0  0  0  0  0  0  0  0  0  0  0
    0.8364   -2.8999    0.2182 H   0  0  0  0  0  0  0  0  0  0  0  0
    3.6083   -1.2962   -0.6538 H   0  0  0  0  0  0  0  0  0  0  0  0
    2.7267   -0.2259   -1.7443 H   0  0  0  0  0  0  0  0  0  0  0  0
    1.8156   -1.0297    1.0687 H   0  0  0  0  0  0  0  0  0  0  0  0
    3.0950    1.3209    0.2316 H   0  0  0  0  0  0  0  0  0  0  0  0
    0.1982   -2.4407   -2.5441 H   0  0  0  0  0  0  0  0  0  0  0  0
  1  5  1  0  0  0  0
  1 11  1  0  0  0  0
  2 12  1  0  0  0  0
  2  6  1  0  0  0  0
  3 15  1  0  0  0  0
  3 17  1  0  0  0  0
  4 18  1  0  0  0  0
  4  5  1  0  0  0  0
  5  7  1  0  0  0  0
  5 20  1  1  0  0  0
  6  4  1  0  0  0  0
  6  3  1  0  0  0  0
  8  6  1  0  0  0  0
  9  1  1  0  0  0  0
 10  1  1  0  0  0  0
 13  2  1  0  0  0  0
 14  2  1  0  0  0  0
 16  3  1  0  0  0  0
 19  4  1  0  0  0  0
 21  7  1  0  0  0  0
 22  8  1  0  0  0  0
M  END
>  <HBA>
2

>  <HBD>
2

>  <TPSA>
40.46

>  <cid>
7870

>  <dipole>
2.22

>  <excitation_energy_1>
6.446

>  <excitation_energy_2>
6.558

>  <excitation_energy_3>
6.779

>  <excitation_energy_4>
7.242

>  <homo_energy>
-6.928

>  <homo_lumo_gap>
8.569

>  <logP>
0.528

>  <lumo_energy>
1.641

>  <melting_point>
21.7

>  <molecular_refractivity>
33.32

>  <oscillator_strength_1>
0.0341

>  <oscillator_strength_2>
0.0094

>  <oscillator_strength_3>
0.0052

>  <oscillator_strength_4>
0.001

>  <open_babel_can_smiles>
C[C@@H](CC(O)(C)C)O

>  <mulliken_charges>
22
1   -0.452126
2   -0.451997
3   -0.465501
4   -0.273245
5   0.13013
6   0.300601
7   -0.627266
8   -0.632734
9   0.169256
10   0.126486
11   0.145594
12   0.143818
13   0.154686
14   0.128114
15   0.148131
16   0.130303
17   0.160742
18   0.143188
19   0.125669
20   0.13331
21   0.3791
22   0.383742

>  <lowdin_charges>
22
1   -0.465946
2   -0.456491
3   -0.462211
4   -0.297463
5   0.000903
6   0.123675
7   -0.468905
8   -0.463865
9   0.166329
10   0.142865
11   0.151864
12   0.152734
13   0.157031
14   0.143992
15   0.155977
16   0.145424
17   0.158042
18   0.153435
19   0.144378
20   0.142117
21   0.336472
22   0.339642

$$$$

