PCCDB-ID:  32936
public computational chemistry database (PCCDB) project, http://pccdb.org

 34 33  0  0  0  0  0  0  0  0999 V2000
    0.2384    2.1034   -3.0868 C   0  0  0  0  0  0  0  0  0  0  0  0
    6.7758   -0.0489   -8.0954 C   0  0  0  0  0  0  0  0  0  0  0  0
    1.3260    2.3919   -2.3704 C   0  0  0  0  0  0  0  0  0  0  0  0
    5.2552    0.1224   -8.0333 C   0  0  0  0  0  0  0  0  0  0  0  0
    2.1463    1.3882   -1.6043 C   0  0  0  0  0  0  0  0  0  0  0  0
    4.6875    0.0967   -6.5976 C   0  0  0  0  0  0  0  0  0  0  0  0
    3.5954    1.2284   -2.1166 C   0  0  0  0  0  0  0  0  0  0  0  0
    5.1218    1.2666   -5.7556 C   0  0  0  0  0  0  0  0  0  0  0  0
    4.4694    2.4771   -1.9230 C   0  0  0  0  0  0  0  0  0  0  0  0
    5.8331    1.1931   -4.6261 C   0  0  0  0  0  0  0  0  0  0  0  0
    5.9546    2.3064   -2.2960 C   0  0  0  0  0  0  0  0  0  0  0  0
    6.2930    2.3666   -3.8023 C   0  0  0  0  0  0  0  0  0  0  0  0
   -0.3141    2.8682   -3.6265 H   0  0  0  0  0  0  0  0  0  0  0  0
   -0.1446    1.0869   -3.1589 H   0  0  0  0  0  0  0  0  0  0  0  0
    7.1363   -0.0219   -9.1300 H   0  0  0  0  0  0  0  0  0  0  0  0
    7.0810   -1.0090   -7.6604 H   0  0  0  0  0  0  0  0  0  0  0  0
    7.2876    0.7428   -7.5373 H   0  0  0  0  0  0  0  0  0  0  0  0
    1.6646    3.4280   -2.3284 H   0  0  0  0  0  0  0  0  0  0  0  0
    4.7722   -0.6733   -8.6159 H   0  0  0  0  0  0  0  0  0  0  0  0
    4.9711    1.0689   -8.5147 H   0  0  0  0  0  0  0  0  0  0  0  0
    1.6442    0.4129   -1.6415 H   0  0  0  0  0  0  0  0  0  0  0  0
    2.1817    1.6824   -0.5434 H   0  0  0  0  0  0  0  0  0  0  0  0
    4.9792   -0.8416   -6.1061 H   0  0  0  0  0  0  0  0  0  0  0  0
    3.5889    0.0877   -6.6616 H   0  0  0  0  0  0  0  0  0  0  0  0
    3.5730    0.9440   -3.1740 H   0  0  0  0  0  0  0  0  0  0  0  0
    4.0583    0.3896   -1.5766 H   0  0  0  0  0  0  0  0  0  0  0  0
    4.8209    2.2515   -6.1222 H   0  0  0  0  0  0  0  0  0  0  0  0
    4.4133    2.7751   -0.8655 H   0  0  0  0  0  0  0  0  0  0  0  0
    4.0553    3.3188   -2.4959 H   0  0  0  0  0  0  0  0  0  0  0  0
    6.1362    0.2085   -4.2608 H   0  0  0  0  0  0  0  0  0  0  0  0
    6.3313    1.3618   -1.8763 H   0  0  0  0  0  0  0  0  0  0  0  0
    6.5267    3.1031   -1.8020 H   0  0  0  0  0  0  0  0  0  0  0  0
    5.8916    3.2963   -4.2288 H   0  0  0  0  0  0  0  0  0  0  0  0
    7.3889    2.4403   -3.8858 H   0  0  0  0  0  0  0  0  0  0  0  0
  1  3  2  0  0  0  0
  2  4  1  0  0  0  0
  2 16  1  0  0  0  0
  2 17  1  0  0  0  0
  3 18  1  0  0  0  0
  3  5  1  0  0  0  0
  4  6  1  0  0  0  0
  5 22  1  0  0  0  0
  6 23  1  0  0  0  0
  6  8  1  0  0  0  0
  7  9  1  0  0  0  0
  7  5  1  0  0  0  0
  7 26  1  0  0  0  0
  8 10  2  0  0  0  0
  9 28  1  0  0  0  0
 10 30  1  0  0  0  0
 10 12  1  0  0  0  0
 11  9  1  0  0  0  0
 11 31  1  0  0  0  0
 11 32  1  0  0  0  0
 12 11  1  0  0  0  0
 13  1  1  0  0  0  0
 14  1  1  0  0  0  0
 15  2  1  0  0  0  0
 19  4  1  0  0  0  0
 20  4  1  0  0  0  0
 21  5  1  0  0  0  0
 24  6  1  0  0  0  0
 25  7  1  0  0  0  0
 27  8  1  0  0  0  0
 29  9  1  0  0  0  0
 33 12  1  0  0  0  0
 34 12  1  0  0  0  0
M  END
>  <HBA>
0

>  <HBD>
0

>  <TPSA>
0.0

>  <cid>
32936

>  <dipole>
0.43

>  <excitation_energy_1>
5.925

>  <excitation_energy_2>
6.027

>  <excitation_energy_3>
6.145

>  <excitation_energy_4>
6.22

>  <homo_energy>
-6.335

>  <homo_lumo_gap>
7.029

>  <logP>
4.479

>  <lumo_energy>
0.694

>  <melting_point>
-41.36

>  <molecular_refractivity>
58.85

>  <oscillator_strength_1>
0.0438

>  <oscillator_strength_2>
0.025

>  <oscillator_strength_3>
0.002

>  <oscillator_strength_4>
0.0126

>  <open_babel_can_smiles>
CCC/C=C/CCCCCC=C

>  <mulliken_charges>
34
1   -0.342547
2   -0.438054
3   -0.037931
4   -0.249965
5   -0.307015
6   -0.298521
7   -0.255969
8   -0.09246
9   -0.252265
10   -0.084868
11   -0.262674
12   -0.30169
13   0.134914
14   0.132217
15   0.139879
16   0.138183
17   0.150749
18   0.124489
19   0.13142
20   0.131208
21   0.134268
22   0.1361
23   0.133078
24   0.139992
25   0.154226
26   0.123694
27   0.113951
28   0.125574
29   0.131427
30   0.114154
31   0.128624
32   0.129744
33   0.134924
34   0.141145

>  <lowdin_charges>
34
1   -0.346304
2   -0.447411
3   -0.143951
4   -0.272484
5   -0.271059
6   -0.270314
7   -0.279005
8   -0.170542
9   -0.277083
10   -0.168718
11   -0.276204
12   -0.270019
13   0.157255
14   0.151351
15   0.147449
16   0.14488
17   0.152577
18   0.147159
19   0.142496
20   0.139284
21   0.146558
22   0.143406
23   0.143206
24   0.1467
25   0.15134
26   0.139062
27   0.143839
28   0.137221
29   0.140227
30   0.143857
31   0.138748
32   0.144774
33   0.144097
34   0.147605

$$$$

