PCCDB-ID:  8007
public computational chemistry database (PCCDB) project, http://pccdb.org

 16 15  0  0  0  0  0  0  0  0999 V2000
    0.9893    0.2352   -0.0703 C   0  0  0  0  0  0  0  0  0  0  0  0
    2.5196    0.1658   -0.1038 C   0  0  0  0  0  0  0  0  0  0  0  0
    3.0692   -1.1962    0.3374 C   0  0  0  0  0  0  0  0  0  0  0  0
    4.5972   -1.2713    0.3161 C   0  0  0  0  0  0  0  0  0  0  0  0
    5.0550   -2.6144    0.6936 N   0  0  0  0  0  0  0  0  0  0  0  0
    0.6258    1.2188   -0.3891 H   0  0  0  0  0  0  0  0  0  0  0  0
    0.6067    0.0500    0.9410 H   0  0  0  0  0  0  0  0  0  0  0  0
    0.5446   -0.5163   -0.7340 H   0  0  0  0  0  0  0  0  0  0  0  0
    2.9353    0.9539    0.5403 H   0  0  0  0  0  0  0  0  0  0  0  0
    2.8730    0.3863   -1.1211 H   0  0  0  0  0  0  0  0  0  0  0  0
    2.6734   -1.9923   -0.3066 H   0  0  0  0  0  0  0  0  0  0  0  0
    2.7124   -1.4171    1.3557 H   0  0  0  0  0  0  0  0  0  0  0  0
    5.0067   -0.4627    0.9512 H   0  0  0  0  0  0  0  0  0  0  0  0
    4.9536   -1.0747   -0.7037 H   0  0  0  0  0  0  0  0  0  0  0  0
    4.8124   -2.7923    1.6681 H   0  0  0  0  0  0  0  0  0  0  0  0
    6.0722   -2.6576    0.6481 H   0  0  0  0  0  0  0  0  0  0  0  0
  1  7  1  0  0  0  0
  2  1  1  0  0  0  0
  2  3  1  0  0  0  0
  2  9  1  0  0  0  0
  3 12  1  0  0  0  0
  4  3  1  0  0  0  0
  4  5  1  0  0  0  0
  4 13  1  0  0  0  0
  5 15  1  0  0  0  0
  6  1  1  0  0  0  0
  8  1  1  0  0  0  0
 10  2  1  0  0  0  0
 11  3  1  0  0  0  0
 14  4  1  0  0  0  0
 16  5  1  0  0  0  0
M  END
>  <HBA>
1

>  <HBD>
1

>  <TPSA>
26.02

>  <cid>
8007

>  <dipole>
1.36

>  <excitation_energy_1>
5.576

>  <excitation_energy_2>
6.431

>  <excitation_energy_3>
6.539

>  <excitation_energy_4>
6.808

>  <homo_energy>
-6.212

>  <homo_lumo_gap>
8.534

>  <logP>
1.446

>  <lumo_energy>
2.321

>  <melting_point>
29.01

>  <molecular_refractivity>
24.05

>  <oscillator_strength_1>
0.0129

>  <oscillator_strength_2>
0.0132

>  <oscillator_strength_3>
0.01

>  <oscillator_strength_4>
0.0393

>  <open_babel_can_smiles>
CCCCN

>  <mulliken_charges>
16
1   -0.440329
2   -0.250229
3   -0.240256
4   -0.132969
5   -0.715879
6   0.14095
7   0.14072
8   0.143592
9   0.128789
10   0.131406
11   0.14587
12   0.119986
13   0.108305
14   0.136524
15   0.289921
16   0.293599

>  <lowdin_charges>
16
1   -0.443883
2   -0.272565
3   -0.279022
4   -0.204871
5   -0.55488
6   0.148499
7   0.145293
8   0.148584
9   0.138859
10   0.13855
11   0.14896
12   0.133296
13   0.115212
14   0.139004
15   0.24816
16   0.250802

$$$$

