PCCDB-ID:  9188
public computational chemistry database (PCCDB) project, http://pccdb.org

 27 30  0  0  0  0  0  0  0  0999 V2000
   -3.8611    1.0824   -0.1952 C   0  0  0  0  0  0  0  0  0  0  0  0
   -4.0061   -0.3331   -0.2597 C   0  0  0  0  0  0  0  0  0  0  0  0
   -2.6163    1.6477   -0.0879 C   0  0  0  0  0  0  0  0  0  0  0  0
   -2.9037   -1.1475   -0.2152 C   0  0  0  0  0  0  0  0  0  0  0  0
    3.4232    0.3726    0.2649 C   0  0  0  0  0  0  0  0  0  0  0  0
    2.3039    1.1509    0.2209 C   0  0  0  0  0  0  0  0  0  0  0  0
    4.3589   -2.0315    0.2430 C   0  0  0  0  0  0  0  0  0  0  0  0
    3.8955   -3.3090    0.1694 C   0  0  0  0  0  0  0  0  0  0  0  0
   -0.1548    1.3798    0.0678 C   0  0  0  0  0  0  0  0  0  0  0  0
   -0.4428   -1.4053   -0.0583 C   0  0  0  0  0  0  0  0  0  0  0  0
    3.3080   -1.0538    0.2059 C   0  0  0  0  0  0  0  0  0  0  0  0
   -1.4434    0.8348   -0.0393 C   0  0  0  0  0  0  0  0  0  0  0  0
   -1.5900   -0.5984   -0.1045 C   0  0  0  0  0  0  0  0  0  0  0  0
    0.9891    0.5793    0.1132 C   0  0  0  0  0  0  0  0  0  0  0  0
    0.8378   -0.8587    0.0489 C   0  0  0  0  0  0  0  0  0  0  0  0
    2.0410   -1.6357    0.1008 C   0  0  0  0  0  0  0  0  0  0  0  0
    2.1559   -3.3825    0.0512 S   0  0  0  0  0  0  0  0  0  0  0  0
   -4.7455    1.7126   -0.2315 H   0  0  0  0  0  0  0  0  0  0  0  0
   -4.9996   -0.7650   -0.3444 H   0  0  0  0  0  0  0  0  0  0  0  0
   -2.5020    2.7280   -0.0383 H   0  0  0  0  0  0  0  0  0  0  0  0
   -3.0129   -2.2284   -0.2637 H   0  0  0  0  0  0  0  0  0  0  0  0
    4.4089    0.8231    0.3457 H   0  0  0  0  0  0  0  0  0  0  0  0
    2.3869    2.2338    0.2666 H   0  0  0  0  0  0  0  0  0  0  0  0
    5.4110   -1.7784    0.3218 H   0  0  0  0  0  0  0  0  0  0  0  0
    4.4666   -4.2279    0.1767 H   0  0  0  0  0  0  0  0  0  0  0  0
   -0.0424    2.4611    0.1159 H   0  0  0  0  0  0  0  0  0  0  0  0
   -0.5628   -2.4853   -0.1109 H   0  0  0  0  0  0  0  0  0  0  0  0
  1  3  2  0  0  0  0
  2  4  2  0  0  0  0
  2  1  1  0  0  0  0
  3 12  1  0  0  0  0
  3 20  1  0  0  0  0
  4 13  1  0  0  0  0
  5 22  1  0  0  0  0
  6  5  1  0  0  0  0
  6 23  1  0  0  0  0
  7 24  1  0  0  0  0
  8 25  1  0  0  0  0
  8  7  2  0  0  0  0
  9 14  1  0  0  0  0
  9 26  1  0  0  0  0
 10 15  1  0  0  0  0
 11  7  1  0  0  0  0
 11  5  2  0  0  0  0
 12  9  2  0  0  0  0
 13 10  2  0  0  0  0
 13 12  1  0  0  0  0
 14  6  2  0  0  0  0
 15 16  2  0  0  0  0
 15 14  1  0  0  0  0
 16 11  1  0  0  0  0
 17 16  1  0  0  0  0
 17  8  1  0  0  0  0
 18  1  1  0  0  0  0
 19  2  1  0  0  0  0
 21  4  1  0  0  0  0
 27 10  1  0  0  0  0
M  END
>  <HBA>
1

>  <HBD>
0

>  <TPSA>
28.24

>  <cid>
9188

>  <dipole>
0.62

>  <excitation_energy_1>
3.161

>  <excitation_energy_2>
3.551

>  <excitation_energy_3>
4.207

>  <excitation_energy_4>
4.467

>  <homo_energy>
-5.244

>  <homo_lumo_gap>
3.57

>  <logP>
5.208

>  <lumo_energy>
-1.674

>  <melting_point>
137.56

>  <molecular_refractivity>
76.84

>  <oscillator_strength_1>
0.0375

>  <oscillator_strength_2>
0.0179

>  <oscillator_strength_3>
0.2998

>  <oscillator_strength_4>
0.587

>  <open_babel_can_smiles>
c1ccc2c(c1)cc1c(c2)c2sccc2cc1

>  <mulliken_charges>
27
1   -0.139806
2   -0.138644
3   -0.185324
4   -0.186953
5   -0.182249
6   -0.196107
7   -0.136935
8   -0.348731
9   -0.309228
10   -0.308886
11   0.158201
12   0.152813
13   0.146776
14   0.170785
15   0.151602
16   -0.273245
17   0.247154
18   0.130759
19   0.131166
20   0.130211
21   0.131407
22   0.132088
23   0.131179
24   0.144118
25   0.174008
26   0.130668
27   0.143173

>  <lowdin_charges>
27
1   -0.160502
2   -0.157138
3   -0.151993
4   -0.153184
5   -0.157016
6   -0.157653
7   -0.180339
8   -0.305792
9   -0.154335
10   -0.161768
11   -0.023174
12   -0.002622
13   0.002123
14   -0.000205
15   -0.00385
16   -0.149213
17   0.300179
18   0.159786
19   0.158879
20   0.156183
21   0.156745
22   0.160842
23   0.157419
24   0.165959
25   0.183705
26   0.155898
27   0.161065

$$$$

