PCCDB-ID:  22347
public computational chemistry database (PCCDB) project, http://pccdb.org

 19 19  0  0  0  0  0  0  0  0999 V2000
   -1.7568   -0.1474    0.0595 C   0  0  0  0  0  0  0  0  0  0  0  0
   -1.1904    1.0503   -0.3982 C   0  0  0  0  0  0  0  0  0  0  0  0
   -0.9416   -1.2243    0.4111 C   0  0  0  0  0  0  0  0  0  0  0  0
    0.1886    1.1778   -0.5064 C   0  0  0  0  0  0  0  0  0  0  0  0
    0.4431   -1.1051    0.3063 C   0  0  0  0  0  0  0  0  0  0  0  0
    4.9127    1.2024   -2.0286 C   0  0  0  0  0  0  0  0  0  0  0  0
    5.0176    2.0429    0.2497 C   0  0  0  0  0  0  0  0  0  0  0  0
    1.0072    0.0920   -0.1516 C   0  0  0  0  0  0  0  0  0  0  0  0
    4.4356    1.0279   -0.6456 C   0  0  0  0  0  0  0  0  0  0  0  0
    5.2705    1.3099   -3.1260 N   0  0  0  0  0  0  0  0  0  0  0  0
    5.4599    2.8251    0.9822 N   0  0  0  0  0  0  0  0  0  0  0  0
    2.4261    0.0974   -0.2171 N   0  0  0  0  0  0  0  0  0  0  0  0
    2.9404    1.1609   -0.6263 N   0  0  0  0  0  0  0  0  0  0  0  0
   -2.8366   -0.2361    0.1412 H   0  0  0  0  0  0  0  0  0  0  0  0
   -1.8319    1.8834   -0.6705 H   0  0  0  0  0  0  0  0  0  0  0  0
   -1.3818   -2.1516    0.7654 H   0  0  0  0  0  0  0  0  0  0  0  0
    0.6456    2.0959   -0.8585 H   0  0  0  0  0  0  0  0  0  0  0  0
    1.1063   -1.9226    0.5708 H   0  0  0  0  0  0  0  0  0  0  0  0
    4.7214    0.0275   -0.2902 H   0  0  0  0  0  0  0  0  0  0  0  0
  1 14  1  0  0  0  0
  1  3  2  0  0  0  0
  2  1  1  0  0  0  0
  3 16  1  0  0  0  0
  4  2  2  0  0  0  0
  4  8  1  0  0  0  0
  5  3  1  0  0  0  0
  5 18  1  0  0  0  0
  6  9  1  0  0  0  0
  7 11  3  0  0  0  0
  8  5  2  0  0  0  0
  9 13  1  0  0  0  0
  9 19  1  0  0  0  0
  9  7  1  0  0  0  0
 10  6  3  0  0  0  0
 12  8  1  0  0  0  0
 13 12  1  0  0  0  0
 15  2  1  0  0  0  0
 17  4  1  0  0  0  0
M  RAD  2  12   2  13   2
M  END
>  <HBA>
4

>  <HBD>
0

>  <TPSA>
72.3

>  <cid>
22347

>  <dipole>
6.06

>  <excitation_energy_1>
3.08

>  <excitation_energy_2>
3.996

>  <excitation_energy_3>
4.345

>  <excitation_energy_4>
5.675

>  <homo_energy>
-7.363

>  <homo_lumo_gap>
4.531

>  <logP>
2.186

>  <lumo_energy>
-2.833

>  <melting_point>
92.69

>  <molecular_refractivity>
45.93

>  <oscillator_strength_1>
0.0002

>  <oscillator_strength_2>
0.0175

>  <oscillator_strength_3>
0.449

>  <oscillator_strength_4>
0.0559

>  <open_babel_can_smiles>
N#CC(C#N)[N][N]c1ccccc1

>  <mulliken_charges>
19
1   -0.110432
2   -0.144267
3   -0.137885
4   -0.117349
5   -0.129458
6   0.393352
7   0.393266
8   0.24917
9   -0.103899
10   -0.435124
11   -0.435183
12   -0.271501
13   -0.167756
14   0.148725
15   0.150965
16   0.148675
17   0.173597
18   0.155487
19   0.239618

>  <lowdin_charges>
19
1   -0.127259
2   -0.147365
3   -0.152078
4   -0.138808
5   -0.13469
6   -0.007923
7   -0.006574
8   0.00319
9   -0.061967
10   -0.075617
11   -0.075622
12   -0.052323
13   -0.083349
14   0.165114
15   0.168613
16   0.167635
17   0.181507
18   0.174797
19   0.202717

$$$$

