PCCDB-ID:  69404
public computational chemistry database (PCCDB) project, http://pccdb.org

 12 11  0  0  0  0  0  0  0  0999 V2000
    2.3787    0.1004   -0.4316 C   0  0  0  0  0  0  0  0  0  0  0  0
    0.8796    0.2779   -0.6202 C   0  0  0  0  0  0  0  0  0  0  0  0
   -0.2868   -1.4035    0.6113 C   0  0  0  0  0  0  0  0  0  0  0  0
    2.8813    0.8839    0.6370 O   0  0  0  0  0  0  0  0  0  0  0  0
   -0.1959   -2.2202   -0.2708 O   0  0  0  0  0  0  0  0  0  0  0  0
    0.1868   -0.1421    0.5881 O   0  0  0  0  0  0  0  0  0  0  0  0
    2.8944    0.4397   -1.3363 H   0  0  0  0  0  0  0  0  0  0  0  0
    2.6053   -0.9688   -0.2977 H   0  0  0  0  0  0  0  0  0  0  0  0
    0.5078   -0.2985   -1.4703 H   0  0  0  0  0  0  0  0  0  0  0  0
    0.6279    1.3346   -0.7326 H   0  0  0  0  0  0  0  0  0  0  0  0
   -0.7842   -1.5746    1.5780 H   0  0  0  0  0  0  0  0  0  0  0  0
    2.3825    0.6296    1.4299 H   0  0  0  0  0  0  0  0  0  0  0  0
  1  8  1  0  0  0  0
  1  4  1  0  0  0  0
  2  1  1  0  0  0  0
  2  6  1  0  0  0  0
  3 11  1  0  0  0  0
  4 12  1  0  0  0  0
  5  3  2  0  0  0  0
  6  3  1  0  0  0  0
  7  1  1  0  0  0  0
  9  2  1  0  0  0  0
 10  2  1  0  0  0  0
M  END
>  <HBA>
3

>  <HBD>
1

>  <TPSA>
46.53

>  <cid>
69404

>  <dipole>
1.04

>  <excitation_energy_1>
5.796

>  <excitation_energy_2>
6.525

>  <excitation_energy_3>
6.865

>  <excitation_energy_4>
7.412

>  <homo_energy>
-7.451

>  <homo_lumo_gap>
7.35

>  <logP>
-0.212

>  <lumo_energy>
-0.101

>  <melting_point>
-21.18

>  <molecular_refractivity>
19.37

>  <oscillator_strength_1>
0.0019

>  <oscillator_strength_2>
0.0165

>  <oscillator_strength_3>
0.0081

>  <oscillator_strength_4>
0.0082

>  <open_babel_can_smiles>
OCCOC=O

>  <mulliken_charges>
12
1   -0.046494
2   -0.083393
3   0.388365
4   -0.610273
5   -0.411768
6   -0.427513
7   0.157144
8   0.146184
9   0.177674
10   0.170718
11   0.142285
12   0.397071

>  <lowdin_charges>
12
1   -0.141775
2   -0.153226
3   0.092078
4   -0.463554
5   -0.246627
6   -0.198394
7   0.157717
8   0.137953
9   0.167855
10   0.161255
11   0.141471
12   0.345248

$$$$

