PCCDB-ID:  10853
public computational chemistry database (PCCDB) project, http://pccdb.org

 21 21  0  0  0  0  0  0  0  0999 V2000
   -2.1052    0.3399    0.0110 C   0  0  0  0  0  0  0  0  0  0  0  0
   -1.3113    1.4207    0.3941 C   0  0  0  0  0  0  0  0  0  0  0  0
   -1.5018   -0.8293   -0.4598 C   0  0  0  0  0  0  0  0  0  0  0  0
    0.0799    1.3322    0.3056 C   0  0  0  0  0  0  0  0  0  0  0  0
   -0.1130   -0.9174   -0.5423 C   0  0  0  0  0  0  0  0  0  0  0  0
    2.2026    0.0619   -0.2281 C   0  0  0  0  0  0  0  0  0  0  0  0
    0.6929    0.1638   -0.1581 C   0  0  0  0  0  0  0  0  0  0  0  0
    3.9659   -0.6522   -1.8033 C   0  0  0  0  0  0  0  0  0  0  0  0
    4.9462   -0.8452   -1.0052 N   0  0  0  0  0  0  0  0  0  0  0  0
    2.6411   -0.3760   -1.5460 N   0  0  0  0  0  0  0  0  0  0  0  0
    4.1654   -0.7469   -3.1464 O   0  0  0  0  0  0  0  0  0  0  0  0
   -3.1879    0.4070    0.0764 H   0  0  0  0  0  0  0  0  0  0  0  0
   -1.7717    2.3357    0.7568 H   0  0  0  0  0  0  0  0  0  0  0  0
   -2.1145   -1.6755   -0.7595 H   0  0  0  0  0  0  0  0  0  0  0  0
    0.6949    2.1798    0.5994 H   0  0  0  0  0  0  0  0  0  0  0  0
    0.3555   -1.8254   -0.9126 H   0  0  0  0  0  0  0  0  0  0  0  0
    2.5552   -0.6792    0.5024 H   0  0  0  0  0  0  0  0  0  0  0  0
    2.6557    1.0250    0.0560 H   0  0  0  0  0  0  0  0  0  0  0  0
    4.6820   -0.7335   -0.0281 H   0  0  0  0  0  0  0  0  0  0  0  0
    2.1286    0.0015   -2.3333 H   0  0  0  0  0  0  0  0  0  0  0  0
    5.1089   -0.9660   -3.2405 H   0  0  0  0  0  0  0  0  0  0  0  0
  1 12  1  0  0  0  0
  1  2  2  0  0  0  0
  2 13  1  0  0  0  0
  3  1  1  0  0  0  0
  4  2  1  0  0  0  0
  4 15  1  0  0  0  0
  5  3  2  0  0  0  0
  5  7  1  0  0  0  0
  6  7  1  0  0  0  0
  6 18  1  0  0  0  0
  6 17  1  0  0  0  0
  7  4  2  0  0  0  0
  8 10  1  0  0  0  0
  8  9  2  0  0  0  0
  9 19  1  0  0  0  0
 10  6  1  0  0  0  0
 11  8  1  0  0  0  0
 14  3  1  0  0  0  0
 16  5  1  0  0  0  0
 20 10  1  0  0  0  0
 21 11  1  0  0  0  0
M  END
>  <HBA>
3

>  <HBD>
2

>  <TPSA>
55.12

>  <cid>
10853

>  <dipole>
2.64

>  <excitation_energy_1>
5.199

>  <excitation_energy_2>
5.257

>  <excitation_energy_3>
5.498

>  <excitation_energy_4>
5.812

>  <homo_energy>
-6.267

>  <homo_lumo_gap>
5.935

>  <logP>
1.946

>  <lumo_energy>
-0.332

>  <melting_point>
119.64

>  <molecular_refractivity>
42.31

>  <oscillator_strength_1>
0.0003

>  <oscillator_strength_2>
0.0019

>  <oscillator_strength_3>
0.0166

>  <oscillator_strength_4>
0.0123

>  <open_babel_can_smiles>
OC(=N)NCc1ccccc1

>  <mulliken_charges>
21
1   -0.12702
2   -0.128252
3   -0.129912
4   -0.183166
5   -0.165188
6   -0.192682
7   0.118126
8   0.650693
9   -0.667687
10   -0.599584
11   -0.609843
12   0.133451
13   0.133808
14   0.135009
15   0.129457
16   0.144759
17   0.166226
18   0.151223
19   0.284295
20   0.336743
21   0.419543

>  <lowdin_charges>
21
1   -0.152279
2   -0.154034
3   -0.153488
4   -0.166392
5   -0.159672
6   -0.190502
7   -0.018298
8   0.161744
9   -0.493464
10   -0.303798
11   -0.383906
12   0.157611
13   0.160153
14   0.160966
15   0.157941
16   0.165519
17   0.158157
18   0.141649
19   0.255825
20   0.290661
21   0.365607

$$$$

