PCCDB-ID:  62275
public computational chemistry database (PCCDB) project, http://pccdb.org

 27 29  0  0  0  0  0  0  0  0999 V2000
    0.9861    0.1693   -0.0595 C   0  0  0  0  0  0  0  0  0  0  0  0
    8.4932    4.1162   -0.1777 C   0  0  0  0  0  0  0  0  0  0  0  0
    6.6320   -0.0326   -0.0321 C   0  0  0  0  0  0  0  0  0  0  0  0
    7.3628    1.1424   -0.0711 C   0  0  0  0  0  0  0  0  0  0  0  0
    3.2050   -1.0977   -0.0099 C   0  0  0  0  0  0  0  0  0  0  0  0
    2.4933    0.1415   -0.0571 C   0  0  0  0  0  0  0  0  0  0  0  0
    5.2132   -0.0129   -0.0384 C   0  0  0  0  0  0  0  0  0  0  0  0
    6.6645    2.3649   -0.1178 C   0  0  0  0  0  0  0  0  0  0  0  0
    4.4996    1.2341   -0.0864 C   0  0  0  0  0  0  0  0  0  0  0  0
    5.2716    2.4057   -0.1244 C   0  0  0  0  0  0  0  0  0  0  0  0
    6.0286    4.5641   -0.2035 C   0  0  0  0  0  0  0  0  0  0  0  0
    6.1637    5.8377   -0.2528 N   0  0  0  0  0  0  0  0  0  0  0  0
    4.5180   -1.1839   -0.0005 N   0  0  0  0  0  0  0  0  0  0  0  0
    3.1385    1.2934   -0.0953 N   0  0  0  0  0  0  0  0  0  0  0  0
    4.9008    3.7383   -0.1758 N   0  0  0  0  0  0  0  0  0  0  0  0
    7.1146    3.6748   -0.1651 N   0  0  0  0  0  0  0  0  0  0  0  0
    0.5653   -0.8399   -0.0957 H   0  0  0  0  0  0  0  0  0  0  0  0
    0.6142    0.7339   -0.9213 H   0  0  0  0  0  0  0  0  0  0  0  0
    0.6093    0.6675    0.8413 H   0  0  0  0  0  0  0  0  0  0  0  0
    9.0199    3.7287   -1.0577 H   0  0  0  0  0  0  0  0  0  0  0  0
    9.0169    3.7860    0.7272 H   0  0  0  0  0  0  0  0  0  0  0  0
    8.4821    5.2064   -0.2123 H   0  0  0  0  0  0  0  0  0  0  0  0
    7.1230   -0.9992    0.0046 H   0  0  0  0  0  0  0  0  0  0  0  0
    8.4480    1.1240   -0.0679 H   0  0  0  0  0  0  0  0  0  0  0  0
    2.6486   -2.0340    0.0197 H   0  0  0  0  0  0  0  0  0  0  0  0
    5.2607    6.3093   -0.2726 H   0  0  0  0  0  0  0  0  0  0  0  0
    3.9478    4.0650   -0.1934 H   0  0  0  0  0  0  0  0  0  0  0  0
  1  6  1  0  0  0  0
  1 19  1  0  0  0  0
  2 16  1  0  0  0  0
  2 21  1  0  0  0  0
  3 23  1  0  0  0  0
  4 24  1  0  0  0  0
  4  3  1  0  0  0  0
  5 13  2  0  0  0  0
  5 25  1  0  0  0  0
  6  5  1  0  0  0  0
  7  3  2  0  0  0  0
  7 13  1  0  0  0  0
  8  4  2  0  0  0  0
  9  7  1  0  0  0  0
 10  8  1  0  0  0  0
 10  9  2  0  0  0  0
 11 15  1  0  0  0  0
 11 16  1  0  0  0  0
 12 11  2  0  0  0  0
 14  9  1  0  0  0  0
 14  6  2  0  0  0  0
 15 10  1  0  0  0  0
 16  8  1  0  0  0  0
 17  1  1  0  0  0  0
 18  1  1  0  0  0  0
 20  2  1  0  0  0  0
 22  2  1  0  0  0  0
 26 12  1  0  0  0  0
 27 15  1  0  0  0  0
M  END
>  <HBA>
5

>  <HBD>
1

>  <TPSA>
69.62

>  <cid>
62275

>  <dipole>
1.22

>  <excitation_energy_1>
2.668

>  <excitation_energy_2>
3.661

>  <excitation_energy_3>
3.87

>  <excitation_energy_4>
4.416

>  <homo_energy>
-5.029

>  <homo_lumo_gap>
3.265

>  <logP>
1.988

>  <lumo_energy>
-1.763

>  <melting_point>
197.67

>  <molecular_refractivity>
63.46

>  <oscillator_strength_1>
0.0224

>  <oscillator_strength_2>
0.003

>  <oscillator_strength_3>
0.0107

>  <oscillator_strength_4>
0.0049

>  <open_babel_can_smiles>
Cc1cnc2c(n1)c1[nH]c(=N)n(c1cc2)C

>  <mulliken_charges>
27
1   -0.517985
2   -0.331043
3   -0.170163
4   -0.186091
5   -0.013375
6   0.31699
7   0.266771
8   0.357668
9   0.258987
10   0.288904
11   0.705302
12   -0.690892
13   -0.461047
14   -0.561853
15   -0.781704
16   -0.579583
17   0.157726
18   0.175989
19   0.176167
20   0.163685
21   0.163558
22   0.217858
23   0.144917
24   0.142373
25   0.13974
26   0.276564
27   0.340539

>  <lowdin_charges>
27
1   -0.446756
2   -0.349774
3   -0.1638
4   -0.173683
5   -0.12716
6   0.041504
7   0.017832
8   0.031073
9   0.007559
10   0.021196
11   0.126855
12   -0.487463
13   -0.114193
14   -0.153525
15   -0.233479
16   -0.058751
17   0.158194
18   0.17214
19   0.171763
20   0.156756
21   0.156588
22   0.191789
23   0.171635
24   0.165256
25   0.158856
26   0.257079
27   0.302509

$$$$

