PCCDB-ID:  21159
public computational chemistry database (PCCDB) project, http://pccdb.org

 19 19  0  0  0  0  0  0  0  0999 V2000
    0.8347    0.2021   -0.1451 C   0  0  0  0  0  0  0  0  0  0  0  0
    2.7182    0.0412    1.5270 C   0  0  0  0  0  0  0  0  0  0  0  0
    2.6902    1.7365   -2.0885 C   0  0  0  0  0  0  0  0  0  0  0  0
    4.5742    1.5772   -0.4175 C   0  0  0  0  0  0  0  0  0  0  0  0
    2.3364    0.2844    0.0759 C   0  0  0  0  0  0  0  0  0  0  0  0
    3.2300    1.0221   -0.8599 C   0  0  0  0  0  0  0  0  0  0  0  0
    3.1406   -0.4202   -0.8980 O   0  0  0  0  0  0  0  0  0  0  0  0
    0.3159    0.9927    0.4111 H   0  0  0  0  0  0  0  0  0  0  0  0
    0.4622   -0.7610    0.2238 H   0  0  0  0  0  0  0  0  0  0  0  0
    0.5618    0.2816   -1.1978 H   0  0  0  0  0  0  0  0  0  0  0  0
    2.3050    0.8250    2.1740 H   0  0  0  0  0  0  0  0  0  0  0  0
    3.7978    0.0021    1.6760 H   0  0  0  0  0  0  0  0  0  0  0  0
    2.3017   -0.9169    1.8605 H   0  0  0  0  0  0  0  0  0  0  0  0
    2.4926    2.7928   -1.8678 H   0  0  0  0  0  0  0  0  0  0  0  0
    1.7734    1.2839   -2.4677 H   0  0  0  0  0  0  0  0  0  0  0  0
    3.4362    1.7002   -2.8915 H   0  0  0  0  0  0  0  0  0  0  0  0
    4.4770    2.6245   -0.1057 H   0  0  0  0  0  0  0  0  0  0  0  0
    5.2792    1.5459   -1.2570 H   0  0  0  0  0  0  0  0  0  0  0  0
    5.0136    1.0102    0.4039 H   0  0  0  0  0  0  0  0  0  0  0  0
  1  5  1  0  0  0  0
  1  9  1  0  0  0  0
  1  8  1  0  0  0  0
  2 12  1  0  0  0  0
  2 13  1  0  0  0  0
  2 11  1  0  0  0  0
  3 14  1  0  0  0  0
  3  6  1  0  0  0  0
  4 17  1  0  0  0  0
  4 19  1  0  0  0  0
  5  2  1  0  0  0  0
  6  4  1  0  0  0  0
  6  5  1  0  0  0  0
  7  6  1  0  0  0  0
  7  5  1  0  0  0  0
 10  1  1  0  0  0  0
 15  3  1  0  0  0  0
 16  3  1  0  0  0  0
 18  4  1  0  0  0  0
M  END
>  <HBA>
1

>  <HBD>
0

>  <TPSA>
12.53

>  <cid>
21159

>  <dipole>
1.89

>  <excitation_energy_1>
6.592

>  <excitation_energy_2>
7.06

>  <excitation_energy_3>
7.063

>  <excitation_energy_4>
7.171

>  <homo_energy>
-6.844

>  <homo_lumo_gap>
9.151

>  <logP>
1.574

>  <lumo_energy>
2.308

>  <melting_point>
9.11

>  <molecular_refractivity>
30.0

>  <oscillator_strength_1>
0.0365

>  <oscillator_strength_2>
0.019

>  <oscillator_strength_3>
0.0

>  <oscillator_strength_4>
0.0015

>  <open_babel_can_smiles>
CC1(C)OC1(C)C

>  <mulliken_charges>
19
1   -0.478201
2   -0.478337
3   -0.478357
4   -0.478613
5   0.292993
6   0.293683
7   -0.501266
8   0.14603
9   0.152769
10   0.158242
11   0.146033
12   0.15828
13   0.152698
14   0.146031
15   0.158222
16   0.152697
17   0.14612
18   0.152719
19   0.158256

>  <lowdin_charges>
19
1   -0.448043
2   -0.447491
3   -0.447295
4   -0.448031
5   0.105367
6   0.106511
7   -0.303482
8   0.155522
9   0.156839
10   0.158404
11   0.155441
12   0.157891
13   0.156817
14   0.153072
15   0.159941
16   0.157368
17   0.153269
18   0.15734
19   0.16056

$$$$

