PCCDB-ID:  41552
public computational chemistry database (PCCDB) project, http://pccdb.org

 31 31  0  0  0  0  0  0  0  0999 V2000
    2.4171    2.2224    2.1804 C   0  0  0  0  0  0  0  0  0  0  0  0
    4.3221    4.0809    3.8849 C   0  0  0  0  0  0  0  0  0  0  0  0
    3.8298    1.9412    2.5927 C   0  0  0  0  0  0  0  0  0  0  0  0
    5.1550   -3.7277    4.6390 C   0  0  0  0  0  0  0  0  0  0  0  0
    6.4743   -3.8142    4.1910 C   0  0  0  0  0  0  0  0  0  0  0  0
    4.6681   -2.5082    5.1128 C   0  0  0  0  0  0  0  0  0  0  0  0
    7.2968   -2.6874    4.2174 C   0  0  0  0  0  0  0  0  0  0  0  0
    5.4946   -1.3840    5.1361 C   0  0  0  0  0  0  0  0  0  0  0  0
    7.7091   -0.2312    4.6824 C   0  0  0  0  0  0  0  0  0  0  0  0
    7.6733    0.5558    3.3656 C   0  0  0  0  0  0  0  0  0  0  0  0
    4.6519    2.7241    3.3159 C   0  0  0  0  0  0  0  0  0  0  0  0
    6.8202   -1.4562    4.6881 C   0  0  0  0  0  0  0  0  0  0  0  0
    6.0358    2.2642    3.6337 C   0  0  0  0  0  0  0  0  0  0  0  0
    6.8082    2.9037    4.3252 O   0  0  0  0  0  0  0  0  0  0  0  0
    6.3571    1.0673    3.0784 O   0  0  0  0  0  0  0  0  0  0  0  0
    1.7493    1.4314    2.5476 H   0  0  0  0  0  0  0  0  0  0  0  0
    2.3321    2.2123    1.0851 H   0  0  0  0  0  0  0  0  0  0  0  0
    2.0378    3.1814    2.5405 H   0  0  0  0  0  0  0  0  0  0  0  0
    3.3122    4.4035    3.6242 H   0  0  0  0  0  0  0  0  0  0  0  0
    5.0308    4.8342    3.5233 H   0  0  0  0  0  0  0  0  0  0  0  0
    4.4134    4.0745    4.9770 H   0  0  0  0  0  0  0  0  0  0  0  0
    4.2231    0.9824    2.2641 H   0  0  0  0  0  0  0  0  0  0  0  0
    4.5133   -4.6046    4.6236 H   0  0  0  0  0  0  0  0  0  0  0  0
    6.8658   -4.7606    3.8266 H   0  0  0  0  0  0  0  0  0  0  0  0
    3.6438   -2.4320    5.4689 H   0  0  0  0  0  0  0  0  0  0  0  0
    8.3266   -2.7658    3.8739 H   0  0  0  0  0  0  0  0  0  0  0  0
    5.1085   -0.4387    5.5093 H   0  0  0  0  0  0  0  0  0  0  0  0
    7.4366    0.4513    5.4945 H   0  0  0  0  0  0  0  0  0  0  0  0
    8.7535   -0.5251    4.8522 H   0  0  0  0  0  0  0  0  0  0  0  0
    7.9075   -0.0915    2.5166 H   0  0  0  0  0  0  0  0  0  0  0  0
    8.3788    1.3893    3.4032 H   0  0  0  0  0  0  0  0  0  0  0  0
  1 18  1  0  0  0  0
  1 16  1  0  0  0  0
  1  3  1  0  0  0  0
  2 21  1  0  0  0  0
  3 11  2  0  0  0  0
  4  6  2  0  0  0  0
  5  7  2  0  0  0  0
  5  4  1  0  0  0  0
  6  8  1  0  0  0  0
  6 25  1  0  0  0  0
  7 12  1  0  0  0  0
  8 27  1  0  0  0  0
  9 12  1  0  0  0  0
  9 29  1  0  0  0  0
  9 28  1  0  0  0  0
 10 31  1  0  0  0  0
 10  9  1  0  0  0  0
 11 13  1  0  0  0  0
 11  2  1  0  0  0  0
 12  8  2  0  0  0  0
 13 14  2  0  0  0  0
 15 10  1  0  0  0  0
 15 13  1  0  0  0  0
 17  1  1  0  0  0  0
 19  2  1  0  0  0  0
 20  2  1  0  0  0  0
 22  3  1  0  0  0  0
 23  4  1  0  0  0  0
 24  5  1  0  0  0  0
 26  7  1  0  0  0  0
 30 10  1  0  0  0  0
M  END
>  <HBA>
2

>  <HBD>
0

>  <TPSA>
26.3

>  <cid>
41552

>  <dipole>
2.11

>  <excitation_energy_1>
4.884

>  <excitation_energy_2>
5.059

>  <excitation_energy_3>
5.233

>  <excitation_energy_4>
5.315

>  <homo_energy>
-6.495

>  <homo_lumo_gap>
5.665

>  <logP>
2.739

>  <lumo_energy>
-0.83

>  <melting_point>
28.82

>  <molecular_refractivity>
61.06

>  <oscillator_strength_1>
0.0024

>  <oscillator_strength_2>
0.0036

>  <oscillator_strength_3>
0.0015

>  <oscillator_strength_4>
0.0033

>  <open_babel_can_smiles>
C/C=C(/C(=O)OCCc1ccccc1)\C

>  <mulliken_charges>
31
1   -0.496306
2   -0.50715
3   -0.132292
4   -0.131243
5   -0.126707
6   -0.129557
7   -0.183331
8   -0.176316
9   -0.382118
10   -0.037607
11   0.070717
12   0.180327
13   0.600696
14   -0.496053
15   -0.478869
16   0.166035
17   0.166989
18   0.162001
19   0.145515
20   0.171217
21   0.170823
22   0.167139
23   0.127335
24   0.12787
25   0.127377
26   0.120235
27   0.128047
28   0.174068
29   0.148445
30   0.153088
31   0.169624

>  <lowdin_charges>
31
1   -0.442177
2   -0.43708
3   -0.128786
4   -0.16185
5   -0.155752
6   -0.154166
7   -0.166937
8   -0.16301
9   -0.284794
10   -0.129262
11   -0.055078
12   -0.002914
13   0.196276
14   -0.279206
15   -0.196258
16   0.165951
17   0.16363
18   0.158019
19   0.15262
20   0.168748
21   0.165661
22   0.17199
23   0.157255
24   0.156823
25   0.155356
26   0.151198
27   0.157013
28   0.165876
29   0.156612
30   0.153499
31   0.160744

$$$$

