PCCDB-ID:  28877
public computational chemistry database (PCCDB) project, http://pccdb.org

 30 30  0  0  1  0  0  0  0  0999 V2000
    2.8302    1.3877   -0.3223 C   0  0  0  0  0  0  0  0  0  0  0  0
    5.7534   -3.7591   -0.2683 C   0  0  0  0  0  0  0  0  0  0  0  0
    3.0641   -1.1887   -2.0898 C   0  0  0  0  0  0  0  0  0  0  0  0
    4.6074   -1.0958    2.3790 C   0  0  0  0  0  0  0  0  0  0  0  0
    2.1729    0.0342   -0.0398 C   0  0  0  0  0  0  0  0  0  0  0  0
    5.7409   -2.8566    0.9680 C   0  0  0  0  0  0  0  0  0  0  0  0
    2.3459   -2.4964   -0.0101 C   0  0  0  0  0  0  0  0  0  0  0  0
    3.2125   -2.8327    1.1967 C   0  0  0  0  0  0  0  0  0  0  0  0
    2.9517   -1.1939   -0.5656 C   0  0  1  0  0  0  0  0  0  0  0  0
    4.4839   -1.9738    1.1222 C   0  0  1  0  0  0  0  0  0  0  0  0
    2.9639   -3.6390    2.0657 O   0  0  0  0  0  0  0  0  0  0  0  0
    4.3188   -1.1757   -0.0569 O   0  0  0  0  0  0  0  0  0  0  0  0
    2.2793    2.1934    0.1752 H   0  0  0  0  0  0  0  0  0  0  0  0
    2.8504    1.6172   -1.3933 H   0  0  0  0  0  0  0  0  0  0  0  0
    3.8613    1.3998    0.0436 H   0  0  0  0  0  0  0  0  0  0  0  0
    6.6909   -4.3233   -0.3198 H   0  0  0  0  0  0  0  0  0  0  0  0
    5.6633   -3.1671   -1.1840 H   0  0  0  0  0  0  0  0  0  0  0  0
    4.9355   -4.4898   -0.2463 H   0  0  0  0  0  0  0  0  0  0  0  0
    2.0703   -1.1665   -2.5514 H   0  0  0  0  0  0  0  0  0  0  0  0
    3.5889   -2.0856   -2.4331 H   0  0  0  0  0  0  0  0  0  0  0  0
    3.6264   -0.3162   -2.4343 H   0  0  0  0  0  0  0  0  0  0  0  0
    4.7026   -1.7262    3.2687 H   0  0  0  0  0  0  0  0  0  0  0  0
    3.7335   -0.4504    2.5093 H   0  0  0  0  0  0  0  0  0  0  0  0
    5.4931   -0.4574    2.2959 H   0  0  0  0  0  0  0  0  0  0  0  0
    1.1645    0.0068   -0.4762 H   0  0  0  0  0  0  0  0  0  0  0  0
    2.0343   -0.0813    1.0436 H   0  0  0  0  0  0  0  0  0  0  0  0
    6.6099   -2.1868    0.9426 H   0  0  0  0  0  0  0  0  0  0  0  0
    5.8270   -3.4631    1.8776 H   0  0  0  0  0  0  0  0  0  0  0  0
    1.2916   -2.4223    0.2721 H   0  0  0  0  0  0  0  0  0  0  0  0
    2.4384   -3.3225   -0.7278 H   0  0  0  0  0  0  0  0  0  0  0  0
  1  5  1  0  0  0  0
  1 15  1  0  0  0  0
  1 13  1  0  0  0  0
  2 18  1  0  0  0  0
  2  6  1  0  0  0  0
  4 23  1  0  0  0  0
  4 22  1  0  0  0  0
  5 26  1  0  0  0  0
  6 28  1  0  0  0  0
  7 29  1  0  0  0  0
  7  8  1  0  0  0  0
  8 11  2  0  0  0  0
  9  3  1  6  0  0  0
  9 12  1  0  0  0  0
  9  5  1  0  0  0  0
  9  7  1  0  0  0  0
 10  6  1  6  0  0  0
 10  8  1  0  0  0  0
 10  4  1  0  0  0  0
 12 10  1  0  0  0  0
 14  1  1  0  0  0  0
 16  2  1  0  0  0  0
 17  2  1  0  0  0  0
 19  3  1  0  0  0  0
 20  3  1  0  0  0  0
 21  3  1  0  0  0  0
 24  4  1  0  0  0  0
 25  5  1  0  0  0  0
 27  6  1  0  0  0  0
 30  7  1  0  0  0  0
M  END
>  <HBA>
2

>  <HBD>
0

>  <TPSA>
26.3

>  <cid>
28877

>  <dipole>
1.83

>  <excitation_energy_1>
4.126

>  <excitation_energy_2>
5.134

>  <excitation_energy_3>
6.144

>  <excitation_energy_4>
6.427

>  <homo_energy>
-6.528

>  <homo_lumo_gap>
5.883

>  <logP>
2.313

>  <lumo_energy>
-0.645

>  <melting_point>
27.85

>  <molecular_refractivity>
49.43

>  <oscillator_strength_1>
0.0004

>  <oscillator_strength_2>
0.0084

>  <oscillator_strength_3>
0.0057

>  <oscillator_strength_4>
0.02

>  <open_babel_can_smiles>
CC[C@]1(C)CC(=O)[C@@](O1)(C)CC

>  <mulliken_charges>
30
1   -0.453508
2   -0.468836
3   -0.46959
4   -0.459091
5   -0.264702
6   -0.255929
7   -0.402165
8   0.420757
9   0.338089
10   0.270563
11   -0.457947
12   -0.551987
13   0.142673
14   0.145215
15   0.166243
16   0.148013
17   0.162436
18   0.14707
19   0.142281
20   0.151157
21   0.161911
22   0.163165
23   0.151084
24   0.156002
25   0.132282
26   0.13242
27   0.143778
28   0.152014
29   0.1775
30   0.1791

>  <lowdin_charges>
30
1   -0.44757
2   -0.452837
3   -0.449422
4   -0.447377
5   -0.282446
6   -0.272785
7   -0.32081
8   0.153837
9   0.129885
10   0.089095
11   -0.222604
12   -0.277938
13   0.152556
14   0.14675
15   0.157819
16   0.154663
17   0.1553
18   0.148319
19   0.151871
20   0.154926
21   0.161129
22   0.163816
23   0.154039
24   0.159012
25   0.14346
26   0.139799
27   0.1512
28   0.15616
29   0.173208
30   0.176945

$$$$

