PCCDB-ID:  8861
public computational chemistry database (PCCDB) project, http://pccdb.org

 15 15  0  0  0  0  0  0  0  0999 V2000
   -0.7566    1.1798   -0.0260 C   0  0  0  0  0  0  0  0  0  0  0  0
   -1.4082   -0.0199   -0.0598 C   0  0  0  0  0  0  0  0  0  0  0  0
    0.6640    1.2763   -0.0147 C   0  0  0  0  0  0  0  0  0  0  0  0
   -0.6710   -1.2687   -0.0688 C   0  0  0  0  0  0  0  0  0  0  0  0
    1.3860    0.1057   -0.0217 C   0  0  0  0  0  0  0  0  0  0  0  0
   -1.0821   -2.4927   -0.0789 N   0  0  0  0  0  0  0  0  0  0  0  0
    2.7723    0.0318    0.0569 N   0  0  0  0  0  0  0  0  0  0  0  0
    0.7297   -1.0909   -0.0494 N   0  0  0  0  0  0  0  0  0  0  0  0
   -1.3364    2.0999   -0.0165 H   0  0  0  0  0  0  0  0  0  0  0  0
   -2.4918   -0.0750   -0.0714 H   0  0  0  0  0  0  0  0  0  0  0  0
    1.1706    2.2339   -0.0151 H   0  0  0  0  0  0  0  0  0  0  0  0
   -2.1029   -2.5112   -0.0864 H   0  0  0  0  0  0  0  0  0  0  0  0
    3.2320    0.9202   -0.0998 H   0  0  0  0  0  0  0  0  0  0  0  0
    3.1958   -0.7008   -0.5030 H   0  0  0  0  0  0  0  0  0  0  0  0
    1.2485   -1.9580    0.0295 H   0  0  0  0  0  0  0  0  0  0  0  0
  1  9  1  0  0  0  0
  1  3  1  0  0  0  0
  2  1  2  0  0  0  0
  4  2  1  0  0  0  0
  4  8  1  0  0  0  0
  5  3  2  0  0  0  0
  5  7  1  0  0  0  0
  6  4  2  0  0  0  0
  8  5  1  0  0  0  0
  8 15  1  0  0  0  0
 10  2  1  0  0  0  0
 11  3  1  0  0  0  0
 12  6  1  0  0  0  0
 13  7  1  0  0  0  0
 14  7  1  0  0  0  0
M  END
>  <HBA>
3

>  <HBD>
2

>  <TPSA>
64.93

>  <cid>
8861

>  <dipole>
3.91

>  <excitation_energy_1>
3.81

>  <excitation_energy_2>
3.999

>  <excitation_energy_3>
4.712

>  <excitation_energy_4>
4.866

>  <homo_energy>
-4.784

>  <homo_lumo_gap>
4.422

>  <logP>
1.408

>  <lumo_energy>
-0.362

>  <melting_point>
118.13

>  <molecular_refractivity>
33.05

>  <oscillator_strength_1>
0.1044

>  <oscillator_strength_2>
0.0142

>  <oscillator_strength_3>
0.0009

>  <oscillator_strength_4>
0.0023

>  <open_babel_can_smiles>
Nc1cccc(=N)[nH]1

>  <mulliken_charges>
15
1   -0.10197
2   -0.206691
3   -0.23716
4   0.490846
5   0.56364
6   -0.690699
7   -0.774524
8   -0.689657
9   0.133952
10   0.124602
11   0.117857
12   0.273622
13   0.336843
14   0.328045
15   0.331295

>  <lowdin_charges>
15
1   -0.116949
2   -0.236183
3   -0.288937
4   0.093486
5   0.129342
6   -0.482275
7   -0.480039
8   -0.208357
9   0.161073
10   0.158854
11   0.159222
12   0.247247
13   0.286766
14   0.282486
15   0.294263

$$$$

