PCCDB-ID:  21867
public computational chemistry database (PCCDB) project, http://pccdb.org

 39 39  0  0  1  0  0  0  0  0999 V2000
    4.0874   -1.1851    3.2939 C   0  0  0  0  0  0  0  0  0  0  0  0
   11.2843    3.7395    0.2203 C   0  0  0  0  0  0  0  0  0  0  0  0
    5.4460   -0.4804    3.2156 C   0  0  0  0  0  0  0  0  0  0  0  0
    6.2137   -0.8051    1.9265 C   0  0  0  0  0  0  0  0  0  0  0  0
    7.6182   -0.1849    1.8368 C   0  0  0  0  0  0  0  0  0  0  0  0
    7.6409    1.3480    1.7514 C   0  0  0  0  0  0  0  0  0  0  0  0
    9.0572    1.9203    1.5995 C   0  0  0  0  0  0  0  0  0  0  0  0
    9.0713    3.4516    1.5028 C   0  0  0  0  0  0  0  0  0  0  0  0
   11.6114    4.6321    4.8148 C   0  0  0  0  0  0  0  0  0  0  0  0
   10.6114    5.9548    2.8214 C   0  0  0  0  0  0  0  0  0  0  0  0
   11.6163    4.9181    3.3202 C   0  0  2  0  0  0  0  0  0  0  0  0
   10.4651    4.0956    1.4568 C   0  0  2  0  0  0  0  0  0  0  0  0
   12.4815    3.5636    5.1419 O   0  0  0  0  0  0  0  0  0  0  0  0
   10.3363    5.5225    1.4953 O   0  0  0  0  0  0  0  0  0  0  0  0
   11.1824    3.7284    2.6489 O   0  0  0  0  0  0  0  0  0  0  0  0
    3.5604   -0.9384    4.2227 H   0  0  0  0  0  0  0  0  0  0  0  0
    4.2034   -2.2754    3.2560 H   0  0  0  0  0  0  0  0  0  0  0  0
    3.4410   -0.8930    2.4569 H   0  0  0  0  0  0  0  0  0  0  0  0
   10.7628    4.0617   -0.6867 H   0  0  0  0  0  0  0  0  0  0  0  0
   11.4565    2.6611    0.1646 H   0  0  0  0  0  0  0  0  0  0  0  0
   12.2517    4.2475    0.2650 H   0  0  0  0  0  0  0  0  0  0  0  0
    6.0591   -0.7689    4.0818 H   0  0  0  0  0  0  0  0  0  0  0  0
    5.2937    0.6038    3.2986 H   0  0  0  0  0  0  0  0  0  0  0  0
    5.6179   -0.4836    1.0589 H   0  0  0  0  0  0  0  0  0  0  0  0
    6.3064   -1.8973    1.8404 H   0  0  0  0  0  0  0  0  0  0  0  0
    8.1285   -0.5936    0.9529 H   0  0  0  0  0  0  0  0  0  0  0  0
    8.2120   -0.5081    2.7050 H   0  0  0  0  0  0  0  0  0  0  0  0
    7.1763    1.7806    2.6481 H   0  0  0  0  0  0  0  0  0  0  0  0
    7.0220    1.6724    0.9012 H   0  0  0  0  0  0  0  0  0  0  0  0
    9.5255    1.4828    0.7071 H   0  0  0  0  0  0  0  0  0  0  0  0
    9.6703    1.6112    2.4559 H   0  0  0  0  0  0  0  0  0  0  0  0
    8.5485    3.8767    2.3694 H   0  0  0  0  0  0  0  0  0  0  0  0
    8.5222    3.7809    0.6110 H   0  0  0  0  0  0  0  0  0  0  0  0
   10.5766    4.4232    5.1333 H   0  0  0  0  0  0  0  0  0  0  0  0
   11.9673    5.5085    5.3679 H   0  0  0  0  0  0  0  0  0  0  0  0
   11.0115    6.9713    2.7750 H   0  0  0  0  0  0  0  0  0  0  0  0
    9.7005    5.9567    3.4413 H   0  0  0  0  0  0  0  0  0  0  0  0
   12.6371    5.1724    2.9984 H   0  0  0  0  0  0  0  0  0  0  0  0
   12.2238    2.8257    4.5649 H   0  0  0  0  0  0  0  0  0  0  0  0
  1 16  1  0  0  0  0
  2 21  1  0  0  0  0
  3  1  1  0  0  0  0
  3 23  1  0  0  0  0
  3 22  1  0  0  0  0
  4  3  1  0  0  0  0
  5  4  1  0  0  0  0
  5 27  1  0  0  0  0
  6  5  1  0  0  0  0
  6 28  1  0  0  0  0
  7  6  1  0  0  0  0
  7 31  1  0  0  0  0
  8  7  1  0  0  0  0
  8 32  1  0  0  0  0
  9 34  1  0  0  0  0
  9 13  1  0  0  0  0
  9 35  1  0  0  0  0
 10 11  1  0  0  0  0
 10 37  1  0  0  0  0
 11 38  1  6  0  0  0
 11  9  1  0  0  0  0
 12  2  1  6  0  0  0
 12 14  1  0  0  0  0
 12  8  1  0  0  0  0
 12 15  1  0  0  0  0
 14 10  1  0  0  0  0
 15 11  1  0  0  0  0
 17  1  1  0  0  0  0
 18  1  1  0  0  0  0
 19  2  1  0  0  0  0
 20  2  1  0  0  0  0
 24  4  1  0  0  0  0
 25  4  1  0  0  0  0
 26  5  1  0  0  0  0
 29  6  1  0  0  0  0
 30  7  1  0  0  0  0
 33  8  1  0  0  0  0
 36 10  1  0  0  0  0
 39 13  1  0  0  0  0
M  END
>  <HBA>
3

>  <HBD>
1

>  <TPSA>
38.69

>  <cid>
21867

>  <dipole>
1.28

>  <excitation_energy_1>
6.44

>  <excitation_energy_2>
6.573

>  <excitation_energy_3>
6.724

>  <excitation_energy_4>
6.828

>  <homo_energy>
-6.784

>  <homo_lumo_gap>
8.871

>  <logP>
2.471

>  <lumo_energy>
2.087

>  <melting_point>
3.77

>  <molecular_refractivity>
61.05

>  <oscillator_strength_1>
0.0057

>  <oscillator_strength_2>
0.0011

>  <oscillator_strength_3>
0.0126

>  <oscillator_strength_4>
0.0147

>  <open_babel_can_smiles>
CCCCCCC[C@@]1(C)OC[C@H](O1)CO

>  <mulliken_charges>
39
1   -0.441619
2   -0.457064
3   -0.248676
4   -0.247496
5   -0.255802
6   -0.255621
7   -0.26478
8   -0.267377
9   -0.033311
10   -0.049616
11   0.107383
12   0.538257
13   -0.619302
14   -0.513891
15   -0.549042
16   0.141362
17   0.141307
18   0.141329
19   0.153323
20   0.155426
21   0.154479
22   0.129358
23   0.134981
24   0.125726
25   0.127012
26   0.126952
27   0.12718
28   0.133521
29   0.127092
30   0.130993
31   0.142822
32   0.131764
33   0.138814
34   0.12248
35   0.144481
36   0.153866
37   0.131102
38   0.138659
39   0.403927

>  <lowdin_charges>
39
1   -0.443131
2   -0.452831
3   -0.273347
4   -0.27393
5   -0.2767
6   -0.277063
7   -0.279242
8   -0.289745
9   -0.140969
10   -0.143399
11   -0.027082
12   0.225096
13   -0.463066
14   -0.2669
15   -0.284759
16   0.149194
17   0.144028
18   0.146971
19   0.160371
20   0.157519
21   0.160172
22   0.138874
23   0.137868
24   0.137646
25   0.138103
26   0.14075
27   0.138481
28   0.140064
29   0.138021
30   0.139842
31   0.146358
32   0.147453
33   0.150277
34   0.128292
35   0.150809
36   0.155628
37   0.133361
38   0.138205
39   0.348782

$$$$

