PCCDB-ID:  3338
public computational chemistry database (PCCDB) project, http://pccdb.org

 28 28  0  0  1  0  0  0  0  0999 V2000
    1.8056   -1.9672    2.3074 C   0  0  0  0  0  0  0  0  0  0  0  0
    2.8147   -1.1258    1.5193 C   0  0  0  0  0  0  0  0  0  0  0  0
    3.7981   -0.3658    2.4192 C   0  0  0  0  0  0  0  0  0  0  0  0
    8.4539   -1.0421    4.9714 C   0  0  0  0  0  0  0  0  0  0  0  0
    7.6577   -0.0509    5.5463 C   0  0  0  0  0  0  0  0  0  0  0  0
    8.3669   -1.2855    3.5990 C   0  0  0  0  0  0  0  0  0  0  0  0
    6.7836    0.6928    4.7516 C   0  0  0  0  0  0  0  0  0  0  0  0
    7.4871   -0.5435    2.8109 C   0  0  0  0  0  0  0  0  0  0  0  0
    4.7923    0.4982    1.6332 C   0  0  0  0  0  0  0  0  0  0  0  0
    6.6837    0.4590    3.3751 C   0  0  0  0  0  0  0  0  0  0  0  0
    5.7600    1.3084    2.5115 C   0  0  1  0  0  0  0  0  0  0  0  0
    6.5079    2.2397    1.7156 O   0  0  0  0  0  0  0  0  0  0  0  0
    1.1285   -2.5106    1.6385 H   0  0  0  0  0  0  0  0  0  0  0  0
    1.1917   -1.3380    2.9636 H   0  0  0  0  0  0  0  0  0  0  0  0
    2.3139   -2.7056    2.9396 H   0  0  0  0  0  0  0  0  0  0  0  0
    2.2769   -0.4095    0.8821 H   0  0  0  0  0  0  0  0  0  0  0  0
    3.3786   -1.7766    0.8358 H   0  0  0  0  0  0  0  0  0  0  0  0
    4.3470   -1.0831    3.0441 H   0  0  0  0  0  0  0  0  0  0  0  0
    3.2321    0.2734    3.1136 H   0  0  0  0  0  0  0  0  0  0  0  0
    9.1356   -1.6226    5.5871 H   0  0  0  0  0  0  0  0  0  0  0  0
    7.7188    0.1471    6.6133 H   0  0  0  0  0  0  0  0  0  0  0  0
    8.9801   -2.0583    3.1427 H   0  0  0  0  0  0  0  0  0  0  0  0
    6.1715    1.4696    5.2042 H   0  0  0  0  0  0  0  0  0  0  0  0
    7.4249   -0.7559    1.7452 H   0  0  0  0  0  0  0  0  0  0  0  0
    4.2510    1.2180    1.0061 H   0  0  0  0  0  0  0  0  0  0  0  0
    5.3679   -0.1376    0.9439 H   0  0  0  0  0  0  0  0  0  0  0  0
    5.1663    1.9479    3.1751 H   0  0  0  0  0  0  0  0  0  0  0  0
    7.1506    1.7278    1.1990 H   0  0  0  0  0  0  0  0  0  0  0  0
  1 15  1  0  0  0  0
  1 14  1  0  0  0  0
  2  1  1  0  0  0  0
  2  3  1  0  0  0  0
  3 18  1  0  0  0  0
  3 19  1  0  0  0  0
  4  5  1  0  0  0  0
  4 20  1  0  0  0  0
  5 21  1  0  0  0  0
  6  4  2  0  0  0  0
  7 23  1  0  0  0  0
  7  5  2  0  0  0  0
  8 10  2  0  0  0  0
  8  6  1  0  0  0  0
  9  3  1  0  0  0  0
  9 11  1  0  0  0  0
 10  7  1  0  0  0  0
 11 27  1  1  0  0  0
 11 10  1  0  0  0  0
 12 11  1  0  0  0  0
 13  1  1  0  0  0  0
 16  2  1  0  0  0  0
 17  2  1  0  0  0  0
 22  6  1  0  0  0  0
 24  8  1  0  0  0  0
 25  9  1  0  0  0  0
 26  9  1  0  0  0  0
 28 12  1  0  0  0  0
M  END
>  <HBA>
1

>  <HBD>
1

>  <TPSA>
20.23

>  <cid>
3338

>  <dipole>
1.71

>  <excitation_energy_1>
5.301

>  <excitation_energy_2>
5.888

>  <excitation_energy_3>
6.023

>  <excitation_energy_4>
6.094

>  <homo_energy>
-6.656

>  <homo_lumo_gap>
6.501

>  <logP>
2.91

>  <lumo_energy>
-0.155

>  <melting_point>
23.11

>  <molecular_refractivity>
51.8

>  <oscillator_strength_1>
0.0004

>  <oscillator_strength_2>
0.0243

>  <oscillator_strength_3>
0.0029

>  <oscillator_strength_4>
0.0122

>  <open_babel_can_smiles>
CCCC[C@@H](c1ccccc1)O

>  <mulliken_charges>
28
1   -0.44212
2   -0.245968
3   -0.2543
4   -0.129691
5   -0.125525
6   -0.128241
7   -0.188199
8   -0.199184
9   -0.2761
10   0.178895
11   0.043875
12   -0.619969
13   0.141873
14   0.141872
15   0.142664
16   0.131765
17   0.129673
18   0.141461
19   0.127518
20   0.130868
21   0.131524
22   0.130443
23   0.130532
24   0.122411
25   0.145547
26   0.120205
27   0.134871
28   0.383303

>  <lowdin_charges>
28
1   -0.448363
2   -0.273851
3   -0.280928
4   -0.158521
5   -0.15123
6   -0.154603
7   -0.161043
8   -0.170502
9   -0.292979
10   -0.016162
11   -0.003033
12   -0.461088
13   0.150743
14   0.147942
15   0.148163
16   0.140725
17   0.139915
18   0.146626
19   0.139699
20   0.159792
21   0.156919
22   0.158806
23   0.158691
24   0.149436
25   0.151926
26   0.13653
27   0.147235
28   0.339156

$$$$

