PCCDB-ID:  17927
public computational chemistry database (PCCDB) project, http://pccdb.org

 20 20  0  0  0  0  0  0  0  0999 V2000
    1.1436    0.8293    0.2547 C   0  0  0  0  0  0  0  0  0  0  0  0
    2.4065    0.0020   -0.0449 C   0  0  0  0  0  0  0  0  0  0  0  0
    2.6785   -2.1563    1.2774 C   0  0  0  0  0  0  0  0  0  0  0  0
    3.1199   -2.8914    2.3801 C   0  0  0  0  0  0  0  0  0  0  0  0
    4.0722   -0.8658    3.2977 C   0  0  0  0  0  0  0  0  0  0  0  0
    2.9084   -0.7861    1.1454 C   0  0  0  0  0  0  0  0  0  0  0  0
    3.8196   -2.2368    3.3951 C   0  0  0  0  0  0  0  0  0  0  0  0
    3.6185   -0.1563    2.1864 C   0  0  0  0  0  0  0  0  0  0  0  0
    4.2889   -2.8777    4.5104 O   0  0  0  0  0  0  0  0  0  0  0  0
    3.8499    1.1894    2.0563 O   0  0  0  0  0  0  0  0  0  0  0  0
    0.8149    1.3754   -0.6375 H   0  0  0  0  0  0  0  0  0  0  0  0
    1.3377    1.5588    1.0470 H   0  0  0  0  0  0  0  0  0  0  0  0
    0.3197    0.1844    0.5813 H   0  0  0  0  0  0  0  0  0  0  0  0
    3.1966    0.6764   -0.3966 H   0  0  0  0  0  0  0  0  0  0  0  0
    2.1984   -0.6951   -0.8662 H   0  0  0  0  0  0  0  0  0  0  0  0
    2.1363   -2.6703    0.4867 H   0  0  0  0  0  0  0  0  0  0  0  0
    2.9231   -3.9593    2.4471 H   0  0  0  0  0  0  0  0  0  0  0  0
    4.6219   -0.3717    4.0953 H   0  0  0  0  0  0  0  0  0  0  0  0
    4.0472   -3.8150    4.4532 H   0  0  0  0  0  0  0  0  0  0  0  0
    4.3535    1.4959    2.8262 H   0  0  0  0  0  0  0  0  0  0  0  0
  1 13  1  0  0  0  0
  1 12  1  0  0  0  0
  2  1  1  0  0  0  0
  2  6  1  0  0  0  0
  3  4  1  0  0  0  0
  4 17  1  0  0  0  0
  4  7  2  0  0  0  0
  5  7  1  0  0  0  0
  5 18  1  0  0  0  0
  6  3  2  0  0  0  0
  6  8  1  0  0  0  0
  7  9  1  0  0  0  0
  8  5  2  0  0  0  0
 10  8  1  0  0  0  0
 10 20  1  0  0  0  0
 11  1  1  0  0  0  0
 14  2  1  0  0  0  0
 15  2  1  0  0  0  0
 16  3  1  0  0  0  0
 19  9  1  0  0  0  0
M  END
>  <HBA>
2

>  <HBD>
2

>  <TPSA>
40.46

>  <cid>
17927

>  <dipole>
1.1

>  <excitation_energy_1>
4.897

>  <excitation_energy_2>
4.939

>  <excitation_energy_3>
5.092

>  <excitation_energy_4>
5.554

>  <homo_energy>
-5.589

>  <homo_lumo_gap>
5.85

>  <logP>
1.66

>  <lumo_energy>
0.261

>  <melting_point>
88.44

>  <molecular_refractivity>
40.26

>  <oscillator_strength_1>
0.0459

>  <oscillator_strength_2>
0.0031

>  <oscillator_strength_3>
0.0013

>  <oscillator_strength_4>
0.0357

>  <open_babel_can_smiles>
CCc1ccc(cc1O)O

>  <mulliken_charges>
20
1   -0.437746
2   -0.326168
3   -0.204764
4   -0.197436
5   -0.235122
6   0.141391
7   0.349387
8   0.300682
9   -0.648312
10   -0.648205
11   0.137471
12   0.161316
13   0.141127
14   0.153949
15   0.133371
16   0.124372
17   0.112619
18   0.125423
19   0.407499
20   0.409148

>  <lowdin_charges>
20
1   -0.444891
2   -0.268523
3   -0.14737
4   -0.236679
5   -0.246138
6   -0.04951
7   0.108853
8   0.107832
9   -0.379617
10   -0.382266
11   0.147027
12   0.156277
13   0.147089
14   0.156235
15   0.145692
16   0.157649
17   0.150314
18   0.162725
19   0.356366
20   0.358936

$$$$

