PCCDB-ID:  24259
public computational chemistry database (PCCDB) project, http://pccdb.org

 14 14  0  0  0  0  0  0  0  0999 V2000
   -1.4957   -0.1704    0.0371 C   0  0  0  0  0  0  0  0  0  0  0  0
   -0.7561   -1.3637    0.0643 C   0  0  0  0  0  0  0  0  0  0  0  0
   -0.8447    1.0567   -0.0190 C   0  0  0  0  0  0  0  0  0  0  0  0
    0.6333   -1.3283    0.0352 C   0  0  0  0  0  0  0  0  0  0  0  0
    0.5535    1.0996   -0.0487 C   0  0  0  0  0  0  0  0  0  0  0  0
    1.2949   -0.0966   -0.0215 C   0  0  0  0  0  0  0  0  0  0  0  0
    1.2897    2.3563   -0.1074 N   0  0  0  0  0  0  0  0  0  0  0  0
    2.7487    0.0019   -0.0554 N   0  0  0  0  0  0  0  0  0  0  0  0
    0.5719    3.3412   -0.1257 O   0  0  0  0  0  0  0  0  0  0  0  0
    3.3114   -1.0790   -0.0239 O   0  0  0  0  0  0  0  0  0  0  0  0
   -2.5812   -0.2074    0.0599 H   0  0  0  0  0  0  0  0  0  0  0  0
   -1.2731   -2.3181    0.1089 H   0  0  0  0  0  0  0  0  0  0  0  0
   -1.3879    1.9955   -0.0413 H   0  0  0  0  0  0  0  0  0  0  0  0
    1.2322   -2.2325    0.0556 H   0  0  0  0  0  0  0  0  0  0  0  0
  1 11  1  0  0  0  0
  1  2  1  0  0  0  0
  2 12  1  0  0  0  0
  3  1  2  0  0  0  0
  4 14  1  0  0  0  0
  4  2  2  0  0  0  0
  5  6  2  0  0  0  0
  5  3  1  0  0  0  0
  6  4  1  0  0  0  0
  7  5  1  0  0  0  0
  8 10  1  0  0  0  0
  8  6  1  0  0  0  0
  9  7  1  0  0  0  0
 13  3  1  0  0  0  0
M  RAD  4   7   2   8   2   9   2  10   2
M  END
>  <HBA>
4

>  <HBD>
0

>  <TPSA>
58.86

>  <cid>
24259

>  <dipole>
5.18

>  <excitation_energy_1>
1.103

>  <excitation_energy_2>
1.465

>  <excitation_energy_3>
2.416

>  <excitation_energy_4>
2.779

>  <homo_energy>
-6.087

>  <homo_lumo_gap>
2.607

>  <logP>
2.482

>  <lumo_energy>
-3.48

>  <melting_point>
58.5

>  <molecular_refractivity>
37.35

>  <oscillator_strength_1>
0.0002

>  <oscillator_strength_2>
0.0

>  <oscillator_strength_3>
0.0

>  <oscillator_strength_4>
0.0007

>  <open_babel_can_smiles>
[O][N]c1ccccc1[N][O]

>  <mulliken_charges>
14
1   -0.122556
2   -0.12276
3   -0.134277
4   -0.134261
5   0.208061
6   0.208205
7   -0.025202
8   -0.025266
9   -0.262066
10   -0.262144
11   0.159325
12   0.159267
13   0.176812
14   0.176864

>  <lowdin_charges>
14
1   -0.123505
2   -0.126388
3   -0.133296
4   -0.133703
5   -0.006446
6   -0.005962
7   0.065828
8   0.066364
9   -0.155711
10   -0.155924
11   0.169576
12   0.171716
13   0.183573
14   0.183878

$$$$

