PCCDB-ID:  21885
public computational chemistry database (PCCDB) project, http://pccdb.org

 19 19  0  0  0  0  0  0  0  0999 V2000
    2.2874    1.1067    0.2845 C   0  0  0  0  0  0  0  0  0  0  0  0
    2.4111   -1.0885    1.4330 C   0  0  0  0  0  0  0  0  0  0  0  0
    3.8075   -2.7869   -2.1971 C   0  0  0  0  0  0  0  0  0  0  0  0
    3.9288   -1.9577   -3.3156 C   0  0  0  0  0  0  0  0  0  0  0  0
    3.3177   -2.2754   -1.0043 C   0  0  0  0  0  0  0  0  0  0  0  0
    3.5484   -0.6276   -3.1613 C   0  0  0  0  0  0  0  0  0  0  0  0
    2.9422   -0.9091   -0.9540 C   0  0  0  0  0  0  0  0  0  0  0  0
    3.0750   -0.1050   -2.0273 N   0  0  0  0  0  0  0  0  0  0  0  0
    2.4075   -0.3421    0.1888 N   0  0  0  0  0  0  0  0  0  0  0  0
    1.4881    1.3533    0.9906 H   0  0  0  0  0  0  0  0  0  0  0  0
    2.0442    1.5121   -0.6961 H   0  0  0  0  0  0  0  0  0  0  0  0
    3.2192    1.5829    0.6297 H   0  0  0  0  0  0  0  0  0  0  0  0
    1.8841   -0.5068    2.1928 H   0  0  0  0  0  0  0  0  0  0  0  0
    3.4268   -1.2991    1.8066 H   0  0  0  0  0  0  0  0  0  0  0  0
    1.8835   -2.0427    1.3219 H   0  0  0  0  0  0  0  0  0  0  0  0
    4.0981   -3.8334   -2.2511 H   0  0  0  0  0  0  0  0  0  0  0  0
    4.3132   -2.3231   -4.2622 H   0  0  0  0  0  0  0  0  0  0  0  0
    3.2353   -2.9152   -0.1345 H   0  0  0  0  0  0  0  0  0  0  0  0
    3.6311    0.0680   -3.9963 H   0  0  0  0  0  0  0  0  0  0  0  0
  1 12  1  0  0  0  0
  1 10  1  0  0  0  0
  2 14  1  0  0  0  0
  2 13  1  0  0  0  0
  3  5  2  0  0  0  0
  4  6  2  0  0  0  0
  4  3  1  0  0  0  0
  5  7  1  0  0  0  0
  5 18  1  0  0  0  0
  6  8  1  0  0  0  0
  7  9  1  0  0  0  0
  8  7  2  0  0  0  0
  9  1  1  0  0  0  0
  9  2  1  0  0  0  0
 11  1  1  0  0  0  0
 15  2  1  0  0  0  0
 16  3  1  0  0  0  0
 17  4  1  0  0  0  0
 19  6  1  0  0  0  0
M  END
>  <HBA>
2

>  <HBD>
0

>  <TPSA>
16.13

>  <cid>
21885

>  <dipole>
1.79

>  <excitation_energy_1>
4.274

>  <excitation_energy_2>
4.811

>  <excitation_energy_3>
5.063

>  <excitation_energy_4>
5.223

>  <homo_energy>
-5.282

>  <homo_lumo_gap>
5.094

>  <logP>
1.148

>  <lumo_energy>
-0.188

>  <melting_point>
28.17

>  <molecular_refractivity>
38.44

>  <oscillator_strength_1>
0.0557

>  <oscillator_strength_2>
0.0269

>  <oscillator_strength_3>
0.0042

>  <oscillator_strength_4>
0.1483

>  <open_babel_can_smiles>
CN(c1ccccn1)C

>  <mulliken_charges>
19
1   -0.306591
2   -0.310201
3   -0.106215
4   -0.159065
5   -0.192993
6   0.043676
7   0.522336
8   -0.515775
9   -0.447362
10   0.142634
11   0.198824
12   0.143182
13   0.158139
14   0.149338
15   0.162598
16   0.133297
17   0.125383
18   0.127163
19   0.131631

>  <lowdin_charges>
19
1   -0.353063
2   -0.352253
3   -0.120081
4   -0.215757
5   -0.227203
6   -0.080395
7   0.102701
8   -0.194601
9   -0.113373
10   0.148044
11   0.178934
12   0.139709
13   0.160751
14   0.1406
15   0.154038
16   0.157503
17   0.159607
18   0.162229
19   0.152611

$$$$

