PCCDB-ID:  7198
public computational chemistry database (PCCDB) project, http://pccdb.org

 30 30  0  0  1  0  0  0  0  0999 V2000
    4.4710   -0.8427   -0.0903 C   0  0  0  0  0  0  0  0  0  0  0  0
   -2.4077    3.1565    6.4851 C   0  0  0  0  0  0  0  0  0  0  0  0
    0.9943    0.1300    2.7343 C   0  0  0  0  0  0  0  0  0  0  0  0
    1.9339    2.4203    2.1861 C   0  0  0  0  0  0  0  0  0  0  0  0
    0.3921    0.6874    4.0302 C   0  0  0  0  0  0  0  0  0  0  0  0
    1.3265    2.9797    3.4790 C   0  0  0  0  0  0  0  0  0  0  0  0
    2.2546    0.9164    2.3067 C   0  0  2  0  0  0  0  0  0  0  0  0
    0.0721    2.1965    3.9052 C   0  0  2  0  0  0  0  0  0  0  0  0
    2.7621    0.3779    0.9811 C   0  0  0  0  0  0  0  0  0  0  0  0
   -0.4609    2.7046    5.2329 C   0  0  0  0  0  0  0  0  0  0  0  0
    2.1888    0.5008   -0.0816 O   0  0  0  0  0  0  0  0  0  0  0  0
    0.2209    3.0121    6.1883 O   0  0  0  0  0  0  0  0  0  0  0  0
    3.9353   -0.2812    1.1198 O   0  0  0  0  0  0  0  0  0  0  0  0
   -1.8138    2.7386    5.2447 O   0  0  0  0  0  0  0  0  0  0  0  0
    5.4007   -1.3325    0.2007 H   0  0  0  0  0  0  0  0  0  0  0  0
    4.6635   -0.0568   -0.8256 H   0  0  0  0  0  0  0  0  0  0  0  0
    3.7728   -1.5655   -0.5208 H   0  0  0  0  0  0  0  0  0  0  0  0
   -3.4852    3.1011    6.3274 H   0  0  0  0  0  0  0  0  0  0  0  0
   -2.1072    4.1792    6.7287 H   0  0  0  0  0  0  0  0  0  0  0  0
   -2.1025    2.4954    7.3006 H   0  0  0  0  0  0  0  0  0  0  0  0
    0.2574    0.1851    1.9225 H   0  0  0  0  0  0  0  0  0  0  0  0
    1.2426   -0.9303    2.8683 H   0  0  0  0  0  0  0  0  0  0  0  0
    2.8456    2.9772    1.9362 H   0  0  0  0  0  0  0  0  0  0  0  0
    1.2409    2.5599    1.3469 H   0  0  0  0  0  0  0  0  0  0  0  0
    1.0960    0.5454    4.8613 H   0  0  0  0  0  0  0  0  0  0  0  0
   -0.5197    0.1335    4.2849 H   0  0  0  0  0  0  0  0  0  0  0  0
    1.0768    4.0390    3.3411 H   0  0  0  0  0  0  0  0  0  0  0  0
    2.0573    2.9364    4.2958 H   0  0  0  0  0  0  0  0  0  0  0  0
    3.0378    0.7682    3.0594 H   0  0  0  0  0  0  0  0  0  0  0  0
   -0.7165    2.3206    3.1532 H   0  0  0  0  0  0  0  0  0  0  0  0
  1 15  1  0  0  0  0
  1 13  1  0  0  0  0
  2 19  1  0  0  0  0
  2 20  1  0  0  0  0
  3 22  1  0  0  0  0
  3  5  1  0  0  0  0
  4  7  1  0  0  0  0
  4  6  1  0  0  0  0
  5 26  1  0  0  0  0
  5 25  1  0  0  0  0
  6  8  1  0  0  0  0
  6 28  1  0  0  0  0
  7  3  1  0  0  0  0
  7 29  1  1  0  0  0
  8 30  1  6  0  0  0
  8  5  1  0  0  0  0
  8 10  1  0  0  0  0
  9 13  1  0  0  0  0
  9  7  1  0  0  0  0
 10 14  1  0  0  0  0
 10 12  2  0  0  0  0
 11  9  2  0  0  0  0
 14  2  1  0  0  0  0
 16  1  1  0  0  0  0
 17  1  1  0  0  0  0
 18  2  1  0  0  0  0
 21  3  1  0  0  0  0
 23  4  1  0  0  0  0
 24  4  1  0  0  0  0
 27  6  1  0  0  0  0
M  END
>  <HBA>
4

>  <HBD>
0

>  <TPSA>
52.6

>  <cid>
7198

>  <dipole>
0.93

>  <excitation_energy_1>
5.721

>  <excitation_energy_2>
5.763

>  <excitation_energy_3>
6.832

>  <excitation_energy_4>
6.945

>  <homo_energy>
-7.187

>  <homo_lumo_gap>
7.388

>  <logP>
1.139

>  <lumo_energy>
0.201

>  <melting_point>
18.24

>  <molecular_refractivity>
50.64

>  <oscillator_strength_1>
0.001

>  <oscillator_strength_2>
0.0018

>  <oscillator_strength_3>
0.0003

>  <oscillator_strength_4>
0.0211

>  <open_babel_can_smiles>
COC(=O)[C@@H]1CC[C@H](CC1)C(=O)OC

>  <mulliken_charges>
30
1   -0.219562
2   -0.21935
3   -0.274496
4   -0.275699
5   -0.276953
6   -0.270869
7   -0.165713
8   -0.167334
9   0.618837
10   0.620048
11   -0.490234
12   -0.487984
13   -0.450494
14   -0.453652
15   0.164332
16   0.170723
17   0.16995
18   0.16418
19   0.170341
20   0.169896
21   0.157327
22   0.145206
23   0.142673
24   0.158186
25   0.15273
26   0.148084
27   0.142632
28   0.158852
29   0.148748
30   0.149593

>  <lowdin_charges>
30
1   -0.282435
2   -0.277756
3   -0.271021
4   -0.274729
5   -0.272689
6   -0.273278
7   -0.15246
8   -0.15307
9   0.198824
10   0.200682
11   -0.271048
12   -0.270057
13   -0.192401
14   -0.194692
15   0.160502
16   0.160656
17   0.160607
18   0.158281
19   0.158397
20   0.160086
21   0.153589
22   0.149385
23   0.150611
24   0.154322
25   0.150897
26   0.152652
27   0.149298
28   0.15518
29   0.155392
30   0.156274

$$$$

