PCCDB-ID:  23611
public computational chemistry database (PCCDB) project, http://pccdb.org

 29 29  0  0  0  0  0  0  0  0999 V2000
    2.7319   -1.3087    0.1202 C   0  0  0  0  0  0  0  0  0  0  0  0
    2.1437    0.1063    0.1574 C   0  0  0  0  0  0  0  0  0  0  0  0
    1.1977    5.1712    0.7563 C   0  0  0  0  0  0  0  0  0  0  0  0
    0.4675    4.0755    0.3034 C   0  0  0  0  0  0  0  0  0  0  0  0
    2.4740    4.9701    1.2869 C   0  0  0  0  0  0  0  0  0  0  0  0
    1.0060    2.7869    0.3776 C   0  0  0  0  0  0  0  0  0  0  0  0
    3.0113    3.6877    1.3628 C   0  0  0  0  0  0  0  0  0  0  0  0
    2.2891    2.5686    0.9064 C   0  0  0  0  0  0  0  0  0  0  0  0
    2.7726    0.6550    2.5084 C   0  0  0  0  0  0  0  0  0  0  0  0
    4.3917    1.2583    0.5938 C   0  0  0  0  0  0  0  0  0  0  0  0
    2.9018    1.1500    1.0399 C   0  0  0  0  0  0  0  0  0  0  0  0
    3.5129   -0.2003    3.1007 N   0  0  0  0  0  0  0  0  0  0  0  0
    4.8188    1.2273   -0.5998 N   0  0  0  0  0  0  0  0  0  0  0  0
    1.7201    1.1363    3.2036 O   0  0  0  0  0  0  0  0  0  0  0  0
    5.3111    1.5098    1.5666 O   0  0  0  0  0  0  0  0  0  0  0  0
    2.1391   -1.9308   -0.5588 H   0  0  0  0  0  0  0  0  0  0  0  0
    2.7059   -1.7818    1.1062 H   0  0  0  0  0  0  0  0  0  0  0  0
    3.7651   -1.3097   -0.2403 H   0  0  0  0  0  0  0  0  0  0  0  0
    1.1135    0.0440    0.5250 H   0  0  0  0  0  0  0  0  0  0  0  0
    2.0774    0.5063   -0.8617 H   0  0  0  0  0  0  0  0  0  0  0  0
    0.7803    6.1723    0.6959 H   0  0  0  0  0  0  0  0  0  0  0  0
   -0.5251    4.2140   -0.1162 H   0  0  0  0  0  0  0  0  0  0  0  0
    3.0576    5.8151    1.6412 H   0  0  0  0  0  0  0  0  0  0  0  0
    0.4125    1.9585    0.0081 H   0  0  0  0  0  0  0  0  0  0  0  0
    4.0105    3.5558    1.7648 H   0  0  0  0  0  0  0  0  0  0  0  0
    4.2275   -0.5655    2.4706 H   0  0  0  0  0  0  0  0  0  0  0  0
    4.0521    1.0836   -1.2569 H   0  0  0  0  0  0  0  0  0  0  0  0
    1.3157    1.8705    2.7077 H   0  0  0  0  0  0  0  0  0  0  0  0
    4.9242    1.3346    2.4428 H   0  0  0  0  0  0  0  0  0  0  0  0
  1  2  1  0  0  0  0
  1 17  1  0  0  0  0
  2 19  1  0  0  0  0
  2 11  1  0  0  0  0
  3  5  2  0  0  0  0
  4  6  2  0  0  0  0
  4  3  1  0  0  0  0
  5  7  1  0  0  0  0
  5 23  1  0  0  0  0
  6  8  1  0  0  0  0
  7 25  1  0  0  0  0
  8 11  1  0  0  0  0
  8  7  2  0  0  0  0
  9 12  2  0  0  0  0
  9 14  1  0  0  0  0
 10 11  1  0  0  0  0
 10 15  1  0  0  0  0
 11  9  1  0  0  0  0
 13 10  2  0  0  0  0
 15 29  1  0  0  0  0
 16  1  1  0  0  0  0
 18  1  1  0  0  0  0
 20  2  1  0  0  0  0
 21  3  1  0  0  0  0
 22  4  1  0  0  0  0
 24  6  1  0  0  0  0
 26 12  1  0  0  0  0
 27 13  1  0  0  0  0
 28 14  1  0  0  0  0
M  END
>  <HBA>
4

>  <HBD>
2

>  <TPSA>
86.18

>  <cid>
23611

>  <dipole>
4.88

>  <excitation_energy_1>
5.22

>  <excitation_energy_2>
5.494

>  <excitation_energy_3>
5.672

>  <excitation_energy_4>
5.739

>  <homo_energy>
-7.072

>  <homo_lumo_gap>
6.172

>  <logP>
1.706

>  <lumo_energy>
-0.901

>  <melting_point>
162.72

>  <molecular_refractivity>
56.33

>  <oscillator_strength_1>
0.0033

>  <oscillator_strength_2>
0.0555

>  <oscillator_strength_3>
0.0165

>  <oscillator_strength_4>
0.0007

>  <open_babel_can_smiles>
CCC(c1ccccc1)(C(=N)O)C(=N)O

>  <mulliken_charges>
29
1   -0.472433
2   -0.286888
3   -0.121598
4   -0.128537
5   -0.131369
6   -0.190803
7   -0.15403
8   0.052441
9   0.45392
10   0.464459
11   -0.127026
12   -0.589382
13   -0.582639
14   -0.575198
15   -0.583742
16   0.155288
17   0.170808
18   0.169139
19   0.157432
20   0.152886
21   0.143417
22   0.143093
23   0.147266
24   0.143168
25   0.162368
26   0.303107
27   0.292152
28   0.421713
29   0.410988

>  <lowdin_charges>
29
1   -0.458811
2   -0.269293
3   -0.146468
4   -0.149682
5   -0.146133
6   -0.181558
7   -0.156997
8   -0.031355
9   0.11927
10   0.12054
11   -0.057204
12   -0.407192
13   -0.382963
14   -0.345387
15   -0.362149
16   0.161028
17   0.161432
18   0.159492
19   0.153814
20   0.149013
21   0.164167
22   0.163397
23   0.167449
24   0.166365
25   0.172042
26   0.262906
27   0.25986
28   0.362215
29   0.352201

$$$$

