PCCDB-ID:  18850
public computational chemistry database (PCCDB) project, http://pccdb.org

 16 15  0  0  0  0  0  0  0  0999 V2000
    2.7661   -0.8667   -0.7921 C   0  0  0  0  0  0  0  0  0  0  0  0
    5.0532   -0.6170    1.8526 C   0  0  0  0  0  0  0  0  0  0  0  0
    2.3092    1.4920    2.0112 C   0  0  0  0  0  0  0  0  0  0  0  0
    2.2470   -0.1009    0.1778 C   0  0  0  0  0  0  0  0  0  0  0  0
    4.5040    0.6545    1.1798 C   0  0  0  0  0  0  0  0  0  0  0  0
    2.9891    0.7136    1.1508 C   0  0  0  0  0  0  0  0  0  0  0  0
    2.1255   -1.4205   -1.4720 H   0  0  0  0  0  0  0  0  0  0  0  0
    3.8360   -0.9679   -0.9504 H   0  0  0  0  0  0  0  0  0  0  0  0
    6.1492   -0.6174    1.8438 H   0  0  0  0  0  0  0  0  0  0  0  0
    4.7090   -1.5229    1.3439 H   0  0  0  0  0  0  0  0  0  0  0  0
    4.7219   -0.6755    2.8952 H   0  0  0  0  0  0  0  0  0  0  0  0
    1.2223    1.5243    2.0156 H   0  0  0  0  0  0  0  0  0  0  0  0
    2.8159    2.1215    2.7378 H   0  0  0  0  0  0  0  0  0  0  0  0
    1.1618   -0.0473    0.2692 H   0  0  0  0  0  0  0  0  0  0  0  0
    4.8965    0.7240    0.1567 H   0  0  0  0  0  0  0  0  0  0  0  0
    4.8827    1.5334    1.7143 H   0  0  0  0  0  0  0  0  0  0  0  0
  1  4  2  0  0  0  0
  2 11  1  0  0  0  0
  3 12  1  0  0  0  0
  3 13  1  0  0  0  0
  4 14  1  0  0  0  0
  4  6  1  0  0  0  0
  5 16  1  0  0  0  0
  5  2  1  0  0  0  0
  6  5  1  0  0  0  0
  6  3  2  0  0  0  0
  7  1  1  0  0  0  0
  8  1  1  0  0  0  0
  9  2  1  0  0  0  0
 10  2  1  0  0  0  0
 15  5  1  0  0  0  0
M  END
>  <HBA>
0

>  <HBD>
0

>  <TPSA>
0.0

>  <cid>
18850

>  <dipole>
0.21

>  <excitation_energy_1>
5.426

>  <excitation_energy_2>
5.82

>  <excitation_energy_3>
6.139

>  <excitation_energy_4>
6.264

>  <homo_energy>
-6.125

>  <homo_lumo_gap>
5.581

>  <logP>
2.139

>  <lumo_energy>
-0.544

>  <melting_point>
-64.34

>  <molecular_refractivity>
30.01

>  <oscillator_strength_1>
0.4834

>  <oscillator_strength_2>
0.0053

>  <oscillator_strength_3>
0.0042

>  <oscillator_strength_4>
0.034

>  <open_babel_can_smiles>
CCC(=C)C=C

>  <mulliken_charges>
16
1   -0.355742
2   -0.439592
3   -0.413944
4   -0.101997
5   -0.340685
6   0.232982
7   0.14303
8   0.1424
9   0.142678
10   0.154069
11   0.149721
12   0.139812
13   0.138474
14   0.124474
15   0.143102
16   0.141216

>  <lowdin_charges>
16
1   -0.340785
2   -0.44004
3   -0.344753
4   -0.142798
5   -0.271373
6   0.007294
7   0.163065
8   0.156381
9   0.147319
10   0.153113
11   0.150016
12   0.154378
13   0.158094
14   0.151894
15   0.147477
16   0.15072

$$$$

