PCCDB-ID:  10864
public computational chemistry database (PCCDB) project, http://pccdb.org

 27 27  0  0  0  0  0  0  0  0999 V2000
    0.6815    0.1905   -0.1646 C   0  0  0  0  0  0  0  0  0  0  0  0
    2.2082    0.1378   -0.0465 C   0  0  0  0  0  0  0  0  0  0  0  0
    2.9110    1.2932   -0.7708 C   0  0  0  0  0  0  0  0  0  0  0  0
    9.4517    2.2002   -1.0325 C   0  0  0  0  0  0  0  0  0  0  0  0
    4.4398    1.2432   -0.6617 C   0  0  0  0  0  0  0  0  0  0  0  0
    8.8017    1.5881   -2.1057 C   0  0  0  0  0  0  0  0  0  0  0  0
    8.7026    2.8940   -0.0805 C   0  0  0  0  0  0  0  0  0  0  0  0
    5.1388    2.4141   -1.3816 C   0  0  0  0  0  0  0  0  0  0  0  0
    7.4137    1.6706   -2.2229 C   0  0  0  0  0  0  0  0  0  0  0  0
    7.3148    2.9731   -0.2033 C   0  0  0  0  0  0  0  0  0  0  0  0
    6.6481    2.3619   -1.2740 C   0  0  0  0  0  0  0  0  0  0  0  0
    0.2097   -0.6451    0.3650 H   0  0  0  0  0  0  0  0  0  0  0  0
    0.3631    0.1425   -1.2133 H   0  0  0  0  0  0  0  0  0  0  0  0
    0.2829    1.1207    0.2588 H   0  0  0  0  0  0  0  0  0  0  0  0
    2.5741   -0.8175   -0.4488 H   0  0  0  0  0  0  0  0  0  0  0  0
    2.4940    0.1489    1.0149 H   0  0  0  0  0  0  0  0  0  0  0  0
    2.5474    2.2495   -0.3655 H   0  0  0  0  0  0  0  0  0  0  0  0
    2.6210    1.2855   -1.8323 H   0  0  0  0  0  0  0  0  0  0  0  0
   10.5331    2.1413   -0.9415 H   0  0  0  0  0  0  0  0  0  0  0  0
    4.8094    0.2951   -1.0769 H   0  0  0  0  0  0  0  0  0  0  0  0
    4.7353    1.2457    0.3969 H   0  0  0  0  0  0  0  0  0  0  0  0
    9.3762    1.0504   -2.8559 H   0  0  0  0  0  0  0  0  0  0  0  0
    9.1994    3.3793    0.7559 H   0  0  0  0  0  0  0  0  0  0  0  0
    4.7715    3.3601   -0.9617 H   0  0  0  0  0  0  0  0  0  0  0  0
    4.8442    2.4090   -2.4397 H   0  0  0  0  0  0  0  0  0  0  0  0
    6.9149    1.1951   -3.0653 H   0  0  0  0  0  0  0  0  0  0  0  0
    6.7384    3.5201    0.5403 H   0  0  0  0  0  0  0  0  0  0  0  0
  1  2  1  0  0  0  0
  1 14  1  0  0  0  0
  1 12  1  0  0  0  0
  2 16  1  0  0  0  0
  3  5  1  0  0  0  0
  3 17  1  0  0  0  0
  3  2  1  0  0  0  0
  4 19  1  0  0  0  0
  4  7  2  0  0  0  0
  5 21  1  0  0  0  0
  6  4  1  0  0  0  0
  7 23  1  0  0  0  0
  8 11  1  0  0  0  0
  8 24  1  0  0  0  0
  8  5  1  0  0  0  0
  9  6  2  0  0  0  0
  9 11  1  0  0  0  0
 10  7  1  0  0  0  0
 10 27  1  0  0  0  0
 11 10  2  0  0  0  0
 13  1  1  0  0  0  0
 15  2  1  0  0  0  0
 18  3  1  0  0  0  0
 20  5  1  0  0  0  0
 22  6  1  0  0  0  0
 25  8  1  0  0  0  0
 26  9  1  0  0  0  0
M  END
>  <HBA>
0

>  <HBD>
0

>  <TPSA>
0.0

>  <cid>
10864

>  <dipole>
0.34

>  <excitation_energy_1>
5.296

>  <excitation_energy_2>
5.864

>  <excitation_energy_3>
5.996

>  <excitation_energy_4>
6.186

>  <homo_energy>
-6.381

>  <homo_lumo_gap>
6.536

>  <logP>
3.419

>  <lumo_energy>
0.155

>  <melting_point>
4.49

>  <molecular_refractivity>
50.64

>  <oscillator_strength_1>
0.001

>  <oscillator_strength_2>
0.0485

>  <oscillator_strength_3>
0.0029

>  <oscillator_strength_4>
0.0029

>  <open_babel_can_smiles>
CCCCCc1ccccc1

>  <mulliken_charges>
27
1   -0.441581
2   -0.246922
3   -0.24467
4   -0.131864
5   -0.248189
6   -0.128101
7   -0.128096
8   -0.349687
9   -0.180793
10   -0.180682
11   0.174225
12   0.142083
13   0.141206
14   0.141211
15   0.131205
16   0.13115
17   0.126813
18   0.126805
19   0.12597
20   0.1347
21   0.134571
22   0.126413
23   0.126431
24   0.138591
25   0.138581
26   0.120336
27   0.120292

>  <lowdin_charges>
27
1   -0.444587
2   -0.270037
3   -0.273772
4   -0.160767
5   -0.270369
6   -0.157218
7   -0.156658
8   -0.271467
9   -0.169063
10   -0.16971
11   0.001009
12   0.150384
13   0.144968
14   0.146418
15   0.139276
16   0.137784
17   0.137197
18   0.135765
19   0.15405
20   0.141841
21   0.140278
22   0.157306
23   0.156871
24   0.14688
25   0.145399
26   0.15387
27   0.154351

$$$$

