PCCDB-ID:  8854
public computational chemistry database (PCCDB) project, http://pccdb.org

 31 30  0  0  0  0  0  0  0  0999 V2000
    1.7317   -2.5941    1.8184 C   0  0  0  0  0  0  0  0  0  0  0  0
    0.4335    0.0045   -2.5186 C   0  0  0  0  0  0  0  0  0  0  0  0
    0.3453   -2.2787   -3.4173 C   0  0  0  0  0  0  0  0  0  0  0  0
    2.1010    1.9665    3.9841 C   0  0  0  0  0  0  0  0  0  0  0  0
    5.5746    0.2303    1.9569 C   0  0  0  0  0  0  0  0  0  0  0  0
    1.8486   -1.0148   -0.1929 C   0  0  0  0  0  0  0  0  0  0  0  0
    2.0388   -1.3191    1.1020 C   0  0  0  0  0  0  0  0  0  0  0  0
    1.3101   -1.9671   -1.2012 C   0  0  0  0  0  0  0  0  0  0  0  0
    0.7658   -1.4010   -2.3360 N   0  0  0  0  0  0  0  0  0  0  0  0
    1.3733   -3.1934   -1.0707 O   0  0  0  0  0  0  0  0  0  0  0  0
    2.2385    1.9227    0.7929 O   0  0  0  0  0  0  0  0  0  0  0  0
    3.2695    1.6454    3.2043 O   0  0  0  0  0  0  0  0  0  0  0  0
    4.5938    0.9724    1.2065 O   0  0  0  0  0  0  0  0  0  0  0  0
    2.5682   -0.3981    2.0102 O   0  0  0  0  0  0  0  0  0  0  0  0
    3.0845    1.1236    1.6995 P   0  0  0  0  0  0  0  0  0  0  0  0
    1.3031   -3.3192    1.1292 H   0  0  0  0  0  0  0  0  0  0  0  0
    1.0466   -2.3952    2.6517 H   0  0  0  0  0  0  0  0  0  0  0  0
    2.6509   -3.0110    2.2485 H   0  0  0  0  0  0  0  0  0  0  0  0
   -0.6191    0.0949   -2.8191 H   0  0  0  0  0  0  0  0  0  0  0  0
    1.0485    0.4598   -3.3074 H   0  0  0  0  0  0  0  0  0  0  0  0
    0.5641    0.5735   -1.5995 H   0  0  0  0  0  0  0  0  0  0  0  0
   -0.7508   -2.3158   -3.4920 H   0  0  0  0  0  0  0  0  0  0  0  0
    0.7219   -3.2810   -3.2204 H   0  0  0  0  0  0  0  0  0  0  0  0
    0.7416   -1.9105   -4.3723 H   0  0  0  0  0  0  0  0  0  0  0  0
    1.5389    1.0559    4.2128 H   0  0  0  0  0  0  0  0  0  0  0  0
    1.4668    2.6752    3.4448 H   0  0  0  0  0  0  0  0  0  0  0  0
    2.4650    2.4191    4.9073 H   0  0  0  0  0  0  0  0  0  0  0  0
    6.4880    0.2530    1.3614 H   0  0  0  0  0  0  0  0  0  0  0  0
    5.2487   -0.8041    2.0977 H   0  0  0  0  0  0  0  0  0  0  0  0
    5.7464    0.7045    2.9265 H   0  0  0  0  0  0  0  0  0  0  0  0
    2.1067   -0.0178   -0.5214 H   0  0  0  0  0  0  0  0  0  0  0  0
  1 18  1  0  0  0  0
  1 17  1  0  0  0  0
  2  9  1  0  0  0  0
  2 21  1  0  0  0  0
  3 23  1  0  0  0  0
  3  9  1  0  0  0  0
  4 25  1  0  0  0  0
  4 27  1  0  0  0  0
  5 29  1  0  0  0  0
  5 30  1  0  0  0  0
  6  7  2  0  0  0  0
  7  1  1  0  0  0  0
  7 14  1  0  0  0  0
  8 10  2  0  0  0  0
  8  6  1  0  0  0  0
  9  8  1  0  0  0  0
 11 15  2  0  0  0  0
 12  4  1  0  0  0  0
 13 15  1  0  0  0  0
 13  5  1  0  0  0  0
 15 14  1  0  0  0  0
 15 12  1  0  0  0  0
 16  1  1  0  0  0  0
 19  2  1  0  0  0  0
 20  2  1  0  0  0  0
 22  3  1  0  0  0  0
 24  3  1  0  0  0  0
 26  4  1  0  0  0  0
 28  5  1  0  0  0  0
 31  6  1  0  0  0  0
M  END
>  <HBA>
6

>  <HBD>
0

>  <TPSA>
74.88

>  <cid>
8854

>  <dipole>
2.5

>  <excitation_energy_1>
4.638

>  <excitation_energy_2>
5.128

>  <excitation_energy_3>
5.758

>  <excitation_energy_4>
5.813

>  <homo_energy>
-6.221

>  <homo_lumo_gap>
5.701

>  <logP>
1.396

>  <lumo_energy>
-0.52

>  <melting_point>
0.28

>  <molecular_refractivity>
55.11

>  <oscillator_strength_1>
0.0025

>  <oscillator_strength_2>
0.156

>  <oscillator_strength_3>
0.3259

>  <oscillator_strength_4>
0.0476

>  <open_babel_can_smiles>
COP(=O)(O/C(=C/C(=O)N(C)C)/C)OC

>  <mulliken_charges>
31
1   -0.519652
2   -0.323789
3   -0.317437
4   -0.224497
5   -0.225307
6   -0.316215
7   0.389072
8   0.587636
9   -0.418621
10   -0.544353
11   -0.553789
12   -0.520216
13   -0.498407
14   -0.583237
15   1.260568
16   0.218916
17   0.16035
18   0.164618
19   0.155292
20   0.157644
21   0.195952
22   0.14919
23   0.202829
24   0.148156
25   0.171867
26   0.186433
27   0.175705
28   0.179005
29   0.171777
30   0.178379
31   0.19213

>  <lowdin_charges>
31
1   -0.454097
2   -0.354371
3   -0.353517
4   -0.271273
5   -0.266024
6   -0.266554
7   0.147362
8   0.160736
9   -0.104524
10   -0.333716
11   -0.574424
12   -0.389432
13   -0.377244
14   -0.35813
15   1.140078
16   0.196277
17   0.164453
18   0.167406
19   0.14999
20   0.150748
21   0.178085
22   0.143945
23   0.182777
24   0.14769
25   0.159409
26   0.16974
27   0.165994
28   0.167746
29   0.158148
30   0.162558
31   0.190165

$$$$

