PCCDB-ID:  21872
public computational chemistry database (PCCDB) project, http://pccdb.org

 22 21  0  0  0  0  0  0  0  0999 V2000
    0.5425    0.1338    0.1087 C   0  0  0  0  0  0  0  0  0  0  0  0
    2.0709    0.0410    0.0591 C   0  0  0  0  0  0  0  0  0  0  0  0
    2.7627    0.9825    1.0536 C   0  0  0  0  0  0  0  0  0  0  0  0
    4.2923    0.8911    1.0091 C   0  0  0  0  0  0  0  0  0  0  0  0
    4.9666    1.8487    2.0153 C   0  0  0  0  0  0  0  0  0  0  0  0
    6.4262    1.8035    1.9848 C   0  0  0  0  0  0  0  0  0  0  0  0
    7.6376    1.7599    1.9541 C   0  0  0  0  0  0  0  0  0  0  0  0
    9.0891    1.7427    1.9644 C   0  0  0  0  0  0  0  0  0  0  0  0
    9.7747    2.3544    2.7458 O   0  0  0  0  0  0  0  0  0  0  0  0
    9.6504    0.9630    1.0007 O   0  0  0  0  0  0  0  0  0  0  0  0
    0.0784   -0.5419   -0.6184 H   0  0  0  0  0  0  0  0  0  0  0  0
    0.1993    1.1510   -0.1164 H   0  0  0  0  0  0  0  0  0  0  0  0
    0.1605   -0.1325    1.1017 H   0  0  0  0  0  0  0  0  0  0  0  0
    2.4192    0.2696   -0.9578 H   0  0  0  0  0  0  0  0  0  0  0  0
    2.3824   -0.9929    0.2638 H   0  0  0  0  0  0  0  0  0  0  0  0
    2.4136    0.7550    2.0717 H   0  0  0  0  0  0  0  0  0  0  0  0
    2.4533    2.0180    0.8486 H   0  0  0  0  0  0  0  0  0  0  0  0
    4.6518    1.1242   -0.0014 H   0  0  0  0  0  0  0  0  0  0  0  0
    4.6121   -0.1362    1.2261 H   0  0  0  0  0  0  0  0  0  0  0  0
    4.6269    1.6163    3.0344 H   0  0  0  0  0  0  0  0  0  0  0  0
    4.6421    2.8805    1.8192 H   0  0  0  0  0  0  0  0  0  0  0  0
    8.9457    0.5549    0.4691 H   0  0  0  0  0  0  0  0  0  0  0  0
  1 13  1  0  0  0  0
  2  1  1  0  0  0  0
  2 15  1  0  0  0  0
  2  3  1  0  0  0  0
  3 16  1  0  0  0  0
  4  3  1  0  0  0  0
  4 19  1  0  0  0  0
  4  5  1  0  0  0  0
  5 20  1  0  0  0  0
  6  5  1  0  0  0  0
  7  8  1  0  0  0  0
  7  6  3  0  0  0  0
  8  9  2  0  0  0  0
 10  8  1  0  0  0  0
 11  1  1  0  0  0  0
 12  1  1  0  0  0  0
 14  2  1  0  0  0  0
 17  3  1  0  0  0  0
 18  4  1  0  0  0  0
 21  5  1  0  0  0  0
 22 10  1  0  0  0  0
M  END
>  <HBA>
2

>  <HBD>
1

>  <TPSA>
37.3

>  <cid>
21872

>  <dipole>
5.85

>  <excitation_energy_1>
4.729

>  <excitation_energy_2>
5.54

>  <excitation_energy_3>
5.789

>  <excitation_energy_4>
6.63

>  <homo_energy>
-7.355

>  <homo_lumo_gap>
6.324

>  <logP>
1.655

>  <lumo_energy>
-1.031

>  <melting_point>
66.62

>  <molecular_refractivity>
40.5

>  <oscillator_strength_1>
0.0

>  <oscillator_strength_2>
0.0002

>  <oscillator_strength_3>
0.0782

>  <oscillator_strength_4>
0.0126

>  <open_babel_can_smiles>
CCCCCC#CC(=O)O

>  <mulliken_charges>
22
1   -0.443021
2   -0.250108
3   -0.245961
4   -0.260518
5   -0.412351
6   0.109812
7   -0.063365
8   0.50018
9   -0.41786
10   -0.562694
11   0.146992
12   0.144324
13   0.144529
14   0.134567
15   0.134839
16   0.133688
17   0.133385
18   0.146023
19   0.147441
20   0.183982
21   0.183377
22   0.412738

>  <lowdin_charges>
22
1   -0.444248
2   -0.269603
3   -0.27344
4   -0.26711
5   -0.259153
6   -0.007873
7   -0.138359
8   0.209644
9   -0.215804
10   -0.348838
11   0.153503
12   0.147175
13   0.1476
14   0.140203
15   0.140109
16   0.140105
17   0.139641
18   0.147136
19   0.147535
20   0.174379
21   0.174179
22   0.363219

$$$$

