PCCDB-ID:  11363
public computational chemistry database (PCCDB) project, http://pccdb.org

 19 19  0  0  0  0  0  0  0  0999 V2000
    1.0231    0.5634    2.1004 C   0  0  0  0  0  0  0  0  0  0  0  0
    7.6182    0.7148    1.0022 C   0  0  0  0  0  0  0  0  0  0  0  0
    6.8978    0.7192   -0.1969 C   0  0  0  0  0  0  0  0  0  0  0  0
    6.9468    0.5938    2.2198 C   0  0  0  0  0  0  0  0  0  0  0  0
    5.5133    0.6032   -0.1731 C   0  0  0  0  0  0  0  0  0  0  0  0
    5.5579    0.4736    2.2504 C   0  0  0  0  0  0  0  0  0  0  0  0
    2.4727    0.1610    2.2441 C   0  0  0  0  0  0  0  0  0  0  0  0
    4.8264    0.4754    1.0490 C   0  0  0  0  0  0  0  0  0  0  0  0
    3.3422    0.3838    0.9773 C   0  0  0  0  0  0  0  0  0  0  0  0
    2.9209   -0.3550    3.2503 O   0  0  0  0  0  0  0  0  0  0  0  0
    2.7382    0.4623   -0.0852 O   0  0  0  0  0  0  0  0  0  0  0  0
    0.9450    1.6252    1.8384 H   0  0  0  0  0  0  0  0  0  0  0  0
    0.4991    0.3664    3.0372 H   0  0  0  0  0  0  0  0  0  0  0  0
    0.5599    0.0089    1.2781 H   0  0  0  0  0  0  0  0  0  0  0  0
    8.7011    0.8070    0.9858 H   0  0  0  0  0  0  0  0  0  0  0  0
    7.4182    0.8144   -1.1459 H   0  0  0  0  0  0  0  0  0  0  0  0
    7.5058    0.5895    3.1513 H   0  0  0  0  0  0  0  0  0  0  0  0
    4.9350    0.6090   -1.0910 H   0  0  0  0  0  0  0  0  0  0  0  0
    5.0434    0.3645    3.1957 H   0  0  0  0  0  0  0  0  0  0  0  0
  1  7  1  0  0  0  0
  1 13  1  0  0  0  0
  2  4  2  0  0  0  0
  3  5  2  0  0  0  0
  3  2  1  0  0  0  0
  4  6  1  0  0  0  0
  4 17  1  0  0  0  0
  5  8  1  0  0  0  0
  6 19  1  0  0  0  0
  7 10  2  0  0  0  0
  8  6  2  0  0  0  0
  9  8  1  0  0  0  0
  9  7  1  0  0  0  0
 11  9  2  0  0  0  0
 12  1  1  0  0  0  0
 14  1  1  0  0  0  0
 15  2  1  0  0  0  0
 16  3  1  0  0  0  0
 18  5  1  0  0  0  0
M  END
>  <HBA>
2

>  <HBD>
0

>  <TPSA>
34.14

>  <cid>
11363

>  <dipole>
1.63

>  <excitation_energy_1>
2.604

>  <excitation_energy_2>
3.867

>  <excitation_energy_3>
4.199

>  <excitation_energy_4>
4.295

>  <homo_energy>
-6.536

>  <homo_lumo_gap>
4.068

>  <logP>
1.458

>  <lumo_energy>
-2.468

>  <melting_point>
58.94

>  <molecular_refractivity>
41.64

>  <oscillator_strength_1>
0.0002

>  <oscillator_strength_2>
0.0092

>  <oscillator_strength_3>
0.1382

>  <oscillator_strength_4>
0.0448

>  <open_babel_can_smiles>
O=C(c1ccccc1)C(=O)C

>  <mulliken_charges>
19
1   -0.52155
2   -0.113912
3   -0.134586
4   -0.138904
5   -0.149613
6   -0.166865
7   0.388977
8   0.063493
9   0.332329
10   -0.4207
11   -0.454726
12   0.178682
13   0.17584
14   0.198179
15   0.1407
16   0.140317
17   0.140688
18   0.164559
19   0.177092

>  <lowdin_charges>
19
1   -0.467753
2   -0.129282
3   -0.156568
4   -0.158408
5   -0.125687
6   -0.137348
7   0.146552
8   -0.048969
9   0.129723
10   -0.209328
11   -0.226133
12   0.176411
13   0.171875
14   0.189316
15   0.160714
16   0.16288
17   0.163229
18   0.176856
19   0.181921

$$$$

