PCCDB-ID:  16173
public computational chemistry database (PCCDB) project, http://pccdb.org

 23 25  0  0  0  0  0  0  0  0999 V2000
    2.9088   -1.5097    0.0001 C   0  0  0  0  0  0  0  0  0  0  0  0
    3.5577   -0.2673   -0.0005 C   0  0  0  0  0  0  0  0  0  0  0  0
   -2.9087   -1.5142   -0.0001 C   0  0  0  0  0  0  0  0  0  0  0  0
   -3.5450   -0.2664    0.0000 C   0  0  0  0  0  0  0  0  0  0  0  0
    1.5217   -1.5856   -0.0004 C   0  0  0  0  0  0  0  0  0  0  0  0
   -1.5220   -1.5867   -0.0006 C   0  0  0  0  0  0  0  0  0  0  0  0
    2.8025    0.8964   -0.0003 C   0  0  0  0  0  0  0  0  0  0  0  0
   -2.7890    0.8993   -0.0001 C   0  0  0  0  0  0  0  0  0  0  0  0
    0.7367   -0.4180   -0.0006 C   0  0  0  0  0  0  0  0  0  0  0  0
   -0.7278   -0.4242   -0.0007 C   0  0  0  0  0  0  0  0  0  0  0  0
    1.4014    0.8280   -0.0002 C   0  0  0  0  0  0  0  0  0  0  0  0
   -1.3956    0.8125   -0.0002 C   0  0  0  0  0  0  0  0  0  0  0  0
    0.6529    2.1000   -0.0000 C   0  0  0  0  0  0  0  0  0  0  0  0
    1.1475    3.2030    0.0001 O   0  0  0  0  0  0  0  0  0  0  0  0
   -0.7236    2.0106    0.0000 O   0  0  0  0  0  0  0  0  0  0  0  0
    3.4933   -2.4258    0.0020 H   0  0  0  0  0  0  0  0  0  0  0  0
    4.6424   -0.2163   -0.0021 H   0  0  0  0  0  0  0  0  0  0  0  0
   -3.4969   -2.4269    0.0001 H   0  0  0  0  0  0  0  0  0  0  0  0
   -4.6294   -0.2050    0.0005 H   0  0  0  0  0  0  0  0  0  0  0  0
    1.0465   -2.5607   -0.0010 H   0  0  0  0  0  0  0  0  0  0  0  0
   -1.0441   -2.5609   -0.0009 H   0  0  0  0  0  0  0  0  0  0  0  0
    3.2675    1.8764    0.0004 H   0  0  0  0  0  0  0  0  0  0  0  0
   -3.2481    1.8824   -0.0003 H   0  0  0  0  0  0  0  0  0  0  0  0
  1 16  1  0  0  0  0
  2  7  1  0  0  0  0
  2  1  2  0  0  0  0
  3  4  2  0  0  0  0
  3 18  1  0  0  0  0
  4 19  1  0  0  0  0
  5  1  1  0  0  0  0
  6  3  1  0  0  0  0
  7 11  2  0  0  0  0
  7 22  1  0  0  0  0
  8  4  1  0  0  0  0
  9  5  2  0  0  0  0
  9 11  1  0  0  0  0
 10  9  1  0  0  0  0
 10  6  2  0  0  0  0
 10 12  1  0  0  0  0
 11 13  1  0  0  0  0
 12  8  2  0  0  0  0
 12 15  1  0  0  0  0
 13 15  1  0  0  0  0
 13 14  2  0  0  0  0
 17  2  1  0  0  0  0
 20  5  1  0  0  0  0
 21  6  1  0  0  0  0
 23  8  1  0  0  0  0
M  END
>  <HBA>
2

>  <HBD>
0

>  <TPSA>
30.21

>  <cid>
16173

>  <dipole>
4.47

>  <excitation_energy_1>
4.141

>  <excitation_energy_2>
4.387

>  <excitation_energy_3>
4.555

>  <excitation_energy_4>
4.722

>  <homo_energy>
-6.297

>  <homo_lumo_gap>
4.721

>  <logP>
2.946

>  <lumo_energy>
-1.576

>  <melting_point>
127.66

>  <molecular_refractivity>
59.99

>  <oscillator_strength_1>
0.1635

>  <oscillator_strength_2>
0.0882

>  <oscillator_strength_3>
0.0321

>  <oscillator_strength_4>
0.0001

>  <open_babel_can_smiles>
O=c1oc2ccccc2c2c1cccc2

>  <mulliken_charges>
23
1   -0.124123
2   -0.129856
3   -0.133983
4   -0.130215
5   -0.18904
6   -0.195991
7   -0.17285
8   -0.173776
9   0.121014
10   0.079315
11   -0.012126
12   0.294076
13   0.57278
14   -0.460446
15   -0.519816
16   0.142414
17   0.143324
18   0.136805
19   0.141468
20   0.14145
21   0.140131
22   0.173053
23   0.156393

>  <lowdin_charges>
23
1   -0.133838
2   -0.151709
3   -0.164249
4   -0.138544
5   -0.159806
6   -0.148482
7   -0.121332
8   -0.169903
9   0.014646
10   -0.036157
11   -0.057374
12   0.104363
13   0.201374
14   -0.241509
15   -0.131696
16   0.164642
17   0.163188
18   0.162826
19   0.162764
20   0.162256
21   0.161448
22   0.181768
23   0.175325

$$$$

