PCCDB-ID:  31286
public computational chemistry database (PCCDB) project, http://pccdb.org

 24 23  0  0  0  0  0  0  0  0999 V2000
    1.5837   -0.2886    1.2390 C   0  0  0  0  0  0  0  0  0  0  0  0
    3.0176   -0.4896    0.7384 C   0  0  0  0  0  0  0  0  0  0  0  0
    3.1188   -0.5771   -0.7901 C   0  0  0  0  0  0  0  0  0  0  0  0
    4.5574   -0.7770   -1.2879 C   0  0  0  0  0  0  0  0  0  0  0  0
    4.6989   -0.9481   -2.8094 C   0  0  0  0  0  0  0  0  0  0  0  0
    4.3404    0.3038   -3.6212 C   0  0  0  0  0  0  0  0  0  0  0  0
    4.5718    0.0904   -5.1322 C   0  0  0  0  0  0  0  0  0  0  0  0
    4.2419    1.2751   -5.9304 C   0  0  0  0  0  0  0  0  0  0  0  0
    3.9771    2.2232   -6.5458 N   0  0  0  0  0  0  0  0  0  0  0  0
    1.5473   -0.2274    2.3325 H   0  0  0  0  0  0  0  0  0  0  0  0
    0.9357   -1.1181    0.9301 H   0  0  0  0  0  0  0  0  0  0  0  0
    1.1498    0.6362    0.8393 H   0  0  0  0  0  0  0  0  0  0  0  0
    3.4362   -1.4042    1.1820 H   0  0  0  0  0  0  0  0  0  0  0  0
    3.6489    0.3369    1.0948 H   0  0  0  0  0  0  0  0  0  0  0  0
    2.6910    0.3367   -1.2257 H   0  0  0  0  0  0  0  0  0  0  0  0
    2.4924   -1.4082   -1.1485 H   0  0  0  0  0  0  0  0  0  0  0  0
    4.9787   -1.6667   -0.7994 H   0  0  0  0  0  0  0  0  0  0  0  0
    5.1783    0.0697   -0.9597 H   0  0  0  0  0  0  0  0  0  0  0  0
    4.0718   -1.7891   -3.1407 H   0  0  0  0  0  0  0  0  0  0  0  0
    5.7358   -1.2325   -3.0384 H   0  0  0  0  0  0  0  0  0  0  0  0
    4.9459    1.1542   -3.2830 H   0  0  0  0  0  0  0  0  0  0  0  0
    3.2928    0.5817   -3.4609 H   0  0  0  0  0  0  0  0  0  0  0  0
    3.9655   -0.7502   -5.4937 H   0  0  0  0  0  0  0  0  0  0  0  0
    5.6199   -0.1737   -5.3228 H   0  0  0  0  0  0  0  0  0  0  0  0
  1 10  1  0  0  0  0
  2 14  1  0  0  0  0
  2 13  1  0  0  0  0
  2  1  1  0  0  0  0
  3  2  1  0  0  0  0
  4 18  1  0  0  0  0
  4 17  1  0  0  0  0
  4  3  1  0  0  0  0
  5  4  1  0  0  0  0
  6 22  1  0  0  0  0
  6 21  1  0  0  0  0
  6  5  1  0  0  0  0
  7  6  1  0  0  0  0
  8  7  1  0  0  0  0
  9  8  3  0  0  0  0
 11  1  1  0  0  0  0
 12  1  1  0  0  0  0
 15  3  1  0  0  0  0
 16  3  1  0  0  0  0
 19  5  1  0  0  0  0
 20  5  1  0  0  0  0
 23  7  1  0  0  0  0
 24  7  1  0  0  0  0
M  END
>  <HBA>
1

>  <HBD>
0

>  <TPSA>
23.79

>  <cid>
31286

>  <dipole>
4.22

>  <excitation_energy_1>
7.594

>  <excitation_energy_2>
7.765

>  <excitation_energy_3>
7.882

>  <excitation_energy_4>
8.0

>  <homo_energy>
-8.52

>  <homo_lumo_gap>
9.521

>  <logP>
2.87

>  <lumo_energy>
1.001

>  <melting_point>
6.01

>  <molecular_refractivity>
40.32

>  <oscillator_strength_1>
0.0001

>  <oscillator_strength_2>
0.0184

>  <oscillator_strength_3>
0.0002

>  <oscillator_strength_4>
0.025

>  <open_babel_can_smiles>
CCCCCCCC#N

>  <mulliken_charges>
24
1   -0.442587
2   -0.247874
3   -0.250729
4   -0.25741
5   -0.258606
6   -0.264099
7   -0.340615
8   0.347707
9   -0.474837
10   0.14421
11   0.142206
12   0.143388
13   0.131526
14   0.13269
15   0.134112
16   0.127833
17   0.133865
18   0.132351
19   0.133534
20   0.133433
21   0.156359
22   0.162542
23   0.190718
24   0.190285

>  <lowdin_charges>
24
1   -0.443509
2   -0.272931
3   -0.279116
4   -0.275777
5   -0.275963
6   -0.266755
7   -0.274389
8   -0.016922
9   -0.131735
10   0.148696
11   0.14752
12   0.147569
13   0.139674
14   0.14092
15   0.140025
16   0.13867
17   0.144746
18   0.141275
19   0.141552
20   0.142055
21   0.153851
22   0.153599
23   0.179687
24   0.177257

$$$$

