PCCDB-ID:  15164
public computational chemistry database (PCCDB) project, http://pccdb.org

 34 34  0  0  0  0  0  0  0  0999 V2000
   -0.9826    2.1202    0.1713 C   0  0  0  0  0  0  0  0  0  0  0  0
    0.2164    2.0077   -0.4094 C   0  0  0  0  0  0  0  0  0  0  0  0
   -2.2723    1.7263   -0.5000 C   0  0  0  0  0  0  0  0  0  0  0  0
    1.5445    2.0443    0.2985 C   0  0  0  0  0  0  0  0  0  0  0  0
   -2.9912    0.5530    0.2247 C   0  0  0  0  0  0  0  0  0  0  0  0
    2.0010    0.6044    0.6518 C   0  0  0  0  0  0  0  0  0  0  0  0
   -2.0797   -0.5717    0.7541 C   0  0  0  0  0  0  0  0  0  0  0  0
    2.3029   -0.2972   -0.5627 C   0  0  0  0  0  0  0  0  0  0  0  0
   -1.1585   -1.2471   -0.2717 C   0  0  0  0  0  0  0  0  0  0  0  0
    2.3406   -1.8119   -0.2442 C   0  0  0  0  0  0  0  0  0  0  0  0
   -0.1908   -2.2627    0.3714 C   0  0  0  0  0  0  0  0  0  0  0  0
    1.0454   -2.6217   -0.4881 C   0  0  0  0  0  0  0  0  0  0  0  0
   -1.0414    2.4044    1.2250 H   0  0  0  0  0  0  0  0  0  0  0  0
    0.2439    1.7231   -1.4625 H   0  0  0  0  0  0  0  0  0  0  0  0
   -2.0537    1.4425   -1.5370 H   0  0  0  0  0  0  0  0  0  0  0  0
   -2.9724    2.5729   -0.5506 H   0  0  0  0  0  0  0  0  0  0  0  0
    1.4638    2.6256    1.2261 H   0  0  0  0  0  0  0  0  0  0  0  0
    2.3090    2.5331   -0.3219 H   0  0  0  0  0  0  0  0  0  0  0  0
   -3.7460    0.1384   -0.4578 H   0  0  0  0  0  0  0  0  0  0  0  0
   -3.5488    0.9568    1.0810 H   0  0  0  0  0  0  0  0  0  0  0  0
    1.2141    0.1507    1.2658 H   0  0  0  0  0  0  0  0  0  0  0  0
    2.8972    0.6519    1.2865 H   0  0  0  0  0  0  0  0  0  0  0  0
   -2.7104   -1.3327    1.2361 H   0  0  0  0  0  0  0  0  0  0  0  0
   -1.4503   -0.1576    1.5537 H   0  0  0  0  0  0  0  0  0  0  0  0
    3.2712    0.0092   -0.9813 H   0  0  0  0  0  0  0  0  0  0  0  0
    1.5713   -0.1225   -1.3604 H   0  0  0  0  0  0  0  0  0  0  0  0
   -0.5819   -0.4781   -0.7917 H   0  0  0  0  0  0  0  0  0  0  0  0
   -1.7570   -1.7531   -1.0436 H   0  0  0  0  0  0  0  0  0  0  0  0
    2.6586   -1.9546    0.7993 H   0  0  0  0  0  0  0  0  0  0  0  0
    3.1237   -2.2787   -0.8565 H   0  0  0  0  0  0  0  0  0  0  0  0
   -0.7501   -3.1798    0.6012 H   0  0  0  0  0  0  0  0  0  0  0  0
    0.1486   -1.8786    1.3438 H   0  0  0  0  0  0  0  0  0  0  0  0
    1.2983   -3.6765   -0.3161 H   0  0  0  0  0  0  0  0  0  0  0  0
    0.7771   -2.5528   -1.5529 H   0  0  0  0  0  0  0  0  0  0  0  0
  1 13  1  0  0  0  0
  2  1  2  0  0  0  0
  2  4  1  0  0  0  0
  3  1  1  0  0  0  0
  3  5  1  0  0  0  0
  4  6  1  0  0  0  0
  4 17  1  0  0  0  0
  5  7  1  0  0  0  0
  5 20  1  0  0  0  0
  6 21  1  0  0  0  0
  6 22  1  0  0  0  0
  7 23  1  0  0  0  0
  7 24  1  0  0  0  0
  8 10  1  0  0  0  0
  8  6  1  0  0  0  0
  9 11  1  0  0  0  0
  9  7  1  0  0  0  0
 10 29  1  0  0  0  0
 11 31  1  0  0  0  0
 11 32  1  0  0  0  0
 12 33  1  0  0  0  0
 12 10  1  0  0  0  0
 12 11  1  0  0  0  0
 14  2  1  0  0  0  0
 15  3  1  0  0  0  0
 16  3  1  0  0  0  0
 18  4  1  0  0  0  0
 19  5  1  0  0  0  0
 25  8  1  0  0  0  0
 26  8  1  0  0  0  0
 27  9  1  0  0  0  0
 28  9  1  0  0  0  0
 30 10  1  0  0  0  0
 34 12  1  0  0  0  0
M  END
>  <HBA>
0

>  <HBD>
0

>  <TPSA>
0.0

>  <cid>
15164

>  <dipole>
0.18

>  <excitation_energy_1>
5.994

>  <excitation_energy_2>
6.046

>  <excitation_energy_3>
6.128

>  <excitation_energy_4>
6.388

>  <homo_energy>
-6.332

>  <homo_lumo_gap>
6.985

>  <logP>
4.457

>  <lumo_energy>
0.653

>  <melting_point>
1.82

>  <molecular_refractivity>
57.21

>  <oscillator_strength_1>
0.0036

>  <oscillator_strength_2>
0.02

>  <oscillator_strength_3>
0.125

>  <oscillator_strength_4>
0.0014

>  <open_babel_can_smiles>
C1CCCCC/C=C/CCCC1

>  <mulliken_charges>
34
1   -0.082285
2   -0.105432
3   -0.305052
4   -0.305293
5   -0.264069
6   -0.260084
7   -0.254976
8   -0.255669
9   -0.260249
10   -0.262533
11   -0.256088
12   -0.262819
13   0.114202
14   0.119141
15   0.136875
16   0.137605
17   0.136194
18   0.132688
19   0.131128
20   0.12968
21   0.145572
22   0.129183
23   0.125547
24   0.131175
25   0.128422
26   0.135091
27   0.147266
28   0.12371
29   0.129497
30   0.127778
31   0.128011
32   0.129848
33   0.127183
34   0.128752

>  <lowdin_charges>
34
1   -0.164935
2   -0.169796
3   -0.275234
4   -0.27644
5   -0.278254
6   -0.276543
7   -0.280282
8   -0.284196
9   -0.287487
10   -0.27657
11   -0.279731
12   -0.274309
13   0.142283
14   0.142716
15   0.14317
16   0.148402
17   0.148014
18   0.145006
19   0.142884
20   0.142158
21   0.144817
22   0.140215
23   0.141221
24   0.140033
25   0.140218
26   0.141147
27   0.148558
28   0.137483
29   0.137221
30   0.143402
31   0.14039
32   0.137401
33   0.140457
34   0.136582

$$$$

