PCCDB-ID:  23460
public computational chemistry database (PCCDB) project, http://pccdb.org

 22 21  0  0  0  0  0  0  0  0999 V2000
    0.9638    2.1853    0.5047 C   0  0  0  0  0  0  0  0  0  0  0  0
   -2.5104    0.1401    1.0687 C   0  0  0  0  0  0  0  0  0  0  0  0
    0.3939    1.3760   -0.6755 C   0  0  0  0  0  0  0  0  0  0  0  0
   -1.8016    0.0658   -0.2861 C   0  0  0  0  0  0  0  0  0  0  0  0
    3.3749    1.6152    0.6960 C   0  0  0  0  0  0  0  0  0  0  0  0
   -1.5987    0.2780    3.3579 C   0  0  0  0  0  0  0  0  0  0  0  0
    2.4015    2.2674    0.4038 N   0  0  0  0  0  0  0  0  0  0  0  0
   -1.5457    0.2434    2.1480 N   0  0  0  0  0  0  0  0  0  0  0  0
   -1.0626    1.2741   -0.6436 N   0  0  0  0  0  0  0  0  0  0  0  0
   -1.7870    2.3288   -1.1466 N   0  0  0  0  0  0  0  0  0  0  0  0
    4.4054    1.0875    0.9245 O   0  0  0  0  0  0  0  0  0  0  0  0
   -1.5055    0.3177    4.5311 O   0  0  0  0  0  0  0  0  0  0  0  0
   -3.0140    2.1976   -1.1808 O   0  0  0  0  0  0  0  0  0  0  0  0
   -1.1561    3.3208   -1.5141 O   0  0  0  0  0  0  0  0  0  0  0  0
    0.6594    1.7271    1.4513 H   0  0  0  0  0  0  0  0  0  0  0  0
    0.5602    3.1991    0.4651 H   0  0  0  0  0  0  0  0  0  0  0  0
   -3.1140   -0.7685    1.1876 H   0  0  0  0  0  0  0  0  0  0  0  0
   -3.1860    1.0005    1.0756 H   0  0  0  0  0  0  0  0  0  0  0  0
    0.7822    0.3546   -0.6455 H   0  0  0  0  0  0  0  0  0  0  0  0
    0.7014    1.8363   -1.6171 H   0  0  0  0  0  0  0  0  0  0  0  0
   -2.5464   -0.1359   -1.0604 H   0  0  0  0  0  0  0  0  0  0  0  0
   -1.0763   -0.7512   -0.2778 H   0  0  0  0  0  0  0  0  0  0  0  0
  1 15  1  0  0  0  0
  2 18  1  0  0  0  0
  2 17  1  0  0  0  0
  2  8  1  0  0  0  0
  3 19  1  0  0  0  0
  3  9  1  0  0  0  0
  3  1  1  0  0  0  0
  4 22  1  0  0  0  0
  4  2  1  0  0  0  0
  5 11  2  0  0  0  0
  6 12  2  0  0  0  0
  7  1  1  0  0  0  0
  7  5  2  0  0  0  0
  8  6  2  0  0  0  0
  9  4  1  0  0  0  0
 10  9  1  0  0  0  0
 13 10  2  0  0  0  0
 14 10  2  0  0  0  0
 16  1  1  0  0  0  0
 20  3  1  0  0  0  0
 21  4  1  0  0  0  0
M  END
>  <HBA>
5

>  <HBD>
0

>  <TPSA>
107.92

>  <cid>
23460

>  <dipole>
3.97

>  <excitation_energy_1>
4.616

>  <excitation_energy_2>
5.273

>  <excitation_energy_3>
5.496

>  <excitation_energy_4>
5.703

>  <homo_energy>
-7.557

>  <homo_lumo_gap>
5.997

>  <logP>
-0.325

>  <lumo_energy>
-1.559

>  <melting_point>
108.38

>  <molecular_refractivity>
46.47

>  <oscillator_strength_1>
0.0

>  <oscillator_strength_2>
0.0986

>  <oscillator_strength_3>
0.0008

>  <oscillator_strength_4>
0.0159

>  <open_babel_can_smiles>
O=C=NCCN(N(=O)=O)CCN=C=O

>  <mulliken_charges>
22
1   -0.153377
2   -0.139711
3   -0.139978
4   -0.150085
5   0.609784
6   0.625089
7   -0.423345
8   -0.447585
9   -0.269942
10   0.650148
11   -0.406242
12   -0.393379
13   -0.433296
14   -0.425767
15   0.183494
16   0.196893
17   0.173572
18   0.202904
19   0.166371
20   0.204412
21   0.195984
22   0.174057

>  <lowdin_charges>
22
1   -0.179241
2   -0.178197
3   -0.20145
4   -0.204168
5   0.177182
6   0.178163
7   -0.180444
8   -0.195632
9   -0.065681
10   0.335485
11   -0.156457
12   -0.138949
13   -0.279098
14   -0.271776
15   0.162678
16   0.173048
17   0.163569
18   0.174189
19   0.162163
20   0.178694
21   0.17758
22   0.168343

$$$$

