PCCDB-ID:  1112
public computational chemistry database (PCCDB) project, http://pccdb.org

 13 12  0  0  0  0  0  0  0  0999 V2000
    0.7089    0.0227    0.1003 C   0  0  0  0  0  0  0  0  0  0  0  0
    0.3943   -0.2487   -1.3823 C   0  0  0  0  0  0  0  0  0  0  0  0
    0.5750    1.4560    0.5476 C   0  0  0  0  0  0  0  0  0  0  0  0
   -1.0978   -0.2587   -1.7341 C   0  0  0  0  0  0  0  0  0  0  0  0
    0.0752    2.3507   -0.1104 O   0  0  0  0  0  0  0  0  0  0  0  0
   -1.6780   -1.2600   -2.0801 O   0  0  0  0  0  0  0  0  0  0  0  0
   -1.7359    0.9244   -1.6410 O   0  0  0  0  0  0  0  0  0  0  0  0
    1.7398   -0.2838    0.3299 H   0  0  0  0  0  0  0  0  0  0  0  0
    0.0806   -0.5910    0.7651 H   0  0  0  0  0  0  0  0  0  0  0  0
    0.7788   -1.2333   -1.6540 H   0  0  0  0  0  0  0  0  0  0  0  0
    0.9080    0.4979   -2.0013 H   0  0  0  0  0  0  0  0  0  0  0  0
    0.9790    1.6794    1.5557 H   0  0  0  0  0  0  0  0  0  0  0  0
   -1.1200    1.6128   -1.3058 H   0  0  0  0  0  0  0  0  0  0  0  0
  1  8  1  0  0  0  0
  1  3  1  0  0  0  0
  1  9  1  0  0  0  0
  2  1  1  0  0  0  0
  3 12  1  0  0  0  0
  4  7  1  0  0  0  0
  4  2  1  0  0  0  0
  5  3  2  0  0  0  0
  6  4  2  0  0  0  0
  7 13  1  0  0  0  0
 10  2  1  0  0  0  0
 11  2  1  0  0  0  0
M  END
>  <HBA>
3

>  <HBD>
1

>  <TPSA>
54.37

>  <cid>
1112

>  <dipole>
5.51

>  <excitation_energy_1>
4.41

>  <excitation_energy_2>
4.826

>  <excitation_energy_3>
5.554

>  <excitation_energy_4>
5.863

>  <homo_energy>
-7.102

>  <homo_lumo_gap>
5.41

>  <logP>
0.05

>  <lumo_energy>
-1.693

>  <melting_point>
83.65

>  <molecular_refractivity>
23.31

>  <oscillator_strength_1>
0.0004

>  <oscillator_strength_2>
0.0019

>  <oscillator_strength_3>
0.0012

>  <oscillator_strength_4>
0.0002

>  <open_babel_can_smiles>
O=CCCC(=O)O

>  <mulliken_charges>
13
1   -0.364698
2   -0.379494
3   0.264751
4   0.579469
5   -0.397881
6   -0.443983
7   -0.583076
8   0.183923
9   0.201879
10   0.185671
11   0.175329
12   0.141321
13   0.436789

>  <lowdin_charges>
13
1   -0.311425
2   -0.317435
3   0.076915
4   0.188498
5   -0.224609
6   -0.251178
7   -0.366687
8   0.176868
9   0.186481
10   0.178818
11   0.169238
12   0.137522
13   0.356994

$$$$

