PCCDB-ID:  26578
public computational chemistry database (PCCDB) project, http://pccdb.org

 25 25  0  0  0  0  0  0  0  0999 V2000
    5.8497   -3.4388    1.5792 C   0  0  0  0  0  0  0  0  0  0  0  0
    4.9689   -3.1561    0.3744 C   0  0  0  0  0  0  0  0  0  0  0  0
    9.5914    0.3451   -4.2300 C   0  0  0  0  0  0  0  0  0  0  0  0
    8.3021    0.7383   -3.8642 C   0  0  0  0  0  0  0  0  0  0  0  0
   10.0231   -0.9472   -3.9543 C   0  0  0  0  0  0  0  0  0  0  0  0
    7.4498   -0.1587   -3.2234 C   0  0  0  0  0  0  0  0  0  0  0  0
    9.1897   -1.8750   -3.3107 C   0  0  0  0  0  0  0  0  0  0  0  0
    7.9028   -1.4459   -2.9489 C   0  0  0  0  0  0  0  0  0  0  0  0
    9.7823   -3.2458   -3.0688 C   0  0  0  0  0  0  0  0  0  0  0  0
    6.3772   -2.1013   -1.2041 C   0  0  0  0  0  0  0  0  0  0  0  0
   10.9489   -3.4754   -3.2962 O   0  0  0  0  0  0  0  0  0  0  0  0
    8.9773   -4.2197   -2.6004 O   0  0  0  0  0  0  0  0  0  0  0  0
    6.3822   -1.0419   -0.6323 O   0  0  0  0  0  0  0  0  0  0  0  0
    5.7357   -3.2165   -0.8623 O   0  0  0  0  0  0  0  0  0  0  0  0
    7.0428   -2.3925   -2.3684 O   0  0  0  0  0  0  0  0  0  0  0  0
    5.2348   -3.4559    2.4860 H   0  0  0  0  0  0  0  0  0  0  0  0
    6.6093   -2.6605    1.6969 H   0  0  0  0  0  0  0  0  0  0  0  0
    6.3456   -4.4095    1.4810 H   0  0  0  0  0  0  0  0  0  0  0  0
    4.4949   -2.1742    0.4396 H   0  0  0  0  0  0  0  0  0  0  0  0
    4.2042   -3.9235    0.2395 H   0  0  0  0  0  0  0  0  0  0  0  0
   10.2551    1.0440   -4.7301 H   0  0  0  0  0  0  0  0  0  0  0  0
    7.9532    1.7445   -4.0774 H   0  0  0  0  0  0  0  0  0  0  0  0
   11.0189   -1.2805   -4.2247 H   0  0  0  0  0  0  0  0  0  0  0  0
    6.4500    0.1342   -2.9288 H   0  0  0  0  0  0  0  0  0  0  0  0
    8.0688   -3.8823   -2.4819 H   0  0  0  0  0  0  0  0  0  0  0  0
  1 17  1  0  0  0  0
  1 16  1  0  0  0  0
  2 19  1  0  0  0  0
  2  1  1  0  0  0  0
  3  5  2  0  0  0  0
  3  4  1  0  0  0  0
  4  6  2  0  0  0  0
  5  7  1  0  0  0  0
  6  8  1  0  0  0  0
  6 24  1  0  0  0  0
  7  9  1  0  0  0  0
  7  8  2  0  0  0  0
  8 15  1  0  0  0  0
  9 12  1  0  0  0  0
 10 14  1  0  0  0  0
 10 13  2  0  0  0  0
 11  9  2  0  0  0  0
 12 25  1  0  0  0  0
 14  2  1  0  0  0  0
 15 10  1  0  0  0  0
 18  1  1  0  0  0  0
 20  2  1  0  0  0  0
 21  3  1  0  0  0  0
 22  4  1  0  0  0  0
 23  5  1  0  0  0  0
M  END
>  <HBA>
5

>  <HBD>
1

>  <TPSA>
72.83

>  <cid>
26578

>  <dipole>
5.25

>  <excitation_energy_1>
4.658

>  <excitation_energy_2>
4.897

>  <excitation_energy_3>
5.455

>  <excitation_energy_4>
5.947

>  <homo_energy>
-7.192

>  <homo_lumo_gap>
5.788

>  <logP>
1.92

>  <lumo_energy>
-1.404

>  <melting_point>
122.2

>  <molecular_refractivity>
51.18

>  <oscillator_strength_1>
0.0014

>  <oscillator_strength_2>
0.0328

>  <oscillator_strength_3>
0.143

>  <oscillator_strength_4>
0.0083

>  <open_babel_can_smiles>
CCOC(=O)Oc1ccccc1C(=O)O

>  <mulliken_charges>
25
1   -0.466311
2   -0.053288
3   -0.120132
4   -0.137718
5   -0.178038
6   -0.128398
7   0.010889
8   0.295417
9   0.572897
10   0.806564
11   -0.454195
12   -0.597687
13   -0.460266
14   -0.45315
15   -0.574386
16   0.160786
17   0.180753
18   0.170785
19   0.178849
20   0.16969
21   0.145781
22   0.148398
23   0.180322
24   0.161555
25   0.440882

>  <lowdin_charges>
25
1   -0.455697
2   -0.119303
3   -0.156645
4   -0.13151
5   -0.119473
6   -0.161882
7   -0.072362
8   0.101937
9   0.191608
10   0.24328
11   -0.249223
12   -0.354933
13   -0.25517
14   -0.170886
15   -0.169278
16   0.165474
17   0.168713
18   0.163101
19   0.162566
20   0.162049
21   0.168189
22   0.166638
23   0.185528
24   0.177942
25   0.359339

$$$$

