PCCDB-ID:  59285
public computational chemistry database (PCCDB) project, http://pccdb.org

 35 37  0  0  0  0  0  0  0  0999 V2000
   -2.4049    1.4145   -0.2819 C   0  0  0  0  0  0  0  0  0  0  0  0
   -2.6444    0.1292    0.5114 C   0  0  0  0  0  0  0  0  0  0  0  0
    2.4744    0.6678    0.1206 C   0  0  0  0  0  0  0  0  0  0  0  0
    2.7388   -6.0504    0.8703 C   0  0  0  0  0  0  0  0  0  0  0  0
   -1.0727    2.0363    0.1478 C   0  0  0  0  0  0  0  0  0  0  0  0
    1.3926    1.5399    0.1174 C   0  0  0  0  0  0  0  0  0  0  0  0
   -1.5544   -0.9102    0.2133 C   0  0  0  0  0  0  0  0  0  0  0  0
    2.2770   -0.7117    0.1283 C   0  0  0  0  0  0  0  0  0  0  0  0
    3.5797   -4.8660    0.3810 C   0  0  0  0  0  0  0  0  0  0  0  0
    1.4337   -6.0594    0.0870 C   0  0  0  0  0  0  0  0  0  0  0  0
    0.0814    1.0459    0.1443 C   0  0  0  0  0  0  0  0  0  0  0  0
   -0.1438   -0.3397    0.1764 C   0  0  0  0  0  0  0  0  0  0  0  0
    0.9715   -1.2183    0.1473 C   0  0  0  0  0  0  0  0  0  0  0  0
    1.5460   -3.6862    0.2020 C   0  0  0  0  0  0  0  0  0  0  0  0
    2.8192   -3.6317    0.2284 N   0  0  0  0  0  0  0  0  0  0  0  0
    0.7016   -2.5988    0.1261 N   0  0  0  0  0  0  0  0  0  0  0  0
    0.7470   -4.8083    0.2500 O   0  0  0  0  0  0  0  0  0  0  0  0
   -3.2226    2.1282   -0.1240 H   0  0  0  0  0  0  0  0  0  0  0  0
   -2.3824    1.1860   -1.3569 H   0  0  0  0  0  0  0  0  0  0  0  0
   -3.6288   -0.2997    0.2880 H   0  0  0  0  0  0  0  0  0  0  0  0
   -2.6393    0.3669    1.5843 H   0  0  0  0  0  0  0  0  0  0  0  0
    3.4889    1.0583    0.1007 H   0  0  0  0  0  0  0  0  0  0  0  0
    2.5129   -5.9417    1.9382 H   0  0  0  0  0  0  0  0  0  0  0  0
    3.2698   -7.0004    0.7366 H   0  0  0  0  0  0  0  0  0  0  0  0
   -1.1877    2.4533    1.1604 H   0  0  0  0  0  0  0  0  0  0  0  0
   -0.8187    2.8862   -0.4980 H   0  0  0  0  0  0  0  0  0  0  0  0
    1.5552    2.6152    0.0920 H   0  0  0  0  0  0  0  0  0  0  0  0
   -1.7797   -1.3928   -0.7526 H   0  0  0  0  0  0  0  0  0  0  0  0
   -1.6184   -1.7060    0.9702 H   0  0  0  0  0  0  0  0  0  0  0  0
    3.1071   -1.4039    0.1140 H   0  0  0  0  0  0  0  0  0  0  0  0
    4.0464   -5.1138   -0.5846 H   0  0  0  0  0  0  0  0  0  0  0  0
    4.4071   -4.6726    1.0752 H   0  0  0  0  0  0  0  0  0  0  0  0
    0.7322   -6.8205    0.4381 H   0  0  0  0  0  0  0  0  0  0  0  0
    1.6195   -6.2241   -0.9836 H   0  0  0  0  0  0  0  0  0  0  0  0
   -0.2663   -2.8698    0.0509 H   0  0  0  0  0  0  0  0  0  0  0  0
  1 18  1  0  0  0  0
  1  5  1  0  0  0  0
  1  2  1  0  0  0  0
  2 21  1  0  0  0  0
  3  8  1  0  0  0  0
  4 23  1  0  0  0  0
  5 25  1  0  0  0  0
  6  3  2  0  0  0  0
  6 11  1  0  0  0  0
  7  2  1  0  0  0  0
  7 29  1  0  0  0  0
  8 13  2  0  0  0  0
  9  4  1  0  0  0  0
  9 32  1  0  0  0  0
 10 17  1  0  0  0  0
 10 33  1  0  0  0  0
 10  4  1  0  0  0  0
 11  5  1  0  0  0  0
 11 12  2  0  0  0  0
 12  7  1  0  0  0  0
 13 12  1  0  0  0  0
 14 15  2  0  0  0  0
 14 17  1  0  0  0  0
 15  9  1  0  0  0  0
 16 13  1  0  0  0  0
 16 14  1  0  0  0  0
 19  1  1  0  0  0  0
 20  2  1  0  0  0  0
 22  3  1  0  0  0  0
 24  4  1  0  0  0  0
 26  5  1  0  0  0  0
 27  6  1  0  0  0  0
 28  7  1  0  0  0  0
 30  8  1  0  0  0  0
 31  9  1  0  0  0  0
 34 10  1  0  0  0  0
 35 16  1  0  0  0  0
M  END
>  <HBA>
3

>  <HBD>
1

>  <TPSA>
33.62

>  <cid>
59285

>  <dipole>
2.68

>  <excitation_energy_1>
4.714

>  <excitation_energy_2>
4.84

>  <excitation_energy_3>
4.936

>  <excitation_energy_4>
5.172

>  <homo_energy>
-5.233

>  <homo_lumo_gap>
5.524

>  <logP>
2.262

>  <lumo_energy>
0.291

>  <melting_point>
98.3

>  <molecular_refractivity>
73.58

>  <oscillator_strength_1>
0.0186

>  <oscillator_strength_2>
0.0878

>  <oscillator_strength_3>
0.2741

>  <oscillator_strength_4>
0.0295

>  <open_babel_can_smiles>
C1COC(=NC1)Nc1cccc2c1CCCC2

>  <mulliken_charges>
35
1   -0.263917
2   -0.263138
3   -0.144238
4   -0.30957
5   -0.342748
6   -0.187422
7   -0.376052
8   -0.162823
9   -0.130953
10   -0.034782
11   0.104279
12   0.078368
13   0.294391
14   0.734288
15   -0.486086
16   -0.770551
17   -0.512705
18   0.131829
19   0.136831
20   0.132368
21   0.139222
22   0.121523
23   0.157129
24   0.142802
25   0.147923
26   0.143954
27   0.110038
28   0.147439
29   0.145114
30   0.177448
31   0.142289
32   0.149266
33   0.156482
34   0.148676
35   0.343327

>  <lowdin_charges>
35
1   -0.274928
2   -0.27128
3   -0.151288
4   -0.303738
5   -0.274815
6   -0.185349
7   -0.285236
8   -0.19638
9   -0.197213
10   -0.123529
11   -0.011243
12   -0.050688
13   0.057919
14   0.162078
15   -0.266105
16   -0.239071
17   -0.230264
18   0.145404
19   0.139896
20   0.14472
21   0.141086
22   0.153742
23   0.151576
24   0.155473
25   0.148891
26   0.152039
27   0.148076
28   0.145485
29   0.148542
30   0.185639
31   0.141505
32   0.150088
33   0.156704
34   0.140587
35   0.291674

$$$$

