PCCDB-ID:  19739
public computational chemistry database (PCCDB) project, http://pccdb.org

 36 36  0  0  0  0  0  0  0  0999 V2000
    2.1652    1.2175   -0.1767 C   0  0  0  0  0  0  0  0  0  0  0  0
    3.7274   -0.1490   -1.6793 C   0  0  0  0  0  0  0  0  0  0  0  0
    3.6417   -3.8690    3.8736 C   0  0  0  0  0  0  0  0  0  0  0  0
    2.3707   -3.1490    1.8108 C   0  0  0  0  0  0  0  0  0  0  0  0
    2.1370   -2.2622    0.7622 C   0  0  0  0  0  0  0  0  0  0  0  0
    4.3658    0.2443    4.6600 C   0  0  0  0  0  0  0  0  0  0  0  0
    4.3350    0.4706    6.1754 C   0  0  0  0  0  0  0  0  0  0  0  0
    2.6065   -0.1952   -0.6181 C   0  0  0  0  0  0  0  0  0  0  0  0
    3.4195   -2.9315    2.7078 C   0  0  0  0  0  0  0  0  0  0  0  0
    2.9224   -1.1238    0.5533 C   0  0  0  0  0  0  0  0  0  0  0  0
    4.2335   -1.7965    2.5195 C   0  0  0  0  0  0  0  0  0  0  0  0
    3.9804   -0.9079    1.4593 C   0  0  0  0  0  0  0  0  0  0  0  0
    5.3841   -1.5251    3.4487 C   0  0  0  0  0  0  0  0  0  0  0  0
    5.4626   -0.6650    4.3721 N   0  0  0  0  0  0  0  0  0  0  0  0
    5.5991    0.8925    6.6478 O   0  0  0  0  0  0  0  0  0  0  0  0
    4.8358    0.1589    1.3734 O   0  0  0  0  0  0  0  0  0  0  0  0
    6.4619   -2.3574    3.2815 O   0  0  0  0  0  0  0  0  0  0  0  0
    1.8399    1.8021   -1.0446 H   0  0  0  0  0  0  0  0  0  0  0  0
    2.9624    1.7898    0.3149 H   0  0  0  0  0  0  0  0  0  0  0  0
    1.3313    1.1604    0.5303 H   0  0  0  0  0  0  0  0  0  0  0  0
    3.4116    0.4499   -2.5412 H   0  0  0  0  0  0  0  0  0  0  0  0
    3.9683   -1.1568   -2.0328 H   0  0  0  0  0  0  0  0  0  0  0  0
    4.6605    0.2906   -1.3050 H   0  0  0  0  0  0  0  0  0  0  0  0
    3.0597   -4.7871    3.7519 H   0  0  0  0  0  0  0  0  0  0  0  0
    3.3341   -3.4007    4.8174 H   0  0  0  0  0  0  0  0  0  0  0  0
    4.6959   -4.1392    3.9885 H   0  0  0  0  0  0  0  0  0  0  0  0
    1.7286   -4.0164    1.9376 H   0  0  0  0  0  0  0  0  0  0  0  0
    1.3142   -2.4567    0.0778 H   0  0  0  0  0  0  0  0  0  0  0  0
    4.5790    1.2011    4.1651 H   0  0  0  0  0  0  0  0  0  0  0  0
    3.3873   -0.1102    4.3004 H   0  0  0  0  0  0  0  0  0  0  0  0
    4.0101   -0.4604    6.6727 H   0  0  0  0  0  0  0  0  0  0  0  0
    3.6108    1.2537    6.4278 H   0  0  0  0  0  0  0  0  0  0  0  0
    1.7362   -0.6390   -1.1176 H   0  0  0  0  0  0  0  0  0  0  0  0
    6.2345    0.3138    6.1867 H   0  0  0  0  0  0  0  0  0  0  0  0
    4.5785    0.7250    0.6333 H   0  0  0  0  0  0  0  0  0  0  0  0
    6.3216   -2.8659    2.4672 H   0  0  0  0  0  0  0  0  0  0  0  0
  1 19  1  0  0  0  0
  1 20  1  0  0  0  0
  2 23  1  0  0  0  0
  2  8  1  0  0  0  0
  3 26  1  0  0  0  0
  3 25  1  0  0  0  0
  4 27  1  0  0  0  0
  4  9  2  0  0  0  0
  5  4  1  0  0  0  0
  6  7  1  0  0  0  0
  7 32  1  0  0  0  0
  7 15  1  0  0  0  0
  7 31  1  0  0  0  0
  8  1  1  0  0  0  0
  8 10  1  0  0  0  0
  9  3  1  0  0  0  0
 10  5  2  0  0  0  0
 10 12  1  0  0  0  0
 11  9  1  0  0  0  0
 11 13  1  0  0  0  0
 12 11  2  0  0  0  0
 13 14  2  0  0  0  0
 14  6  1  0  0  0  0
 16 12  1  0  0  0  0
 17 13  1  0  0  0  0
 18  1  1  0  0  0  0
 21  2  1  0  0  0  0
 22  2  1  0  0  0  0
 24  3  1  0  0  0  0
 28  5  1  0  0  0  0
 29  6  1  0  0  0  0
 30  6  1  0  0  0  0
 33  8  1  0  0  0  0
 34 15  1  0  0  0  0
 35 16  1  0  0  0  0
 36 17  1  0  0  0  0
M  END
>  <HBA>
4

>  <HBD>
3

>  <TPSA>
69.56

>  <cid>
19739

>  <dipole>
7.18

>  <excitation_energy_1>
4.821

>  <excitation_energy_2>
5.162

>  <excitation_energy_3>
5.289

>  <excitation_energy_4>
5.404

>  <homo_energy>
-6.28

>  <homo_lumo_gap>
5.665

>  <logP>
1.937

>  <lumo_energy>
-0.615

>  <melting_point>
132.67

>  <molecular_refractivity>
66.98

>  <oscillator_strength_1>
0.0624

>  <oscillator_strength_2>
0.0032

>  <oscillator_strength_3>
0.0435

>  <oscillator_strength_4>
0.001

>  <open_babel_can_smiles>
OCC/N=C(\c1c(C)ccc(c1O)C(C)C)/O

>  <mulliken_charges>
36
1   -0.451029
2   -0.450162
3   -0.536484
4   -0.186045
5   -0.203323
6   -0.157711
7   -0.009583
8   -0.193634
9   0.143539
10   0.167205
11   -0.100036
12   0.244398
13   0.457354
14   -0.430044
15   -0.631996
16   -0.649353
17   -0.5822
18   0.154245
19   0.136846
20   0.164347
21   0.153827
22   0.161496
23   0.137006
24   0.157527
25   0.177362
26   0.169923
27   0.126239
28   0.12963
29   0.157266
30   0.122821
31   0.110183
32   0.130534
33   0.145345
34   0.405833
35   0.421865
36   0.406812

>  <lowdin_charges>
36
1   -0.449498
2   -0.447737
3   -0.44667
4   -0.187905
5   -0.151347
6   -0.219372
7   -0.136821
8   -0.127109
9   0.009174
10   -0.054661
11   -0.095174
12   0.099544
13   0.139133
14   -0.200874
15   -0.477673
16   -0.375111
17   -0.365495
18   0.156179
19   0.143379
20   0.161374
21   0.155753
22   0.158971
23   0.142881
24   0.159665
25   0.169266
26   0.164443
27   0.158543
28   0.157994
29   0.152691
30   0.133278
31   0.120038
32   0.141657
33   0.154107
34   0.344522
35   0.356542
36   0.356314

$$$$

