PCCDB-ID:  67428
public computational chemistry database (PCCDB) project, http://pccdb.org

 16 16  0  0  0  0  0  0  0  0999 V2000
    1.3044    0.1399   -0.3042 C   0  0  0  0  0  0  0  0  0  0  0  0
    4.2091   -1.0446    1.5871 C   0  0  0  0  0  0  0  0  0  0  0  0
    4.7488   -2.2527    1.8784 C   0  0  0  0  0  0  0  0  0  0  0  0
    3.0190   -1.0853    0.7739 C   0  0  0  0  0  0  0  0  0  0  0  0
    2.9941   -3.4066    0.6030 C   0  0  0  0  0  0  0  0  0  0  0  0
    2.4463   -4.4760    0.1541 N   0  0  0  0  0  0  0  0  0  0  0  0
    4.1710   -3.3968    1.4109 N   0  0  0  0  0  0  0  0  0  0  0  0
    2.4556   -2.1619    0.3182 N   0  0  0  0  0  0  0  0  0  0  0  0
    2.4950    0.1208    0.4975 O   0  0  0  0  0  0  0  0  0  0  0  0
    1.0384    1.1941   -0.3935 H   0  0  0  0  0  0  0  0  0  0  0  0
    0.5033   -0.4244    0.1800 H   0  0  0  0  0  0  0  0  0  0  0  0
    1.4943   -0.2975   -1.2879 H   0  0  0  0  0  0  0  0  0  0  0  0
    4.6278   -0.1103    1.9338 H   0  0  0  0  0  0  0  0  0  0  0  0
    5.6428   -2.3790    2.4804 H   0  0  0  0  0  0  0  0  0  0  0  0
    2.9633   -5.3074    0.4522 H   0  0  0  0  0  0  0  0  0  0  0  0
    4.5857   -4.2895    1.6401 H   0  0  0  0  0  0  0  0  0  0  0  0
  1 11  1  0  0  0  0
  1  9  1  0  0  0  0
  2  3  2  0  0  0  0
  2 13  1  0  0  0  0
  3 14  1  0  0  0  0
  4  2  1  0  0  0  0
  5  7  1  0  0  0  0
  6 15  1  0  0  0  0
  6  5  1  0  0  0  0
  7 16  1  0  0  0  0
  7  3  1  0  0  0  0
  8  5  2  0  0  0  0
  8  4  2  0  0  0  0
  9  4  1  0  0  0  0
 10  1  1  0  0  0  0
 12  1  1  0  0  0  0
M  RAD  1   6   2
M  END
>  <HBA>
4

>  <HBD>
1

>  <TPSA>
61.03

>  <cid>
67428

>  <dipole>
4.32

>  <excitation_energy_1>
4.066

>  <excitation_energy_2>
4.584

>  <excitation_energy_3>
5.026

>  <excitation_energy_4>
5.353

>  <homo_energy>
-5.63

>  <homo_lumo_gap>
4.825

>  <logP>
0.649

>  <lumo_energy>
-0.805

>  <melting_point>
89.59

>  <molecular_refractivity>
32.93

>  <oscillator_strength_1>
0.0264

>  <oscillator_strength_2>
0.003

>  <oscillator_strength_3>
0.0004

>  <oscillator_strength_4>
0.0007

>  <open_babel_can_smiles>
COC1=[N]=C(NC=C1)[NH]

>  <mulliken_charges>
16
1   -0.210787
2   -0.231963
3   0.119783
4   0.578831
5   0.60061
6   -0.622995
7   -0.629443
8   -0.53591
9   -0.486877
10   0.158988
11   0.175972
12   0.174905
13   0.153808
14   0.169303
15   0.253999
16   0.331776

>  <lowdin_charges>
16
1   -0.27448
2   -0.256166
3   -0.053552
4   0.159432
5   0.124862
6   -0.440961
7   -0.233405
8   -0.211508
9   -0.179142
10   0.155862
11   0.163838
12   0.161509
13   0.180981
14   0.172416
15   0.239601
16   0.290714

$$$$

