PCCDB-ID:  7421
public computational chemistry database (PCCDB) project, http://pccdb.org

 21 21  0  0  0  0  0  0  0  0999 V2000
    0.9344   -0.0272   -0.1340 C   0  0  0  0  0  0  0  0  0  0  0  0
    3.0706    1.2267   -0.3864 C   0  0  0  0  0  0  0  0  0  0  0  0
    5.1932   -2.3230    0.5221 C   0  0  0  0  0  0  0  0  0  0  0  0
    4.4994   -1.1411    0.2864 C   0  0  0  0  0  0  0  0  0  0  0  0
    4.5319   -3.5297    0.7495 C   0  0  0  0  0  0  0  0  0  0  0  0
    2.4154   -2.3565    0.4992 C   0  0  0  0  0  0  0  0  0  0  0  0
    3.0834   -1.1342    0.2819 C   0  0  0  0  0  0  0  0  0  0  0  0
    3.1345   -3.5281    0.7335 C   0  0  0  0  0  0  0  0  0  0  0  0
    2.3694    0.0428    0.0798 N   0  0  0  0  0  0  0  0  0  0  0  0
    2.3982   -4.6671    0.9380 O   0  0  0  0  0  0  0  0  0  0  0  0
    0.5409    0.9847   -0.2516 H   0  0  0  0  0  0  0  0  0  0  0  0
    0.4322   -0.4779    0.7300 H   0  0  0  0  0  0  0  0  0  0  0  0
    0.6603   -0.6111   -1.0279 H   0  0  0  0  0  0  0  0  0  0  0  0
    2.3588    2.0500   -0.4762 H   0  0  0  0  0  0  0  0  0  0  0  0
    3.5567    1.0819   -1.3650 H   0  0  0  0  0  0  0  0  0  0  0  0
    3.8404    1.5353    0.3306 H   0  0  0  0  0  0  0  0  0  0  0  0
    6.2802   -2.3041    0.5216 H   0  0  0  0  0  0  0  0  0  0  0  0
    5.0576   -0.2306    0.1098 H   0  0  0  0  0  0  0  0  0  0  0  0
    5.0856   -4.4488    0.9284 H   0  0  0  0  0  0  0  0  0  0  0  0
    1.3356   -2.4281    0.4902 H   0  0  0  0  0  0  0  0  0  0  0  0
    3.0092   -5.4069    1.0774 H   0  0  0  0  0  0  0  0  0  0  0  0
  1  9  1  0  0  0  0
  1 12  1  0  0  0  0
  2  9  1  0  0  0  0
  2 16  1  0  0  0  0
  3  5  2  0  0  0  0
  4  3  1  0  0  0  0
  5 19  1  0  0  0  0
  6  8  2  0  0  0  0
  7  4  2  0  0  0  0
  7  6  1  0  0  0  0
  8  5  1  0  0  0  0
  8 10  1  0  0  0  0
  9  7  1  0  0  0  0
 10 21  1  0  0  0  0
 11  1  1  0  0  0  0
 13  1  1  0  0  0  0
 14  2  1  0  0  0  0
 15  2  1  0  0  0  0
 17  3  1  0  0  0  0
 18  4  1  0  0  0  0
 20  6  1  0  0  0  0
M  END
>  <HBA>
2

>  <HBD>
1

>  <TPSA>
23.47

>  <cid>
7421

>  <dipole>
1.03

>  <excitation_energy_1>
4.55

>  <excitation_energy_2>
4.615

>  <excitation_energy_3>
4.721

>  <excitation_energy_4>
5.085

>  <homo_energy>
-4.999

>  <homo_lumo_gap>
5.508

>  <logP>
1.458

>  <lumo_energy>
0.509

>  <melting_point>
53.64

>  <molecular_refractivity>
42.67

>  <oscillator_strength_1>
0.0203

>  <oscillator_strength_2>
0.0438

>  <oscillator_strength_3>
0.0138

>  <oscillator_strength_4>
0.0106

>  <open_babel_can_smiles>
Oc1cccc(c1)N(C)C

>  <mulliken_charges>
21
1   -0.308163
2   -0.308851
3   -0.139752
4   -0.199312
5   -0.208316
6   -0.246014
7   0.369201
8   0.352014
9   -0.475416
10   -0.648842
11   0.151492
12   0.165082
13   0.150799
14   0.15198
15   0.149691
16   0.162666
17   0.122947
18   0.117301
19   0.106511
20   0.130328
21   0.404654

>  <lowdin_charges>
21
1   -0.350224
2   -0.350899
3   -0.135179
4   -0.232073
5   -0.248493
6   -0.241568
7   0.067779
8   0.111144
9   -0.119023
10   -0.385711
11   0.154836
12   0.155318
13   0.141677
14   0.156454
15   0.140115
16   0.153834
17   0.153158
18   0.157824
19   0.14934
20   0.165309
21   0.356381

$$$$

