PCCDB-ID:  31491
public computational chemistry database (PCCDB) project, http://pccdb.org

 24 25  0  0  1  0  0  0  0  0999 V2000
    1.4045    1.1245   -0.4454 C   0  0  0  0  0  0  0  0  0  0  0  0
    0.0642    1.5468   -0.3919 C   0  0  0  0  0  0  0  0  0  0  0  0
    0.7778   -1.1722    0.0776 C   0  0  0  0  0  0  0  0  0  0  0  0
   -2.7594   -0.5668    0.3259 C   0  0  0  0  0  0  0  0  0  0  0  0
    1.7681   -0.2083   -0.2183 C   0  0  0  0  0  0  0  0  0  0  0  0
   -0.8831    0.5845   -0.1045 C   0  0  0  0  0  0  0  0  0  0  0  0
   -0.5323   -0.7449    0.1226 C   0  0  0  0  0  0  0  0  0  0  0  0
    3.2303   -0.6215   -0.1737 C   0  0  1  0  0  0  0  0  0  0  0  0
    4.1283    0.1003   -1.1981 C   0  0  0  0  0  0  0  0  0  0  0  0
    5.2466    0.6507   -0.9181 N   0  0  0  0  0  0  0  0  0  0  0  0
    3.6380    0.1180   -2.4905 N   0  0  0  0  0  0  0  0  0  0  0  0
    3.7685   -0.4877    1.1428 O   0  0  0  0  0  0  0  0  0  0  0  0
   -2.2439    0.7295   -0.0053 O   0  0  0  0  0  0  0  0  0  0  0  0
   -1.6614   -1.4861    0.3740 O   0  0  0  0  0  0  0  0  0  0  0  0
    2.1726    1.8505   -0.6938 H   0  0  0  0  0  0  0  0  0  0  0  0
   -0.2161    2.5781   -0.5763 H   0  0  0  0  0  0  0  0  0  0  0  0
    1.0382   -2.2079    0.2709 H   0  0  0  0  0  0  0  0  0  0  0  0
   -3.4682   -0.8848   -0.4471 H   0  0  0  0  0  0  0  0  0  0  0  0
   -3.2455   -0.5258    1.3082 H   0  0  0  0  0  0  0  0  0  0  0  0
    3.3001   -1.6959   -0.3892 H   0  0  0  0  0  0  0  0  0  0  0  0
    5.4143    0.5411    0.0851 H   0  0  0  0  0  0  0  0  0  0  0  0
    2.9492   -0.5741   -2.7497 H   0  0  0  0  0  0  0  0  0  0  0  0
    4.3315    0.3224   -3.1990 H   0  0  0  0  0  0  0  0  0  0  0  0
    3.4629    0.3684    1.4857 H   0  0  0  0  0  0  0  0  0  0  0  0
  1  2  2  0  0  0  0
  1  5  1  0  0  0  0
  2  6  1  0  0  0  0
  3  7  1  0  0  0  0
  3 17  1  0  0  0  0
  4 14  1  0  0  0  0
  4 19  1  0  0  0  0
  5  8  1  0  0  0  0
  5  3  2  0  0  0  0
  6 13  1  0  0  0  0
  6  7  2  0  0  0  0
  7 14  1  0  0  0  0
  8 20  1  6  0  0  0
  8 12  1  0  0  0  0
  9 10  2  0  0  0  0
  9  8  1  0  0  0  0
 10 21  1  0  0  0  0
 11  9  1  0  0  0  0
 12 24  1  0  0  0  0
 13  4  1  0  0  0  0
 15  1  1  0  0  0  0
 16  2  1  0  0  0  0
 18  4  1  0  0  0  0
 22 11  1  0  0  0  0
 23 11  1  0  0  0  0
M  END
>  <HBA>
5

>  <HBD>
3

>  <TPSA>
88.56

>  <cid>
31491

>  <dipole>
3.91

>  <excitation_energy_1>
4.693

>  <excitation_energy_2>
5.136

>  <excitation_energy_3>
5.245

>  <excitation_energy_4>
5.275

>  <homo_energy>
-5.812

>  <homo_lumo_gap>
5.48

>  <logP>
1.185

>  <lumo_energy>
-0.332

>  <melting_point>
146.11

>  <molecular_refractivity>
49.74

>  <oscillator_strength_1>
0.0992

>  <oscillator_strength_2>
0.0409

>  <oscillator_strength_3>
0.0008

>  <oscillator_strength_4>
0.0028

>  <open_babel_can_smiles>
NC(=N)[C@H](c1ccc2c(c1)OCO2)O

>  <mulliken_charges>
24
1   -0.196927
2   -0.185067
3   -0.238602
4   0.193184
5   0.109496
6   0.336138
7   0.3358
8   -0.006235
9   0.420893
10   -0.643616
11   -0.731409
12   -0.610735
13   -0.529332
14   -0.532864
15   0.158799
16   0.151024
17   0.149202
18   0.163745
19   0.1628
20   0.153997
21   0.290074
22   0.32331
23   0.334586
24   0.391739

>  <lowdin_charges>
24
1   -0.169127
2   -0.180718
3   -0.183866
4   0.019114
5   -0.041494
6   0.076629
7   0.070962
8   -0.021823
9   0.062664
10   -0.434807
11   -0.482087
12   -0.444815
13   -0.204454
14   -0.204314
15   0.173754
16   0.172246
17   0.171164
18   0.152047
19   0.148779
20   0.155506
21   0.253239
22   0.279885
23   0.287294
24   0.344222

$$$$

