PCCDB-ID:  15605
public computational chemistry database (PCCDB) project, http://pccdb.org

 41 40  0  0  0  0  0  0  0  0999 V2000
    2.0313   -3.3140   -1.0710 C   0  0  0  0  0  0  0  0  0  0  0  0
    8.9919   -9.3673   -2.4332 C   0  0  0  0  0  0  0  0  0  0  0  0
    3.5091   -3.0212   -1.3493 C   0  0  0  0  0  0  0  0  0  0  0  0
    4.2558   -2.4598   -0.1317 C   0  0  0  0  0  0  0  0  0  0  0  0
    5.7364   -2.1670   -0.4111 C   0  0  0  0  0  0  0  0  0  0  0  0
    6.4943   -1.5105    0.7563 C   0  0  0  0  0  0  0  0  0  0  0  0
    6.6028   -2.3473    2.0455 C   0  0  0  0  0  0  0  0  0  0  0  0
    7.3076   -3.7085    1.9040 C   0  0  0  0  0  0  0  0  0  0  0  0
    8.7743   -3.6167    1.4567 C   0  0  0  0  0  0  0  0  0  0  0  0
    9.5331   -4.9546    1.4830 C   0  0  0  0  0  0  0  0  0  0  0  0
    9.0129   -5.9973    0.4821 C   0  0  0  0  0  0  0  0  0  0  0  0
    9.8522   -7.2709    0.5035 C   0  0  0  0  0  0  0  0  0  0  0  0
    9.6578   -8.2511   -1.6614 C   0  0  0  0  0  0  0  0  0  0  0  0
   10.4126   -7.4277   -2.1316 O   0  0  0  0  0  0  0  0  0  0  0  0
    9.2951   -8.2920   -0.3573 O   0  0  0  0  0  0  0  0  0  0  0  0
    1.5266   -3.7107   -1.9594 H   0  0  0  0  0  0  0  0  0  0  0  0
    1.4987   -2.4055   -0.7635 H   0  0  0  0  0  0  0  0  0  0  0  0
    1.9174   -4.0510   -0.2663 H   0  0  0  0  0  0  0  0  0  0  0  0
    7.9041   -9.2413   -2.4079 H   0  0  0  0  0  0  0  0  0  0  0  0
    9.2185  -10.3347   -1.9740 H   0  0  0  0  0  0  0  0  0  0  0  0
    9.3400   -9.3525   -3.4665 H   0  0  0  0  0  0  0  0  0  0  0  0
    3.5909   -2.3092   -2.1828 H   0  0  0  0  0  0  0  0  0  0  0  0
    4.0079   -3.9411   -1.6865 H   0  0  0  0  0  0  0  0  0  0  0  0
    4.1633   -3.1710    0.7013 H   0  0  0  0  0  0  0  0  0  0  0  0
    3.7600   -1.5354    0.2018 H   0  0  0  0  0  0  0  0  0  0  0  0
    5.8052   -1.5011   -1.2832 H   0  0  0  0  0  0  0  0  0  0  0  0
    6.2396   -3.0981   -0.7084 H   0  0  0  0  0  0  0  0  0  0  0  0
    6.0014   -0.5598    1.0053 H   0  0  0  0  0  0  0  0  0  0  0  0
    7.5017   -1.2405    0.4128 H   0  0  0  0  0  0  0  0  0  0  0  0
    5.5988   -2.5139    2.4577 H   0  0  0  0  0  0  0  0  0  0  0  0
    7.1385   -1.7502    2.7976 H   0  0  0  0  0  0  0  0  0  0  0  0
    6.7433   -4.3432    1.2085 H   0  0  0  0  0  0  0  0  0  0  0  0
    7.2682   -4.2212    2.8762 H   0  0  0  0  0  0  0  0  0  0  0  0
    9.2980   -2.9071    2.1133 H   0  0  0  0  0  0  0  0  0  0  0  0
    8.8337   -3.1942    0.4444 H   0  0  0  0  0  0  0  0  0  0  0  0
    9.4931   -5.3725    2.5003 H   0  0  0  0  0  0  0  0  0  0  0  0
   10.5944   -4.7606    1.2737 H   0  0  0  0  0  0  0  0  0  0  0  0
    9.0325   -5.5805   -0.5325 H   0  0  0  0  0  0  0  0  0  0  0  0
    7.9726   -6.2626    0.7061 H   0  0  0  0  0  0  0  0  0  0  0  0
    9.8560   -7.7251    1.4986 H   0  0  0  0  0  0  0  0  0  0  0  0
   10.8815   -7.0693    0.1943 H   0  0  0  0  0  0  0  0  0  0  0  0
  1 17  1  0  0  0  0
  1 18  1  0  0  0  0
  2 19  1  0  0  0  0
  2 20  1  0  0  0  0
  2 13  1  0  0  0  0
  3  1  1  0  0  0  0
  3  4  1  0  0  0  0
  4 25  1  0  0  0  0
  4 24  1  0  0  0  0
  5  4  1  0  0  0  0
  5  6  1  0  0  0  0
  6 28  1  0  0  0  0
  6  7  1  0  0  0  0
  7 30  1  0  0  0  0
  7 31  1  0  0  0  0
  8  7  1  0  0  0  0
  8 33  1  0  0  0  0
  9 10  1  0  0  0  0
  9  8  1  0  0  0  0
  9 34  1  0  0  0  0
 10 36  1  0  0  0  0
 11 12  1  0  0  0  0
 11 39  1  0  0  0  0
 11 10  1  0  0  0  0
 12 40  1  0  0  0  0
 13 15  1  0  0  0  0
 14 13  2  0  0  0  0
 15 12  1  0  0  0  0
 16  1  1  0  0  0  0
 21  2  1  0  0  0  0
 22  3  1  0  0  0  0
 23  3  1  0  0  0  0
 26  5  1  0  0  0  0
 27  5  1  0  0  0  0
 29  6  1  0  0  0  0
 32  8  1  0  0  0  0
 35  9  1  0  0  0  0
 37 10  1  0  0  0  0
 38 11  1  0  0  0  0
 41 12  1  0  0  0  0
M  END
>  <HBA>
2

>  <HBD>
0

>  <TPSA>
26.3

>  <cid>
15605

>  <dipole>
1.7

>  <excitation_energy_1>
5.811

>  <excitation_energy_2>
6.993

>  <excitation_energy_3>
7.351

>  <excitation_energy_4>
7.422

>  <homo_energy>
-7.266

>  <homo_lumo_gap>
7.714

>  <logP>
4.08

>  <lumo_energy>
0.449

>  <melting_point>
-18.77

>  <molecular_refractivity>
65.89

>  <oscillator_strength_1>
0.0011

>  <oscillator_strength_2>
0.0291

>  <oscillator_strength_3>
0.0168

>  <oscillator_strength_4>
0.0086

>  <open_babel_can_smiles>
CCCCCCCCCCCOC(=O)C

>  <mulliken_charges>
41
1   -0.441643
2   -0.522603
3   -0.246708
4   -0.247304
5   -0.25766
6   -0.26013
7   -0.260315
8   -0.260012
9   -0.256021
10   -0.266762
11   -0.280523
12   -0.043456
13   0.600043
14   -0.46998
15   -0.456496
16   0.141297
17   0.14115
18   0.140277
19   0.180845
20   0.180334
21   0.181365
22   0.130289
23   0.129304
24   0.130737
25   0.12557
26   0.127831
27   0.130918
28   0.126899
29   0.132226
30   0.132053
31   0.126678
32   0.137547
33   0.125835
34   0.129016
35   0.138225
36   0.128089
37   0.135922
38   0.158241
39   0.145688
40   0.147085
41   0.166148

>  <lowdin_charges>
41
1   -0.446355
2   -0.462221
3   -0.272486
4   -0.277998
5   -0.279304
6   -0.278478
7   -0.27943
8   -0.282135
9   -0.27673
10   -0.271878
11   -0.287646
12   -0.131317
13   0.202265
14   -0.269001
15   -0.200238
16   0.149614
17   0.146559
18   0.146146
19   0.175681
20   0.176569
21   0.173912
22   0.139131
23   0.138724
24   0.138402
25   0.137186
26   0.141493
27   0.138293
28   0.140478
29   0.140733
30   0.140705
31   0.141399
32   0.141289
33   0.139629
34   0.142806
35   0.141224
36   0.136747
37   0.142511
38   0.153582
39   0.145646
40   0.149245
41   0.155244

$$$$

