PCCDB-ID:  32040
public computational chemistry database (PCCDB) project, http://pccdb.org

 26 26  0  0  0  0  0  0  0  0999 V2000
    2.9631    2.0660   -3.3750 C   0  0  0  0  0  0  0  0  0  0  0  0
    2.9621   -0.2585   -4.4249 C   0  0  0  0  0  0  0  0  0  0  0  0
    5.1830   -0.2368   -0.3097 C   0  0  0  0  0  0  0  0  0  0  0  0
    5.1125   -0.1030    1.2103 C   0  0  0  0  0  0  0  0  0  0  0  0
    6.6289   -0.1967    3.1672 C   0  0  0  0  0  0  0  0  0  0  0  0
    7.4331    0.2776    2.0060 C   0  0  0  0  0  0  0  0  0  0  0  0
    2.8932    0.5599   -3.1428 C   0  0  0  0  0  0  0  0  0  0  0  0
    3.9224    0.2498   -0.9958 C   0  0  0  0  0  0  0  0  0  0  0  0
    6.3224   -0.6559    1.8154 N   0  0  0  0  0  0  0  0  0  0  0  0
    2.9396    0.6778   -0.4254 O   0  0  0  0  0  0  0  0  0  0  0  0
    4.0348    0.1404   -2.3375 O   0  0  0  0  0  0  0  0  0  0  0  0
    2.1207    2.3919   -3.9955 H   0  0  0  0  0  0  0  0  0  0  0  0
    3.8932    2.3345   -3.8882 H   0  0  0  0  0  0  0  0  0  0  0  0
    2.9137    2.6032   -2.4237 H   0  0  0  0  0  0  0  0  0  0  0  0
    2.1143   -0.0134   -5.0740 H   0  0  0  0  0  0  0  0  0  0  0  0
    2.9296   -1.3303   -4.2053 H   0  0  0  0  0  0  0  0  0  0  0  0
    3.8874   -0.0463   -4.9717 H   0  0  0  0  0  0  0  0  0  0  0  0
    5.3577   -1.2826   -0.5899 H   0  0  0  0  0  0  0  0  0  0  0  0
    6.0355    0.3247   -0.7131 H   0  0  0  0  0  0  0  0  0  0  0  0
    4.2525   -0.6642    1.5909 H   0  0  0  0  0  0  0  0  0  0  0  0
    4.9469    0.9545    1.4831 H   0  0  0  0  0  0  0  0  0  0  0  0
    5.9516    0.5228    3.6294 H   0  0  0  0  0  0  0  0  0  0  0  0
    7.0226   -0.9511    3.8450 H   0  0  0  0  0  0  0  0  0  0  0  0
    8.4274   -0.1217    1.8180 H   0  0  0  0  0  0  0  0  0  0  0  0
    7.2912    1.3144    1.6957 H   0  0  0  0  0  0  0  0  0  0  0  0
    1.9887    0.3175   -2.5777 H   0  0  0  0  0  0  0  0  0  0  0  0
  1  7  1  0  0  0  0
  1 14  1  0  0  0  0
  2 16  1  0  0  0  0
  2  7  1  0  0  0  0
  3  4  1  0  0  0  0
  4 21  1  0  0  0  0
  4 20  1  0  0  0  0
  4  9  1  0  0  0  0
  5 22  1  0  0  0  0
  5 23  1  0  0  0  0
  6  5  1  0  0  0  0
  7 26  1  0  0  0  0
  7 11  1  0  0  0  0
  8 10  2  0  0  0  0
  8  3  1  0  0  0  0
  9  6  1  0  0  0  0
  9  5  1  0  0  0  0
 11  8  1  0  0  0  0
 12  1  1  0  0  0  0
 13  1  1  0  0  0  0
 15  2  1  0  0  0  0
 17  2  1  0  0  0  0
 18  3  1  0  0  0  0
 19  3  1  0  0  0  0
 24  6  1  0  0  0  0
 25  6  1  0  0  0  0
M  END
>  <HBA>
3

>  <HBD>
0

>  <TPSA>
29.31

>  <cid>
32040

>  <dipole>
1.52

>  <excitation_energy_1>
5.774

>  <excitation_energy_2>
5.958

>  <excitation_energy_3>
6.101

>  <excitation_energy_4>
6.282

>  <homo_energy>
-6.346

>  <homo_lumo_gap>
6.795

>  <logP>
0.582

>  <lumo_energy>
0.449

>  <melting_point>
-4.16

>  <molecular_refractivity>
46.55

>  <oscillator_strength_1>
0.0023

>  <oscillator_strength_2>
0.0056

>  <oscillator_strength_3>
0.0126

>  <oscillator_strength_4>
0.0279

>  <open_babel_can_smiles>
CC(OC(=O)CCN1CC1)C

>  <mulliken_charges>
26
1   -0.457992
2   -0.451297
3   -0.365506
4   -0.119783
5   -0.191699
6   -0.197404
7   0.129258
8   0.630684
9   -0.35782
10   -0.486645
11   -0.475578
12   0.147876
13   0.150132
14   0.171848
15   0.148912
16   0.157726
17   0.155031
18   0.186077
19   0.171911
20   0.161529
21   0.126347
22   0.147035
23   0.157433
24   0.157077
25   0.143242
26   0.161606

>  <lowdin_charges>
26
1   -0.455087
2   -0.446681
3   -0.304709
4   -0.194118
5   -0.244005
6   -0.244626
7   0.0112
8   0.201696
9   -0.194521
10   -0.274363
11   -0.199322
12   0.157635
13   0.15349
14   0.165186
15   0.157326
16   0.157198
17   0.156115
18   0.175675
19   0.169782
20   0.156669
21   0.127583
22   0.150246
23   0.160118
24   0.157863
25   0.145033
26   0.154616

$$$$

