PCCDB-ID:  6896
public computational chemistry database (PCCDB) project, http://pccdb.org

 20 20  0  0  0  0  0  0  0  0999 V2000
    0.9277    0.0392   -0.2070 C   0  0  0  0  0  0  0  0  0  0  0  0
    5.2646   -2.5663    0.0686 C   0  0  0  0  0  0  0  0  0  0  0  0
    4.5511    1.1839    0.1727 C   0  0  0  0  0  0  0  0  0  0  0  0
    3.1630    1.1962    0.0461 C   0  0  0  0  0  0  0  0  0  0  0  0
    5.2202   -0.0389    0.1758 C   0  0  0  0  0  0  0  0  0  0  0  0
    2.4325    0.0127   -0.0850 C   0  0  0  0  0  0  0  0  0  0  0  0
    4.5308   -1.2470    0.0480 C   0  0  0  0  0  0  0  0  0  0  0  0
    3.1251   -1.2182   -0.0882 C   0  0  0  0  0  0  0  0  0  0  0  0
    2.4078   -2.4223   -0.1614 N   0  0  0  0  0  0  0  0  0  0  0  0
    0.5493    1.0638   -0.1481 H   0  0  0  0  0  0  0  0  0  0  0  0
    0.4442   -0.5417    0.5902 H   0  0  0  0  0  0  0  0  0  0  0  0
    0.5791   -0.3781   -1.1644 H   0  0  0  0  0  0  0  0  0  0  0  0
    6.3364   -2.4156    0.2278 H   0  0  0  0  0  0  0  0  0  0  0  0
    5.1545   -3.1199   -0.8767 H   0  0  0  0  0  0  0  0  0  0  0  0
    4.8970   -3.2231    0.8686 H   0  0  0  0  0  0  0  0  0  0  0  0
    5.1029    2.1139    0.2741 H   0  0  0  0  0  0  0  0  0  0  0  0
    2.6266    2.1428    0.0478 H   0  0  0  0  0  0  0  0  0  0  0  0
    6.3029   -0.0643    0.2800 H   0  0  0  0  0  0  0  0  0  0  0  0
    1.5025   -2.3498   -0.6079 H   0  0  0  0  0  0  0  0  0  0  0  0
    2.9307   -3.2054   -0.5325 H   0  0  0  0  0  0  0  0  0  0  0  0
  1 10  1  0  0  0  0
  1  6  1  0  0  0  0
  1 11  1  0  0  0  0
  2 13  1  0  0  0  0
  2 15  1  0  0  0  0
  3  5  1  0  0  0  0
  3 16  1  0  0  0  0
  4 17  1  0  0  0  0
  4  3  2  0  0  0  0
  5 18  1  0  0  0  0
  6  4  1  0  0  0  0
  7  2  1  0  0  0  0
  7  5  2  0  0  0  0
  8  6  2  0  0  0  0
  8  7  1  0  0  0  0
  9  8  1  0  0  0  0
 12  1  1  0  0  0  0
 14  2  1  0  0  0  0
 19  9  1  0  0  0  0
 20  9  1  0  0  0  0
M  END
>  <HBA>
1

>  <HBD>
1

>  <TPSA>
26.02

>  <cid>
6896

>  <dipole>
1.77

>  <excitation_energy_1>
4.605

>  <excitation_energy_2>
4.823

>  <excitation_energy_3>
5.249

>  <excitation_energy_4>
5.31

>  <homo_energy>
-5.241

>  <homo_lumo_gap>
5.709

>  <logP>
2.467

>  <lumo_energy>
0.468

>  <melting_point>
62.15

>  <molecular_refractivity>
40.78

>  <oscillator_strength_1>
0.0119

>  <oscillator_strength_2>
0.0512

>  <oscillator_strength_3>
0.0003

>  <oscillator_strength_4>
0.0034

>  <open_babel_can_smiles>
Cc1cccc(c1N)C

>  <mulliken_charges>
20
1   -0.555164
2   -0.55489
3   -0.127109
4   -0.204532
5   -0.204662
6   0.174539
7   0.174812
8   0.167408
9   -0.797268
10   0.159305
11   0.165476
12   0.146049
13   0.159108
14   0.145924
15   0.165724
16   0.116537
17   0.113488
18   0.113563
19   0.320859
20   0.320833

>  <lowdin_charges>
20
1   -0.446481
2   -0.445039
3   -0.186869
4   -0.164981
5   -0.162028
6   -0.038598
7   -0.039048
8   0.039729
9   -0.493992
10   0.159797
11   0.159543
12   0.148079
13   0.158813
14   0.148015
15   0.159551
16   0.153611
17   0.15098
18   0.148822
19   0.274364
20   0.275733

$$$$

