PCCDB-ID:  11917
public computational chemistry database (PCCDB) project, http://pccdb.org

 34 35  0  0  0  0  0  0  0  0999 V2000
   -1.5506   -2.6188    2.3748 C   0  0  0  0  0  0  0  0  0  0  0  0
    0.8996    0.6378    3.4144 C   0  0  0  0  0  0  0  0  0  0  0  0
   -1.6917   -2.9546   -2.6601 C   0  0  0  0  0  0  0  0  0  0  0  0
   -4.0089    0.8546    4.4987 C   0  0  0  0  0  0  0  0  0  0  0  0
   -0.4158   -2.5139   -2.3059 C   0  0  0  0  0  0  0  0  0  0  0  0
   -2.6874   -3.0012   -1.6849 C   0  0  0  0  0  0  0  0  0  0  0  0
   -3.7386    0.9872    3.1359 C   0  0  0  0  0  0  0  0  0  0  0  0
   -3.0204    0.3556    5.3500 C   0  0  0  0  0  0  0  0  0  0  0  0
   -0.1231   -2.1283   -0.9980 C   0  0  0  0  0  0  0  0  0  0  0  0
   -2.4115   -2.6066   -0.3765 C   0  0  0  0  0  0  0  0  0  0  0  0
   -2.4882    0.6358    2.6253 C   0  0  0  0  0  0  0  0  0  0  0  0
   -1.7773   -0.0179    4.8417 C   0  0  0  0  0  0  0  0  0  0  0  0
   -1.1271   -2.1661   -0.0165 C   0  0  0  0  0  0  0  0  0  0  0  0
   -1.4998    0.1206    3.4750 C   0  0  0  0  0  0  0  0  0  0  0  0
   -0.0419   -0.7531    1.6817 C   0  0  0  0  0  0  0  0  0  0  0  0
   -0.8912   -1.8065    1.3471 N   0  0  0  0  0  0  0  0  0  0  0  0
   -0.2023   -0.2347    2.9798 N   0  0  0  0  0  0  0  0  0  0  0  0
    0.8308   -0.3216    0.9367 O   0  0  0  0  0  0  0  0  0  0  0  0
   -1.5773   -3.6556    2.0288 H   0  0  0  0  0  0  0  0  0  0  0  0
   -2.5731   -2.2917    2.5955 H   0  0  0  0  0  0  0  0  0  0  0  0
   -0.9692   -2.5689    3.2957 H   0  0  0  0  0  0  0  0  0  0  0  0
    0.8200    0.7932    4.4921 H   0  0  0  0  0  0  0  0  0  0  0  0
    0.8731    1.6101    2.9070 H   0  0  0  0  0  0  0  0  0  0  0  0
    1.8512    0.1568    3.1856 H   0  0  0  0  0  0  0  0  0  0  0  0
   -1.9057   -3.2595   -3.6807 H   0  0  0  0  0  0  0  0  0  0  0  0
   -4.9802    1.1380    4.8942 H   0  0  0  0  0  0  0  0  0  0  0  0
    0.3732   -2.4783   -3.0528 H   0  0  0  0  0  0  0  0  0  0  0  0
   -3.6892   -3.3378   -1.9391 H   0  0  0  0  0  0  0  0  0  0  0  0
   -4.4973    1.3820    2.4654 H   0  0  0  0  0  0  0  0  0  0  0  0
   -3.2206    0.2441    6.4123 H   0  0  0  0  0  0  0  0  0  0  0  0
    0.8671   -1.7900   -0.7312 H   0  0  0  0  0  0  0  0  0  0  0  0
   -3.2041   -2.6300    0.3645 H   0  0  0  0  0  0  0  0  0  0  0  0
   -2.2752    0.7621    1.5679 H   0  0  0  0  0  0  0  0  0  0  0  0
   -1.0171   -0.4295    5.4997 H   0  0  0  0  0  0  0  0  0  0  0  0
  1 20  1  0  0  0  0
  1 21  1  0  0  0  0
  2 22  1  0  0  0  0
  3  5  2  0  0  0  0
  3  6  1  0  0  0  0
  4 26  1  0  0  0  0
  4  8  2  0  0  0  0
  5  9  1  0  0  0  0
  6 10  2  0  0  0  0
  7  4  1  0  0  0  0
  8 30  1  0  0  0  0
  9 31  1  0  0  0  0
  9 13  2  0  0  0  0
 10 13  1  0  0  0  0
 10 32  1  0  0  0  0
 11  7  2  0  0  0  0
 11 14  1  0  0  0  0
 12  8  1  0  0  0  0
 12 34  1  0  0  0  0
 13 16  1  0  0  0  0
 14 12  2  0  0  0  0
 15 17  1  0  0  0  0
 16 15  1  0  0  0  0
 16  1  1  0  0  0  0
 17  2  1  0  0  0  0
 17 14  1  0  0  0  0
 18 15  2  0  0  0  0
 19  1  1  0  0  0  0
 23  2  1  0  0  0  0
 24  2  1  0  0  0  0
 25  3  1  0  0  0  0
 27  5  1  0  0  0  0
 28  6  1  0  0  0  0
 29  7  1  0  0  0  0
 33 11  1  0  0  0  0
M  END
>  <HBA>
3

>  <HBD>
0

>  <TPSA>
23.55

>  <cid>
11917

>  <dipole>
3.35

>  <excitation_energy_1>
4.617

>  <excitation_energy_2>
4.716

>  <excitation_energy_3>
4.914

>  <excitation_energy_4>
4.951

>  <homo_energy>
-5.763

>  <homo_lumo_gap>
5.385

>  <logP>
3.379

>  <lumo_energy>
-0.378

>  <melting_point>
80.29

>  <molecular_refractivity>
74.97

>  <oscillator_strength_1>
0.1371

>  <oscillator_strength_2>
0.0034

>  <oscillator_strength_3>
0.0421

>  <oscillator_strength_4>
0.0433

>  <open_babel_can_smiles>
CN(C(=O)N(c1ccccc1)C)c1ccccc1

>  <mulliken_charges>
34
1   -0.329213
2   -0.296172
3   -0.124699
4   -0.124889
5   -0.147163
6   -0.13988
7   -0.144179
8   -0.138228
9   -0.13942
10   -0.171794
11   -0.156239
12   -0.154565
13   0.280866
14   0.257369
15   0.716835
16   -0.523064
17   -0.535593
18   -0.522126
19   0.171107
20   0.167549
21   0.179407
22   0.150618
23   0.164261
24   0.177711
25   0.125232
26   0.132803
27   0.130236
28   0.1267
29   0.137788
30   0.134779
31   0.173976
32   0.129537
33   0.154587
34   0.135863

>  <lowdin_charges>
34
1   -0.352256
2   -0.340337
3   -0.165993
4   -0.161534
5   -0.154169
6   -0.154759
7   -0.152611
8   -0.149544
9   -0.167677
10   -0.187153
11   -0.171338
12   -0.174123
13   0.053021
14   0.047592
15   0.182749
16   -0.097958
17   -0.125465
18   -0.309852
19   0.16137
20   0.150861
21   0.169203
22   0.151813
23   0.151969
24   0.168384
25   0.155298
26   0.159742
27   0.158977
28   0.15575
29   0.16291
30   0.158696
31   0.18339
32   0.160731
33   0.169009
34   0.163305

$$$$

