PCCDB-ID:  69910
public computational chemistry database (PCCDB) project, http://pccdb.org

 28 29  0  0  0  0  0  0  0  0999 V2000
    3.6491    3.7625    0.5351 C   0  0  0  0  0  0  0  0  0  0  0  0
    4.4259    2.8227   -0.1435 C   0  0  0  0  0  0  0  0  0  0  0  0
    2.4501    3.3545    1.1226 C   0  0  0  0  0  0  0  0  0  0  0  0
    4.0291    1.4892   -0.2458 C   0  0  0  0  0  0  0  0  0  0  0  0
    2.0384    2.0285    1.0286 C   0  0  0  0  0  0  0  0  0  0  0  0
    0.6996   -2.6340   -0.0701 C   0  0  0  0  0  0  0  0  0  0  0  0
    2.7735   -3.8385   -0.2621 C   0  0  0  0  0  0  0  0  0  0  0  0
    0.0007   -3.8344   -0.0275 C   0  0  0  0  0  0  0  0  0  0  0  0
    2.0873   -5.0419   -0.2111 C   0  0  0  0  0  0  0  0  0  0  0  0
    2.0989   -2.6104   -0.1773 C   0  0  0  0  0  0  0  0  0  0  0  0
    0.6845   -5.0623   -0.0885 C   0  0  0  0  0  0  0  0  0  0  0  0
    2.8217    1.0833    0.3450 C   0  0  0  0  0  0  0  0  0  0  0  0
    2.9249   -1.3647   -0.2481 C   0  0  0  0  0  0  0  0  0  0  0  0
   -0.0026   -6.2658    0.0163 N   0  0  0  0  0  0  0  0  0  0  0  0
    2.3291   -0.2359    0.2833 N   0  0  0  0  0  0  0  0  0  0  0  0
    4.0527   -1.3669   -0.7336 O   0  0  0  0  0  0  0  0  0  0  0  0
    3.9724    4.7970    0.6070 H   0  0  0  0  0  0  0  0  0  0  0  0
    5.3625    3.1255   -0.6046 H   0  0  0  0  0  0  0  0  0  0  0  0
    1.8291    4.0693    1.6561 H   0  0  0  0  0  0  0  0  0  0  0  0
    4.6362    0.7610   -0.7641 H   0  0  0  0  0  0  0  0  0  0  0  0
    1.1006    1.7191    1.4870 H   0  0  0  0  0  0  0  0  0  0  0  0
    0.1281   -1.7089   -0.0630 H   0  0  0  0  0  0  0  0  0  0  0  0
    3.8528   -3.8235   -0.3720 H   0  0  0  0  0  0  0  0  0  0  0  0
   -1.0844   -3.8276    0.0457 H   0  0  0  0  0  0  0  0  0  0  0  0
    2.6328   -5.9815   -0.2644 H   0  0  0  0  0  0  0  0  0  0  0  0
   -0.9824   -6.2395   -0.2347 H   0  0  0  0  0  0  0  0  0  0  0  0
    0.4693   -7.0770   -0.3619 H   0  0  0  0  0  0  0  0  0  0  0  0
    1.4669   -0.3872    0.7873 H   0  0  0  0  0  0  0  0  0  0  0  0
  1 17  1  0  0  0  0
  1  3  2  0  0  0  0
  2  1  1  0  0  0  0
  3 19  1  0  0  0  0
  4  2  2  0  0  0  0
  4 12  1  0  0  0  0
  5  3  1  0  0  0  0
  5 21  1  0  0  0  0
  6 22  1  0  0  0  0
  6  8  1  0  0  0  0
  7  9  2  0  0  0  0
  7 10  1  0  0  0  0
  8 24  1  0  0  0  0
  9 11  1  0  0  0  0
 10  6  2  0  0  0  0
 11  8  2  0  0  0  0
 11 14  1  0  0  0  0
 12  5  2  0  0  0  0
 13 10  1  0  0  0  0
 13 15  1  0  0  0  0
 15 12  1  0  0  0  0
 15 28  1  0  0  0  0
 16 13  2  0  0  0  0
 18  2  1  0  0  0  0
 20  4  1  0  0  0  0
 23  7  1  0  0  0  0
 25  9  1  0  0  0  0
 26 14  1  0  0  0  0
 27 14  1  0  0  0  0
M  END
>  <HBA>
3

>  <HBD>
2

>  <TPSA>
55.12

>  <cid>
69910

>  <dipole>
4.86

>  <excitation_energy_1>
4.266

>  <excitation_energy_2>
4.556

>  <excitation_energy_3>
4.598

>  <excitation_energy_4>
4.803

>  <homo_energy>
-5.625

>  <homo_lumo_gap>
4.827

>  <logP>
3.175

>  <lumo_energy>
-0.797

>  <melting_point>
150.14

>  <molecular_refractivity>
65.06

>  <oscillator_strength_1>
0.5782

>  <oscillator_strength_2>
0.0208

>  <oscillator_strength_3>
0.041

>  <oscillator_strength_4>
0.0859

>  <open_babel_can_smiles>
Nc1ccc(cc1)C(=O)Nc1ccccc1

>  <mulliken_charges>
28
1   -0.12847
2   -0.145026
3   -0.133081
4   -0.160753
5   -0.201305
6   -0.194412
7   -0.161257
8   -0.178864
9   -0.178985
10   0.058264
11   0.329937
12   0.363545
13   0.571563
14   -0.789729
15   -0.742385
16   -0.517791
17   0.124932
18   0.13117
19   0.127415
20   0.185484
21   0.116658
22   0.127399
23   0.162885
24   0.122346
25   0.125773
26   0.326107
27   0.327525
28   0.331058

>  <lowdin_charges>
28
1   -0.172267
2   -0.146686
3   -0.152517
4   -0.183238
5   -0.192055
6   -0.15231
7   -0.117435
8   -0.198121
9   -0.196881
10   -0.06972
11   0.071696
12   0.06239
13   0.165068
14   -0.475957
15   -0.238226
16   -0.3009
17   0.155258
18   0.158516
19   0.158724
20   0.189236
21   0.150245
22   0.155321
23   0.175748
24   0.153206
25   0.156816
26   0.278177
27   0.281203
28   0.28471

$$$$

