PCCDB-ID:  13225
public computational chemistry database (PCCDB) project, http://pccdb.org

 21 21  0  0  0  0  0  0  0  0999 V2000
    0.9378    0.0483    0.0396 C   0  0  0  0  0  0  0  0  0  0  0  0
    5.1777    2.5190   -0.0874 C   0  0  0  0  0  0  0  0  0  0  0  0
    5.1650   -2.3872    0.0322 C   0  0  0  0  0  0  0  0  0  0  0  0
    3.0545    1.3089   -0.0400 C   0  0  0  0  0  0  0  0  0  0  0  0
    3.0521   -1.1570    0.0531 C   0  0  0  0  0  0  0  0  0  0  0  0
    5.1931    0.0667   -0.0262 C   0  0  0  0  0  0  0  0  0  0  0  0
    2.4054    0.0754    0.0167 N   0  0  0  0  0  0  0  0  0  0  0  0
    4.4474    1.2459   -0.0327 N   0  0  0  0  0  0  0  0  0  0  0  0
    4.4440   -1.1086    0.0038 N   0  0  0  0  0  0  0  0  0  0  0  0
    2.4568    2.3691   -0.0840 O   0  0  0  0  0  0  0  0  0  0  0  0
    2.4361   -2.2058    0.1144 O   0  0  0  0  0  0  0  0  0  0  0  0
    6.4108    0.0648   -0.0452 O   0  0  0  0  0  0  0  0  0  0  0  0
    0.5921    1.0792    0.0225 H   0  0  0  0  0  0  0  0  0  0  0  0
    0.5931   -0.4583    0.9435 H   0  0  0  0  0  0  0  0  0  0  0  0
    0.5636   -0.4959   -0.8305 H   0  0  0  0  0  0  0  0  0  0  0  0
    4.6217    3.2614    0.4829 H   0  0  0  0  0  0  0  0  0  0  0  0
    5.2737    2.8619   -1.1222 H   0  0  0  0  0  0  0  0  0  0  0  0
    6.1678    2.3572    0.3336 H   0  0  0  0  0  0  0  0  0  0  0  0
    4.5865   -3.1226   -0.5250 H   0  0  0  0  0  0  0  0  0  0  0  0
    5.2880   -2.7359    1.0622 H   0  0  0  0  0  0  0  0  0  0  0  0
    6.1439   -2.2317   -0.4168 H   0  0  0  0  0  0  0  0  0  0  0  0
  1 14  1  0  0  0  0
  2  8  1  0  0  0  0
  2 18  1  0  0  0  0
  2 16  1  0  0  0  0
  3 20  1  0  0  0  0
  4  8  1  0  0  0  0
  4  7  1  0  0  0  0
  5 11  2  0  0  0  0
  6  9  1  0  0  0  0
  7  1  1  0  0  0  0
  7  5  1  0  0  0  0
  8  6  1  0  0  0  0
  9  3  1  0  0  0  0
  9  5  1  0  0  0  0
 10  4  2  0  0  0  0
 12  6  2  0  0  0  0
 13  1  1  0  0  0  0
 15  1  1  0  0  0  0
 17  2  1  0  0  0  0
 19  3  1  0  0  0  0
 21  3  1  0  0  0  0
M  END
>  <HBA>
6

>  <HBD>
0

>  <TPSA>
66.0

>  <cid>
13225

>  <dipole>
0.01

>  <excitation_energy_1>
5.765

>  <excitation_energy_2>
5.782

>  <excitation_energy_3>
6.145

>  <excitation_energy_4>
6.503

>  <homo_energy>
-7.431

>  <homo_lumo_gap>
7.192

>  <logP>
-2.217

>  <lumo_energy>
-0.239

>  <melting_point>
118.14

>  <molecular_refractivity>
43.01

>  <oscillator_strength_1>
0.0

>  <oscillator_strength_2>
0.0

>  <oscillator_strength_3>
0.0001

>  <oscillator_strength_4>
0.0151

>  <open_babel_can_smiles>
O=c1n(C)c(=O)n(c(=O)n1C)C

>  <mulliken_charges>
21
1   -0.317923
2   -0.315793
3   -0.316536
4   0.793721
5   0.798393
6   0.794447
7   -0.549229
8   -0.547342
9   -0.551106
10   -0.503653
11   -0.505193
12   -0.504204
13   0.206104
14   0.185045
15   0.183766
16   0.194923
17   0.179736
18   0.200145
19   0.194616
20   0.179867
21   0.200217

>  <lowdin_charges>
21
1   -0.343139
2   -0.344352
3   -0.344388
4   0.194886
5   0.193506
6   0.187333
7   -0.089106
8   -0.087568
9   -0.086906
10   -0.288397
11   -0.286329
12   -0.285961
13   0.185494
14   0.170894
15   0.170165
16   0.180381
17   0.164257
18   0.182198
19   0.180246
20   0.164399
21   0.182388

$$$$

