PCCDB-ID:  40415
public computational chemistry database (PCCDB) project, http://pccdb.org

 44 47  0  0  1  0  0  0  0  0999 V2000
    4.0125   -0.3890   -1.0927 C   0  0  0  0  0  0  0  0  0  0  0  0
    4.3514    1.0805   -0.7231 C   0  0  0  0  0  0  0  0  0  0  0  0
    1.4569    2.6045   -3.4755 C   0  0  0  0  0  0  0  0  0  0  0  0
    2.4796   -0.3595   -1.3554 C   0  0  0  0  0  0  0  0  0  0  0  0
    2.9781    1.8090   -0.7818 C   0  0  0  0  0  0  0  0  0  0  0  0
    2.2932    1.3711   -3.1038 C   0  0  0  0  0  0  0  0  0  0  0  0
    0.1566    3.7005   -7.5233 C   0  0  0  0  0  0  0  0  0  0  0  0
    2.5702    3.0170   -7.7337 C   0  0  0  0  0  0  0  0  0  0  0  0
    1.9830    5.3150   -6.8904 C   0  0  0  0  0  0  0  0  0  0  0  0
    1.1260    1.9883   -5.9462 C   0  0  0  0  0  0  0  0  0  0  0  0
    0.5436    4.2796   -5.1067 C   0  0  0  0  0  0  0  0  0  0  0  0
    2.9488    3.6011   -5.3136 C   0  0  0  0  0  0  0  0  0  0  0  0
    1.1477    2.5263   -7.3928 C   0  0  1  0  0  0  0  0  0  0  0  0
    0.5616    4.8244   -6.5480 C   0  0  2  0  0  0  0  0  0  0  0  0
    2.9754    4.1422   -6.7590 C   0  0  1  0  0  0  0  0  0  0  0  0
    1.5315    3.0947   -4.9388 C   0  0  1  0  0  0  0  0  0  0  0  0
    2.1165    1.0268   -1.6828 N   0  0  0  0  0  0  0  0  0  0  0  0
    4.2712   -1.0936   -0.2953 H   0  0  0  0  0  0  0  0  0  0  0  0
    4.5590   -0.7037   -1.9882 H   0  0  0  0  0  0  0  0  0  0  0  0
    5.0523    1.5116   -1.4460 H   0  0  0  0  0  0  0  0  0  0  0  0
    4.8155    1.1727    0.2643 H   0  0  0  0  0  0  0  0  0  0  0  0
    1.7420    3.4419   -2.8224 H   0  0  0  0  0  0  0  0  0  0  0  0
    0.4122    2.3734   -3.2273 H   0  0  0  0  0  0  0  0  0  0  0  0
    1.9440   -0.6438   -0.4393 H   0  0  0  0  0  0  0  0  0  0  0  0
    2.1568   -1.0415   -2.1477 H   0  0  0  0  0  0  0  0  0  0  0  0
    3.0525    2.8483   -1.1136 H   0  0  0  0  0  0  0  0  0  0  0  0
    2.5170    1.8166    0.2148 H   0  0  0  0  0  0  0  0  0  0  0  0
    3.3539    1.5257   -3.3733 H   0  0  0  0  0  0  0  0  0  0  0  0
    1.9461    0.5125   -3.6886 H   0  0  0  0  0  0  0  0  0  0  0  0
   -0.8645    3.3590   -7.3029 H   0  0  0  0  0  0  0  0  0  0  0  0
    0.1510    4.0776   -8.5555 H   0  0  0  0  0  0  0  0  0  0  0  0
    2.6054    3.3833   -8.7692 H   0  0  0  0  0  0  0  0  0  0  0  0
    3.2836    2.1836   -7.6662 H   0  0  0  0  0  0  0  0  0  0  0  0
    2.2732    6.1327   -6.2158 H   0  0  0  0  0  0  0  0  0  0  0  0
    2.0087    5.7199   -7.9118 H   0  0  0  0  0  0  0  0  0  0  0  0
    1.8106    1.1331   -5.8666 H   0  0  0  0  0  0  0  0  0  0  0  0
    0.1222    1.6132   -5.6979 H   0  0  0  0  0  0  0  0  0  0  0  0
   -0.4712    3.9486   -4.8430 H   0  0  0  0  0  0  0  0  0  0  0  0
    0.8072    5.0789   -4.3989 H   0  0  0  0  0  0  0  0  0  0  0  0
    3.2541    4.3907   -4.6111 H   0  0  0  0  0  0  0  0  0  0  0  0
    3.6818    2.7895   -5.2138 H   0  0  0  0  0  0  0  0  0  0  0  0
    0.8600    1.7217   -8.0829 H   0  0  0  0  0  0  0  0  0  0  0  0
   -0.1473    5.6592   -6.6316 H   0  0  0  0  0  0  0  0  0  0  0  0
    3.9901    4.4885   -6.9975 H   0  0  0  0  0  0  0  0  0  0  0  0
  1  2  1  0  0  0  0
  1 18  1  0  0  0  0
  2 21  1  0  0  0  0
  3 23  1  0  0  0  0
  3  6  1  0  0  0  0
  3 22  1  0  0  0  0
  4  1  1  0  0  0  0
  4 24  1  0  0  0  0
  5  2  1  0  0  0  0
  5 27  1  0  0  0  0
  6 17  1  0  0  0  0
  7 13  1  0  0  0  0
  7 30  1  0  0  0  0
  7 14  1  0  0  0  0
  8 33  1  0  0  0  0
  8 13  1  0  0  0  0
  8 15  1  0  0  0  0
  9 15  1  0  0  0  0
  9 14  1  0  0  0  0
  9 34  1  0  0  0  0
 10 36  1  0  0  0  0
 10 37  1  0  0  0  0
 10 16  1  0  0  0  0
 11 16  1  0  0  0  0
 11 38  1  0  0  0  0
 11 39  1  0  0  0  0
 12 41  1  0  0  0  0
 12 16  1  0  0  0  0
 12 40  1  0  0  0  0
 13 42  1  6  0  0  0
 13 10  1  0  0  0  0
 14 43  1  6  0  0  0
 14 11  1  0  0  0  0
 15 44  1  6  0  0  0
 15 12  1  0  0  0  0
 16  3  1  1  0  0  0
 17  4  1  0  0  0  0
 17  5  1  0  0  0  0
 19  1  1  0  0  0  0
 20  2  1  0  0  0  0
 25  4  1  0  0  0  0
 26  5  1  0  0  0  0
 28  6  1  0  0  0  0
 29  6  1  0  0  0  0
 31  7  1  0  0  0  0
 32  8  1  0  0  0  0
 35  9  1  0  0  0  0
M  END
>  <HBA>
1

>  <HBD>
0

>  <TPSA>
3.24

>  <cid>
40415

>  <dipole>
0.86

>  <excitation_energy_1>
4.97

>  <excitation_energy_2>
5.317

>  <excitation_energy_3>
5.436

>  <excitation_energy_4>
5.507

>  <homo_energy>
-5.524

>  <homo_lumo_gap>
7.385

>  <logP>
3.627

>  <lumo_energy>
1.861

>  <melting_point>
78.43

>  <molecular_refractivity>
77.12

>  <oscillator_strength_1>
0.0208

>  <oscillator_strength_2>
0.0092

>  <oscillator_strength_3>
0.0009

>  <oscillator_strength_4>
0.0007

>  <open_babel_can_smiles>
C1CCN(C1)CC[C@]12C[C@H]3C[C@@H](C2)C[C@@H](C1)C3

>  <mulliken_charges>
44
1   -0.284183
2   -0.283678
3   -0.261221
4   -0.142552
5   -0.151692
6   -0.139001
7   -0.263365
8   -0.264449
9   -0.264034
10   -0.277558
11   -0.272509
12   -0.275986
13   -0.091238
14   -0.089311
15   -0.089628
16   0.088877
17   -0.380142
18   0.136453
19   0.13864
20   0.139946
21   0.136588
22   0.124203
23   0.135533
24   0.139652
25   0.135605
26   0.139943
27   0.14079
28   0.117065
29   0.135578
30   0.124244
31   0.123361
32   0.124037
33   0.122977
34   0.123662
35   0.123434
36   0.125762
37   0.123379
38   0.123531
39   0.121825
40   0.120002
41   0.12584
42   0.113333
43   0.113318
44   0.112967

>  <lowdin_charges>
44
1   -0.304798
2   -0.303636
3   -0.278045
4   -0.210839
5   -0.209475
6   -0.204918
7   -0.27873
8   -0.280485
9   -0.280842
10   -0.28115
11   -0.278493
12   -0.283654
13   -0.131842
14   -0.132034
15   -0.130109
16   0.000319
17   -0.189753
18   0.147258
19   0.144871
20   0.145482
21   0.146752
22   0.139346
23   0.1449
24   0.140609
25   0.145585
26   0.145022
27   0.14073
28   0.118652
29   0.143911
30   0.138069
31   0.137634
32   0.138006
33   0.13872
34   0.139455
35   0.137835
36   0.139047
37   0.138449
38   0.13819
39   0.138847
40   0.138265
41   0.138681
42   0.138761
43   0.138553
44   0.136853

$$$$

