PCCDB-ID:  921
public computational chemistry database (PCCDB) project, http://pccdb.org

 20 20  0  0  1  0  0  0  0  0999 V2000
    0.9651   -0.0267   -0.1039 C   0  0  0  0  0  0  0  0  0  0  0  0
    4.5294   -1.2799   -0.3894 C   0  0  0  0  0  0  0  0  0  0  0  0
    5.2082   -0.0754    0.2704 C   0  0  0  0  0  0  0  0  0  0  0  0
    3.0579   -1.3688    0.0514 C   0  0  1  0  0  0  0  0  0  0  0  0
    3.1945    1.0555   -0.0957 C   0  0  0  0  0  0  0  0  0  0  0  0
    2.8242   -1.7956    1.4374 N   0  0  0  0  0  0  0  0  0  0  0  0
    4.4618    1.1572    0.0759 N   0  0  0  0  0  0  0  0  0  0  0  0
    2.4213   -0.0791   -0.1885 N   0  0  0  0  0  0  0  0  0  0  0  0
    2.4681    2.1972   -0.2446 O   0  0  0  0  0  0  0  0  0  0  0  0
    0.5551   -0.8898   -0.6393 H   0  0  0  0  0  0  0  0  0  0  0  0
    0.6026    0.8858   -0.5752 H   0  0  0  0  0  0  0  0  0  0  0  0
    0.6113   -0.0691    0.9330 H   0  0  0  0  0  0  0  0  0  0  0  0
    5.0423   -2.2167   -0.1397 H   0  0  0  0  0  0  0  0  0  0  0  0
    4.5662   -1.1633   -1.4801 H   0  0  0  0  0  0  0  0  0  0  0  0
    6.2194    0.0565   -0.1327 H   0  0  0  0  0  0  0  0  0  0  0  0
    5.3420   -0.2639    1.3503 H   0  0  0  0  0  0  0  0  0  0  0  0
    2.5407   -2.1045   -0.5785 H   0  0  0  0  0  0  0  0  0  0  0  0
    3.3963   -1.2411    2.0747 H   0  0  0  0  0  0  0  0  0  0  0  0
    3.1132   -2.7668    1.5500 H   0  0  0  0  0  0  0  0  0  0  0  0
    3.1360    2.9032   -0.1793 H   0  0  0  0  0  0  0  0  0  0  0  0
  1 12  1  0  0  0  0
  2 13  1  0  0  0  0
  2  4  1  0  0  0  0
  2  3  1  0  0  0  0
  3 16  1  0  0  0  0
  4 17  1  6  0  0  0
  4  6  1  0  0  0  0
  5  7  2  0  0  0  0
  6 19  1  0  0  0  0
  6 18  1  0  0  0  0
  7  3  1  0  0  0  0
  8  1  1  0  0  0  0
  8  5  1  0  0  0  0
  8  4  1  0  0  0  0
  9 20  1  0  0  0  0
  9  5  1  0  0  0  0
 10  1  1  0  0  0  0
 11  1  1  0  0  0  0
 14  2  1  0  0  0  0
 15  3  1  0  0  0  0
M  END
>  <HBA>
4

>  <HBD>
2

>  <TPSA>
58.36

>  <cid>
921

>  <dipole>
1.96

>  <excitation_energy_1>
5.126

>  <excitation_energy_2>
5.592

>  <excitation_energy_3>
5.646

>  <excitation_energy_4>
5.9

>  <homo_energy>
-5.665

>  <homo_lumo_gap>
7.336

>  <logP>
0.283

>  <lumo_energy>
1.671

>  <melting_point>
112.47

>  <molecular_refractivity>
40.86

>  <oscillator_strength_1>
0.0141

>  <oscillator_strength_2>
0.0152

>  <oscillator_strength_3>
0.0199

>  <oscillator_strength_4>
0.0088

>  <open_babel_can_smiles>
N[C@@H]1CCN=C(N1C)O

>  <mulliken_charges>
20
1   -0.297008
2   -0.296697
3   -0.142836
4   0.124552
5   0.69053
6   -0.701947
7   -0.51376
8   -0.436358
9   -0.622118
10   0.144997
11   0.184807
12   0.168096
13   0.128937
14   0.150814
15   0.144772
16   0.120979
17   0.137722
18   0.303861
19   0.296381
20   0.414273

>  <lowdin_charges>
20
1   -0.34596
2   -0.306296
3   -0.198526
4   -0.005657
5   0.152849
6   -0.556249
7   -0.310733
8   -0.121991
9   -0.377997
10   0.151363
11   0.171706
12   0.152795
13   0.146771
14   0.150921
15   0.147402
16   0.125229
17   0.145
18   0.258032
19   0.256564
20   0.364775

$$$$

