PCCDB-ID:  68258
public computational chemistry database (PCCDB) project, http://pccdb.org

 23 24  0  0  0  0  0  0  0  0999 V2000
   -2.4758    0.6724   -0.3691 C   0  0  0  0  0  0  0  0  0  0  0  0
   -2.4962   -0.6877    0.3351 C   0  0  0  0  0  0  0  0  0  0  0  0
    2.4712    0.6876    0.0063 C   0  0  0  0  0  0  0  0  0  0  0  0
   -1.2552    1.4804    0.0870 C   0  0  0  0  0  0  0  0  0  0  0  0
    1.2657    1.3794    0.0391 C   0  0  0  0  0  0  0  0  0  0  0  0
   -1.2597   -1.5145   -0.0412 C   0  0  0  0  0  0  0  0  0  0  0  0
    2.4733   -0.7072   -0.0422 C   0  0  0  0  0  0  0  0  0  0  0  0
    0.0423    0.6911    0.0307 C   0  0  0  0  0  0  0  0  0  0  0  0
    0.0278   -0.7119   -0.0121 C   0  0  0  0  0  0  0  0  0  0  0  0
    1.2591   -1.3929   -0.0556 C   0  0  0  0  0  0  0  0  0  0  0  0
    1.2011   -2.7640   -0.1148 O   0  0  0  0  0  0  0  0  0  0  0  0
   -3.3940    1.2357   -0.1626 H   0  0  0  0  0  0  0  0  0  0  0  0
   -2.4348    0.5203   -1.4571 H   0  0  0  0  0  0  0  0  0  0  0  0
   -3.4048   -1.2480    0.0832 H   0  0  0  0  0  0  0  0  0  0  0  0
   -2.5171   -0.5272    1.4226 H   0  0  0  0  0  0  0  0  0  0  0  0
    3.4141    1.2279    0.0128 H   0  0  0  0  0  0  0  0  0  0  0  0
   -1.4205    1.8203    1.1212 H   0  0  0  0  0  0  0  0  0  0  0  0
   -1.1519    2.3929   -0.5140 H   0  0  0  0  0  0  0  0  0  0  0  0
    1.2638    2.4665    0.0695 H   0  0  0  0  0  0  0  0  0  0  0  0
   -1.3924   -1.9344   -1.0500 H   0  0  0  0  0  0  0  0  0  0  0  0
   -1.1635   -2.3832    0.6204 H   0  0  0  0  0  0  0  0  0  0  0  0
    3.4110   -1.2599   -0.0744 H   0  0  0  0  0  0  0  0  0  0  0  0
    2.1063   -3.1112   -0.1303 H   0  0  0  0  0  0  0  0  0  0  0  0
  1 12  1  0  0  0  0
  1  4  1  0  0  0  0
  1  2  1  0  0  0  0
  2 15  1  0  0  0  0
  3 16  1  0  0  0  0
  3  5  2  0  0  0  0
  4 17  1  0  0  0  0
  5 19  1  0  0  0  0
  6  9  1  0  0  0  0
  6  2  1  0  0  0  0
  6 21  1  0  0  0  0
  7  3  1  0  0  0  0
  8  5  1  0  0  0  0
  8  4  1  0  0  0  0
  9  8  2  0  0  0  0
 10  7  2  0  0  0  0
 10  9  1  0  0  0  0
 11 10  1  0  0  0  0
 13  1  1  0  0  0  0
 14  2  1  0  0  0  0
 18  4  1  0  0  0  0
 20  6  1  0  0  0  0
 22  7  1  0  0  0  0
 23 11  1  0  0  0  0
M  END
>  <HBA>
1

>  <HBD>
1

>  <TPSA>
20.23

>  <cid>
68258

>  <dipole>
0.8

>  <excitation_energy_1>
4.979

>  <excitation_energy_2>
5.054

>  <excitation_energy_3>
5.579

>  <excitation_energy_4>
5.648

>  <homo_energy>
-5.723

>  <homo_lumo_gap>
5.984

>  <logP>
2.271

>  <lumo_energy>
0.261

>  <melting_point>
74.22

>  <molecular_refractivity>
45.9

>  <oscillator_strength_1>
0.0287

>  <oscillator_strength_2>
0.0007

>  <oscillator_strength_3>
0.0058

>  <oscillator_strength_4>
0.0087

>  <open_babel_can_smiles>
Oc1cccc2c1CCCC2

>  <mulliken_charges>
23
1   -0.264193
2   -0.267501
3   -0.134944
4   -0.342778
5   -0.191568
6   -0.323926
7   -0.194041
8   0.11258
9   0.072411
10   0.289493
11   -0.645994
12   0.130587
13   0.136548
14   0.131707
15   0.134526
16   0.124764
17   0.149576
18   0.14333
19   0.11436
20   0.150492
21   0.157561
22   0.110986
23   0.406024

>  <lowdin_charges>
23
1   -0.274524
2   -0.274427
3   -0.150615
4   -0.274536
5   -0.186053
6   -0.272465
7   -0.221563
8   -0.005059
9   -0.045211
10   0.098082
11   -0.384589
12   0.144314
13   0.139373
14   0.145162
15   0.138235
16   0.156371
17   0.149838
18   0.15122
19   0.15008
20   0.151336
21   0.159392
22   0.150336
23   0.355302

$$$$

