PCCDB-ID:  9000
public computational chemistry database (PCCDB) project, http://pccdb.org

  9  8  0  0  0  0  0  0  0  0999 V2000
    0.9472   -0.1609   -0.0470 C   0  0  0  0  0  0  0  0  0  0  0  0
    0.6370    0.1928   -1.3536 O   0  0  0  0  0  0  0  0  0  0  0  0
    2.9496   -0.5187    1.6619 O   0  0  0  0  0  0  0  0  0  0  0  0
    3.4129   -0.0523   -0.8689 O   0  0  0  0  0  0  0  0  0  0  0  0
    2.6714    0.4641    0.3287 S   0  0  3  0  0  0  0  0  0  0  0  0
    0.9809   -1.2499    0.1278 H   0  0  0  0  0  0  0  0  0  0  0  0
    0.2331    0.3063    0.6355 H   0  0  0  0  0  0  0  0  0  0  0  0
    1.3801   -0.1176   -1.9062 H   0  0  0  0  0  0  0  0  0  0  0  0
    2.9977   -1.4474    1.3547 H   0  0  0  0  0  0  0  0  0  0  0  0
  1  6  1  0  0  0  0
  1  5  1  0  0  0  0
  1  7  1  0  0  0  0
  2  1  1  0  0  0  0
  4  5  1  0  0  0  0
  5  3  1  0  0  0  0
  8  2  1  0  0  0  0
  9  3  1  0  0  0  0
M  RAD  1   4   2
M  END
>  <HBA>
3

>  <HBD>
2

>  <TPSA>
76.74

>  <cid>
9000

>  <dipole>
2.28

>  <excitation_energy_1>
5.062

>  <excitation_energy_2>
6.031

>  <excitation_energy_3>
6.245

>  <excitation_energy_4>
6.913

>  <homo_energy>
-6.863

>  <homo_lumo_gap>
6.514

>  <logP>
0.024

>  <lumo_energy>
-0.348

>  <melting_point>
66.03

>  <molecular_refractivity>
17.93

>  <oscillator_strength_1>
0.0174

>  <oscillator_strength_2>
0.0142

>  <oscillator_strength_3>
0.0443

>  <oscillator_strength_4>
0.006

>  <open_babel_can_smiles>
OC[S]([O])O

>  <mulliken_charges>
9
1   -0.209929
2   -0.586802
3   -0.660527
4   -0.608581
5   0.899484
6   0.149893
7   0.18905
8   0.417113
9   0.410298

>  <lowdin_charges>
9
1   -0.283607
2   -0.431896
3   -0.598682
4   -0.638812
5   0.929317
6   0.140187
7   0.175166
8   0.356873
9   0.351454

$$$$

