PCCDB-ID:  19956
public computational chemistry database (PCCDB) project, http://pccdb.org

 12 12  0  0  0  0  0  0  0  0999 V2000
   -0.6832    1.0895    0.0301 C   0  0  0  0  0  0  0  0  0  0  0  0
   -0.6717   -1.2169   -0.0396 C   0  0  0  0  0  0  0  0  0  0  0  0
    1.3352    0.1156   -0.0429 C   0  0  0  0  0  0  0  0  0  0  0  0
   -1.1503   -2.3981   -0.0643 N   0  0  0  0  0  0  0  0  0  0  0  0
   -1.3721   -0.0130    0.0123 N   0  0  0  0  0  0  0  0  0  0  0  0
    0.6824    1.2477    0.0049 N   0  0  0  0  0  0  0  0  0  0  0  0
    0.7454   -1.0906   -0.0677 N   0  0  0  0  0  0  0  0  0  0  0  0
    2.6696    0.0933   -0.0713 O   0  0  0  0  0  0  0  0  0  0  0  0
   -1.2438    2.0222    0.0704 H   0  0  0  0  0  0  0  0  0  0  0  0
   -2.1692   -2.3356   -0.0385 H   0  0  0  0  0  0  0  0  0  0  0  0
    1.2927   -1.9432   -0.1034 H   0  0  0  0  0  0  0  0  0  0  0  0
    2.9547    1.0257   -0.0460 H   0  0  0  0  0  0  0  0  0  0  0  0
  1  9  1  0  0  0  0
  2  5  2  0  0  0  0
  3  6  2  0  0  0  0
  4  2  1  0  0  0  0
  4 10  1  0  0  0  0
  5  1  2  0  0  0  0
  6  1  1  0  0  0  0
  7  3  1  0  0  0  0
  7  2  1  0  0  0  0
  8 12  1  0  0  0  0
  8  3  1  0  0  0  0
 11  7  1  0  0  0  0
M  RAD  1   4   2
M  END
>  <HBA>
4

>  <HBD>
2

>  <TPSA>
84.66

>  <cid>
19956

>  <dipole>
3.16

>  <excitation_energy_1>
4.353

>  <excitation_energy_2>
4.841

>  <excitation_energy_3>
5.288

>  <excitation_energy_4>
5.555

>  <homo_energy>
-6.414

>  <homo_lumo_gap>
5.192

>  <logP>
-0.672

>  <lumo_energy>
-1.222

>  <melting_point>
166.2

>  <molecular_refractivity>
27.06

>  <oscillator_strength_1>
0.0426

>  <oscillator_strength_2>
0.0015

>  <oscillator_strength_3>
0.0029

>  <oscillator_strength_4>
0.0005

>  <open_babel_can_smiles>
OC1=NC=[N]=C(N1)[NH]

>  <mulliken_charges>
12
1   0.17811
2   0.599182
3   0.739874
4   -0.649381
5   -0.431109
6   -0.497679
7   -0.618762
8   -0.587896
9   0.164018
10   0.302057
11   0.364535
12   0.43705

>  <lowdin_charges>
12
1   -0.00524
2   0.117451
3   0.198032
4   -0.427203
5   -0.209217
6   -0.268182
7   -0.206189
8   -0.327634
9   0.166539
10   0.266391
11   0.315635
12   0.379615

$$$$

