PCCDB-ID:  8145
public computational chemistry database (PCCDB) project, http://pccdb.org

 25 24  0  0  0  0  0  0  0  0999 V2000
    3.9827   -1.4089   -2.7071 C   0  0  0  0  0  0  0  0  0  0  0  0
    8.4589    4.5330   -1.5812 C   0  0  0  0  0  0  0  0  0  0  0  0
    6.0946    1.2140    0.3290 C   0  0  0  0  0  0  0  0  0  0  0  0
    5.0278    0.3252   -0.3330 C   0  0  0  0  0  0  0  0  0  0  0  0
    7.0346    1.9260   -0.6560 C   0  0  0  0  0  0  0  0  0  0  0  0
    5.6071   -0.9037   -1.0446 C   0  0  0  0  0  0  0  0  0  0  0  0
    8.0095    2.8695    0.0571 C   0  0  0  0  0  0  0  0  0  0  0  0
    4.6146   -1.8069   -1.5087 O   0  0  0  0  0  0  0  0  0  0  0  0
    8.9643    3.4659   -0.8061 O   0  0  0  0  0  0  0  0  0  0  0  0
    3.3753   -0.4987   -2.5875 H   0  0  0  0  0  0  0  0  0  0  0  0
    3.3228   -2.2285   -3.0049 H   0  0  0  0  0  0  0  0  0  0  0  0
    4.7147   -1.2323   -3.5123 H   0  0  0  0  0  0  0  0  0  0  0  0
    9.3076    4.9634   -2.1199 H   0  0  0  0  0  0  0  0  0  0  0  0
    8.0068    5.3148   -0.9485 H   0  0  0  0  0  0  0  0  0  0  0  0
    7.7078    4.2079   -2.3170 H   0  0  0  0  0  0  0  0  0  0  0  0
    6.6890    0.6068    1.0279 H   0  0  0  0  0  0  0  0  0  0  0  0
    5.5861    1.9692    0.9443 H   0  0  0  0  0  0  0  0  0  0  0  0
    4.4417    0.9287   -1.0393 H   0  0  0  0  0  0  0  0  0  0  0  0
    4.3259   -0.0354    0.4293 H   0  0  0  0  0  0  0  0  0  0  0  0
    6.4344    2.4884   -1.3845 H   0  0  0  0  0  0  0  0  0  0  0  0
    7.6250    1.1996   -1.2277 H   0  0  0  0  0  0  0  0  0  0  0  0
    6.2181   -1.4791   -0.3381 H   0  0  0  0  0  0  0  0  0  0  0  0
    6.2614   -0.6047   -1.8799 H   0  0  0  0  0  0  0  0  0  0  0  0
    8.5933    2.3050    0.7936 H   0  0  0  0  0  0  0  0  0  0  0  0
    7.4522    3.6491    0.6063 H   0  0  0  0  0  0  0  0  0  0  0  0
  1 10  1  0  0  0  0
  1  8  1  0  0  0  0
  2 14  1  0  0  0  0
  2  9  1  0  0  0  0
  3 17  1  0  0  0  0
  3 16  1  0  0  0  0
  4  3  1  0  0  0  0
  4 19  1  0  0  0  0
  5  7  1  0  0  0  0
  5  3  1  0  0  0  0
  6 22  1  0  0  0  0
  6  4  1  0  0  0  0
  7 25  1  0  0  0  0
  7 24  1  0  0  0  0
  8  6  1  0  0  0  0
  9  7  1  0  0  0  0
 11  1  1  0  0  0  0
 12  1  1  0  0  0  0
 13  2  1  0  0  0  0
 15  2  1  0  0  0  0
 18  4  1  0  0  0  0
 20  5  1  0  0  0  0
 21  5  1  0  0  0  0
 23  6  1  0  0  0  0
M  END
>  <HBA>
2

>  <HBD>
0

>  <TPSA>
18.46

>  <cid>
8145

>  <dipole>
1.84

>  <excitation_energy_1>
6.346

>  <excitation_energy_2>
6.423

>  <excitation_energy_3>
6.669

>  <excitation_energy_4>
6.785

>  <homo_energy>
-6.694

>  <homo_lumo_gap>
8.999

>  <logP>
1.45

>  <lumo_energy>
2.305

>  <melting_point>
-45.13

>  <molecular_refractivity>
37.93

>  <oscillator_strength_1>
0.0126

>  <oscillator_strength_2>
0.0053

>  <oscillator_strength_3>
0.0033

>  <oscillator_strength_4>
0.0047

>  <open_babel_can_smiles>
COCCCCCOC

>  <mulliken_charges>
25
1   -0.197084
2   -0.197602
3   -0.271032
4   -0.275727
5   -0.279952
6   -0.017923
7   -0.016215
8   -0.460971
9   -0.460012
10   0.130898
11   0.157355
12   0.127189
13   0.157921
14   0.127351
15   0.131195
16   0.133616
17   0.134845
18   0.132573
19   0.14552
20   0.13305
21   0.149088
22   0.140076
23   0.12031
24   0.141341
25   0.114189

>  <lowdin_charges>
25
1   -0.282636
2   -0.284251
3   -0.27765
4   -0.294399
5   -0.298059
6   -0.137986
7   -0.137269
8   -0.271623
9   -0.270575
10   0.130354
11   0.155782
12   0.130801
13   0.15626
14   0.131475
15   0.131345
16   0.141972
17   0.14535
18   0.141851
19   0.151659
20   0.141844
21   0.149233
22   0.146315
23   0.127802
24   0.146988
25   0.125415

$$$$

