PCCDB-ID:  34175
public computational chemistry database (PCCDB) project, http://pccdb.org

 15 15  0  0  0  0  0  0  0  0999 V2000
   -1.2115    0.4673   -0.7200 C   0  0  0  0  0  0  0  0  0  0  0  0
   -0.3384   -0.6425   -0.7009 C   0  0  0  0  0  0  0  0  0  0  0  0
   -0.6271    1.5951   -0.1945 C   0  0  0  0  0  0  0  0  0  0  0  0
    1.9538   -1.3310   -0.0384 C   0  0  0  0  0  0  0  0  0  0  0  0
    3.7623   -0.0051    0.9957 C   0  0  0  0  0  0  0  0  0  0  0  0
    4.0862   -2.3607    0.4739 C   0  0  0  0  0  0  0  0  0  0  0  0
    3.2235   -1.2180    0.4645 C   0  0  0  0  0  0  0  0  0  0  0  0
    0.9113   -0.3609   -0.1601 C   0  0  0  0  0  0  0  0  0  0  0  0
    4.2030    0.9818    1.4286 N   0  0  0  0  0  0  0  0  0  0  0  0
    4.7816   -3.2939    0.4781 N   0  0  0  0  0  0  0  0  0  0  0  0
    0.9927    1.3255    0.3325 S   0  0  0  0  0  0  0  0  0  0  0  0
   -2.2252    0.4391   -1.1022 H   0  0  0  0  0  0  0  0  0  0  0  0
   -0.5995   -1.6293   -1.0689 H   0  0  0  0  0  0  0  0  0  0  0  0
   -1.0648    2.5793   -0.0876 H   0  0  0  0  0  0  0  0  0  0  0  0
    1.6840   -2.3178   -0.4081 H   0  0  0  0  0  0  0  0  0  0  0  0
  1  2  1  0  0  0  0
  1  3  2  0  0  0  0
  2  8  2  0  0  0  0
  3 14  1  0  0  0  0
  3 11  1  0  0  0  0
  4  7  2  0  0  0  0
  5  9  3  0  0  0  0
  6 10  3  0  0  0  0
  7  6  1  0  0  0  0
  7  5  1  0  0  0  0
  8  4  1  0  0  0  0
  8 11  1  0  0  0  0
 12  1  1  0  0  0  0
 13  2  1  0  0  0  0
 15  4  1  0  0  0  0
M  END
>  <HBA>
3

>  <HBD>
0

>  <TPSA>
75.82

>  <cid>
34175

>  <dipole>
7.15

>  <excitation_energy_1>
3.776

>  <excitation_energy_2>
4.25

>  <excitation_energy_3>
5.218

>  <excitation_energy_4>
5.281

>  <homo_energy>
-6.808

>  <homo_lumo_gap>
3.85

>  <logP>
2.179

>  <lumo_energy>
-2.958

>  <melting_point>
95.96

>  <molecular_refractivity>
43.52

>  <oscillator_strength_1>
0.5199

>  <oscillator_strength_2>
0.1173

>  <oscillator_strength_3>
0.0004

>  <oscillator_strength_4>
0.0013

>  <open_babel_can_smiles>
N#CC(=Cc1cccs1)C#N

>  <mulliken_charges>
15
1   -0.097829
2   -0.114536
3   -0.337958
4   -0.101541
5   0.311047
6   0.284174
7   0.105774
8   -0.151163
9   -0.487174
10   -0.462776
11   0.345183
12   0.162802
13   0.162686
14   0.195647
15   0.185663

>  <lowdin_charges>
15
1   -0.174325
2   -0.147192
3   -0.286952
4   -0.073448
5   -0.00453
6   -0.007391
7   -0.057586
8   -0.165923
9   -0.090313
10   -0.100144
11   0.373664
12   0.175557
13   0.17513
14   0.193201
15   0.190253

$$$$

