PCCDB-ID:  7282
public computational chemistry database (PCCDB) project, http://pccdb.org

 20 19  0  0  0  0  0  0  0  0999 V2000
    1.1609    0.3702   -0.2395 C   0  0  0  0  0  0  0  0  0  0  0  0
    5.1985   -2.5279    1.1860 C   0  0  0  0  0  0  0  0  0  0  0  0
    2.3092   -2.5419   -0.0389 C   0  0  0  0  0  0  0  0  0  0  0  0
    2.6253   -0.0407   -0.4323 C   0  0  0  0  0  0  0  0  0  0  0  0
    4.5998   -1.4601    0.2628 C   0  0  0  0  0  0  0  0  0  0  0  0
    3.0722   -1.2750    0.3790 C   0  0  0  0  0  0  0  0  0  0  0  0
    0.9395    1.2941   -0.7863 H   0  0  0  0  0  0  0  0  0  0  0  0
    0.9366    0.5502    0.8195 H   0  0  0  0  0  0  0  0  0  0  0  0
    0.4661   -0.3959   -0.6003 H   0  0  0  0  0  0  0  0  0  0  0  0
    6.2908   -2.5512    1.0989 H   0  0  0  0  0  0  0  0  0  0  0  0
    4.8311   -3.5322    0.9485 H   0  0  0  0  0  0  0  0  0  0  0  0
    4.9538   -2.3246    2.2363 H   0  0  0  0  0  0  0  0  0  0  0  0
    1.2272   -2.4216    0.0797 H   0  0  0  0  0  0  0  0  0  0  0  0
    2.6038   -3.4092    0.5612 H   0  0  0  0  0  0  0  0  0  0  0  0
    2.5051   -2.7831   -1.0926 H   0  0  0  0  0  0  0  0  0  0  0  0
    3.2678    0.8072   -0.1563 H   0  0  0  0  0  0  0  0  0  0  0  0
    2.8152   -0.2286   -1.4998 H   0  0  0  0  0  0  0  0  0  0  0  0
    4.8512   -1.6973   -0.7819 H   0  0  0  0  0  0  0  0  0  0  0  0
    5.0838   -0.4973    0.4786 H   0  0  0  0  0  0  0  0  0  0  0  0
    2.8429   -1.0748    1.4388 H   0  0  0  0  0  0  0  0  0  0  0  0
  1  8  1  0  0  0  0
  2 12  1  0  0  0  0
  3 13  1  0  0  0  0
  3  6  1  0  0  0  0
  3 14  1  0  0  0  0
  4  1  1  0  0  0  0
  4 16  1  0  0  0  0
  4  6  1  0  0  0  0
  5  6  1  0  0  0  0
  5 19  1  0  0  0  0
  5  2  1  0  0  0  0
  6 20  1  0  0  0  0
  7  1  1  0  0  0  0
  9  1  1  0  0  0  0
 10  2  1  0  0  0  0
 11  2  1  0  0  0  0
 15  3  1  0  0  0  0
 17  4  1  0  0  0  0
 18  5  1  0  0  0  0
M  END
>  <HBA>
0

>  <HBD>
0

>  <TPSA>
0.0

>  <cid>
7282

>  <dipole>
0.06

>  <excitation_energy_1>
7.822

>  <excitation_energy_2>
7.981

>  <excitation_energy_3>
8.12

>  <excitation_energy_4>
8.295

>  <homo_energy>
-8.251

>  <homo_lumo_gap>
10.58

>  <logP>
2.442

>  <lumo_energy>
2.329

>  <melting_point>
-26.56

>  <molecular_refractivity>
30.96

>  <oscillator_strength_1>
0.0062

>  <oscillator_strength_2>
0.0164

>  <oscillator_strength_3>
0.0042

>  <oscillator_strength_4>
0.0024

>  <open_babel_can_smiles>
CCC(CC)C

>  <mulliken_charges>
20
1   -0.448405
2   -0.448433
3   -0.453015
4   -0.246005
5   -0.246091
6   -0.057195
7   0.141327
8   0.140318
9   0.145576
10   0.141353
11   0.145541
12   0.140349
13   0.144046
14   0.144036
15   0.136374
16   0.12725
17   0.126036
18   0.126078
19   0.127258
20   0.1136

>  <lowdin_charges>
20
1   -0.446999
2   -0.442845
3   -0.446251
4   -0.272544
5   -0.272496
6   -0.122183
7   0.149917
8   0.144407
9   0.148251
10   0.147758
11   0.146505
12   0.144404
13   0.147533
14   0.149911
15   0.143109
16   0.140146
17   0.135807
18   0.136204
19   0.139325
20   0.130041

$$$$

