PCCDB-ID:  56943
public computational chemistry database (PCCDB) project, http://pccdb.org

 37 37  0  0  1  0  0  0  0  0999 V2000
    4.2329   -1.2908    2.4660 C   0  0  0  0  0  0  0  0  0  0  0  0
    8.7202    2.1270    1.5270 C   0  0  0  0  0  0  0  0  0  0  0  0
    8.7479    5.1372    2.5669 C   0  0  0  0  0  0  0  0  0  0  0  0
    3.7384    0.0090    3.1098 C   0  0  0  0  0  0  0  0  0  0  0  0
    4.8088    1.0983    3.2486 C   0  0  0  0  0  0  0  0  0  0  0  0
   10.6175    2.6399    6.0264 C   0  0  0  0  0  0  0  0  0  0  0  0
    8.2915    3.7398    5.7018 C   0  0  0  0  0  0  0  0  0  0  0  0
    6.4384    3.1107    2.1224 C   0  0  0  0  0  0  0  0  0  0  0  0
    7.8323    2.7023    2.6379 C   0  0  2  0  0  0  0  0  0  0  0  0
    9.7750    3.7075    5.3435 C   0  0  2  0  0  0  0  0  0  0  0  0
    8.4995    3.8799    3.3955 C   0  0  2  0  0  0  0  0  0  0  0  0
   11.9455    2.6324    5.5356 O   0  0  0  0  0  0  0  0  0  0  0  0
    7.6871    4.2517    4.5196 O   0  0  0  0  0  0  0  0  0  0  0  0
    9.7376    3.4023    3.9434 O   0  0  0  0  0  0  0  0  0  0  0  0
    5.3511    1.7229    1.6016 S   0  0  0  0  0  0  0  0  0  0  0  0
    3.4339   -2.0403    2.4406 H   0  0  0  0  0  0  0  0  0  0  0  0
    5.0722   -1.7155    3.0305 H   0  0  0  0  0  0  0  0  0  0  0  0
    4.5737   -1.1289    1.4380 H   0  0  0  0  0  0  0  0  0  0  0  0
    8.2470    1.2404    1.0946 H   0  0  0  0  0  0  0  0  0  0  0  0
    9.7008    1.8428    1.9188 H   0  0  0  0  0  0  0  0  0  0  0  0
    8.8713    2.8498    0.7160 H   0  0  0  0  0  0  0  0  0  0  0  0
    7.8044    5.5662    2.2163 H   0  0  0  0  0  0  0  0  0  0  0  0
    9.3786    4.9151    1.7020 H   0  0  0  0  0  0  0  0  0  0  0  0
    9.2530    5.8823    3.1878 H   0  0  0  0  0  0  0  0  0  0  0  0
    3.3597   -0.2073    4.1182 H   0  0  0  0  0  0  0  0  0  0  0  0
    2.8893    0.4091    2.5406 H   0  0  0  0  0  0  0  0  0  0  0  0
    5.6751    0.7047    3.7935 H   0  0  0  0  0  0  0  0  0  0  0  0
    4.4091    1.9472    3.8151 H   0  0  0  0  0  0  0  0  0  0  0  0
   10.1292    1.6608    5.8905 H   0  0  0  0  0  0  0  0  0  0  0  0
   10.6819    2.8425    7.1012 H   0  0  0  0  0  0  0  0  0  0  0  0
    8.0513    4.4130    6.5291 H   0  0  0  0  0  0  0  0  0  0  0  0
    7.9159    2.7319    5.9385 H   0  0  0  0  0  0  0  0  0  0  0  0
    6.5273    3.7396    1.2293 H   0  0  0  0  0  0  0  0  0  0  0  0
    5.9082    3.6905    2.8841 H   0  0  0  0  0  0  0  0  0  0  0  0
    7.7006    1.9249    3.4021 H   0  0  0  0  0  0  0  0  0  0  0  0
   10.2378    4.6937    5.4969 H   0  0  0  0  0  0  0  0  0  0  0  0
   11.8744    2.5501    4.5703 H   0  0  0  0  0  0  0  0  0  0  0  0
  1 17  1  0  0  0  0
  1  4  1  0  0  0  0
  2 20  1  0  0  0  0
  2  9  1  0  0  0  0
  3 24  1  0  0  0  0
  4  5  1  0  0  0  0
  4 25  1  0  0  0  0
  5 27  1  0  0  0  0
  5 28  1  0  0  0  0
  6 30  1  0  0  0  0
  7 32  1  0  0  0  0
  7 31  1  0  0  0  0
  8  9  1  0  0  0  0
  8 34  1  0  0  0  0
  9 11  1  0  0  0  0
  9 35  1  1  0  0  0
 10 36  1  1  0  0  0
 10  7  1  0  0  0  0
 10  6  1  0  0  0  0
 11  3  1  6  0  0  0
 11 14  1  0  0  0  0
 11 13  1  0  0  0  0
 12  6  1  0  0  0  0
 13  7  1  0  0  0  0
 14 10  1  0  0  0  0
 15  8  1  0  0  0  0
 15  5  1  0  0  0  0
 16  1  1  0  0  0  0
 18  1  1  0  0  0  0
 19  2  1  0  0  0  0
 21  2  1  0  0  0  0
 22  3  1  0  0  0  0
 23  3  1  0  0  0  0
 26  4  1  0  0  0  0
 29  6  1  0  0  0  0
 33  8  1  0  0  0  0
 37 12  1  0  0  0  0
M  END
>  <HBA>
4

>  <HBD>
1

>  <TPSA>
63.99

>  <cid>
56943

>  <dipole>
1.66

>  <excitation_energy_1>
5.092

>  <excitation_energy_2>
5.35

>  <excitation_energy_3>
5.627

>  <excitation_energy_4>
5.765

>  <homo_energy>
-5.842

>  <homo_lumo_gap>
6.963

>  <logP>
1.89

>  <lumo_energy>
1.121

>  <melting_point>
13.41

>  <molecular_refractivity>
63.84

>  <oscillator_strength_1>
0.0001

>  <oscillator_strength_2>
0.0076

>  <oscillator_strength_3>
0.014

>  <oscillator_strength_4>
0.0059

>  <open_babel_can_smiles>
CCCSC[C@H]([C@@]1(C)OC[C@H](O1)CO)C

>  <mulliken_charges>
37
1   -0.443826
2   -0.464339
3   -0.463945
4   -0.263958
5   -0.395831
6   -0.033959
7   -0.046411
8   -0.447256
9   -0.078739
10   0.102788
11   0.541852
12   -0.617676
13   -0.517772
14   -0.55185
15   0.077383
16   0.144525
17   0.141621
18   0.168878
19   0.171469
20   0.155288
21   0.138888
22   0.157121
23   0.157661
24   0.155916
25   0.140738
26   0.153849
27   0.161438
28   0.165771
29   0.124614
30   0.146245
31   0.155155
32   0.131862
33   0.169569
34   0.186577
35   0.131587
36   0.140396
37   0.404372

>  <lowdin_charges>
37
1   -0.446848
2   -0.452408
3   -0.458385
4   -0.273679
5   -0.373105
6   -0.139001
7   -0.142864
8   -0.382906
9   -0.142997
10   -0.026295
11   0.219953
12   -0.458457
13   -0.268689
14   -0.280412
15   0.076522
16   0.151717
17   0.147778
18   0.158538
19   0.165802
20   0.155475
21   0.146045
22   0.161287
23   0.161321
24   0.162952
25   0.146821
26   0.151735
27   0.149404
28   0.156043
29   0.130715
30   0.149262
31   0.157814
32   0.132757
33   0.164292
34   0.167366
35   0.146806
36   0.139397
37   0.346245

$$$$

