PCCDB-ID:  6688
public computational chemistry database (PCCDB) project, http://pccdb.org

 26 28  0  0  0  0  0  0  0  0999 V2000
    3.7172    0.6970   -0.0069 C   0  0  0  0  0  0  0  0  0  0  0  0
    3.7111   -0.7041   -0.0074 C   0  0  0  0  0  0  0  0  0  0  0  0
    2.5169    1.3996   -0.0013 C   0  0  0  0  0  0  0  0  0  0  0  0
    2.5047   -1.3962   -0.0023 C   0  0  0  0  0  0  0  0  0  0  0  0
   -3.6910    0.7195   -0.0052 C   0  0  0  0  0  0  0  0  0  0  0  0
   -3.6970   -0.6619   -0.0054 C   0  0  0  0  0  0  0  0  0  0  0  0
    1.2985    0.7076    0.0035 C   0  0  0  0  0  0  0  0  0  0  0  0
    1.2924   -0.6936    0.0029 C   0  0  0  0  0  0  0  0  0  0  0  0
   -2.4859    1.4361   -0.0003 C   0  0  0  0  0  0  0  0  0  0  0  0
   -2.4982   -1.3890   -0.0008 C   0  0  0  0  0  0  0  0  0  0  0  0
   -1.2613    0.7324    0.0052 C   0  0  0  0  0  0  0  0  0  0  0  0
   -1.2675   -0.6960    0.0048 C   0  0  0  0  0  0  0  0  0  0  0  0
    0.0287    1.4893    0.0113 C   0  0  0  0  0  0  0  0  0  0  0  0
    0.0158   -1.4642    0.0103 C   0  0  0  0  0  0  0  0  0  0  0  0
   -2.5060    2.7944   -0.0025 O   0  0  0  0  0  0  0  0  0  0  0  0
   -2.5302   -2.7471   -0.0033 O   0  0  0  0  0  0  0  0  0  0  0  0
    0.0700    2.7140    0.0220 O   0  0  0  0  0  0  0  0  0  0  0  0
    0.0464   -2.6892    0.0201 O   0  0  0  0  0  0  0  0  0  0  0  0
    4.6606    1.2363   -0.0108 H   0  0  0  0  0  0  0  0  0  0  0  0
    4.6498   -1.2516   -0.0114 H   0  0  0  0  0  0  0  0  0  0  0  0
    2.4917    2.4840   -0.0001 H   0  0  0  0  0  0  0  0  0  0  0  0
    2.4701   -2.4804   -0.0018 H   0  0  0  0  0  0  0  0  0  0  0  0
   -4.6345    1.2624   -0.0091 H   0  0  0  0  0  0  0  0  0  0  0  0
   -4.6452   -1.1966   -0.0095 H   0  0  0  0  0  0  0  0  0  0  0  0
   -3.4332    3.0831   -0.0043 H   0  0  0  0  0  0  0  0  0  0  0  0
   -3.4598   -3.0277   -0.0052 H   0  0  0  0  0  0  0  0  0  0  0  0
  1  3  1  0  0  0  0
  2  1  2  0  0  0  0
  2  4  1  0  0  0  0
  3 21  1  0  0  0  0
  3  7  2  0  0  0  0
  4 22  1  0  0  0  0
  4  8  2  0  0  0  0
  5  9  1  0  0  0  0
  6  5  2  0  0  0  0
  6 10  1  0  0  0  0
  7 13  1  0  0  0  0
  8  7  1  0  0  0  0
  8 14  1  0  0  0  0
  9 11  2  0  0  0  0
 10 12  2  0  0  0  0
 11 13  1  0  0  0  0
 12 11  1  0  0  0  0
 12 14  1  0  0  0  0
 13 17  2  0  0  0  0
 14 18  2  0  0  0  0
 15  9  1  0  0  0  0
 16 10  1  0  0  0  0
 19  1  1  0  0  0  0
 20  2  1  0  0  0  0
 23  5  1  0  0  0  0
 24  6  1  0  0  0  0
 25 15  1  0  0  0  0
 26 16  1  0  0  0  0
M  END
>  <HBA>
4

>  <HBD>
2

>  <TPSA>
74.6

>  <cid>
6688

>  <dipole>
3.69

>  <excitation_energy_1>
2.788

>  <excitation_energy_2>
3.021

>  <excitation_energy_3>
3.055

>  <excitation_energy_4>
3.789

>  <homo_energy>
-6.006

>  <homo_lumo_gap>
3.491

>  <logP>
1.873

>  <lumo_energy>
-2.514

>  <melting_point>
204.83

>  <molecular_refractivity>
63.8

>  <oscillator_strength_1>
0.0

>  <oscillator_strength_2>
0.0

>  <oscillator_strength_3>
0.1437

>  <oscillator_strength_4>
0.0394

>  <open_babel_can_smiles>
Oc1ccc(c2c1C(=O)c1ccccc1C2=O)O

>  <mulliken_charges>
26
1   -0.126429
2   -0.126589
3   -0.173305
4   -0.173329
5   -0.188936
6   -0.189038
7   0.049143
8   0.049379
9   0.303464
10   0.303504
11   0.004899
12   0.004999
13   0.346151
14   0.34614
15   -0.600502
16   -0.600515
17   -0.462346
18   -0.46232
19   0.140718
20   0.140731
21   0.165978
22   0.165979
23   0.134043
24   0.134042
25   0.407067
26   0.407071

>  <lowdin_charges>
26
1   -0.142566
2   -0.142638
3   -0.128088
4   -0.128091
5   -0.185092
6   -0.185039
7   -0.035745
8   -0.035719
9   0.112144
10   0.112119
11   -0.058175
12   -0.058165
13   0.146354
14   0.146337
15   -0.338426
16   -0.338365
17   -0.22671
18   -0.226705
19   0.163306
20   0.163357
21   0.176708
22   0.17671
23   0.16158
24   0.161534
25   0.354711
26   0.354667

$$$$

