PCCDB-ID:  61293
public computational chemistry database (PCCDB) project, http://pccdb.org

 27 26  0  0  1  0  0  0  0  0999 V2000
    0.8604    1.8996    0.9124 C   0  0  0  0  0  0  0  0  0  0  0  0
    2.3268   -1.0697   -5.1450 C   0  0  0  0  0  0  0  0  0  0  0  0
    2.3823    1.8112    0.7655 C   0  0  0  0  0  0  0  0  0  0  0  0
    3.8394   -1.1113   -4.9946 C   0  0  0  0  0  0  0  0  0  0  0  0
    2.8249    0.8021   -0.3005 C   0  0  0  0  0  0  0  0  0  0  0  0
    4.8006   -0.3374   -1.4788 C   0  0  0  0  0  0  0  0  0  0  0  0
    4.3514    0.7583   -0.4880 C   0  0  1  0  0  0  0  0  0  0  0  0
    4.3360   -0.0850   -2.8990 C   0  0  0  0  0  0  0  0  0  0  0  0
    4.8867    2.0223   -0.8561 O   0  0  0  0  0  0  0  0  0  0  0  0
    4.1146    1.0190   -3.3714 O   0  0  0  0  0  0  0  0  0  0  0  0
    4.2268   -1.2266   -3.6000 O   0  0  0  0  0  0  0  0  0  0  0  0
    0.5758    2.6268    1.6815 H   0  0  0  0  0  0  0  0  0  0  0  0
    0.4278    0.9312    1.1944 H   0  0  0  0  0  0  0  0  0  0  0  0
    0.3886    2.2096   -0.0284 H   0  0  0  0  0  0  0  0  0  0  0  0
    2.0607   -1.0637   -6.2082 H   0  0  0  0  0  0  0  0  0  0  0  0
    1.9174   -0.1663   -4.6845 H   0  0  0  0  0  0  0  0  0  0  0  0
    1.8643   -1.9464   -4.6800 H   0  0  0  0  0  0  0  0  0  0  0  0
    2.8294    1.5346    1.7314 H   0  0  0  0  0  0  0  0  0  0  0  0
    2.7951    2.7933    0.5084 H   0  0  0  0  0  0  0  0  0  0  0  0
    4.3067   -0.2184   -5.4163 H   0  0  0  0  0  0  0  0  0  0  0  0
    4.2656   -2.0014   -5.4632 H   0  0  0  0  0  0  0  0  0  0  0  0
    2.3540    1.0543   -1.2613 H   0  0  0  0  0  0  0  0  0  0  0  0
    2.4682   -0.2034   -0.0305 H   0  0  0  0  0  0  0  0  0  0  0  0
    4.4681   -1.3310   -1.1616 H   0  0  0  0  0  0  0  0  0  0  0  0
    5.8984   -0.3578   -1.5031 H   0  0  0  0  0  0  0  0  0  0  0  0
    4.8097    0.5227    0.4811 H   0  0  0  0  0  0  0  0  0  0  0  0
    4.6079    2.1638   -1.7804 H   0  0  0  0  0  0  0  0  0  0  0  0
  1 13  1  0  0  0  0
  1 12  1  0  0  0  0
  2  4  1  0  0  0  0
  2 16  1  0  0  0  0
  2 17  1  0  0  0  0
  3  1  1  0  0  0  0
  3 18  1  0  0  0  0
  4 11  1  0  0  0  0
  5 23  1  0  0  0  0
  5  3  1  0  0  0  0
  6 24  1  0  0  0  0
  6  7  1  0  0  0  0
  7  5  1  0  0  0  0
  7 26  1  1  0  0  0
  8  6  1  0  0  0  0
  9  7  1  0  0  0  0
 10  8  2  0  0  0  0
 11  8  1  0  0  0  0
 14  1  1  0  0  0  0
 15  2  1  0  0  0  0
 19  3  1  0  0  0  0
 20  4  1  0  0  0  0
 21  4  1  0  0  0  0
 22  5  1  0  0  0  0
 25  6  1  0  0  0  0
 27  9  1  0  0  0  0
M  END
>  <HBA>
3

>  <HBD>
1

>  <TPSA>
46.53

>  <cid>
61293

>  <dipole>
3.23

>  <excitation_energy_1>
5.783

>  <excitation_energy_2>
5.924

>  <excitation_energy_3>
6.616

>  <excitation_energy_4>
7.013

>  <homo_energy>
-6.909

>  <homo_lumo_gap>
6.914

>  <logP>
1.101

>  <lumo_energy>
0.005

>  <melting_point>
3.17

>  <molecular_refractivity>
43.02

>  <oscillator_strength_1>
0.0005

>  <oscillator_strength_2>
0.003

>  <oscillator_strength_3>
0.0171

>  <oscillator_strength_4>
0.0023

>  <open_babel_can_smiles>
CCC[C@@H](CC(=O)OCC)O

>  <mulliken_charges>
27
1   -0.443324
2   -0.462635
3   -0.247231
4   -0.049977
5   -0.26934
6   -0.379408
7   0.139235
8   0.638764
9   -0.645574
10   -0.503234
11   -0.454524
12   0.142647
13   0.136886
14   0.140939
15   0.154346
16   0.17678
17   0.160208
18   0.126664
19   0.156072
20   0.174056
21   0.157917
22   0.135381
23   0.119871
24   0.165939
25   0.187019
26   0.13053
27   0.41199

>  <lowdin_charges>
27
1   -0.445421
2   -0.453958
3   -0.272188
4   -0.127929
5   -0.296009
6   -0.317095
7   0.003857
8   0.207022
9   -0.47193
10   -0.287265
11   -0.183724
12   0.150505
13   0.143402
14   0.146038
15   0.159696
16   0.16609
17   0.158402
18   0.137677
19   0.152092
20   0.161226
21   0.155861
22   0.143145
23   0.137583
24   0.168197
25   0.178791
26   0.142551
27   0.343383

$$$$

