PCCDB-ID:  10960
public computational chemistry database (PCCDB) project, http://pccdb.org

 15 14  0  0  0  0  0  0  0  0999 V2000
    1.2265   -0.8439    1.9406 C   0  0  0  0  0  0  0  0  0  0  0  0
    5.4627   -2.2979    1.5526 C   0  0  0  0  0  0  0  0  0  0  0  0
    4.7762   -1.1287    0.8401 C   0  0  0  0  0  0  0  0  0  0  0  0
    2.7262   -0.9233    2.0917 C   0  0  0  0  0  0  0  0  0  0  0  0
    5.8087   -2.0424    2.8932 O   0  0  0  0  0  0  0  0  0  0  0  0
    3.3168   -0.8175    3.1520 O   0  0  0  0  0  0  0  0  0  0  0  0
    3.3219   -1.1372    0.9074 O   0  0  0  0  0  0  0  0  0  0  0  0
    0.7771   -0.5887    2.9006 H   0  0  0  0  0  0  0  0  0  0  0  0
    0.8395   -1.8099    1.5987 H   0  0  0  0  0  0  0  0  0  0  0  0
    0.9579   -0.0986    1.1859 H   0  0  0  0  0  0  0  0  0  0  0  0
    6.4026   -2.5039    1.0262 H   0  0  0  0  0  0  0  0  0  0  0  0
    4.8271   -3.1940    1.4377 H   0  0  0  0  0  0  0  0  0  0  0  0
    4.9641   -1.1673   -0.2352 H   0  0  0  0  0  0  0  0  0  0  0  0
    5.1477   -0.1802    1.2414 H   0  0  0  0  0  0  0  0  0  0  0  0
    5.0181   -1.6510    3.3104 H   0  0  0  0  0  0  0  0  0  0  0  0
  1  4  1  0  0  0  0
  1  8  1  0  0  0  0
  2  5  1  0  0  0  0
  3  7  1  0  0  0  0
  3 14  1  0  0  0  0
  3  2  1  0  0  0  0
  4  6  2  0  0  0  0
  5 15  1  0  0  0  0
  7  4  1  0  0  0  0
  9  1  1  0  0  0  0
 10  1  1  0  0  0  0
 11  2  1  0  0  0  0
 12  2  1  0  0  0  0
 13  3  1  0  0  0  0
M  END
>  <HBA>
3

>  <HBD>
1

>  <TPSA>
46.53

>  <cid>
10960

>  <dipole>
3.4

>  <excitation_energy_1>
5.732

>  <excitation_energy_2>
6.103

>  <excitation_energy_3>
6.679

>  <excitation_energy_4>
7.073

>  <homo_energy>
-6.934

>  <homo_lumo_gap>
6.803

>  <logP>
-0.458

>  <lumo_energy>
-0.131

>  <melting_point>
5.82

>  <molecular_refractivity>
23.79

>  <oscillator_strength_1>
0.0022

>  <oscillator_strength_2>
0.0047

>  <oscillator_strength_3>
0.0135

>  <oscillator_strength_4>
0.0062

>  <open_babel_can_smiles>
CC(=O)OCCO

>  <mulliken_charges>
15
1   -0.522118
2   -0.031472
3   -0.084043
4   0.609686
5   -0.638405
6   -0.484828
7   -0.442249
8   0.188097
9   0.188969
10   0.185883
11   0.147581
12   0.127393
13   0.158848
14   0.173286
15   0.423372

>  <lowdin_charges>
15
1   -0.462826
2   -0.144912
3   -0.145319
4   0.209845
5   -0.479885
6   -0.276075
7   -0.191364
8   0.178685
9   0.182405
10   0.180578
11   0.152674
12   0.130912
13   0.15961
14   0.160307
15   0.345365

$$$$

