PCCDB-ID:  61653
public computational chemistry database (PCCDB) project, http://pccdb.org

 17 17  0  0  0  0  0  0  0  0999 V2000
    1.3806    0.3196    0.0382 C   0  0  0  0  0  0  0  0  0  0  0  0
    2.6719   -2.6577    0.0568 C   0  0  0  0  0  0  0  0  0  0  0  0
    6.1966    1.4186    0.0263 C   0  0  0  0  0  0  0  0  0  0  0  0
    2.8350   -0.0581    0.0394 C   0  0  0  0  0  0  0  0  0  0  0  0
    3.3588   -1.3247    0.0470 C   0  0  0  0  0  0  0  0  0  0  0  0
    4.9835    0.5386    0.0348 C   0  0  0  0  0  0  0  0  0  0  0  0
    3.7612    0.9748    0.0327 N   0  0  0  0  0  0  0  0  0  0  0  0
    5.1093   -1.2202    0.0459 S   0  0  0  0  0  0  0  0  0  0  0  0
    0.7249   -0.5546    0.0353 H   0  0  0  0  0  0  0  0  0  0  0  0
    1.1435    0.9281   -0.8424 H   0  0  0  0  0  0  0  0  0  0  0  0
    1.1404    0.9244    0.9206 H   0  0  0  0  0  0  0  0  0  0  0  0
    1.5860   -2.5302    0.0517 H   0  0  0  0  0  0  0  0  0  0  0  0
    2.9327   -3.2434    0.9470 H   0  0  0  0  0  0  0  0  0  0  0  0
    2.9392   -3.2597   -0.8204 H   0  0  0  0  0  0  0  0  0  0  0  0
    5.8683    2.4605    0.0495 H   0  0  0  0  0  0  0  0  0  0  0  0
    6.8032    1.2611   -0.8734 H   0  0  0  0  0  0  0  0  0  0  0  0
    6.8384    1.2312    0.8950 H   0  0  0  0  0  0  0  0  0  0  0  0
  1  4  1  0  0  0  0
  1 11  1  0  0  0  0
  2 13  1  0  0  0  0
  3  6  1  0  0  0  0
  3 15  1  0  0  0  0
  3 17  1  0  0  0  0
  4  5  2  0  0  0  0
  5  2  1  0  0  0  0
  6  8  1  0  0  0  0
  7  6  2  0  0  0  0
  7  4  1  0  0  0  0
  8  5  1  0  0  0  0
  9  1  1  0  0  0  0
 10  1  1  0  0  0  0
 12  2  1  0  0  0  0
 14  2  1  0  0  0  0
 16  3  1  0  0  0  0
M  END
>  <HBA>
2

>  <HBD>
0

>  <TPSA>
41.13

>  <cid>
61653

>  <dipole>
0.98

>  <excitation_energy_1>
5.106

>  <excitation_energy_2>
5.124

>  <excitation_energy_3>
5.361

>  <excitation_energy_4>
5.538

>  <homo_energy>
-6.016

>  <homo_lumo_gap>
5.674

>  <logP>
2.068

>  <lumo_energy>
-0.343

>  <melting_point>
31.56

>  <molecular_refractivity>
37.01

>  <oscillator_strength_1>
0.1264

>  <oscillator_strength_2>
0.0104

>  <oscillator_strength_3>
0.0003

>  <oscillator_strength_4>
0.0017

>  <open_babel_can_smiles>
Cc1sc(c(n1)C)C

>  <mulliken_charges>
17
1   -0.507438
2   -0.51111
3   -0.509487
4   0.283552
5   -0.146445
6   0.112388
7   -0.435609
8   0.18709
9   0.148234
10   0.168645
11   0.16852
12   0.168469
13   0.17039
14   0.170291
15   0.18755
16   0.172904
17   0.172057

>  <lowdin_charges>
17
1   -0.44038
2   -0.435567
3   -0.442126
4   0.003365
5   -0.177917
6   -0.077918
7   -0.17462
8   0.249856
9   0.15492
10   0.166392
11   0.166259
12   0.163348
13   0.164871
14   0.164931
15   0.177318
16   0.168714
17   0.168554

$$$$

