PCCDB-ID:  7435
public computational chemistry database (PCCDB) project, http://pccdb.org

 21 21  0  0  0  0  0  0  0  0999 V2000
    0.8056    0.0328    0.0095 C   0  0  0  0  0  0  0  0  0  0  0  0
    7.4030   -3.1813   -0.4426 C   0  0  0  0  0  0  0  0  0  0  0  0
    4.3504    1.4723    0.0533 C   0  0  0  0  0  0  0  0  0  0  0  0
    2.9569    1.3788    0.0693 C   0  0  0  0  0  0  0  0  0  0  0  0
    5.1301    0.3252   -0.0673 C   0  0  0  0  0  0  0  0  0  0  0  0
    3.1050   -1.0069   -0.1565 C   0  0  0  0  0  0  0  0  0  0  0  0
    2.3128    0.1385   -0.0324 C   0  0  0  0  0  0  0  0  0  0  0  0
    4.5021   -0.9238   -0.1738 C   0  0  0  0  0  0  0  0  0  0  0  0
    5.2684   -2.1945   -0.3118 C   0  0  0  0  0  0  0  0  0  0  0  0
    4.7663   -3.2975   -0.4104 O   0  0  0  0  0  0  0  0  0  0  0  0
    6.6079   -1.9940   -0.3143 O   0  0  0  0  0  0  0  0  0  0  0  0
    0.3306    1.0002   -0.1821 H   0  0  0  0  0  0  0  0  0  0  0  0
    0.4595   -0.3154    0.9914 H   0  0  0  0  0  0  0  0  0  0  0  0
    0.4340   -0.6809   -0.7340 H   0  0  0  0  0  0  0  0  0  0  0  0
    8.4391   -2.8410   -0.4418 H   0  0  0  0  0  0  0  0  0  0  0  0
    7.1698   -3.7025   -1.3750 H   0  0  0  0  0  0  0  0  0  0  0  0
    7.2204   -3.8591    0.3957 H   0  0  0  0  0  0  0  0  0  0  0  0
    4.8274    2.4455    0.1320 H   0  0  0  0  0  0  0  0  0  0  0  0
    2.3594    2.2832    0.1605 H   0  0  0  0  0  0  0  0  0  0  0  0
    6.2120    0.3883   -0.0827 H   0  0  0  0  0  0  0  0  0  0  0  0
    2.6484   -1.9885   -0.2443 H   0  0  0  0  0  0  0  0  0  0  0  0
  1 13  1  0  0  0  0
  2 15  1  0  0  0  0
  2 11  1  0  0  0  0
  2 17  1  0  0  0  0
  3  4  1  0  0  0  0
  3 18  1  0  0  0  0
  4 19  1  0  0  0  0
  5  3  2  0  0  0  0
  6  7  1  0  0  0  0
  7  1  1  0  0  0  0
  7  4  2  0  0  0  0
  8  6  2  0  0  0  0
  8  5  1  0  0  0  0
  9  8  1  0  0  0  0
 10  9  2  0  0  0  0
 11  9  1  0  0  0  0
 12  1  1  0  0  0  0
 14  1  1  0  0  0  0
 16  2  1  0  0  0  0
 20  5  1  0  0  0  0
 21  6  1  0  0  0  0
M  END
>  <HBA>
2

>  <HBD>
0

>  <TPSA>
26.3

>  <cid>
7435

>  <dipole>
1.66

>  <excitation_energy_1>
4.748

>  <excitation_energy_2>
4.892

>  <excitation_energy_3>
5.329

>  <excitation_energy_4>
6.236

>  <homo_energy>
-6.7

>  <homo_lumo_gap>
5.592

>  <logP>
1.782

>  <lumo_energy>
-1.108

>  <melting_point>
34.1

>  <molecular_refractivity>
42.69

>  <oscillator_strength_1>
0.0252

>  <oscillator_strength_2>
0.0001

>  <oscillator_strength_3>
0.2108

>  <oscillator_strength_4>
0.1742

>  <open_babel_can_smiles>
COC(=O)c1cccc(c1)C

>  <mulliken_charges>
21
1   -0.527828
2   -0.215572
3   -0.134358
4   -0.16771
5   -0.162761
6   -0.208018
7   0.167546
8   0.053885
9   0.591318
10   -0.492623
11   -0.468286
12   0.155296
13   0.169154
14   0.165118
15   0.162725
16   0.171161
17   0.17045
18   0.133941
19   0.127809
20   0.153364
21   0.155388

>  <lowdin_charges>
21
1   -0.442796
2   -0.276932
3   -0.155957
4   -0.153445
5   -0.143538
6   -0.14041
7   0.001848
8   -0.044387
9   0.197895
10   -0.271607
11   -0.193696
12   0.157219
13   0.163947
14   0.163716
15   0.158114
16   0.160013
17   0.160108
18   0.159845
19   0.157667
20   0.169095
21   0.1733

$$$$

