PCCDB-ID:  51108
public computational chemistry database (PCCDB) project, http://pccdb.org

 21 22  0  0  0  0  0  0  0  0999 V2000
    2.4673    0.7151   -0.0118 C   0  0  0  0  0  0  0  0  0  0  0  0
    2.4408   -0.6881    0.1852 C   0  0  0  0  0  0  0  0  0  0  0  0
    1.2938    1.4247   -0.1424 C   0  0  0  0  0  0  0  0  0  0  0  0
    1.2403   -1.3575    0.2486 C   0  0  0  0  0  0  0  0  0  0  0  0
   -1.1960    1.4544   -0.2108 C   0  0  0  0  0  0  0  0  0  0  0  0
   -2.3936    0.7841   -0.1660 C   0  0  0  0  0  0  0  0  0  0  0  0
   -1.2380   -1.3165    0.1860 C   0  0  0  0  0  0  0  0  0  0  0  0
    0.0395    0.7643   -0.0822 C   0  0  0  0  0  0  0  0  0  0  0  0
    0.0107   -0.6543    0.1198 C   0  0  0  0  0  0  0  0  0  0  0  0
   -2.4341   -0.6295    0.0345 C   0  0  0  0  0  0  0  0  0  0  0  0
   -3.7117   -1.3756    0.1023 C   0  0  0  0  0  0  0  0  0  0  0  0
   -3.9781   -2.6723    1.0881 S   0  0  0  0  0  0  0  0  0  0  0  0
   -5.0555   -0.8463   -0.9266 S   0  0  0  0  0  0  0  0  0  0  0  0
    3.4223    1.2309   -0.0602 H   0  0  0  0  0  0  0  0  0  0  0  0
    3.3750   -1.2332    0.2863 H   0  0  0  0  0  0  0  0  0  0  0  0
    1.3140    2.5012   -0.2935 H   0  0  0  0  0  0  0  0  0  0  0  0
    1.2136   -2.4335    0.4008 H   0  0  0  0  0  0  0  0  0  0  0  0
   -1.1826    2.5339   -0.3389 H   0  0  0  0  0  0  0  0  0  0  0  0
   -3.3213    1.3430   -0.2337 H   0  0  0  0  0  0  0  0  0  0  0  0
   -1.2617   -2.3901    0.3455 H   0  0  0  0  0  0  0  0  0  0  0  0
   -4.3934    0.0359   -1.7105 H   0  0  0  0  0  0  0  0  0  0  0  0
  1  2  2  0  0  0  0
  2  4  1  0  0  0  0
  2 15  1  0  0  0  0
  3  8  2  0  0  0  0
  3  1  1  0  0  0  0
  4 17  1  0  0  0  0
  5  6  2  0  0  0  0
  5  8  1  0  0  0  0
  6 10  1  0  0  0  0
  7 20  1  0  0  0  0
  8  9  1  0  0  0  0
  9  7  1  0  0  0  0
  9  4  2  0  0  0  0
 10 11  1  0  0  0  0
 10  7  2  0  0  0  0
 11 12  2  0  0  0  0
 13 11  1  0  0  0  0
 14  1  1  0  0  0  0
 16  3  1  0  0  0  0
 18  5  1  0  0  0  0
 19  6  1  0  0  0  0
 21 13  1  0  0  0  0
M  END
>  <HBA>
2

>  <HBD>
1

>  <TPSA>
70.89

>  <cid>
51108

>  <dipole>
4.71

>  <excitation_energy_1>
2.363

>  <excitation_energy_2>
3.308

>  <excitation_energy_3>
3.821

>  <excitation_energy_4>
3.962

>  <homo_energy>
-5.973

>  <homo_lumo_gap>
3.508

>  <logP>
3.445

>  <lumo_energy>
-2.465

>  <melting_point>
103.11

>  <molecular_refractivity>
64.63

>  <oscillator_strength_1>
0.0045

>  <oscillator_strength_2>
0.0917

>  <oscillator_strength_3>
0.0947

>  <oscillator_strength_4>
0.0662

>  <open_babel_can_smiles>
SC(=S)c1ccc2c(c1)cccc2

>  <mulliken_charges>
21
1   -0.129413
2   -0.136269
3   -0.19166
4   -0.181268
5   -0.191773
6   -0.191551
7   -0.229282
8   0.14524
9   0.133179
10   0.161241
11   -0.260754
12   -0.111762
13   0.075219
14   0.139174
15   0.139569
16   0.137284
17   0.14365
18   0.140389
19   0.146642
20   0.168903
21   0.093241

>  <lowdin_charges>
21
1   -0.146744
2   -0.154205
3   -0.152943
4   -0.143655
5   -0.148821
6   -0.16536
7   -0.119655
8   0.007317
9   -0.001452
10   -0.030744
11   -0.197797
12   -0.079191
13   0.062429
14   0.163053
15   0.163582
16   0.159341
17   0.162545
18   0.161174
19   0.166906
20   0.177282
21   0.11694

$$$$

