PCCDB-ID:  66218
public computational chemistry database (PCCDB) project, http://pccdb.org

 31 32  0  0  1  0  0  0  0  0999 V2000
    2.0466   -0.3628    1.4849 C   0  0  0  0  0  0  0  0  0  0  0  0
    9.1555   -0.6403   -3.5593 C   0  0  0  0  0  0  0  0  0  0  0  0
    2.0965   -0.4261    0.1554 C   0  0  0  0  0  0  0  0  0  0  0  0
    8.9963   -1.1830   -2.3534 C   0  0  0  0  0  0  0  0  0  0  0  0
    4.2797   -1.2666   -1.7342 C   0  0  0  0  0  0  0  0  0  0  0  0
    5.1384   -0.0088    0.2112 C   0  0  0  0  0  0  0  0  0  0  0  0
    6.5321   -1.8769   -0.7762 C   0  0  0  0  0  0  0  0  0  0  0  0
    6.2929    0.2383   -2.0309 C   0  0  0  0  0  0  0  0  0  0  0  0
    2.9849    0.4423   -0.7182 C   0  0  2  0  0  0  0  0  0  0  0  0
    8.4007   -0.4651   -1.1549 C   0  0  2  0  0  0  0  0  0  0  0  0
    5.5609   -0.7289   -1.0824 C   0  0  1  0  0  0  0  0  0  0  0  0
    3.3302   -0.2204   -1.9275 O   0  0  0  0  0  0  0  0  0  0  0  0
    4.1144    0.9596   -0.0469 O   0  0  0  0  0  0  0  0  0  0  0  0
    7.7667   -1.3765   -0.2674 O   0  0  0  0  0  0  0  0  0  0  0  0
    7.5661    0.6213   -1.4968 O   0  0  0  0  0  0  0  0  0  0  0  0
    1.3494   -0.9683    2.0575 H   0  0  0  0  0  0  0  0  0  0  0  0
    2.6986    0.3040    2.0427 H   0  0  0  0  0  0  0  0  0  0  0  0
    9.6416   -1.1808   -4.3669 H   0  0  0  0  0  0  0  0  0  0  0  0
    8.8099    0.3673   -3.7741 H   0  0  0  0  0  0  0  0  0  0  0  0
    1.4224   -1.0796   -0.3974 H   0  0  0  0  0  0  0  0  0  0  0  0
    9.3672   -2.1848   -2.1391 H   0  0  0  0  0  0  0  0  0  0  0  0
    3.8507   -2.0672   -1.1084 H   0  0  0  0  0  0  0  0  0  0  0  0
    4.4733   -1.6813   -2.7292 H   0  0  0  0  0  0  0  0  0  0  0  0
    5.9715    0.5505    0.6392 H   0  0  0  0  0  0  0  0  0  0  0  0
    4.7921   -0.7460    0.9490 H   0  0  0  0  0  0  0  0  0  0  0  0
    6.7028   -2.4736   -1.6881 H   0  0  0  0  0  0  0  0  0  0  0  0
    6.1402   -2.5456   -0.0026 H   0  0  0  0  0  0  0  0  0  0  0  0
    5.7332    1.1666   -2.1533 H   0  0  0  0  0  0  0  0  0  0  0  0
    6.4159   -0.2323   -3.0165 H   0  0  0  0  0  0  0  0  0  0  0  0
    2.4236    1.3236   -1.0472 H   0  0  0  0  0  0  0  0  0  0  0  0
    9.2058   -0.0252   -0.5564 H   0  0  0  0  0  0  0  0  0  0  0  0
  1 17  1  0  0  0  0
  1 16  1  0  0  0  0
  2  4  2  0  0  0  0
  3  1  2  0  0  0  0
  4 21  1  0  0  0  0
  4 10  1  0  0  0  0
  5 22  1  0  0  0  0
  5 11  1  0  0  0  0
  6 24  1  0  0  0  0
  6 25  1  0  0  0  0
  7 14  1  0  0  0  0
  7 27  1  0  0  0  0
  8 15  1  0  0  0  0
  9 30  1  6  0  0  0
  9 13  1  0  0  0  0
  9  3  1  0  0  0  0
 10 31  1  1  0  0  0
 10 14  1  0  0  0  0
 11  8  1  6  0  0  0
 11  7  1  0  0  0  0
 11  6  1  0  0  0  0
 12  5  1  0  0  0  0
 12  9  1  0  0  0  0
 13  6  1  0  0  0  0
 15 10  1  0  0  0  0
 18  2  1  0  0  0  0
 19  2  1  0  0  0  0
 20  3  1  0  0  0  0
 23  5  1  0  0  0  0
 26  7  1  0  0  0  0
 28  8  1  0  0  0  0
 29  8  1  0  0  0  0
M  END
>  <HBA>
4

>  <HBD>
0

>  <TPSA>
36.92

>  <cid>
66218

>  <dipole>
2.3

>  <excitation_energy_1>
5.913

>  <excitation_energy_2>
5.928

>  <excitation_energy_3>
6.0

>  <excitation_energy_4>
6.008

>  <homo_energy>
-7.007

>  <homo_lumo_gap>
7.048

>  <logP>
1.091

>  <lumo_energy>
0.041

>  <melting_point>
-43.04

>  <molecular_refractivity>
53.9

>  <oscillator_strength_1>
0.0

>  <oscillator_strength_2>
0.0039

>  <oscillator_strength_3>
0.0021

>  <oscillator_strength_4>
0.0005

>  <open_babel_can_smiles>
C=C[C@@H]1OC[C@]2(CO1)CO[C@@H](OC2)C=C

>  <mulliken_charges>
31
1   -0.324997
2   -0.325096
3   -0.115228
4   -0.115032
5   -0.056698
6   -0.044872
7   -0.056638
8   -0.044889
9   0.314464
10   0.314349
11   -0.004474
12   -0.485319
13   -0.483967
14   -0.485249
15   -0.483843
16   0.146378
17   0.161067
18   0.146358
19   0.161025
20   0.142878
21   0.142849
22   0.132424
23   0.149744
24   0.175339
25   0.130631
26   0.132364
27   0.149728
28   0.175401
29   0.130581
30   0.160374
31   0.160347

>  <lowdin_charges>
31
1   -0.322895
2   -0.320503
3   -0.187874
4   -0.186058
5   -0.137915
6   -0.141707
7   -0.138855
8   -0.138115
9   0.094607
10   0.093545
11   -0.058241
12   -0.265521
13   -0.25895
14   -0.265414
15   -0.259257
16   0.164157
17   0.168836
18   0.163828
19   0.166675
20   0.162976
21   0.160826
22   0.135931
23   0.151987
24   0.166774
25   0.13756
26   0.135008
27   0.153627
28   0.166059
29   0.135829
30   0.161319
31   0.161762

$$$$

