PCCDB-ID:  38937
public computational chemistry database (PCCDB) project, http://pccdb.org

 38 40  0  0  1  0  0  0  0  0999 V2000
    3.1291   -0.9938    2.3953 C   0  0  0  0  0  0  0  0  0  0  0  0
    5.1504    0.9956   -0.1252 C   0  0  0  0  0  0  0  0  0  0  0  0
    5.5912    2.4333   -0.2035 C   0  0  0  0  0  0  0  0  0  0  0  0
    4.3886    0.6936    1.1747 C   0  0  0  0  0  0  0  0  0  0  0  0
   10.0357    4.3871   -0.6657 C   0  0  0  0  0  0  0  0  0  0  0  0
    8.0272    4.8258    0.7899 C   0  0  0  0  0  0  0  0  0  0  0  0
    9.0601    2.5331    0.7335 C   0  0  0  0  0  0  0  0  0  0  0  0
    7.7810    4.7796   -1.7176 C   0  0  0  0  0  0  0  0  0  0  0  0
    8.8134    2.4855   -1.7763 C   0  0  0  0  0  0  0  0  0  0  0  0
    9.3535    4.0463    0.6762 C   0  0  1  0  0  0  0  0  0  0  0  0
    9.1063    3.9989   -1.8355 C   0  0  2  0  0  0  0  0  0  0  0  0
    7.0898    4.4280   -0.3773 C   0  0  1  0  0  0  0  0  0  0  0  0
    8.1209    2.1357   -0.4341 C   0  0  2  0  0  0  0  0  0  0  0  0
    6.8302    2.9306   -0.3241 C   0  0  0  0  0  0  0  0  0  0  0  0
    3.8509   -0.6643    1.1718 N   0  0  0  0  0  0  0  0  0  0  0  0
    2.8028   -2.0387    2.3590 H   0  0  0  0  0  0  0  0  0  0  0  0
    2.2318   -0.3674    2.4658 H   0  0  0  0  0  0  0  0  0  0  0  0
    3.7110   -0.8449    3.3251 H   0  0  0  0  0  0  0  0  0  0  0  0
    6.0040    0.3118   -0.2108 H   0  0  0  0  0  0  0  0  0  0  0  0
    4.4788    0.7617   -0.9638 H   0  0  0  0  0  0  0  0  0  0  0  0
    4.7723    3.1546   -0.1405 H   0  0  0  0  0  0  0  0  0  0  0  0
    3.5400    1.3861    1.2664 H   0  0  0  0  0  0  0  0  0  0  0  0
    5.0479    0.8980    2.0419 H   0  0  0  0  0  0  0  0  0  0  0  0
   10.9914    3.8508   -0.7498 H   0  0  0  0  0  0  0  0  0  0  0  0
   10.2671    5.4605   -0.7085 H   0  0  0  0  0  0  0  0  0  0  0  0
    8.2189    5.9077    0.7595 H   0  0  0  0  0  0  0  0  0  0  0  0
    7.5403    4.6099    1.7498 H   0  0  0  0  0  0  0  0  0  0  0  0
    8.5940    2.2725    1.6927 H   0  0  0  0  0  0  0  0  0  0  0  0
    9.9970    1.9624    0.6629 H   0  0  0  0  0  0  0  0  0  0  0  0
    7.1171    4.5315   -2.5561 H   0  0  0  0  0  0  0  0  0  0  0  0
    7.9727    5.8609   -1.7643 H   0  0  0  0  0  0  0  0  0  0  0  0
    9.7491    1.9157   -1.8675 H   0  0  0  0  0  0  0  0  0  0  0  0
    8.1705    2.1896   -2.6155 H   0  0  0  0  0  0  0  0  0  0  0  0
   10.0159    4.3231    1.5074 H   0  0  0  0  0  0  0  0  0  0  0  0
    9.5931    4.2408   -2.7898 H   0  0  0  0  0  0  0  0  0  0  0  0
    6.1412    4.9733   -0.2946 H   0  0  0  0  0  0  0  0  0  0  0  0
    7.9263    1.0590   -0.3952 H   0  0  0  0  0  0  0  0  0  0  0  0
    4.6205   -1.3219    1.0539 H   0  0  0  0  0  0  0  0  0  0  0  0
  1 17  1  0  0  0  0
  1 18  1  0  0  0  0
  2  4  1  0  0  0  0
  3 21  1  0  0  0  0
  3  2  1  0  0  0  0
  4 22  1  0  0  0  0
  4 23  1  0  0  0  0
  5 10  1  0  0  0  0
  6 27  1  0  0  0  0
  7 28  1  0  0  0  0
  8 12  1  0  0  0  0
  9 13  1  0  0  0  0
 10  7  1  0  0  0  0
 10  6  1  0  0  0  0
 10 34  1  1  0  0  0
 11 35  1  6  0  0  0
 11  9  1  0  0  0  0
 11  8  1  0  0  0  0
 11  5  1  0  0  0  0
 12 14  1  0  0  0  0
 12 36  1  1  0  0  0
 12  6  1  0  0  0  0
 13 37  1  1  0  0  0
 13 14  1  0  0  0  0
 13  7  1  0  0  0  0
 14  3  2  0  0  0  0
 15  4  1  0  0  0  0
 15  1  1  0  0  0  0
 16  1  1  0  0  0  0
 19  2  1  0  0  0  0
 20  2  1  0  0  0  0
 24  5  1  0  0  0  0
 25  5  1  0  0  0  0
 26  6  1  0  0  0  0
 29  7  1  0  0  0  0
 30  8  1  0  0  0  0
 31  8  1  0  0  0  0
 32  9  1  0  0  0  0
 33  9  1  0  0  0  0
 38 15  1  0  0  0  0
M  END
>  <HBA>
1

>  <HBD>
1

>  <TPSA>
12.03

>  <cid>
38937

>  <dipole>
1.2

>  <excitation_energy_1>
5.292

>  <excitation_energy_2>
5.45

>  <excitation_energy_3>
5.676

>  <excitation_energy_4>
5.792

>  <homo_energy>
-5.845

>  <homo_lumo_gap>
6.759

>  <logP>
3.369

>  <lumo_energy>
0.914

>  <melting_point>
76.25

>  <molecular_refractivity>
65.4

>  <oscillator_strength_1>
0.0005

>  <oscillator_strength_2>
0.0103

>  <oscillator_strength_3>
0.0036

>  <oscillator_strength_4>
0.0012

>  <open_babel_can_smiles>
CNCC/C=C/1\[C@@H]2C[C@@H]3C[C@H]1C[C@H](C2)C3

>  <mulliken_charges>
38
1   -0.298233
2   -0.304349
3   -0.216174
4   -0.111468
5   -0.266544
6   -0.26326
7   -0.264228
8   -0.263246
9   -0.264349
10   -0.089765
11   -0.090289
12   -0.162868
13   -0.164755
14   0.208008
15   -0.540896
16   0.146338
17   0.15051
18   0.117703
19   0.130716
20   0.154039
21   0.110851
22   0.136198
23   0.111273
24   0.124688
25   0.125285
26   0.125079
27   0.130861
28   0.130826
29   0.125084
30   0.131743
31   0.124973
32   0.1251
33   0.132825
34   0.116078
35   0.116455
36   0.117279
37   0.11851
38   0.290003

>  <lowdin_charges>
38
1   -0.358544
2   -0.278911
3   -0.195333
4   -0.201014
5   -0.279368
6   -0.276845
7   -0.278078
8   -0.277691
9   -0.278713
10   -0.132738
11   -0.132003
12   -0.126888
13   -0.128964
14   -0.017313
15   -0.365206
16   0.148197
17   0.147686
18   0.119529
19   0.141422
20   0.155594
21   0.144888
22   0.140034
23   0.115846
24   0.138845
25   0.137776
26   0.137531
27   0.142486
28   0.142353
29   0.139401
30   0.143701
31   0.137475
32   0.139478
33   0.14433
34   0.139912
35   0.1393
36   0.141369
37   0.140448
38   0.250005

$$$$

