PCCDB-ID:  11606
public computational chemistry database (PCCDB) project, http://pccdb.org

 17 16  0  0  0  0  0  0  0  0999 V2000
    1.4993   -0.7667   -0.3072 C   0  0  0  0  0  0  0  0  0  0  0  0
    4.5655    3.2241   -2.1507 C   0  0  0  0  0  0  0  0  0  0  0  0
    4.7144    0.4412   -1.6925 C   0  0  0  0  0  0  0  0  0  0  0  0
    2.5805    0.2224   -0.6619 C   0  0  0  0  0  0  0  0  0  0  0  0
    4.4075    0.9174   -3.0217 N   0  0  0  0  0  0  0  0  0  0  0  0
    4.3318    2.1799   -3.2125 N   0  0  0  0  0  0  0  0  0  0  0  0
    2.5215    1.4207   -0.4798 O   0  0  0  0  0  0  0  0  0  0  0  0
    4.0621    2.6379   -4.3357 O   0  0  0  0  0  0  0  0  0  0  0  0
    3.6414   -0.4045   -1.2252 O   0  0  0  0  0  0  0  0  0  0  0  0
    0.7408   -0.2741    0.3021 H   0  0  0  0  0  0  0  0  0  0  0  0
    1.9204   -1.6242    0.2254 H   0  0  0  0  0  0  0  0  0  0  0  0
    1.0397   -1.1442   -1.2274 H   0  0  0  0  0  0  0  0  0  0  0  0
    5.6060    3.1801   -1.8224 H   0  0  0  0  0  0  0  0  0  0  0  0
    3.8835    3.0366   -1.3205 H   0  0  0  0  0  0  0  0  0  0  0  0
    4.3586    4.1716   -2.6397 H   0  0  0  0  0  0  0  0  0  0  0  0
    4.9141    1.2037   -0.9371 H   0  0  0  0  0  0  0  0  0  0  0  0
    5.5647   -0.2402   -1.7687 H   0  0  0  0  0  0  0  0  0  0  0  0
  1 11  1  0  0  0  0
  1 10  1  0  0  0  0
  2 13  1  0  0  0  0
  2 14  1  0  0  0  0
  3  9  1  0  0  0  0
  3 16  1  0  0  0  0
  4  7  2  0  0  0  0
  4  1  1  0  0  0  0
  5  3  1  0  0  0  0
  6  5  1  0  0  0  0
  6  2  1  0  0  0  0
  8  6  1  0  0  0  0
  9  4  1  0  0  0  0
 12  1  1  0  0  0  0
 15  2  1  0  0  0  0
 17  3  1  0  0  0  0
M  RAD  2   5   2   8   2
M  END
>  <HBA>
4

>  <HBD>
0

>  <TPSA>
67.41

>  <cid>
11606

>  <dipole>
3.85

>  <excitation_energy_1>
4.117

>  <excitation_energy_2>
4.924

>  <excitation_energy_3>
5.508

>  <excitation_energy_4>
5.787

>  <homo_energy>
-7.031

>  <homo_lumo_gap>
5.652

>  <logP>
0.623

>  <lumo_energy>
-1.38

>  <melting_point>
14.44

>  <molecular_refractivity>
30.85

>  <oscillator_strength_1>
0.0001

>  <oscillator_strength_2>
0.0046

>  <oscillator_strength_3>
0.0777

>  <oscillator_strength_4>
0.0164

>  <open_babel_can_smiles>
CN([N]COC(=O)C)[O]

>  <mulliken_charges>
17
1   -0.526123
2   -0.376609
3   0.041065
4   0.611449
5   -0.238299
6   0.258239
7   -0.46997
8   -0.409591
9   -0.43174
10   0.185993
11   0.18482
12   0.197024
13   0.187001
14   0.238734
15   0.210371
16   0.159532
17   0.178105

>  <lowdin_charges>
17
1   -0.463666
2   -0.393872
3   -0.09312
4   0.208108
5   -0.184704
6   0.247484
7   -0.270738
8   -0.287657
9   -0.186276
10   0.179187
11   0.180086
12   0.187233
13   0.172791
14   0.197229
15   0.189399
16   0.151052
17   0.167465

$$$$

