PCCDB-ID:  25914
public computational chemistry database (PCCDB) project, http://pccdb.org

 22 21  0  0  0  0  0  0  0  0999 V2000
    0.2218    1.3630   -1.2176 C   0  0  0  0  0  0  0  0  0  0  0  0
    7.6495    2.2043   -1.6419 C   0  0  0  0  0  0  0  0  0  0  0  0
    1.5775    0.7070   -0.9354 C   0  0  0  0  0  0  0  0  0  0  0  0
    6.5452    1.2441   -1.2056 C   0  0  0  0  0  0  0  0  0  0  0  0
    2.7663    1.5851   -1.3450 C   0  0  0  0  0  0  0  0  0  0  0  0
    4.1236    0.9363   -1.0657 C   0  0  0  0  0  0  0  0  0  0  0  0
    5.2240    1.8273   -1.4261 N   0  0  0  0  0  0  0  0  0  0  0  0
   -0.6077    0.7137   -0.9149 H   0  0  0  0  0  0  0  0  0  0  0  0
    0.1015    1.5809   -2.2860 H   0  0  0  0  0  0  0  0  0  0  0  0
    0.1199    2.3102   -0.6741 H   0  0  0  0  0  0  0  0  0  0  0  0
    8.6393    1.7835   -1.4331 H   0  0  0  0  0  0  0  0  0  0  0  0
    7.5567    3.1604   -1.1165 H   0  0  0  0  0  0  0  0  0  0  0  0
    7.5962    2.4050   -2.7199 H   0  0  0  0  0  0  0  0  0  0  0  0
    1.6345   -0.2556   -1.4630 H   0  0  0  0  0  0  0  0  0  0  0  0
    1.6533    0.4725    0.1358 H   0  0  0  0  0  0  0  0  0  0  0  0
    6.6420    1.0369   -0.1312 H   0  0  0  0  0  0  0  0  0  0  0  0
    6.6750    0.2700   -1.7192 H   0  0  0  0  0  0  0  0  0  0  0  0
    2.7237    2.5470   -0.8176 H   0  0  0  0  0  0  0  0  0  0  0  0
    2.6903    1.8170   -2.4189 H   0  0  0  0  0  0  0  0  0  0  0  0
    4.1785   -0.0442   -1.5820 H   0  0  0  0  0  0  0  0  0  0  0  0
    4.2096    0.7190    0.0084 H   0  0  0  0  0  0  0  0  0  0  0  0
    5.1362    2.0734   -2.4127 H   0  0  0  0  0  0  0  0  0  0  0  0
  1  3  1  0  0  0  0
  1  8  1  0  0  0  0
  1 10  1  0  0  0  0
  2 11  1  0  0  0  0
  2  4  1  0  0  0  0
  2 12  1  0  0  0  0
  3 15  1  0  0  0  0
  4 16  1  0  0  0  0
  5  6  1  0  0  0  0
  5  3  1  0  0  0  0
  5 18  1  0  0  0  0
  6 21  1  0  0  0  0
  7  4  1  0  0  0  0
  7  6  1  0  0  0  0
  9  1  1  0  0  0  0
 13  2  1  0  0  0  0
 14  3  1  0  0  0  0
 17  4  1  0  0  0  0
 19  5  1  0  0  0  0
 20  6  1  0  0  0  0
 22  7  1  0  0  0  0
M  END
>  <HBA>
1

>  <HBD>
1

>  <TPSA>
12.03

>  <cid>
25914

>  <dipole>
0.87

>  <excitation_energy_1>
5.48

>  <excitation_energy_2>
5.865

>  <excitation_energy_3>
6.073

>  <excitation_energy_4>
6.172

>  <homo_energy>
-5.831

>  <homo_lumo_gap>
8.248

>  <logP>
1.787

>  <lumo_energy>
2.416

>  <melting_point>
0.62

>  <molecular_refractivity>
33.76

>  <oscillator_strength_1>
0.0017

>  <oscillator_strength_2>
0.0275

>  <oscillator_strength_3>
0.019

>  <oscillator_strength_4>
0.0505

>  <open_babel_can_smiles>
CCCCNCC

>  <mulliken_charges>
22
1   -0.440571
2   -0.450651
3   -0.250084
4   -0.103949
5   -0.257737
6   -0.107624
7   -0.551185
8   0.141662
9   0.140887
10   0.143323
11   0.142862
12   0.158746
13   0.136833
14   0.130674
15   0.132246
16   0.137948
17   0.107147
18   0.144656
19   0.121035
20   0.104447
21   0.134491
22   0.284845

>  <lowdin_charges>
22
1   -0.442819
2   -0.445852
3   -0.269779
4   -0.19474
5   -0.276775
6   -0.198636
7   -0.36312
8   0.149922
9   0.144497
10   0.147173
11   0.151437
12   0.155727
13   0.142344
14   0.138444
15   0.138128
16   0.138172
17   0.112634
18   0.146861
19   0.132723
20   0.111655
21   0.136971
22   0.245032

$$$$

