PCCDB-ID:  16628
public computational chemistry database (PCCDB) project, http://pccdb.org

 24 24  0  0  1  0  0  0  0  0999 V2000
    0.9269    0.0209    0.0890 C   0  0  0  0  0  0  0  0  0  0  0  0
    2.5484   -1.4035    2.2847 C   0  0  0  0  0  0  0  0  0  0  0  0
    4.5679    1.3615    0.6028 C   0  0  0  0  0  0  0  0  0  0  0  0
    5.1784    0.1506    1.3240 C   0  0  0  0  0  0  0  0  0  0  0  0
    3.0327    1.3320    0.6520 C   0  0  0  0  0  0  0  0  0  0  0  0
    4.6016   -1.1678    0.7837 C   0  0  0  0  0  0  0  0  0  0  0  0
    2.4609    0.0084    0.1070 C   0  0  1  0  0  0  0  0  0  0  0  0
    3.0581   -1.2227    0.8436 C   0  0  2  0  0  0  0  0  0  0  0  0
    0.5529    0.8080   -0.5768 H   0  0  0  0  0  0  0  0  0  0  0  0
    0.5099    0.2108    1.0852 H   0  0  0  0  0  0  0  0  0  0  0  0
    0.5225   -0.9355   -0.2654 H   0  0  0  0  0  0  0  0  0  0  0  0
    3.0065   -2.2904    2.7388 H   0  0  0  0  0  0  0  0  0  0  0  0
    1.4628   -1.5448    2.3142 H   0  0  0  0  0  0  0  0  0  0  0  0
    2.7867   -0.5480    2.9264 H   0  0  0  0  0  0  0  0  0  0  0  0
    4.8935    1.3553   -0.4484 H   0  0  0  0  0  0  0  0  0  0  0  0
    4.9449    2.2957    1.0391 H   0  0  0  0  0  0  0  0  0  0  0  0
    4.9819    0.2310    2.4022 H   0  0  0  0  0  0  0  0  0  0  0  0
    6.2703    0.1532    1.2110 H   0  0  0  0  0  0  0  0  0  0  0  0
    2.6217    2.1710    0.0743 H   0  0  0  0  0  0  0  0  0  0  0  0
    2.6951    1.4818    1.6879 H   0  0  0  0  0  0  0  0  0  0  0  0
    5.0252   -2.0199    1.3324 H   0  0  0  0  0  0  0  0  0  0  0  0
    4.9175   -1.2857   -0.2634 H   0  0  0  0  0  0  0  0  0  0  0  0
    2.7973   -0.0747   -0.9395 H   0  0  0  0  0  0  0  0  0  0  0  0
    2.7408   -2.1150    0.2826 H   0  0  0  0  0  0  0  0  0  0  0  0
  1  7  1  0  0  0  0
  1 10  1  0  0  0  0
  2 13  1  0  0  0  0
  2 12  1  0  0  0  0
  2 14  1  0  0  0  0
  3  5  1  0  0  0  0
  3 16  1  0  0  0  0
  3  4  1  0  0  0  0
  4 17  1  0  0  0  0
  5 20  1  0  0  0  0
  6  8  1  0  0  0  0
  6  4  1  0  0  0  0
  6 21  1  0  0  0  0
  7 23  1  6  0  0  0
  7  5  1  0  0  0  0
  7  8  1  0  0  0  0
  8 24  1  6  0  0  0
  8  2  1  0  0  0  0
  9  1  1  0  0  0  0
 11  1  1  0  0  0  0
 15  3  1  0  0  0  0
 18  4  1  0  0  0  0
 19  5  1  0  0  0  0
 22  6  1  0  0  0  0
M  END
>  <HBA>
0

>  <HBD>
0

>  <TPSA>
0.0

>  <cid>
16628

>  <dipole>
0.06

>  <excitation_energy_1>
7.182

>  <excitation_energy_2>
7.273

>  <excitation_energy_3>
7.557

>  <excitation_energy_4>
7.637

>  <homo_energy>
-7.725

>  <homo_lumo_gap>
9.861

>  <logP>
2.833

>  <lumo_energy>
2.136

>  <melting_point>
-5.31

>  <molecular_refractivity>
38.46

>  <oscillator_strength_1>
0.0009

>  <oscillator_strength_2>
0.0058

>  <oscillator_strength_3>
0.0121

>  <oscillator_strength_4>
0.0103

>  <open_babel_can_smiles>
C[C@@H]1CCCC[C@@H]1C

>  <mulliken_charges>
24
1   -0.453133
2   -0.457939
3   -0.258881
4   -0.259392
5   -0.258134
6   -0.262556
7   -0.067126
8   -0.069844
9   0.138421
10   0.142515
11   0.137618
12   0.13895
13   0.144959
14   0.143846
15   0.125421
16   0.127424
17   0.130579
18   0.128521
19   0.125766
20   0.126695
21   0.124685
22   0.12408
23   0.113617
24   0.113907

>  <lowdin_charges>
24
1   -0.446956
2   -0.451334
3   -0.276422
4   -0.27576
5   -0.280137
6   -0.279173
7   -0.125464
8   -0.12812
9   0.148909
10   0.146084
11   0.14672
12   0.149075
13   0.14832
14   0.146203
15   0.13486
16   0.14216
17   0.136212
18   0.140775
19   0.142363
20   0.135763
21   0.14119
22   0.136247
23   0.132101
24   0.136384

$$$$

