PCCDB-ID:  67477
public computational chemistry database (PCCDB) project, http://pccdb.org

 20 22  0  0  0  0  0  0  0  0999 V2000
   -3.2794    0.1683    0.0012 C   0  0  0  0  0  0  0  0  0  0  0  0
   -2.6819    1.4382    0.0001 C   0  0  0  0  0  0  0  0  0  0  0  0
   -2.4866   -0.9683    0.0012 C   0  0  0  0  0  0  0  0  0  0  0  0
   -1.2993    1.5663   -0.0008 C   0  0  0  0  0  0  0  0  0  0  0  0
   -0.2313   -2.0473    0.0025 C   0  0  0  0  0  0  0  0  0  0  0  0
    1.1230   -1.9412    0.0015 C   0  0  0  0  0  0  0  0  0  0  0  0
    1.7872    1.5318   -0.0005 C   0  0  0  0  0  0  0  0  0  0  0  0
   -1.0798   -0.8774    0.0015 C   0  0  0  0  0  0  0  0  0  0  0  0
   -0.4985    0.4167    0.0005 C   0  0  0  0  0  0  0  0  0  0  0  0
    1.7184   -0.6429   -0.0001 C   0  0  0  0  0  0  0  0  0  0  0  0
    3.0238    1.0888   -0.0019 N   0  0  0  0  0  0  0  0  0  0  0  0
    2.9915   -0.2829   -0.0018 N   0  0  0  0  0  0  0  0  0  0  0  0
    0.8994    0.4835    0.0009 N   0  0  0  0  0  0  0  0  0  0  0  0
   -4.3614    0.0771    0.0020 H   0  0  0  0  0  0  0  0  0  0  0  0
   -3.3006    2.3307   -0.0001 H   0  0  0  0  0  0  0  0  0  0  0  0
   -2.9430   -1.9548    0.0004 H   0  0  0  0  0  0  0  0  0  0  0  0
   -0.8429    2.5507   -0.0035 H   0  0  0  0  0  0  0  0  0  0  0  0
   -0.7077   -3.0235    0.0046 H   0  0  0  0  0  0  0  0  0  0  0  0
    1.7801   -2.8031    0.0022 H   0  0  0  0  0  0  0  0  0  0  0  0
    1.4957    2.5709    0.0008 H   0  0  0  0  0  0  0  0  0  0  0  0
  1  3  2  0  0  0  0
  1 14  1  0  0  0  0
  2  1  1  0  0  0  0
  3  8  1  0  0  0  0
  4  2  2  0  0  0  0
  4  9  1  0  0  0  0
  5 18  1  0  0  0  0
  6 19  1  0  0  0  0
  6  5  2  0  0  0  0
  7 20  1  0  0  0  0
  7 13  1  0  0  0  0
  8  5  1  0  0  0  0
  9 13  1  0  0  0  0
  9  8  2  0  0  0  0
 10 13  1  0  0  0  0
 10  6  1  0  0  0  0
 11 12  1  0  0  0  0
 11  7  2  0  0  0  0
 12 10  2  0  0  0  0
 15  2  1  0  0  0  0
 16  3  1  0  0  0  0
 17  4  1  0  0  0  0
M  END
>  <HBA>
3

>  <HBD>
0

>  <TPSA>
30.19

>  <cid>
67477

>  <dipole>
6.07

>  <excitation_energy_1>
4.076

>  <excitation_energy_2>
4.324

>  <excitation_energy_3>
4.45

>  <excitation_energy_4>
4.908

>  <homo_energy>
-6.18

>  <homo_lumo_gap>
4.563

>  <logP>
1.883

>  <lumo_energy>
-1.616

>  <melting_point>
117.22

>  <molecular_refractivity>
50.49

>  <oscillator_strength_1>
0.1675

>  <oscillator_strength_2>
0.0035

>  <oscillator_strength_3>
0.0006

>  <oscillator_strength_4>
0.0908

>  <open_babel_can_smiles>
c1ccc2c(c1)n1cnnc1cc2

>  <mulliken_charges>
20
1   -0.122365
2   -0.142702
3   -0.211742
4   -0.151449
5   -0.156104
6   -0.16326
7   0.197928
8   0.123599
9   0.327246
10   0.526779
11   -0.290757
12   -0.388554
13   -0.618963
14   0.142085
15   0.145264
16   0.143462
17   0.148674
18   0.147797
19   0.167829
20   0.175231

>  <lowdin_charges>
20
1   -0.15459
2   -0.14137
3   -0.144808
4   -0.172107
5   -0.151389
6   -0.150761
7   -0.112333
8   -0.013878
9   0.054852
10   0.043027
11   -0.116779
12   -0.151391
13   0.019702
14   0.163257
15   0.167039
16   0.164377
17   0.167075
18   0.168098
19   0.185119
20   0.176861

$$$$

