PCCDB-ID:  12185
public computational chemistry database (PCCDB) project, http://pccdb.org

 15 14  0  0  0  0  0  0  0  0999 V2000
    3.7994    1.2273   -0.8142 C   0  0  0  0  0  0  0  0  0  0  0  0
    3.1149   -0.1243   -0.6842 C   0  0  0  0  0  0  0  0  0  0  0  0
    3.8576   -1.5224    2.6832 C   0  0  0  0  0  0  0  0  0  0  0  0
    4.0882   -1.1572    1.2274 C   0  0  0  0  0  0  0  0  0  0  0  0
    5.1042   -1.4161    0.6183 O   0  0  0  0  0  0  0  0  0  0  0  0
    3.0168   -0.5306    0.7064 O   0  0  0  0  0  0  0  0  0  0  0  0
    5.1233   -0.7668    3.7845 S   0  0  0  0  0  0  0  0  0  0  0  0
    3.7915    1.5465   -1.8627 H   0  0  0  0  0  0  0  0  0  0  0  0
    4.8392    1.1663   -0.4814 H   0  0  0  0  0  0  0  0  0  0  0  0
    3.2807    1.9856   -0.2191 H   0  0  0  0  0  0  0  0  0  0  0  0
    3.6519   -0.8985   -1.2373 H   0  0  0  0  0  0  0  0  0  0  0  0
    2.0775   -0.0862   -1.0246 H   0  0  0  0  0  0  0  0  0  0  0  0
    3.8867   -2.6115    2.7815 H   0  0  0  0  0  0  0  0  0  0  0  0
    2.8882   -1.1599    3.0273 H   0  0  0  0  0  0  0  0  0  0  0  0
    6.1850   -1.2489    3.1042 H   0  0  0  0  0  0  0  0  0  0  0  0
  1  2  1  0  0  0  0
  1  9  1  0  0  0  0
  1 10  1  0  0  0  0
  2  6  1  0  0  0  0
  3 13  1  0  0  0  0
  3 14  1  0  0  0  0
  3  7  1  0  0  0  0
  4  3  1  0  0  0  0
  5  4  2  0  0  0  0
  6  4  1  0  0  0  0
  8  1  1  0  0  0  0
 11  2  1  0  0  0  0
 12  2  1  0  0  0  0
 15  7  1  0  0  0  0
M  END
>  <HBA>
3

>  <HBD>
1

>  <TPSA>
65.1

>  <cid>
12185

>  <dipole>
2.11

>  <excitation_energy_1>
4.893

>  <excitation_energy_2>
5.606

>  <excitation_energy_3>
5.746

>  <excitation_energy_4>
6.298

>  <homo_energy>
-6.634

>  <homo_lumo_gap>
6.278

>  <logP>
0.479

>  <lumo_energy>
-0.356

>  <melting_point>
7.47

>  <molecular_refractivity>
30.56

>  <oscillator_strength_1>
0.0053

>  <oscillator_strength_2>
0.014

>  <oscillator_strength_3>
0.0093

>  <oscillator_strength_4>
0.0216

>  <open_babel_can_smiles>
CCOC(=O)CS

>  <mulliken_charges>
15
1   -0.462185
2   -0.050063
3   -0.501548
4   0.631439
5   -0.470671
6   -0.447432
7   -0.061371
8   0.152772
9   0.180318
10   0.1617
11   0.173187
12   0.156416
13   0.208846
14   0.205634
15   0.122958

>  <lowdin_charges>
15
1   -0.452881
2   -0.126701
3   -0.394086
4   0.193571
5   -0.270526
6   -0.187134
7   -0.06103
8   0.15923
9   0.166521
10   0.159808
11   0.16151
12   0.15337
13   0.180861
14   0.1858
15   0.131687

$$$$

