PCCDB-ID:  25662
public computational chemistry database (PCCDB) project, http://pccdb.org

 36 36  0  0  1  0  0  0  0  0999 V2000
    4.0978    1.1915   -1.8969 C   0  0  0  0  0  0  0  0  0  0  0  0
   -0.7949   -3.5340   -0.5290 C   0  0  0  0  0  0  0  0  0  0  0  0
    0.7442   -5.3693   -0.4911 C   0  0  0  0  0  0  0  0  0  0  0  0
    2.9096    0.4261   -1.3090 C   0  0  0  0  0  0  0  0  0  0  0  0
    2.3798   -1.3311   -6.0754 C   0  0  0  0  0  0  0  0  0  0  0  0
    3.4891   -1.8936   -5.4450 C   0  0  0  0  0  0  0  0  0  0  0  0
    1.4127   -0.6816   -5.3055 C   0  0  0  0  0  0  0  0  0  0  0  0
    3.6342   -1.8104   -4.0582 C   0  0  0  0  0  0  0  0  0  0  0  0
    1.5579   -0.5994   -3.9213 C   0  0  0  0  0  0  0  0  0  0  0  0
    1.6280   -1.7389   -1.0262 C   0  0  0  0  0  0  0  0  0  0  0  0
    1.4834   -3.2351   -1.3292 C   0  0  0  0  0  0  0  0  0  0  0  0
    2.6696   -1.1633   -3.2764 C   0  0  0  0  0  0  0  0  0  0  0  0
    2.8137   -1.0566   -1.7565 C   0  0  1  0  0  0  0  0  0  0  0  0
    0.6018   -3.9232   -0.3818 N   0  0  0  0  0  0  0  0  0  0  0  0
    4.0343   -1.7303   -1.4065 O   0  0  0  0  0  0  0  0  0  0  0  0
    5.0378    0.6748   -1.6802 H   0  0  0  0  0  0  0  0  0  0  0  0
    4.1538    2.2006   -1.4736 H   0  0  0  0  0  0  0  0  0  0  0  0
    4.0114    1.2853   -2.9841 H   0  0  0  0  0  0  0  0  0  0  0  0
   -1.4009   -4.0590    0.2176 H   0  0  0  0  0  0  0  0  0  0  0  0
   -1.2077   -3.7688   -1.5311 H   0  0  0  0  0  0  0  0  0  0  0  0
   -0.9143   -2.4603   -0.3568 H   0  0  0  0  0  0  0  0  0  0  0  0
    0.1255   -5.8588    0.2695 H   0  0  0  0  0  0  0  0  0  0  0  0
    1.7875   -5.6534   -0.3158 H   0  0  0  0  0  0  0  0  0  0  0  0
    0.4436   -5.7677   -1.4810 H   0  0  0  0  0  0  0  0  0  0  0  0
    1.9721    0.9374   -1.5614 H   0  0  0  0  0  0  0  0  0  0  0  0
    2.9701    0.4367   -0.2099 H   0  0  0  0  0  0  0  0  0  0  0  0
    2.2680   -1.3967   -7.1544 H   0  0  0  0  0  0  0  0  0  0  0  0
    4.2496   -2.4018   -6.0326 H   0  0  0  0  0  0  0  0  0  0  0  0
    0.5430   -0.2365   -5.7822 H   0  0  0  0  0  0  0  0  0  0  0  0
    4.4982   -2.2477   -3.5728 H   0  0  0  0  0  0  0  0  0  0  0  0
    0.7930   -0.0895   -3.3409 H   0  0  0  0  0  0  0  0  0  0  0  0
    1.7770   -1.6224    0.0572 H   0  0  0  0  0  0  0  0  0  0  0  0
    0.7062   -1.1983   -1.2706 H   0  0  0  0  0  0  0  0  0  0  0  0
    2.4755   -3.6914   -1.2499 H   0  0  0  0  0  0  0  0  0  0  0  0
    1.1501   -3.3780   -2.3751 H   0  0  0  0  0  0  0  0  0  0  0  0
    4.1207   -1.6709   -0.4417 H   0  0  0  0  0  0  0  0  0  0  0  0
  1 16  1  0  0  0  0
  1 17  1  0  0  0  0
  1  4  1  0  0  0  0
  2 14  1  0  0  0  0
  2 21  1  0  0  0  0
  2 19  1  0  0  0  0
  3 14  1  0  0  0  0
  3 23  1  0  0  0  0
  3 22  1  0  0  0  0
  4 26  1  0  0  0  0
  5  6  2  0  0  0  0
  5  7  1  0  0  0  0
  6  8  1  0  0  0  0
  7  9  2  0  0  0  0
  8 30  1  0  0  0  0
  8 12  2  0  0  0  0
  9 31  1  0  0  0  0
  9 12  1  0  0  0  0
 10 32  1  0  0  0  0
 11 34  1  0  0  0  0
 11 10  1  0  0  0  0
 11 14  1  0  0  0  0
 12 13  1  0  0  0  0
 13 15  1  1  0  0  0
 13  4  1  0  0  0  0
 13 10  1  0  0  0  0
 15 36  1  0  0  0  0
 18  1  1  0  0  0  0
 20  2  1  0  0  0  0
 24  3  1  0  0  0  0
 25  4  1  0  0  0  0
 27  5  1  0  0  0  0
 28  6  1  0  0  0  0
 29  7  1  0  0  0  0
 33 10  1  0  0  0  0
 35 11  1  0  0  0  0
M  END
>  <HBA>
2

>  <HBD>
1

>  <TPSA>
23.47

>  <cid>
25662

>  <dipole>
1.05

>  <excitation_energy_1>
4.946

>  <excitation_energy_2>
5.038

>  <excitation_energy_3>
5.1

>  <excitation_energy_4>
5.358

>  <homo_energy>
-5.589

>  <homo_lumo_gap>
5.668

>  <logP>
2.236

>  <lumo_energy>
0.079

>  <melting_point>
31.37

>  <molecular_refractivity>
64.19

>  <oscillator_strength_1>
0.0019

>  <oscillator_strength_2>
0.0013

>  <oscillator_strength_3>
0.0068

>  <oscillator_strength_4>
0.0015

>  <open_babel_can_smiles>
CC[C@](c1ccccc1)(CCN(C)C)O

>  <mulliken_charges>
36
1   -0.445644
2   -0.299077
3   -0.291389
4   -0.265532
5   -0.127404
6   -0.13118
7   -0.136355
8   -0.170892
9   -0.18308
10   -0.289054
11   -0.117378
12   0.119823
13   0.249557
14   -0.373959
15   -0.652109
16   0.153748
17   0.138245
18   0.158768
19   0.146015
20   0.116605
21   0.149273
22   0.144218
23   0.147433
24   0.117229
25   0.134294
26   0.118753
27   0.126134
28   0.127331
29   0.126387
30   0.156219
31   0.123254
32   0.131167
33   0.135752
34   0.147663
35   0.123433
36   0.391751

>  <lowdin_charges>
36
1   -0.446584
2   -0.357955
3   -0.355473
4   -0.281512
5   -0.15929
6   -0.156918
7   -0.157797
8   -0.162517
9   -0.171838
10   -0.291186
11   -0.203647
12   -0.007678
13   0.121214
14   -0.185854
15   -0.449511
16   0.153667
17   0.148241
18   0.154676
19   0.150455
20   0.119078
21   0.1466
22   0.148747
23   0.147738
24   0.11965
25   0.145779
26   0.13349
27   0.154162
28   0.157662
29   0.156641
30   0.172927
31   0.154136
32   0.141304
33   0.145956
34   0.149703
35   0.123787
36   0.342149

$$$$

