PCCDB-ID:  43260
public computational chemistry database (PCCDB) project, http://pccdb.org

 29 29  0  0  1  0  0  0  0  0999 V2000
    3.1990    1.2012   -0.1031 C   0  0  0  0  0  0  0  0  0  0  0  0
    5.1473   -4.5372   -3.7351 C   0  0  0  0  0  0  0  0  0  0  0  0
    4.0418   -1.0312   -1.6350 C   0  0  0  0  0  0  0  0  0  0  0  0
    4.4184   -2.1813   -2.3428 C   0  0  0  0  0  0  0  0  0  0  0  0
    2.6679   -2.4053   -0.2044 C   0  0  0  0  0  0  0  0  0  0  0  0
    1.3008   -5.3527   -1.4172 C   0  0  0  0  0  0  0  0  0  0  0  0
    3.1597   -1.1403   -0.5620 C   0  0  0  0  0  0  0  0  0  0  0  0
    3.0251   -3.5556   -0.8970 C   0  0  0  0  0  0  0  0  0  0  0  0
    2.4375   -4.8986   -0.4852 C   0  0  2  0  0  0  0  0  0  0  0  0
    3.9163   -3.4290   -1.9866 C   0  0  0  0  0  0  0  0  0  0  0  0
    0.6952   -6.5636   -0.8603 N   0  0  0  0  0  0  0  0  0  0  0  0
    3.4247   -5.9253   -0.3622 O   0  0  0  0  0  0  0  0  0  0  0  0
    2.7197   -0.0959    0.2045 O   0  0  0  0  0  0  0  0  0  0  0  0
    4.2407   -4.6022   -2.6450 O   0  0  0  0  0  0  0  0  0  0  0  0
    2.7329    1.8737    0.6197 H   0  0  0  0  0  0  0  0  0  0  0  0
    2.9142    1.5085   -1.1188 H   0  0  0  0  0  0  0  0  0  0  0  0
    4.2913    1.2637   -0.0033 H   0  0  0  0  0  0  0  0  0  0  0  0
    5.2591   -5.5615   -4.0954 H   0  0  0  0  0  0  0  0  0  0  0  0
    6.1263   -4.1523   -3.4214 H   0  0  0  0  0  0  0  0  0  0  0  0
    4.7533   -3.9090   -4.5442 H   0  0  0  0  0  0  0  0  0  0  0  0
    4.4481   -0.0729   -1.9370 H   0  0  0  0  0  0  0  0  0  0  0  0
    5.1065   -2.0763   -3.1735 H   0  0  0  0  0  0  0  0  0  0  0  0
    1.9911   -2.4696    0.6428 H   0  0  0  0  0  0  0  0  0  0  0  0
    1.7129   -5.4705   -2.4355 H   0  0  0  0  0  0  0  0  0  0  0  0
    0.5418   -4.5613   -1.4653 H   0  0  0  0  0  0  0  0  0  0  0  0
    2.0119   -4.7993    0.5185 H   0  0  0  0  0  0  0  0  0  0  0  0
    1.4445   -7.2351   -0.6965 H   0  0  0  0  0  0  0  0  0  0  0  0
    0.0637   -6.9842   -1.5395 H   0  0  0  0  0  0  0  0  0  0  0  0
    3.9202   -5.9175   -1.1997 H   0  0  0  0  0  0  0  0  0  0  0  0
  1 17  1  0  0  0  0
  1 13  1  0  0  0  0
  1 15  1  0  0  0  0
  2 19  1  0  0  0  0
  2 14  1  0  0  0  0
  3  7  2  0  0  0  0
  4 10  2  0  0  0  0
  4  3  1  0  0  0  0
  5 23  1  0  0  0  0
  6 11  1  0  0  0  0
  6  9  1  0  0  0  0
  7  5  1  0  0  0  0
  7 13  1  0  0  0  0
  8  9  1  0  0  0  0
  8  5  2  0  0  0  0
  9 12  1  0  0  0  0
  9 26  1  1  0  0  0
 10  8  1  0  0  0  0
 11 27  1  0  0  0  0
 14 10  1  0  0  0  0
 16  1  1  0  0  0  0
 18  2  1  0  0  0  0
 20  2  1  0  0  0  0
 21  3  1  0  0  0  0
 22  4  1  0  0  0  0
 24  6  1  0  0  0  0
 25  6  1  0  0  0  0
 28 11  1  0  0  0  0
 29 12  1  0  0  0  0
M  END
>  <HBA>
4

>  <HBD>
2

>  <TPSA>
64.71

>  <cid>
43260

>  <dipole>
5.08

>  <excitation_energy_1>
4.664

>  <excitation_energy_2>
5.04

>  <excitation_energy_3>
5.151

>  <excitation_energy_4>
5.328

>  <homo_energy>
-5.557

>  <homo_lumo_gap>
5.431

>  <logP>
1.396

>  <lumo_energy>
-0.125

>  <melting_point>
91.57

>  <molecular_refractivity>
53.07

>  <oscillator_strength_1>
0.0634

>  <oscillator_strength_2>
0.0

>  <oscillator_strength_3>
0.0008

>  <oscillator_strength_4>
0.0064

>  <open_babel_can_smiles>
COc1ccc(c(c1)[C@@H](CN)O)OC

>  <mulliken_charges>
29
1   -0.213086
2   -0.214858
3   -0.207598
4   -0.197095
5   -0.255636
6   -0.136601
7   0.389048
8   0.125883
9   0.048658
10   0.322494
11   -0.724341
12   -0.650254
13   -0.511545
14   -0.547109
15   0.169962
16   0.148632
17   0.149599
18   0.170712
19   0.157381
20   0.156567
21   0.131891
22   0.132844
23   0.143756
24   0.115071
25   0.136293
26   0.153672
27   0.306672
28   0.289489
29   0.409501

>  <lowdin_charges>
29
1   -0.274904
2   -0.277001
3   -0.208789
4   -0.198626
5   -0.175204
6   -0.221375
7   0.090257
8   -0.027904
9   0.000191
10   0.076505
11   -0.565867
12   -0.47163
13   -0.201466
14   -0.218397
15   0.16429
16   0.142195
17   0.14134
18   0.162483
19   0.147454
20   0.148865
21   0.162893
22   0.16325
23   0.169672
24   0.119649
25   0.144598
26   0.155598
27   0.258568
28   0.253124
29   0.340232

$$$$

