PCCDB-ID:  38678
public computational chemistry database (PCCDB) project, http://pccdb.org

 19 20  0  0  1  0  0  0  0  0999 V2000
   -0.9900   -1.8546    0.4807 C   0  0  0  0  0  0  0  0  0  0  0  0
   -0.1351   -1.9668   -0.7804 C   0  0  0  0  0  0  0  0  0  0  0  0
    0.0419    1.5931   -0.3483 C   0  0  0  0  0  0  0  0  0  0  0  0
    1.3510    2.2367   -2.5007 C   0  0  0  0  0  0  0  0  0  0  0  0
    0.1065    2.2248   -1.7229 C   0  0  2  0  0  0  0  0  0  0  0  0
   -1.2503   -0.3493    0.5591 C   0  0  0  0  0  0  0  0  0  0  0  0
   -0.4421    0.2313   -0.3997 N   0  0  0  0  0  0  0  0  0  0  0  0
   -2.0215    0.2545    1.2816 O   0  0  0  0  0  0  0  0  0  0  0  0
    0.9030    3.4104   -1.8065 O   0  0  0  0  0  0  0  0  0  0  0  0
    0.5417   -0.6978   -0.8708 O   0  0  0  0  0  0  0  0  0  0  0  0
   -0.4464   -2.1517    1.3854 H   0  0  0  0  0  0  0  0  0  0  0  0
   -1.9272   -2.4139    0.4433 H   0  0  0  0  0  0  0  0  0  0  0  0
   -0.7585   -2.1159   -1.6726 H   0  0  0  0  0  0  0  0  0  0  0  0
    0.6472   -2.7272   -0.7453 H   0  0  0  0  0  0  0  0  0  0  0  0
   -0.6666    2.1288    0.2920 H   0  0  0  0  0  0  0  0  0  0  0  0
    1.0336    1.6275    0.1230 H   0  0  0  0  0  0  0  0  0  0  0  0
    1.3086    2.2940   -3.5882 H   0  0  0  0  0  0  0  0  0  0  0  0
    2.2422    1.7610   -2.0913 H   0  0  0  0  0  0  0  0  0  0  0  0
   -0.8447    2.2707   -2.2566 H   0  0  0  0  0  0  0  0  0  0  0  0
  1  6  1  0  0  0  0
  1 11  1  0  0  0  0
  2 14  1  0  0  0  0
  2  1  1  0  0  0  0
  3 16  1  0  0  0  0
  3 15  1  0  0  0  0
  4 18  1  0  0  0  0
  4  9  1  0  0  0  0
  4  5  1  0  0  0  0
  5 19  1  6  0  0  0
  5  3  1  0  0  0  0
  6  8  2  0  0  0  0
  7  3  1  0  0  0  0
  7  6  1  0  0  0  0
  9  5  1  0  0  0  0
 10  2  1  0  0  0  0
 10  7  1  0  0  0  0
 12  1  1  0  0  0  0
 13  2  1  0  0  0  0
 17  4  1  0  0  0  0
M  END
>  <HBA>
4

>  <HBD>
0

>  <TPSA>
42.07

>  <cid>
38678

>  <dipole>
4.0

>  <excitation_energy_1>
5.302

>  <excitation_energy_2>
5.781

>  <excitation_energy_3>
5.965

>  <excitation_energy_4>
6.183

>  <homo_energy>
-6.289

>  <homo_lumo_gap>
6.465

>  <logP>
-0.513

>  <lumo_energy>
0.177

>  <melting_point>
27.07

>  <molecular_refractivity>
35.91

>  <oscillator_strength_1>
0.0273

>  <oscillator_strength_2>
0.0219

>  <oscillator_strength_3>
0.0544

>  <oscillator_strength_4>
0.0062

>  <open_babel_can_smiles>
O=C1CCON1C[C@@H]1CO1

>  <mulliken_charges>
19
1   -0.401434
2   -0.027929
3   -0.171695
4   -0.102097
5   0.11084
6   0.591966
7   -0.190638
8   -0.495103
9   -0.44524
10   -0.396781
11   0.187078
12   0.187066
13   0.154512
14   0.167144
15   0.200893
16   0.167236
17   0.154109
18   0.157286
19   0.152787

>  <lowdin_charges>
19
1   -0.31903
2   -0.130407
3   -0.200692
4   -0.15958
5   -0.026898
6   0.151069
7   -0.003892
8   -0.279892
9   -0.28258
10   -0.221392
11   0.176676
12   0.179054
13   0.144846
14   0.162962
15   0.186383
16   0.158669
17   0.154201
18   0.156639
19   0.153863

$$$$

