PCCDB-ID:  20071
public computational chemistry database (PCCDB) project, http://pccdb.org

 28 28  0  0  1  0  0  0  0  0999 V2000
    3.9286   -3.8704   -1.7055 C   0  0  0  0  0  0  0  0  0  0  0  0
    5.4742   -4.8930    0.0483 C   0  0  0  0  0  0  0  0  0  0  0  0
    7.4383   -0.1394   -4.6796 C   0  0  0  0  0  0  0  0  0  0  0  0
    7.9707   -1.1023   -3.8192 C   0  0  0  0  0  0  0  0  0  0  0  0
    6.5163    0.7877   -4.1916 C   0  0  0  0  0  0  0  0  0  0  0  0
    7.5795   -1.1382   -2.4810 C   0  0  0  0  0  0  0  0  0  0  0  0
    6.1241    0.7518   -2.8524 C   0  0  0  0  0  0  0  0  0  0  0  0
    4.6479   -3.6875   -0.3743 C   0  0  0  0  0  0  0  0  0  0  0  0
    6.6511   -0.2130   -1.9895 C   0  0  0  0  0  0  0  0  0  0  0  0
    6.2055   -0.2596   -0.5267 C   0  0  2  0  0  0  0  0  0  0  0  0
    5.1281   -1.3385   -0.3311 C   0  0  0  0  0  0  0  0  0  0  0  0
    5.6847    0.9691   -0.0783 O   0  0  0  0  0  0  0  0  0  0  0  0
    3.9779   -1.0490   -0.0552 O   0  0  0  0  0  0  0  0  0  0  0  0
    5.5981   -2.5762   -0.4891 O   0  0  0  0  0  0  0  0  0  0  0  0
    3.2381   -4.7188   -1.6429 H   0  0  0  0  0  0  0  0  0  0  0  0
    4.6481   -4.0675   -2.5075 H   0  0  0  0  0  0  0  0  0  0  0  0
    3.3508   -2.9778   -1.9603 H   0  0  0  0  0  0  0  0  0  0  0  0
    4.8228   -5.7636    0.1797 H   0  0  0  0  0  0  0  0  0  0  0  0
    5.9894   -4.7014    0.9947 H   0  0  0  0  0  0  0  0  0  0  0  0
    6.2244   -5.1354   -0.7121 H   0  0  0  0  0  0  0  0  0  0  0  0
    7.7456   -0.1086   -5.7216 H   0  0  0  0  0  0  0  0  0  0  0  0
    8.6958   -1.8229   -4.1887 H   0  0  0  0  0  0  0  0  0  0  0  0
    6.1045    1.5458   -4.8528 H   0  0  0  0  0  0  0  0  0  0  0  0
    7.9955   -1.8896   -1.8148 H   0  0  0  0  0  0  0  0  0  0  0  0
    5.4271    1.4837   -2.4584 H   0  0  0  0  0  0  0  0  0  0  0  0
    3.9308   -3.4153    0.4052 H   0  0  0  0  0  0  0  0  0  0  0  0
    7.0674   -0.5398    0.0956 H   0  0  0  0  0  0  0  0  0  0  0  0
    4.7356    0.8065    0.0867 H   0  0  0  0  0  0  0  0  0  0  0  0
  1 15  1  0  0  0  0
  1  8  1  0  0  0  0
  2 18  1  0  0  0  0
  2 19  1  0  0  0  0
  3  5  2  0  0  0  0
  3  4  1  0  0  0  0
  4  6  2  0  0  0  0
  5  7  1  0  0  0  0
  6  9  1  0  0  0  0
  6 24  1  0  0  0  0
  7 25  1  0  0  0  0
  7  9  2  0  0  0  0
  8  2  1  0  0  0  0
  8 26  1  0  0  0  0
  9 10  1  0  0  0  0
 10 11  1  0  0  0  0
 10 12  1  0  0  0  0
 10 27  1  1  0  0  0
 11 13  2  0  0  0  0
 12 28  1  0  0  0  0
 14  8  1  0  0  0  0
 14 11  1  0  0  0  0
 16  1  1  0  0  0  0
 17  1  1  0  0  0  0
 20  2  1  0  0  0  0
 21  3  1  0  0  0  0
 22  4  1  0  0  0  0
 23  5  1  0  0  0  0
M  END
>  <HBA>
3

>  <HBD>
1

>  <TPSA>
46.53

>  <cid>
20071

>  <dipole>
3.27

>  <excitation_energy_1>
5.191

>  <excitation_energy_2>
5.322

>  <excitation_energy_3>
5.91

>  <excitation_energy_4>
5.995

>  <homo_energy>
-6.509

>  <homo_lumo_gap>
6.136

>  <logP>
1.672

>  <lumo_energy>
-0.373

>  <melting_point>
35.55

>  <molecular_refractivity>
53.08

>  <oscillator_strength_1>
0.015

>  <oscillator_strength_2>
0.0428

>  <oscillator_strength_3>
0.0323

>  <oscillator_strength_4>
0.0064

>  <open_babel_can_smiles>
O[C@H](c1ccccc1)C(=O)OC(C)C

>  <mulliken_charges>
28
1   -0.459554
2   -0.454631
3   -0.126641
4   -0.13469
5   -0.131222
6   -0.166013
7   -0.165693
8   0.12031
9   0.127418
10   0.001176
11   0.612813
12   -0.636697
13   -0.495291
14   -0.460714
15   0.152036
16   0.160301
17   0.176761
18   0.154577
19   0.161115
20   0.159448
21   0.128452
22   0.128213
23   0.130328
24   0.129738
25   0.144099
26   0.167199
27   0.164033
28   0.413129

>  <lowdin_charges>
28
1   -0.454656
2   -0.448759
3   -0.156728
4   -0.157383
5   -0.155648
6   -0.164878
7   -0.156924
8   0.014654
9   -0.02081
10   -0.022381
11   0.185885
12   -0.446999
13   -0.275701
14   -0.175629
15   0.160051
16   0.159583
17   0.168322
18   0.160567
19   0.160572
20   0.159168
21   0.155834
22   0.1577
23   0.159052
24   0.159086
25   0.167852
26   0.157816
27   0.160673
28   0.349683

$$$$

