PCCDB-ID:  69706
public computational chemistry database (PCCDB) project, http://pccdb.org

 28 28  0  0  0  0  0  0  0  0999 V2000
    0.9816    0.1240    0.1045 C   0  0  0  0  0  0  0  0  0  0  0  0
    3.0927    0.0738    1.4686 C   0  0  0  0  0  0  0  0  0  0  0  0
    4.7985   -0.0400   -3.0933 C   0  0  0  0  0  0  0  0  0  0  0  0
    6.6566   -0.0753   -1.3832 C   0  0  0  0  0  0  0  0  0  0  0  0
    3.0409    1.3059   -0.7427 C   0  0  0  0  0  0  0  0  0  0  0  0
    2.9607   -1.2066   -0.7120 C   0  0  0  0  0  0  0  0  0  0  0  0
    4.5472    1.2652   -0.9679 C   0  0  0  0  0  0  0  0  0  0  0  0
    4.4668   -1.2671   -0.9328 C   0  0  0  0  0  0  0  0  0  0  0  0
    2.5167    0.0744    0.0380 C   0  0  0  0  0  0  0  0  0  0  0  0
    5.1367   -0.0296   -1.5714 C   0  0  0  0  0  0  0  0  0  0  0  0
    5.2588    2.2114   -0.6925 O   0  0  0  0  0  0  0  0  0  0  0  0
    5.1178   -2.2466   -0.6258 O   0  0  0  0  0  0  0  0  0  0  0  0
    0.6420    1.0278    0.6243 H   0  0  0  0  0  0  0  0  0  0  0  0
    0.5861   -0.7429    0.6472 H   0  0  0  0  0  0  0  0  0  0  0  0
    0.5376    0.1251   -0.8984 H   0  0  0  0  0  0  0  0  0  0  0  0
    2.7845    0.9749    2.0110 H   0  0  0  0  0  0  0  0  0  0  0  0
    4.1888    0.0445    1.4750 H   0  0  0  0  0  0  0  0  0  0  0  0
    2.7370   -0.7980    2.0295 H   0  0  0  0  0  0  0  0  0  0  0  0
    5.2683    0.8219   -3.5786 H   0  0  0  0  0  0  0  0  0  0  0  0
    3.7238   -0.0001   -3.2951 H   0  0  0  0  0  0  0  0  0  0  0  0
    5.1972   -0.9515   -3.5511 H   0  0  0  0  0  0  0  0  0  0  0  0
    7.1201    0.7970   -1.8500 H   0  0  0  0  0  0  0  0  0  0  0  0
    7.0635   -0.9869   -1.8272 H   0  0  0  0  0  0  0  0  0  0  0  0
    6.9223   -0.0704   -0.3223 H   0  0  0  0  0  0  0  0  0  0  0  0
    2.5411    1.3472   -1.7218 H   0  0  0  0  0  0  0  0  0  0  0  0
    2.8095    2.2377   -0.2176 H   0  0  0  0  0  0  0  0  0  0  0  0
    2.6687   -2.1087   -0.1657 H   0  0  0  0  0  0  0  0  0  0  0  0
    2.4605   -1.2379   -1.6912 H   0  0  0  0  0  0  0  0  0  0  0  0
  1 13  1  0  0  0  0
  1 14  1  0  0  0  0
  2 17  1  0  0  0  0
  2 16  1  0  0  0  0
  2 18  1  0  0  0  0
  3 10  1  0  0  0  0
  4 24  1  0  0  0  0
  5 26  1  0  0  0  0
  5  9  1  0  0  0  0
  6 27  1  0  0  0  0
  6  9  1  0  0  0  0
  7  5  1  0  0  0  0
  7 11  2  0  0  0  0
  8  6  1  0  0  0  0
  8 12  2  0  0  0  0
  9  1  1  0  0  0  0
  9  2  1  0  0  0  0
 10  4  1  0  0  0  0
 10  7  1  0  0  0  0
 10  8  1  0  0  0  0
 15  1  1  0  0  0  0
 19  3  1  0  0  0  0
 20  3  1  0  0  0  0
 21  3  1  0  0  0  0
 22  4  1  0  0  0  0
 23  4  1  0  0  0  0
 25  5  1  0  0  0  0
 28  6  1  0  0  0  0
M  END
>  <HBA>
2

>  <HBD>
0

>  <TPSA>
34.14

>  <cid>
69706

>  <dipole>
3.36

>  <excitation_energy_1>
4.054

>  <excitation_energy_2>
4.277

>  <excitation_energy_3>
5.183

>  <excitation_energy_4>
5.589

>  <homo_energy>
-6.539

>  <homo_lumo_gap>
5.567

>  <logP>
1.971

>  <lumo_energy>
-0.971

>  <melting_point>
73.51

>  <molecular_refractivity>
47.95

>  <oscillator_strength_1>
0.0012

>  <oscillator_strength_2>
0.0003

>  <oscillator_strength_3>
0.0005

>  <oscillator_strength_4>
0.0421

>  <open_babel_can_smiles>
O=C1CC(C)(C)CC(=O)C1(C)C

>  <mulliken_charges>
28
1   -0.444272
2   -0.456354
3   -0.469138
4   -0.433055
5   -0.34927
6   -0.349029
7   0.448962
8   0.448817
9   0.066241
10   -0.083802
11   -0.446002
12   -0.446009
13   0.149379
14   0.149402
15   0.1407
16   0.152779
17   0.159752
18   0.152886
19   0.172603
20   0.150374
21   0.172417
22   0.15675
23   0.156635
24   0.156192
25   0.155357
26   0.166312
27   0.166176
28   0.155198

>  <lowdin_charges>
28
1   -0.440611
2   -0.445271
3   -0.432541
4   -0.433943
5   -0.306557
6   -0.306715
7   0.158092
8   0.157495
9   0.015037
10   -0.051381
11   -0.224525
12   -0.224259
13   0.153783
14   0.154087
15   0.147521
16   0.155957
17   0.153787
18   0.156206
19   0.1657
20   0.148695
21   0.165177
22   0.160769
23   0.160431
24   0.158622
25   0.160567
26   0.16661
27   0.166805
28   0.160462

$$$$

