PCCDB-ID:  13024
public computational chemistry database (PCCDB) project, http://pccdb.org

 20 21  0  0  1  0  0  0  0  0999 V2000
    0.9725    0.1356    0.1303 C   0  0  0  0  0  0  0  0  0  0  0  0
    4.3206   -2.9520   -2.3624 C   0  0  0  0  0  0  0  0  0  0  0  0
    3.5229   -3.3888   -1.3005 C   0  0  0  0  0  0  0  0  0  0  0  0
    4.5015   -1.5867   -2.6054 C   0  0  0  0  0  0  0  0  0  0  0  0
    2.8896   -2.4653   -0.4571 C   0  0  0  0  0  0  0  0  0  0  0  0
    3.1013    1.2480   -0.7510 C   0  0  0  0  0  0  0  0  0  0  0  0
    3.8627    0.7994   -1.7667 C   0  0  0  0  0  0  0  0  0  0  0  0
    2.5104    0.0988    0.0419 C   0  0  2  0  0  0  0  0  0  0  0  0
    3.8687   -0.6674   -1.7677 C   0  0  0  0  0  0  0  0  0  0  0  0
    3.0652   -1.1084   -0.6935 C   0  0  0  0  0  0  0  0  0  0  0  0
    0.6338    1.0408    0.6472 H   0  0  0  0  0  0  0  0  0  0  0  0
    0.5916   -0.7295    0.6843 H   0  0  0  0  0  0  0  0  0  0  0  0
    0.5269    0.1239   -0.8698 H   0  0  0  0  0  0  0  0  0  0  0  0
    4.8048   -3.6817   -3.0062 H   0  0  0  0  0  0  0  0  0  0  0  0
    3.3934   -4.4538   -1.1266 H   0  0  0  0  0  0  0  0  0  0  0  0
    5.1230   -1.2517   -3.4324 H   0  0  0  0  0  0  0  0  0  0  0  0
    2.2738   -2.8147    0.3689 H   0  0  0  0  0  0  0  0  0  0  0  0
    2.9091    2.2879   -0.5064 H   0  0  0  0  0  0  0  0  0  0  0  0
    4.3995    1.4117   -2.4847 H   0  0  0  0  0  0  0  0  0  0  0  0
    2.9092    0.1226    1.0694 H   0  0  0  0  0  0  0  0  0  0  0  0
  1 11  1  0  0  0  0
  1 12  1  0  0  0  0
  2  3  1  0  0  0  0
  3 15  1  0  0  0  0
  3  5  2  0  0  0  0
  4  2  2  0  0  0  0
  4  9  1  0  0  0  0
  5 17  1  0  0  0  0
  6 18  1  0  0  0  0
  6  8  1  0  0  0  0
  7  6  2  0  0  0  0
  8  1  1  0  0  0  0
  8 20  1  1  0  0  0
  9  7  1  0  0  0  0
  9 10  2  0  0  0  0
 10  5  1  0  0  0  0
 10  8  1  0  0  0  0
 13  1  1  0  0  0  0
 14  2  1  0  0  0  0
 16  4  1  0  0  0  0
 19  7  1  0  0  0  0
M  END
>  <HBA>
0

>  <HBD>
0

>  <TPSA>
0.0

>  <cid>
13024

>  <dipole>
0.65

>  <excitation_energy_1>
4.665

>  <excitation_energy_2>
4.807

>  <excitation_energy_3>
5.465

>  <excitation_energy_4>
5.607

>  <homo_energy>
-5.744

>  <homo_lumo_gap>
5.233

>  <logP>
2.817

>  <lumo_energy>
-0.512

>  <melting_point>
53.59

>  <molecular_refractivity>
44.19

>  <oscillator_strength_1>
0.0667

>  <oscillator_strength_2>
0.089

>  <oscillator_strength_3>
0.0772

>  <oscillator_strength_4>
0.1818

>  <open_babel_can_smiles>
C[C@@H]1C=Cc2c1cccc2

>  <mulliken_charges>
20
1   -0.438474
2   -0.132392
3   -0.137285
4   -0.199753
5   -0.190391
6   -0.137638
7   -0.147331
8   -0.202097
9   0.11657
10   0.103691
11   0.144796
12   0.148193
13   0.158988
14   0.124984
15   0.124301
16   0.124876
17   0.122037
18   0.129555
19   0.129489
20   0.157883

>  <lowdin_charges>
20
1   -0.434369
2   -0.160009
3   -0.161897
4   -0.169414
5   -0.164443
6   -0.164304
7   -0.16692
8   -0.119355
9   -0.010031
10   -0.008451
11   0.15086
12   0.152277
13   0.156228
14   0.157229
15   0.153985
16   0.156487
17   0.154925
18   0.156288
19   0.15958
20   0.161332

$$$$

