PCCDB-ID:  66327
public computational chemistry database (PCCDB) project, http://pccdb.org

 30 31  0  0  0  0  0  0  0  0999 V2000
   -1.5066    0.3729    0.3791 C   0  0  0  0  0  0  0  0  0  0  0  0
    4.9164   -3.3823   -1.3199 C   0  0  0  0  0  0  0  0  0  0  0  0
   -0.9306    0.9220   -0.7685 C   0  0  0  0  0  0  0  0  0  0  0  0
   -0.6966   -0.2639    1.3203 C   0  0  0  0  0  0  0  0  0  0  0  0
    5.4576   -1.9636   -1.5359 C   0  0  0  0  0  0  0  0  0  0  0  0
    3.3912   -3.3695   -1.1590 C   0  0  0  0  0  0  0  0  0  0  0  0
    0.4442    0.8272   -0.9774 C   0  0  0  0  0  0  0  0  0  0  0  0
    0.6794   -0.3599    1.1115 C   0  0  0  0  0  0  0  0  0  0  0  0
    5.0045   -1.0092   -0.4102 C   0  0  0  0  0  0  0  0  0  0  0  0
    2.9360   -2.4193   -0.0265 C   0  0  0  0  0  0  0  0  0  0  0  0
    3.3639    1.3525   -0.5850 C   0  0  0  0  0  0  0  0  0  0  0  0
    1.2663    0.1714   -0.0474 C   0  0  0  0  0  0  0  0  0  0  0  0
    3.5044   -1.0332   -0.2225 C   0  0  0  0  0  0  0  0  0  0  0  0
    2.7428    0.0918   -0.2754 C   0  0  0  0  0  0  0  0  0  0  0  0
    3.8319    2.3865   -0.8470 N   0  0  0  0  0  0  0  0  0  0  0  0
   -2.5779    0.4505    0.5434 H   0  0  0  0  0  0  0  0  0  0  0  0
    5.3756   -3.8157   -0.4189 H   0  0  0  0  0  0  0  0  0  0  0  0
    5.2020   -4.0294   -2.1586 H   0  0  0  0  0  0  0  0  0  0  0  0
   -1.5520    1.4285   -1.5019 H   0  0  0  0  0  0  0  0  0  0  0  0
   -1.1329   -0.6785    2.2251 H   0  0  0  0  0  0  0  0  0  0  0  0
    5.0993   -1.5755   -2.4991 H   0  0  0  0  0  0  0  0  0  0  0  0
    6.5531   -1.9697   -1.5859 H   0  0  0  0  0  0  0  0  0  0  0  0
    3.0144   -4.3786   -0.9524 H   0  0  0  0  0  0  0  0  0  0  0  0
    2.9267   -3.0455   -2.1004 H   0  0  0  0  0  0  0  0  0  0  0  0
    0.8888    1.2650   -1.8669 H   0  0  0  0  0  0  0  0  0  0  0  0
    1.3084   -0.8307    1.8614 H   0  0  0  0  0  0  0  0  0  0  0  0
    5.3653    0.0053   -0.5988 H   0  0  0  0  0  0  0  0  0  0  0  0
    5.4672   -1.3426    0.5326 H   0  0  0  0  0  0  0  0  0  0  0  0
    3.3032   -2.8204    0.9313 H   0  0  0  0  0  0  0  0  0  0  0  0
    1.8459   -2.4019    0.0314 H   0  0  0  0  0  0  0  0  0  0  0  0
  1 16  1  0  0  0  0
  1  4  2  0  0  0  0
  2  6  1  0  0  0  0
  2 17  1  0  0  0  0
  3  1  1  0  0  0  0
  4 20  1  0  0  0  0
  5  2  1  0  0  0  0
  5  9  1  0  0  0  0
  6 23  1  0  0  0  0
  6 10  1  0  0  0  0
  7  3  2  0  0  0  0
  7 12  1  0  0  0  0
  8  4  1  0  0  0  0
  8 26  1  0  0  0  0
  9 13  1  0  0  0  0
  9 28  1  0  0  0  0
 10 30  1  0  0  0  0
 10 29  1  0  0  0  0
 11 14  1  0  0  0  0
 12  8  2  0  0  0  0
 13 10  1  0  0  0  0
 14 13  2  0  0  0  0
 14 12  1  0  0  0  0
 15 11  3  0  0  0  0
 18  2  1  0  0  0  0
 19  3  1  0  0  0  0
 21  5  1  0  0  0  0
 22  5  1  0  0  0  0
 24  6  1  0  0  0  0
 25  7  1  0  0  0  0
 27  9  1  0  0  0  0
M  END
>  <HBA>
1

>  <HBD>
0

>  <TPSA>
23.79

>  <cid>
66327

>  <dipole>
4.6

>  <excitation_energy_1>
4.746

>  <excitation_energy_2>
4.9

>  <excitation_energy_3>
5.303

>  <excitation_energy_4>
5.393

>  <homo_energy>
-6.411

>  <homo_lumo_gap>
5.222

>  <logP>
3.928

>  <lumo_energy>
-1.189

>  <melting_point>
75.27

>  <molecular_refractivity>
63.01

>  <oscillator_strength_1>
0.3309

>  <oscillator_strength_2>
0.0044

>  <oscillator_strength_3>
0.0353

>  <oscillator_strength_4>
0.0203

>  <open_babel_can_smiles>
N#CC(=C1CCCCC1)c1ccccc1

>  <mulliken_charges>
30
1   -0.124191
2   -0.260673
3   -0.133265
4   -0.134205
5   -0.260083
6   -0.263303
7   -0.160408
8   -0.165785
9   -0.34654
10   -0.337933
11   0.273843
12   0.108404
13   0.172712
14   -0.037965
15   -0.502796
16   0.134488
17   0.131468
18   0.140222
19   0.137218
20   0.134526
21   0.144404
22   0.142749
23   0.140829
24   0.143395
25   0.148018
26   0.137467
27   0.175076
28   0.150426
29   0.148181
30   0.16372

>  <lowdin_charges>
30
1   -0.150424
2   -0.280944
3   -0.152969
4   -0.15537
5   -0.2713
6   -0.273272
7   -0.15134
8   -0.160438
9   -0.279045
10   -0.280385
11   -0.01379
12   0.00013
13   0.037164
14   -0.056464
15   -0.139065
16   0.158542
17   0.139593
18   0.149676
19   0.162933
20   0.1606
21   0.145757
22   0.148052
23   0.14852
24   0.14552
25   0.167836
26   0.16269
27   0.168655
28   0.154593
29   0.1529
30   0.161645

$$$$

