PCCDB-ID:  23196
public computational chemistry database (PCCDB) project, http://pccdb.org

 29 29  0  0  1  0  0  0  0  0999 V2000
    0.8968   -0.7304   -0.4232 C   0  0  0  0  0  0  0  0  0  0  0  0
    6.5857   -0.1939    3.0691 C   0  0  0  0  0  0  0  0  0  0  0  0
    5.4551   -1.1289   -0.7208 C   0  0  0  0  0  0  0  0  0  0  0  0
    2.4017   -0.4708   -0.2937 C   0  0  0  0  0  0  0  0  0  0  0  0
    3.1629   -1.6867    0.2499 C   0  0  0  0  0  0  0  0  0  0  0  0
    5.2581   -2.6231    1.3473 C   0  0  0  0  0  0  0  0  0  0  0  0
    5.1701   -0.6832    2.7637 C   0  0  2  0  0  0  0  0  0  0  0  0
    5.0133   -2.2258    2.8104 C   0  0  2  0  0  0  0  0  0  0  0  0
    4.6619   -1.4479    0.5492 C   0  0  1  0  0  0  0  0  0  0  0  0
    5.8167   -2.8929    3.7683 O   0  0  0  0  0  0  0  0  0  0  0  0
    4.7869   -0.3020    1.4371 O   0  0  0  0  0  0  0  0  0  0  0  0
    0.3748    0.1483   -0.8190 H   0  0  0  0  0  0  0  0  0  0  0  0
    0.4501   -0.9723    0.5493 H   0  0  0  0  0  0  0  0  0  0  0  0
    0.6914   -1.5709   -1.0982 H   0  0  0  0  0  0  0  0  0  0  0  0
    6.8520   -0.3968    4.1125 H   0  0  0  0  0  0  0  0  0  0  0  0
    6.6443    0.8857    2.9015 H   0  0  0  0  0  0  0  0  0  0  0  0
    7.3293   -0.6673    2.4148 H   0  0  0  0  0  0  0  0  0  0  0  0
    5.3905   -1.9540   -1.4402 H   0  0  0  0  0  0  0  0  0  0  0  0
    6.5093   -0.9628   -0.4764 H   0  0  0  0  0  0  0  0  0  0  0  0
    5.0765   -0.2227   -1.2024 H   0  0  0  0  0  0  0  0  0  0  0  0
    2.5787    0.3796    0.3745 H   0  0  0  0  0  0  0  0  0  0  0  0
    2.8012   -0.1852   -1.2755 H   0  0  0  0  0  0  0  0  0  0  0  0
    3.0792   -2.5244   -0.4581 H   0  0  0  0  0  0  0  0  0  0  0  0
    2.6735   -2.0198    1.1761 H   0  0  0  0  0  0  0  0  0  0  0  0
    4.8118   -3.5882    1.0903 H   0  0  0  0  0  0  0  0  0  0  0  0
    6.3399   -2.6983    1.1675 H   0  0  0  0  0  0  0  0  0  0  0  0
    4.4747   -0.2030    3.4643 H   0  0  0  0  0  0  0  0  0  0  0  0
    3.9869   -2.4731    3.0977 H   0  0  0  0  0  0  0  0  0  0  0  0
    6.7446   -2.7689    3.5130 H   0  0  0  0  0  0  0  0  0  0  0  0
  1  4  1  0  0  0  0
  1 13  1  0  0  0  0
  2 15  1  0  0  0  0
  3 19  1  0  0  0  0
  4  5  1  0  0  0  0
  4 21  1  0  0  0  0
  5  9  1  0  0  0  0
  5 24  1  0  0  0  0
  6  8  1  0  0  0  0
  7  8  1  0  0  0  0
  7  2  1  0  0  0  0
  7 27  1  1  0  0  0
  8 28  1  1  0  0  0
  8 10  1  0  0  0  0
  9  3  1  6  0  0  0
  9  6  1  0  0  0  0
  9 11  1  0  0  0  0
 11  7  1  0  0  0  0
 12  1  1  0  0  0  0
 14  1  1  0  0  0  0
 16  2  1  0  0  0  0
 17  2  1  0  0  0  0
 18  3  1  0  0  0  0
 20  3  1  0  0  0  0
 22  4  1  0  0  0  0
 23  5  1  0  0  0  0
 25  6  1  0  0  0  0
 26  6  1  0  0  0  0
 29 10  1  0  0  0  0
M  END
>  <HBA>
2

>  <HBD>
1

>  <TPSA>
29.46

>  <cid>
23196

>  <dipole>
1.27

>  <excitation_energy_1>
6.096

>  <excitation_energy_2>
6.376

>  <excitation_energy_3>
6.399

>  <excitation_energy_4>
6.528

>  <homo_energy>
-6.607

>  <homo_lumo_gap>
8.398

>  <logP>
1.715

>  <lumo_energy>
1.791

>  <melting_point>
14.71

>  <molecular_refractivity>
45.55

>  <oscillator_strength_1>
0.0295

>  <oscillator_strength_2>
0.0061

>  <oscillator_strength_3>
0.0033

>  <oscillator_strength_4>
0.0194

>  <open_babel_can_smiles>
CCC[C@]1(C)C[C@H]([C@H](O1)C)O

>  <mulliken_charges>
29
1   -0.444055
2   -0.476705
3   -0.460385
4   -0.255514
5   -0.264426
6   -0.338467
7   0.154761
8   0.105637
9   0.342667
10   -0.625176
11   -0.532444
12   0.142424
13   0.140737
14   0.138456
15   0.150374
16   0.164232
17   0.132381
18   0.13804
19   0.142511
20   0.159541
21   0.156189
22   0.130929
23   0.124218
24   0.127567
25   0.153479
26   0.126495
27   0.130315
28   0.146055
29   0.390162

>  <lowdin_charges>
29
1   -0.44501
2   -0.46367
3   -0.448492
4   -0.276774
5   -0.285654
6   -0.304409
7   -0.013871
8   -0.018973
9   0.128615
10   -0.446176
11   -0.284155
12   0.150264
13   0.145364
14   0.144881
15   0.153936
16   0.162325
17   0.142996
18   0.150427
19   0.149658
20   0.158932
21   0.152874
22   0.139074
23   0.140604
24   0.140358
25   0.158255
26   0.140213
27   0.141348
28   0.147339
29   0.339722

$$$$

