PCCDB-ID:  43046
public computational chemistry database (PCCDB) project, http://pccdb.org

 39 39  0  0  0  0  0  0  0  0999 V2000
    3.1277   -4.5128    1.0890 C   0  0  0  0  0  0  0  0  0  0  0  0
   10.7185    6.5968    6.4757 C   0  0  0  0  0  0  0  0  0  0  0  0
    4.2721   -3.6158    1.5718 C   0  0  0  0  0  0  0  0  0  0  0  0
    4.0754   -2.1377    1.2112 C   0  0  0  0  0  0  0  0  0  0  0  0
    5.2138   -1.2311    1.6965 C   0  0  0  0  0  0  0  0  0  0  0  0
    5.0113    0.2470    1.3391 C   0  0  0  0  0  0  0  0  0  0  0  0
    6.1390    1.1525    1.8497 C   0  0  0  0  0  0  0  0  0  0  0  0
    5.9287    2.6308    1.4633 C   0  0  0  0  0  0  0  0  0  0  0  0
    9.2753    4.5646    6.0010 C   0  0  0  0  0  0  0  0  0  0  0  0
    9.2485    6.3733    4.4235 C   0  0  0  0  0  0  0  0  0  0  0  0
    8.3822    3.8505    5.2023 C   0  0  0  0  0  0  0  0  0  0  0  0
    8.3525    5.6781    3.6135 C   0  0  0  0  0  0  0  0  0  0  0  0
    9.7295    5.8340    5.6250 C   0  0  0  0  0  0  0  0  0  0  0  0
    7.9290    4.4096    4.0111 C   0  0  0  0  0  0  0  0  0  0  0  0
    7.0557    3.5173    1.9466 C   0  0  0  0  0  0  0  0  0  0  0  0
    7.9195    4.0018    1.2569 O   0  0  0  0  0  0  0  0  0  0  0  0
    6.9731    3.6716    3.3075 O   0  0  0  0  0  0  0  0  0  0  0  0
    3.2976   -5.5605    1.3623 H   0  0  0  0  0  0  0  0  0  0  0  0
    3.0206   -4.4662   -0.0017 H   0  0  0  0  0  0  0  0  0  0  0  0
    2.1706   -4.2051    1.5279 H   0  0  0  0  0  0  0  0  0  0  0  0
   10.7902    6.1731    7.4827 H   0  0  0  0  0  0  0  0  0  0  0  0
   10.4353    7.6511    6.5739 H   0  0  0  0  0  0  0  0  0  0  0  0
   11.7249    6.5733    6.0372 H   0  0  0  0  0  0  0  0  0  0  0  0
    5.2204   -3.9700    1.1431 H   0  0  0  0  0  0  0  0  0  0  0  0
    4.3776   -3.7114    2.6619 H   0  0  0  0  0  0  0  0  0  0  0  0
    3.1233   -1.7850    1.6352 H   0  0  0  0  0  0  0  0  0  0  0  0
    3.9745   -2.0416    0.1197 H   0  0  0  0  0  0  0  0  0  0  0  0
    6.1645   -1.5812    1.2682 H   0  0  0  0  0  0  0  0  0  0  0  0
    5.3177   -1.3304    2.7872 H   0  0  0  0  0  0  0  0  0  0  0  0
    4.0528    0.5943    1.7523 H   0  0  0  0  0  0  0  0  0  0  0  0
    4.9281    0.3498    0.2473 H   0  0  0  0  0  0  0  0  0  0  0  0
    7.0995    0.8085    1.4425 H   0  0  0  0  0  0  0  0  0  0  0  0
    6.2133    1.0740    2.9413 H   0  0  0  0  0  0  0  0  0  0  0  0
    4.9858    2.9901    1.8929 H   0  0  0  0  0  0  0  0  0  0  0  0
    5.8770    2.7377    0.3760 H   0  0  0  0  0  0  0  0  0  0  0  0
    9.6241    4.1236    6.9318 H   0  0  0  0  0  0  0  0  0  0  0  0
    9.5784    7.3620    4.1122 H   0  0  0  0  0  0  0  0  0  0  0  0
    8.0267    2.8677    5.4961 H   0  0  0  0  0  0  0  0  0  0  0  0
    7.9971    6.1093    2.6864 H   0  0  0  0  0  0  0  0  0  0  0  0
  1 18  1  0  0  0  0
  1 20  1  0  0  0  0
  1  3  1  0  0  0  0
  2 22  1  0  0  0  0
  2 21  1  0  0  0  0
  3 25  1  0  0  0  0
  4  3  1  0  0  0  0
  4 26  1  0  0  0  0
  4  5  1  0  0  0  0
  5 29  1  0  0  0  0
  6  5  1  0  0  0  0
  6 30  1  0  0  0  0
  6  7  1  0  0  0  0
  7 33  1  0  0  0  0
  8  7  1  0  0  0  0
  8 34  1  0  0  0  0
  8 15  1  0  0  0  0
  9 36  1  0  0  0  0
 10 13  2  0  0  0  0
 11 38  1  0  0  0  0
 11  9  2  0  0  0  0
 12 14  2  0  0  0  0
 12 10  1  0  0  0  0
 13  9  1  0  0  0  0
 13  2  1  0  0  0  0
 14 11  1  0  0  0  0
 15 17  1  0  0  0  0
 16 15  2  0  0  0  0
 17 14  1  0  0  0  0
 19  1  1  0  0  0  0
 23  2  1  0  0  0  0
 24  3  1  0  0  0  0
 27  4  1  0  0  0  0
 28  5  1  0  0  0  0
 31  6  1  0  0  0  0
 32  7  1  0  0  0  0
 35  8  1  0  0  0  0
 37 10  1  0  0  0  0
 39 12  1  0  0  0  0
M  END
>  <HBA>
2

>  <HBD>
0

>  <TPSA>
26.3

>  <cid>
43046

>  <dipole>
1.72

>  <excitation_energy_1>
5.122

>  <excitation_energy_2>
5.329

>  <excitation_energy_3>
5.515

>  <excitation_energy_4>
5.892

>  <homo_energy>
-6.251

>  <homo_lumo_gap>
6.06

>  <logP>
4.261

>  <lumo_energy>
-0.19

>  <melting_point>
30.0

>  <molecular_refractivity>
71.75

>  <oscillator_strength_1>
0.0031

>  <oscillator_strength_2>
0.1701

>  <oscillator_strength_3>
0.0228

>  <oscillator_strength_4>
0.0012

>  <open_babel_can_smiles>
CCCCCCCC(=O)Oc1ccc(cc1)C

>  <mulliken_charges>
39
1   -0.441689
2   -0.530554
3   -0.24732
4   -0.246538
5   -0.25443
6   -0.254181
7   -0.269643
8   -0.33682
9   -0.192903
10   -0.19502
11   -0.161493
12   -0.135501
13   0.185448
14   0.341266
15   0.593445
16   -0.454028
17   -0.521629
18   0.142429
19   0.141764
20   0.141427
21   0.154899
22   0.159549
23   0.166452
24   0.131118
25   0.130474
26   0.127228
27   0.127898
28   0.130797
29   0.129136
30   0.131379
31   0.133026
32   0.148127
33   0.151289
34   0.162709
35   0.166738
36   0.125899
37   0.127993
38   0.137144
39   0.154119

>  <lowdin_charges>
39
1   -0.440933
2   -0.439073
3   -0.270079
4   -0.272329
5   -0.271862
6   -0.271607
7   -0.266821
8   -0.294139
9   -0.162988
10   -0.158512
11   -0.170758
12   -0.16553
13   -0.003395
14   0.095772
15   0.211303
16   -0.244879
17   -0.168299
18   0.148361
19   0.144513
20   0.146143
21   0.15613
22   0.158046
23   0.161439
24   0.13923
25   0.136844
26   0.137517
27   0.135885
28   0.139482
29   0.136614
30   0.139424
31   0.138309
32   0.147615
33   0.146918
34   0.164621
35   0.16334
36   0.156734
37   0.156948
38   0.165287
39   0.174728

$$$$

