PCCDB-ID:  36429
public computational chemistry database (PCCDB) project, http://pccdb.org

 35 36  0  0  0  0  0  0  0  0999 V2000
    1.1474   -0.7348   -1.2606 C   0  0  0  0  0  0  0  0  0  0  0  0
    1.5479    8.5313   -8.3245 C   0  0  0  0  0  0  0  0  0  0  0  0
    1.9624    8.8043   -7.0197 C   0  0  0  0  0  0  0  0  0  0  0  0
    1.5510    7.2135   -8.7853 C   0  0  0  0  0  0  0  0  0  0  0  0
    2.3743    7.7655   -6.1839 C   0  0  0  0  0  0  0  0  0  0  0  0
    1.9641    6.1789   -7.9449 C   0  0  0  0  0  0  0  0  0  0  0  0
    2.7857    5.3082   -5.7091 C   0  0  0  0  0  0  0  0  0  0  0  0
    1.5922    4.7398   -4.8967 C   0  0  0  0  0  0  0  0  0  0  0  0
    2.0366    2.2896   -4.4028 C   0  0  0  0  0  0  0  0  0  0  0  0
    2.3916    3.8800   -2.6444 C   0  0  0  0  0  0  0  0  0  0  0  0
    2.4455    1.2573   -3.5593 C   0  0  0  0  0  0  0  0  0  0  0  0
    2.8133    2.8609   -1.7954 C   0  0  0  0  0  0  0  0  0  0  0  0
    2.6110   -0.4539   -0.9951 C   0  0  0  0  0  0  0  0  0  0  0  0
    2.3810    6.4373   -6.6319 C   0  0  0  0  0  0  0  0  0  0  0  0
    1.9959    3.6188   -3.9644 C   0  0  0  0  0  0  0  0  0  0  0  0
    2.8303    1.5270   -2.2351 C   0  0  0  0  0  0  0  0  0  0  0  0
    3.3151    0.5296   -1.3754 N   0  0  0  0  0  0  0  0  0  0  0  0
    3.2398   -1.3798   -0.2133 O   0  0  0  0  0  0  0  0  0  0  0  0
    0.6878    0.0719   -1.8324 H   0  0  0  0  0  0  0  0  0  0  0  0
    0.6098   -0.8426   -0.3097 H   0  0  0  0  0  0  0  0  0  0  0  0
    1.0265   -1.6708   -1.8201 H   0  0  0  0  0  0  0  0  0  0  0  0
    1.2298    9.3391   -8.9782 H   0  0  0  0  0  0  0  0  0  0  0  0
    1.9701    9.8277   -6.6531 H   0  0  0  0  0  0  0  0  0  0  0  0
    1.2365    6.9907   -9.8018 H   0  0  0  0  0  0  0  0  0  0  0  0
    2.7012    7.9876   -5.1700 H   0  0  0  0  0  0  0  0  0  0  0  0
    1.9689    5.1550   -8.3134 H   0  0  0  0  0  0  0  0  0  0  0  0
    3.2354    4.4922   -6.2883 H   0  0  0  0  0  0  0  0  0  0  0  0
    3.5551    5.6522   -5.0069 H   0  0  0  0  0  0  0  0  0  0  0  0
    0.8265    4.3887   -5.6002 H   0  0  0  0  0  0  0  0  0  0  0  0
    1.1364    5.5582   -4.3253 H   0  0  0  0  0  0  0  0  0  0  0  0
    1.7417    2.0537   -5.4238 H   0  0  0  0  0  0  0  0  0  0  0  0
    2.3728    4.9036   -2.2753 H   0  0  0  0  0  0  0  0  0  0  0  0
    2.4898    0.2355   -3.9270 H   0  0  0  0  0  0  0  0  0  0  0  0
    3.1285    3.0795   -0.7794 H   0  0  0  0  0  0  0  0  0  0  0  0
    2.6038   -2.0654    0.0423 H   0  0  0  0  0  0  0  0  0  0  0  0
  1 13  1  0  0  0  0
  1 20  1  0  0  0  0
  2  3  1  0  0  0  0
  3 23  1  0  0  0  0
  3  5  2  0  0  0  0
  4  2  2  0  0  0  0
  4  6  1  0  0  0  0
  5 25  1  0  0  0  0
  6 14  2  0  0  0  0
  7 28  1  0  0  0  0
  7  8  1  0  0  0  0
  8 30  1  0  0  0  0
  8 15  1  0  0  0  0
  9 15  2  0  0  0  0
  9 11  1  0  0  0  0
 10 32  1  0  0  0  0
 10 12  2  0  0  0  0
 11 16  2  0  0  0  0
 12 34  1  0  0  0  0
 13 18  1  0  0  0  0
 14  5  1  0  0  0  0
 14  7  1  0  0  0  0
 15 10  1  0  0  0  0
 16 12  1  0  0  0  0
 16 17  1  0  0  0  0
 17 13  2  0  0  0  0
 18 35  1  0  0  0  0
 19  1  1  0  0  0  0
 21  1  1  0  0  0  0
 22  2  1  0  0  0  0
 24  4  1  0  0  0  0
 26  6  1  0  0  0  0
 27  7  1  0  0  0  0
 29  8  1  0  0  0  0
 31  9  1  0  0  0  0
 33 11  1  0  0  0  0
M  END
>  <HBA>
2

>  <HBD>
1

>  <TPSA>
29.1

>  <cid>
36429

>  <dipole>
3.79

>  <excitation_energy_1>
4.641

>  <excitation_energy_2>
4.858

>  <excitation_energy_3>
4.878

>  <excitation_energy_4>
5.125

>  <homo_energy>
-5.619

>  <homo_lumo_gap>
5.486

>  <logP>
3.503

>  <lumo_energy>
-0.133

>  <melting_point>
93.16

>  <molecular_refractivity>
75.01

>  <oscillator_strength_1>
0.183

>  <oscillator_strength_2>
0.0892

>  <oscillator_strength_3>
0.0217

>  <oscillator_strength_4>
0.0506

>  <open_babel_can_smiles>
C/C(=N\c1ccc(cc1)CCc1ccccc1)/O

>  <mulliken_charges>
35
1   -0.555646
2   -0.131848
3   -0.127751
4   -0.127567
5   -0.181338
6   -0.181626
7   -0.345433
8   -0.347217
9   -0.193892
10   -0.193255
11   -0.15665
12   -0.14833
13   0.482064
14   0.177055
15   0.179871
16   0.235385
17   -0.465107
18   -0.570009
19   0.199208
20   0.170849
21   0.175094
22   0.126465
23   0.127086
24   0.126694
25   0.121305
26   0.120343
27   0.146226
28   0.147718
29   0.143859
30   0.144646
31   0.119579
32   0.120895
33   0.122333
34   0.131429
35   0.407568

>  <lowdin_charges>
35
1   -0.484846
2   -0.163768
3   -0.154683
4   -0.154194
5   -0.166318
6   -0.167349
7   -0.272945
8   -0.271634
9   -0.163048
10   -0.161545
11   -0.187478
12   -0.171184
13   0.145856
14   -0.001122
15   -0.016883
16   0.043801
17   -0.170432
18   -0.361467
19   0.185657
20   0.167745
21   0.169689
22   0.157411
23   0.155394
24   0.155152
25   0.152496
26   0.152091
27   0.151938
28   0.15267
29   0.150467
30   0.150912
31   0.151802
32   0.152676
33   0.15476
34   0.161335
35   0.357045

$$$$

