PCCDB-ID:  6612
public computational chemistry database (PCCDB) project, http://pccdb.org

 41 41  0  0  1  0  0  0  0  0999 V2000
    6.0293   -1.8861    4.1857 C   0  0  0  0  0  0  0  0  0  0  0  0
    2.6619    1.0177    5.9531 C   0  0  0  0  0  0  0  0  0  0  0  0
    0.8472    4.5652    4.3089 C   0  0  0  0  0  0  0  0  0  0  0  0
    2.3188    4.6060    2.2930 C   0  0  0  0  0  0  0  0  0  0  0  0
    6.9373   -0.9240    4.3570 C   0  0  0  0  0  0  0  0  0  0  0  0
    7.7157   -0.2588    3.2533 C   0  0  0  0  0  0  0  0  0  0  0  0
    3.3262    4.8734    6.0585 C   0  0  0  0  0  0  0  0  0  0  0  0
    3.1766    3.4160    6.4045 C   0  0  0  0  0  0  0  0  0  0  0  0
    7.4281    1.2585    3.1270 C   0  0  0  0  0  0  0  0  0  0  0  0
    5.0003    2.0185    3.5680 C   0  0  0  0  0  0  0  0  0  0  0  0
    3.7343    2.2489    3.1855 C   0  0  0  0  0  0  0  0  0  0  0  0
    3.3160    5.1274    4.5438 C   0  0  0  0  0  0  0  0  0  0  0  0
    2.8376    2.4563    5.5330 C   0  0  0  0  0  0  0  0  0  0  0  0
    6.0134    1.5095    2.6070 C   0  0  0  0  0  0  0  0  0  0  0  0
    2.6038    2.7536    4.0560 C   0  0  1  0  0  0  0  0  0  0  0  0
    2.2716    4.2716    3.7950 C   0  0  0  0  0  0  0  0  0  0  0  0
    5.7447    1.2656    1.4374 O   0  0  0  0  0  0  0  0  0  0  0  0
    5.5002   -2.3302    5.0249 H   0  0  0  0  0  0  0  0  0  0  0  0
    5.7840   -2.2695    3.1974 H   0  0  0  0  0  0  0  0  0  0  0  0
    2.8681    0.8813    7.0198 H   0  0  0  0  0  0  0  0  0  0  0  0
    3.3265    0.3512    5.3887 H   0  0  0  0  0  0  0  0  0  0  0  0
    1.6351    0.6752    5.7613 H   0  0  0  0  0  0  0  0  0  0  0  0
    0.6210    5.6352    4.2232 H   0  0  0  0  0  0  0  0  0  0  0  0
    0.7173    4.2727    5.3551 H   0  0  0  0  0  0  0  0  0  0  0  0
    0.1024    4.0211    3.7152 H   0  0  0  0  0  0  0  0  0  0  0  0
    1.9892    5.6391    2.1282 H   0  0  0  0  0  0  0  0  0  0  0  0
    1.6543    3.9516    1.7147 H   0  0  0  0  0  0  0  0  0  0  0  0
    3.3287    4.5104    1.8804 H   0  0  0  0  0  0  0  0  0  0  0  0
    7.1481   -0.5685    5.3678 H   0  0  0  0  0  0  0  0  0  0  0  0
    7.4925   -0.7341    2.2914 H   0  0  0  0  0  0  0  0  0  0  0  0
    8.7919   -0.3857    3.4380 H   0  0  0  0  0  0  0  0  0  0  0  0
    4.2534    5.2689    6.4966 H   0  0  0  0  0  0  0  0  0  0  0  0
    2.5159    5.4387    6.5455 H   0  0  0  0  0  0  0  0  0  0  0  0
    3.3241    3.1470    7.4510 H   0  0  0  0  0  0  0  0  0  0  0  0
    8.1253    1.6878    2.3986 H   0  0  0  0  0  0  0  0  0  0  0  0
    7.5922    1.7568    4.0901 H   0  0  0  0  0  0  0  0  0  0  0  0
    5.3088    2.1808    4.5976 H   0  0  0  0  0  0  0  0  0  0  0  0
    3.5002    2.0531    2.1400 H   0  0  0  0  0  0  0  0  0  0  0  0
    4.3076    4.9013    4.1309 H   0  0  0  0  0  0  0  0  0  0  0  0
    3.1288    6.1906    4.3438 H   0  0  0  0  0  0  0  0  0  0  0  0
    1.7117    2.1886    3.7381 H   0  0  0  0  0  0  0  0  0  0  0  0
  1  5  2  0  0  0  0
  1 18  1  0  0  0  0
  2 20  1  0  0  0  0
  3 24  1  0  0  0  0
  4 16  1  0  0  0  0
  5 29  1  0  0  0  0
  6 31  1  0  0  0  0
  6  5  1  0  0  0  0
  7  8  1  0  0  0  0
  7 32  1  0  0  0  0
  7 33  1  0  0  0  0
  8 34  1  0  0  0  0
  9  6  1  0  0  0  0
  9 36  1  0  0  0  0
 10 37  1  0  0  0  0
 11 10  2  0  0  0  0
 11 15  1  0  0  0  0
 12  7  1  0  0  0  0
 13  2  1  0  0  0  0
 13  8  2  0  0  0  0
 14  9  1  0  0  0  0
 14 10  1  0  0  0  0
 15 41  1  6  0  0  0
 15 13  1  0  0  0  0
 16 15  1  0  0  0  0
 16  3  1  0  0  0  0
 16 12  1  0  0  0  0
 17 14  2  0  0  0  0
 19  1  1  0  0  0  0
 21  2  1  0  0  0  0
 22  2  1  0  0  0  0
 23  3  1  0  0  0  0
 25  3  1  0  0  0  0
 26  4  1  0  0  0  0
 27  4  1  0  0  0  0
 28  4  1  0  0  0  0
 30  6  1  0  0  0  0
 35  9  1  0  0  0  0
 38 11  1  0  0  0  0
 39 12  1  0  0  0  0
 40 12  1  0  0  0  0
M  END
>  <HBA>
1

>  <HBD>
0

>  <TPSA>
17.07

>  <cid>
6612

>  <dipole>
2.68

>  <excitation_energy_1>
3.532

>  <excitation_energy_2>
4.16

>  <excitation_energy_3>
4.717

>  <excitation_energy_4>
5.172

>  <homo_energy>
-6.378

>  <homo_lumo_gap>
5.018

>  <logP>
4.46

>  <lumo_energy>
-1.361

>  <melting_point>
31.85

>  <molecular_refractivity>
75.43

>  <oscillator_strength_1>
0.0002

>  <oscillator_strength_2>
0.0013

>  <oscillator_strength_3>
0.0097

>  <oscillator_strength_4>
0.3769

>  <open_babel_can_smiles>
C=CCCC(=O)/C=C/[C@H]1C(=CCCC1(C)C)C

>  <mulliken_charges>
41
1   -0.335541
2   -0.520018
3   -0.455617
4   -0.462242
5   -0.049719
6   -0.30759
7   -0.305028
8   -0.173775
9   -0.345581
10   -0.185987
11   -0.086149
12   -0.268316
13   0.176942
14   0.439369
15   -0.191878
16   0.090858
17   -0.48043
18   0.138687
19   0.144581
20   0.149419
21   0.165506
22   0.150187
23   0.139897
24   0.15396
25   0.139111
26   0.141096
27   0.139361
28   0.15555
29   0.122703
30   0.165367
31   0.148101
32   0.141505
33   0.146483
34   0.114688
35   0.163704
36   0.137212
37   0.134635
38   0.167438
39   0.140446
40   0.128912
41   0.132152

>  <lowdin_charges>
41
1   -0.339614
2   -0.442149
3   -0.445201
4   -0.445008
5   -0.150135
6   -0.26249
7   -0.279287
8   -0.190043
9   -0.305517
10   -0.224949
11   -0.089491
12   -0.27535
13   -0.016044
14   0.159372
15   -0.13053
16   0.017916
17   -0.259928
18   0.159046
19   0.158473
20   0.152664
21   0.162258
22   0.152535
23   0.146706
24   0.154186
25   0.148913
26   0.148832
27   0.148866
28   0.154458
29   0.146898
30   0.15965
31   0.151713
32   0.151482
33   0.149722
34   0.146876
35   0.167932
36   0.145782
37   0.158981
38   0.170349
39   0.146628
40   0.142431
41   0.153067

$$$$

