PCCDB-ID:  33521
public computational chemistry database (PCCDB) project, http://pccdb.org

 22 22  0  0  0  0  0  0  0  0999 V2000
    1.4609   -0.4964    1.1455 C   0  0  0  0  0  0  0  0  0  0  0  0
    3.9309   -0.3807    0.9872 C   0  0  0  0  0  0  0  0  0  0  0  0
    3.9191    0.9763   -5.3124 C   0  0  0  0  0  0  0  0  0  0  0  0
    4.1056    0.4361   -4.0451 C   0  0  0  0  0  0  0  0  0  0  0  0
    3.0001    2.0164   -5.4744 C   0  0  0  0  0  0  0  0  0  0  0  0
    2.4909    2.0146   -3.2441 C   0  0  0  0  0  0  0  0  0  0  0  0
    2.5370    0.2699   -0.9124 C   0  0  0  0  0  0  0  0  0  0  0  0
    3.3605    0.9399   -2.9664 C   0  0  0  0  0  0  0  0  0  0  0  0
    2.3018    2.5373   -4.4587 N   0  0  0  0  0  0  0  0  0  0  0  0
    3.5546    0.4072   -1.6894 N   0  0  0  0  0  0  0  0  0  0  0  0
    2.6348   -0.0941    0.3954 N   0  0  0  0  0  0  0  0  0  0  0  0
    1.4648   -0.0283    2.1376 H   0  0  0  0  0  0  0  0  0  0  0  0
    1.4180   -1.5873    1.2829 H   0  0  0  0  0  0  0  0  0  0  0  0
    0.5568   -0.1798    0.6185 H   0  0  0  0  0  0  0  0  0  0  0  0
    3.9576   -0.0003    2.0148 H   0  0  0  0  0  0  0  0  0  0  0  0
    4.7028    0.1050    0.3902 H   0  0  0  0  0  0  0  0  0  0  0  0
    4.1310   -1.4618    1.0108 H   0  0  0  0  0  0  0  0  0  0  0  0
    4.4766    0.5999   -6.1658 H   0  0  0  0  0  0  0  0  0  0  0  0
    4.8068   -0.3741   -3.8666 H   0  0  0  0  0  0  0  0  0  0  0  0
    2.8266    2.4567   -6.4548 H   0  0  0  0  0  0  0  0  0  0  0  0
    1.9482    2.4895   -2.4269 H   0  0  0  0  0  0  0  0  0  0  0  0
    1.5034    0.4363   -1.2422 H   0  0  0  0  0  0  0  0  0  0  0  0
  1 13  1  0  0  0  0
  1 12  1  0  0  0  0
  2 17  1  0  0  0  0
  2 15  1  0  0  0  0
  3  4  1  0  0  0  0
  4 19  1  0  0  0  0
  4  8  2  0  0  0  0
  5  3  2  0  0  0  0
  5  9  1  0  0  0  0
  6  8  1  0  0  0  0
  6 21  1  0  0  0  0
  7 11  1  0  0  0  0
  8 10  1  0  0  0  0
  9  6  2  0  0  0  0
 10  7  2  0  0  0  0
 11  2  1  0  0  0  0
 11  1  1  0  0  0  0
 14  1  1  0  0  0  0
 16  2  1  0  0  0  0
 18  3  1  0  0  0  0
 20  5  1  0  0  0  0
 22  7  1  0  0  0  0
M  END
>  <HBA>
3

>  <HBD>
0

>  <TPSA>
28.49

>  <cid>
33521

>  <dipole>
4.29

>  <excitation_energy_1>
4.533

>  <excitation_energy_2>
4.665

>  <excitation_energy_3>
4.756

>  <excitation_energy_4>
4.854

>  <homo_energy>
-5.567

>  <homo_lumo_gap>
5.249

>  <logP>
1.303

>  <lumo_energy>
-0.318

>  <melting_point>
45.37

>  <molecular_refractivity>
45.96

>  <oscillator_strength_1>
0.0967

>  <oscillator_strength_2>
0.2121

>  <oscillator_strength_3>
0.1404

>  <oscillator_strength_4>
0.0629

>  <open_babel_can_smiles>
CN(/C=N/c1cccnc1)C

>  <mulliken_charges>
22
1   -0.311687
2   -0.31435
3   -0.146056
4   -0.128009
5   0.029779
6   -0.004673
7   0.263347
8   0.269145
9   -0.41638
10   -0.538736
11   -0.368468
12   0.163035
13   0.159558
14   0.167813
15   0.152768
16   0.204875
17   0.155397
18   0.130364
19   0.138023
20   0.132612
21   0.127774
22   0.133868

>  <lowdin_charges>
22
1   -0.34474
2   -0.351734
3   -0.175349
4   -0.147607
5   -0.10905
6   -0.131978
7   -0.020298
8   0.028761
9   -0.147865
10   -0.22811
11   -0.085943
12   0.153886
13   0.146355
14   0.163165
15   0.151364
16   0.184998
17   0.147457
18   0.161651
19   0.164831
20   0.151947
21   0.151071
22   0.137189

$$$$

