PCCDB-ID:  70282
public computational chemistry database (PCCDB) project, http://pccdb.org

 17 17  0  0  0  0  0  0  0  0999 V2000
    1.1675   -0.3094    0.4311 C   0  0  0  0  0  0  0  0  0  0  0  0
    4.5324    1.2130   -0.5122 C   0  0  0  0  0  0  0  0  0  0  0  0
    3.1661    1.0929   -0.2760 C   0  0  0  0  0  0  0  0  0  0  0  0
    5.3575    0.1080   -0.3012 C   0  0  0  0  0  0  0  0  0  0  0  0
    2.6415   -0.1326    0.1679 C   0  0  0  0  0  0  0  0  0  0  0  0
    4.7568   -1.0669    0.1390 C   0  0  0  0  0  0  0  0  0  0  0  0
    5.5794   -2.3066    0.3959 C   0  0  0  0  0  0  0  0  0  0  0  0
    3.4385   -1.1905    0.3680 N   0  0  0  0  0  0  0  0  0  0  0  0
    6.7770   -2.3529    0.2283 O   0  0  0  0  0  0  0  0  0  0  0  0
    4.8554   -3.3511    0.8292 O   0  0  0  0  0  0  0  0  0  0  0  0
    0.8046    0.4220    1.1629 H   0  0  0  0  0  0  0  0  0  0  0  0
    0.9737   -1.3135    0.8140 H   0  0  0  0  0  0  0  0  0  0  0  0
    0.5832   -0.1680   -0.4862 H   0  0  0  0  0  0  0  0  0  0  0  0
    4.9494    2.1557   -0.8555 H   0  0  0  0  0  0  0  0  0  0  0  0
    2.5006    1.9373   -0.4313 H   0  0  0  0  0  0  0  0  0  0  0  0
    6.4288    0.1330   -0.4634 H   0  0  0  0  0  0  0  0  0  0  0  0
    3.9240   -3.0338    0.8712 H   0  0  0  0  0  0  0  0  0  0  0  0
  1 12  1  0  0  0  0
  1 11  1  0  0  0  0
  2  4  2  0  0  0  0
  2  3  1  0  0  0  0
  3  5  2  0  0  0  0
  4  6  1  0  0  0  0
  5  8  1  0  0  0  0
  5  1  1  0  0  0  0
  6  8  2  0  0  0  0
  6  7  1  0  0  0  0
  7 10  1  0  0  0  0
  9  7  2  0  0  0  0
 10 17  1  0  0  0  0
 13  1  1  0  0  0  0
 14  2  1  0  0  0  0
 15  3  1  0  0  0  0
 16  4  1  0  0  0  0
M  END
>  <HBA>
3

>  <HBD>
1

>  <TPSA>
50.19

>  <cid>
70282

>  <dipole>
5.98

>  <excitation_energy_1>
4.253

>  <excitation_energy_2>
5.048

>  <excitation_energy_3>
5.07

>  <excitation_energy_4>
5.226

>  <homo_energy>
-7.187

>  <homo_lumo_gap>
5.472

>  <logP>
1.088

>  <lumo_energy>
-1.714

>  <melting_point>
114.99

>  <molecular_refractivity>
36.16

>  <oscillator_strength_1>
0.0004

>  <oscillator_strength_2>
0.0012

>  <oscillator_strength_3>
0.1125

>  <oscillator_strength_4>
0.0003

>  <open_babel_can_smiles>
Cc1cccc(n1)C(=O)O

>  <mulliken_charges>
17
1   -0.523555
2   -0.101434
3   -0.166879
4   -0.151888
5   0.323934
6   0.248934
7   0.580802
8   -0.591436
9   -0.462115
10   -0.586328
11   0.170984
12   0.177555
13   0.172978
14   0.156372
15   0.145899
16   0.179606
17   0.426573

>  <lowdin_charges>
17
1   -0.449067
2   -0.117855
3   -0.168817
4   -0.144648
5   0.066133
6   0.005682
7   0.176292
8   -0.170248
9   -0.247118
10   -0.343301
11   0.168655
12   0.170869
13   0.168995
14   0.17035
15   0.169105
16   0.18613
17   0.358843

$$$$

