PCCDB-ID:  24051
public computational chemistry database (PCCDB) project, http://pccdb.org

 22 22  0  0  0  0  0  0  0  0999 V2000
    2.0093    0.4298   -2.0188 C   0  0  0  0  0  0  0  0  0  0  0  0
    4.3716    3.9825    0.6737 C   0  0  0  0  0  0  0  0  0  0  0  0
    3.1419    3.9429    0.0197 C   0  0  0  0  0  0  0  0  0  0  0  0
    5.2285    2.8881    0.5825 C   0  0  0  0  0  0  0  0  0  0  0  0
    2.7686    2.8162   -0.7140 C   0  0  0  0  0  0  0  0  0  0  0  0
    4.8941    1.7525   -0.1688 C   0  0  0  0  0  0  0  0  0  0  0  0
    3.6346    1.7212   -0.8042 C   0  0  0  0  0  0  0  0  0  0  0  0
    5.8760    0.6390   -0.2293 C   0  0  0  0  0  0  0  0  0  0  0  0
    5.9671    0.2843   -2.5255 N   0  0  0  0  0  0  0  0  0  0  0  0
    6.3472   -0.0249   -1.2144 N   0  0  0  0  0  0  0  0  0  0  0  0
    6.4061    0.3678    1.0095 O   0  0  0  0  0  0  0  0  0  0  0  0
    3.3158    0.5664   -1.4739 O   0  0  0  0  0  0  0  0  0  0  0  0
    1.2440    0.5267   -1.2393 H   0  0  0  0  0  0  0  0  0  0  0  0
    1.9695   -0.5745   -2.4439 H   0  0  0  0  0  0  0  0  0  0  0  0
    1.8205    1.1673   -2.8091 H   0  0  0  0  0  0  0  0  0  0  0  0
    4.6609    4.8545    1.2524 H   0  0  0  0  0  0  0  0  0  0  0  0
    2.4593    4.7861    0.0809 H   0  0  0  0  0  0  0  0  0  0  0  0
    6.1844    2.8975    1.0951 H   0  0  0  0  0  0  0  0  0  0  0  0
    1.8014    2.7952   -1.2024 H   0  0  0  0  0  0  0  0  0  0  0  0
    6.2777   -0.4959   -3.0972 H   0  0  0  0  0  0  0  0  0  0  0  0
    4.9516    0.3544   -2.6049 H   0  0  0  0  0  0  0  0  0  0  0  0
    7.1185   -0.2763    0.8416 H   0  0  0  0  0  0  0  0  0  0  0  0
  1 12  1  0  0  0  0
  1 13  1  0  0  0  0
  2 16  1  0  0  0  0
  3 17  1  0  0  0  0
  3  2  2  0  0  0  0
  4  2  1  0  0  0  0
  4 18  1  0  0  0  0
  5  3  1  0  0  0  0
  6  4  2  0  0  0  0
  7  5  2  0  0  0  0
  7  6  1  0  0  0  0
  8  6  1  0  0  0  0
  8 11  1  0  0  0  0
  9 10  1  0  0  0  0
 10  8  2  0  0  0  0
 12  7  1  0  0  0  0
 14  1  1  0  0  0  0
 15  1  1  0  0  0  0
 19  5  1  0  0  0  0
 20  9  1  0  0  0  0
 21  9  1  0  0  0  0
 22 11  1  0  0  0  0
M  END
>  <HBA>
4

>  <HBD>
2

>  <TPSA>
64.35

>  <cid>
24051

>  <dipole>
3.28

>  <excitation_energy_1>
4.128

>  <excitation_energy_2>
4.631

>  <excitation_energy_3>
4.95

>  <excitation_energy_4>
4.998

>  <homo_energy>
-5.257

>  <homo_lumo_gap>
4.708

>  <logP>
1.39

>  <lumo_energy>
-0.55

>  <melting_point>
126.41

>  <molecular_refractivity>
43.83

>  <oscillator_strength_1>
0.0943

>  <oscillator_strength_2>
0.0043

>  <oscillator_strength_3>
0.0772

>  <oscillator_strength_4>
0.0081

>  <open_babel_can_smiles>
N/N=C(\c1ccccc1OC)/O

>  <mulliken_charges>
22
1   -0.220972
2   -0.13171
3   -0.132322
4   -0.161956
5   -0.192573
6   0.086094
7   0.326136
8   0.424455
9   -0.591881
10   -0.372759
11   -0.608592
12   -0.523796
13   0.163028
14   0.174736
15   0.158232
16   0.132266
17   0.134016
18   0.154307
19   0.134986
20   0.315673
21   0.330358
22   0.402276

>  <lowdin_charges>
22
1   -0.278787
2   -0.173439
3   -0.141533
4   -0.127355
5   -0.208952
6   -0.047438
7   0.100419
8   0.100676
9   -0.455705
10   -0.178976
11   -0.386572
12   -0.200775
13   0.153223
14   0.164745
15   0.148647
16   0.161069
17   0.160782
18   0.171914
19   0.163613
20   0.264257
21   0.256008
22   0.354179

$$$$

