PCCDB-ID:  72904
public computational chemistry database (PCCDB) project, http://pccdb.org

 19 19  0  0  0  0  0  0  0  0999 V2000
   -1.4446    0.3551    0.1787 C   0  0  0  0  0  0  0  0  0  0  0  0
   -0.6858    1.3257   -0.4781 C   0  0  0  0  0  0  0  0  0  0  0  0
   -0.8173   -0.7576    0.7449 C   0  0  0  0  0  0  0  0  0  0  0  0
    0.6994    1.1853   -0.5717 C   0  0  0  0  0  0  0  0  0  0  0  0
    0.5670   -0.9011    0.6513 C   0  0  0  0  0  0  0  0  0  0  0  0
    1.3364    0.0704   -0.0084 C   0  0  0  0  0  0  0  0  0  0  0  0
    3.5921   -0.7118    1.2996 N   0  0  0  0  0  0  0  0  0  0  0  0
    3.5643   -1.4085   -1.1629 N   0  0  0  0  0  0  0  0  0  0  0  0
    3.7460    1.1805   -0.7363 O   0  0  0  0  0  0  0  0  0  0  0  0
    3.1426   -0.0779   -0.2068 P   0  0  0  0  0  0  0  0  0  0  0  0
   -2.5233    0.4666    0.2538 H   0  0  0  0  0  0  0  0  0  0  0  0
   -1.1719    2.1949   -0.9131 H   0  0  0  0  0  0  0  0  0  0  0  0
   -1.4064   -1.5107    1.2619 H   0  0  0  0  0  0  0  0  0  0  0  0
    1.3038    1.9385   -1.0681 H   0  0  0  0  0  0  0  0  0  0  0  0
    1.0558   -1.7589    1.1052 H   0  0  0  0  0  0  0  0  0  0  0  0
    3.3470   -0.1135    2.0841 H   0  0  0  0  0  0  0  0  0  0  0  0
    4.5780   -0.9595    1.3372 H   0  0  0  0  0  0  0  0  0  0  0  0
    3.0776   -2.2813   -0.9850 H   0  0  0  0  0  0  0  0  0  0  0  0
    3.6042   -1.1908   -2.1529 H   0  0  0  0  0  0  0  0  0  0  0  0
  1 11  1  0  0  0  0
  1  3  2  0  0  0  0
  2  1  1  0  0  0  0
  3 13  1  0  0  0  0
  4  2  2  0  0  0  0
  4  6  1  0  0  0  0
  5  3  1  0  0  0  0
  5 15  1  0  0  0  0
  6  5  2  0  0  0  0
  7 17  1  0  0  0  0
  7 16  1  0  0  0  0
  8 18  1  0  0  0  0
  8 10  1  0  0  0  0
  9 10  2  0  0  0  0
 10  6  1  0  0  0  0
 10  7  1  0  0  0  0
 12  2  1  0  0  0  0
 14  4  1  0  0  0  0
 19  8  1  0  0  0  0
M  END
>  <HBA>
3

>  <HBD>
2

>  <TPSA>
78.92

>  <cid>
72904

>  <dipole>
3.67

>  <excitation_energy_1>
5.224

>  <excitation_energy_2>
5.474

>  <excitation_energy_3>
5.658

>  <excitation_energy_4>
5.721

>  <homo_energy>
-6.879

>  <homo_lumo_gap>
6.248

>  <logP>
1.823

>  <lumo_energy>
-0.631

>  <melting_point>
137.83

>  <molecular_refractivity>
41.21

>  <oscillator_strength_1>
0.0063

>  <oscillator_strength_2>
0.0022

>  <oscillator_strength_3>
0.0392

>  <oscillator_strength_4>
0.085

>  <open_babel_can_smiles>
NP(=O)(c1ccccc1)N

>  <mulliken_charges>
19
1   -0.12722
2   -0.123162
3   -0.123026
4   -0.164236
5   -0.164347
6   -0.105695
7   -0.852744
8   -0.829512
9   -0.557547
10   0.957626
11   0.135785
12   0.137024
13   0.133867
14   0.175777
15   0.146819
16   0.337794
17   0.344301
18   0.333405
19   0.345091

>  <lowdin_charges>
19
1   -0.142864
2   -0.1563
3   -0.159669
4   -0.138327
5   -0.152195
6   -0.201552
7   -0.708214
8   -0.704721
9   -0.616982
10   0.984023
11   0.158167
12   0.161867
13   0.160787
14   0.183073
15   0.166146
16   0.290927
17   0.292458
18   0.289168
19   0.294209

$$$$

