PCCDB-ID:  61794
public computational chemistry database (PCCDB) project, http://pccdb.org

 23 23  0  0  0  0  0  0  0  0999 V2000
    1.0873    0.1285   -0.3887 C   0  0  0  0  0  0  0  0  0  0  0  0
    2.7623    0.1600    1.5194 C   0  0  0  0  0  0  0  0  0  0  0  0
    5.2700    1.1647   -2.3561 C   0  0  0  0  0  0  0  0  0  0  0  0
    2.8426   -2.5489   -0.1727 C   0  0  0  0  0  0  0  0  0  0  0  0
    3.3734    1.1198   -0.7202 C   0  0  0  0  0  0  0  0  0  0  0  0
    4.2230   -0.9201   -1.4045 C   0  0  0  0  0  0  0  0  0  0  0  0
    2.5708    0.0183   -0.0007 C   0  0  0  0  0  0  0  0  0  0  0  0
    4.3071    0.4889   -1.5054 N   0  0  0  0  0  0  0  0  0  0  0  0
    3.2026   -1.1941   -0.5334 N   0  0  0  0  0  0  0  0  0  0  0  0
    3.2098    2.3203   -0.6052 O   0  0  0  0  0  0  0  0  0  0  0  0
    4.9439   -1.7042   -1.9958 O   0  0  0  0  0  0  0  0  0  0  0  0
    0.7145    1.1213   -0.1208 H   0  0  0  0  0  0  0  0  0  0  0  0
    0.4894   -0.6218    0.1398 H   0  0  0  0  0  0  0  0  0  0  0  0
    0.9529   -0.0144   -1.4659 H   0  0  0  0  0  0  0  0  0  0  0  0
    2.4292    1.1520    1.8376 H   0  0  0  0  0  0  0  0  0  0  0  0
    3.8161    0.0427    1.7922 H   0  0  0  0  0  0  0  0  0  0  0  0
    2.1769   -0.5925    2.0591 H   0  0  0  0  0  0  0  0  0  0  0  0
    5.5487    2.1095   -1.8854 H   0  0  0  0  0  0  0  0  0  0  0  0
    4.8466    1.3710   -3.3452 H   0  0  0  0  0  0  0  0  0  0  0  0
    6.1414    0.5179   -2.4688 H   0  0  0  0  0  0  0  0  0  0  0  0
    3.4945   -3.2202   -0.7344 H   0  0  0  0  0  0  0  0  0  0  0  0
    1.7994   -2.7681   -0.4300 H   0  0  0  0  0  0  0  0  0  0  0  0
    2.9851   -2.7307    0.8997 H   0  0  0  0  0  0  0  0  0  0  0  0
  1 12  1  0  0  0  0
  1  7  1  0  0  0  0
  1 13  1  0  0  0  0
  2 16  1  0  0  0  0
  2 15  1  0  0  0  0
  2 17  1  0  0  0  0
  3 18  1  0  0  0  0
  3  8  1  0  0  0  0
  4 23  1  0  0  0  0
  5 10  2  0  0  0  0
  5  7  1  0  0  0  0
  6  9  1  0  0  0  0
  7  2  1  0  0  0  0
  8  6  1  0  0  0  0
  8  5  1  0  0  0  0
  9  4  1  0  0  0  0
  9  7  1  0  0  0  0
 11  6  2  0  0  0  0
 14  1  1  0  0  0  0
 19  3  1  0  0  0  0
 20  3  1  0  0  0  0
 21  4  1  0  0  0  0
 22  4  1  0  0  0  0
M  END
>  <HBA>
4

>  <HBD>
0

>  <TPSA>
40.62

>  <cid>
61794

>  <dipole>
2.36

>  <excitation_energy_1>
5.323

>  <excitation_energy_2>
5.695

>  <excitation_energy_3>
5.974

>  <excitation_energy_4>
6.274

>  <homo_energy>
-6.702

>  <homo_lumo_gap>
6.629

>  <logP>
0.165

>  <lumo_energy>
-0.073

>  <melting_point>
64.76

>  <molecular_refractivity>
48.1

>  <oscillator_strength_1>
0.0016

>  <oscillator_strength_2>
0.035

>  <oscillator_strength_3>
0.0003

>  <oscillator_strength_4>
0.0027

>  <open_babel_can_smiles>
CN1C(=O)N(C(C1=O)(C)C)C

>  <mulliken_charges>
23
1   -0.448687
2   -0.448518
3   -0.32141
4   -0.325066
5   0.600805
6   0.778047
7   0.127261
8   -0.503899
9   -0.479083
10   -0.510275
11   -0.527638
12   0.17934
13   0.151962
14   0.160057
15   0.179312
16   0.159945
17   0.152368
18   0.186262
19   0.175021
20   0.192432
21   0.202598
22   0.159749
23   0.159417

>  <lowdin_charges>
23
1   -0.441291
2   -0.441976
3   -0.34677
4   -0.348685
5   0.153904
6   0.182222
7   0.051172
8   -0.083148
9   -0.114095
10   -0.276082
11   -0.309761
12   0.171442
13   0.156246
14   0.158103
15   0.171395
16   0.158472
17   0.156354
18   0.1743
19   0.161684
20   0.17904
21   0.186731
22   0.150897
23   0.149846

$$$$

