PCCDB-ID:  17174
public computational chemistry database (PCCDB) project, http://pccdb.org

 14 14  0  0  0  0  0  0  0  0999 V2000
    0.9505   -0.1589   -0.2786 C   0  0  0  0  0  0  0  0  0  0  0  0
    4.4918   -1.5335    2.3887 C   0  0  0  0  0  0  0  0  0  0  0  0
    4.1730   -0.3740    1.7485 C   0  0  0  0  0  0  0  0  0  0  0  0
    2.6242   -1.9345    1.4206 C   0  0  0  0  0  0  0  0  0  0  0  0
    2.2546    0.3198    0.3215 C   0  0  0  0  0  0  0  0  0  0  0  0
    3.5188   -2.5043    2.1791 N   0  0  0  0  0  0  0  0  0  0  0  0
    2.9568   -0.6212    1.1133 N   0  0  0  0  0  0  0  0  0  0  0  0
    2.7048    1.4327    0.1578 O   0  0  0  0  0  0  0  0  0  0  0  0
    0.2458   -0.4643    0.5026 H   0  0  0  0  0  0  0  0  0  0  0  0
    1.1133   -1.0184   -0.9382 H   0  0  0  0  0  0  0  0  0  0  0  0
    0.5206    0.6618   -0.8532 H   0  0  0  0  0  0  0  0  0  0  0  0
    5.3631   -1.7428    2.9939 H   0  0  0  0  0  0  0  0  0  0  0  0
    4.6518    0.5878    1.6645 H   0  0  0  0  0  0  0  0  0  0  0  0
    1.7190   -2.4000    1.0570 H   0  0  0  0  0  0  0  0  0  0  0  0
  1  5  1  0  0  0  0
  1  9  1  0  0  0  0
  2 12  1  0  0  0  0
  3  2  2  0  0  0  0
  4  6  2  0  0  0  0
  5  7  1  0  0  0  0
  6  2  1  0  0  0  0
  7  4  1  0  0  0  0
  7  3  1  0  0  0  0
  8  5  2  0  0  0  0
 10  1  1  0  0  0  0
 11  1  1  0  0  0  0
 13  3  1  0  0  0  0
 14  4  1  0  0  0  0
M  END
>  <HBA>
3

>  <HBD>
0

>  <TPSA>
34.89

>  <cid>
17174

>  <dipole>
2.01

>  <excitation_energy_1>
4.586

>  <excitation_energy_2>
4.652

>  <excitation_energy_3>
5.439

>  <excitation_energy_4>
5.98

>  <homo_energy>
-6.653

>  <homo_lumo_gap>
5.325

>  <logP>
0.543

>  <lumo_energy>
-1.328

>  <melting_point>
41.71

>  <molecular_refractivity>
28.72

>  <oscillator_strength_1>
0.037

>  <oscillator_strength_2>
0.0014

>  <oscillator_strength_3>
0.0003

>  <oscillator_strength_4>
0.1927

>  <open_babel_can_smiles>
CC(=O)n1cncc1

>  <mulliken_charges>
14
1   -0.550101
2   -0.044324
3   0.034265
4   0.212786
5   0.582604
6   -0.423969
7   -0.451764
8   -0.437916
9   0.188126
10   0.188366
11   0.199827
12   0.149585
13   0.186944
14   0.16557

>  <lowdin_charges>
14
1   -0.473722
2   -0.139594
3   -0.145126
4   -0.088248
5   0.190622
6   -0.166464
7   -0.022455
8   -0.232341
9   0.179961
10   0.179738
11   0.187348
12   0.168592
13   0.188743
14   0.172945

$$$$

