PCCDB-ID:  16832
public computational chemistry database (PCCDB) project, http://pccdb.org

 29 28  0  0  0  0  0  0  0  0999 V2000
    3.9509    3.0330   -0.5447 C   0  0  0  0  0  0  0  0  0  0  0  0
    9.0323   -0.4054   -1.1688 C   0  0  0  0  0  0  0  0  0  0  0  0
    9.2608   -2.9316   -0.9102 C   0  0  0  0  0  0  0  0  0  0  0  0
    3.9111    1.5297   -0.2523 C   0  0  0  0  0  0  0  0  0  0  0  0
    4.4574    0.6762   -1.4038 C   0  0  0  0  0  0  0  0  0  0  0  0
    4.4212   -0.8283   -1.1064 C   0  0  0  0  0  0  0  0  0  0  0  0
    4.9460   -1.7070   -2.2615 C   0  0  0  0  0  0  0  0  0  0  0  0
    8.6325   -1.7830   -1.6874 C   0  0  0  0  0  0  0  0  0  0  0  0
    6.4144   -1.4696   -2.5574 C   0  0  0  0  0  0  0  0  0  0  0  0
    6.8479   -0.9100   -3.5430 O   0  0  0  0  0  0  0  0  0  0  0  0
    7.1903   -1.9514   -1.5571 O   0  0  0  0  0  0  0  0  0  0  0  0
    3.5530    3.6145    0.2947 H   0  0  0  0  0  0  0  0  0  0  0  0
    3.3565    3.2801   -1.4329 H   0  0  0  0  0  0  0  0  0  0  0  0
    4.9770    3.3736   -0.7299 H   0  0  0  0  0  0  0  0  0  0  0  0
   10.1172   -0.2722   -1.2492 H   0  0  0  0  0  0  0  0  0  0  0  0
    8.7486   -0.2910   -0.1164 H   0  0  0  0  0  0  0  0  0  0  0  0
    8.5490    0.3805   -1.7559 H   0  0  0  0  0  0  0  0  0  0  0  0
   10.3529   -2.8802   -0.9798 H   0  0  0  0  0  0  0  0  0  0  0  0
    8.9346   -3.8969   -1.3102 H   0  0  0  0  0  0  0  0  0  0  0  0
    8.9809   -2.8845    0.1481 H   0  0  0  0  0  0  0  0  0  0  0  0
    2.8770    1.2260   -0.0346 H   0  0  0  0  0  0  0  0  0  0  0  0
    4.4873    1.3187    0.6600 H   0  0  0  0  0  0  0  0  0  0  0  0
    5.4879    0.9864   -1.6277 H   0  0  0  0  0  0  0  0  0  0  0  0
    3.8783    0.8801   -2.3163 H   0  0  0  0  0  0  0  0  0  0  0  0
    3.3880   -1.1313   -0.8900 H   0  0  0  0  0  0  0  0  0  0  0  0
    5.0052   -1.0443   -0.2028 H   0  0  0  0  0  0  0  0  0  0  0  0
    4.3931   -1.5016   -3.1828 H   0  0  0  0  0  0  0  0  0  0  0  0
    4.8099   -2.7634   -2.0022 H   0  0  0  0  0  0  0  0  0  0  0  0
    8.8739   -1.8579   -2.7516 H   0  0  0  0  0  0  0  0  0  0  0  0
  1  4  1  0  0  0  0
  1 12  1  0  0  0  0
  2 16  1  0  0  0  0
  3 20  1  0  0  0  0
  4 21  1  0  0  0  0
  4 22  1  0  0  0  0
  5  6  1  0  0  0  0
  5  4  1  0  0  0  0
  6 25  1  0  0  0  0
  6 26  1  0  0  0  0
  7 28  1  0  0  0  0
  7  6  1  0  0  0  0
  8 11  1  0  0  0  0
  8  2  1  0  0  0  0
  8  3  1  0  0  0  0
  9  7  1  0  0  0  0
  9 11  1  0  0  0  0
 10  9  2  0  0  0  0
 13  1  1  0  0  0  0
 14  1  1  0  0  0  0
 15  2  1  0  0  0  0
 17  2  1  0  0  0  0
 18  3  1  0  0  0  0
 19  3  1  0  0  0  0
 23  5  1  0  0  0  0
 24  5  1  0  0  0  0
 27  7  1  0  0  0  0
 29  8  1  0  0  0  0
M  END
>  <HBA>
2

>  <HBD>
0

>  <TPSA>
26.3

>  <cid>
16832

>  <dipole>
1.9

>  <excitation_energy_1>
5.666

>  <excitation_energy_2>
6.869

>  <excitation_energy_3>
7.235

>  <excitation_energy_4>
7.305

>  <homo_energy>
-7.094

>  <homo_lumo_gap>
7.538

>  <logP>
2.518

>  <lumo_energy>
0.444

>  <melting_point>
-16.11

>  <molecular_refractivity>
46.66

>  <oscillator_strength_1>
0.0025

>  <oscillator_strength_2>
0.015

>  <oscillator_strength_3>
0.0023

>  <oscillator_strength_4>
0.0109

>  <open_babel_can_smiles>
CCCCCC(=O)OC(C)C

>  <mulliken_charges>
29
1   -0.441922
2   -0.458955
3   -0.450957
4   -0.248182
5   -0.251654
6   -0.269365
7   -0.336093
8   0.129573
9   0.611589
10   -0.481675
11   -0.468515
12   0.141845
13   0.14331
14   0.143474
15   0.147578
16   0.149172
17   0.17249
18   0.148533
19   0.156784
20   0.153936
21   0.130269
22   0.130722
23   0.142385
24   0.133759
25   0.13787
26   0.149674
27   0.163252
28   0.159244
29   0.161856

>  <lowdin_charges>
29
1   -0.444726
2   -0.452287
3   -0.443978
4   -0.270857
5   -0.27711
6   -0.269651
7   -0.29532
8   0.015047
9   0.195731
10   -0.27184
11   -0.202726
12   0.15028
13   0.147752
14   0.146538
15   0.154959
16   0.151414
17   0.165958
18   0.154513
19   0.158115
20   0.153882
21   0.137526
22   0.13917
23   0.14303
24   0.141675
25   0.14425
26   0.148682
27   0.163556
28   0.163639
29   0.152778

$$$$

