PCCDB-ID:  37714
public computational chemistry database (PCCDB) project, http://pccdb.org

 15 14  0  0  0  0  0  0  0  0999 V2000
    1.0063    0.1370    0.0102 C   0  0  0  0  0  0  0  0  0  0  0  0
    2.5350    0.0383    0.0625 C   0  0  0  0  0  0  0  0  0  0  0  0
    3.0650   -1.0059   -0.9127 C   0  0  0  0  0  0  0  0  0  0  0  0
    5.0757   -1.8311    0.0498 C   0  0  0  0  0  0  0  0  0  0  0  0
    4.4939   -2.4957    0.8674 O   0  0  0  0  0  0  0  0  0  0  0  0
    6.4175   -1.7658   -0.0376 O   0  0  0  0  0  0  0  0  0  0  0  0
    4.5134   -1.0548   -0.9073 O   0  0  0  0  0  0  0  0  0  0  0  0
    0.6414    0.8916    0.7143 H   0  0  0  0  0  0  0  0  0  0  0  0
    0.5365   -0.8180    0.2736 H   0  0  0  0  0  0  0  0  0  0  0  0
    0.6555    0.4185   -0.9903 H   0  0  0  0  0  0  0  0  0  0  0  0
    2.8602   -0.2319    1.0735 H   0  0  0  0  0  0  0  0  0  0  0  0
    2.9861    1.0096   -0.1766 H   0  0  0  0  0  0  0  0  0  0  0  0
    2.8058   -0.7582   -1.9457 H   0  0  0  0  0  0  0  0  0  0  0  0
    2.6831   -2.0017   -0.6721 H   0  0  0  0  0  0  0  0  0  0  0  0
    6.6466   -1.1702   -0.7718 H   0  0  0  0  0  0  0  0  0  0  0  0
  1  2  1  0  0  0  0
  1  9  1  0  0  0  0
  1  8  1  0  0  0  0
  2 11  1  0  0  0  0
  3  7  1  0  0  0  0
  3 14  1  0  0  0  0
  3  2  1  0  0  0  0
  4  5  2  0  0  0  0
  6  4  1  0  0  0  0
  7  4  1  0  0  0  0
 10  1  1  0  0  0  0
 12  2  1  0  0  0  0
 13  3  1  0  0  0  0
 15  6  1  0  0  0  0
M  END
>  <HBA>
3

>  <HBD>
1

>  <TPSA>
46.53

>  <cid>
37714

>  <dipole>
3.49

>  <excitation_energy_1>
6.973

>  <excitation_energy_2>
7.296

>  <excitation_energy_3>
7.609

>  <excitation_energy_4>
7.898

>  <homo_energy>
-7.87

>  <homo_lumo_gap>
9.018

>  <logP>
1.091

>  <lumo_energy>
1.148

>  <melting_point>
53.31

>  <molecular_refractivity>
24.59

>  <oscillator_strength_1>
0.0001

>  <oscillator_strength_2>
0.0191

>  <oscillator_strength_3>
0.0042

>  <oscillator_strength_4>
0.0029

>  <open_babel_can_smiles>
CCCOC(=O)O

>  <mulliken_charges>
15
1   -0.454917
2   -0.274471
3   -0.037548
4   0.773156
5   -0.46514
6   -0.571301
7   -0.487229
8   0.156298
9   0.155233
10   0.145302
11   0.168219
12   0.144979
13   0.152332
14   0.173839
15   0.42125

>  <lowdin_charges>
15
1   -0.444384
2   -0.285048
3   -0.123606
4   0.233738
5   -0.265934
6   -0.343085
7   -0.219708
8   0.159282
9   0.153314
10   0.147814
11   0.158699
12   0.147206
13   0.151458
14   0.160217
15   0.370039

$$$$

