PCCDB-ID:  50008
public computational chemistry database (PCCDB) project, http://pccdb.org

 23 22  0  0  0  0  0  0  0  0999 V2000
    2.6213   -0.0169    1.4152 C   0  0  0  0  0  0  0  0  0  0  0  0
    0.7896   -0.4972   -0.2774 C   0  0  0  0  0  0  0  0  0  0  0  0
    2.9234    0.5626   -1.0342 C   0  0  0  0  0  0  0  0  0  0  0  0
    7.1056    0.8479   -0.7437 C   0  0  0  0  0  0  0  0  0  0  0  0
    2.3036   -0.4153   -0.0321 C   0  0  0  0  0  0  0  0  0  0  0  0
    5.1658   -0.2155   -1.5361 C   0  0  0  0  0  0  0  0  0  0  0  0
    6.4319   -0.1875   -1.5025 N   0  0  0  0  0  0  0  0  0  0  0  0
    8.4389    0.9868   -1.1846 O   0  0  0  0  0  0  0  0  0  0  0  0
    4.5012   -1.1641   -2.2435 O   0  0  0  0  0  0  0  0  0  0  0  0
    4.3632    0.6562   -0.9019 O   0  0  0  0  0  0  0  0  0  0  0  0
    2.2231   -0.7564    2.1190 H   0  0  0  0  0  0  0  0  0  0  0  0
    2.1714    0.9540    1.6610 H   0  0  0  0  0  0  0  0  0  0  0  0
    3.7004    0.0626    1.5788 H   0  0  0  0  0  0  0  0  0  0  0  0
    0.3229   -1.2017    0.4196 H   0  0  0  0  0  0  0  0  0  0  0  0
    0.5618   -0.8334   -1.2959 H   0  0  0  0  0  0  0  0  0  0  0  0
    0.3099    0.4791   -0.1293 H   0  0  0  0  0  0  0  0  0  0  0  0
    2.5771    1.5829   -0.8406 H   0  0  0  0  0  0  0  0  0  0  0  0
    2.6706    0.2916   -2.0620 H   0  0  0  0  0  0  0  0  0  0  0  0
    7.0688    0.5925    0.3304 H   0  0  0  0  0  0  0  0  0  0  0  0
    6.6414    1.8336   -0.8692 H   0  0  0  0  0  0  0  0  0  0  0  0
    2.7379   -1.4040   -0.2308 H   0  0  0  0  0  0  0  0  0  0  0  0
    8.7809    0.0844   -1.2897 H   0  0  0  0  0  0  0  0  0  0  0  0
    5.1985   -1.6950   -2.6667 H   0  0  0  0  0  0  0  0  0  0  0  0
  1 13  1  0  0  0  0
  1 12  1  0  0  0  0
  1 11  1  0  0  0  0
  2 16  1  0  0  0  0
  2  5  1  0  0  0  0
  2 14  1  0  0  0  0
  3 10  1  0  0  0  0
  3 17  1  0  0  0  0
  3  5  1  0  0  0  0
  4 19  1  0  0  0  0
  5  1  1  0  0  0  0
  6  7  2  0  0  0  0
  6 10  1  0  0  0  0
  7  4  1  0  0  0  0
  8  4  1  0  0  0  0
  9  6  1  0  0  0  0
 15  2  1  0  0  0  0
 18  3  1  0  0  0  0
 20  4  1  0  0  0  0
 21  5  1  0  0  0  0
 22  8  1  0  0  0  0
 23  9  1  0  0  0  0
M  END
>  <HBA>
4

>  <HBD>
2

>  <TPSA>
58.56

>  <cid>
50008

>  <dipole>
3.49

>  <excitation_energy_1>
5.919

>  <excitation_energy_2>
6.497

>  <excitation_energy_3>
6.544

>  <excitation_energy_4>
6.806

>  <homo_energy>
-6.528

>  <homo_lumo_gap>
7.783

>  <logP>
0.709

>  <lumo_energy>
1.254

>  <melting_point>
42.01

>  <molecular_refractivity>
36.59

>  <oscillator_strength_1>
0.0019

>  <oscillator_strength_2>
0.009

>  <oscillator_strength_3>
0.0021

>  <oscillator_strength_4>
0.0179

>  <open_babel_can_smiles>
OC/N=C(\OCC(C)C)/O

>  <mulliken_charges>
23
1   -0.444952
2   -0.453216
3   -0.033157
4   0.096786
5   -0.098342
6   0.735686
7   -0.533582
8   -0.613739
9   -0.606206
10   -0.484331
11   0.145277
12   0.139469
13   0.159787
14   0.152226
15   0.14816
16   0.143221
17   0.152208
18   0.166702
19   0.121496
20   0.147908
21   0.148273
22   0.385348
23   0.42498

>  <lowdin_charges>
23
1   -0.446365
2   -0.444537
3   -0.124284
4   -0.064968
5   -0.134447
6   0.188824
7   -0.287804
8   -0.461804
9   -0.369884
10   -0.192707
11   0.152588
12   0.146139
13   0.155269
14   0.157056
15   0.150708
16   0.147455
17   0.15269
18   0.155777
19   0.118903
20   0.140351
21   0.148361
22   0.338325
23   0.374353

$$$$

