PCCDB-ID:  7994
public computational chemistry database (PCCDB) project, http://pccdb.org

 20 19  0  0  0  0  0  0  0  0999 V2000
    0.8666   -0.0462    0.1445 C   0  0  0  0  0  0  0  0  0  0  0  0
    2.5897   -0.0266   -1.6974 C   0  0  0  0  0  0  0  0  0  0  0  0
    3.2745    1.0605    1.8576 C   0  0  0  0  0  0  0  0  0  0  0  0
    3.7131    2.4488    2.3279 C   0  0  0  0  0  0  0  0  0  0  0  0
    2.3639   -0.0513   -0.1829 C   0  0  0  0  0  0  0  0  0  0  0  0
    3.0309    1.1214    0.4119 N   0  0  0  0  0  0  0  0  0  0  0  0
    2.7557    3.4232    1.9629 O   0  0  0  0  0  0  0  0  0  0  0  0
    0.3788   -0.9263   -0.2896 H   0  0  0  0  0  0  0  0  0  0  0  0
    0.3928    0.8535   -0.2641 H   0  0  0  0  0  0  0  0  0  0  0  0
    0.6806   -0.0657    1.2232 H   0  0  0  0  0  0  0  0  0  0  0  0
    2.0900   -0.8729   -2.1799 H   0  0  0  0  0  0  0  0  0  0  0  0
    3.6577   -0.0859   -1.9435 H   0  0  0  0  0  0  0  0  0  0  0  0
    2.1920    0.9000   -2.1274 H   0  0  0  0  0  0  0  0  0  0  0  0
    2.3335    0.8068    2.3557 H   0  0  0  0  0  0  0  0  0  0  0  0
    4.0193    0.2959    2.1447 H   0  0  0  0  0  0  0  0  0  0  0  0
    4.7074    2.6825    1.9020 H   0  0  0  0  0  0  0  0  0  0  0  0
    3.8147    2.4700    3.4187 H   0  0  0  0  0  0  0  0  0  0  0  0
    2.8006   -0.9878    0.2137 H   0  0  0  0  0  0  0  0  0  0  0  0
    3.9301    1.2490   -0.0533 H   0  0  0  0  0  0  0  0  0  0  0  0
    2.4655    3.1452    1.0731 H   0  0  0  0  0  0  0  0  0  0  0  0
  1 10  1  0  0  0  0
  2  5  1  0  0  0  0
  3 15  1  0  0  0  0
  3  4  1  0  0  0  0
  3 14  1  0  0  0  0
  4 17  1  0  0  0  0
  5  1  1  0  0  0  0
  5 18  1  0  0  0  0
  5  6  1  0  0  0  0
  6  3  1  0  0  0  0
  7  4  1  0  0  0  0
  8  1  1  0  0  0  0
  9  1  1  0  0  0  0
 11  2  1  0  0  0  0
 12  2  1  0  0  0  0
 13  2  1  0  0  0  0
 16  4  1  0  0  0  0
 19  6  1  0  0  0  0
 20  7  1  0  0  0  0
M  END
>  <HBA>
2

>  <HBD>
2

>  <TPSA>
32.26

>  <cid>
7994

>  <dipole>
2.93

>  <excitation_energy_1>
5.788

>  <excitation_energy_2>
6.328

>  <excitation_energy_3>
6.482

>  <excitation_energy_4>
6.553

>  <homo_energy>
-6.389

>  <homo_lumo_gap>
8.381

>  <logP>
0.368

>  <lumo_energy>
1.992

>  <melting_point>
19.9

>  <molecular_refractivity>
30.11

>  <oscillator_strength_1>
0.0071

>  <oscillator_strength_2>
0.0633

>  <oscillator_strength_3>
0.045

>  <oscillator_strength_4>
0.0028

>  <open_babel_can_smiles>
OCCNC(C)C

>  <mulliken_charges>
20
1   -0.435692
2   -0.461229
3   -0.153881
4   -0.017283
5   0.069058
6   -0.580639
7   -0.628986
8   0.140825
9   0.151388
10   0.148704
11   0.150202
12   0.138289
13   0.155869
14   0.15558
15   0.11727
16   0.107111
17   0.13967
18   0.109861
19   0.29615
20   0.397732

>  <lowdin_charges>
20
1   -0.448455
2   -0.44905
3   -0.226888
4   -0.133348
5   -0.053734
6   -0.367613
7   -0.475834
8   0.151489
9   0.15392
10   0.149713
11   0.15665
12   0.144695
13   0.154831
14   0.150108
15   0.12594
16   0.116192
17   0.143207
18   0.119025
19   0.252743
20   0.336408

$$$$

