PCCDB-ID:  12724
public computational chemistry database (PCCDB) project, http://pccdb.org

 18 17  0  0  0  0  0  0  0  0999 V2000
    1.6220   -0.0263   -1.4496 C   0  0  0  0  0  0  0  0  0  0  0  0
    5.3836    0.3102   -1.1817 C   0  0  0  0  0  0  0  0  0  0  0  0
    5.5937    2.1606    0.5324 C   0  0  0  0  0  0  0  0  0  0  0  0
    2.3907    0.1415   -0.3725 C   0  0  0  0  0  0  0  0  0  0  0  0
    3.2946    1.3166   -0.1167 C   0  0  0  0  0  0  0  0  0  0  0  0
    4.7820    0.9375    0.0830 C   0  0  0  0  0  0  0  0  0  0  0  0
    0.9848   -0.8986   -1.5703 H   0  0  0  0  0  0  0  0  0  0  0  0
    1.5956    0.7088   -2.2518 H   0  0  0  0  0  0  0  0  0  0  0  0
    6.4219    0.0009   -1.0128 H   0  0  0  0  0  0  0  0  0  0  0  0
    5.3816    1.0308   -2.0105 H   0  0  0  0  0  0  0  0  0  0  0  0
    4.8138   -0.5672   -1.5048 H   0  0  0  0  0  0  0  0  0  0  0  0
    6.6441    1.8980    0.7047 H   0  0  0  0  0  0  0  0  0  0  0  0
    5.1970    2.5866    1.4620 H   0  0  0  0  0  0  0  0  0  0  0  0
    5.5702    2.9484   -0.2319 H   0  0  0  0  0  0  0  0  0  0  0  0
    2.3835   -0.6255    0.4052 H   0  0  0  0  0  0  0  0  0  0  0  0
    2.9508    1.8388    0.7897 H   0  0  0  0  0  0  0  0  0  0  0  0
    3.2107    2.0370   -0.9428 H   0  0  0  0  0  0  0  0  0  0  0  0
    4.8267    0.1883    0.8888 H   0  0  0  0  0  0  0  0  0  0  0  0
  1  4  2  0  0  0  0
  2  9  1  0  0  0  0
  2  6  1  0  0  0  0
  3 12  1  0  0  0  0
  3 13  1  0  0  0  0
  4  5  1  0  0  0  0
  4 15  1  0  0  0  0
  5  6  1  0  0  0  0
  5 16  1  0  0  0  0
  6  3  1  0  0  0  0
  6 18  1  0  0  0  0
  7  1  1  0  0  0  0
  8  1  1  0  0  0  0
 10  2  1  0  0  0  0
 11  2  1  0  0  0  0
 14  3  1  0  0  0  0
 17  5  1  0  0  0  0
M  END
>  <HBA>
0

>  <HBD>
0

>  <TPSA>
0.0

>  <cid>
12724

>  <dipole>
0.32

>  <excitation_energy_1>
6.438

>  <excitation_energy_2>
6.834

>  <excitation_energy_3>
6.865

>  <excitation_energy_4>
6.949

>  <homo_energy>
-6.778

>  <homo_lumo_gap>
7.464

>  <logP>
2.219

>  <lumo_energy>
0.686

>  <melting_point>
-47.16

>  <molecular_refractivity>
30.48

>  <oscillator_strength_1>
0.0216

>  <oscillator_strength_2>
0.1321

>  <oscillator_strength_3>
0.0032

>  <oscillator_strength_4>
0.1689

>  <open_babel_can_smiles>
C=CCC(C)C

>  <mulliken_charges>
18
1   -0.342187
2   -0.439522
3   -0.441285
4   -0.041722
5   -0.293168
6   -0.071259
7   0.13674
8   0.134129
9   0.137995
10   0.135974
11   0.151602
12   0.141236
13   0.138831
14   0.1393
15   0.121912
16   0.138279
17   0.131905
18   0.12124

>  <lowdin_charges>
18
1   -0.346063
2   -0.446777
3   -0.44369
4   -0.144299
5   -0.274677
6   -0.119207
7   0.157275
8   0.153859
9   0.146053
10   0.145
11   0.154743
12   0.147412
13   0.146992
14   0.146321
15   0.148247
16   0.149339
17   0.144331
18   0.13514

$$$$

