PCCDB-ID:  10824
public computational chemistry database (PCCDB) project, http://pccdb.org

 18 18  0  0  0  0  0  0  0  0999 V2000
    2.7088    1.1974   -0.6824 C   0  0  0  0  0  0  0  0  0  0  0  0
    3.7017   -2.0062    2.7462 C   0  0  0  0  0  0  0  0  0  0  0  0
    4.4114   -1.0639    3.4921 C   0  0  0  0  0  0  0  0  0  0  0  0
    3.1152   -1.6749    1.5304 C   0  0  0  0  0  0  0  0  0  0  0  0
    3.9494    0.5944    1.7824 C   0  0  0  0  0  0  0  0  0  0  0  0
    4.5386    0.2469    3.0124 C   0  0  0  0  0  0  0  0  0  0  0  0
    3.2429   -0.3628    1.0507 C   0  0  0  0  0  0  0  0  0  0  0  0
    5.1935    1.2258    3.7706 N   0  0  0  0  0  0  0  0  0  0  0  0
    2.6409   -0.1143   -0.1519 O   0  0  0  0  0  0  0  0  0  0  0  0
    2.1524    1.1705   -1.6215 H   0  0  0  0  0  0  0  0  0  0  0  0
    3.7451    1.4999   -0.8865 H   0  0  0  0  0  0  0  0  0  0  0  0
    2.2463    1.9317   -0.0093 H   0  0  0  0  0  0  0  0  0  0  0  0
    3.6084   -3.0213    3.1237 H   0  0  0  0  0  0  0  0  0  0  0  0
    4.8615   -1.3384    4.4430 H   0  0  0  0  0  0  0  0  0  0  0  0
    2.5624   -2.3989    0.9417 H   0  0  0  0  0  0  0  0  0  0  0  0
    4.0488    1.6129    1.4220 H   0  0  0  0  0  0  0  0  0  0  0  0
    5.8738    0.8605    4.4260 H   0  0  0  0  0  0  0  0  0  0  0  0
    5.5836    1.9885    3.2301 H   0  0  0  0  0  0  0  0  0  0  0  0
  1  9  1  0  0  0  0
  1 12  1  0  0  0  0
  2 13  1  0  0  0  0
  2  3  2  0  0  0  0
  3 14  1  0  0  0  0
  4  2  1  0  0  0  0
  5  6  2  0  0  0  0
  6  3  1  0  0  0  0
  6  8  1  0  0  0  0
  7  4  2  0  0  0  0
  7  5  1  0  0  0  0
  8 17  1  0  0  0  0
  9  7  1  0  0  0  0
 10  1  1  0  0  0  0
 11  1  1  0  0  0  0
 15  4  1  0  0  0  0
 16  5  1  0  0  0  0
 18  8  1  0  0  0  0
M  END
>  <HBA>
2

>  <HBD>
1

>  <TPSA>
35.25

>  <cid>
10824

>  <dipole>
2.5

>  <excitation_energy_1>
4.615

>  <excitation_energy_2>
4.785

>  <excitation_energy_3>
5.196

>  <excitation_energy_4>
5.331

>  <homo_energy>
-5.222

>  <homo_lumo_gap>
5.704

>  <logP>
1.859

>  <lumo_energy>
0.482

>  <melting_point>
58.58

>  <molecular_refractivity>
37.34

>  <oscillator_strength_1>
0.007

>  <oscillator_strength_2>
0.0384

>  <oscillator_strength_3>
0.0088

>  <oscillator_strength_4>
0.0087

>  <open_babel_can_smiles>
COc1cccc(c1)N

>  <mulliken_charges>
18
1   -0.210788
2   -0.137816
3   -0.181948
4   -0.182546
5   -0.251307
6   0.308878
7   0.374747
8   -0.787309
9   -0.509298
10   0.167024
11   0.146702
12   0.151002
13   0.125083
14   0.110055
15   0.127807
16   0.1152
17   0.318556
18   0.315959

>  <lowdin_charges>
18
1   -0.277881
2   -0.136275
3   -0.22467
4   -0.215743
5   -0.258927
6   0.069021
7   0.113152
8   -0.49155
9   -0.20035
10   0.161046
11   0.141169
12   0.145759
13   0.155823
14   0.150408
15   0.1648
16   0.154999
17   0.27535
18   0.273869

$$$$

