PCCDB-ID:  23121
public computational chemistry database (PCCDB) project, http://pccdb.org

 17 16  0  0  0  0  0  0  0  0999 V2000
    0.8543   -0.3282    0.5916 C   0  0  0  0  0  0  0  0  0  0  0  0
    1.7790    0.2984   -2.1469 C   0  0  0  0  0  0  0  0  0  0  0  0
    2.7553   -0.2143   -1.0472 C   0  0  0  0  0  0  0  0  0  0  0  0
    3.2279   -0.5464    1.3034 C   0  0  0  0  0  0  0  0  0  0  0  0
    2.2690    0.0146   -3.3777 N   0  0  0  0  0  0  0  0  0  0  0  0
    4.4795   -0.7371    1.2732 N   0  0  0  0  0  0  0  0  0  0  0  0
    2.2941   -0.3517    0.2406 N   0  0  0  0  0  0  0  0  0  0  0  0
    0.7403    0.9041   -1.9294 O   0  0  0  0  0  0  0  0  0  0  0  0
    3.9203   -0.4141   -1.3898 O   0  0  0  0  0  0  0  0  0  0  0  0
    2.5757   -0.4860    2.4937 O   0  0  0  0  0  0  0  0  0  0  0  0
    0.2624   -0.5253   -0.2951 H   0  0  0  0  0  0  0  0  0  0  0  0
    0.5698    0.6451    0.9970 H   0  0  0  0  0  0  0  0  0  0  0  0
    0.6755   -1.0970    1.3416 H   0  0  0  0  0  0  0  0  0  0  0  0
    3.2250   -0.3068   -3.4516 H   0  0  0  0  0  0  0  0  0  0  0  0
    1.8144    0.4326   -4.1770 H   0  0  0  0  0  0  0  0  0  0  0  0
    4.8285   -0.7691    0.3181 H   0  0  0  0  0  0  0  0  0  0  0  0
    3.2783   -0.6283    3.1536 H   0  0  0  0  0  0  0  0  0  0  0  0
  1 12  1  0  0  0  0
  1 13  1  0  0  0  0
  2  8  2  0  0  0  0
  2  3  1  0  0  0  0
  3  7  1  0  0  0  0
  4 10  1  0  0  0  0
  5  2  1  0  0  0  0
  6  4  2  0  0  0  0
  7  1  1  0  0  0  0
  7  4  1  0  0  0  0
  9  3  2  0  0  0  0
 10 17  1  0  0  0  0
 11  1  1  0  0  0  0
 14  5  1  0  0  0  0
 15  5  1  0  0  0  0
 16  6  1  0  0  0  0
M  END
>  <HBA>
6

>  <HBD>
2

>  <TPSA>
106.49

>  <cid>
23121

>  <dipole>
1.8

>  <excitation_energy_1>
3.787

>  <excitation_energy_2>
4.758

>  <excitation_energy_3>
5.014

>  <excitation_energy_4>
5.484

>  <homo_energy>
-6.825

>  <homo_lumo_gap>
5.197

>  <logP>
-0.591

>  <lumo_energy>
-1.627

>  <melting_point>
160.4

>  <molecular_refractivity>
30.64

>  <oscillator_strength_1>
0.0006

>  <oscillator_strength_2>
0.0799

>  <oscillator_strength_3>
0.0018

>  <oscillator_strength_4>
0.0183

>  <open_babel_can_smiles>
OC(=N)N(C(=O)C(=O)N)C

>  <mulliken_charges>
17
1   -0.298869
2   0.527207
3   0.568847
4   0.654251
5   -0.730975
6   -0.638122
7   -0.511926
8   -0.493394
9   -0.518081
10   -0.606786
11   0.193157
12   0.186279
13   0.182417
14   0.370489
15   0.34968
16   0.339408
17   0.426418

>  <lowdin_charges>
17
1   -0.347406
2   0.134696
3   0.147554
4   0.163538
5   -0.432888
6   -0.434213
7   -0.070633
8   -0.282172
9   -0.287739
10   -0.368575
11   0.180275
12   0.169585
13   0.170394
14   0.305456
15   0.298191
16   0.281488
17   0.372449

$$$$

