PCCDB-ID:  69669
public computational chemistry database (PCCDB) project, http://pccdb.org

 21 21  0  0  1  0  0  0  0  0999 V2000
    1.2118   -0.1413    0.2755 C   0  0  0  0  0  0  0  0  0  0  0  0
    4.7839   -0.8363   -0.2045 C   0  0  0  0  0  0  0  0  0  0  0  0
    4.8183    0.7054   -0.1041 C   0  0  0  0  0  0  0  0  0  0  0  0
    2.9543    2.3532    0.3914 C   0  0  0  0  0  0  0  0  0  0  0  0
    2.8596    2.9417    1.8043 C   0  0  0  0  0  0  0  0  0  0  0  0
    2.7046   -0.1558    0.1265 C   0  0  2  0  0  0  0  0  0  0  0  0
    3.3574   -1.2036   -0.2264 N   0  0  0  0  0  0  0  0  0  0  0  0
    3.4689    0.9844    0.4175 N   0  0  0  0  0  0  0  0  0  0  0  0
    4.0882    2.8283    2.5011 O   0  0  0  0  0  0  0  0  0  0  0  0
    0.8375   -1.1548    0.1249 H   0  0  0  0  0  0  0  0  0  0  0  0
    0.7370    0.5187   -0.4608 H   0  0  0  0  0  0  0  0  0  0  0  0
    0.9141    0.2084    1.2710 H   0  0  0  0  0  0  0  0  0  0  0  0
    5.2574   -1.3038    0.6708 H   0  0  0  0  0  0  0  0  0  0  0  0
    5.2980   -1.2164   -1.0929 H   0  0  0  0  0  0  0  0  0  0  0  0
    4.9500    1.1795   -1.0908 H   0  0  0  0  0  0  0  0  0  0  0  0
    5.5944    1.0937    0.5620 H   0  0  0  0  0  0  0  0  0  0  0  0
    3.6394    2.9646   -0.2086 H   0  0  0  0  0  0  0  0  0  0  0  0
    1.9718    2.3933   -0.0951 H   0  0  0  0  0  0  0  0  0  0  0  0
    2.0435    2.4468    2.3565 H   0  0  0  0  0  0  0  0  0  0  0  0
    2.6246    4.0102    1.7511 H   0  0  0  0  0  0  0  0  0  0  0  0
    4.2758    1.8755    2.5400 H   0  0  0  0  0  0  0  0  0  0  0  0
  1 12  1  0  0  0  0
  2  3  1  0  0  0  0
  2 13  1  0  0  0  0
  3  8  1  0  0  0  0
  3 16  1  0  0  0  0
  4  8  1  0  0  0  0
  4  5  1  0  0  0  0
  5 19  1  0  0  0  0
  5  9  1  0  0  0  0
  6  1  1  1  0  0  0
  6  8  1  0  0  0  0
  7  2  1  0  0  0  0
  7  6  1  0  0  0  0
  9 21  1  0  0  0  0
 10  1  1  0  0  0  0
 11  1  1  0  0  0  0
 14  2  1  0  0  0  0
 15  3  1  0  0  0  0
 17  4  1  0  0  0  0
 18  4  1  0  0  0  0
 20  5  1  0  0  0  0
M  RAD  2   6   2   7   2
M  END
>  <HBA>
3

>  <HBD>
1

>  <TPSA>
35.83

>  <cid>
69669

>  <dipole>
1.61

>  <excitation_energy_1>
5.107

>  <excitation_energy_2>
5.436

>  <excitation_energy_3>
5.631

>  <excitation_energy_4>
5.871

>  <homo_energy>
-5.744

>  <homo_lumo_gap>
6.558

>  <logP>
-0.914

>  <lumo_energy>
0.814

>  <melting_point>
35.13

>  <molecular_refractivity>
43.83

>  <oscillator_strength_1>
0.0212

>  <oscillator_strength_2>
0.0378

>  <oscillator_strength_3>
0.0364

>  <oscillator_strength_4>
0.1074

>  <open_babel_can_smiles>
C[C]1[N]CCN1CCO

>  <mulliken_charges>
21
1   -0.529534
2   -0.164642
3   -0.147657
4   -0.151176
5   -0.024977
6   0.491851
7   -0.465104
8   -0.46787
9   -0.614813
10   0.192271
11   0.165556
12   0.164911
13   0.14719
14   0.150979
15   0.139336
16   0.150784
17   0.155215
18   0.142303
19   0.122602
20   0.145273
21   0.397501

>  <lowdin_charges>
21
1   -0.451274
2   -0.21129
3   -0.21004
4   -0.217368
5   -0.140608
6   0.085598
7   -0.244603
8   -0.155572
9   -0.464455
10   0.181612
11   0.164911
12   0.163333
13   0.145883
14   0.152443
15   0.133539
16   0.14982
17   0.154797
18   0.149262
19   0.12706
20   0.146779
21   0.340172

$$$$

