PCCDB-ID:  18829
public computational chemistry database (PCCDB) project, http://pccdb.org

 17 16  0  0  1  0  0  0  0  0999 V2000
    1.0488   -0.1257    0.4262 C   0  0  0  0  0  0  0  0  0  0  0  0
    1.8858    2.6162   -0.6522 C   0  0  0  0  0  0  0  0  0  0  0  0
    2.6283   -1.2093   -1.2474 C   0  0  0  0  0  0  0  0  0  0  0  0
    2.3288    0.0485   -0.4135 C   0  0  1  0  0  0  0  0  0  0  0  0
    2.2787    1.2988   -1.2957 C   0  0  0  0  0  0  0  0  0  0  0  0
    3.8628   -1.1426   -1.9321 O   0  0  0  0  0  0  0  0  0  0  0  0
    2.5558    1.2519   -2.4857 O   0  0  0  0  0  0  0  0  0  0  0  0
    1.1267   -1.0265    1.0444 H   0  0  0  0  0  0  0  0  0  0  0  0
    0.1660   -0.2384   -0.2148 H   0  0  0  0  0  0  0  0  0  0  0  0
    0.8739    0.7210    1.0969 H   0  0  0  0  0  0  0  0  0  0  0  0
    2.3694    2.7474    0.3225 H   0  0  0  0  0  0  0  0  0  0  0  0
    0.8024    2.6398   -0.4800 H   0  0  0  0  0  0  0  0  0  0  0  0
    2.1511    3.4394   -1.3185 H   0  0  0  0  0  0  0  0  0  0  0  0
    1.7893   -1.3882   -1.9403 H   0  0  0  0  0  0  0  0  0  0  0  0
    2.6883   -2.0742   -0.5774 H   0  0  0  0  0  0  0  0  0  0  0  0
    3.1763    0.2035    0.2734 H   0  0  0  0  0  0  0  0  0  0  0  0
    3.7508   -0.4193   -2.5736 H   0  0  0  0  0  0  0  0  0  0  0  0
  1  8  1  0  0  0  0
  1 10  1  0  0  0  0
  2 12  1  0  0  0  0
  2 11  1  0  0  0  0
  3 15  1  0  0  0  0
  3  4  1  0  0  0  0
  4 16  1  1  0  0  0
  4  1  1  0  0  0  0
  5  2  1  0  0  0  0
  5  4  1  0  0  0  0
  6  3  1  0  0  0  0
  7  5  2  0  0  0  0
  9  1  1  0  0  0  0
 13  2  1  0  0  0  0
 14  3  1  0  0  0  0
 17  6  1  0  0  0  0
M  END
>  <HBA>
2

>  <HBD>
1

>  <TPSA>
37.3

>  <cid>
18829

>  <dipole>
3.63

>  <excitation_energy_1>
4.336

>  <excitation_energy_2>
5.253

>  <excitation_energy_3>
6.324

>  <excitation_energy_4>
6.667

>  <homo_energy>
-6.8

>  <homo_lumo_gap>
6.049

>  <logP>
0.204

>  <lumo_energy>
-0.751

>  <melting_point>
14.11

>  <molecular_refractivity>
27.51

>  <oscillator_strength_1>
0.0003

>  <oscillator_strength_2>
0.0004

>  <oscillator_strength_3>
0.0163

>  <oscillator_strength_4>
0.0035

>  <open_babel_can_smiles>
C[C@H](C(=O)C)CO

>  <mulliken_charges>
17
1   -0.468681
2   -0.534075
3   -0.018216
4   -0.192084
5   0.467069
6   -0.635975
7   -0.460041
8   0.161607
9   0.156918
10   0.154803
11   0.168896
12   0.181248
13   0.184096
14   0.122609
15   0.138087
16   0.162854
17   0.410884

>  <lowdin_charges>
17
1   -0.445714
2   -0.471524
3   -0.135626
4   -0.177221
5   0.174682
6   -0.475109
7   -0.246742
8   0.160333
9   0.154183
10   0.156235
11   0.167954
12   0.175713
13   0.176827
14   0.129821
15   0.146152
16   0.164518
17   0.345519

$$$$

