PCCDB-ID:  36378
public computational chemistry database (PCCDB) project, http://pccdb.org

 37 38  0  0  1  0  0  0  0  0999 V2000
    0.6270    1.2692   -1.0951 C   0  0  0  0  0  0  0  0  0  0  0  0
    2.1189    1.5544   -1.0635 C   0  0  0  0  0  0  0  0  0  0  0  0
    5.9928   -3.4567   -1.6302 C   0  0  0  0  0  0  0  0  0  0  0  0
    6.7986   -2.3188   -1.5378 C   0  0  0  0  0  0  0  0  0  0  0  0
    4.6064   -3.3144   -1.6743 C   0  0  0  0  0  0  0  0  0  0  0  0
    5.3627    3.7009   -4.3475 C   0  0  0  0  0  0  0  0  0  0  0  0
    4.7730    2.8646   -5.5010 C   0  0  0  0  0  0  0  0  0  0  0  0
    6.2214   -1.0509   -1.4942 C   0  0  0  0  0  0  0  0  0  0  0  0
    4.0244   -2.0447   -1.6272 C   0  0  0  0  0  0  0  0  0  0  0  0
    6.3619    2.9514   -3.4472 C   0  0  0  0  0  0  0  0  0  0  0  0
    4.5460    1.3966   -5.1197 C   0  0  0  0  0  0  0  0  0  0  0  0
    4.8277   -0.9035   -1.5385 C   0  0  0  0  0  0  0  0  0  0  0  0
    4.2220    0.4967   -1.4776 C   0  0  1  0  0  0  0  0  0  0  0  0
    4.7284    1.3650   -2.6456 C   0  0  0  0  0  0  0  0  0  0  0  0
    5.7803    2.0639   -2.4361 N   0  0  0  0  0  0  0  0  0  0  0  0
    3.9581    1.2433   -3.7879 N   0  0  0  0  0  0  0  0  0  0  0  0
    2.8050    0.3799   -1.4945 O   0  0  0  0  0  0  0  0  0  0  0  0
    0.0656    2.1466   -0.7559 H   0  0  0  0  0  0  0  0  0  0  0  0
    0.3816    0.4255   -0.4421 H   0  0  0  0  0  0  0  0  0  0  0  0
    0.3010    1.0236   -2.1114 H   0  0  0  0  0  0  0  0  0  0  0  0
    2.4456    1.8153   -0.0449 H   0  0  0  0  0  0  0  0  0  0  0  0
    2.3675    2.4008   -1.7200 H   0  0  0  0  0  0  0  0  0  0  0  0
    6.4434   -4.4452   -1.6644 H   0  0  0  0  0  0  0  0  0  0  0  0
    7.8804   -2.4187   -1.4984 H   0  0  0  0  0  0  0  0  0  0  0  0
    3.9703   -4.1935   -1.7432 H   0  0  0  0  0  0  0  0  0  0  0  0
    4.5508    4.0690   -3.7085 H   0  0  0  0  0  0  0  0  0  0  0  0
    5.8523    4.5915   -4.7626 H   0  0  0  0  0  0  0  0  0  0  0  0
    5.4452    2.8867   -6.3694 H   0  0  0  0  0  0  0  0  0  0  0  0
    3.8263    3.3144   -5.8255 H   0  0  0  0  0  0  0  0  0  0  0  0
    6.8434   -0.1626   -1.4323 H   0  0  0  0  0  0  0  0  0  0  0  0
    2.9463   -1.9349   -1.6482 H   0  0  0  0  0  0  0  0  0  0  0  0
    6.9500    3.6937   -2.8934 H   0  0  0  0  0  0  0  0  0  0  0  0
    7.0918    2.3988   -4.0590 H   0  0  0  0  0  0  0  0  0  0  0  0
    5.4951    0.8442   -5.1714 H   0  0  0  0  0  0  0  0  0  0  0  0
    3.8666    0.9227   -5.8355 H   0  0  0  0  0  0  0  0  0  0  0  0
    4.5511    0.9956   -0.5562 H   0  0  0  0  0  0  0  0  0  0  0  0
    3.2245    0.5515   -3.6941 H   0  0  0  0  0  0  0  0  0  0  0  0
  1  2  1  0  0  0  0
  1 18  1  0  0  0  0
  1 19  1  0  0  0  0
  2 21  1  0  0  0  0
  3  4  1  0  0  0  0
  4 24  1  0  0  0  0
  4  8  2  0  0  0  0
  5  3  2  0  0  0  0
  5  9  1  0  0  0  0
  6 26  1  0  0  0  0
  6 10  1  0  0  0  0
  7 11  1  0  0  0  0
  7  6  1  0  0  0  0
  8 30  1  0  0  0  0
  9 12  2  0  0  0  0
 10 32  1  0  0  0  0
 10 15  1  0  0  0  0
 11 16  1  0  0  0  0
 12  8  1  0  0  0  0
 12 13  1  0  0  0  0
 13 36  1  1  0  0  0
 14 15  2  0  0  0  0
 14 13  1  0  0  0  0
 16 37  1  0  0  0  0
 16 14  1  0  0  0  0
 17 13  1  0  0  0  0
 17  2  1  0  0  0  0
 20  1  1  0  0  0  0
 22  2  1  0  0  0  0
 23  3  1  0  0  0  0
 25  5  1  0  0  0  0
 27  6  1  0  0  0  0
 28  7  1  0  0  0  0
 29  7  1  0  0  0  0
 31  9  1  0  0  0  0
 33 10  1  0  0  0  0
 34 11  1  0  0  0  0
 35 11  1  0  0  0  0
M  END
>  <HBA>
3

>  <HBD>
1

>  <TPSA>
33.62

>  <cid>
36378

>  <dipole>
2.23

>  <excitation_energy_1>
5.02

>  <excitation_energy_2>
5.206

>  <excitation_energy_3>
5.218

>  <excitation_energy_4>
5.284

>  <homo_energy>
-5.788

>  <homo_lumo_gap>
5.872

>  <logP>
2.311

>  <lumo_energy>
0.084

>  <melting_point>
61.17

>  <molecular_refractivity>
77.76

>  <oscillator_strength_1>
0.0192

>  <oscillator_strength_2>
0.0145

>  <oscillator_strength_3>
0.0074

>  <oscillator_strength_4>
0.01

>  <open_babel_can_smiles>
CCO[C@H](C1=NCCCCN1)c1ccccc1

>  <mulliken_charges>
37
1   -0.457096
2   -0.01468
3   -0.125719
4   -0.136182
5   -0.134082
6   -0.273624
7   -0.250788
8   -0.16715
9   -0.177326
10   -0.153413
11   -0.140471
12   0.093909
13   0.038489
14   0.470195
15   -0.4765
16   -0.607764
17   -0.507396
18   0.147834
19   0.160273
20   0.153536
21   0.132655
22   0.141141
23   0.124495
24   0.126669
25   0.124732
26   0.148979
27   0.132612
28   0.132079
29   0.137045
30   0.155511
31   0.143155
32   0.140742
33   0.135307
34   0.153427
35   0.143434
36   0.15365
37   0.332322

>  <lowdin_charges>
37
1   -0.449299
2   -0.126873
3   -0.160811
4   -0.155004
5   -0.159775
6   -0.292444
7   -0.28475
8   -0.163199
9   -0.165592
10   -0.211648
11   -0.198328
12   -0.015767
13   -0.004704
14   0.070992
15   -0.256792
16   -0.304088
17   -0.26934
18   0.157353
19   0.15825
20   0.15359
21   0.132745
22   0.137578
23   0.154863
24   0.153988
25   0.155629
26   0.150013
27   0.14796
28   0.143539
29   0.145423
30   0.171109
31   0.163581
32   0.147842
33   0.139697
34   0.141778
35   0.153579
36   0.156872
37   0.282035

$$$$

