PCCDB-ID:  16522
public computational chemistry database (PCCDB) project, http://pccdb.org

 26 26  0  0  0  0  0  0  0  0999 V2000
    1.1962   -0.1680    0.5362 C   0  0  0  0  0  0  0  0  0  0  0  0
    1.6218    3.9284    1.6802 C   0  0  0  0  0  0  0  0  0  0  0  0
    5.8303    5.2734   -4.2734 C   0  0  0  0  0  0  0  0  0  0  0  0
    4.3628    1.9952   -2.0978 C   0  0  0  0  0  0  0  0  0  0  0  0
    3.8511    0.9305   -1.3581 C   0  0  0  0  0  0  0  0  0  0  0  0
    3.2032    3.5368   -0.6249 C   0  0  0  0  0  0  0  0  0  0  0  0
    4.0314    3.3032   -1.7348 C   0  0  0  0  0  0  0  0  0  0  0  0
    3.0228    1.1479   -0.2579 C   0  0  0  0  0  0  0  0  0  0  0  0
    2.7039    2.4750    0.1240 C   0  0  0  0  0  0  0  0  0  0  0  0
    4.5266    4.4945   -2.4733 C   0  0  0  0  0  0  0  0  0  0  0  0
    4.2596    5.6468   -2.1862 O   0  0  0  0  0  0  0  0  0  0  0  0
    2.6074    0.0612    0.4623 O   0  0  0  0  0  0  0  0  0  0  0  0
    1.9225    2.6126    1.2355 O   0  0  0  0  0  0  0  0  0  0  0  0
    5.3210    4.1641   -3.5196 O   0  0  0  0  0  0  0  0  0  0  0  0
    1.0760   -1.0925    1.1048 H   0  0  0  0  0  0  0  0  0  0  0  0
    0.7741   -0.3031   -0.4684 H   0  0  0  0  0  0  0  0  0  0  0  0
    0.6809    0.6498    1.0460 H   0  0  0  0  0  0  0  0  0  0  0  0
    1.0478    4.4867    0.9295 H   0  0  0  0  0  0  0  0  0  0  0  0
    2.5346    4.4860    1.9244 H   0  0  0  0  0  0  0  0  0  0  0  0
    1.0184    3.8063    2.5813 H   0  0  0  0  0  0  0  0  0  0  0  0
    6.4486    4.8343   -5.0573 H   0  0  0  0  0  0  0  0  0  0  0  0
    6.4272    5.9312   -3.6360 H   0  0  0  0  0  0  0  0  0  0  0  0
    5.0109    5.8516   -4.7093 H   0  0  0  0  0  0  0  0  0  0  0  0
    5.0047    1.8138   -2.9516 H   0  0  0  0  0  0  0  0  0  0  0  0
    4.0865   -0.0976   -1.6152 H   0  0  0  0  0  0  0  0  0  0  0  0
    2.9804    4.5654   -0.3700 H   0  0  0  0  0  0  0  0  0  0  0  0
  1 17  1  0  0  0  0
  1 15  1  0  0  0  0
  2 19  1  0  0  0  0
  2 20  1  0  0  0  0
  3 22  1  0  0  0  0
  3 14  1  0  0  0  0
  4  7  2  0  0  0  0
  4  5  1  0  0  0  0
  5  8  2  0  0  0  0
  6 26  1  0  0  0  0
  6  9  2  0  0  0  0
  7  6  1  0  0  0  0
  8  9  1  0  0  0  0
  8 12  1  0  0  0  0
  9 13  1  0  0  0  0
 10 11  2  0  0  0  0
 10  7  1  0  0  0  0
 12  1  1  0  0  0  0
 13  2  1  0  0  0  0
 14 10  1  0  0  0  0
 16  1  1  0  0  0  0
 18  2  1  0  0  0  0
 21  3  1  0  0  0  0
 23  3  1  0  0  0  0
 24  4  1  0  0  0  0
 25  5  1  0  0  0  0
M  END
>  <HBA>
4

>  <HBD>
0

>  <TPSA>
44.76

>  <cid>
16522

>  <dipole>
1.14

>  <excitation_energy_1>
4.395

>  <excitation_energy_2>
4.891

>  <excitation_energy_3>
4.966

>  <excitation_energy_4>
5.601

>  <homo_energy>
-5.989

>  <homo_lumo_gap>
4.961

>  <logP>
1.49

>  <lumo_energy>
-1.029

>  <melting_point>
41.48

>  <molecular_refractivity>
50.71

>  <oscillator_strength_1>
0.1242

>  <oscillator_strength_2>
0.1419

>  <oscillator_strength_3>
0.0266

>  <oscillator_strength_4>
0.0658

>  <open_babel_can_smiles>
COC(=O)c1ccc(c(c1)OC)OC

>  <mulliken_charges>
26
1   -0.215748
2   -0.218681
3   -0.214751
4   -0.174703
5   -0.181305
6   -0.249013
7   0.053149
8   0.329952
9   0.349956
10   0.592377
11   -0.499968
12   -0.516993
13   -0.513159
14   -0.469351
15   0.161533
16   0.142119
17   0.170054
18   0.158442
19   0.161648
20   0.170841
21   0.162508
22   0.170401
23   0.169401
24   0.153094
25   0.141834
26   0.166363

>  <lowdin_charges>
26
1   -0.275868
2   -0.278845
3   -0.281254
4   -0.151506
5   -0.172809
6   -0.186765
7   -0.049038
8   0.085456
9   0.076181
10   0.195635
11   -0.277377
12   -0.216696
13   -0.19631
14   -0.192205
15   0.15797
16   0.140098
17   0.15509
18   0.150172
19   0.151691
20   0.163632
21   0.160394
22   0.161026
23   0.160142
24   0.172534
25   0.168282
26   0.180369

$$$$

