PCCDB-ID:  22174
public computational chemistry database (PCCDB) project, http://pccdb.org

 21 21  0  0  0  0  0  0  0  0999 V2000
    3.1758    1.3493    0.0693 C   0  0  0  0  0  0  0  0  0  0  0  0
    1.1174    0.2120    0.8347 C   0  0  0  0  0  0  0  0  0  0  0  0
    2.4389   -2.2945    0.5586 C   0  0  0  0  0  0  0  0  0  0  0  0
    4.4445   -1.1917   -0.1781 C   0  0  0  0  0  0  0  0  0  0  0  0
    3.1129   -3.5156    0.5476 C   0  0  0  0  0  0  0  0  0  0  0  0
    5.1141   -2.4111   -0.1877 C   0  0  0  0  0  0  0  0  0  0  0  0
    3.0822   -1.0978    0.1832 C   0  0  0  0  0  0  0  0  0  0  0  0
    4.4541   -3.5873    0.1719 C   0  0  0  0  0  0  0  0  0  0  0  0
    2.3968    0.1258    0.1526 N   0  0  0  0  0  0  0  0  0  0  0  0
    5.1687   -4.7617    0.1449 O   0  0  0  0  0  0  0  0  0  0  0  0
    2.4949    2.2034    0.0459 H   0  0  0  0  0  0  0  0  0  0  0  0
    3.7612    1.3753   -0.8565 H   0  0  0  0  0  0  0  0  0  0  0  0
    3.8719    1.4838    0.9154 H   0  0  0  0  0  0  0  0  0  0  0  0
    0.7217    1.2242    0.7242 H   0  0  0  0  0  0  0  0  0  0  0  0
    1.1804   -0.0200    1.9121 H   0  0  0  0  0  0  0  0  0  0  0  0
    0.3890   -0.4723    0.3845 H   0  0  0  0  0  0  0  0  0  0  0  0
    1.3998   -2.2890    0.8648 H   0  0  0  0  0  0  0  0  0  0  0  0
    4.9997   -0.3045   -0.4581 H   0  0  0  0  0  0  0  0  0  0  0  0
    2.5797   -4.4189    0.8409 H   0  0  0  0  0  0  0  0  0  0  0  0
    6.1611   -2.4602   -0.4711 H   0  0  0  0  0  0  0  0  0  0  0  0
    4.5832   -5.4852    0.4159 H   0  0  0  0  0  0  0  0  0  0  0  0
  1  9  1  0  0  0  0
  1 13  1  0  0  0  0
  2 15  1  0  0  0  0
  3 17  1  0  0  0  0
  4  7  1  0  0  0  0
  5  3  1  0  0  0  0
  5 19  1  0  0  0  0
  6  4  2  0  0  0  0
  6  8  1  0  0  0  0
  7  3  2  0  0  0  0
  8  5  2  0  0  0  0
  9  7  1  0  0  0  0
  9  2  1  0  0  0  0
 10  8  1  0  0  0  0
 10 21  1  0  0  0  0
 11  1  1  0  0  0  0
 12  1  1  0  0  0  0
 14  2  1  0  0  0  0
 16  2  1  0  0  0  0
 18  4  1  0  0  0  0
 20  6  1  0  0  0  0
M  END
>  <HBA>
2

>  <HBD>
1

>  <TPSA>
23.47

>  <cid>
22174

>  <dipole>
2.1

>  <excitation_energy_1>
4.167

>  <excitation_energy_2>
4.251

>  <excitation_energy_3>
4.409

>  <excitation_energy_4>
4.846

>  <homo_energy>
-4.724

>  <homo_lumo_gap>
4.939

>  <logP>
1.458

>  <lumo_energy>
0.215

>  <melting_point>
53.64

>  <molecular_refractivity>
42.67

>  <oscillator_strength_1>
0.0558

>  <oscillator_strength_2>
0.009

>  <oscillator_strength_3>
0.0164

>  <oscillator_strength_4>
0.0011

>  <open_babel_can_smiles>
CN(c1ccc(cc1)O)C

>  <mulliken_charges>
21
1   -0.308659
2   -0.308395
3   -0.198595
4   -0.197471
5   -0.202914
6   -0.16826
7   0.358313
8   0.346796
9   -0.471259
10   -0.654805
11   0.150882
12   0.161674
13   0.143597
14   0.151118
15   0.143002
16   0.1602
17   0.122756
18   0.123904
19   0.111745
20   0.133913
21   0.402456

>  <lowdin_charges>
21
1   -0.352338
2   -0.348855
3   -0.194145
4   -0.19343
5   -0.206175
6   -0.175236
7   0.040594
8   0.079533
9   -0.130212
10   -0.393224
11   0.15537
12   0.152844
13   0.136646
14   0.154289
15   0.133892
16   0.152804
17   0.157746
18   0.160439
19   0.150686
20   0.163227
21   0.355546

$$$$

