PCCDB-ID:  16673
public computational chemistry database (PCCDB) project, http://pccdb.org

 26 27  0  0  0  0  0  0  0  0999 V2000
   -1.3737   -0.1903    0.7642 C   0  0  0  0  0  0  0  0  0  0  0  0
   -0.9771    0.6836   -0.2497 C   0  0  0  0  0  0  0  0  0  0  0  0
   -0.4117   -0.9435    1.4399 C   0  0  0  0  0  0  0  0  0  0  0  0
    0.3704    0.8043   -0.5846 C   0  0  0  0  0  0  0  0  0  0  0  0
    0.9357   -0.8246    1.1035 C   0  0  0  0  0  0  0  0  0  0  0  0
    3.6285   -0.9464   -0.2737 C   0  0  0  0  0  0  0  0  0  0  0  0
    3.3334    1.4254   -0.6215 C   0  0  0  0  0  0  0  0  0  0  0  0
    4.9755   -0.8357   -0.6042 C   0  0  0  0  0  0  0  0  0  0  0  0
    4.6769    1.5522   -0.9605 C   0  0  0  0  0  0  0  0  0  0  0  0
    1.3494    0.0517    0.0860 C   0  0  0  0  0  0  0  0  0  0  0  0
    2.7845    0.1788   -0.2711 C   0  0  0  0  0  0  0  0  0  0  0  0
    5.4895    0.4175   -0.9412 C   0  0  0  0  0  0  0  0  0  0  0  0
    7.8727    0.9189    0.1082 O   0  0  0  0  0  0  0  0  0  0  0  0
    7.7474   -0.7402   -1.7448 O   0  0  0  0  0  0  0  0  0  0  0  0
    7.3861    1.7400   -2.2143 O   0  0  0  0  0  0  0  0  0  0  0  0
    7.2133    0.5693   -1.3656 S   0  0  0  0  0  0  0  0  0  0  0  0
   -2.4241   -0.2837    1.0257 H   0  0  0  0  0  0  0  0  0  0  0  0
   -1.7192    1.2670   -0.7879 H   0  0  0  0  0  0  0  0  0  0  0  0
   -0.7095   -1.6194    2.2368 H   0  0  0  0  0  0  0  0  0  0  0  0
    0.6646    1.4669   -1.3937 H   0  0  0  0  0  0  0  0  0  0  0  0
    1.6787   -1.3951    1.6536 H   0  0  0  0  0  0  0  0  0  0  0  0
    3.2171   -1.9243   -0.0433 H   0  0  0  0  0  0  0  0  0  0  0  0
    2.7042    2.3100   -0.6072 H   0  0  0  0  0  0  0  0  0  0  0  0
    5.6171   -1.7101   -0.6264 H   0  0  0  0  0  0  0  0  0  0  0  0
    5.0945    2.5145   -1.2364 H   0  0  0  0  0  0  0  0  0  0  0  0
    8.5940    0.2746    0.2428 H   0  0  0  0  0  0  0  0  0  0  0  0
  1 17  1  0  0  0  0
  1  3  2  0  0  0  0
  2  1  1  0  0  0  0
  3 19  1  0  0  0  0
  4  2  2  0  0  0  0
  4 10  1  0  0  0  0
  5  3  1  0  0  0  0
  5 21  1  0  0  0  0
  6 11  1  0  0  0  0
  6 22  1  0  0  0  0
  7 23  1  0  0  0  0
  7 11  2  0  0  0  0
  8  6  2  0  0  0  0
  9 12  2  0  0  0  0
  9  7  1  0  0  0  0
 10  5  2  0  0  0  0
 11 10  1  0  0  0  0
 12  8  1  0  0  0  0
 13 26  1  0  0  0  0
 14 16  1  0  0  0  0
 15 16  1  0  0  0  0
 16 12  1  0  0  0  0
 16 13  1  0  0  0  0
 18  2  1  0  0  0  0
 20  4  1  0  0  0  0
 24  8  1  0  0  0  0
 25  9  1  0  0  0  0
M  RAD  2  14   2  15   2
M  END
>  <HBA>
3

>  <HBD>
1

>  <TPSA>
62.75

>  <cid>
16673

>  <dipole>
4.9

>  <excitation_energy_1>
4.551

>  <excitation_energy_2>
4.747

>  <excitation_energy_3>
4.847

>  <excitation_energy_4>
5.452

>  <homo_energy>
-6.642

>  <homo_lumo_gap>
5.045

>  <logP>
3.681

>  <lumo_energy>
-1.597

>  <melting_point>
127.08

>  <molecular_refractivity>
61.74

>  <oscillator_strength_1>
0.5572

>  <oscillator_strength_2>
0.004

>  <oscillator_strength_3>
0.0048

>  <oscillator_strength_4>
0.0102

>  <open_babel_can_smiles>
OS(c1ccc(cc1)c1ccccc1)([O])[O]

>  <mulliken_charges>
26
1   -0.123785
2   -0.133079
3   -0.133018
4   -0.171515
5   -0.171414
6   -0.169497
7   -0.16955
8   -0.143152
9   -0.137825
10   0.086874
11   0.095166
12   -0.150606
13   -0.637908
14   -0.532275
15   -0.488859
16   1.192854
17   0.136675
18   0.137593
19   0.137004
20   0.138537
21   0.136743
22   0.149089
23   0.149674
24   0.179439
25   0.184186
26   0.438646

>  <lowdin_charges>
26
1   -0.149536
2   -0.15291
3   -0.151465
4   -0.157479
5   -0.159643
6   -0.154813
7   -0.155025
8   -0.133654
9   -0.128923
10   -0.006578
11   0.020198
12   -0.185761
13   -0.586278
14   -0.586656
15   -0.556363
16   1.34627
17   0.160055
18   0.163067
19   0.161963
20   0.162452
21   0.162564
22   0.167975
23   0.169199
24   0.18404
25   0.186189
26   0.381112

$$$$

