PCCDB-ID:  41688
public computational chemistry database (PCCDB) project, http://pccdb.org

 25 24  0  0  0  0  0  0  0  0999 V2000
    3.3286   -2.3361   -0.7417 C   0  0  0  0  0  0  0  0  0  0  0  0
    2.7008   -0.3957   -2.2549 C   0  0  0  0  0  0  0  0  0  0  0  0
    3.6226    1.8795    2.0773 C   0  0  0  0  0  0  0  0  0  0  0  0
    8.5358    0.1674    0.8180 C   0  0  0  0  0  0  0  0  0  0  0  0
    3.7841    0.0325   -0.0463 C   0  0  0  0  0  0  0  0  0  0  0  0
    3.7098   -0.9194   -1.2179 C   0  0  0  0  0  0  0  0  0  0  0  0
    4.8640    0.4052    0.6699 C   0  0  0  0  0  0  0  0  0  0  0  0
    6.2436   -0.1131    0.4027 C   0  0  0  0  0  0  0  0  0  0  0  0
    6.5001   -1.0803   -0.2905 O   0  0  0  0  0  0  0  0  0  0  0  0
    4.8567    1.2879    1.7157 O   0  0  0  0  0  0  0  0  0  0  0  0
    7.1891    0.6193    1.0224 O   0  0  0  0  0  0  0  0  0  0  0  0
    3.2382   -3.0169   -1.5970 H   0  0  0  0  0  0  0  0  0  0  0  0
    2.3678   -2.3333   -0.2110 H   0  0  0  0  0  0  0  0  0  0  0  0
    4.0942   -2.7316   -0.0681 H   0  0  0  0  0  0  0  0  0  0  0  0
    2.6498   -1.0689   -3.1184 H   0  0  0  0  0  0  0  0  0  0  0  0
    2.9800    0.6000   -2.6184 H   0  0  0  0  0  0  0  0  0  0  0  0
    1.6912   -0.3263   -1.8280 H   0  0  0  0  0  0  0  0  0  0  0  0
    3.8449    2.5495    2.9098 H   0  0  0  0  0  0  0  0  0  0  0  0
    2.8926    1.1247    2.4011 H   0  0  0  0  0  0  0  0  0  0  0  0
    3.1943    2.4568    1.2463 H   0  0  0  0  0  0  0  0  0  0  0  0
    9.1607    0.8496    1.3950 H   0  0  0  0  0  0  0  0  0  0  0  0
    8.7995    0.2072   -0.2426 H   0  0  0  0  0  0  0  0  0  0  0  0
    8.6562   -0.8598    1.1727 H   0  0  0  0  0  0  0  0  0  0  0  0
    2.8252    0.4564    0.2456 H   0  0  0  0  0  0  0  0  0  0  0  0
    4.6942   -0.9882   -1.6863 H   0  0  0  0  0  0  0  0  0  0  0  0
  1 13  1  0  0  0  0
  1 14  1  0  0  0  0
  2 17  1  0  0  0  0
  2  6  1  0  0  0  0
  3 19  1  0  0  0  0
  3 18  1  0  0  0  0
  4 11  1  0  0  0  0
  4 23  1  0  0  0  0
  4 21  1  0  0  0  0
  5 24  1  0  0  0  0
  5  7  2  0  0  0  0
  6  1  1  0  0  0  0
  6  5  1  0  0  0  0
  7 10  1  0  0  0  0
  8  7  1  0  0  0  0
  8 11  1  0  0  0  0
  9  8  2  0  0  0  0
 10  3  1  0  0  0  0
 12  1  1  0  0  0  0
 15  2  1  0  0  0  0
 16  2  1  0  0  0  0
 20  3  1  0  0  0  0
 22  4  1  0  0  0  0
 25  6  1  0  0  0  0
M  END
>  <HBA>
3

>  <HBD>
0

>  <TPSA>
35.53

>  <cid>
41688

>  <dipole>
1.72

>  <excitation_energy_1>
4.892

>  <excitation_energy_2>
5.079

>  <excitation_energy_3>
5.678

>  <excitation_energy_4>
6.079

>  <homo_energy>
-6.123

>  <homo_lumo_gap>
5.385

>  <logP>
1.346

>  <lumo_energy>
-0.737

>  <melting_point>
-11.19

>  <molecular_refractivity>
42.47

>  <oscillator_strength_1>
0.1364

>  <oscillator_strength_2>
0.0719

>  <oscillator_strength_3>
0.0256

>  <oscillator_strength_4>
0.002

>  <open_babel_can_smiles>
CO/C(=C/C(C)C)/C(=O)OC

>  <mulliken_charges>
25
1   -0.436468
2   -0.450266
3   -0.215235
4   -0.216572
5   -0.193402
6   -0.10334
7   0.324181
8   0.589549
9   -0.496918
10   -0.488925
11   -0.439891
12   0.139246
13   0.130754
14   0.162074
15   0.144452
16   0.145146
17   0.13429
18   0.17015
19   0.150543
20   0.150445
21   0.165719
22   0.168806
23   0.170221
24   0.128939
25   0.166502

>  <lowdin_charges>
25
1   -0.44051
2   -0.443267
3   -0.281256
4   -0.275232
5   -0.190569
6   -0.120158
7   0.047529
8   0.190141
9   -0.268213
10   -0.193247
11   -0.171841
12   0.148151
13   0.141306
14   0.15995
15   0.1511
16   0.148834
17   0.141486
18   0.163739
19   0.145308
20   0.145615
21   0.162605
22   0.157087
23   0.158428
24   0.159587
25   0.163429

$$$$

