PCCDB-ID:  13013
public computational chemistry database (PCCDB) project, http://pccdb.org

 20 20  0  0  0  0  0  0  0  0999 V2000
    0.9904   -2.2882    3.3811 C   0  0  0  0  0  0  0  0  0  0  0  0
    2.2714   -1.4862    3.6351 C   0  0  0  0  0  0  0  0  0  0  0  0
    7.6564   -0.2411    2.7942 C   0  0  0  0  0  0  0  0  0  0  0  0
    6.8212    0.8930    2.2754 C   0  0  0  0  0  0  0  0  0  0  0  0
    3.0164   -1.1859    2.3388 C   0  0  0  0  0  0  0  0  0  0  0  0
    5.3018   -0.9830    2.9425 C   0  0  0  0  0  0  0  0  0  0  0  0
    6.2929   -0.0532    3.2465 N   0  0  0  0  0  0  0  0  0  0  0  0
    5.4248   -2.1860    3.0550 O   0  0  0  0  0  0  0  0  0  0  0  0
    4.1695   -0.3450    2.5673 O   0  0  0  0  0  0  0  0  0  0  0  0
    0.4714   -2.5026    4.3211 H   0  0  0  0  0  0  0  0  0  0  0  0
    1.2096   -3.2476    2.8972 H   0  0  0  0  0  0  0  0  0  0  0  0
    0.2940   -1.7396    2.7349 H   0  0  0  0  0  0  0  0  0  0  0  0
    2.9391   -2.0446    4.3006 H   0  0  0  0  0  0  0  0  0  0  0  0
    2.0332   -0.5382    4.1334 H   0  0  0  0  0  0  0  0  0  0  0  0
    8.4264   -0.0541    3.5389 H   0  0  0  0  0  0  0  0  0  0  0  0
    7.8495   -1.0808    2.1296 H   0  0  0  0  0  0  0  0  0  0  0  0
    6.4538    0.8264    1.2533 H   0  0  0  0  0  0  0  0  0  0  0  0
    6.9779    1.9045    2.6428 H   0  0  0  0  0  0  0  0  0  0  0  0
    2.3934   -0.6091    1.6490 H   0  0  0  0  0  0  0  0  0  0  0  0
    3.3397   -2.1089    1.8493 H   0  0  0  0  0  0  0  0  0  0  0  0
  1  2  1  0  0  0  0
  1 10  1  0  0  0  0
  2 14  1  0  0  0  0
  2 13  1  0  0  0  0
  3  7  1  0  0  0  0
  3 15  1  0  0  0  0
  4 18  1  0  0  0  0
  4  3  1  0  0  0  0
  4  7  1  0  0  0  0
  5  9  1  0  0  0  0
  5  2  1  0  0  0  0
  6  8  2  0  0  0  0
  6  7  1  0  0  0  0
  9  6  1  0  0  0  0
 11  1  1  0  0  0  0
 12  1  1  0  0  0  0
 16  3  1  0  0  0  0
 17  4  1  0  0  0  0
 19  5  1  0  0  0  0
 20  5  1  0  0  0  0
M  END
>  <HBA>
3

>  <HBD>
0

>  <TPSA>
29.31

>  <cid>
13013

>  <dipole>
2.07

>  <excitation_energy_1>
6.169

>  <excitation_energy_2>
6.651

>  <excitation_energy_3>
7.035

>  <excitation_energy_4>
7.133

>  <homo_energy>
-6.98

>  <homo_lumo_gap>
7.815

>  <logP>
0.786

>  <lumo_energy>
0.835

>  <melting_point>
7.5

>  <molecular_refractivity>
37.33

>  <oscillator_strength_1>
0.0211

>  <oscillator_strength_2>
0.045

>  <oscillator_strength_3>
0.0115

>  <oscillator_strength_4>
0.0031

>  <open_babel_can_smiles>
CCCOC(=O)N1CC1

>  <mulliken_charges>
20
1   -0.454002
2   -0.27225
3   -0.189417
4   -0.189902
5   -0.03502
6   0.729429
7   -0.383706
8   -0.494139
9   -0.465728
10   0.153143
11   0.15138
12   0.143131
13   0.166175
14   0.146465
15   0.168647
16   0.176436
17   0.169998
18   0.168388
19   0.145768
20   0.165206

>  <lowdin_charges>
20
1   -0.445371
2   -0.28684
3   -0.217616
4   -0.216175
5   -0.132212
6   0.199564
7   -0.145641
8   -0.287811
9   -0.194777
10   0.156568
11   0.15102
12   0.148367
13   0.160018
14   0.14832
15   0.165881
16   0.165598
17   0.160163
18   0.163782
19   0.150868
20   0.156293

$$$$

