PCCDB-ID:  16592
public computational chemistry database (PCCDB) project, http://pccdb.org

 16 15  0  0  0  0  0  0  0  0999 V2000
   -0.9237   -0.1670   -2.8073 C   0  0  0  0  0  0  0  0  0  0  0  0
    4.2760    1.3453   -0.6261 C   0  0  0  0  0  0  0  0  0  0  0  0
   -0.1777   -0.0789   -1.4701 C   0  0  0  0  0  0  0  0  0  0  0  0
    1.1784   -0.7812   -1.5203 C   0  0  0  0  0  0  0  0  0  0  0  0
    2.6764    1.2588    0.2724 S   0  0  0  0  0  0  0  0  0  0  0  0
    2.1288   -0.7413    0.0646 S   0  0  0  0  0  0  0  0  0  0  0  0
   -1.8904    0.3457   -2.7495 H   0  0  0  0  0  0  0  0  0  0  0  0
   -1.1161   -1.2087   -3.0918 H   0  0  0  0  0  0  0  0  0  0  0  0
   -0.3487    0.2984   -3.6171 H   0  0  0  0  0  0  0  0  0  0  0  0
    4.6424    2.3688   -0.4947 H   0  0  0  0  0  0  0  0  0  0  0  0
    4.1449    1.1470   -1.6926 H   0  0  0  0  0  0  0  0  0  0  0  0
    4.9967    0.6448   -0.1993 H   0  0  0  0  0  0  0  0  0  0  0  0
   -0.7823   -0.5238   -0.6704 H   0  0  0  0  0  0  0  0  0  0  0  0
   -0.0233    0.9728   -1.2001 H   0  0  0  0  0  0  0  0  0  0  0  0
    1.8091   -0.3752   -2.3189 H   0  0  0  0  0  0  0  0  0  0  0  0
    1.0586   -1.8549   -1.7168 H   0  0  0  0  0  0  0  0  0  0  0  0
  1  7  1  0  0  0  0
  1  3  1  0  0  0  0
  2 10  1  0  0  0  0
  2 12  1  0  0  0  0
  2  5  1  0  0  0  0
  3 14  1  0  0  0  0
  3 13  1  0  0  0  0
  4  3  1  0  0  0  0
  4  6  1  0  0  0  0
  6  5  1  0  0  0  0
  8  1  1  0  0  0  0
  9  1  1  0  0  0  0
 11  2  1  0  0  0  0
 15  4  1  0  0  0  0
 16  4  1  0  0  0  0
M  END
>  <HBA>
2

>  <HBD>
0

>  <TPSA>
50.6

>  <cid>
16592

>  <dipole>
2.23

>  <excitation_energy_1>
4.561

>  <excitation_energy_2>
4.631

>  <excitation_energy_3>
5.678

>  <excitation_energy_4>
5.818

>  <homo_energy>
-6.395

>  <homo_lumo_gap>
5.842

>  <logP>
2.408

>  <lumo_energy>
-0.552

>  <melting_point>
-7.29

>  <molecular_refractivity>
36.52

>  <oscillator_strength_1>
0.0098

>  <oscillator_strength_2>
0.0021

>  <oscillator_strength_3>
0.0017

>  <oscillator_strength_4>
0.0214

>  <open_babel_can_smiles>
CCCSSC

>  <mulliken_charges>
16
1   -0.446213
2   -0.582684
3   -0.245258
4   -0.415531
5   0.014097
6   0.009807
7   0.152072
8   0.14434
9   0.144585
10   0.185507
11   0.182809
12   0.195353
13   0.150896
14   0.163375
15   0.17161
16   0.175236

>  <lowdin_charges>
16
1   -0.444779
2   -0.550382
3   -0.278427
4   -0.379396
5   0.03258
6   0.027505
7   0.154752
8   0.14644
9   0.148973
10   0.175819
11   0.1634
12   0.173847
13   0.151879
14   0.154134
15   0.158294
16   0.165362

$$$$

