PCCDB-ID:  21498
public computational chemistry database (PCCDB) project, http://pccdb.org

 22 22  0  0  1  0  0  0  0  0999 V2000
    1.0161    0.8801    0.3558 C   0  0  0  0  0  0  0  0  0  0  0  0
    3.4180    0.9979   -0.4949 C   0  0  0  0  0  0  0  0  0  0  0  0
    2.3208    0.0995    0.1074 C   0  0  0  0  0  0  0  0  0  0  0  0
    2.8002   -0.6078    1.3602 C   0  0  1  0  0  0  0  0  0  0  0  0
    3.3272   -2.5256    2.5533 C   0  0  0  0  0  0  0  0  0  0  0  0
    3.5866   -0.3262    3.6611 C   0  0  0  0  0  0  0  0  0  0  0  0
    3.4482   -3.7887    2.6992 N   0  0  0  0  0  0  0  0  0  0  0  0
    3.9064    0.3357    4.7066 N   0  0  0  0  0  0  0  0  0  0  0  0
    2.8807   -1.8958    1.3800 N   0  0  0  0  0  0  0  0  0  0  0  0
    3.1343    0.1913    2.4347 N   0  0  0  0  0  0  0  0  0  0  0  0
    3.6606   -1.6992    3.6344 N   0  0  0  0  0  0  0  0  0  0  0  0
    0.6420    1.2905   -0.5881 H   0  0  0  0  0  0  0  0  0  0  0  0
    1.1634    1.7245    1.0414 H   0  0  0  0  0  0  0  0  0  0  0  0
    0.2395    0.2340    0.7778 H   0  0  0  0  0  0  0  0  0  0  0  0
    3.0767    1.4146   -1.4485 H   0  0  0  0  0  0  0  0  0  0  0  0
    4.3373    0.4330   -0.6797 H   0  0  0  0  0  0  0  0  0  0  0  0
    3.6658    1.8432    0.1597 H   0  0  0  0  0  0  0  0  0  0  0  0
    2.1114   -0.7114   -0.5962 H   0  0  0  0  0  0  0  0  0  0  0  0
    3.1679   -4.2393    1.8266 H   0  0  0  0  0  0  0  0  0  0  0  0
    3.8005    1.3407    4.5669 H   0  0  0  0  0  0  0  0  0  0  0  0
    3.0441    1.1945    2.3612 H   0  0  0  0  0  0  0  0  0  0  0  0
    3.9769   -2.1518    4.4824 H   0  0  0  0  0  0  0  0  0  0  0  0
  1 14  1  0  0  0  0
  1 13  1  0  0  0  0
  2  3  1  0  0  0  0
  2 17  1  0  0  0  0
  3  1  1  0  0  0  0
  4  3  1  6  0  0  0
  4  9  1  0  0  0  0
  4 10  1  0  0  0  0
  5  7  1  0  0  0  0
  5 11  1  0  0  0  0
  6  8  2  0  0  0  0
  9  5  2  0  0  0  0
 10  6  1  0  0  0  0
 11  6  1  0  0  0  0
 11 22  1  0  0  0  0
 12  1  1  0  0  0  0
 15  2  1  0  0  0  0
 16  2  1  0  0  0  0
 18  3  1  0  0  0  0
 19  7  1  0  0  0  0
 20  8  1  0  0  0  0
 21 10  1  0  0  0  0
M  RAD  2   4   2   7   2
M  END
>  <HBA>
5

>  <HBD>
2

>  <TPSA>
90.71

>  <cid>
21498

>  <dipole>
5.91

>  <excitation_energy_1>
4.865

>  <excitation_energy_2>
5.173

>  <excitation_energy_3>
5.317

>  <excitation_energy_4>
5.385

>  <homo_energy>
-6.272

>  <homo_lumo_gap>
5.508

>  <logP>
1.322

>  <lumo_energy>
-0.765

>  <melting_point>
152.66

>  <molecular_refractivity>
43.22

>  <oscillator_strength_1>
0.0279

>  <oscillator_strength_2>
0.0765

>  <oscillator_strength_3>
0.005

>  <oscillator_strength_4>
0.0024

>  <open_babel_can_smiles>
N=C1NC(=N[C](N1)C(C)C)[NH]

>  <mulliken_charges>
22
1   -0.452765
2   -0.452321
3   -0.167331
4   0.54078
5   0.603857
6   0.688224
7   -0.647298
8   -0.646731
9   -0.515425
10   -0.687753
11   -0.643395
12   0.162612
13   0.13448
14   0.171188
15   0.162289
16   0.171375
17   0.135032
18   0.177324
19   0.295259
20   0.274618
21   0.337799
22   0.35818

>  <lowdin_charges>
22
1   -0.443785
2   -0.442839
3   -0.131396
4   0.119554
5   0.113047
6   0.139256
7   -0.424211
8   -0.454353
9   -0.223396
10   -0.246877
11   -0.232895
12   0.160949
13   0.143135
14   0.164355
15   0.160527
16   0.16358
17   0.143633
18   0.172668
19   0.263214
20   0.252131
21   0.291429
22   0.312272

$$$$

