PCCDB-ID:  70763
public computational chemistry database (PCCDB) project, http://pccdb.org

 28 28  0  0  0  0  0  0  0  0999 V2000
    0.8814    1.1957   -1.7614 C   0  0  0  0  0  0  0  0  0  0  0  0
    1.7326    0.3920   -0.7666 C   0  0  0  0  0  0  0  0  0  0  0  0
   -0.5790    1.2956   -1.2951 C   0  0  0  0  0  0  0  0  0  0  0  0
    0.0378   -1.3694    2.5011 C   0  0  0  0  0  0  0  0  0  0  0  0
    1.1233   -0.9939   -0.4935 C   0  0  0  0  0  0  0  0  0  0  0  0
   -1.1767   -0.0959   -1.0263 C   0  0  0  0  0  0  0  0  0  0  0  0
   -0.5154   -0.4224    1.4269 C   0  0  0  0  0  0  0  0  0  0  0  0
   -0.2596   -0.8912    3.9240 C   0  0  0  0  0  0  0  0  0  0  0  0
   -0.3485   -0.9301   -0.0223 C   0  0  0  0  0  0  0  0  0  0  0  0
    0.3025   -1.7347    4.9239 O   0  0  0  0  0  0  0  0  0  0  0  0
    0.9118    0.6995   -2.7434 H   0  0  0  0  0  0  0  0  0  0  0  0
    1.3061    2.1975   -1.9054 H   0  0  0  0  0  0  0  0  0  0  0  0
    1.8225    0.9553    0.1730 H   0  0  0  0  0  0  0  0  0  0  0  0
    2.7545    0.2753   -1.1500 H   0  0  0  0  0  0  0  0  0  0  0  0
   -1.1826    1.8192   -2.0476 H   0  0  0  0  0  0  0  0  0  0  0  0
   -0.6284    1.9071   -0.3830 H   0  0  0  0  0  0  0  0  0  0  0  0
    1.1239   -1.4854    2.4030 H   0  0  0  0  0  0  0  0  0  0  0  0
   -0.3976   -2.3720    2.3635 H   0  0  0  0  0  0  0  0  0  0  0  0
    1.7379   -1.5400    0.2327 H   0  0  0  0  0  0  0  0  0  0  0  0
    1.1596   -1.5808   -1.4231 H   0  0  0  0  0  0  0  0  0  0  0  0
   -1.2270   -0.6449   -1.9781 H   0  0  0  0  0  0  0  0  0  0  0  0
   -2.2112   -0.0011   -0.6695 H   0  0  0  0  0  0  0  0  0  0  0  0
   -0.0476    0.5643    1.5452 H   0  0  0  0  0  0  0  0  0  0  0  0
   -1.5888   -0.2680    1.6136 H   0  0  0  0  0  0  0  0  0  0  0  0
   -1.3484   -0.7805    4.0651 H   0  0  0  0  0  0  0  0  0  0  0  0
    0.1872    0.0949    4.0918 H   0  0  0  0  0  0  0  0  0  0  0  0
   -0.7470   -1.9559   -0.0425 H   0  0  0  0  0  0  0  0  0  0  0  0
   -0.1020   -2.6105    4.8239 H   0  0  0  0  0  0  0  0  0  0  0  0
  1  3  1  0  0  0  0
  1  2  1  0  0  0  0
  2  5  1  0  0  0  0
  2 13  1  0  0  0  0
  3  6  1  0  0  0  0
  3 16  1  0  0  0  0
  4  8  1  0  0  0  0
  5  9  1  0  0  0  0
  5 19  1  0  0  0  0
  6 22  1  0  0  0  0
  6  9  1  0  0  0  0
  7 23  1  0  0  0  0
  7 24  1  0  0  0  0
  7  4  1  0  0  0  0
  8 25  1  0  0  0  0
  8 26  1  0  0  0  0
  8 10  1  0  0  0  0
  9  7  1  0  0  0  0
 11  1  1  0  0  0  0
 12  1  1  0  0  0  0
 14  2  1  0  0  0  0
 15  3  1  0  0  0  0
 17  4  1  0  0  0  0
 18  4  1  0  0  0  0
 20  5  1  0  0  0  0
 21  6  1  0  0  0  0
 27  9  1  0  0  0  0
 28 10  1  0  0  0  0
M  END
>  <HBA>
1

>  <HBD>
1

>  <TPSA>
20.23

>  <cid>
70763

>  <dipole>
1.73

>  <excitation_energy_1>
6.394

>  <excitation_energy_2>
6.953

>  <excitation_energy_3>
7.137

>  <excitation_energy_4>
7.274

>  <homo_energy>
-7.051

>  <homo_lumo_gap>
9.105

>  <logP>
2.339

>  <lumo_energy>
2.054

>  <melting_point>
12.64

>  <molecular_refractivity>
44.42

>  <oscillator_strength_1>
0.0088

>  <oscillator_strength_2>
0.0034

>  <oscillator_strength_3>
0.0082

>  <oscillator_strength_4>
0.0008

>  <open_babel_can_smiles>
OCCCC1CCCCC1

>  <mulliken_charges>
28
1   -0.253836
2   -0.260605
3   -0.260233
4   -0.283837
5   -0.268783
6   -0.265542
7   -0.26771
8   -0.026515
9   -0.072418
10   -0.615923
11   0.125898
12   0.128792
13   0.130972
14   0.130527
15   0.129662
16   0.131141
17   0.150194
18   0.11772
19   0.133069
20   0.126362
21   0.125641
22   0.125314
23   0.135441
24   0.126071
25   0.116194
26   0.144271
27   0.11334
28   0.38479

>  <lowdin_charges>
28
1   -0.276599
2   -0.279029
3   -0.281772
4   -0.292492
5   -0.283406
6   -0.277882
7   -0.278116
8   -0.13273
9   -0.127097
10   -0.467599
11   0.135871
12   0.141869
13   0.137725
14   0.142919
15   0.144632
16   0.138156
17   0.146217
18   0.132052
19   0.144377
20   0.139407
21   0.138479
22   0.138987
23   0.139921
24   0.137595
25   0.120384
26   0.144473
27   0.134692
28   0.338967

$$$$

