PCCDB-ID:  16544
public computational chemistry database (PCCDB) project, http://pccdb.org

 24 24  0  0  0  0  0  0  0  0999 V2000
   -1.3803   -0.3957   -0.3802 C   0  0  0  0  0  0  0  0  0  0  0  0
   -0.5228   -1.3497   -0.0050 C   0  0  0  0  0  0  0  0  0  0  0  0
   -1.0300    1.0706   -0.3794 C   0  0  0  0  0  0  0  0  0  0  0  0
    0.8910   -1.0789    0.4527 C   0  0  0  0  0  0  0  0  0  0  0  0
    0.2567    1.3549    0.4121 C   0  0  0  0  0  0  0  0  0  0  0  0
    1.8005    0.3707   -1.3755 C   0  0  0  0  0  0  0  0  0  0  0  0
    2.6238    0.6693    0.9893 C   0  0  0  0  0  0  0  0  0  0  0  0
    1.3900    0.3465    0.1157 C   0  0  0  0  0  0  0  0  0  0  0  0
    2.3082    1.6388   -1.8227 O   0  0  0  0  0  0  0  0  0  0  0  0
    3.1271    1.9827    0.8172 O   0  0  0  0  0  0  0  0  0  0  0  0
   -2.3829   -0.6699   -0.7057 H   0  0  0  0  0  0  0  0  0  0  0  0
   -0.8406   -2.3916   -0.0124 H   0  0  0  0  0  0  0  0  0  0  0  0
   -1.8599    1.6521    0.0448 H   0  0  0  0  0  0  0  0  0  0  0  0
   -0.9392    1.4248   -1.4202 H   0  0  0  0  0  0  0  0  0  0  0  0
    1.5691   -1.8274    0.0165 H   0  0  0  0  0  0  0  0  0  0  0  0
    0.9530   -1.2373    1.5414 H   0  0  0  0  0  0  0  0  0  0  0  0
    0.0319    1.2979    1.4854 H   0  0  0  0  0  0  0  0  0  0  0  0
    0.6079    2.3787    0.2403 H   0  0  0  0  0  0  0  0  0  0  0  0
    0.9697    0.0474   -2.0161 H   0  0  0  0  0  0  0  0  0  0  0  0
    2.6274   -0.3299   -1.5338 H   0  0  0  0  0  0  0  0  0  0  0  0
    3.4054   -0.0874    0.7919 H   0  0  0  0  0  0  0  0  0  0  0  0
    2.3523    0.5818    2.0486 H   0  0  0  0  0  0  0  0  0  0  0  0
    1.5704    2.2684   -1.8256 H   0  0  0  0  0  0  0  0  0  0  0  0
    3.2217    2.1071   -0.1457 H   0  0  0  0  0  0  0  0  0  0  0  0
  1  3  1  0  0  0  0
  1  2  2  0  0  0  0
  2  4  1  0  0  0  0
  3 13  1  0  0  0  0
  3  5  1  0  0  0  0
  4 16  1  0  0  0  0
  5 17  1  0  0  0  0
  6  8  1  0  0  0  0
  7 22  1  0  0  0  0
  8  5  1  0  0  0  0
  8  4  1  0  0  0  0
  8  7  1  0  0  0  0
  9  6  1  0  0  0  0
 10  7  1  0  0  0  0
 11  1  1  0  0  0  0
 12  2  1  0  0  0  0
 14  3  1  0  0  0  0
 15  4  1  0  0  0  0
 18  5  1  0  0  0  0
 19  6  1  0  0  0  0
 20  6  1  0  0  0  0
 21  7  1  0  0  0  0
 23  9  1  0  0  0  0
 24 10  1  0  0  0  0
M  END
>  <HBA>
2

>  <HBD>
2

>  <TPSA>
40.46

>  <cid>
16544

>  <dipole>
2.71

>  <excitation_energy_1>
5.849

>  <excitation_energy_2>
6.062

>  <excitation_energy_3>
6.203

>  <excitation_energy_4>
6.504

>  <homo_energy>
-6.648

>  <homo_lumo_gap>
7.203

>  <logP>
0.698

>  <lumo_energy>
0.555

>  <melting_point>
60.4

>  <molecular_refractivity>
40.05

>  <oscillator_strength_1>
0.0059

>  <oscillator_strength_2>
0.0035

>  <oscillator_strength_3>
0.0081

>  <oscillator_strength_4>
0.0079

>  <open_babel_can_smiles>
OCC1(CO)CCC=CC1

>  <mulliken_charges>
24
1   -0.100676
2   -0.109534
3   -0.313081
4   -0.316728
5   -0.282584
6   -0.061471
7   -0.017854
8   0.024477
9   -0.629862
10   -0.646516
11   0.123685
12   0.123994
13   0.149032
14   0.13245
15   0.140722
16   0.150908
17   0.144598
18   0.136581
19   0.147211
20   0.149643
21   0.109558
22   0.132341
23   0.404514
24   0.408594

>  <lowdin_charges>
24
1   -0.176089
2   -0.173766
3   -0.2802
4   -0.274961
5   -0.279461
6   -0.14563
7   -0.13325
8   -0.032034
9   -0.462333
10   -0.480745
11   0.152
12   0.152067
13   0.155842
14   0.138744
15   0.150638
16   0.152893
17   0.149654
18   0.144694
19   0.144082
20   0.150623
21   0.122312
22   0.139
23   0.348162
24   0.337759

$$$$

