PCCDB-ID:  2572
public computational chemistry database (PCCDB) project, http://pccdb.org

 25 24  0  0  0  0  0  0  0  0999 V2000
    0.3815    0.7254    0.0614 C   0  0  0  0  0  0  0  0  0  0  0  0
    0.1319    2.2175   -0.2674 C   0  0  0  0  0  0  0  0  0  0  0  0
    5.1829    1.7560    0.7621 C   0  0  0  0  0  0  0  0  0  0  0  0
    1.8203    0.2270   -0.1372 C   0  0  0  0  0  0  0  0  0  0  0  0
    4.1904    0.6795    0.3242 C   0  0  0  0  0  0  0  0  0  0  0  0
    0.6565    2.6800   -1.6295 C   0  0  0  0  0  0  0  0  0  0  0  0
    6.6217    1.2519    0.7284 C   0  0  0  0  0  0  0  0  0  0  0  0
    2.8119    1.1835    0.3891 N   0  0  0  0  0  0  0  0  0  0  0  0
   -0.0635    2.9593   -2.5598 O   0  0  0  0  0  0  0  0  0  0  0  0
    1.9996    2.7694   -1.7242 O   0  0  0  0  0  0  0  0  0  0  0  0
    6.9382    0.1192    0.4675 O   0  0  0  0  0  0  0  0  0  0  0  0
    7.5723    2.1766    1.0283 O   0  0  0  0  0  0  0  0  0  0  0  0
   -0.2757    0.1019   -0.5556 H   0  0  0  0  0  0  0  0  0  0  0  0
    0.0751    0.5576    1.1028 H   0  0  0  0  0  0  0  0  0  0  0  0
    0.5893    2.8449    0.5084 H   0  0  0  0  0  0  0  0  0  0  0  0
   -0.9430    2.4113   -0.2537 H   0  0  0  0  0  0  0  0  0  0  0  0
    4.9609    2.0954    1.7854 H   0  0  0  0  0  0  0  0  0  0  0  0
    5.0885    2.6397    0.1165 H   0  0  0  0  0  0  0  0  0  0  0  0
    2.0313    0.1122   -1.2065 H   0  0  0  0  0  0  0  0  0  0  0  0
    1.9281   -0.7707    0.3186 H   0  0  0  0  0  0  0  0  0  0  0  0
    4.3357   -0.2279    0.9288 H   0  0  0  0  0  0  0  0  0  0  0  0
    4.3989    0.3986   -0.7132 H   0  0  0  0  0  0  0  0  0  0  0  0
    2.5800    1.4031    1.3589 H   0  0  0  0  0  0  0  0  0  0  0  0
    2.4125    2.4175   -0.8865 H   0  0  0  0  0  0  0  0  0  0  0  0
    7.1624    3.0408    1.1998 H   0  0  0  0  0  0  0  0  0  0  0  0
  1 14  1  0  0  0  0
  2 16  1  0  0  0  0
  2  1  1  0  0  0  0
  2 15  1  0  0  0  0
  3 17  1  0  0  0  0
  4  1  1  0  0  0  0
  4 20  1  0  0  0  0
  4  8  1  0  0  0  0
  5  8  1  0  0  0  0
  5  3  1  0  0  0  0
  5 21  1  0  0  0  0
  6  2  1  0  0  0  0
  7  3  1  0  0  0  0
  7 12  1  0  0  0  0
  8 23  1  0  0  0  0
  9  6  2  0  0  0  0
 10  6  1  0  0  0  0
 10 24  1  0  0  0  0
 11  7  2  0  0  0  0
 12 25  1  0  0  0  0
 13  1  1  0  0  0  0
 18  3  1  0  0  0  0
 19  4  1  0  0  0  0
 22  5  1  0  0  0  0
M  END
>  <HBA>
5

>  <HBD>
3

>  <TPSA>
86.63

>  <cid>
2572

>  <dipole>
5.81

>  <excitation_energy_1>
5.467

>  <excitation_energy_2>
5.714

>  <excitation_energy_3>
5.898

>  <excitation_energy_4>
6.096

>  <homo_energy>
-6.789

>  <homo_lumo_gap>
6.661

>  <logP>
0.306

>  <lumo_energy>
-0.128

>  <melting_point>
154.27

>  <molecular_refractivity>
42.11

>  <oscillator_strength_1>
0.0017

>  <oscillator_strength_2>
0.0005

>  <oscillator_strength_3>
0.0003

>  <oscillator_strength_4>
0.002

>  <open_babel_can_smiles>
OC(=O)CCNCCCC(=O)O

>  <mulliken_charges>
25
1   -0.29087
2   -0.36712
3   -0.421825
4   -0.13899
5   -0.108979
6   0.581567
7   0.616748
8   -0.62299
9   -0.455199
10   -0.605699
11   -0.433782
12   -0.563295
13   0.169192
14   0.14537
15   0.147574
16   0.176165
17   0.16685
18   0.184988
19   0.174446
20   0.143277
21   0.161061
22   0.179572
23   0.308857
24   0.440761
25   0.412321

>  <lowdin_charges>
25
1   -0.279518
2   -0.319447
3   -0.327683
4   -0.211782
5   -0.196373
6   0.188516
7   0.19482
8   -0.354852
9   -0.258554
10   -0.389802
11   -0.231977
12   -0.350386
13   0.164587
14   0.146591
15   0.154365
16   0.171224
17   0.161599
18   0.171154
19   0.154495
20   0.138658
21   0.147161
22   0.163364
23   0.25682
24   0.346576
25   0.360447

$$$$

