PCCDB-ID:  20066
public computational chemistry database (PCCDB) project, http://pccdb.org

 24 23  0  0  0  0  0  0  0  0999 V2000
    0.8547    0.0003   -0.1359 C   0  0  0  0  0  0  0  0  0  0  0  0
   11.8023   -0.6136    2.7812 C   0  0  0  0  0  0  0  0  0  0  0  0
    2.3161    0.0035   -0.1291 C   0  0  0  0  0  0  0  0  0  0  0  0
   10.3424   -0.5469    2.7822 C   0  0  0  0  0  0  0  0  0  0  0  0
    3.5260    0.0077   -0.1254 C   0  0  0  0  0  0  0  0  0  0  0  0
    9.1338   -0.4907    2.7841 C   0  0  0  0  0  0  0  0  0  0  0  0
    4.9903    0.0142   -0.0913 C   0  0  0  0  0  0  0  0  0  0  0  0
    7.6714   -0.4136    2.7591 C   0  0  0  0  0  0  0  0  0  0  0  0
    5.5654   -0.1839    1.3276 C   0  0  0  0  0  0  0  0  0  0  0  0
    7.0963   -0.2384    1.3372 C   0  0  0  0  0  0  0  0  0  0  0  0
    0.4513    1.0181   -0.0669 H   0  0  0  0  0  0  0  0  0  0  0  0
    0.4526   -0.5717    0.7096 H   0  0  0  0  0  0  0  0  0  0  0  0
    0.4599   -0.4493   -1.0555 H   0  0  0  0  0  0  0  0  0  0  0  0
   12.1573   -1.6274    2.5580 H   0  0  0  0  0  0  0  0  0  0  0  0
   12.2161   -0.3264    3.7558 H   0  0  0  0  0  0  0  0  0  0  0  0
   12.2325    0.0595    2.0292 H   0  0  0  0  0  0  0  0  0  0  0  0
    5.3662    0.9617   -0.5035 H   0  0  0  0  0  0  0  0  0  0  0  0
    5.3795   -0.7745   -0.7515 H   0  0  0  0  0  0  0  0  0  0  0  0
    7.3342    0.4217    3.3898 H   0  0  0  0  0  0  0  0  0  0  0  0
    7.2438   -1.3205    3.2106 H   0  0  0  0  0  0  0  0  0  0  0  0
    5.1531   -1.1086    1.7517 H   0  0  0  0  0  0  0  0  0  0  0  0
    5.2148    0.6345    1.9701 H   0  0  0  0  0  0  0  0  0  0  0  0
    7.4466   -1.0667    0.7076 H   0  0  0  0  0  0  0  0  0  0  0  0
    7.5085    0.6797    0.8984 H   0  0  0  0  0  0  0  0  0  0  0  0
  1  3  1  0  0  0  0
  1 11  1  0  0  0  0
  1 12  1  0  0  0  0
  2  4  1  0  0  0  0
  2 15  1  0  0  0  0
  3  5  3  0  0  0  0
  4  6  3  0  0  0  0
  5  7  1  0  0  0  0
  7  9  1  0  0  0  0
  8  6  1  0  0  0  0
  8 20  1  0  0  0  0
  8 19  1  0  0  0  0
  9 10  1  0  0  0  0
  9 21  1  0  0  0  0
  9 22  1  0  0  0  0
 10  8  1  0  0  0  0
 13  1  1  0  0  0  0
 14  2  1  0  0  0  0
 16  2  1  0  0  0  0
 17  7  1  0  0  0  0
 18  7  1  0  0  0  0
 23 10  1  0  0  0  0
 24 10  1  0  0  0  0
M  END
>  <HBA>
0

>  <HBD>
0

>  <TPSA>
0.0

>  <cid>
20066

>  <dipole>
0.01

>  <excitation_energy_1>
6.213

>  <excitation_energy_2>
6.22

>  <excitation_energy_3>
6.225

>  <excitation_energy_4>
6.25

>  <homo_energy>
-6.463

>  <homo_lumo_gap>
8.115

>  <logP>
2.593

>  <lumo_energy>
1.652

>  <melting_point>
5.48

>  <molecular_refractivity>
46.51

>  <oscillator_strength_1>
0.0091

>  <oscillator_strength_2>
0.0003

>  <oscillator_strength_3>
0.0

>  <oscillator_strength_4>
0.0339

>  <open_babel_can_smiles>
CC#CCCCCC#CC

>  <mulliken_charges>
24
1   -0.573649
2   -0.573606
3   -0.023705
4   -0.024306
5   0.113315
6   0.114018
7   -0.402389
8   -0.402603
9   -0.252905
10   -0.25305
11   0.175987
12   0.17602
13   0.176424
14   0.175948
15   0.176576
16   0.176037
17   0.162241
18   0.161864
19   0.162143
20   0.161956
21   0.143786
22   0.14307
23   0.143757
24   0.14307

>  <lowdin_charges>
24
1   -0.42451
2   -0.4244
3   -0.089317
4   -0.089282
5   -0.089065
6   -0.089045
7   -0.258236
8   -0.258424
9   -0.270718
10   -0.270739
11   0.170094
12   0.171821
13   0.171488
14   0.170149
15   0.171071
16   0.172083
17   0.161497
18   0.162163
19   0.162137
20   0.161697
21   0.147322
22   0.147447
23   0.147797
24   0.146972

$$$$

