PCCDB-ID:  18169
public computational chemistry database (PCCDB) project, http://pccdb.org

 17 17  0  0  0  0  0  0  0  0999 V2000
   -1.3997   -0.0131   -0.1931 C   0  0  0  0  0  0  0  0  0  0  0  0
   -0.8585    1.2559   -0.2751 C   0  0  0  0  0  0  0  0  0  0  0  0
    0.8120   -0.9406    0.0654 C   0  0  0  0  0  0  0  0  0  0  0  0
   -1.1402   -2.4903    0.0719 C   0  0  0  0  0  0  0  0  0  0  0  0
   -0.5650   -1.1315   -0.0203 C   0  0  0  0  0  0  0  0  0  0  0  0
    1.3656    0.3350   -0.0291 C   0  0  0  0  0  0  0  0  0  0  0  0
    0.5338    1.4647   -0.1984 C   0  0  0  0  0  0  0  0  0  0  0  0
    2.8292    0.4403    0.0521 N   0  0  0  0  0  0  0  0  0  0  0  0
   -2.3296   -2.7341    0.0043 O   0  0  0  0  0  0  0  0  0  0  0  0
    1.0540    2.7039   -0.2588 O   0  0  0  0  0  0  0  0  0  0  0  0
    3.4366   -0.5454    0.4771 O   0  0  0  0  0  0  0  0  0  0  0  0
    3.3605    1.4828   -0.3172 O   0  0  0  0  0  0  0  0  0  0  0  0
   -2.4721   -0.1693   -0.2560 H   0  0  0  0  0  0  0  0  0  0  0  0
   -1.5064    2.1211   -0.4019 H   0  0  0  0  0  0  0  0  0  0  0  0
    1.4868   -1.7777    0.2091 H   0  0  0  0  0  0  0  0  0  0  0  0
   -0.3948   -3.3030    0.2115 H   0  0  0  0  0  0  0  0  0  0  0  0
    0.3271    3.3447   -0.3343 H   0  0  0  0  0  0  0  0  0  0  0  0
  1  5  2  0  0  0  0
  2  7  2  0  0  0  0
  2  1  1  0  0  0  0
  3 15  1  0  0  0  0
  4 16  1  0  0  0  0
  5  3  1  0  0  0  0
  5  4  1  0  0  0  0
  6  8  1  0  0  0  0
  6  3  2  0  0  0  0
  7  6  1  0  0  0  0
  8 11  2  0  0  0  0
  9  4  2  0  0  0  0
 10  7  1  0  0  0  0
 12  8  2  0  0  0  0
 13  1  1  0  0  0  0
 14  2  1  0  0  0  0
 17 10  1  0  0  0  0
M  END
>  <HBA>
2

>  <HBD>
1

>  <TPSA>
83.12

>  <cid>
18169

>  <dipole>
4.0

>  <excitation_energy_1>
3.678

>  <excitation_energy_2>
3.729

>  <excitation_energy_3>
4.006

>  <excitation_energy_4>
4.095

>  <homo_energy>
-7.276

>  <homo_lumo_gap>
4.732

>  <logP>
1.636

>  <lumo_energy>
-2.544

>  <melting_point>
117.86

>  <molecular_refractivity>
42.67

>  <oscillator_strength_1>
0.0031

>  <oscillator_strength_2>
0.0008

>  <oscillator_strength_3>
0.0521

>  <oscillator_strength_4>
0.001

>  <open_babel_can_smiles>
O=Cc1ccc(c(c1)N(=O)=O)O

>  <mulliken_charges>
17
1   -0.14015
2   -0.200968
3   -0.217254
4   0.201129
5   0.083025
6   0.261678
7   0.346062
8   0.36709
9   -0.406882
10   -0.586568
11   -0.395632
12   -0.371692
13   0.180596
14   0.146174
15   0.195235
16   0.115677
17   0.422481

>  <lowdin_charges>
17
1   -0.093085
2   -0.20267
3   -0.114503
4   0.044933
5   -0.06804
6   -0.026891
7   0.132226
8   0.309816
9   -0.224242
10   -0.318672
11   -0.25508
12   -0.224303
13   0.183928
14   0.167226
15   0.194163
16   0.126814
17   0.36838

$$$$

