PCCDB-ID:  22652
public computational chemistry database (PCCDB) project, http://pccdb.org

 30 31  0  0  0  0  0  0  0  0999 V2000
    1.0486   -0.1620    0.3828 C   0  0  0  0  0  0  0  0  0  0  0  0
    7.1395    4.2966   -0.0532 C   0  0  0  0  0  0  0  0  0  0  0  0
    3.1718    5.2826   -1.5120 C   0  0  0  0  0  0  0  0  0  0  0  0
    5.3114   -0.5819    0.2787 C   0  0  0  0  0  0  0  0  0  0  0  0
    4.4120   -1.6062   -0.4197 C   0  0  0  0  0  0  0  0  0  0  0  0
    5.5653    1.9411    0.0193 C   0  0  0  0  0  0  0  0  0  0  0  0
    2.8025    2.2206   -0.1267 C   0  0  0  0  0  0  0  0  0  0  0  0
    2.5258   -0.2937    0.0921 C   0  0  0  0  0  0  0  0  0  0  0  0
    4.7529    0.8073    0.0832 C   0  0  0  0  0  0  0  0  0  0  0  0
    3.3554    0.9374    0.0144 C   0  0  0  0  0  0  0  0  0  0  0  0
    5.0083    3.2172   -0.1179 C   0  0  0  0  0  0  0  0  0  0  0  0
    3.6035    3.3527   -0.1989 C   0  0  0  0  0  0  0  0  0  0  0  0
    2.9911   -1.4772   -0.0897 N   0  0  0  0  0  0  0  0  0  0  0  0
    5.7268    4.3742   -0.1730 O   0  0  0  0  0  0  0  0  0  0  0  0
    3.0064    4.5887   -0.2737 O   0  0  0  0  0  0  0  0  0  0  0  0
    0.8706    0.3962    1.3100 H   0  0  0  0  0  0  0  0  0  0  0  0
    0.6139   -1.1594    0.4701 H   0  0  0  0  0  0  0  0  0  0  0  0
    0.5308    0.3754   -0.4222 H   0  0  0  0  0  0  0  0  0  0  0  0
    7.4990    5.3258   -0.1032 H   0  0  0  0  0  0  0  0  0  0  0  0
    7.5832    3.7160   -0.8725 H   0  0  0  0  0  0  0  0  0  0  0  0
    7.4364    3.8538    0.9060 H   0  0  0  0  0  0  0  0  0  0  0  0
    4.2227    5.5242   -1.7003 H   0  0  0  0  0  0  0  0  0  0  0  0
    2.5959    6.2063   -1.4194 H   0  0  0  0  0  0  0  0  0  0  0  0
    2.7754    4.6907   -2.3481 H   0  0  0  0  0  0  0  0  0  0  0  0
    6.3401   -0.6528   -0.0944 H   0  0  0  0  0  0  0  0  0  0  0  0
    5.3486   -0.8125    1.3550 H   0  0  0  0  0  0  0  0  0  0  0  0
    4.7272   -2.6245   -0.1672 H   0  0  0  0  0  0  0  0  0  0  0  0
    4.5138   -1.5083   -1.5127 H   0  0  0  0  0  0  0  0  0  0  0  0
    6.6413    1.8188    0.0862 H   0  0  0  0  0  0  0  0  0  0  0  0
    1.7290    2.3695   -0.1781 H   0  0  0  0  0  0  0  0  0  0  0  0
  1 17  1  0  0  0  0
  1 16  1  0  0  0  0
  2 21  1  0  0  0  0
  3 23  1  0  0  0  0
  3 15  1  0  0  0  0
  4 26  1  0  0  0  0
  5 27  1  0  0  0  0
  5 13  1  0  0  0  0
  5  4  1  0  0  0  0
  6  9  1  0  0  0  0
  6 29  1  0  0  0  0
  7 10  1  0  0  0  0
  8  1  1  0  0  0  0
  9  4  1  0  0  0  0
 10  9  2  0  0  0  0
 10  8  1  0  0  0  0
 11  6  2  0  0  0  0
 12  7  2  0  0  0  0
 12 11  1  0  0  0  0
 13  8  2  0  0  0  0
 14 11  1  0  0  0  0
 14  2  1  0  0  0  0
 15 12  1  0  0  0  0
 18  1  1  0  0  0  0
 19  2  1  0  0  0  0
 20  2  1  0  0  0  0
 22  3  1  0  0  0  0
 24  3  1  0  0  0  0
 25  4  1  0  0  0  0
 28  5  1  0  0  0  0
 30  7  1  0  0  0  0
M  END
>  <HBA>
3

>  <HBD>
0

>  <TPSA>
30.82

>  <cid>
22652

>  <dipole>
3.61

>  <excitation_energy_1>
4.237

>  <excitation_energy_2>
4.459

>  <excitation_energy_3>
4.712

>  <excitation_energy_4>
5.243

>  <homo_energy>
-5.695

>  <homo_lumo_gap>
4.92

>  <logP>
1.504

>  <lumo_energy>
-0.776

>  <melting_point>
63.32

>  <molecular_refractivity>
63.87

>  <oscillator_strength_1>
0.0131

>  <oscillator_strength_2>
0.1543

>  <oscillator_strength_3>
0.0406

>  <oscillator_strength_4>
0.0111

>  <open_babel_can_smiles>
COc1cc2C(=NCCc2cc1OC)C

>  <mulliken_charges>
30
1   -0.514322
2   -0.216134
3   -0.21043
4   -0.357985
5   -0.149837
6   -0.286667
7   -0.258331
8   0.261242
9   0.128205
10   0.09301
11   0.362088
12   0.321332
13   -0.435664
14   -0.507134
15   -0.522819
16   0.159193
17   0.175709
18   0.157182
19   0.173346
20   0.15412
21   0.157629
22   0.160195
23   0.159296
24   0.138598
25   0.140888
26   0.15895
27   0.14427
28   0.145564
29   0.12963
30   0.138876

>  <lowdin_charges>
30
1   -0.45153
2   -0.275552
3   -0.274668
4   -0.281377
5   -0.205333
6   -0.21657
7   -0.165356
8   0.055414
9   0.005129
10   -0.055109
11   0.085178
12   0.066738
13   -0.19263
14   -0.189668
15   -0.224888
16   0.160423
17   0.171138
18   0.160708
19   0.163848
20   0.147496
21   0.148759
22   0.147113
23   0.156346
24   0.139142
25   0.151508
26   0.15393
27   0.148093
28   0.143883
29   0.15975
30   0.168084

$$$$

