PCCDB-ID:  44236
public computational chemistry database (PCCDB) project, http://pccdb.org

 34 34  0  0  0  0  0  0  0  0999 V2000
    0.9137    0.0749    0.4260 C   0  0  0  0  0  0  0  0  0  0  0  0
   11.1380   -3.7589   -0.9507 C   0  0  0  0  0  0  0  0  0  0  0  0
   11.1101   -2.1010   -2.6780 C   0  0  0  0  0  0  0  0  0  0  0  0
    3.2015   -1.0226    0.3196 C   0  0  0  0  0  0  0  0  0  0  0  0
    3.0039    1.2722   -0.3561 C   0  0  0  0  0  0  0  0  0  0  0  0
    4.5660   -0.9922    0.0461 C   0  0  0  0  0  0  0  0  0  0  0  0
    4.3692    1.3107   -0.6306 C   0  0  0  0  0  0  0  0  0  0  0  0
    8.6729   -0.9162   -1.1639 C   0  0  0  0  0  0  0  0  0  0  0  0
    9.1898   -2.3582   -1.2103 C   0  0  0  0  0  0  0  0  0  0  0  0
    2.3946    0.1073    0.1290 C   0  0  0  0  0  0  0  0  0  0  0  0
    5.1732    0.1788   -0.4257 C   0  0  0  0  0  0  0  0  0  0  0  0
    6.6399    0.1858   -0.7003 C   0  0  0  0  0  0  0  0  0  0  0  0
    7.2351    1.4449   -0.7414 N   0  0  0  0  0  0  0  0  0  0  0  0
    7.2410   -0.9278   -0.9205 N   0  0  0  0  0  0  0  0  0  0  0  0
   10.6443   -2.4446   -1.3401 N   0  0  0  0  0  0  0  0  0  0  0  0
    0.6061   -0.8995    0.8182 H   0  0  0  0  0  0  0  0  0  0  0  0
    0.3203    0.2735   -0.4755 H   0  0  0  0  0  0  0  0  0  0  0  0
    0.6361    0.8360    1.1659 H   0  0  0  0  0  0  0  0  0  0  0  0
   12.2331   -3.7680   -0.9937 H   0  0  0  0  0  0  0  0  0  0  0  0
   10.7673   -4.5781   -1.5992 H   0  0  0  0  0  0  0  0  0  0  0  0
   10.8360   -3.9792    0.0787 H   0  0  0  0  0  0  0  0  0  0  0  0
   12.2049   -2.1353   -2.7047 H   0  0  0  0  0  0  0  0  0  0  0  0
   10.8034   -1.0852   -2.9439 H   0  0  0  0  0  0  0  0  0  0  0  0
   10.7268   -2.7877   -3.4597 H   0  0  0  0  0  0  0  0  0  0  0  0
    2.7525   -1.9412    0.6907 H   0  0  0  0  0  0  0  0  0  0  0  0
    2.3999    2.1604   -0.5298 H   0  0  0  0  0  0  0  0  0  0  0  0
    5.1850   -1.8711    0.1907 H   0  0  0  0  0  0  0  0  0  0  0  0
    4.8016    2.2186   -1.0421 H   0  0  0  0  0  0  0  0  0  0  0  0
    8.8955   -0.3963   -2.1100 H   0  0  0  0  0  0  0  0  0  0  0  0
    9.2332   -0.3827   -0.3736 H   0  0  0  0  0  0  0  0  0  0  0  0
    8.6609   -2.9059   -2.0145 H   0  0  0  0  0  0  0  0  0  0  0  0
    8.9026   -2.8360   -0.2672 H   0  0  0  0  0  0  0  0  0  0  0  0
    6.8158    2.1541   -0.1543 H   0  0  0  0  0  0  0  0  0  0  0  0
    8.2461    1.4563   -0.7091 H   0  0  0  0  0  0  0  0  0  0  0  0
  1 16  1  0  0  0  0
  1 18  1  0  0  0  0
  2 21  1  0  0  0  0
  3 15  1  0  0  0  0
  4 25  1  0  0  0  0
  5 10  2  0  0  0  0
  6 27  1  0  0  0  0
  6  4  2  0  0  0  0
  7 11  2  0  0  0  0
  7  5  1  0  0  0  0
  8 14  1  0  0  0  0
  8 30  1  0  0  0  0
  9  8  1  0  0  0  0
  9 32  1  0  0  0  0
 10  4  1  0  0  0  0
 10  1  1  0  0  0  0
 11  6  1  0  0  0  0
 12 11  1  0  0  0  0
 13 34  1  0  0  0  0
 13 12  1  0  0  0  0
 13 33  1  0  0  0  0
 14 12  2  0  0  0  0
 15  9  1  0  0  0  0
 15  2  1  0  0  0  0
 17  1  1  0  0  0  0
 19  2  1  0  0  0  0
 20  2  1  0  0  0  0
 22  3  1  0  0  0  0
 23  3  1  0  0  0  0
 24  3  1  0  0  0  0
 26  5  1  0  0  0  0
 28  7  1  0  0  0  0
 29  8  1  0  0  0  0
 31  9  1  0  0  0  0
M  END
>  <HBA>
3

>  <HBD>
1

>  <TPSA>
41.62

>  <cid>
44236

>  <dipole>
2.06

>  <excitation_energy_1>
4.409

>  <excitation_energy_2>
4.778

>  <excitation_energy_3>
4.898

>  <excitation_energy_4>
5.018

>  <homo_energy>
-5.543

>  <homo_lumo_gap>
4.977

>  <logP>
1.962

>  <lumo_energy>
-0.566

>  <melting_point>
84.08

>  <molecular_refractivity>
64.89

>  <oscillator_strength_1>
0.0385

>  <oscillator_strength_2>
0.057

>  <oscillator_strength_3>
0.0061

>  <oscillator_strength_4>
0.231

>  <open_babel_can_smiles>
CN(CC/N=C(/c1ccc(cc1)C)\N)C

>  <mulliken_charges>
34
1   -0.531675
2   -0.291259
3   -0.299657
4   -0.189418
5   -0.183013
6   -0.156637
7   -0.192535
8   -0.160695
9   -0.113539
10   0.184122
11   0.106752
12   0.433108
13   -0.777716
14   -0.476282
15   -0.373946
16   0.156515
17   0.164385
18   0.161836
19   0.143661
20   0.116846
21   0.148015
22   0.145492
23   0.148685
24   0.117826
25   0.123957
26   0.121573
27   0.155183
28   0.132452
29   0.136994
30   0.125376
31   0.120811
32   0.140843
33   0.325993
34   0.335948

>  <lowdin_charges>
34
1   -0.443806
2   -0.352919
3   -0.356702
4   -0.168503
5   -0.16822
6   -0.136643
7   -0.166451
8   -0.215919
9   -0.203291
10   0.006309
11   -0.023369
12   0.093035
13   -0.489174
14   -0.241451
15   -0.186674
16   0.157301
17   0.16225
18   0.161405
19   0.144794
20   0.120536
21   0.148077
22   0.146384
23   0.147059
24   0.121191
25   0.155532
26   0.15481
27   0.174829
28   0.15874
29   0.135791
30   0.129487
31   0.125179
32   0.148455
33   0.282117
34   0.279839

$$$$

