PCCDB-ID:  28861
public computational chemistry database (PCCDB) project, http://pccdb.org

 29 29  0  0  1  0  0  0  0  0999 V2000
    0.8072   -0.0433    0.2473 C   0  0  0  0  0  0  0  0  0  0  0  0
    5.8223    1.2489    2.8621 C   0  0  0  0  0  0  0  0  0  0  0  0
    2.3617    2.4959    0.2858 C   0  0  0  0  0  0  0  0  0  0  0  0
    4.4308    1.2653   -0.3854 C   0  0  0  0  0  0  0  0  0  0  0  0
    3.0022   -1.2854    0.6326 C   0  0  0  0  0  0  0  0  0  0  0  0
    3.7000   -0.7247    1.9047 C   0  0  0  0  0  0  0  0  0  0  0  0
    2.3110   -0.0827   -0.0666 C   0  0  2  0  0  0  0  0  0  0  0  0
    4.3974    1.7181    2.6121 C   0  0  0  0  0  0  0  0  0  0  0  0
    3.3948    0.7910    1.9236 C   0  0  1  0  0  0  0  0  0  0  0  0
    3.1177    1.1673    0.4214 C   0  0  0  0  0  0  0  0  0  0  0  0
    4.0499    2.8359    2.9556 O   0  0  0  0  0  0  0  0  0  0  0  0
    0.3338   -0.9748   -0.0845 H   0  0  0  0  0  0  0  0  0  0  0  0
    0.3019    0.7835   -0.2619 H   0  0  0  0  0  0  0  0  0  0  0  0
    0.6111    0.0561    1.3222 H   0  0  0  0  0  0  0  0  0  0  0  0
    6.4040    2.0821    3.2616 H   0  0  0  0  0  0  0  0  0  0  0  0
    6.2924    0.8747    1.9456 H   0  0  0  0  0  0  0  0  0  0  0  0
    5.8312    0.4235    3.5853 H   0  0  0  0  0  0  0  0  0  0  0  0
    2.1103    2.6933   -0.7643 H   0  0  0  0  0  0  0  0  0  0  0  0
    2.9710    3.3273    0.6523 H   0  0  0  0  0  0  0  0  0  0  0  0
    1.4321    2.4994    0.8630 H   0  0  0  0  0  0  0  0  0  0  0  0
    4.2080    1.4315   -1.4460 H   0  0  0  0  0  0  0  0  0  0  0  0
    5.0360    0.3541   -0.3177 H   0  0  0  0  0  0  0  0  0  0  0  0
    5.0466    2.1068   -0.0471 H   0  0  0  0  0  0  0  0  0  0  0  0
    2.2759   -2.0676    0.8780 H   0  0  0  0  0  0  0  0  0  0  0  0
    3.7394   -1.7485   -0.0319 H   0  0  0  0  0  0  0  0  0  0  0  0
    4.7766   -0.9134    1.8570 H   0  0  0  0  0  0  0  0  0  0  0  0
    3.3438   -1.2087    2.8204 H   0  0  0  0  0  0  0  0  0  0  0  0
    2.4146   -0.1671   -1.1569 H   0  0  0  0  0  0  0  0  0  0  0  0
    2.4526    0.9619    2.4587 H   0  0  0  0  0  0  0  0  0  0  0  0
  1 14  1  0  0  0  0
  2 15  1  0  0  0  0
  2 17  1  0  0  0  0
  3 10  1  0  0  0  0
  3 19  1  0  0  0  0
  3 20  1  0  0  0  0
  4 22  1  0  0  0  0
  4 23  1  0  0  0  0
  4 10  1  0  0  0  0
  5 24  1  0  0  0  0
  5  6  1  0  0  0  0
  6  9  1  0  0  0  0
  6 27  1  0  0  0  0
  7 28  1  6  0  0  0
  7  1  1  0  0  0  0
  7 10  1  0  0  0  0
  7  5  1  0  0  0  0
  8  2  1  0  0  0  0
  8 11  2  0  0  0  0
  9 29  1  1  0  0  0
  9  8  1  0  0  0  0
 10  9  1  0  0  0  0
 12  1  1  0  0  0  0
 13  1  1  0  0  0  0
 16  2  1  0  0  0  0
 18  3  1  0  0  0  0
 21  4  1  0  0  0  0
 25  5  1  0  0  0  0
 26  6  1  0  0  0  0
M  END
>  <HBA>
1

>  <HBD>
0

>  <TPSA>
17.07

>  <cid>
28861

>  <dipole>
2.76

>  <excitation_energy_1>
4.244

>  <excitation_energy_2>
5.956

>  <excitation_energy_3>
6.432

>  <excitation_energy_4>
6.471

>  <homo_energy>
-6.408

>  <homo_lumo_gap>
6.104

>  <logP>
2.648

>  <lumo_energy>
-0.305

>  <melting_point>
33.44

>  <molecular_refractivity>
48.01

>  <oscillator_strength_1>
0.0001

>  <oscillator_strength_2>
0.033

>  <oscillator_strength_3>
0.0038

>  <oscillator_strength_4>
0.0036

>  <open_babel_can_smiles>
CC(=O)[C@@H]1CC[C@H](C1(C)C)C

>  <mulliken_charges>
29
1   -0.462977
2   -0.541626
3   -0.457235
4   -0.473127
5   -0.287602
6   -0.292891
7   -0.071812
8   0.453226
9   -0.173683
10   0.092087
11   -0.452202
12   0.142554
13   0.149957
14   0.143813
15   0.176641
16   0.169194
17   0.170841
18   0.132648
19   0.166719
20   0.146003
21   0.146619
22   0.141362
23   0.150788
24   0.138069
25   0.138424
26   0.139604
27   0.142743
28   0.119241
29   0.152622

>  <lowdin_charges>
29
1   -0.44838
2   -0.479316
3   -0.445337
4   -0.449057
5   -0.287526
6   -0.289651
7   -0.126077
8   0.165503
9   -0.165265
10   0.016678
11   -0.244625
12   0.150211
13   0.152847
14   0.144232
15   0.17247
16   0.16749
17   0.171384
18   0.143731
19   0.163207
20   0.151884
21   0.150591
22   0.147018
23   0.152485
24   0.147981
25   0.146568
26   0.143898
27   0.149043
28   0.137343
29   0.160671

$$$$

