PCCDB-ID:  35447
public computational chemistry database (PCCDB) project, http://pccdb.org

 30 30  0  0  0  0  0  0  0  0999 V2000
    0.9232   -2.1060    0.0647 C   0  0  0  0  0  0  0  0  0  0  0  0
    2.7103   -0.3048    0.0250 C   0  0  0  0  0  0  0  0  0  0  0  0
    3.3858   -2.5886   -0.2863 C   0  0  0  0  0  0  0  0  0  0  0  0
    4.0389    0.0992   -0.0844 C   0  0  0  0  0  0  0  0  0  0  0  0
    4.7110   -2.1911   -0.3977 C   0  0  0  0  0  0  0  0  0  0  0  0
    6.4457   -0.3505   -0.4202 C   0  0  0  0  0  0  0  0  0  0  0  0
    7.5392   -1.0598   -0.7694 C   0  0  0  0  0  0  0  0  0  0  0  0
    9.7045   -1.9999   -2.5101 C   0  0  0  0  0  0  0  0  0  0  0  0
   10.7800   -1.8292   -3.5909 C   0  0  0  0  0  0  0  0  0  0  0  0
    2.3572   -1.6551   -0.0723 C   0  0  0  0  0  0  0  0  0  0  0  0
    5.0681   -0.8314   -0.3047 C   0  0  0  0  0  0  0  0  0  0  0  0
    8.8969   -0.4865   -0.8536 C   0  0  0  0  0  0  0  0  0  0  0  0
    9.8646   -0.9049   -1.5656 N   0  0  0  0  0  0  0  0  0  0  0  0
   12.0595   -1.7071   -3.0049 O   0  0  0  0  0  0  0  0  0  0  0  0
    9.1401    0.6277   -0.0933 O   0  0  0  0  0  0  0  0  0  0  0  0
    0.2325   -1.2575    0.0452 H   0  0  0  0  0  0  0  0  0  0  0  0
    0.7638   -2.6415    1.0097 H   0  0  0  0  0  0  0  0  0  0  0  0
    0.6403   -2.7909   -0.7433 H   0  0  0  0  0  0  0  0  0  0  0  0
    1.9361    0.4408    0.1892 H   0  0  0  0  0  0  0  0  0  0  0  0
    3.1386   -3.6452   -0.3623 H   0  0  0  0  0  0  0  0  0  0  0  0
    4.2857    1.1557   -0.0069 H   0  0  0  0  0  0  0  0  0  0  0  0
    5.4777   -2.9448   -0.5523 H   0  0  0  0  0  0  0  0  0  0  0  0
    6.5672    0.7162   -0.2277 H   0  0  0  0  0  0  0  0  0  0  0  0
    7.4524   -2.1079   -1.0386 H   0  0  0  0  0  0  0  0  0  0  0  0
    9.8841   -2.9545   -1.9928 H   0  0  0  0  0  0  0  0  0  0  0  0
    8.7079   -2.0457   -2.9753 H   0  0  0  0  0  0  0  0  0  0  0  0
   10.5318   -0.9479   -4.2066 H   0  0  0  0  0  0  0  0  0  0  0  0
   10.8004   -2.7048   -4.2495 H   0  0  0  0  0  0  0  0  0  0  0  0
   11.9296   -1.0663   -2.2806 H   0  0  0  0  0  0  0  0  0  0  0  0
    8.4910    0.6530    0.6271 H   0  0  0  0  0  0  0  0  0  0  0  0
  1 17  1  0  0  0  0
  2 19  1  0  0  0  0
  3 10  2  0  0  0  0
  4 21  1  0  0  0  0
  4  2  2  0  0  0  0
  5 11  2  0  0  0  0
  5  3  1  0  0  0  0
  6 11  1  0  0  0  0
  6 23  1  0  0  0  0
  7  6  2  0  0  0  0
  8 25  1  0  0  0  0
  8 13  1  0  0  0  0
  9 14  1  0  0  0  0
  9  8  1  0  0  0  0
 10  2  1  0  0  0  0
 10  1  1  0  0  0  0
 11  4  1  0  0  0  0
 12  7  1  0  0  0  0
 12 15  1  0  0  0  0
 13 12  2  0  0  0  0
 14 29  1  0  0  0  0
 15 30  1  0  0  0  0
 16  1  1  0  0  0  0
 18  1  1  0  0  0  0
 20  3  1  0  0  0  0
 22  5  1  0  0  0  0
 24  7  1  0  0  0  0
 26  8  1  0  0  0  0
 27  9  1  0  0  0  0
 28  9  1  0  0  0  0
M  END
>  <HBA>
3

>  <HBD>
2

>  <TPSA>
49.33

>  <cid>
35447

>  <dipole>
7.26

>  <excitation_energy_1>
3.987

>  <excitation_energy_2>
4.129

>  <excitation_energy_3>
4.498

>  <excitation_energy_4>
4.512

>  <homo_energy>
-6.245

>  <homo_lumo_gap>
4.378

>  <logP>
1.508

>  <lumo_energy>
-1.867

>  <melting_point>
96.87

>  <molecular_refractivity>
60.08

>  <oscillator_strength_1>
0.1724

>  <oscillator_strength_2>
0.5756

>  <oscillator_strength_3>
0.0391

>  <oscillator_strength_4>
0.0057

>  <open_babel_can_smiles>
OCC/N=C(\C=C\c1ccc(cc1)C)/O

>  <mulliken_charges>
30
1   -0.532336
2   -0.183876
3   -0.177288
4   -0.189026
5   -0.17581
6   -0.192225
7   -0.191975
8   -0.160428
9   -0.011353
10   0.181256
11   0.169248
12   0.483913
13   -0.457587
14   -0.630159
15   -0.589604
16   0.160426
17   0.170492
18   0.166372
19   0.131435
20   0.131518
21   0.1348
22   0.135222
23   0.138601
24   0.154514
25   0.149289
26   0.125654
27   0.118541
28   0.131756
29   0.406555
30   0.402074

>  <lowdin_charges>
30
1   -0.443518
2   -0.16657
3   -0.158117
4   -0.148885
5   -0.148358
6   -0.135216
7   -0.205441
8   -0.223682
9   -0.136759
10   0.01248
11   -0.013918
12   0.129176
13   -0.210482
14   -0.474355
15   -0.372468
16   0.160377
17   0.165411
18   0.164314
19   0.160164
20   0.157582
21   0.157917
22   0.161184
23   0.156271
24   0.166951
25   0.147412
26   0.133619
27   0.125232
28   0.14176
29   0.343846
30   0.354073

$$$$

