PCCDB-ID:  25485
public computational chemistry database (PCCDB) project, http://pccdb.org

 26 25  0  0  1  0  0  0  0  0999 V2000
    3.0681    0.8113    0.7886 C   0  0  0  0  0  0  0  0  0  0  0  0
    6.9686    3.3321   -0.0674 C   0  0  0  0  0  0  0  0  0  0  0  0
    8.0631    3.2721   -2.9584 C   0  0  0  0  0  0  0  0  0  0  0  0
    1.9001    3.0113    0.2672 C   0  0  0  0  0  0  0  0  0  0  0  0
    5.0849    2.0950   -1.2413 C   0  0  0  0  0  0  0  0  0  0  0  0
    2.9125    1.9651   -0.2000 C   0  0  1  0  0  0  0  0  0  0  0  0
    6.2689    3.0502   -1.3974 C   0  0  2  0  0  0  0  0  0  0  0  0
    1.8030    4.0825   -0.6519 O   0  0  0  0  0  0  0  0  0  0  0  0
    7.1246    2.4146   -2.3424 O   0  0  0  0  0  0  0  0  0  0  0  0
    4.1360    2.6941   -0.3730 O   0  0  0  0  0  0  0  0  0  0  0  0
    2.1163    0.2818    0.9124 H   0  0  0  0  0  0  0  0  0  0  0  0
    3.3874    1.1861    1.7673 H   0  0  0  0  0  0  0  0  0  0  0  0
    3.8095    0.0837    0.4435 H   0  0  0  0  0  0  0  0  0  0  0  0
    6.2507    3.7305    0.6553 H   0  0  0  0  0  0  0  0  0  0  0  0
    7.7779    4.0605   -0.1828 H   0  0  0  0  0  0  0  0  0  0  0  0
    7.3939    2.4054    0.3350 H   0  0  0  0  0  0  0  0  0  0  0  0
    8.5818    2.6798   -3.7171 H   0  0  0  0  0  0  0  0  0  0  0  0
    8.8083    3.6623   -2.2497 H   0  0  0  0  0  0  0  0  0  0  0  0
    7.5699    4.1263   -3.4495 H   0  0  0  0  0  0  0  0  0  0  0  0
    2.1929    3.3648    1.2707 H   0  0  0  0  0  0  0  0  0  0  0  0
    0.9051    2.5609    0.3458 H   0  0  0  0  0  0  0  0  0  0  0  0
    5.4473    1.1363   -0.8411 H   0  0  0  0  0  0  0  0  0  0  0  0
    4.6417    1.9026   -2.2297 H   0  0  0  0  0  0  0  0  0  0  0  0
    2.5894    1.5852   -1.1822 H   0  0  0  0  0  0  0  0  0  0  0  0
    5.8909    3.9965   -1.8212 H   0  0  0  0  0  0  0  0  0  0  0  0
    2.7243    4.3381   -0.8293 H   0  0  0  0  0  0  0  0  0  0  0  0
  1 11  1  0  0  0  0
  1 12  1  0  0  0  0
  2 16  1  0  0  0  0
  2 14  1  0  0  0  0
  3  9  1  0  0  0  0
  3 18  1  0  0  0  0
  4 21  1  0  0  0  0
  4 20  1  0  0  0  0
  5 22  1  0  0  0  0
  5 10  1  0  0  0  0
  6 24  1  6  0  0  0
  6  4  1  0  0  0  0
  6  1  1  0  0  0  0
  7 25  1  6  0  0  0
  7  5  1  0  0  0  0
  7  2  1  0  0  0  0
  8  4  1  0  0  0  0
  9  7  1  0  0  0  0
 10  6  1  0  0  0  0
 13  1  1  0  0  0  0
 15  2  1  0  0  0  0
 17  3  1  0  0  0  0
 19  3  1  0  0  0  0
 23  5  1  0  0  0  0
 26  8  1  0  0  0  0
M  END
>  <HBA>
3

>  <HBD>
1

>  <TPSA>
38.69

>  <cid>
25485

>  <dipole>
1.76

>  <excitation_energy_1>
6.51

>  <excitation_energy_2>
6.686

>  <excitation_energy_3>
6.821

>  <excitation_energy_4>
6.877

>  <homo_energy>
-6.939

>  <homo_lumo_gap>
9.064

>  <logP>
0.419

>  <lumo_energy>
2.125

>  <melting_point>
-26.51

>  <molecular_refractivity>
39.09

>  <oscillator_strength_1>
0.0103

>  <oscillator_strength_2>
0.0013

>  <oscillator_strength_3>
0.009

>  <oscillator_strength_4>
0.0077

>  <open_babel_can_smiles>
OC[C@@H](OC[C@H](OC)C)C

>  <mulliken_charges>
26
1   -0.465633
2   -0.460305
3   -0.195977
4   -0.023634
5   -0.0206
6   0.13198
7   0.136894
8   -0.626439
9   -0.47793
10   -0.512925
11   0.148763
12   0.155875
13   0.154798
14   0.164463
15   0.144657
16   0.149844
17   0.159359
18   0.135181
19   0.13096
20   0.121892
21   0.141541
22   0.133671
23   0.137668
24   0.125384
25   0.114584
26   0.395927

>  <lowdin_charges>
26
1   -0.458996
2   -0.46362
3   -0.283234
4   -0.140595
5   -0.135643
6   -0.011855
7   -0.000938
8   -0.466729
9   -0.271014
10   -0.28177
11   0.157052
12   0.155936
13   0.157561
14   0.165457
15   0.151833
16   0.154276
17   0.157293
18   0.134706
19   0.133148
20   0.127876
21   0.14851
22   0.134743
23   0.137983
24   0.132819
25   0.126239
26   0.338963

$$$$

