PCCDB-ID:  8333
public computational chemistry database (PCCDB) project, http://pccdb.org

 28 29  0  0  0  0  0  0  0  0999 V2000
   -1.4911   -0.9849    0.9674 C   0  0  0  0  0  0  0  0  0  0  0  0
    4.5143    1.3871    4.1690 C   0  0  0  0  0  0  0  0  0  0  0  0
   -0.6334   -1.4324    1.9764 C   0  0  0  0  0  0  0  0  0  0  0  0
   -0.9631   -0.3331   -0.1458 C   0  0  0  0  0  0  0  0  0  0  0  0
    3.9496    2.1835    3.1717 C   0  0  0  0  0  0  0  0  0  0  0  0
    4.5523    0.0023    4.0027 C   0  0  0  0  0  0  0  0  0  0  0  0
    0.7416   -1.2317    1.8734 C   0  0  0  0  0  0  0  0  0  0  0  0
    0.4165   -0.1321   -0.2483 C   0  0  0  0  0  0  0  0  0  0  0  0
    3.4244    1.5933    2.0227 C   0  0  0  0  0  0  0  0  0  0  0  0
    4.0280   -0.5865    2.8509 C   0  0  0  0  0  0  0  0  0  0  0  0
    1.2875   -0.5788    0.7572 C   0  0  0  0  0  0  0  0  0  0  0  0
    3.4534    0.2037    1.8468 C   0  0  0  0  0  0  0  0  0  0  0  0
    2.7986   -0.3849    0.6035 C   0  0  0  0  0  0  0  0  0  0  0  0
    3.5079   -1.6557    0.0675 C   0  0  0  0  0  0  0  0  0  0  0  0
    4.6673   -1.9169    0.2667 O   0  0  0  0  0  0  0  0  0  0  0  0
    2.7564   -2.4462   -0.7345 O   0  0  0  0  0  0  0  0  0  0  0  0
   -2.5629   -1.1409    1.0526 H   0  0  0  0  0  0  0  0  0  0  0  0
    4.9269    1.8423    5.0653 H   0  0  0  0  0  0  0  0  0  0  0  0
   -1.0381   -1.9381    2.8489 H   0  0  0  0  0  0  0  0  0  0  0  0
   -1.6199    0.0262   -0.9333 H   0  0  0  0  0  0  0  0  0  0  0  0
    3.9199    3.2640    3.2850 H   0  0  0  0  0  0  0  0  0  0  0  0
    5.0000   -0.6262    4.7680 H   0  0  0  0  0  0  0  0  0  0  0  0
    1.3983   -1.5709    2.6691 H   0  0  0  0  0  0  0  0  0  0  0  0
    0.8201    0.3894   -1.1142 H   0  0  0  0  0  0  0  0  0  0  0  0
    2.9815    2.2205    1.2519 H   0  0  0  0  0  0  0  0  0  0  0  0
    4.0975   -1.6610    2.7215 H   0  0  0  0  0  0  0  0  0  0  0  0
    2.9386    0.3409   -0.2113 H   0  0  0  0  0  0  0  0  0  0  0  0
    1.8345   -2.1288   -0.7344 H   0  0  0  0  0  0  0  0  0  0  0  0
  1 17  1  0  0  0  0
  1  3  2  0  0  0  0
  2 18  1  0  0  0  0
  3 19  1  0  0  0  0
  4  1  1  0  0  0  0
  5 21  1  0  0  0  0
  5  2  2  0  0  0  0
  6  2  1  0  0  0  0
  6 22  1  0  0  0  0
  7  3  1  0  0  0  0
  7 23  1  0  0  0  0
  8  4  2  0  0  0  0
  8 11  1  0  0  0  0
  9  5  1  0  0  0  0
 10  6  2  0  0  0  0
 11  7  2  0  0  0  0
 12  9  2  0  0  0  0
 12 10  1  0  0  0  0
 13 11  1  0  0  0  0
 13 12  1  0  0  0  0
 14 15  2  0  0  0  0
 14 13  1  0  0  0  0
 16 28  1  0  0  0  0
 16 14  1  0  0  0  0
 20  4  1  0  0  0  0
 24  8  1  0  0  0  0
 25  9  1  0  0  0  0
 26 10  1  0  0  0  0
 27 13  1  0  0  0  0
M  END
>  <HBA>
2

>  <HBD>
1

>  <TPSA>
37.3

>  <cid>
8333

>  <dipole>
4.63

>  <excitation_energy_1>
5.019

>  <excitation_energy_2>
5.136

>  <excitation_energy_3>
5.213

>  <excitation_energy_4>
5.352

>  <homo_energy>
-6.555

>  <homo_lumo_gap>
5.864

>  <logP>
2.903

>  <lumo_energy>
-0.691

>  <melting_point>
114.04

>  <molecular_refractivity>
62.47

>  <oscillator_strength_1>
0.0169

>  <oscillator_strength_2>
0.0344

>  <oscillator_strength_3>
0.025

>  <oscillator_strength_4>
0.0072

>  <open_babel_can_smiles>
OC(=O)C(c1ccccc1)c1ccccc1

>  <mulliken_charges>
28
1   -0.127096
2   -0.126219
3   -0.129245
4   -0.121268
5   -0.127913
6   -0.139128
7   -0.154371
8   -0.203988
9   -0.178043
10   -0.167359
11   0.103459
12   0.19325
13   -0.391514
14   0.61216
15   -0.440396
16   -0.574385
17   0.139655
18   0.130689
19   0.141697
20   0.140407
21   0.130787
22   0.133314
23   0.148741
24   0.138139
25   0.123275
26   0.145561
27   0.182714
28   0.417077

>  <lowdin_charges>
28
1   -0.150081
2   -0.155814
3   -0.146599
4   -0.152921
5   -0.152393
6   -0.155136
7   -0.156881
8   -0.183628
9   -0.163017
10   -0.156401
11   -0.023838
12   0.003487
13   -0.162902
14   0.187672
15   -0.233019
16   -0.350284
17   0.160954
18   0.158974
19   0.164101
20   0.164141
21   0.156532
22   0.160855
23   0.169522
24   0.159551
25   0.155596
26   0.164296
27   0.177791
28   0.359442

$$$$

