PCCDB-ID:  49611
public computational chemistry database (PCCDB) project, http://pccdb.org

 38 38  0  0  0  0  0  0  0  0999 V2000
    5.0879   -4.0908   -2.7136 C   0  0  0  0  0  0  0  0  0  0  0  0
    4.1531   -6.4416    1.6928 C   0  0  0  0  0  0  0  0  0  0  0  0
    0.2729   -3.8012   -0.2632 C   0  0  0  0  0  0  0  0  0  0  0  0
    1.6306   -4.3560    0.2013 C   0  0  0  0  0  0  0  0  0  0  0  0
    5.5070   -7.7258   -1.6380 C   0  0  0  0  0  0  0  0  0  0  0  0
    5.4900   -6.5658   -2.4085 C   0  0  0  0  0  0  0  0  0  0  0  0
    5.0725   -7.6806   -0.3141 C   0  0  0  0  0  0  0  0  0  0  0  0
   -0.1035   -4.1105   -1.7249 C   0  0  0  0  0  0  0  0  0  0  0  0
    2.8282   -3.6519   -0.4376 C   0  0  0  0  0  0  0  0  0  0  0  0
    5.0182   -5.3544   -1.8869 C   0  0  0  0  0  0  0  0  0  0  0  0
    4.5846   -6.4954    0.2466 C   0  0  0  0  0  0  0  0  0  0  0  0
    4.5338   -5.3459   -0.5647 C   0  0  0  0  0  0  0  0  0  0  0  0
   -1.3088   -6.2599   -1.6135 C   0  0  0  0  0  0  0  0  0  0  0  0
   -2.2912   -5.6875   -1.0154 N   0  0  0  0  0  0  0  0  0  0  0  0
   -1.1639   -7.6311   -1.8897 N   0  0  0  0  0  0  0  0  0  0  0  0
   -0.2147   -5.5288   -2.0548 N   0  0  0  0  0  0  0  0  0  0  0  0
    4.0933   -4.1657    0.0117 O   0  0  0  0  0  0  0  0  0  0  0  0
    5.9126   -4.1499   -3.4314 H   0  0  0  0  0  0  0  0  0  0  0  0
    5.2470   -3.2149   -2.0776 H   0  0  0  0  0  0  0  0  0  0  0  0
    4.1715   -3.9140   -3.2929 H   0  0  0  0  0  0  0  0  0  0  0  0
    4.4570   -7.3521    2.2187 H   0  0  0  0  0  0  0  0  0  0  0  0
    3.0655   -6.3461    1.7931 H   0  0  0  0  0  0  0  0  0  0  0  0
    4.5932   -5.5804    2.2055 H   0  0  0  0  0  0  0  0  0  0  0  0
    0.2566   -2.7093   -0.1305 H   0  0  0  0  0  0  0  0  0  0  0  0
   -0.5212   -4.2056    0.3720 H   0  0  0  0  0  0  0  0  0  0  0  0
    1.6860   -5.4319   -0.0125 H   0  0  0  0  0  0  0  0  0  0  0  0
    1.7120   -4.2542    1.2900 H   0  0  0  0  0  0  0  0  0  0  0  0
    5.8836   -8.6547   -2.0580 H   0  0  0  0  0  0  0  0  0  0  0  0
    5.8686   -6.5860   -3.4282 H   0  0  0  0  0  0  0  0  0  0  0  0
    5.1146   -8.5758    0.3021 H   0  0  0  0  0  0  0  0  0  0  0  0
    0.6228   -3.6751   -2.4219 H   0  0  0  0  0  0  0  0  0  0  0  0
   -1.0749   -3.6592   -1.9403 H   0  0  0  0  0  0  0  0  0  0  0  0
    2.8375   -2.5931   -0.1569 H   0  0  0  0  0  0  0  0  0  0  0  0
    2.7727   -3.7042   -1.5312 H   0  0  0  0  0  0  0  0  0  0  0  0
   -3.0607   -6.3428   -0.8697 H   0  0  0  0  0  0  0  0  0  0  0  0
   -2.0131   -8.1633   -1.7431 H   0  0  0  0  0  0  0  0  0  0  0  0
   -0.7624   -7.8277   -2.8012 H   0  0  0  0  0  0  0  0  0  0  0  0
    0.6557   -6.0466   -2.0410 H   0  0  0  0  0  0  0  0  0  0  0  0
  1 19  1  0  0  0  0
  1 10  1  0  0  0  0
  2 22  1  0  0  0  0
  2 23  1  0  0  0  0
  2 21  1  0  0  0  0
  3 24  1  0  0  0  0
  3  4  1  0  0  0  0
  3 25  1  0  0  0  0
  4 27  1  0  0  0  0
  5  7  2  0  0  0  0
  6 10  2  0  0  0  0
  6  5  1  0  0  0  0
  7 11  1  0  0  0  0
  7 30  1  0  0  0  0
  8  3  1  0  0  0  0
  9 33  1  0  0  0  0
  9 17  1  0  0  0  0
  9  4  1  0  0  0  0
 10 12  1  0  0  0  0
 11  2  1  0  0  0  0
 12 17  1  0  0  0  0
 12 11  2  0  0  0  0
 13 14  1  0  0  0  0
 14 35  1  0  0  0  0
 15 36  1  0  0  0  0
 15 13  2  0  0  0  0
 16 38  1  0  0  0  0
 16  8  1  0  0  0  0
 16 13  1  0  0  0  0
 18  1  1  0  0  0  0
 20  1  1  0  0  0  0
 26  4  1  0  0  0  0
 28  5  1  0  0  0  0
 29  6  1  0  0  0  0
 31  8  1  0  0  0  0
 32  8  1  0  0  0  0
 34  9  1  0  0  0  0
 37 15  1  0  0  0  0
M  RAD  1  14   2
M  END
>  <HBA>
4

>  <HBD>
2

>  <TPSA>
73.63

>  <cid>
49611

>  <dipole>
2.74

>  <excitation_energy_1>
5.085

>  <excitation_energy_2>
5.17

>  <excitation_energy_3>
5.395

>  <excitation_energy_4>
5.625

>  <homo_energy>
-6.003

>  <homo_lumo_gap>
6.185

>  <logP>
3.136

>  <lumo_energy>
0.182

>  <melting_point>
141.8

>  <molecular_refractivity>
71.19

>  <oscillator_strength_1>
0.0077

>  <oscillator_strength_2>
0.0015

>  <oscillator_strength_3>
0.0079

>  <oscillator_strength_4>
0.0031

>  <open_babel_can_smiles>
[NH]C(=[NH2])NCCCCOc1c(C)cccc1C

>  <mulliken_charges>
38
1   -0.538086
2   -0.520171
3   -0.274247
4   -0.287937
5   -0.117398
6   -0.205898
7   -0.205504
8   -0.132275
9   -0.032994
10   0.163021
11   0.150027
12   0.216064
13   0.588777
14   -0.647841
15   -0.756894
16   -0.594668
17   -0.539075
18   0.156194
19   0.174831
20   0.155936
21   0.146324
22   0.162781
23   0.171324
24   0.125938
25   0.178259
26   0.138181
27   0.149092
28   0.123021
29   0.119026
30   0.120641
31   0.133234
32   0.179193
33   0.145399
34   0.130592
35   0.263307
36   0.318558
37   0.322073
38   0.321196

>  <lowdin_charges>
38
1   -0.445584
2   -0.440169
3   -0.290155
4   -0.292965
5   -0.167094
6   -0.168814
7   -0.170787
8   -0.200429
9   -0.122673
10   -0.026365
11   -0.01825
12   0.073111
13   0.127601
14   -0.486089
15   -0.512842
16   -0.30884
17   -0.234616
18   0.159318
19   0.16683
20   0.154579
21   0.153649
22   0.158628
23   0.167276
24   0.140272
25   0.168679
26   0.141087
27   0.149737
28   0.155982
29   0.15185
30   0.154539
31   0.140815
32   0.16993
33   0.145965
34   0.132258
35   0.24702
36   0.275111
37   0.276757
38   0.274681

$$$$

