PCCDB-ID:  41677
public computational chemistry database (PCCDB) project, http://pccdb.org

 21 21  0  0  1  0  0  0  0  0999 V2000
    5.2959    1.0250   -1.7378 C   0  0  0  0  0  0  0  0  0  0  0  0
    4.5339    0.5372   -0.9372 C   0  0  0  0  0  0  0  0  0  0  0  0
    3.1008   -3.8642    1.2695 C   0  0  0  0  0  0  0  0  0  0  0  0
    2.8471   -2.7268    2.2269 C   0  0  0  0  0  0  0  0  0  0  0  0
    3.7114   -3.3742   -0.0521 C   0  0  0  0  0  0  0  0  0  0  0  0
    3.6260   -0.0703    0.0363 C   0  0  0  0  0  0  0  0  0  0  0  0
    3.3747   -1.5063    2.0843 C   0  0  0  0  0  0  0  0  0  0  0  0
    4.8281   -2.3534    0.2042 C   0  0  0  0  0  0  0  0  0  0  0  0
    4.3154   -1.1142    0.9674 C   0  0  1  0  0  0  0  0  0  0  0  0
    5.9593    1.4667   -2.4459 H   0  0  0  0  0  0  0  0  0  0  0  0
    2.1630   -4.4038    1.0778 H   0  0  0  0  0  0  0  0  0  0  0  0
    3.7689   -4.5990    1.7472 H   0  0  0  0  0  0  0  0  0  0  0  0
    2.1961   -2.9298    3.0767 H   0  0  0  0  0  0  0  0  0  0  0  0
    2.9234   -2.9128   -0.6626 H   0  0  0  0  0  0  0  0  0  0  0  0
    4.0950   -4.2226   -0.6313 H   0  0  0  0  0  0  0  0  0  0  0  0
    2.7893   -0.5504   -0.4882 H   0  0  0  0  0  0  0  0  0  0  0  0
    3.1799    0.7194    0.6564 H   0  0  0  0  0  0  0  0  0  0  0  0
    3.1245   -0.7264    2.8038 H   0  0  0  0  0  0  0  0  0  0  0  0
    5.2967   -2.0402   -0.7358 H   0  0  0  0  0  0  0  0  0  0  0  0
    5.6133   -2.8328    0.8044 H   0  0  0  0  0  0  0  0  0  0  0  0
    5.1820   -0.6038    1.4108 H   0  0  0  0  0  0  0  0  0  0  0  0
  1  2  3  0  0  0  0
  2  6  1  0  0  0  0
  3 12  1  0  0  0  0
  3  4  1  0  0  0  0
  4 13  1  0  0  0  0
  5  8  1  0  0  0  0
  5  3  1  0  0  0  0
  6 17  1  0  0  0  0
  6  9  1  0  0  0  0
  7  4  2  0  0  0  0
  7 18  1  0  0  0  0
  8 20  1  0  0  0  0
  8  9  1  0  0  0  0
  9 21  1  1  0  0  0
  9  7  1  0  0  0  0
 10  1  1  0  0  0  0
 11  3  1  0  0  0  0
 14  5  1  0  0  0  0
 15  5  1  0  0  0  0
 16  6  1  0  0  0  0
 19  8  1  0  0  0  0
M  END
>  <HBA>
0

>  <HBD>
0

>  <TPSA>
0.0

>  <cid>
41677

>  <dipole>
0.69

>  <excitation_energy_1>
5.94

>  <excitation_energy_2>
6.407

>  <excitation_energy_3>
6.481

>  <excitation_energy_4>
6.515

>  <homo_energy>
-6.506

>  <homo_lumo_gap>
7.181

>  <logP>
2.366

>  <lumo_energy>
0.675

>  <melting_point>
21.16

>  <molecular_refractivity>
40.95

>  <oscillator_strength_1>
0.0092

>  <oscillator_strength_2>
0.0034

>  <oscillator_strength_3>
0.0187

>  <oscillator_strength_4>
0.0724

>  <open_babel_can_smiles>
C(C#C)[C@@H]1CCCC=C1

>  <mulliken_charges>
21
1   -0.524278
2   0.365924
3   -0.296372
4   -0.107893
5   -0.270659
6   -0.411142
7   -0.109423
8   -0.275691
9   -0.11804
10   0.185137
11   0.141105
12   0.14577
13   0.121475
14   0.137565
15   0.133503
16   0.171794
17   0.16682
18   0.118948
19   0.14845
20   0.13523
21   0.141777

>  <lowdin_charges>
21
1   -0.268883
2   -0.039164
3   -0.278364
4   -0.170178
5   -0.278543
6   -0.266603
7   -0.181345
8   -0.280625
9   -0.120444
10   0.203729
11   0.150238
12   0.150489
13   0.151874
14   0.142133
15   0.146701
16   0.167495
17   0.168447
18   0.150632
19   0.154063
20   0.145703
21   0.152644

$$$$

