PCCDB-ID:  61010
public computational chemistry database (PCCDB) project, http://pccdb.org

 24 24  0  0  0  0  0  0  0  0999 V2000
   -1.9841   -0.8638    0.0464 C   0  0  0  0  0  0  0  0  0  0  0  0
   -1.2646   -0.7054    1.2318 C   0  0  0  0  0  0  0  0  0  0  0  0
   -1.3184   -0.7866   -1.1785 C   0  0  0  0  0  0  0  0  0  0  0  0
    3.0810   -1.4979   -0.1377 C   0  0  0  0  0  0  0  0  0  0  0  0
    0.1109   -0.4727    1.1902 C   0  0  0  0  0  0  0  0  0  0  0  0
    0.0567   -0.5536   -1.2147 C   0  0  0  0  0  0  0  0  0  0  0  0
    2.2895   -0.1758   -0.0752 C   0  0  0  0  0  0  0  0  0  0  0  0
    4.5853   -1.2527   -0.1862 C   0  0  0  0  0  0  0  0  0  0  0  0
    5.5350   -3.0733   -1.3818 C   0  0  0  0  0  0  0  0  0  0  0  0
    0.7913   -0.3941   -0.0319 C   0  0  0  0  0  0  0  0  0  0  0  0
    5.1715   -2.6537   -2.4539 O   0  0  0  0  0  0  0  0  0  0  0  0
    5.3240   -2.5012   -0.1856 O   0  0  0  0  0  0  0  0  0  0  0  0
   -3.0556   -1.0425    0.0764 H   0  0  0  0  0  0  0  0  0  0  0  0
   -1.7742   -0.7593    2.1905 H   0  0  0  0  0  0  0  0  0  0  0  0
   -1.8704   -0.9037   -2.1074 H   0  0  0  0  0  0  0  0  0  0  0  0
    2.7816   -2.0651   -1.0262 H   0  0  0  0  0  0  0  0  0  0  0  0
    2.8418   -2.1156    0.7365 H   0  0  0  0  0  0  0  0  0  0  0  0
    0.6638   -0.3442    2.1186 H   0  0  0  0  0  0  0  0  0  0  0  0
    0.5675   -0.4891   -2.1733 H   0  0  0  0  0  0  0  0  0  0  0  0
    2.5475    0.4375   -0.9487 H   0  0  0  0  0  0  0  0  0  0  0  0
    2.6036    0.3928    0.8103 H   0  0  0  0  0  0  0  0  0  0  0  0
    4.9340   -0.7295    0.7081 H   0  0  0  0  0  0  0  0  0  0  0  0
    4.8637   -0.6786   -1.0741 H   0  0  0  0  0  0  0  0  0  0  0  0
    6.1073   -4.0020   -1.2339 H   0  0  0  0  0  0  0  0  0  0  0  0
  1 13  1  0  0  0  0
  1  2  2  0  0  0  0
  2 14  1  0  0  0  0
  3  1  1  0  0  0  0
  4  7  1  0  0  0  0
  4 17  1  0  0  0  0
  5  2  1  0  0  0  0
  5 18  1  0  0  0  0
  6  3  2  0  0  0  0
  6 10  1  0  0  0  0
  7 10  1  0  0  0  0
  7 21  1  0  0  0  0
  8 12  1  0  0  0  0
  8  4  1  0  0  0  0
  8 22  1  0  0  0  0
  9 24  1  0  0  0  0
  9 12  1  0  0  0  0
 10  5  2  0  0  0  0
 11  9  2  0  0  0  0
 15  3  1  0  0  0  0
 16  4  1  0  0  0  0
 19  6  1  0  0  0  0
 20  7  1  0  0  0  0
 23  8  1  0  0  0  0
M  END
>  <HBA>
2

>  <HBD>
0

>  <TPSA>
26.3

>  <cid>
61010

>  <dipole>
1.8

>  <excitation_energy_1>
5.306

>  <excitation_energy_2>
5.798

>  <excitation_energy_3>
5.852

>  <excitation_energy_4>
6.03

>  <homo_energy>
-6.555

>  <homo_lumo_gap>
6.534

>  <logP>
2.428

>  <lumo_energy>
-0.022

>  <melting_point>
-10.07

>  <molecular_refractivity>
47.5

>  <oscillator_strength_1>
0.0005

>  <oscillator_strength_2>
0.0039

>  <oscillator_strength_3>
0.0532

>  <oscillator_strength_4>
0.001

>  <open_babel_can_smiles>
O=COCCCc1ccccc1

>  <mulliken_charges>
24
1   -0.130711
2   -0.127748
3   -0.128222
4   -0.273824
5   -0.180857
6   -0.179353
7   -0.36049
8   -0.052841
9   0.389246
10   0.172568
11   -0.422101
12   -0.416885
13   0.128866
14   0.128903
15   0.13035
16   0.167685
17   0.152294
18   0.121289
19   0.127754
20   0.150016
21   0.141989
22   0.15443
23   0.17013
24   0.137513

>  <lowdin_charges>
24
1   -0.15774
2   -0.154951
3   -0.15442
4   -0.284391
5   -0.168989
6   -0.166533
7   -0.273463
8   -0.135376
9   0.089188
10   -1.2e-05
11   -0.25537
12   -0.184444
13   0.155612
14   0.157261
15   0.158255
16   0.159879
17   0.152256
18   0.153713
19   0.156316
20   0.152527
21   0.148509
22   0.154195
23   0.158805
24   0.139172

$$$$

