PCCDB-ID:  36698
public computational chemistry database (PCCDB) project, http://pccdb.org

 30 32  0  0  1  0  0  0  0  0999 V2000
   -3.5834    0.0489    0.9526 C   0  0  0  0  0  0  0  0  0  0  0  0
   -3.2241   -1.2927    0.8398 C   0  0  0  0  0  0  0  0  0  0  0  0
    3.4563   -1.1126    0.5493 C   0  0  0  0  0  0  0  0  0  0  0  0
   -2.7817    1.0254    0.3614 C   0  0  0  0  0  0  0  0  0  0  0  0
   -2.0673   -1.6476    0.1435 C   0  0  0  0  0  0  0  0  0  0  0  0
    2.3022   -1.4949   -0.1267 C   0  0  0  0  0  0  0  0  0  0  0  0
   -0.7457    1.7474   -0.9542 C   0  0  0  0  0  0  0  0  0  0  0  0
    0.5854    1.9517   -0.2137 C   0  0  0  0  0  0  0  0  0  0  0  0
    3.5771    0.2252    0.9104 C   0  0  0  0  0  0  0  0  0  0  0  0
   -1.6158    0.6825   -0.3310 C   0  0  0  0  0  0  0  0  0  0  0  0
   -1.2485   -0.6730   -0.4333 C   0  0  0  0  0  0  0  0  0  0  0  0
    1.2966   -0.5685   -0.4257 C   0  0  0  0  0  0  0  0  0  0  0  0
    1.5229    0.7665   -0.0133 C   0  0  0  0  0  0  0  0  0  0  0  0
    0.0290   -1.0353   -1.1922 C   0  0  1  0  0  0  0  0  0  0  0  0
    0.0147   -2.4439   -1.5877 N   0  0  0  0  0  0  0  0  0  0  0  0
    2.6420    1.1348    0.6367 N   0  0  0  0  0  0  0  0  0  0  0  0
   -4.4863    0.3345    1.4858 H   0  0  0  0  0  0  0  0  0  0  0  0
   -3.8463   -2.0667    1.2814 H   0  0  0  0  0  0  0  0  0  0  0  0
    4.2370   -1.8302    0.7841 H   0  0  0  0  0  0  0  0  0  0  0  0
   -3.0653    2.0733    0.4319 H   0  0  0  0  0  0  0  0  0  0  0  0
   -1.8221   -2.6975    0.0261 H   0  0  0  0  0  0  0  0  0  0  0  0
    2.1848   -2.5296   -0.4319 H   0  0  0  0  0  0  0  0  0  0  0  0
   -0.5541    1.5173   -2.0113 H   0  0  0  0  0  0  0  0  0  0  0  0
   -1.2804    2.7041   -0.9491 H   0  0  0  0  0  0  0  0  0  0  0  0
    0.3726    2.3493    0.7872 H   0  0  0  0  0  0  0  0  0  0  0  0
    1.1657    2.7346   -0.7185 H   0  0  0  0  0  0  0  0  0  0  0  0
    4.4586    0.5860    1.4390 H   0  0  0  0  0  0  0  0  0  0  0  0
    0.0093   -0.4804   -2.1389 H   0  0  0  0  0  0  0  0  0  0  0  0
    0.1584   -3.0519   -0.7835 H   0  0  0  0  0  0  0  0  0  0  0  0
    0.7788   -2.6328   -2.2327 H   0  0  0  0  0  0  0  0  0  0  0  0
  1 17  1  0  0  0  0
  2  1  1  0  0  0  0
  2 18  1  0  0  0  0
  3 19  1  0  0  0  0
  3  9  2  0  0  0  0
  4 20  1  0  0  0  0
  4  1  2  0  0  0  0
  5  2  2  0  0  0  0
  6  3  1  0  0  0  0
  7 24  1  0  0  0  0
  7 10  1  0  0  0  0
  7  8  1  0  0  0  0
  8 13  1  0  0  0  0
  8 25  1  0  0  0  0
  9 27  1  0  0  0  0
 10  4  1  0  0  0  0
 11 10  2  0  0  0  0
 11  5  1  0  0  0  0
 12  6  2  0  0  0  0
 12 13  1  0  0  0  0
 13 16  2  0  0  0  0
 14 28  1  6  0  0  0
 14 11  1  0  0  0  0
 14 12  1  0  0  0  0
 15 14  1  0  0  0  0
 15 29  1  0  0  0  0
 16  9  1  0  0  0  0
 21  5  1  0  0  0  0
 22  6  1  0  0  0  0
 23  7  1  0  0  0  0
 26  8  1  0  0  0  0
 30 15  1  0  0  0  0
M  END
>  <HBA>
2

>  <HBD>
1

>  <TPSA>
38.91

>  <cid>
36698

>  <dipole>
1.53

>  <excitation_energy_1>
4.71

>  <excitation_energy_2>
4.958

>  <excitation_energy_3>
5.047

>  <excitation_energy_4>
5.176

>  <homo_energy>
-6.327

>  <homo_lumo_gap>
5.761

>  <logP>
2.929

>  <lumo_energy>
-0.566

>  <melting_point>
139.55

>  <molecular_refractivity>
64.22

>  <oscillator_strength_1>
0.006

>  <oscillator_strength_2>
0.0331

>  <oscillator_strength_3>
0.0027

>  <oscillator_strength_4>
0.0337

>  <open_babel_can_smiles>
N[C@H]1c2ccccc2CCc2c1cccn2

>  <mulliken_charges>
30
1   -0.124105
2   -0.133365
3   -0.140999
4   -0.193501
5   -0.180736
6   -0.163163
7   -0.370248
8   -0.305411
9   0.040105
10   0.130203
11   0.1456
12   0.130288
13   0.237339
14   -0.169347
15   -0.712307
16   -0.470295
17   0.126487
18   0.126131
19   0.132727
20   0.121967
21   0.127983
22   0.108904
23   0.149116
24   0.145395
25   0.168102
26   0.1616
27   0.137727
28   0.162628
29   0.302778
30   0.308398

>  <lowdin_charges>
30
1   -0.15803
2   -0.160694
3   -0.18319
4   -0.165454
5   -0.160168
6   -0.149031
7   -0.278236
8   -0.277267
9   -0.090948
10   -0.011636
11   -0.010216
12   -0.042824
13   0.046486
14   -0.068127
15   -0.534012
16   -0.156495
17   0.15686
18   0.157702
19   0.163066
20   0.152491
21   0.157488
22   0.14999
23   0.147573
24   0.154928
25   0.16442
26   0.164481
27   0.1552
28   0.1596
29   0.254682
30   0.261359

$$$$

