PCCDB-ID:  69206
public computational chemistry database (PCCDB) project, http://pccdb.org

 18 18  0  0  0  0  0  0  0  0999 V2000
   -1.3862   -0.0791   -0.0585 C   0  0  0  0  0  0  0  0  0  0  0  0
   -0.7421    1.1602   -0.0446 C   0  0  0  0  0  0  0  0  0  0  0  0
    0.7652   -1.1669    0.0525 C   0  0  0  0  0  0  0  0  0  0  0  0
   -0.6345   -1.2589    0.0068 C   0  0  0  0  0  0  0  0  0  0  0  0
    0.6460    1.2604    0.0066 C   0  0  0  0  0  0  0  0  0  0  0  0
    1.4095    0.0719    0.0416 C   0  0  0  0  0  0  0  0  0  0  0  0
   -1.2659   -2.5157    0.0806 N   0  0  0  0  0  0  0  0  0  0  0  0
    1.3530    2.4964   -0.0320 N   0  0  0  0  0  0  0  0  0  0  0  0
    2.8072    0.1933    0.1111 N   0  0  0  0  0  0  0  0  0  0  0  0
   -2.4717   -0.1269   -0.0956 H   0  0  0  0  0  0  0  0  0  0  0  0
   -1.3374    2.0711   -0.0789 H   0  0  0  0  0  0  0  0  0  0  0  0
    1.3633   -2.0762    0.0937 H   0  0  0  0  0  0  0  0  0  0  0  0
   -2.1890   -2.5275   -0.3381 H   0  0  0  0  0  0  0  0  0  0  0  0
   -0.7065   -3.2747   -0.2921 H   0  0  0  0  0  0  0  0  0  0  0  0
    1.9641    2.5984    0.7778 H   0  0  0  0  0  0  0  0  0  0  0  0
    0.7186    3.2894   -0.0528 H   0  0  0  0  0  0  0  0  0  0  0  0
    3.3017   -0.6564   -0.1368 H   0  0  0  0  0  0  0  0  0  0  0  0
    3.1435    0.9808   -0.4378 H   0  0  0  0  0  0  0  0  0  0  0  0
  1  2  2  0  0  0  0
  1  4  1  0  0  0  0
  2  5  1  0  0  0  0
  3 12  1  0  0  0  0
  4  3  2  0  0  0  0
  4  7  1  0  0  0  0
  5  6  2  0  0  0  0
  6  3  1  0  0  0  0
  6  9  1  0  0  0  0
  8  5  1  0  0  0  0
  8 15  1  0  0  0  0
 10  1  1  0  0  0  0
 11  2  1  0  0  0  0
 13  7  1  0  0  0  0
 14  7  1  0  0  0  0
 16  8  1  0  0  0  0
 17  9  1  0  0  0  0
 18  9  1  0  0  0  0
M  END
>  <HBA>
3

>  <HBD>
3

>  <TPSA>
78.06

>  <cid>
69206

>  <dipole>
1.31

>  <excitation_energy_1>
4.092

>  <excitation_energy_2>
4.25

>  <excitation_energy_3>
4.326

>  <excitation_energy_4>
4.629

>  <homo_energy>
-4.542

>  <homo_lumo_gap>
5.203

>  <logP>
2.177

>  <lumo_energy>
0.661

>  <melting_point>
152.79

>  <molecular_refractivity>
39.66

>  <oscillator_strength_1>
0.0075

>  <oscillator_strength_2>
0.0362

>  <oscillator_strength_3>
0.0362

>  <oscillator_strength_4>
0.0041

>  <open_babel_can_smiles>
Nc1ccc(c(c1)N)N

>  <mulliken_charges>
18
1   -0.191067
2   -0.190048
3   -0.23719
4   0.299792
5   0.239854
6   0.274732
7   -0.788923
8   -0.811553
9   -0.804956
10   0.105885
11   0.109046
12   0.100157
13   0.312319
14   0.310593
15   0.319196
16   0.310963
17   0.312337
18   0.328861

>  <lowdin_charges>
18
1   -0.21989
2   -0.180218
3   -0.239848
4   0.052921
5   -0.007815
6   0.044267
7   -0.49875
8   -0.517986
9   -0.502384
10   0.147238
11   0.149626
12   0.146568
13   0.26961
14   0.270235
15   0.270392
16   0.267525
17   0.270313
18   0.278198

$$$$

