PCCDB-ID:  30767
public computational chemistry database (PCCDB) project, http://pccdb.org

 19 20  0  0  0  0  0  0  0  0999 V2000
    2.4853    0.8921   -0.1008 C   0  0  0  0  0  0  0  0  0  0  0  0
    2.5865   -0.5182   -0.0149 C   0  0  0  0  0  0  0  0  0  0  0  0
   -2.3747    0.5503    0.0478 C   0  0  0  0  0  0  0  0  0  0  0  0
    1.2497    1.4960   -0.1061 C   0  0  0  0  0  0  0  0  0  0  0  0
   -1.2239    1.3139   -0.0297 C   0  0  0  0  0  0  0  0  0  0  0  0
    1.4586   -1.3049    0.0636 C   0  0  0  0  0  0  0  0  0  0  0  0
   -2.2836   -0.8481    0.1308 C   0  0  0  0  0  0  0  0  0  0  0  0
    0.0629    0.7173   -0.0264 C   0  0  0  0  0  0  0  0  0  0  0  0
    0.1693   -0.7107    0.0593 C   0  0  0  0  0  0  0  0  0  0  0  0
   -1.0430   -1.4678    0.1367 C   0  0  0  0  0  0  0  0  0  0  0  0
   -0.8981   -2.8931    0.2202 N   0  0  0  0  0  0  0  0  0  0  0  0
   -1.9460   -3.5241    0.2873 O   0  0  0  0  0  0  0  0  0  0  0  0
    3.3877    1.4939   -0.1621 H   0  0  0  0  0  0  0  0  0  0  0  0
    3.5683   -0.9839   -0.0106 H   0  0  0  0  0  0  0  0  0  0  0  0
   -3.3490    1.0306    0.0442 H   0  0  0  0  0  0  0  0  0  0  0  0
    1.1619    2.5778   -0.1703 H   0  0  0  0  0  0  0  0  0  0  0  0
   -1.2935    2.3973   -0.0938 H   0  0  0  0  0  0  0  0  0  0  0  0
    1.5345   -2.3838    0.1296 H   0  0  0  0  0  0  0  0  0  0  0  0
   -3.1674   -1.4749    0.1924 H   0  0  0  0  0  0  0  0  0  0  0  0
  1  2  1  0  0  0  0
  2 14  1  0  0  0  0
  2  6  2  0  0  0  0
  3  7  2  0  0  0  0
  4  1  2  0  0  0  0
  4  8  1  0  0  0  0
  5  8  2  0  0  0  0
  5  3  1  0  0  0  0
  6 18  1  0  0  0  0
  7 10  1  0  0  0  0
  7 19  1  0  0  0  0
  8  9  1  0  0  0  0
  9  6  1  0  0  0  0
  9 10  2  0  0  0  0
 10 11  1  0  0  0  0
 11 12  2  0  0  0  0
 13  1  1  0  0  0  0
 15  3  1  0  0  0  0
 16  4  1  0  0  0  0
 17  5  1  0  0  0  0
M  END
>  <HBA>
2

>  <HBD>
0

>  <TPSA>
29.43

>  <cid>
30767

>  <dipole>
3.93

>  <excitation_energy_1>
1.391

>  <excitation_energy_2>
3.063

>  <excitation_energy_3>
3.589

>  <excitation_energy_4>
3.929

>  <homo_energy>
-5.837

>  <homo_lumo_gap>
3.067

>  <logP>
3.238

>  <lumo_energy>
-2.77

>  <melting_point>
75.74

>  <molecular_refractivity>
49.4

>  <oscillator_strength_1>
0.0002

>  <oscillator_strength_2>
0.0828

>  <oscillator_strength_3>
0.0499

>  <oscillator_strength_4>
0.0005

>  <open_babel_can_smiles>
O=Nc1cccc2c1cccc2

>  <mulliken_charges>
19
1   -0.128455
2   -0.133642
3   -0.145476
4   -0.192061
5   -0.169817
6   -0.176162
7   -0.12683
8   0.121987
9   0.103796
10   0.16466
11   -0.060859
12   -0.295791
13   0.137955
14   0.140508
15   0.14606
16   0.136925
17   0.144078
18   0.167539
19   0.165586

>  <lowdin_charges>
19
1   -0.153853
2   -0.145072
3   -0.156605
4   -0.150401
5   -0.121509
6   -0.15025
7   -0.126047
8   -0.002819
9   0.008675
10   -0.026642
11   0.040786
12   -0.184507
13   0.163137
14   0.163227
15   0.165586
16   0.158977
17   0.162591
18   0.175258
19   0.17947

$$$$

