PCCDB-ID:  14062
public computational chemistry database (PCCDB) project, http://pccdb.org

 29 28  0  0  0  0  0  0  0  0999 V2000
    3.0891    1.9401    0.1736 C   0  0  0  0  0  0  0  0  0  0  0  0
    7.1143   -1.9280   -3.9456 C   0  0  0  0  0  0  0  0  0  0  0  0
    9.2292   -0.6662   -3.4819 C   0  0  0  0  0  0  0  0  0  0  0  0
    8.3010   -2.2149   -1.7441 C   0  0  0  0  0  0  0  0  0  0  0  0
    3.7741    0.6753   -0.3538 C   0  0  0  0  0  0  0  0  0  0  0  0
    5.1099    0.9559   -1.0540 C   0  0  0  0  0  0  0  0  0  0  0  0
    5.8036   -0.3088   -1.5803 C   0  0  0  0  0  0  0  0  0  0  0  0
    7.1417   -0.0070   -2.2709 C   0  0  0  0  0  0  0  0  0  0  0  0
    7.9309   -1.2103   -2.8529 C   0  0  0  0  0  0  0  0  0  0  0  0
    2.1397    1.7052    0.6686 H   0  0  0  0  0  0  0  0  0  0  0  0
    2.8746    2.6444   -0.6398 H   0  0  0  0  0  0  0  0  0  0  0  0
    3.7239    2.4607    0.9014 H   0  0  0  0  0  0  0  0  0  0  0  0
    7.7021   -2.7340   -4.4018 H   0  0  0  0  0  0  0  0  0  0  0  0
    6.8257   -1.2331   -4.7444 H   0  0  0  0  0  0  0  0  0  0  0  0
    6.1986   -2.3771   -3.5452 H   0  0  0  0  0  0  0  0  0  0  0  0
    9.8285   -1.4772   -3.9139 H   0  0  0  0  0  0  0  0  0  0  0  0
    9.8483   -0.1551   -2.7340 H   0  0  0  0  0  0  0  0  0  0  0  0
    9.0115    0.0517   -4.2826 H   0  0  0  0  0  0  0  0  0  0  0  0
    8.9240   -3.0234   -2.1463 H   0  0  0  0  0  0  0  0  0  0  0  0
    7.4140   -2.6764   -1.2961 H   0  0  0  0  0  0  0  0  0  0  0  0
    8.8674   -1.7271   -0.9405 H   0  0  0  0  0  0  0  0  0  0  0  0
    3.1006    0.1582   -1.0521 H   0  0  0  0  0  0  0  0  0  0  0  0
    3.9421   -0.0234    0.4783 H   0  0  0  0  0  0  0  0  0  0  0  0
    5.7821    1.4763   -0.3553 H   0  0  0  0  0  0  0  0  0  0  0  0
    4.9419    1.6542   -1.8877 H   0  0  0  0  0  0  0  0  0  0  0  0
    5.1256   -0.8207   -2.2769 H   0  0  0  0  0  0  0  0  0  0  0  0
    5.9596   -1.0007   -0.7414 H   0  0  0  0  0  0  0  0  0  0  0  0
    7.7941    0.5150   -1.5546 H   0  0  0  0  0  0  0  0  0  0  0  0
    6.9600    0.7088   -3.0870 H   0  0  0  0  0  0  0  0  0  0  0  0
  1 10  1  0  0  0  0
  1 12  1  0  0  0  0
  2 15  1  0  0  0  0
  2  9  1  0  0  0  0
  3  9  1  0  0  0  0
  3 17  1  0  0  0  0
  4 20  1  0  0  0  0
  4 21  1  0  0  0  0
  5  1  1  0  0  0  0
  5 23  1  0  0  0  0
  6 24  1  0  0  0  0
  6  5  1  0  0  0  0
  7  6  1  0  0  0  0
  7 27  1  0  0  0  0
  8  7  1  0  0  0  0
  8 28  1  0  0  0  0
  9  8  1  0  0  0  0
  9  4  1  0  0  0  0
 11  1  1  0  0  0  0
 13  2  1  0  0  0  0
 14  2  1  0  0  0  0
 16  3  1  0  0  0  0
 18  3  1  0  0  0  0
 19  4  1  0  0  0  0
 22  5  1  0  0  0  0
 25  6  1  0  0  0  0
 26  7  1  0  0  0  0
 29  8  1  0  0  0  0
M  END
>  <HBA>
0

>  <HBD>
0

>  <TPSA>
0.0

>  <cid>
14062

>  <dipole>
0.06

>  <excitation_energy_1>
7.545

>  <excitation_energy_2>
7.842

>  <excitation_energy_3>
7.908

>  <excitation_energy_4>
7.942

>  <homo_energy>
-7.968

>  <homo_lumo_gap>
10.098

>  <logP>
3.613

>  <lumo_energy>
2.131

>  <melting_point>
-9.87

>  <molecular_refractivity>
45.12

>  <oscillator_strength_1>
0.0378

>  <oscillator_strength_2>
0.0472

>  <oscillator_strength_3>
0.0038

>  <oscillator_strength_4>
0.0523

>  <open_babel_can_smiles>
CCCCCC(C)(C)C

>  <mulliken_charges>
29
1   -0.441249
2   -0.444715
3   -0.440645
4   -0.44504
5   -0.246977
6   -0.246249
7   -0.264308
8   -0.247772
9   0.102389
10   0.140937
11   0.140909
12   0.140917
13   0.136355
14   0.135715
15   0.141811
16   0.135747
17   0.136402
18   0.136376
19   0.13635
20   0.141943
21   0.135735
22   0.129445
23   0.129382
24   0.125982
25   0.126025
26   0.130853
27   0.130901
28   0.121451
29   0.121329

>  <lowdin_charges>
29
1   -0.446368
2   -0.446285
3   -0.444389
4   -0.44687
5   -0.27444
6   -0.275568
7   -0.281076
8   -0.276289
9   0.013895
10   0.148736
11   0.146704
12   0.147262
13   0.147636
14   0.146475
15   0.147369
16   0.146552
17   0.146883
18   0.146244
19   0.147507
20   0.147826
21   0.146664
22   0.139729
23   0.138898
24   0.138133
25   0.137356
26   0.140755
27   0.139987
28   0.138763
29   0.137911

$$$$

