PCCDB-ID:  44784
public computational chemistry database (PCCDB) project, http://pccdb.org

 33 32  0  0  1  0  0  0  0  0999 V2000
    1.6549    0.0818   -4.0350 C   0  0  0  0  0  0  0  0  0  0  0  0
    4.7510   -1.3211    1.6064 C   0  0  0  0  0  0  0  0  0  0  0  0
    2.4164   -0.1760   -2.7301 C   0  0  0  0  0  0  0  0  0  0  0  0
    1.6390   -1.0884   -1.7702 C   0  0  0  0  0  0  0  0  0  0  0  0
    2.6852   -0.2960    0.4284 C   0  0  0  0  0  0  0  0  0  0  0  0
    3.3671   -0.6925    1.7449 C   0  0  2  0  0  0  0  0  0  0  0  0
    2.4119   -1.4754   -0.5038 C   0  0  1  0  0  0  0  0  0  0  0  0
    4.1048    1.5516    2.3996 C   0  0  1  0  0  0  0  0  0  0  0  0
    1.5615   -3.7175   -0.0269 C   0  0  0  0  0  0  0  0  0  0  0  0
    4.7891    1.7642    1.3517 N   0  0  0  0  0  0  0  0  0  0  0  0
    0.7291   -4.4633    0.5765 N   0  0  0  0  0  0  0  0  0  0  0  0
    3.9844    2.4274    3.4305 O   0  0  0  0  0  0  0  0  0  0  0  0
    2.4823   -4.0647   -0.9836 O   0  0  0  0  0  0  0  0  0  0  0  0
    3.3884    0.4436    2.6659 O   0  0  0  0  0  0  0  0  0  0  0  0
    1.6161   -2.4143    0.2778 O   0  0  0  0  0  0  0  0  0  0  0  0
    2.2246    0.7365   -4.7038 H   0  0  0  0  0  0  0  0  0  0  0  0
    0.6882    0.5624   -3.8415 H   0  0  0  0  0  0  0  0  0  0  0  0
    1.4575   -0.8545   -4.5711 H   0  0  0  0  0  0  0  0  0  0  0  0
    5.4246   -0.6824    1.0319 H   0  0  0  0  0  0  0  0  0  0  0  0
    5.1838   -1.4905    2.5981 H   0  0  0  0  0  0  0  0  0  0  0  0
    4.6656   -2.2950    1.1119 H   0  0  0  0  0  0  0  0  0  0  0  0
    3.3894   -0.6330   -2.9602 H   0  0  0  0  0  0  0  0  0  0  0  0
    2.6356    0.7830   -2.2447 H   0  0  0  0  0  0  0  0  0  0  0  0
    1.3734   -2.0131   -2.2977 H   0  0  0  0  0  0  0  0  0  0  0  0
    0.6955   -0.6103   -1.4742 H   0  0  0  0  0  0  0  0  0  0  0  0
    3.3126    0.4319   -0.0914 H   0  0  0  0  0  0  0  0  0  0  0  0
    1.7329    0.1927    0.6703 H   0  0  0  0  0  0  0  0  0  0  0  0
    2.7117   -1.3847    2.2774 H   0  0  0  0  0  0  0  0  0  0  0  0
    3.3500   -1.9624   -0.7831 H   0  0  0  0  0  0  0  0  0  0  0  0
    5.2293    2.6823    1.4135 H   0  0  0  0  0  0  0  0  0  0  0  0
    0.8084   -5.4379    0.2861 H   0  0  0  0  0  0  0  0  0  0  0  0
    3.4120    2.0169    4.1014 H   0  0  0  0  0  0  0  0  0  0  0  0
    2.3969   -5.0151   -1.1555 H   0  0  0  0  0  0  0  0  0  0  0  0
  1 17  1  0  0  0  0
  1  3  1  0  0  0  0
  2  6  1  0  0  0  0
  2 20  1  0  0  0  0
  3 23  1  0  0  0  0
  3  4  1  0  0  0  0
  4 25  1  0  0  0  0
  4  7  1  0  0  0  0
  5 27  1  0  0  0  0
  5  6  1  0  0  0  0
  6 28  1  1  0  0  0
  6 14  1  0  0  0  0
  7 29  1  6  0  0  0
  7 15  1  0  0  0  0
  7  5  1  0  0  0  0
  8 10  1  6  0  0  0
  8 14  1  0  0  0  0
  8 12  1  0  0  0  0
  9 15  1  0  0  0  0
  9 11  2  0  0  0  0
 10 30  1  0  0  0  0
 12 32  1  0  0  0  0
 13  9  1  0  0  0  0
 16  1  1  0  0  0  0
 18  1  1  0  0  0  0
 19  2  1  0  0  0  0
 21  2  1  0  0  0  0
 22  3  1  0  0  0  0
 24  4  1  0  0  0  0
 26  5  1  0  0  0  0
 31 11  1  0  0  0  0
 33 13  1  0  0  0  0
M  RAD  2   8   2  10   2
M  END
>  <HBA>
6

>  <HBD>
2

>  <TPSA>
104.64

>  <cid>
44784

>  <dipole>
2.41

>  <excitation_energy_1>
5.594

>  <excitation_energy_2>
6.215

>  <excitation_energy_3>
6.26

>  <excitation_energy_4>
6.377

>  <homo_energy>
-6.836

>  <homo_lumo_gap>
7.935

>  <logP>
2.525

>  <lumo_energy>
1.099

>  <melting_point>
125.49

>  <molecular_refractivity>
54.14

>  <oscillator_strength_1>
0.0043

>  <oscillator_strength_2>
0.0351

>  <oscillator_strength_3>
0.0021

>  <oscillator_strength_4>
0.0001

>  <open_babel_can_smiles>
CCC[C@H](OC(=N)O)C[C@H](O[C](O)[NH])C

>  <mulliken_charges>
33
1   -0.442731
2   -0.481628
3   -0.26486
4   -0.267835
5   -0.316402
6   0.14735
7   0.123662
8   0.691421
9   0.658474
10   -0.645103
11   -0.608828
12   -0.593465
13   -0.592093
14   -0.511572
15   -0.473234
16   0.145876
17   0.145793
18   0.142801
19   0.190368
20   0.152606
21   0.151889
22   0.13645
23   0.149188
24   0.14364
25   0.144292
26   0.195932
27   0.149054
28   0.171583
29   0.160559
30   0.298891
31   0.26887
32   0.417654
33   0.411396

>  <lowdin_charges>
33
1   -0.443904
2   -0.463316
3   -0.274101
4   -0.285063
5   -0.301214
6   0.017198
7   0.00597
8   0.194142
9   0.190262
10   -0.461782
11   -0.442864
12   -0.374655
13   -0.387176
14   -0.214842
15   -0.181693
16   0.15298
17   0.148406
18   0.147057
19   0.174296
20   0.157469
21   0.157096
22   0.141591
23   0.146897
24   0.150201
25   0.148584
26   0.17872
27   0.155512
28   0.163674
29   0.150317
30   0.269614
31   0.2514
32   0.368124
33   0.3611

$$$$

