PCCDB-ID:  46361
public computational chemistry database (PCCDB) project, http://pccdb.org

 22 22  0  0  1  0  0  0  0  0999 V2000
    2.9571   -1.0589   -0.3587 C   0  0  0  0  0  0  0  0  0  0  0  0
    5.7185    1.0485   -1.7467 C   0  0  0  0  0  0  0  0  0  0  0  0
    2.0463    2.5972    0.4018 C   0  0  0  0  0  0  0  0  0  0  0  0
    3.0740    3.4690   -0.3617 C   0  0  0  0  0  0  0  0  0  0  0  0
    2.9275    1.3541    0.1235 C   0  0  2  0  0  0  0  0  0  0  0  0
    3.6754    2.1813   -0.9775 C   0  0  2  0  0  0  0  0  0  0  0  0
    2.1809    0.1735   -0.2825 N   0  0  0  0  0  0  0  0  0  0  0  0
    5.1299    2.1535   -0.9984 N   0  0  0  0  0  0  0  0  0  0  0  0
    2.2797   -1.9030   -0.5261 H   0  0  0  0  0  0  0  0  0  0  0  0
    3.5608   -1.2726    0.5438 H   0  0  0  0  0  0  0  0  0  0  0  0
    3.6416   -1.0156   -1.2125 H   0  0  0  0  0  0  0  0  0  0  0  0
    6.8002    1.2006   -1.8259 H   0  0  0  0  0  0  0  0  0  0  0  0
    5.3101    0.9223   -2.7674 H   0  0  0  0  0  0  0  0  0  0  0  0
    5.5594    0.1088   -1.2075 H   0  0  0  0  0  0  0  0  0  0  0  0
    1.0969    2.5168   -0.1381 H   0  0  0  0  0  0  0  0  0  0  0  0
    1.8434    2.8500    1.4470 H   0  0  0  0  0  0  0  0  0  0  0  0
    3.7961    3.9369    0.3159 H   0  0  0  0  0  0  0  0  0  0  0  0
    2.6865    4.2263   -1.0500 H   0  0  0  0  0  0  0  0  0  0  0  0
    3.6292    1.1663    0.9568 H   0  0  0  0  0  0  0  0  0  0  0  0
    3.2164    1.9537   -1.9570 H   0  0  0  0  0  0  0  0  0  0  0  0
    1.4152    0.0427    0.3763 H   0  0  0  0  0  0  0  0  0  0  0  0
    5.4549    3.0326   -1.3976 H   0  0  0  0  0  0  0  0  0  0  0  0
  1  7  1  0  0  0  0
  1 10  1  0  0  0  0
  2 14  1  0  0  0  0
  2  8  1  0  0  0  0
  3 16  1  0  0  0  0
  4 17  1  0  0  0  0
  4  3  1  0  0  0  0
  5  3  1  0  0  0  0
  5 19  1  1  0  0  0
  6 20  1  6  0  0  0
  6  4  1  0  0  0  0
  6  5  1  0  0  0  0
  7  5  1  0  0  0  0
  7 21  1  0  0  0  0
  8  6  1  0  0  0  0
  9  1  1  0  0  0  0
 11  1  1  0  0  0  0
 12  2  1  0  0  0  0
 13  2  1  0  0  0  0
 15  3  1  0  0  0  0
 18  4  1  0  0  0  0
 22  8  1  0  0  0  0
M  END
>  <HBA>
2

>  <HBD>
2

>  <TPSA>
24.06

>  <cid>
46361

>  <dipole>
0.05

>  <excitation_energy_1>
5.332

>  <excitation_energy_2>
5.354

>  <excitation_energy_3>
5.69

>  <excitation_energy_4>
5.715

>  <homo_energy>
-5.723

>  <homo_lumo_gap>
8.049

>  <logP>
0.738

>  <lumo_energy>
2.327

>  <melting_point>
50.37

>  <molecular_refractivity>
34.45

>  <oscillator_strength_1>
0.0021

>  <oscillator_strength_2>
0.0027

>  <oscillator_strength_3>
0.0

>  <oscillator_strength_4>
0.001

>  <open_babel_can_smiles>
CN[C@@H]1CC[C@H]1NC

>  <mulliken_charges>
22
1   -0.306683
2   -0.306903
3   -0.307811
4   -0.307802
5   0.055403
6   0.055261
7   -0.551721
8   -0.551533
9   0.144042
10   0.121164
11   0.156679
12   0.144068
13   0.12122
14   0.156797
15   0.145813
16   0.137177
17   0.14589
18   0.137142
19   0.11123
20   0.111235
21   0.294691
22   0.294643

>  <lowdin_charges>
22
1   -0.365447
2   -0.360682
3   -0.288976
4   -0.292593
5   -0.077732
6   -0.076686
7   -0.36078
8   -0.361048
9   0.15002
10   0.122175
11   0.149143
12   0.147426
13   0.120745
14   0.148688
15   0.150108
16   0.142427
17   0.151542
18   0.144631
19   0.124288
20   0.123582
21   0.254781
22   0.254386

$$$$

