PCCDB-ID:  10787
public computational chemistry database (PCCDB) project, http://pccdb.org

 15 15  0  0  0  0  0  0  0  0999 V2000
   -1.3933   -0.0773   -0.0418 C   0  0  0  0  0  0  0  0  0  0  0  0
   -0.7465    1.1651   -0.0380 C   0  0  0  0  0  0  0  0  0  0  0  0
    0.7665   -1.1625   -0.0587 C   0  0  0  0  0  0  0  0  0  0  0  0
   -0.6314   -1.2427   -0.0515 C   0  0  0  0  0  0  0  0  0  0  0  0
    0.6405    1.2610   -0.0448 C   0  0  0  0  0  0  0  0  0  0  0  0
    1.4037    0.0749   -0.0556 C   0  0  0  0  0  0  0  0  0  0  0  0
   -1.1803   -2.5006   -0.0557 O   0  0  0  0  0  0  0  0  0  0  0  0
    1.3265    2.4486   -0.0418 O   0  0  0  0  0  0  0  0  0  0  0  0
    2.7622    0.2113   -0.0635 O   0  0  0  0  0  0  0  0  0  0  0  0
   -2.4798   -0.1249   -0.0368 H   0  0  0  0  0  0  0  0  0  0  0  0
   -1.3410    2.0770   -0.0314 H   0  0  0  0  0  0  0  0  0  0  0  0
    1.3461   -2.0822   -0.0688 H   0  0  0  0  0  0  0  0  0  0  0  0
   -2.1460   -2.4164   -0.0525 H   0  0  0  0  0  0  0  0  0  0  0  0
    0.6809    3.1717   -0.0382 H   0  0  0  0  0  0  0  0  0  0  0  0
    3.1593   -0.6733   -0.0681 H   0  0  0  0  0  0  0  0  0  0  0  0
  1  2  1  0  0  0  0
  1 10  1  0  0  0  0
  2 11  1  0  0  0  0
  3  6  2  0  0  0  0
  3  4  1  0  0  0  0
  4  1  2  0  0  0  0
  5  8  1  0  0  0  0
  5  2  2  0  0  0  0
  6  5  1  0  0  0  0
  7 13  1  0  0  0  0
  7  4  1  0  0  0  0
  8 14  1  0  0  0  0
  9  6  1  0  0  0  0
 12  3  1  0  0  0  0
 15  9  1  0  0  0  0
M  END
>  <HBA>
3

>  <HBD>
3

>  <TPSA>
60.69

>  <cid>
10787

>  <dipole>
2.18

>  <excitation_energy_1>
4.633

>  <excitation_energy_2>
4.645

>  <excitation_energy_3>
4.726

>  <excitation_energy_4>
4.903

>  <homo_energy>
-5.23

>  <homo_lumo_gap>
5.431

>  <logP>
0.803

>  <lumo_energy>
0.201

>  <melting_point>
125.24

>  <molecular_refractivity>
32.51

>  <oscillator_strength_1>
0.0004

>  <oscillator_strength_2>
0.0726

>  <oscillator_strength_3>
0.0002

>  <oscillator_strength_4>
0.0002

>  <open_babel_can_smiles>
Oc1ccc(c(c1)O)O

>  <mulliken_charges>
15
1   -0.20668
2   -0.202865
3   -0.244374
4   0.350667
5   0.315463
6   0.328549
7   -0.65285
8   -0.638584
9   -0.632955
10   0.115287
11   0.119518
12   0.129386
13   0.40607
14   0.404494
15   0.408873

>  <lowdin_charges>
15
1   -0.227047
2   -0.196717
3   -0.23706
4   0.096265
5   0.060748
6   0.091722
7   -0.384542
8   -0.378667
9   -0.366685
10   0.151688
11   0.15528
12   0.164523
13   0.354862
14   0.357428
15   0.358201

$$$$

