PCCDB-ID:  10710
public computational chemistry database (PCCDB) project, http://pccdb.org

 20 20  0  0  0  0  0  0  0  0999 V2000
   -0.7642    0.6188    0.4090 C   0  0  0  0  0  0  0  0  0  0  0  0
   -1.0785   -0.6972    0.0688 C   0  0  0  0  0  0  0  0  0  0  0  0
    0.5612    1.0521    0.3714 C   0  0  0  0  0  0  0  0  0  0  0  0
   -0.0641   -1.5825   -0.2929 C   0  0  0  0  0  0  0  0  0  0  0  0
    1.5846    0.1830   -0.0175 C   0  0  0  0  0  0  0  0  0  0  0  0
    1.2677   -1.1548   -0.3318 C   0  0  0  0  0  0  0  0  0  0  0  0
    2.9705    0.7634   -0.0736 C   0  0  0  0  0  0  0  0  0  0  0  0
    2.3674   -2.1163   -0.5966 C   0  0  0  0  0  0  0  0  0  0  0  0
    3.7555    0.5706   -1.3830 C   0  0  0  0  0  0  0  0  0  0  0  0
    3.3945    1.4983    0.7934 O   0  0  0  0  0  0  0  0  0  0  0  0
    3.5448   -1.8935   -0.3770 O   0  0  0  0  0  0  0  0  0  0  0  0
    1.9423   -3.3026   -1.0846 O   0  0  0  0  0  0  0  0  0  0  0  0
    5.0644    0.8062   -1.2220 O   0  0  0  0  0  0  0  0  0  0  0  0
    3.2256    0.3182   -2.4429 O   0  0  0  0  0  0  0  0  0  0  0  0
   -1.5491    1.3088    0.7054 H   0  0  0  0  0  0  0  0  0  0  0  0
   -2.1090   -1.0391    0.0981 H   0  0  0  0  0  0  0  0  0  0  0  0
    0.8163    2.0742    0.6327 H   0  0  0  0  0  0  0  0  0  0  0  0
   -0.2947   -2.6153   -0.5284 H   0  0  0  0  0  0  0  0  0  0  0  0
    2.7423   -3.8499   -1.1933 H   0  0  0  0  0  0  0  0  0  0  0  0
    5.4709    0.6976   -2.1027 H   0  0  0  0  0  0  0  0  0  0  0  0
  1 15  1  0  0  0  0
  2 16  1  0  0  0  0
  2  1  2  0  0  0  0
  3  1  1  0  0  0  0
  3 17  1  0  0  0  0
  4  2  1  0  0  0  0
  5  3  2  0  0  0  0
  6  4  2  0  0  0  0
  6  5  1  0  0  0  0
  7  5  1  0  0  0  0
  7 10  2  0  0  0  0
  8 11  2  0  0  0  0
  8  6  1  0  0  0  0
  9 13  1  0  0  0  0
  9  7  1  0  0  0  0
 12  8  1  0  0  0  0
 14  9  2  0  0  0  0
 18  4  1  0  0  0  0
 19 12  1  0  0  0  0
 20 13  1  0  0  0  0
M  END
>  <HBA>
5

>  <HBD>
2

>  <TPSA>
91.67

>  <cid>
10710

>  <dipole>
3.21

>  <excitation_energy_1>
3.314

>  <excitation_energy_2>
4.36

>  <excitation_energy_3>
4.458

>  <excitation_energy_4>
4.507

>  <homo_energy>
-6.86

>  <homo_lumo_gap>
4.697

>  <logP>
0.652

>  <lumo_energy>
-2.163

>  <melting_point>
207.7

>  <molecular_refractivity>
45.37

>  <oscillator_strength_1>
0.0039

>  <oscillator_strength_2>
0.0024

>  <oscillator_strength_3>
0.0327

>  <oscillator_strength_4>
0.0191

>  <open_babel_can_smiles>
OC(=O)C(=O)c1ccccc1C(=O)O

>  <mulliken_charges>
20
1   -0.119783
2   -0.122665
3   -0.160337
4   -0.171695
5   0.058175
6   0.086905
7   0.34139
8   0.549967
9   0.543272
10   -0.413872
11   -0.483957
12   -0.573734
13   -0.538905
14   -0.462065
15   0.149687
16   0.148002
17   0.165324
18   0.169923
19   0.419691
20   0.414677

>  <lowdin_charges>
20
1   -0.135317
2   -0.141328
3   -0.130486
4   -0.130923
5   -0.00633
6   -0.032635
7   0.145471
8   0.203957
9   0.1711
10   -0.185477
11   -0.261161
12   -0.34508
13   -0.317353
14   -0.256756
15   0.169149
16   0.166051
17   0.175347
18   0.177213
19   0.368868
20   0.365691

$$$$

