PCCDB-ID:  67541
public computational chemistry database (PCCDB) project, http://pccdb.org

 19 19  0  0  0  0  0  0  0  0999 V2000
   -1.6334    0.3400    0.0920 C   0  0  0  0  0  0  0  0  0  0  0  0
   -0.7872    1.4286   -0.1247 C   0  0  0  0  0  0  0  0  0  0  0  0
   -1.0859   -0.9149    0.3737 C   0  0  0  0  0  0  0  0  0  0  0  0
    0.5954    1.2679   -0.0623 C   0  0  0  0  0  0  0  0  0  0  0  0
    0.2933   -1.0938    0.4403 C   0  0  0  0  0  0  0  0  0  0  0  0
    5.2598   -0.1529    0.3486 C   0  0  0  0  0  0  0  0  0  0  0  0
    5.0555   -2.5648    0.8558 C   0  0  0  0  0  0  0  0  0  0  0  0
    1.1307    0.0060    0.2206 C   0  0  0  0  0  0  0  0  0  0  0  0
    4.4417   -1.3070    0.5743 C   0  0  0  0  0  0  0  0  0  0  0  0
    5.8067    0.8561    0.1463 N   0  0  0  0  0  0  0  0  0  0  0  0
    5.5835   -3.5762    1.0842 N   0  0  0  0  0  0  0  0  0  0  0  0
    2.5349   -0.1134    0.2756 N   0  0  0  0  0  0  0  0  0  0  0  0
    3.1277   -1.2475    0.5308 N   0  0  0  0  0  0  0  0  0  0  0  0
   -2.7106    0.4674    0.0423 H   0  0  0  0  0  0  0  0  0  0  0  0
   -1.2002    2.4088   -0.3440 H   0  0  0  0  0  0  0  0  0  0  0  0
   -1.7382   -1.7667    0.5433 H   0  0  0  0  0  0  0  0  0  0  0  0
    1.2552    2.1160   -0.2305 H   0  0  0  0  0  0  0  0  0  0  0  0
    0.7254   -2.0631    0.6594 H   0  0  0  0  0  0  0  0  0  0  0  0
    3.0928    0.7274    0.1093 H   0  0  0  0  0  0  0  0  0  0  0  0
  1  3  2  0  0  0  0
  2  4  2  0  0  0  0
  2  1  1  0  0  0  0
  3  5  1  0  0  0  0
  3 16  1  0  0  0  0
  4  8  1  0  0  0  0
  5 18  1  0  0  0  0
  6  9  1  0  0  0  0
  7 11  3  0  0  0  0
  8 12  1  0  0  0  0
  8  5  2  0  0  0  0
  9  7  1  0  0  0  0
 10  6  3  0  0  0  0
 12 13  1  0  0  0  0
 13  9  2  0  0  0  0
 14  1  1  0  0  0  0
 15  2  1  0  0  0  0
 17  4  1  0  0  0  0
 19 12  1  0  0  0  0
M  END
>  <HBA>
4

>  <HBD>
1

>  <TPSA>
71.97

>  <cid>
67541

>  <dipole>
6.29

>  <excitation_energy_1>
3.549

>  <excitation_energy_2>
4.125

>  <excitation_energy_3>
4.827

>  <excitation_energy_4>
5.036

>  <homo_energy>
-6.52

>  <homo_lumo_gap>
3.81

>  <logP>
1.575

>  <lumo_energy>
-2.71

>  <melting_point>
122.21

>  <molecular_refractivity>
48.54

>  <oscillator_strength_1>
0.5539

>  <oscillator_strength_2>
0.0166

>  <oscillator_strength_3>
0.0

>  <oscillator_strength_4>
0.1351

>  <open_babel_can_smiles>
N#CC(=NNc1ccccc1)C#N

>  <mulliken_charges>
19
1   -0.121076
2   -0.136036
3   -0.14005
4   -0.185446
5   -0.152742
6   0.321553
7   0.327205
8   0.374196
9   0.243166
10   -0.463528
11   -0.467964
12   -0.512244
13   -0.190023
14   0.142567
15   0.146261
16   0.147911
17   0.143736
18   0.17244
19   0.350075

>  <lowdin_charges>
19
1   -0.154741
2   -0.140318
3   -0.138377
4   -0.181027
5   -0.167977
6   -0.02435
7   -0.006948
8   0.04952
9   -0.04222
10   -0.093746
11   -0.091316
12   -0.123105
13   -0.014185
14   0.163313
15   0.16623
16   0.167886
17   0.164791
18   0.18056
19   0.28601

$$$$

