PCCDB-ID:  44803
public computational chemistry database (PCCDB) project, http://pccdb.org

 37 36  0  0  0  0  0  0  0  0999 V2000
    3.4188    1.2471   -2.4358 C   0  0  0  0  0  0  0  0  0  0  0  0
    6.2345   -1.6862    0.4827 C   0  0  0  0  0  0  0  0  0  0  0  0
    4.9228   -2.3092   -4.2131 C   0  0  0  0  0  0  0  0  0  0  0  0
    1.2142   -3.9927   -3.4136 C   0  0  0  0  0  0  0  0  0  0  0  0
    2.2757    0.2428   -2.2452 C   0  0  0  0  0  0  0  0  0  0  0  0
    4.7864   -1.8924    0.9445 C   0  0  0  0  0  0  0  0  0  0  0  0
    4.2766   -3.2795   -3.2208 C   0  0  0  0  0  0  0  0  0  0  0  0
    2.0919   -3.6801   -2.1979 C   0  0  0  0  0  0  0  0  0  0  0  0
    2.4922   -0.7487   -1.0905 C   0  0  0  0  0  0  0  0  0  0  0  0
    3.8949   -2.6336   -0.0703 C   0  0  0  0  0  0  0  0  0  0  0  0
    3.5474   -1.8427   -1.3602 C   0  0  0  0  0  0  0  0  0  0  0  0
    3.1397   -2.6974   -2.4989 N   0  0  0  0  0  0  0  0  0  0  0  0
    3.2003    1.9414   -3.2554 H   0  0  0  0  0  0  0  0  0  0  0  0
    4.3663    0.7505   -2.6755 H   0  0  0  0  0  0  0  0  0  0  0  0
    3.5786    1.8438   -1.5285 H   0  0  0  0  0  0  0  0  0  0  0  0
    6.8294   -1.1969    1.2624 H   0  0  0  0  0  0  0  0  0  0  0  0
    6.2972   -1.0610   -0.4154 H   0  0  0  0  0  0  0  0  0  0  0  0
    6.7140   -2.6457    0.2514 H   0  0  0  0  0  0  0  0  0  0  0  0
    4.1863   -1.9707   -4.9493 H   0  0  0  0  0  0  0  0  0  0  0  0
    5.7495   -2.7979   -4.7430 H   0  0  0  0  0  0  0  0  0  0  0  0
    5.3301   -1.4225   -3.7153 H   0  0  0  0  0  0  0  0  0  0  0  0
    0.4362   -4.7184   -3.1473 H   0  0  0  0  0  0  0  0  0  0  0  0
    1.7934   -4.4198   -4.2400 H   0  0  0  0  0  0  0  0  0  0  0  0
    0.7320   -3.0807   -3.7806 H   0  0  0  0  0  0  0  0  0  0  0  0
    2.1228   -0.3274   -3.1688 H   0  0  0  0  0  0  0  0  0  0  0  0
    1.3467    0.7988   -2.0599 H   0  0  0  0  0  0  0  0  0  0  0  0
    4.3423   -0.9205    1.1982 H   0  0  0  0  0  0  0  0  0  0  0  0
    4.7947   -2.4681    1.8798 H   0  0  0  0  0  0  0  0  0  0  0  0
    5.0460   -3.6695   -2.5275 H   0  0  0  0  0  0  0  0  0  0  0  0
    3.9127   -4.1483   -3.7790 H   0  0  0  0  0  0  0  0  0  0  0  0
    2.5089   -4.6206   -1.7917 H   0  0  0  0  0  0  0  0  0  0  0  0
    1.4505   -3.2696   -1.4119 H   0  0  0  0  0  0  0  0  0  0  0  0
    1.5365   -1.2322   -0.8461 H   0  0  0  0  0  0  0  0  0  0  0  0
    2.7813   -0.1936   -0.1874 H   0  0  0  0  0  0  0  0  0  0  0  0
    2.9621   -2.9301    0.4286 H   0  0  0  0  0  0  0  0  0  0  0  0
    4.4009   -3.5684   -0.3503 H   0  0  0  0  0  0  0  0  0  0  0  0
    4.4614   -1.3396   -1.6938 H   0  0  0  0  0  0  0  0  0  0  0  0
  1  5  1  0  0  0  0
  1 15  1  0  0  0  0
  2  6  1  0  0  0  0
  2 16  1  0  0  0  0
  3 21  1  0  0  0  0
  3  7  1  0  0  0  0
  4 22  1  0  0  0  0
  4  8  1  0  0  0  0
  5 26  1  0  0  0  0
  5  9  1  0  0  0  0
  6 27  1  0  0  0  0
  6 28  1  0  0  0  0
  7 29  1  0  0  0  0
  7 12  1  0  0  0  0
  8 31  1  0  0  0  0
  8 32  1  0  0  0  0
  9 33  1  0  0  0  0
  9 34  1  0  0  0  0
 10 35  1  0  0  0  0
 10  6  1  0  0  0  0
 11  9  1  0  0  0  0
 11 10  1  0  0  0  0
 12  8  1  0  0  0  0
 12 11  1  0  0  0  0
 13  1  1  0  0  0  0
 14  1  1  0  0  0  0
 17  2  1  0  0  0  0
 18  2  1  0  0  0  0
 19  3  1  0  0  0  0
 20  3  1  0  0  0  0
 23  4  1  0  0  0  0
 24  4  1  0  0  0  0
 25  5  1  0  0  0  0
 30  7  1  0  0  0  0
 36 10  1  0  0  0  0
 37 11  1  0  0  0  0
M  END
>  <HBA>
1

>  <HBD>
0

>  <TPSA>
3.24

>  <cid>
44803

>  <dipole>
0.69

>  <excitation_energy_1>
4.998

>  <excitation_energy_2>
5.119

>  <excitation_energy_3>
5.254

>  <excitation_energy_4>
5.289

>  <homo_energy>
-5.35

>  <homo_lumo_gap>
7.342

>  <logP>
3.297

>  <lumo_energy>
1.992

>  <melting_point>
-27.25

>  <molecular_refractivity>
57.89

>  <oscillator_strength_1>
0.0187

>  <oscillator_strength_2>
0.0205

>  <oscillator_strength_3>
0.0252

>  <oscillator_strength_4>
0.0235

>  <open_babel_can_smiles>
CCCC(N(CC)CC)CCC

>  <mulliken_charges>
37
1   -0.447909
2   -0.444855
3   -0.438058
4   -0.439454
5   -0.248997
6   -0.257883
7   -0.126601
8   -0.125237
9   -0.260011
10   -0.264475
11   0.027525
12   -0.379694
13   0.140961
14   0.143379
15   0.136558
16   0.143165
17   0.146057
18   0.141485
19   0.152232
20   0.135201
21   0.146526
22   0.135468
23   0.144185
24   0.152147
25   0.150998
26   0.123775
27   0.135577
28   0.132095
29   0.115412
30   0.136339
31   0.114753
32   0.139205
33   0.125874
34   0.127639
35   0.126459
36   0.131015
37   0.129145

>  <lowdin_charges>
37
1   -0.448134
2   -0.449195
3   -0.452653
4   -0.451931
5   -0.277679
6   -0.274501
7   -0.200656
8   -0.199897
9   -0.283039
10   -0.291869
11   -0.066814
12   -0.189083
13   0.149856
14   0.143811
15   0.143441
16   0.151496
17   0.146179
18   0.14596
19   0.153752
20   0.148754
21   0.14702
22   0.148371
23   0.147534
24   0.152859
25   0.148945
26   0.139255
27   0.13958
28   0.142878
29   0.121245
30   0.145446
31   0.120249
32   0.145386
33   0.139551
34   0.140484
35   0.140726
36   0.141232
37   0.141441

$$$$

