PCCDB-ID:  24987
public computational chemistry database (PCCDB) project, http://pccdb.org

 25 25  0  0  1  0  0  0  0  0999 V2000
    0.1485    0.3820   -0.2125 C   0  0  0  0  0  0  0  0  0  0  0  0
    5.5059    4.4343    5.1848 C   0  0  0  0  0  0  0  0  0  0  0  0
    1.6599    0.1420   -0.2855 C   0  0  0  0  0  0  0  0  0  0  0  0
    2.4203    0.7830    0.8837 C   0  0  0  0  0  0  0  0  0  0  0  0
    3.9220    0.5338    0.7954 C   0  0  0  0  0  0  0  0  0  0  0  0
    5.4405    4.1238    3.7116 C   0  0  2  0  0  0  0  0  0  0  0  0
    5.6511    2.7550    3.1892 C   0  0  1  0  0  0  0  0  0  0  0  0
    4.9781    2.3579    1.9048 C   0  0  0  0  0  0  0  0  0  0  0  0
    4.7709    3.1048    0.9743 O   0  0  0  0  0  0  0  0  0  0  0  0
    4.6186    1.0573    1.9534 O   0  0  0  0  0  0  0  0  0  0  0  0
    6.6622    3.7603    3.0680 O   0  0  0  0  0  0  0  0  0  0  0  0
   -0.3691   -0.0857   -1.0574 H   0  0  0  0  0  0  0  0  0  0  0  0
   -0.0827    1.4538   -0.2308 H   0  0  0  0  0  0  0  0  0  0  0  0
   -0.2746   -0.0333    0.7101 H   0  0  0  0  0  0  0  0  0  0  0  0
    4.5031    4.4196    5.6274 H   0  0  0  0  0  0  0  0  0  0  0  0
    5.9304    5.4323    5.3433 H   0  0  0  0  0  0  0  0  0  0  0  0
    6.1343    3.7085    5.7102 H   0  0  0  0  0  0  0  0  0  0  0  0
    2.0477    0.5399   -1.2335 H   0  0  0  0  0  0  0  0  0  0  0  0
    1.8582   -0.9392   -0.3021 H   0  0  0  0  0  0  0  0  0  0  0  0
    2.0482    0.3832    1.8365 H   0  0  0  0  0  0  0  0  0  0  0  0
    2.2416    1.8650    0.8946 H   0  0  0  0  0  0  0  0  0  0  0  0
    4.3462    0.9883   -0.1038 H   0  0  0  0  0  0  0  0  0  0  0  0
    4.1491   -0.5357    0.8038 H   0  0  0  0  0  0  0  0  0  0  0  0
    4.8143    4.7763    3.1012 H   0  0  0  0  0  0  0  0  0  0  0  0
    5.8730    1.9432    3.8799 H   0  0  0  0  0  0  0  0  0  0  0  0
  1 14  1  0  0  0  0
  2 16  1  0  0  0  0
  2 15  1  0  0  0  0
  2 17  1  0  0  0  0
  3  1  1  0  0  0  0
  3  4  1  0  0  0  0
  4 21  1  0  0  0  0
  4 20  1  0  0  0  0
  5 23  1  0  0  0  0
  5  4  1  0  0  0  0
  5 10  1  0  0  0  0
  6 24  1  6  0  0  0
  6  2  1  0  0  0  0
  7  6  1  0  0  0  0
  7 25  1  1  0  0  0
  8 10  1  0  0  0  0
  8  7  1  0  0  0  0
  9  8  2  0  0  0  0
 11  7  1  0  0  0  0
 11  6  1  0  0  0  0
 12  1  1  0  0  0  0
 13  1  1  0  0  0  0
 18  3  1  0  0  0  0
 19  3  1  0  0  0  0
 22  5  1  0  0  0  0
M  END
>  <HBA>
3

>  <HBD>
0

>  <TPSA>
38.83

>  <cid>
24987

>  <dipole>
3.09

>  <excitation_energy_1>
5.457

>  <excitation_energy_2>
6.157

>  <excitation_energy_3>
7.022

>  <excitation_energy_4>
7.103

>  <homo_energy>
-7.255

>  <homo_lumo_gap>
7.086

>  <logP>
1.117

>  <lumo_energy>
-0.169

>  <melting_point>
-1.82

>  <molecular_refractivity>
40.83

>  <oscillator_strength_1>
0.0003

>  <oscillator_strength_2>
0.0042

>  <oscillator_strength_3>
0.0759

>  <oscillator_strength_4>
0.2424

>  <open_babel_can_smiles>
CCCCOC(=O)[C@H]1O[C@@H]1C

>  <mulliken_charges>
25
1   -0.441436
2   -0.470463
3   -0.259309
4   -0.273749
5   -0.047587
6   0.107189
7   -0.011988
8   0.633048
9   -0.47875
10   -0.47601
11   -0.431674
12   0.146454
13   0.14797
14   0.143984
15   0.15647
16   0.168045
17   0.162649
18   0.142198
19   0.133722
20   0.141593
21   0.159542
22   0.171853
23   0.151754
24   0.166064
25   0.15843

>  <lowdin_charges>
25
1   -0.442165
2   -0.446703
3   -0.269829
4   -0.285138
5   -0.130797
6   -0.006964
7   -0.061129
8   0.189809
9   -0.25891
10   -0.189655
11   -0.256815
12   0.152864
13   0.148252
14   0.148087
15   0.160723
16   0.164407
17   0.163767
18   0.14449
19   0.138371
20   0.145854
21   0.153187
22   0.160305
23   0.150693
24   0.162453
25   0.164841

$$$$

