PCCDB-ID:  70135
public computational chemistry database (PCCDB) project, http://pccdb.org

 21 21  0  0  0  0  0  0  0  0999 V2000
    0.9967   -0.1057    0.1698 C   0  0  0  0  0  0  0  0  0  0  0  0
    4.6719    3.7500    0.1463 C   0  0  0  0  0  0  0  0  0  0  0  0
    5.3045   -0.0456   -0.2482 C   0  0  0  0  0  0  0  0  0  0  0  0
    4.6139   -1.2488   -0.2853 C   0  0  0  0  0  0  0  0  0  0  0  0
    3.2177    1.1269    0.0590 C   0  0  0  0  0  0  0  0  0  0  0  0
    2.4967   -0.0651    0.0256 C   0  0  0  0  0  0  0  0  0  0  0  0
    5.4057    2.4299   -0.0422 C   0  0  0  0  0  0  0  0  0  0  0  0
    4.6163    1.1638   -0.0747 C   0  0  0  0  0  0  0  0  0  0  0  0
    3.2204   -1.2599   -0.1496 C   0  0  0  0  0  0  0  0  0  0  0  0
    6.6230    2.4147   -0.1666 O   0  0  0  0  0  0  0  0  0  0  0  0
    2.4961   -2.4169   -0.1793 O   0  0  0  0  0  0  0  0  0  0  0  0
    0.5891    0.9025    0.2907 H   0  0  0  0  0  0  0  0  0  0  0  0
    0.6953   -0.7045    1.0376 H   0  0  0  0  0  0  0  0  0  0  0  0
    0.5236   -0.5653   -0.7061 H   0  0  0  0  0  0  0  0  0  0  0  0
    4.0979    3.7569    1.0804 H   0  0  0  0  0  0  0  0  0  0  0  0
    3.9653    3.9286   -0.6733 H   0  0  0  0  0  0  0  0  0  0  0  0
    5.4072    4.5562    0.1684 H   0  0  0  0  0  0  0  0  0  0  0  0
    6.3840   -0.0155   -0.3523 H   0  0  0  0  0  0  0  0  0  0  0  0
    5.1492   -2.1877   -0.4192 H   0  0  0  0  0  0  0  0  0  0  0  0
    2.6635    2.0516    0.1934 H   0  0  0  0  0  0  0  0  0  0  0  0
    3.1001   -3.1661   -0.3028 H   0  0  0  0  0  0  0  0  0  0  0  0
  1 12  1  0  0  0  0
  1 13  1  0  0  0  0
  2 17  1  0  0  0  0
  2 15  1  0  0  0  0
  3  8  1  0  0  0  0
  4  3  2  0  0  0  0
  4  9  1  0  0  0  0
  5 20  1  0  0  0  0
  6  5  1  0  0  0  0
  6  1  1  0  0  0  0
  7  2  1  0  0  0  0
  8  7  1  0  0  0  0
  8  5  2  0  0  0  0
  9  6  2  0  0  0  0
 10  7  2  0  0  0  0
 11  9  1  0  0  0  0
 14  1  1  0  0  0  0
 16  2  1  0  0  0  0
 18  3  1  0  0  0  0
 19  4  1  0  0  0  0
 21 11  1  0  0  0  0
M  END
>  <HBA>
2

>  <HBD>
1

>  <TPSA>
37.3

>  <cid>
70135

>  <dipole>
3.02

>  <excitation_energy_1>
3.84

>  <excitation_energy_2>
4.622

>  <excitation_energy_3>
4.811

>  <excitation_energy_4>
5.319

>  <homo_energy>
-6.199

>  <homo_lumo_gap>
5.031

>  <logP>
1.903

>  <lumo_energy>
-1.167

>  <melting_point>
84.03

>  <molecular_refractivity>
43.63

>  <oscillator_strength_1>
0.0001

>  <oscillator_strength_2>
0.1657

>  <oscillator_strength_3>
0.1175

>  <oscillator_strength_4>
0.0001

>  <open_babel_can_smiles>
CC(=O)c1ccc(c(c1)C)O

>  <mulliken_charges>
21
1   -0.515325
2   -0.541763
3   -0.1733
4   -0.188353
5   -0.257625
6   0.146455
7   0.402831
8   0.087376
9   0.301393
10   -0.463509
11   -0.633745
12   0.150009
13   0.16994
14   0.170051
15   0.167454
16   0.168625
17   0.179164
18   0.164666
19   0.124996
20   0.128081
21   0.412579

>  <lowdin_charges>
21
1   -0.437393
2   -0.476409
3   -0.118509
4   -0.210903
5   -0.151704
6   -0.028449
7   0.156856
8   -0.069911
9   0.106713
10   -0.253633
11   -0.369061
12   0.155102
13   0.165999
14   0.166183
15   0.167584
16   0.169085
17   0.174303
18   0.17594
19   0.155981
20   0.160202
21   0.362026

$$$$

