PCCDB-ID:  8061
public computational chemistry database (PCCDB) project, http://pccdb.org

 15 14  0  0  0  0  0  0  0  0999 V2000
    0.9478    0.2062   -0.1250 C   0  0  0  0  0  0  0  0  0  0  0  0
    2.4764    0.1553   -0.0399 C   0  0  0  0  0  0  0  0  0  0  0  0
    2.9817   -0.9606    0.8822 C   0  0  0  0  0  0  0  0  0  0  0  0
    4.5229   -1.0024    0.9527 C   0  0  0  0  0  0  0  0  0  0  0  0
    5.0227   -2.0463    1.8524 C   0  0  0  0  0  0  0  0  0  0  0  0
    5.3991   -2.8787    2.5688 N   0  0  0  0  0  0  0  0  0  0  0  0
    0.6150    1.0162   -0.7831 H   0  0  0  0  0  0  0  0  0  0  0  0
    0.5010    0.3732    0.8624 H   0  0  0  0  0  0  0  0  0  0  0  0
    0.5409   -0.7328   -0.5189 H   0  0  0  0  0  0  0  0  0  0  0  0
    2.8574    1.1224    0.3175 H   0  0  0  0  0  0  0  0  0  0  0  0
    2.8960    0.0135   -1.0459 H   0  0  0  0  0  0  0  0  0  0  0  0
    2.6135   -1.9325    0.5307 H   0  0  0  0  0  0  0  0  0  0  0  0
    2.5801   -0.8217    1.8936 H   0  0  0  0  0  0  0  0  0  0  0  0
    4.9136   -0.0348    1.2933 H   0  0  0  0  0  0  0  0  0  0  0  0
    4.9438   -1.1760   -0.0460 H   0  0  0  0  0  0  0  0  0  0  0  0
  1  2  1  0  0  0  0
  1  8  1  0  0  0  0
  2 10  1  0  0  0  0
  2  3  1  0  0  0  0
  3  4  1  0  0  0  0
  3 13  1  0  0  0  0
  4 14  1  0  0  0  0
  4  5  1  0  0  0  0
  5  6  3  0  0  0  0
  7  1  1  0  0  0  0
  9  1  1  0  0  0  0
 11  2  1  0  0  0  0
 12  3  1  0  0  0  0
 15  4  1  0  0  0  0
M  END
>  <HBA>
1

>  <HBD>
0

>  <TPSA>
23.79

>  <cid>
8061

>  <dipole>
4.15

>  <excitation_energy_1>
7.607

>  <excitation_energy_2>
7.83

>  <excitation_energy_3>
7.899

>  <excitation_energy_4>
8.117

>  <homo_energy>
-8.612

>  <homo_lumo_gap>
9.606

>  <logP>
1.7

>  <lumo_energy>
0.993

>  <melting_point>
8.0

>  <molecular_refractivity>
25.9

>  <oscillator_strength_1>
0.0

>  <oscillator_strength_2>
0.0264

>  <oscillator_strength_3>
0.0002

>  <oscillator_strength_4>
0.0017

>  <open_babel_can_smiles>
CCCCC#N

>  <mulliken_charges>
15
1   -0.44411
2   -0.251455
3   -0.25621
4   -0.340998
5   0.347743
6   -0.473965
7   0.149982
8   0.148656
9   0.148629
10   0.137872
11   0.137704
12   0.157258
13   0.157606
14   0.190541
15   0.190749

>  <lowdin_charges>
15
1   -0.44378
2   -0.272286
3   -0.264514
4   -0.275271
5   -0.016266
6   -0.131138
7   0.155046
8   0.150008
9   0.150542
10   0.142376
11   0.141823
12   0.15335
13   0.153001
14   0.178697
15   0.178413

$$$$

