PCCDB-ID:  28699
public computational chemistry database (PCCDB) project, http://pccdb.org

 34 34  0  0  0  0  0  0  0  0999 V2000
    0.2284    2.1295    0.5582 C   0  0  0  0  0  0  0  0  0  0  0  0
    7.1918    3.4019    2.2540 C   0  0  0  0  0  0  0  0  0  0  0  0
   -2.1028   -2.0383   -0.5777 C   0  0  0  0  0  0  0  0  0  0  0  0
   -1.6141   -3.6348    1.2538 C   0  0  0  0  0  0  0  0  0  0  0  0
    3.8727   -0.1844    0.8659 C   0  0  0  0  0  0  0  0  0  0  0  0
    2.6580   -0.8145    0.5965 C   0  0  0  0  0  0  0  0  0  0  0  0
    2.7182    1.9417    0.9369 C   0  0  0  0  0  0  0  0  0  0  0  0
   -0.0678   -1.8101    0.7509 C   0  0  0  0  0  0  0  0  0  0  0  0
    1.4987    1.3237    0.6630 C   0  0  0  0  0  0  0  0  0  0  0  0
    3.8903    1.1930    1.0343 C   0  0  0  0  0  0  0  0  0  0  0  0
    1.4609   -0.0843    0.5055 C   0  0  0  0  0  0  0  0  0  0  0  0
    5.7155    2.6880    0.5666 C   0  0  0  0  0  0  0  0  0  0  0  0
    6.6857    3.4306    0.8921 N   0  0  0  0  0  0  0  0  0  0  0  0
    0.2259   -0.6807    0.2113 N   0  0  0  0  0  0  0  0  0  0  0  0
   -1.1642   -2.5450    0.4093 N   0  0  0  0  0  0  0  0  0  0  0  0
    5.2055    2.6950   -0.6866 O   0  0  0  0  0  0  0  0  0  0  0  0
    5.1018    1.8004    1.3900 O   0  0  0  0  0  0  0  0  0  0  0  0
    0.4382    3.2031    0.5939 H   0  0  0  0  0  0  0  0  0  0  0  0
   -0.4659    1.8904    1.3734 H   0  0  0  0  0  0  0  0  0  0  0  0
   -0.3016    1.9036   -0.3735 H   0  0  0  0  0  0  0  0  0  0  0  0
    8.1048    2.7932    2.3054 H   0  0  0  0  0  0  0  0  0  0  0  0
    6.4768    3.0033    2.9849 H   0  0  0  0  0  0  0  0  0  0  0  0
    7.4669    4.4201    2.5510 H   0  0  0  0  0  0  0  0  0  0  0  0
   -2.5415   -2.8783   -1.1276 H   0  0  0  0  0  0  0  0  0  0  0  0
   -1.5686   -1.3825   -1.2657 H   0  0  0  0  0  0  0  0  0  0  0  0
   -2.9151   -1.4637   -0.1084 H   0  0  0  0  0  0  0  0  0  0  0  0
   -1.9069   -4.4952    0.6400 H   0  0  0  0  0  0  0  0  0  0  0  0
   -2.4779   -3.3471    1.8725 H   0  0  0  0  0  0  0  0  0  0  0  0
   -0.8041   -3.9458    1.9193 H   0  0  0  0  0  0  0  0  0  0  0  0
    4.7986   -0.7470    0.9310 H   0  0  0  0  0  0  0  0  0  0  0  0
    2.6403   -1.8860    0.4171 H   0  0  0  0  0  0  0  0  0  0  0  0
    2.7622    3.0185    1.0734 H   0  0  0  0  0  0  0  0  0  0  0  0
    0.5490   -2.2823    1.5271 H   0  0  0  0  0  0  0  0  0  0  0  0
    5.7362    3.3583   -1.1620 H   0  0  0  0  0  0  0  0  0  0  0  0
  1 18  1  0  0  0  0
  1  9  1  0  0  0  0
  1 19  1  0  0  0  0
  2 21  1  0  0  0  0
  2 23  1  0  0  0  0
  2 22  1  0  0  0  0
  3 26  1  0  0  0  0
  3 15  1  0  0  0  0
  4 28  1  0  0  0  0
  4 29  1  0  0  0  0
  5 30  1  0  0  0  0
  5 10  2  0  0  0  0
  6  5  1  0  0  0  0
  7 10  1  0  0  0  0
  7 32  1  0  0  0  0
  8 33  1  0  0  0  0
  9  7  2  0  0  0  0
 10 17  1  0  0  0  0
 11  6  2  0  0  0  0
 11  9  1  0  0  0  0
 12 13  2  0  0  0  0
 12 17  1  0  0  0  0
 13  2  1  0  0  0  0
 14 11  1  0  0  0  0
 14  8  2  0  0  0  0
 15  8  1  0  0  0  0
 15  4  1  0  0  0  0
 16 12  1  0  0  0  0
 20  1  1  0  0  0  0
 24  3  1  0  0  0  0
 25  3  1  0  0  0  0
 27  4  1  0  0  0  0
 31  6  1  0  0  0  0
 34 16  1  0  0  0  0
M  END
>  <HBA>
5

>  <HBD>
1

>  <TPSA>
53.93

>  <cid>
28699

>  <dipole>
4.94

>  <excitation_energy_1>
4.47

>  <excitation_energy_2>
4.673

>  <excitation_energy_3>
4.787

>  <excitation_energy_4>
5.173

>  <homo_energy>
-5.298

>  <homo_lumo_gap>
5.167

>  <logP>
2.325

>  <lumo_energy>
-0.131

>  <melting_point>
99.05

>  <molecular_refractivity>
67.82

>  <oscillator_strength_1>
0.391

>  <oscillator_strength_2>
0.067

>  <oscillator_strength_3>
0.0715

>  <oscillator_strength_4>
0.0176

>  <open_babel_can_smiles>
C/N=C(\Oc1ccc(c(c1)C)/N=C/N(C)C)/O

>  <mulliken_charges>
34
1   -0.513621
2   -0.320784
3   -0.310451
4   -0.310654
5   -0.174471
6   -0.177855
7   -0.219844
8   0.259584
9   0.139001
10   0.36309
11   0.233439
12   0.70278
13   -0.485555
14   -0.5343
15   -0.369361
16   -0.589873
17   -0.542103
18   0.143701
19   0.15681
20   0.170011
21   0.150292
22   0.15117
23   0.149675
24   0.150605
25   0.199927
26   0.154693
27   0.161896
28   0.157959
29   0.165707
30   0.134906
31   0.124003
32   0.129675
33   0.129216
34   0.420731

>  <lowdin_charges>
34
1   -0.436552
2   -0.353898
3   -0.356138
4   -0.348791
5   -0.174468
6   -0.183393
7   -0.176448
8   -0.02707
9   -0.005961
10   0.090769
11   0.034192
12   0.189707
13   -0.270651
14   -0.223654
15   -0.089535
16   -0.363001
17   -0.162047
18   0.149379
19   0.159833
20   0.166416
21   0.148769
22   0.144414
23   0.148687
24   0.153057
25   0.182374
26   0.149392
27   0.154537
28   0.14751
29   0.162561
30   0.165929
31   0.154117
32   0.16082
33   0.137081
34   0.372061

$$$$

