PCCDB-ID:  51507
public computational chemistry database (PCCDB) project, http://pccdb.org

 28 28  0  0  0  0  0  0  0  0999 V2000
    1.6948   -1.5538    0.4720 C   0  0  0  0  0  0  0  0  0  0  0  0
   -0.6489   -2.3065    0.0422 C   0  0  0  0  0  0  0  0  0  0  0  0
   -0.1845   -0.1659    1.3570 C   0  0  0  0  0  0  0  0  0  0  0  0
   -2.2337    0.3443   -1.2343 C   0  0  0  0  0  0  0  0  0  0  0  0
   -3.2796    0.9825   -1.9023 C   0  0  0  0  0  0  0  0  0  0  0  0
   -0.7244    1.0766   -2.9603 C   0  0  0  0  0  0  0  0  0  0  0  0
   -0.9319    0.3795   -1.7523 C   0  0  0  0  0  0  0  0  0  0  0  0
   -3.0612    1.6682   -3.0961 C   0  0  0  0  0  0  0  0  0  0  0  0
   -1.7554    1.7132   -3.6317 C   0  0  0  0  0  0  0  0  0  0  0  0
    0.2919   -0.2569   -1.1478 C   0  0  0  0  0  0  0  0  0  0  0  0
    0.2638   -1.0633    0.1784 C   0  0  0  0  0  0  0  0  0  0  0  0
   -4.0416    2.3069   -3.7895 O   0  0  0  0  0  0  0  0  0  0  0  0
   -1.5898    2.3956   -4.8023 O   0  0  0  0  0  0  0  0  0  0  0  0
    1.3594   -0.1289   -1.7362 O   0  0  0  0  0  0  0  0  0  0  0  0
    1.7014   -2.1285    1.4056 H   0  0  0  0  0  0  0  0  0  0  0  0
    2.3898   -0.7157    0.5742 H   0  0  0  0  0  0  0  0  0  0  0  0
    2.0702   -2.1927   -0.3322 H   0  0  0  0  0  0  0  0  0  0  0  0
   -0.5883   -2.9053    0.9588 H   0  0  0  0  0  0  0  0  0  0  0  0
   -0.3194   -2.9391   -0.7902 H   0  0  0  0  0  0  0  0  0  0  0  0
   -1.6997   -2.0606   -0.1262 H   0  0  0  0  0  0  0  0  0  0  0  0
   -0.1354   -0.7392    2.2905 H   0  0  0  0  0  0  0  0  0  0  0  0
   -1.2025    0.2157    1.2533 H   0  0  0  0  0  0  0  0  0  0  0  0
    0.4844    0.6961    1.4618 H   0  0  0  0  0  0  0  0  0  0  0  0
   -2.4616   -0.1717   -0.3122 H   0  0  0  0  0  0  0  0  0  0  0  0
   -4.2864    0.9473   -1.4896 H   0  0  0  0  0  0  0  0  0  0  0  0
    0.2857    1.1011   -3.3604 H   0  0  0  0  0  0  0  0  0  0  0  0
   -4.8799    2.2010   -3.3128 H   0  0  0  0  0  0  0  0  0  0  0  0
   -0.6527    2.3514   -5.0499 H   0  0  0  0  0  0  0  0  0  0  0  0
  1 16  1  0  0  0  0
  1 15  1  0  0  0  0
  2 11  1  0  0  0  0
  2 18  1  0  0  0  0
  3 23  1  0  0  0  0
  3 21  1  0  0  0  0
  4 24  1  0  0  0  0
  5 25  1  0  0  0  0
  5  4  2  0  0  0  0
  6  7  2  0  0  0  0
  7  4  1  0  0  0  0
  7 10  1  0  0  0  0
  8  5  1  0  0  0  0
  9  8  2  0  0  0  0
  9  6  1  0  0  0  0
 10 11  1  0  0  0  0
 11  1  1  0  0  0  0
 11  3  1  0  0  0  0
 12 27  1  0  0  0  0
 12  8  1  0  0  0  0
 13  9  1  0  0  0  0
 14 10  2  0  0  0  0
 17  1  1  0  0  0  0
 19  2  1  0  0  0  0
 20  2  1  0  0  0  0
 22  3  1  0  0  0  0
 26  6  1  0  0  0  0
 28 13  1  0  0  0  0
M  END
>  <HBA>
3

>  <HBD>
2

>  <TPSA>
57.53

>  <cid>
51507

>  <dipole>
2.98

>  <excitation_energy_1>
3.752

>  <excitation_energy_2>
4.194

>  <excitation_energy_3>
4.73

>  <excitation_energy_4>
5.06

>  <homo_energy>
-5.913

>  <homo_lumo_gap>
4.659

>  <logP>
2.327

>  <lumo_energy>
-1.254

>  <melting_point>
136.86

>  <molecular_refractivity>
54.84

>  <oscillator_strength_1>
0.0003

>  <oscillator_strength_2>
0.1214

>  <oscillator_strength_3>
0.1467

>  <oscillator_strength_4>
0.0002

>  <open_babel_can_smiles>
O=C(C(C)(C)C)c1ccc(c(c1)O)O

>  <mulliken_charges>
28
1   -0.426264
2   -0.45766
3   -0.457425
4   -0.195098
5   -0.206824
6   -0.245713
7   0.071602
8   0.33284
9   0.337698
10   0.402843
11   -0.001392
12   -0.62128
13   -0.634668
14   -0.474588
15   0.128169
16   0.153038
17   0.153164
18   0.147531
19   0.155125
20   0.148086
21   0.147369
22   0.148131
23   0.15497
24   0.136727
25   0.123521
26   0.156164
27   0.411563
28   0.41237

>  <lowdin_charges>
28
1   -0.437829
2   -0.442854
3   -0.442811
4   -0.160669
5   -0.210957
6   -0.182161
7   -0.058791
8   0.091646
9   0.078658
10   0.161324
11   -0.012635
12   -0.353999
13   -0.366133
14   -0.251953
15   0.142936
16   0.157019
17   0.157526
18   0.152827
19   0.156389
20   0.148946
21   0.152535
22   0.149601
23   0.155982
24   0.163174
25   0.155572
26   0.174888
27   0.361666
28   0.360099

$$$$

