PCCDB-ID:  21996
public computational chemistry database (PCCDB) project, http://pccdb.org

 17 17  0  0  1  0  0  0  0  0999 V2000
    1.0828   -0.2793   -0.0597 C   0  0  0  0  0  0  0  0  0  0  0  0
    3.1012   -2.4622   -0.4213 C   0  0  0  0  0  0  0  0  0  0  0  0
    2.9991    1.2231   -0.8430 C   0  0  0  0  0  0  0  0  0  0  0  0
    3.4736    0.5303   -2.1003 C   0  0  0  0  0  0  0  0  0  0  0  0
    2.5926   -0.0030    0.0082 C   0  0  2  0  0  0  0  0  0  0  0  0
    3.6903   -0.7250   -1.9400 N   0  0  0  0  0  0  0  0  0  0  0  0
    3.4301   -1.0624   -0.6177 N   0  0  0  0  0  0  0  0  0  0  0  0
    0.5315    0.5658    0.3687 H   0  0  0  0  0  0  0  0  0  0  0  0
    0.8062   -1.1760    0.5045 H   0  0  0  0  0  0  0  0  0  0  0  0
    0.7524   -0.4107   -1.0965 H   0  0  0  0  0  0  0  0  0  0  0  0
    3.0935   -2.6784    0.6524 H   0  0  0  0  0  0  0  0  0  0  0  0
    3.8819   -3.0652   -0.8912 H   0  0  0  0  0  0  0  0  0  0  0  0
    2.1300   -2.7609   -0.8473 H   0  0  0  0  0  0  0  0  0  0  0  0
    2.1732    1.9243   -1.0052 H   0  0  0  0  0  0  0  0  0  0  0  0
    3.8237    1.7852   -0.3805 H   0  0  0  0  0  0  0  0  0  0  0  0
    3.6923    1.0079   -3.0492 H   0  0  0  0  0  0  0  0  0  0  0  0
    2.8960    0.1094    1.0548 H   0  0  0  0  0  0  0  0  0  0  0  0
  1  5  1  0  0  0  0
  1  8  1  0  0  0  0
  1  9  1  0  0  0  0
  2 11  1  0  0  0  0
  3 15  1  0  0  0  0
  3  5  1  0  0  0  0
  4  6  1  0  0  0  0
  4  3  1  0  0  0  0
  5 17  1  1  0  0  0
  6  7  1  0  0  0  0
  7  2  1  0  0  0  0
  7  5  1  0  0  0  0
 10  1  1  0  0  0  0
 12  2  1  0  0  0  0
 13  2  1  0  0  0  0
 14  3  1  0  0  0  0
 16  4  1  0  0  0  0
M  RAD  2   4   2   6   2
M  END
>  <HBA>
2

>  <HBD>
0

>  <TPSA>
15.6

>  <cid>
21996

>  <dipole>
2.1

>  <excitation_energy_1>
4.811

>  <excitation_energy_2>
5.064

>  <excitation_energy_3>
5.336

>  <excitation_energy_4>
5.488

>  <homo_energy>
-5.317

>  <homo_lumo_gap>
5.791

>  <logP>
0.07

>  <lumo_energy>
0.473

>  <melting_point>
17.18

>  <molecular_refractivity>
37.86

>  <oscillator_strength_1>
0.0121

>  <oscillator_strength_2>
0.1227

>  <oscillator_strength_3>
0.0038

>  <oscillator_strength_4>
0.0092

>  <open_babel_can_smiles>
CN1[N][CH]C[C@H]1C

>  <mulliken_charges>
17
1   -0.458774
2   -0.289607
3   -0.343383
4   0.034087
5   0.044901
6   -0.212318
7   -0.280095
8   0.146786
9   0.150919
10   0.158481
11   0.147012
12   0.172086
13   0.137064
14   0.151296
15   0.159899
16   0.142208
17   0.139436

>  <lowdin_charges>
17
1   -0.459713
2   -0.355404
3   -0.297518
4   -0.158887
5   -0.063069
6   -0.093026
7   -0.109597
8   0.155334
9   0.154053
10   0.155349
11   0.148384
12   0.167059
13   0.133246
14   0.156989
15   0.15985
16   0.162125
17   0.144824

$$$$

