PCCDB-ID:  69841
public computational chemistry database (PCCDB) project, http://pccdb.org

 19 19  0  0  0  0  0  0  0  0999 V2000
    4.6545   -1.9866   -0.7631 C   0  0  0  0  0  0  0  0  0  0  0  0
   -0.2662   -2.2054    0.2338 C   0  0  0  0  0  0  0  0  0  0  0  0
    0.6796   -3.3254   -0.2672 C   0  0  0  0  0  0  0  0  0  0  0  0
    2.6116   -0.9310    0.4472 C   0  0  0  0  0  0  0  0  0  0  0  0
    4.0916   -1.3077    0.4676 C   0  0  0  0  0  0  0  0  0  0  0  0
    1.7866   -1.9794    1.2246 C   0  0  0  0  0  0  0  0  0  0  0  0
    4.7566   -1.1106    1.4675 O   0  0  0  0  0  0  0  0  0  0  0  0
    0.4285   -1.6118    1.3288 O   0  0  0  0  0  0  0  0  0  0  0  0
    1.8157   -3.2489    0.5944 O   0  0  0  0  0  0  0  0  0  0  0  0
    4.5279   -1.3531   -1.6501 H   0  0  0  0  0  0  0  0  0  0  0  0
    4.0950   -2.9134   -0.9427 H   0  0  0  0  0  0  0  0  0  0  0  0
    5.7124   -2.2137   -0.6171 H   0  0  0  0  0  0  0  0  0  0  0  0
   -1.2212   -2.5851    0.6088 H   0  0  0  0  0  0  0  0  0  0  0  0
   -0.4693   -1.4641   -0.5506 H   0  0  0  0  0  0  0  0  0  0  0  0
    0.9701   -3.1716   -1.3151 H   0  0  0  0  0  0  0  0  0  0  0  0
    0.2513   -4.3271   -0.1692 H   0  0  0  0  0  0  0  0  0  0  0  0
    2.2240   -0.8441   -0.5745 H   0  0  0  0  0  0  0  0  0  0  0  0
    2.4912    0.0299    0.9568 H   0  0  0  0  0  0  0  0  0  0  0  0
    2.1927   -2.0917    2.2344 H   0  0  0  0  0  0  0  0  0  0  0  0
  1 12  1  0  0  0  0
  1  5  1  0  0  0  0
  2 13  1  0  0  0  0
  2  8  1  0  0  0  0
  3 16  1  0  0  0  0
  3  2  1  0  0  0  0
  3  9  1  0  0  0  0
  4  5  1  0  0  0  0
  4 18  1  0  0  0  0
  4  6  1  0  0  0  0
  5  7  2  0  0  0  0
  6  8  1  0  0  0  0
  6 19  1  0  0  0  0
  9  6  1  0  0  0  0
 10  1  1  0  0  0  0
 11  1  1  0  0  0  0
 14  2  1  0  0  0  0
 15  3  1  0  0  0  0
 17  4  1  0  0  0  0
M  END
>  <HBA>
3

>  <HBD>
0

>  <TPSA>
35.53

>  <cid>
69841

>  <dipole>
4.21

>  <excitation_energy_1>
4.317

>  <excitation_energy_2>
5.894

>  <excitation_energy_3>
6.076

>  <excitation_energy_4>
6.224

>  <homo_energy>
-6.572

>  <homo_lumo_gap>
6.163

>  <logP>
0.338

>  <lumo_energy>
-0.408

>  <melting_point>
-0.49

>  <molecular_refractivity>
31.21

>  <oscillator_strength_1>
0.0009

>  <oscillator_strength_2>
0.0424

>  <oscillator_strength_3>
0.0222

>  <oscillator_strength_4>
0.0193

>  <open_babel_can_smiles>
CC(=O)CC1OCCO1

>  <mulliken_charges>
19
1   -0.534914
2   -0.056367
3   -0.057944
4   -0.357607
5   0.459882
6   0.341969
7   -0.442913
8   -0.480237
9   -0.485533
10   0.162324
11   0.18569
12   0.17787
13   0.160068
14   0.143142
15   0.14044
16   0.160739
17   0.136219
18   0.17904
19   0.168131

>  <lowdin_charges>
19
1   -0.476082
2   -0.147336
3   -0.145381
4   -0.334638
5   0.171445
6   0.108804
7   -0.238055
8   -0.257293
9   -0.267333
10   0.166584
11   0.178533
12   0.170316
13   0.155186
14   0.139812
15   0.13562
16   0.154758
17   0.150559
18   0.177376
19   0.157125

$$$$

