PCCDB-ID:  70796
public computational chemistry database (PCCDB) project, http://pccdb.org

 30 30  0  0  0  0  0  0  0  0999 V2000
    0.1739   -0.5514   -4.0237 C   0  0  0  0  0  0  0  0  0  0  0  0
    1.3088   -0.8047   -3.0191 C   0  0  0  0  0  0  0  0  0  0  0  0
   -0.9903    0.2108   -3.3728 C   0  0  0  0  0  0  0  0  0  0  0  0
    0.9724    0.2866    0.8597 C   0  0  0  0  0  0  0  0  0  0  0  0
    0.7920   -1.5206   -1.7590 C   0  0  0  0  0  0  0  0  0  0  0  0
   -1.4938   -0.5099   -2.1101 C   0  0  0  0  0  0  0  0  0  0  0  0
    0.0481    0.5190   -0.3449 C   0  0  0  0  0  0  0  0  0  0  0  0
    1.2245    1.5763    1.6335 C   0  0  0  0  0  0  0  0  0  0  0  0
    1.7168    0.9227    3.8660 C   0  0  0  0  0  0  0  0  0  0  0  0
   -0.3770   -0.7749   -1.0749 C   0  0  0  0  0  0  0  0  0  0  0  0
    0.5659    0.6634    4.1233 O   0  0  0  0  0  0  0  0  0  0  0  0
    2.1930    1.3789    2.6973 O   0  0  0  0  0  0  0  0  0  0  0  0
   -0.1948   -1.5183   -4.3978 H   0  0  0  0  0  0  0  0  0  0  0  0
    0.5504   -0.0024   -4.8963 H   0  0  0  0  0  0  0  0  0  0  0  0
    1.7716    0.1537   -2.7436 H   0  0  0  0  0  0  0  0  0  0  0  0
    2.1016   -1.4035   -3.4854 H   0  0  0  0  0  0  0  0  0  0  0  0
   -1.8154    0.3260   -4.0874 H   0  0  0  0  0  0  0  0  0  0  0  0
   -0.6625    1.2285   -3.1180 H   0  0  0  0  0  0  0  0  0  0  0  0
    1.9386   -0.1190    0.5368 H   0  0  0  0  0  0  0  0  0  0  0  0
    0.5218   -0.4476    1.5386 H   0  0  0  0  0  0  0  0  0  0  0  0
    1.6140   -1.6864   -1.0516 H   0  0  0  0  0  0  0  0  0  0  0  0
    0.4358   -2.5203   -2.0477 H   0  0  0  0  0  0  0  0  0  0  0  0
   -1.9258   -1.4761   -2.4091 H   0  0  0  0  0  0  0  0  0  0  0  0
   -2.3079    0.0622   -1.6451 H   0  0  0  0  0  0  0  0  0  0  0  0
    0.5315    1.2161   -1.0428 H   0  0  0  0  0  0  0  0  0  0  0  0
   -0.8640    1.0250    0.0039 H   0  0  0  0  0  0  0  0  0  0  0  0
    0.2997    1.9649    2.0684 H   0  0  0  0  0  0  0  0  0  0  0  0
    1.6755    2.3427    0.9976 H   0  0  0  0  0  0  0  0  0  0  0  0
    2.5540    0.8235    4.5744 H   0  0  0  0  0  0  0  0  0  0  0  0
   -0.7921   -1.4428   -0.3055 H   0  0  0  0  0  0  0  0  0  0  0  0
  1  3  1  0  0  0  0
  1  2  1  0  0  0  0
  2 15  1  0  0  0  0
  2  5  1  0  0  0  0
  3 18  1  0  0  0  0
  3  6  1  0  0  0  0
  4 20  1  0  0  0  0
  4  8  1  0  0  0  0
  5 10  1  0  0  0  0
  5 21  1  0  0  0  0
  6 24  1  0  0  0  0
  6 10  1  0  0  0  0
  7 26  1  0  0  0  0
  7  4  1  0  0  0  0
  8 27  1  0  0  0  0
  8 12  1  0  0  0  0
  9 11  2  0  0  0  0
  9 29  1  0  0  0  0
 10  7  1  0  0  0  0
 10 30  1  0  0  0  0
 12  9  1  0  0  0  0
 13  1  1  0  0  0  0
 14  1  1  0  0  0  0
 16  2  1  0  0  0  0
 17  3  1  0  0  0  0
 19  4  1  0  0  0  0
 22  5  1  0  0  0  0
 23  6  1  0  0  0  0
 25  7  1  0  0  0  0
 28  8  1  0  0  0  0
M  END
>  <HBA>
2

>  <HBD>
0

>  <TPSA>
26.3

>  <cid>
70796

>  <dipole>
1.99

>  <excitation_energy_1>
5.803

>  <excitation_energy_2>
7.239

>  <excitation_energy_3>
7.3

>  <excitation_energy_4>
7.327

>  <homo_energy>
-7.608

>  <homo_lumo_gap>
7.853

>  <logP>
3.156

>  <lumo_energy>
0.245

>  <melting_point>
-21.87

>  <molecular_refractivity>
49.74

>  <oscillator_strength_1>
0.0012

>  <oscillator_strength_2>
0.0224

>  <oscillator_strength_3>
0.0204

>  <oscillator_strength_4>
0.0003

>  <open_babel_can_smiles>
O=COCCCC1CCCCC1

>  <mulliken_charges>
30
1   -0.254504
2   -0.260371
3   -0.260648
4   -0.285389
5   -0.269583
6   -0.266544
7   -0.272382
8   -0.054129
9   0.38873
10   -0.07437
11   -0.422488
12   -0.417888
13   0.127225
14   0.129237
15   0.128666
16   0.131256
17   0.131124
18   0.130136
19   0.149059
20   0.160792
21   0.132247
22   0.128694
23   0.127585
24   0.127714
25   0.133846
26   0.133922
27   0.169155
28   0.153091
29   0.135705
30   0.120111

>  <lowdin_charges>
30
1   -0.278142
2   -0.281178
3   -0.280102
4   -0.289269
5   -0.282201
6   -0.280096
7   -0.281264
8   -0.134886
9   0.086164
10   -0.129068
11   -0.255758
12   -0.185532
13   0.137007
14   0.143294
15   0.136538
16   0.145331
17   0.144671
18   0.136515
19   0.148321
20   0.156756
21   0.14315
22   0.140051
23   0.139667
24   0.142433
25   0.140648
26   0.143699
27   0.157978
28   0.154346
29   0.140508
30   0.140418

$$$$

