PCCDB-ID:  774
public computational chemistry database (PCCDB) project, http://pccdb.org

 17 17  0  0  0  0  0  0  0  0999 V2000
    1.0245    0.1026    0.0371 C   0  0  0  0  0  0  0  0  0  0  0  0
    0.3658    1.4905   -0.0376 C   0  0  0  0  0  0  0  0  0  0  0  0
    3.4663   -0.6276   -0.6518 C   0  0  0  0  0  0  0  0  0  0  0  0
    4.5742    0.8180    0.4672 C   0  0  0  0  0  0  0  0  0  0  0  0
    2.5220    0.1368   -0.0037 C   0  0  0  0  0  0  0  0  0  0  0  0
    0.7041    2.2939    1.1553 N   0  0  0  0  0  0  0  0  0  0  0  0
    4.7417   -0.2001   -0.3525 N   0  0  0  0  0  0  0  0  0  0  0  0
    3.2556    1.0570    0.7207 N   0  0  0  0  0  0  0  0  0  0  0  0
    0.6640   -0.5068   -0.7995 H   0  0  0  0  0  0  0  0  0  0  0  0
    0.6674   -0.3988    0.9520 H   0  0  0  0  0  0  0  0  0  0  0  0
   -0.7207    1.3669   -0.1778 H   0  0  0  0  0  0  0  0  0  0  0  0
    0.7469    2.0249   -0.9150 H   0  0  0  0  0  0  0  0  0  0  0  0
    3.2972   -1.4654   -1.3166 H   0  0  0  0  0  0  0  0  0  0  0  0
    5.3661    1.4110    0.9059 H   0  0  0  0  0  0  0  0  0  0  0  0
    0.2213    1.9114    1.9687 H   0  0  0  0  0  0  0  0  0  0  0  0
    0.3555    3.2445    1.0420 H   0  0  0  0  0  0  0  0  0  0  0  0
    2.8052    1.8132    1.2313 H   0  0  0  0  0  0  0  0  0  0  0  0
  1 10  1  0  0  0  0
  2  1  1  0  0  0  0
  2  6  1  0  0  0  0
  3  7  1  0  0  0  0
  3  5  2  0  0  0  0
  4  8  1  0  0  0  0
  4 14  1  0  0  0  0
  5  1  1  0  0  0  0
  5  8  1  0  0  0  0
  6 15  1  0  0  0  0
  7  4  2  0  0  0  0
  8 17  1  0  0  0  0
  9  1  1  0  0  0  0
 11  2  1  0  0  0  0
 12  2  1  0  0  0  0
 13  3  1  0  0  0  0
 16  6  1  0  0  0  0
M  END
>  <HBA>
2

>  <HBD>
2

>  <TPSA>
54.7

>  <cid>
774

>  <dipole>
5.77

>  <excitation_energy_1>
4.87

>  <excitation_energy_2>
5.522

>  <excitation_energy_3>
5.701

>  <excitation_energy_4>
5.724

>  <homo_energy>
-5.521

>  <homo_lumo_gap>
6.759

>  <logP>
0.611

>  <lumo_energy>
1.238

>  <melting_point>
123.52

>  <molecular_refractivity>
31.07

>  <oscillator_strength_1>
0.0194

>  <oscillator_strength_2>
0.0146

>  <oscillator_strength_3>
0.0096

>  <oscillator_strength_4>
0.0163

>  <open_babel_can_smiles>
NCCc1cnc[nH]1

>  <mulliken_charges>
17
1   -0.345163
2   -0.147167
3   -0.088375
4   0.199797
5   0.317295
6   -0.737107
7   -0.432157
8   -0.594213
9   0.15734
10   0.146475
11   0.129143
12   0.158556
13   0.119283
14   0.142832
15   0.306045
16   0.311628
17   0.355788

>  <lowdin_charges>
17
1   -0.277924
2   -0.203839
3   -0.18126
4   -0.104695
5   -0.020491
6   -0.555405
7   -0.195007
8   -0.189223
9   0.164235
10   0.148378
11   0.127179
12   0.152034
13   0.154446
14   0.162491
15   0.259096
16   0.262335
17   0.297649

$$$$

