PCCDB-ID:  24248
public computational chemistry database (PCCDB) project, http://pccdb.org

 26 27  0  0  0  0  0  0  0  0999 V2000
   -0.8588   -0.6380   -0.5450 C   0  0  0  0  0  0  0  0  0  0  0  0
   -0.0222   -1.6353   -0.0261 C   0  0  0  0  0  0  0  0  0  0  0  0
   -0.3077    0.5140   -1.1088 C   0  0  0  0  0  0  0  0  0  0  0  0
    1.3589   -1.4889   -0.0707 C   0  0  0  0  0  0  0  0  0  0  0  0
    1.0763    0.6699   -1.1521 C   0  0  0  0  0  0  0  0  0  0  0  0
    7.3583    0.6648   -0.9417 C   0  0  0  0  0  0  0  0  0  0  0  0
    7.6721   -1.5867   -0.0604 C   0  0  0  0  0  0  0  0  0  0  0  0
    5.9853    0.4952   -0.8936 C   0  0  0  0  0  0  0  0  0  0  0  0
    6.2924   -1.7453   -0.0107 C   0  0  0  0  0  0  0  0  0  0  0  0
   10.5665    0.4269   -0.7736 C   0  0  0  0  0  0  0  0  0  0  0  0
    8.2108   -0.3779   -0.5227 C   0  0  0  0  0  0  0  0  0  0  0  0
    1.9153   -0.3291   -0.6388 C   0  0  0  0  0  0  0  0  0  0  0  0
    5.4378   -0.7141   -0.4243 C   0  0  0  0  0  0  0  0  0  0  0  0
    9.5819   -0.2229   -0.5679 N   0  0  0  0  0  0  0  0  0  0  0  0
    3.3026   -0.0652   -0.7427 N   0  0  0  0  0  0  0  0  0  0  0  0
    4.0536   -0.9900   -0.3259 N   0  0  0  0  0  0  0  0  0  0  0  0
   11.9347    1.1946   -1.0128 S   0  0  0  0  0  0  0  0  0  0  0  0
   -1.9377   -0.7624   -0.5063 H   0  0  0  0  0  0  0  0  0  0  0  0
   -0.4567   -2.5277    0.4166 H   0  0  0  0  0  0  0  0  0  0  0  0
   -0.9544    1.2884   -1.5116 H   0  0  0  0  0  0  0  0  0  0  0  0
    2.0228   -2.2497    0.3240 H   0  0  0  0  0  0  0  0  0  0  0  0
    1.5362    1.5550   -1.5808 H   0  0  0  0  0  0  0  0  0  0  0  0
    7.7924    1.5938   -1.2985 H   0  0  0  0  0  0  0  0  0  0  0  0
    8.3405   -2.3809    0.2545 H   0  0  0  0  0  0  0  0  0  0  0  0
    5.3135    1.2829   -1.2151 H   0  0  0  0  0  0  0  0  0  0  0  0
    5.8489   -2.6689    0.3472 H   0  0  0  0  0  0  0  0  0  0  0  0
  1 18  1  0  0  0  0
  1  2  2  0  0  0  0
  2 19  1  0  0  0  0
  3  1  1  0  0  0  0
  4  2  1  0  0  0  0
  4 21  1  0  0  0  0
  5  3  2  0  0  0  0
  5 12  1  0  0  0  0
  6  8  2  0  0  0  0
  6 11  1  0  0  0  0
  7  9  1  0  0  0  0
  7 24  1  0  0  0  0
  8 13  1  0  0  0  0
  9 26  1  0  0  0  0
 10 14  2  0  0  0  0
 11  7  2  0  0  0  0
 12  4  2  0  0  0  0
 13 16  1  0  0  0  0
 13  9  2  0  0  0  0
 14 11  1  0  0  0  0
 15 12  1  0  0  0  0
 15 16  1  0  0  0  0
 17 10  2  0  0  0  0
 20  3  1  0  0  0  0
 22  5  1  0  0  0  0
 23  6  1  0  0  0  0
 25  8  1  0  0  0  0
M  RAD  2  15   2  16   2
M  END
>  <HBA>
4

>  <HBD>
0

>  <TPSA>
69.17

>  <cid>
24248

>  <dipole>
3.49

>  <excitation_energy_1>
2.563

>  <excitation_energy_2>
3.248

>  <excitation_energy_3>
3.876

>  <excitation_energy_4>
3.916

>  <homo_energy>
-6.109

>  <homo_lumo_gap>
3.551

>  <logP>
4.836

>  <lumo_energy>
-2.558

>  <melting_point>
118.6

>  <molecular_refractivity>
71.75

>  <oscillator_strength_1>
0.0014

>  <oscillator_strength_2>
1.1265

>  <oscillator_strength_3>
0.0087

>  <oscillator_strength_4>
0.0004

>  <open_babel_can_smiles>
S=C=Nc1ccc(cc1)[N][N]c1ccccc1

>  <mulliken_charges>
26
1   -0.116468
2   -0.145826
3   -0.138406
4   -0.121674
5   -0.138467
6   -0.146391
7   -0.144431
8   -0.137769
9   -0.15162
10   0.175438
11   0.283989
12   0.268619
13   0.284739
14   -0.413448
15   -0.306872
16   -0.311956
17   -0.087203
18   0.137743
19   0.138842
20   0.138412
21   0.156657
22   0.143486
23   0.157588
24   0.156148
25   0.166439
26   0.152429

>  <lowdin_charges>
26
1   -0.140681
2   -0.151967
3   -0.157026
4   -0.15017
5   -0.144322
6   -0.157144
7   -0.159401
8   -0.142751
9   -0.138946
10   -0.04099
11   0.065432
12   0.011252
13   0.013995
14   -0.070033
15   -0.079635
16   -0.083877
17   -0.005097
18   0.159787
19   0.161971
20   0.163436
21   0.175128
22   0.168661
23   0.172744
24   0.175258
25   0.180703
26   0.173672

$$$$

