PCCDB-ID:  60396
public computational chemistry database (PCCDB) project, http://pccdb.org

 23 23  0  0  0  0  0  0  0  0999 V2000
    1.0657    0.5077   -0.4622 C   0  0  0  0  0  0  0  0  0  0  0  0
    2.2477   -2.2206   -0.4846 C   0  0  0  0  0  0  0  0  0  0  0  0
    4.6731    1.2161    0.5488 C   0  0  0  0  0  0  0  0  0  0  0  0
    3.3266    1.3804    0.2256 C   0  0  0  0  0  0  0  0  0  0  0  0
    5.2349   -0.0568    0.5281 C   0  0  0  0  0  0  0  0  0  0  0  0
    2.5200    0.2879   -0.1122 C   0  0  0  0  0  0  0  0  0  0  0  0
    3.0742   -1.0103   -0.1269 C   0  0  0  0  0  0  0  0  0  0  0  0
    4.4311   -1.1385    0.1854 C   0  0  0  0  0  0  0  0  0  0  0  0
    5.4574   -2.9766   -0.8863 C   0  0  0  0  0  0  0  0  0  0  0  0
    5.3518   -2.4309   -2.0280 N   0  0  0  0  0  0  0  0  0  0  0  0
    5.9967   -4.1741   -0.5349 O   0  0  0  0  0  0  0  0  0  0  0  0
    5.0118   -2.4150    0.2548 O   0  0  0  0  0  0  0  0  0  0  0  0
    0.8174    1.5731   -0.4460 H   0  0  0  0  0  0  0  0  0  0  0  0
    0.3934    0.0004    0.2420 H   0  0  0  0  0  0  0  0  0  0  0  0
    0.8261    0.1239   -1.4617 H   0  0  0  0  0  0  0  0  0  0  0  0
    1.2297   -2.1426   -0.0902 H   0  0  0  0  0  0  0  0  0  0  0  0
    2.6945   -3.1343   -0.0856 H   0  0  0  0  0  0  0  0  0  0  0  0
    2.1725   -2.3360   -1.5737 H   0  0  0  0  0  0  0  0  0  0  0  0
    5.2821    2.0763    0.8124 H   0  0  0  0  0  0  0  0  0  0  0  0
    2.8888    2.3756    0.2363 H   0  0  0  0  0  0  0  0  0  0  0  0
    6.2787   -0.2269    0.7709 H   0  0  0  0  0  0  0  0  0  0  0  0
    5.7513   -3.0055   -2.7696 H   0  0  0  0  0  0  0  0  0  0  0  0
    6.3155   -4.6113   -1.3392 H   0  0  0  0  0  0  0  0  0  0  0  0
  1 13  1  0  0  0  0
  1  6  1  0  0  0  0
  1 14  1  0  0  0  0
  2  7  1  0  0  0  0
  2 16  1  0  0  0  0
  2 17  1  0  0  0  0
  3 19  1  0  0  0  0
  4 20  1  0  0  0  0
  4  3  2  0  0  0  0
  5  3  1  0  0  0  0
  5 21  1  0  0  0  0
  6  4  1  0  0  0  0
  7  6  2  0  0  0  0
  7  8  1  0  0  0  0
  8 12  1  0  0  0  0
  8  5  2  0  0  0  0
  9 11  1  0  0  0  0
  9 12  1  0  0  0  0
 10  9  2  0  0  0  0
 15  1  1  0  0  0  0
 18  2  1  0  0  0  0
 22 10  1  0  0  0  0
 23 11  1  0  0  0  0
M  END
>  <HBA>
3

>  <HBD>
1

>  <TPSA>
52.32

>  <cid>
60396

>  <dipole>
1.76

>  <excitation_energy_1>
5.233

>  <excitation_energy_2>
5.419

>  <excitation_energy_3>
5.469

>  <excitation_energy_4>
5.855

>  <homo_energy>
-6.316

>  <homo_lumo_gap>
6.438

>  <logP>
2.461

>  <lumo_energy>
0.122

>  <melting_point>
104.07

>  <molecular_refractivity>
46.16

>  <oscillator_strength_1>
0.0003

>  <oscillator_strength_2>
0.0006

>  <oscillator_strength_3>
0.0011

>  <oscillator_strength_4>
0.0059

>  <open_babel_can_smiles>
Cc1c(OC(=N)O)cccc1C

>  <mulliken_charges>
23
1   -0.534454
2   -0.542387
3   -0.143149
4   -0.172917
5   -0.144142
6   0.109825
7   0.1376
8   0.295352
9   0.628848
10   -0.602159
11   -0.567191
12   -0.512987
13   0.154709
14   0.161331
15   0.163166
16   0.152787
17   0.169223
18   0.174086
19   0.129837
20   0.119695
21   0.136153
22   0.27669
23   0.410084

>  <lowdin_charges>
23
1   -0.440964
2   -0.442484
3   -0.155835
4   -0.170414
5   -0.166584
6   -0.000952
7   -0.013017
8   0.101641
9   0.190933
10   -0.454677
11   -0.3629
12   -0.148569
13   0.155675
14   0.159855
15   0.159923
16   0.156822
17   0.165763
18   0.165364
19   0.159604
20   0.153735
21   0.165169
22   0.25926
23   0.362652

$$$$

