PCCDB-ID:  33633
public computational chemistry database (PCCDB) project, http://pccdb.org

 25 27  0  0  0  0  0  0  0  0999 V2000
    1.6873    1.7188    0.1947 C   0  0  0  0  0  0  0  0  0  0  0  0
    2.1523    0.4033    0.1691 C   0  0  0  0  0  0  0  0  0  0  0  0
    0.3208    2.0426    0.1391 C   0  0  0  0  0  0  0  0  0  0  0  0
    4.9660   -3.0900    0.1663 C   0  0  0  0  0  0  0  0  0  0  0  0
    4.1448   -4.4086    0.0884 C   0  0  0  0  0  0  0  0  0  0  0  0
   -2.3416   -0.3833   -0.0659 C   0  0  0  0  0  0  0  0  0  0  0  0
    1.2440   -0.6734    0.0834 C   0  0  0  0  0  0  0  0  0  0  0  0
   -0.5495    0.9705    0.0567 C   0  0  0  0  0  0  0  0  0  0  0  0
   -0.1028   -0.3383    0.0295 C   0  0  0  0  0  0  0  0  0  0  0  0
    2.8295   -2.5922    0.0859 C   0  0  0  0  0  0  0  0  0  0  0  0
    3.9683   -2.0157    0.1680 N   0  0  0  0  0  0  0  0  0  0  0  0
    1.5849   -2.0316    0.0472 N   0  0  0  0  0  0  0  0  0  0  0  0
    2.7712   -3.9605    0.0230 O   0  0  0  0  0  0  0  0  0  0  0  0
   -1.9266    0.9845   -0.0136 O   0  0  0  0  0  0  0  0  0  0  0  0
   -1.1693   -1.2125   -0.0589 O   0  0  0  0  0  0  0  0  0  0  0  0
    2.4143    2.5230    0.2595 H   0  0  0  0  0  0  0  0  0  0  0  0
    3.2105    0.1820    0.2133 H   0  0  0  0  0  0  0  0  0  0  0  0
   -0.0349    3.0663    0.1588 H   0  0  0  0  0  0  0  0  0  0  0  0
    5.6446   -2.9778   -0.6885 H   0  0  0  0  0  0  0  0  0  0  0  0
    5.5793   -3.0422    1.0746 H   0  0  0  0  0  0  0  0  0  0  0  0
    4.2532   -5.0443    0.9724 H   0  0  0  0  0  0  0  0  0  0  0  0
    4.3508   -5.0031   -0.8065 H   0  0  0  0  0  0  0  0  0  0  0  0
   -2.9048   -0.5604   -0.9899 H   0  0  0  0  0  0  0  0  0  0  0  0
   -2.9548   -0.6150    0.8140 H   0  0  0  0  0  0  0  0  0  0  0  0
    0.8188   -2.6875   -0.0145 H   0  0  0  0  0  0  0  0  0  0  0  0
  1 16  1  0  0  0  0
  2  1  1  0  0  0  0
  2 17  1  0  0  0  0
  3 18  1  0  0  0  0
  3  1  2  0  0  0  0
  4 11  1  0  0  0  0
  4 20  1  0  0  0  0
  5  4  1  0  0  0  0
  5 21  1  0  0  0  0
  6 15  1  0  0  0  0
  6 14  1  0  0  0  0
  6 24  1  0  0  0  0
  7  2  2  0  0  0  0
  8  3  1  0  0  0  0
  9  8  2  0  0  0  0
  9  7  1  0  0  0  0
 10 11  2  0  0  0  0
 12  7  1  0  0  0  0
 12 10  1  0  0  0  0
 13 10  1  0  0  0  0
 13  5  1  0  0  0  0
 14  8  1  0  0  0  0
 15  9  1  0  0  0  0
 19  4  1  0  0  0  0
 22  5  1  0  0  0  0
 23  6  1  0  0  0  0
 25 12  1  0  0  0  0
M  END
>  <HBA>
5

>  <HBD>
1

>  <TPSA>
52.08

>  <cid>
33633

>  <dipole>
2.14

>  <excitation_energy_1>
4.745

>  <excitation_energy_2>
4.925

>  <excitation_energy_3>
5.139

>  <excitation_energy_4>
5.248

>  <homo_energy>
-5.391

>  <homo_lumo_gap>
5.573

>  <logP>
0.722

>  <lumo_energy>
0.182

>  <melting_point>
103.49

>  <molecular_refractivity>
57.41

>  <oscillator_strength_1>
0.061

>  <oscillator_strength_2>
0.0008

>  <oscillator_strength_3>
0.2088

>  <oscillator_strength_4>
0.0042

>  <open_babel_can_smiles>
C1CN=C(O1)Nc1cccc2c1OCO2

>  <mulliken_charges>
25
1   -0.157313
2   -0.1768
3   -0.183982
4   -0.162916
5   -0.05832
6   0.200388
7   0.341826
8   0.338979
9   0.235051
10   0.762913
11   -0.496996
12   -0.786077
13   -0.512663
14   -0.536377
15   -0.558892
16   0.131962
17   0.184449
18   0.138869
19   0.152782
20   0.152799
21   0.157386
22   0.157701
23   0.159323
24   0.157878
25   0.358029

>  <lowdin_charges>
25
1   -0.15476
2   -0.194706
3   -0.199925
4   -0.208285
5   -0.138541
6   0.021256
7   0.043994
8   0.078326
9   0.037201
10   0.164019
11   -0.273298
12   -0.227637
13   -0.229947
14   -0.211176
15   -0.227009
16   0.161982
17   0.187665
18   0.167761
19   0.148647
20   0.14889
21   0.151248
22   0.152047
23   0.148486
24   0.147222
25   0.306538

$$$$

