PCCDB-ID:  59469
public computational chemistry database (PCCDB) project, http://pccdb.org

 32 32  0  0  1  0  0  0  0  0999 V2000
    0.9530    0.0372   -0.6375 C   0  0  0  0  0  0  0  0  0  0  0  0
    5.4569    0.4074    0.0021 C   0  0  0  0  0  0  0  0  0  0  0  0
    3.8303    4.4411    1.2560 C   0  0  0  0  0  0  0  0  0  0  0  0
   -0.5302    2.6272    3.0244 C   0  0  0  0  0  0  0  0  0  0  0  0
   -0.0049    3.9125    2.9396 C   0  0  0  0  0  0  0  0  0  0  0  0
    0.2224    1.5492    2.5485 C   0  0  0  0  0  0  0  0  0  0  0  0
    1.2622    4.1214    2.3867 C   0  0  0  0  0  0  0  0  0  0  0  0
    2.2921    0.5467    1.4692 C   0  0  0  0  0  0  0  0  0  0  0  0
    2.3269    0.4160   -0.0762 C   0  0  1  0  0  0  0  0  0  0  0  0
    1.4880    1.7201    1.9835 C   0  0  0  0  0  0  0  0  0  0  0  0
    2.0024    3.0339    1.9128 C   0  0  0  0  0  0  0  0  0  0  0  0
    4.5196    0.0169   -1.0566 N   0  0  0  0  0  0  0  0  0  0  0  0
    3.3260   -0.6169   -0.4573 N   0  0  0  0  0  0  0  0  0  0  0  0
    3.2542    3.1500    1.3632 O   0  0  0  0  0  0  0  0  0  0  0  0
    0.1779    0.7252   -0.2865 H   0  0  0  0  0  0  0  0  0  0  0  0
    0.6725   -0.9759   -0.3187 H   0  0  0  0  0  0  0  0  0  0  0  0
    0.9564    0.0636   -1.7342 H   0  0  0  0  0  0  0  0  0  0  0  0
    6.4068    0.6788   -0.4725 H   0  0  0  0  0  0  0  0  0  0  0  0
    5.6333   -0.3864    0.7458 H   0  0  0  0  0  0  0  0  0  0  0  0
    5.0767    1.2923    0.5204 H   0  0  0  0  0  0  0  0  0  0  0  0
    3.9618    4.9080    2.2412 H   0  0  0  0  0  0  0  0  0  0  0  0
    3.2238    5.1024    0.6232 H   0  0  0  0  0  0  0  0  0  0  0  0
    4.8074    4.2954    0.7920 H   0  0  0  0  0  0  0  0  0  0  0  0
   -1.5118    2.4596    3.4582 H   0  0  0  0  0  0  0  0  0  0  0  0
   -0.5727    4.7643    3.3045 H   0  0  0  0  0  0  0  0  0  0  0  0
   -0.1790    0.5407    2.6204 H   0  0  0  0  0  0  0  0  0  0  0  0
    1.6609    5.1280    2.3328 H   0  0  0  0  0  0  0  0  0  0  0  0
    3.3224    0.6214    1.8287 H   0  0  0  0  0  0  0  0  0  0  0  0
    1.8836   -0.3841    1.8817 H   0  0  0  0  0  0  0  0  0  0  0  0
    2.6385    1.3751   -0.5092 H   0  0  0  0  0  0  0  0  0  0  0  0
    4.9666   -0.7559   -1.5527 H   0  0  0  0  0  0  0  0  0  0  0  0
    2.9221   -1.1229   -1.2456 H   0  0  0  0  0  0  0  0  0  0  0  0
  1 16  1  0  0  0  0
  1 15  1  0  0  0  0
  1  9  1  0  0  0  0
  2 20  1  0  0  0  0
  2 19  1  0  0  0  0
  3 14  1  0  0  0  0
  3 21  1  0  0  0  0
  4 24  1  0  0  0  0
  5  4  1  0  0  0  0
  5 25  1  0  0  0  0
  6 26  1  0  0  0  0
  6  4  2  0  0  0  0
  7  5  2  0  0  0  0
  8 28  1  0  0  0  0
  8 29  1  0  0  0  0
  8 10  1  0  0  0  0
  9 30  1  6  0  0  0
  9  8  1  0  0  0  0
 10  6  1  0  0  0  0
 11 10  2  0  0  0  0
 11  7  1  0  0  0  0
 12 13  1  0  0  0  0
 12  2  1  0  0  0  0
 13  9  1  0  0  0  0
 14 11  1  0  0  0  0
 17  1  1  0  0  0  0
 18  2  1  0  0  0  0
 22  3  1  0  0  0  0
 23  3  1  0  0  0  0
 27  7  1  0  0  0  0
 31 12  1  0  0  0  0
 32 13  1  0  0  0  0
M  END
>  <HBA>
3

>  <HBD>
2

>  <TPSA>
33.29

>  <cid>
59469

>  <dipole>
1.21

>  <excitation_energy_1>
4.531

>  <excitation_energy_2>
4.624

>  <excitation_energy_3>
4.903

>  <excitation_energy_4>
4.984

>  <homo_energy>
-4.98

>  <homo_lumo_gap>
5.135

>  <logP>
2.132

>  <lumo_energy>
0.155

>  <melting_point>
65.63

>  <molecular_refractivity>
57.92

>  <oscillator_strength_1>
0.0024

>  <oscillator_strength_2>
0.0016

>  <oscillator_strength_3>
0.0011

>  <oscillator_strength_4>
0.001

>  <open_babel_can_smiles>
CNN[C@H](Cc1ccccc1OC)C

>  <mulliken_charges>
32
1   -0.484791
2   -0.305055
3   -0.214967
4   -0.127588
5   -0.141224
6   -0.199995
7   -0.192771
8   -0.322008
9   0.067952
10   0.120368
11   0.323185
12   -0.441554
13   -0.475731
14   -0.510572
15   0.162295
16   0.142564
17   0.142676
18   0.137788
19   0.132268
20   0.174119
21   0.151696
22   0.153005
23   0.170313
24   0.122978
25   0.126237
26   0.123732
27   0.128887
28   0.157235
29   0.134602
30   0.150411
31   0.295329
32   0.298615

>  <lowdin_charges>
32
1   -0.456261
2   -0.377502
3   -0.278478
4   -0.176758
5   -0.153537
6   -0.160325
7   -0.213685
8   -0.277706
9   -0.065855
10   -0.028108
11   0.095325
12   -0.310733
13   -0.315551
14   -0.202832
15   0.162732
16   0.145379
17   0.146188
18   0.147089
19   0.131089
20   0.155929
21   0.144678
22   0.147273
23   0.162032
24   0.155217
25   0.157235
26   0.154487
27   0.160358
28   0.159809
29   0.148071
30   0.14449
31   0.249292
32   0.250658

$$$$

