PCCDB-ID:  37735
public computational chemistry database (PCCDB) project, http://pccdb.org

 26 25  0  0  1  0  0  0  0  0999 V2000
    0.6986   -0.0958   -0.1592 C   0  0  0  0  0  0  0  0  0  0  0  0
    0.4593   -0.0032   -1.6865 C   0  0  1  0  0  0  0  0  0  0  0  0
    0.2017   -1.4043    0.4356 C   0  0  2  0  0  0  0  0  0  0  0  0
    1.1326   -1.1969   -2.3913 C   0  0  0  0  0  0  0  0  0  0  0  0
   -1.4449    0.8332   -3.0078 C   0  0  0  0  0  0  0  0  0  0  0  0
   -0.8503    1.2752   -4.0476 N   0  0  0  0  0  0  0  0  0  0  0  0
   -1.8843   -0.5471    0.7793 N   0  0  0  0  0  0  0  0  0  0  0  0
    3.2455   -0.4870   -1.8293 N   0  0  0  0  0  0  0  0  0  0  0  0
   -0.9724    0.0338   -1.9746 N   0  0  0  0  0  0  0  0  0  0  0  0
   -0.9645   -1.6547    0.8949 N   0  0  0  0  0  0  0  0  0  0  0  0
    2.3874   -1.4398   -2.4543 N   0  0  0  0  0  0  0  0  0  0  0  0
    1.0986   -2.4182    0.4967 O   0  0  0  0  0  0  0  0  0  0  0  0
    0.2906   -2.0989   -2.9285 O   0  0  0  0  0  0  0  0  0  0  0  0
   -2.7549    1.1205   -2.8037 O   0  0  0  0  0  0  0  0  0  0  0  0
    0.2096    0.7567    0.3190 H   0  0  0  0  0  0  0  0  0  0  0  0
    1.7740   -0.0091    0.0182 H   0  0  0  0  0  0  0  0  0  0  0  0
    0.9213    0.9299   -2.0381 H   0  0  0  0  0  0  0  0  0  0  0  0
    0.1100    0.9446   -4.1252 H   0  0  0  0  0  0  0  0  0  0  0  0
   -2.7884   -0.9496    1.0196 H   0  0  0  0  0  0  0  0  0  0  0  0
   -1.6872    0.1238    1.5280 H   0  0  0  0  0  0  0  0  0  0  0  0
    3.1041    0.4489   -2.2207 H   0  0  0  0  0  0  0  0  0  0  0  0
    4.1850   -0.7634   -2.1032 H   0  0  0  0  0  0  0  0  0  0  0  0
   -1.5742   -0.0128   -1.1403 H   0  0  0  0  0  0  0  0  0  0  0  0
    1.8544   -2.2194   -0.0829 H   0  0  0  0  0  0  0  0  0  0  0  0
   -0.6121   -1.7507   -2.7643 H   0  0  0  0  0  0  0  0  0  0  0  0
   -3.0307    1.6173   -3.5944 H   0  0  0  0  0  0  0  0  0  0  0  0
  1 16  1  0  0  0  0
  1 15  1  0  0  0  0
  1  3  1  0  0  0  0
  2 17  1  6  0  0  0
  2  1  1  0  0  0  0
  3 12  1  1  0  0  0
  3 10  1  0  0  0  0
  4  2  1  0  0  0  0
  5 14  1  0  0  0  0
  5  9  1  0  0  0  0
  6  5  2  0  0  0  0
  7 10  1  0  0  0  0
  7 19  1  0  0  0  0
  7 20  1  0  0  0  0
  9  2  1  0  0  0  0
  9 23  1  0  0  0  0
 11  4  2  0  0  0  0
 11  8  1  0  0  0  0
 13 25  1  0  0  0  0
 13  4  1  0  0  0  0
 18  6  1  0  0  0  0
 21  8  1  0  0  0  0
 22  8  1  0  0  0  0
 24 12  1  0  0  0  0
 26 14  1  0  0  0  0
M  RAD  2   3   2  10   2
M  END
>  <HBA>
9

>  <HBD>
6

>  <TPSA>
165.36

>  <cid>
37735

>  <dipole>
4.75

>  <excitation_energy_1>
4.936

>  <excitation_energy_2>
5.191

>  <excitation_energy_3>
5.281

>  <excitation_energy_4>
5.359

>  <homo_energy>
-6.071

>  <homo_lumo_gap>
6.12

>  <logP>
-0.333

>  <lumo_energy>
0.049

>  <melting_point>
292.89

>  <molecular_refractivity>
43.67

>  <oscillator_strength_1>
0.0101

>  <oscillator_strength_2>
0.0184

>  <oscillator_strength_3>
0.0231

>  <oscillator_strength_4>
0.0421

>  <open_babel_can_smiles>
N[N][C](C[C@@H](/C(=N\N)/O)NC(=N)O)O

>  <mulliken_charges>
26
1   -0.393623
2   -0.048383
3   0.519336
4   0.492161
5   0.630008
6   -0.644022
7   -0.628728
8   -0.604884
9   -0.682505
10   -0.339215
11   -0.354181
12   -0.586891
13   -0.582503
14   -0.595197
15   0.170302
16   0.204822
17   0.156889
18   0.287599
19   0.340183
20   0.316834
21   0.305982
22   0.336544
23   0.403342
24   0.435571
25   0.437155
26   0.423407

>  <lowdin_charges>
26
1   -0.314174
2   -0.082615
3   0.108303
4   0.0714
5   0.158368
6   -0.480347
7   -0.465489
8   -0.469132
9   -0.325182
10   -0.174119
11   -0.181604
12   -0.35074
13   -0.347068
14   -0.374279
15   0.168709
16   0.181551
17   0.155294
18   0.258899
19   0.274345
20   0.259802
21   0.249591
22   0.27264
23   0.301722
24   0.370445
25   0.363235
26   0.370447

$$$$

