PCCDB-ID:  7359
public computational chemistry database (PCCDB) project, http://pccdb.org

 19 18  0  0  0  0  0  0  0  0999 V2000
    2.8530   -0.1534    1.5081 C   0  0  0  0  0  0  0  0  0  0  0  0
    3.3081   -1.7416   -3.3685 C   0  0  0  0  0  0  0  0  0  0  0  0
    2.7852    0.1986    0.0177 C   0  0  0  0  0  0  0  0  0  0  0  0
    3.0146   -0.5884   -2.4024 C   0  0  0  0  0  0  0  0  0  0  0  0
    4.7417   -1.1838   -0.6966 C   0  0  0  0  0  0  0  0  0  0  0  0
    3.2620   -0.9365   -0.9168 C   0  0  0  0  0  0  0  0  0  0  0  0
    5.2388   -2.2215   -0.3193 O   0  0  0  0  0  0  0  0  0  0  0  0
    2.5006    0.6819    2.1231 H   0  0  0  0  0  0  0  0  0  0  0  0
    3.8751   -0.3922    1.8239 H   0  0  0  0  0  0  0  0  0  0  0  0
    2.2280   -1.0248    1.7360 H   0  0  0  0  0  0  0  0  0  0  0  0
    3.1147   -1.4419   -4.4044 H   0  0  0  0  0  0  0  0  0  0  0  0
    2.6774   -2.6107   -3.1477 H   0  0  0  0  0  0  0  0  0  0  0  0
    4.3518   -2.0702   -3.3054 H   0  0  0  0  0  0  0  0  0  0  0  0
    3.3832    1.1005   -0.1796 H   0  0  0  0  0  0  0  0  0  0  0  0
    1.7532    0.4548   -0.2548 H   0  0  0  0  0  0  0  0  0  0  0  0
    1.9683   -0.2739   -2.5099 H   0  0  0  0  0  0  0  0  0  0  0  0
    3.6228    0.2876   -2.6717 H   0  0  0  0  0  0  0  0  0  0  0  0
    5.3840   -0.2955   -0.9178 H   0  0  0  0  0  0  0  0  0  0  0  0
    2.7370   -1.8669   -0.6642 H   0  0  0  0  0  0  0  0  0  0  0  0
  1 10  1  0  0  0  0
  1  9  1  0  0  0  0
  1  8  1  0  0  0  0
  2 13  1  0  0  0  0
  2 12  1  0  0  0  0
  2  4  1  0  0  0  0
  3  1  1  0  0  0  0
  4  6  1  0  0  0  0
  5  7  2  0  0  0  0
  6  5  1  0  0  0  0
  6 19  1  0  0  0  0
  6  3  1  0  0  0  0
 11  2  1  0  0  0  0
 14  3  1  0  0  0  0
 15  3  1  0  0  0  0
 16  4  1  0  0  0  0
 17  4  1  0  0  0  0
 18  5  1  0  0  0  0
M  END
>  <HBA>
1

>  <HBD>
0

>  <TPSA>
17.07

>  <cid>
7359

>  <dipole>
2.75

>  <excitation_energy_1>
4.185

>  <excitation_energy_2>
6.422

>  <excitation_energy_3>
6.738

>  <excitation_energy_4>
6.899

>  <homo_energy>
-6.7

>  <homo_lumo_gap>
6.136

>  <logP>
1.621

>  <lumo_energy>
-0.563

>  <melting_point>
5.16

>  <molecular_refractivity>
31.16

>  <oscillator_strength_1>
0.0003

>  <oscillator_strength_2>
0.0097

>  <oscillator_strength_3>
0.0268

>  <oscillator_strength_4>
0.0001

>  <open_babel_can_smiles>
CCC(C=O)CC

>  <mulliken_charges>
19
1   -0.449675
2   -0.449564
3   -0.273593
4   -0.273599
5   0.258401
6   -0.132154
7   -0.390669
8   0.148012
9   0.15726
10   0.15176
11   0.147932
12   0.151651
13   0.157508
14   0.136628
15   0.143611
16   0.143605
17   0.136626
18   0.092186
19   0.144075

>  <lowdin_charges>
19
1   -0.447732
2   -0.445332
3   -0.270356
4   -0.270091
5   0.053519
6   -0.160833
7   -0.217937
8   0.154251
9   0.15306
10   0.152675
11   0.152273
12   0.152615
13   0.152839
14   0.142464
15   0.147192
16   0.146913
17   0.142666
18   0.109736
19   0.152077

$$$$

