PCCDB-ID:  71007
public computational chemistry database (PCCDB) project, http://pccdb.org

 32 33  0  0  0  0  0  0  0  0999 V2000
    0.9264   -0.2876    0.3896 C   0  0  0  0  0  0  0  0  0  0  0  0
    8.2361   -0.6310    1.9595 C   0  0  0  0  0  0  0  0  0  0  0  0
    7.5727   -1.7109    1.0922 C   0  0  0  0  0  0  0  0  0  0  0  0
    7.5454    0.7285    1.7772 C   0  0  0  0  0  0  0  0  0  0  0  0
    3.1222    0.9803    0.3987 C   0  0  0  0  0  0  0  0  0  0  0  0
    3.1488   -1.3106   -0.2846 C   0  0  0  0  0  0  0  0  0  0  0  0
    4.4952    1.0647    0.1754 C   0  0  0  0  0  0  0  0  0  0  0  0
    4.5230   -1.2287   -0.5092 C   0  0  0  0  0  0  0  0  0  0  0  0
    7.5103   -1.2858   -0.3820 C   0  0  0  0  0  0  0  0  0  0  0  0
    7.4811    1.1307    0.2965 C   0  0  0  0  0  0  0  0  0  0  0  0
    6.8820    0.4627   -1.9927 C   0  0  0  0  0  0  0  0  0  0  0  0
    2.4190   -0.2091    0.1732 C   0  0  0  0  0  0  0  0  0  0  0  0
    5.2298   -0.0416   -0.2757 C   0  0  0  0  0  0  0  0  0  0  0  0
    6.7470    0.0631   -0.5757 C   0  0  0  0  0  0  0  0  0  0  0  0
    7.0011    0.7762   -3.1052 N   0  0  0  0  0  0  0  0  0  0  0  0
    0.6227    0.2485    1.2958 H   0  0  0  0  0  0  0  0  0  0  0  0
    0.5887   -1.3249    0.4812 H   0  0  0  0  0  0  0  0  0  0  0  0
    0.3799    0.1622   -0.4498 H   0  0  0  0  0  0  0  0  0  0  0  0
    9.2948   -0.5396    1.6758 H   0  0  0  0  0  0  0  0  0  0  0  0
    8.2188   -0.9276    3.0154 H   0  0  0  0  0  0  0  0  0  0  0  0
    6.5581   -1.9083    1.4612 H   0  0  0  0  0  0  0  0  0  0  0  0
    8.1252   -2.6555    1.1698 H   0  0  0  0  0  0  0  0  0  0  0  0
    8.0798    1.5061    2.3368 H   0  0  0  0  0  0  0  0  0  0  0  0
    6.5302    0.6837    2.1917 H   0  0  0  0  0  0  0  0  0  0  0  0
    2.5891    1.8593    0.7545 H   0  0  0  0  0  0  0  0  0  0  0  0
    2.6372   -2.2519   -0.4722 H   0  0  0  0  0  0  0  0  0  0  0  0
    4.9875    2.0138    0.3580 H   0  0  0  0  0  0  0  0  0  0  0  0
    5.0369   -2.1111   -0.8750 H   0  0  0  0  0  0  0  0  0  0  0  0
    7.0680   -2.0716   -1.0009 H   0  0  0  0  0  0  0  0  0  0  0  0
    8.5290   -1.1399   -0.7632 H   0  0  0  0  0  0  0  0  0  0  0  0
    8.5002    1.2268   -0.0990 H   0  0  0  0  0  0  0  0  0  0  0  0
    7.0181    2.1140    0.1730 H   0  0  0  0  0  0  0  0  0  0  0  0
  1 17  1  0  0  0  0
  1 16  1  0  0  0  0
  2 20  1  0  0  0  0
  3 22  1  0  0  0  0
  3 21  1  0  0  0  0
  3  2  1  0  0  0  0
  4  2  1  0  0  0  0
  4 24  1  0  0  0  0
  4 23  1  0  0  0  0
  5 25  1  0  0  0  0
  6 12  1  0  0  0  0
  7 27  1  0  0  0  0
  7  5  1  0  0  0  0
  8  6  2  0  0  0  0
  8 13  1  0  0  0  0
  9  3  1  0  0  0  0
 10  4  1  0  0  0  0
 11 14  1  0  0  0  0
 12  1  1  0  0  0  0
 12  5  2  0  0  0  0
 13  7  2  0  0  0  0
 14  9  1  0  0  0  0
 14 13  1  0  0  0  0
 14 10  1  0  0  0  0
 15 11  3  0  0  0  0
 18  1  1  0  0  0  0
 19  2  1  0  0  0  0
 26  6  1  0  0  0  0
 28  8  1  0  0  0  0
 29  9  1  0  0  0  0
 30  9  1  0  0  0  0
 31 10  1  0  0  0  0
 32 10  1  0  0  0  0
M  END
>  <HBA>
1

>  <HBD>
0

>  <TPSA>
23.79

>  <cid>
71007

>  <dipole>
4.37

>  <excitation_energy_1>
5.167

>  <excitation_energy_2>
5.661

>  <excitation_energy_3>
5.958

>  <excitation_energy_4>
6.248

>  <homo_energy>
-6.618

>  <homo_lumo_gap>
6.259

>  <logP>
3.72

>  <lumo_energy>
-0.359

>  <melting_point>
71.43

>  <molecular_refractivity>
62.73

>  <oscillator_strength_1>
0.0005

>  <oscillator_strength_2>
0.1023

>  <oscillator_strength_3>
0.0007

>  <oscillator_strength_4>
0.0191

>  <open_babel_can_smiles>
N#CC1(CCCCC1)c1ccc(cc1)C

>  <mulliken_charges>
32
1   -0.531325
2   -0.25843
3   -0.266316
4   -0.266542
5   -0.181109
6   -0.184405
7   -0.171327
8   -0.17011
9   -0.275327
10   -0.276359
11   0.351157
12   0.183162
13   0.14824
14   -0.075333
15   -0.487868
16   0.160273
17   0.157698
18   0.170595
19   0.132463
20   0.137176
21   0.147164
22   0.139653
23   0.139718
24   0.147012
25   0.126618
26   0.126721
27   0.132959
28   0.133089
29   0.154873
30   0.150344
31   0.150558
32   0.154979

>  <lowdin_charges>
32
1   -0.442791
2   -0.273954
3   -0.28025
4   -0.281813
5   -0.163022
6   -0.163826
7   -0.159978
8   -0.160395
9   -0.270514
10   -0.269213
11   -0.014207
12   0.005819
13   -0.007042
14   0.008144
15   -0.139321
16   0.160521
17   0.157491
18   0.16579
19   0.13777
20   0.145863
21   0.147346
22   0.149715
23   0.151093
24   0.147189
25   0.157524
26   0.156875
27   0.160508
28   0.161206
29   0.15468
30   0.152776
31   0.15299
32   0.153028

$$$$

