PCCDB-ID:  35158
public computational chemistry database (PCCDB) project, http://pccdb.org

 21 21  0  0  0  0  0  0  0  0999 V2000
    3.6105    0.0770    1.0072 C   0  0  0  0  0  0  0  0  0  0  0  0
    4.2234   -1.0575   -4.3675 C   0  0  0  0  0  0  0  0  0  0  0  0
    3.1732    3.5726   -3.2531 C   0  0  0  0  0  0  0  0  0  0  0  0
    2.4288    0.0480    0.0195 C   0  0  0  0  0  0  0  0  0  0  0  0
    3.7079   -0.0334   -3.3958 C   0  0  0  0  0  0  0  0  0  0  0  0
    3.2219    2.1181   -2.8778 C   0  0  0  0  0  0  0  0  0  0  0  0
    2.8578    0.4770   -1.3590 C   0  0  0  0  0  0  0  0  0  0  0  0
    3.6848    1.2492   -3.7890 N   0  0  0  0  0  0  0  0  0  0  0  0
    3.3064   -0.4717   -2.1940 N   0  0  0  0  0  0  0  0  0  0  0  0
    2.7967    1.7845   -1.6505 N   0  0  0  0  0  0  0  0  0  0  0  0
    3.2836   -0.2367    2.0042 H   0  0  0  0  0  0  0  0  0  0  0  0
    4.0267    1.0871    1.0856 H   0  0  0  0  0  0  0  0  0  0  0  0
    4.4071   -0.5996    0.6797 H   0  0  0  0  0  0  0  0  0  0  0  0
    4.4367   -0.5951   -5.3326 H   0  0  0  0  0  0  0  0  0  0  0  0
    3.4912   -1.8624   -4.4912 H   0  0  0  0  0  0  0  0  0  0  0  0
    5.1381   -1.5173   -3.9750 H   0  0  0  0  0  0  0  0  0  0  0  0
    3.5012    3.7123   -4.2844 H   0  0  0  0  0  0  0  0  0  0  0  0
    3.8161    4.1540   -2.5823 H   0  0  0  0  0  0  0  0  0  0  0  0
    2.1555    3.9587   -3.1308 H   0  0  0  0  0  0  0  0  0  0  0  0
    1.6410    0.7241    0.3661 H   0  0  0  0  0  0  0  0  0  0  0  0
    2.0236   -0.9670   -0.0415 H   0  0  0  0  0  0  0  0  0  0  0  0
  1 12  1  0  0  0  0
  1 11  1  0  0  0  0
  2 16  1  0  0  0  0
  2  5  1  0  0  0  0
  3 19  1  0  0  0  0
  3  6  1  0  0  0  0
  3 18  1  0  0  0  0
  4 20  1  0  0  0  0
  4  1  1  0  0  0  0
  5  9  1  0  0  0  0
  6 10  1  0  0  0  0
  7  4  1  0  0  0  0
  8  5  2  0  0  0  0
  8  6  2  0  0  0  0
  9  7  2  0  0  0  0
 10  7  1  0  0  0  0
 13  1  1  0  0  0  0
 14  2  1  0  0  0  0
 15  2  1  0  0  0  0
 17  3  1  0  0  0  0
 21  4  1  0  0  0  0
M  RAD  1  10   2
M  END
>  <HBA>
3

>  <HBD>
0

>  <TPSA>
38.67

>  <cid>
35158

>  <dipole>
0.22

>  <excitation_energy_1>
4.561

>  <excitation_energy_2>
4.657

>  <excitation_energy_3>
4.723

>  <excitation_energy_4>
4.757

>  <homo_energy>
-6.985

>  <homo_lumo_gap>
5.957

>  <logP>
1.051

>  <lumo_energy>
-1.029

>  <melting_point>
62.68

>  <molecular_refractivity>
39.53

>  <oscillator_strength_1>
0.0

>  <oscillator_strength_2>
0.0052

>  <oscillator_strength_3>
0.0

>  <oscillator_strength_4>
0.0076

>  <open_babel_can_smiles>
CCC1=NC(=[N]=C([N]1)C)C

>  <mulliken_charges>
21
1   -0.451559
2   -0.504914
3   -0.504986
4   -0.302974
5   0.427317
6   0.427257
7   0.418012
8   -0.454393
9   -0.452557
10   -0.452441
11   0.152525
12   0.159811
13   0.1598
14   0.175461
15   0.177051
16   0.17715
17   0.175432
18   0.176977
19   0.177276
20   0.159861
21   0.159893

>  <lowdin_charges>
21
1   -0.436456
2   -0.447812
3   -0.447295
4   -0.277903
5   0.119254
6   0.118943
7   0.116458
8   -0.191433
9   -0.190849
10   -0.190686
11   0.154389
12   0.15484
13   0.156334
14   0.169953
15   0.174872
16   0.175194
17   0.169132
18   0.175963
19   0.173846
20   0.162458
21   0.160796

$$$$

