PCCDB-ID:  8572
public computational chemistry database (PCCDB) project, http://pccdb.org

 26 27  0  0  0  0  0  0  0  0999 V2000
   -1.5850    1.3428   -1.0464 C   0  0  0  0  0  0  0  0  0  0  0  0
   -1.1642    0.7164    0.1304 C   0  0  0  0  0  0  0  0  0  0  0  0
   -0.6841    2.1092   -1.7887 C   0  0  0  0  0  0  0  0  0  0  0  0
    0.1529    0.8542    0.5589 C   0  0  0  0  0  0  0  0  0  0  0  0
    0.6296    2.2641   -1.3484 C   0  0  0  0  0  0  0  0  0  0  0  0
    5.6929    3.3620   -0.7877 C   0  0  0  0  0  0  0  0  0  0  0  0
    4.7349    2.4330   -0.4047 C   0  0  0  0  0  0  0  0  0  0  0  0
    4.0290    5.1113   -0.5657 C   0  0  0  0  0  0  0  0  0  0  0  0
    1.0590    1.6409   -0.1686 C   0  0  0  0  0  0  0  0  0  0  0  0
    5.3315    4.7127   -0.8708 C   0  0  0  0  0  0  0  0  0  0  0  0
    3.4061    2.7911   -0.1309 C   0  0  0  0  0  0  0  0  0  0  0  0
    3.0749    4.1621   -0.1936 C   0  0  0  0  0  0  0  0  0  0  0  0
    2.4806    1.6928    0.3018 C   0  0  0  0  0  0  0  0  0  0  0  0
    6.2087    5.6901   -1.2350 O   0  0  0  0  0  0  0  0  0  0  0  0
    1.8133    4.5420    0.1591 O   0  0  0  0  0  0  0  0  0  0  0  0
    2.9218    0.7843    0.9995 O   0  0  0  0  0  0  0  0  0  0  0  0
   -2.6113    1.2296   -1.3859 H   0  0  0  0  0  0  0  0  0  0  0  0
   -1.8626    0.1162    0.7074 H   0  0  0  0  0  0  0  0  0  0  0  0
   -1.0047    2.5860   -2.7111 H   0  0  0  0  0  0  0  0  0  0  0  0
    0.5052    0.3574    1.4570 H   0  0  0  0  0  0  0  0  0  0  0  0
    1.3282    2.8554   -1.9313 H   0  0  0  0  0  0  0  0  0  0  0  0
    6.7100    3.0494   -1.0132 H   0  0  0  0  0  0  0  0  0  0  0  0
    5.0007    1.3850   -0.3122 H   0  0  0  0  0  0  0  0  0  0  0  0
    3.7794    6.1686   -0.6056 H   0  0  0  0  0  0  0  0  0  0  0  0
    7.0758    5.2885   -1.4025 H   0  0  0  0  0  0  0  0  0  0  0  0
    1.7462    5.5080    0.1001 H   0  0  0  0  0  0  0  0  0  0  0  0
  1  2  2  0  0  0  0
  2  4  1  0  0  0  0
  2 18  1  0  0  0  0
  3  5  2  0  0  0  0
  3  1  1  0  0  0  0
  4 20  1  0  0  0  0
  5  9  1  0  0  0  0
  6  7  1  0  0  0  0
  7 23  1  0  0  0  0
  7 11  2  0  0  0  0
  8 12  2  0  0  0  0
  9 13  1  0  0  0  0
  9  4  2  0  0  0  0
 10  6  2  0  0  0  0
 10  8  1  0  0  0  0
 11 13  1  0  0  0  0
 12 11  1  0  0  0  0
 12 15  1  0  0  0  0
 13 16  2  0  0  0  0
 14 10  1  0  0  0  0
 17  1  1  0  0  0  0
 19  3  1  0  0  0  0
 21  5  1  0  0  0  0
 22  6  1  0  0  0  0
 24  8  1  0  0  0  0
 25 14  1  0  0  0  0
 26 15  1  0  0  0  0
M  END
>  <HBA>
3

>  <HBD>
2

>  <TPSA>
57.53

>  <cid>
8572

>  <dipole>
3.58

>  <excitation_energy_1>
3.636

>  <excitation_energy_2>
4.071

>  <excitation_energy_3>
4.496

>  <excitation_energy_4>
4.548

>  <homo_energy>
-6.093

>  <homo_lumo_gap>
4.686

>  <logP>
2.329

>  <lumo_energy>
-1.407

>  <melting_point>
145.7

>  <molecular_refractivity>
60.36

>  <oscillator_strength_1>
0.009

>  <oscillator_strength_2>
0.1181

>  <oscillator_strength_3>
0.0952

>  <oscillator_strength_4>
0.0108

>  <open_babel_can_smiles>
Oc1ccc(c(c1)O)C(=O)c1ccccc1

>  <mulliken_charges>
26
1   -0.119976
2   -0.136538
3   -0.141023
4   -0.154354
5   -0.150828
6   -0.202607
7   -0.169095
8   -0.243891
9   0.096291
10   0.361257
11   0.034297
12   0.315246
13   0.321277
14   -0.638415
15   -0.636117
16   -0.469096
17   0.131893
18   0.133076
19   0.129739
20   0.156487
21   0.13681
22   0.124353
23   0.161491
24   0.133206
25   0.413303
26   0.413211

>  <lowdin_charges>
26
1   -0.142721
2   -0.160405
3   -0.161447
4   -0.129969
5   -0.139596
6   -0.233138
7   -0.107687
8   -0.246398
9   -0.03779
10   0.120629
11   -0.092879
12   0.117682
13   0.162153
14   -0.366777
15   -0.360796
16   -0.252014
17   0.157588
18   0.160712
19   0.157749
20   0.173581
21   0.16482
22   0.156512
23   0.175345
24   0.164123
25   0.361753
26   0.358971

$$$$

