PCCDB-ID:  52539
public computational chemistry database (PCCDB) project, http://pccdb.org

 43 42  0  0  0  0  0  0  0  0999 V2000
    5.7793    0.3946   -4.6379 C   0  0  0  0  0  0  0  0  0  0  0  0
   11.8604    2.4563   -1.0490 C   0  0  0  0  0  0  0  0  0  0  0  0
    4.6627   -0.1939   -3.7673 C   0  0  0  0  0  0  0  0  0  0  0  0
   10.4912    2.3244   -0.3730 C   0  0  0  0  0  0  0  0  0  0  0  0
    4.9876   -0.2383   -2.2632 C   0  0  0  0  0  0  0  0  0  0  0  0
   10.0908    0.8628   -0.1283 C   0  0  0  0  0  0  0  0  0  0  0  0
    5.2081    1.1210   -1.5744 C   0  0  0  0  0  0  0  0  0  0  0  0
    8.6875    0.6360    0.4622 C   0  0  0  0  0  0  0  0  0  0  0  0
    3.9623    2.0155   -1.5313 C   0  0  0  0  0  0  0  0  0  0  0  0
    8.4632    1.2052    1.8804 C   0  0  0  0  0  0  0  0  0  0  0  0
    4.1731    3.3985   -0.8923 C   0  0  0  0  0  0  0  0  0  0  0  0
    7.8465    2.6117    1.9322 C   0  0  0  0  0  0  0  0  0  0  0  0
    4.5719    3.3935    0.5932 C   0  0  0  0  0  0  0  0  0  0  0  0
    6.3966    2.5608    1.6649 N   0  0  0  0  0  0  0  0  0  0  0  0
    6.0359    3.3627    0.7850 N   0  0  0  0  0  0  0  0  0  0  0  0
    5.5201    0.3396   -5.7016 H   0  0  0  0  0  0  0  0  0  0  0  0
    6.7203   -0.1520   -4.4961 H   0  0  0  0  0  0  0  0  0  0  0  0
    5.9711    1.4474   -4.4016 H   0  0  0  0  0  0  0  0  0  0  0  0
   12.1280    3.5065   -1.2122 H   0  0  0  0  0  0  0  0  0  0  0  0
   11.8707    1.9540   -2.0243 H   0  0  0  0  0  0  0  0  0  0  0  0
   12.6500    2.0028   -0.4369 H   0  0  0  0  0  0  0  0  0  0  0  0
    4.4534   -1.2190   -4.1019 H   0  0  0  0  0  0  0  0  0  0  0  0
    3.7345    0.3687   -3.9353 H   0  0  0  0  0  0  0  0  0  0  0  0
    9.7264    2.8120   -0.9941 H   0  0  0  0  0  0  0  0  0  0  0  0
   10.5078    2.8727    0.5782 H   0  0  0  0  0  0  0  0  0  0  0  0
    5.8898   -0.8509   -2.1210 H   0  0  0  0  0  0  0  0  0  0  0  0
    4.1768   -0.7684   -1.7427 H   0  0  0  0  0  0  0  0  0  0  0  0
   10.8359    0.3947    0.5330 H   0  0  0  0  0  0  0  0  0  0  0  0
   10.1542    0.3206   -1.0833 H   0  0  0  0  0  0  0  0  0  0  0  0
    6.0277    1.6626   -2.0673 H   0  0  0  0  0  0  0  0  0  0  0  0
    5.5482    0.9324   -0.5493 H   0  0  0  0  0  0  0  0  0  0  0  0
    8.5091   -0.4469    0.4868 H   0  0  0  0  0  0  0  0  0  0  0  0
    7.9334    1.0481   -0.2210 H   0  0  0  0  0  0  0  0  0  0  0  0
    3.1610    1.4900   -0.9902 H   0  0  0  0  0  0  0  0  0  0  0  0
    3.5840    2.1724   -2.5504 H   0  0  0  0  0  0  0  0  0  0  0  0
    9.4160    1.2203    2.4268 H   0  0  0  0  0  0  0  0  0  0  0  0
    7.7967    0.5414    2.4448 H   0  0  0  0  0  0  0  0  0  0  0  0
    3.2390    3.9665   -0.9912 H   0  0  0  0  0  0  0  0  0  0  0  0
    4.9360    3.9599   -1.4482 H   0  0  0  0  0  0  0  0  0  0  0  0
    8.3348    3.3185    1.2511 H   0  0  0  0  0  0  0  0  0  0  0  0
    7.9327    2.9991    2.9571 H   0  0  0  0  0  0  0  0  0  0  0  0
    4.0893    2.5837    1.1574 H   0  0  0  0  0  0  0  0  0  0  0  0
    4.2630    4.3480    1.0419 H   0  0  0  0  0  0  0  0  0  0  0  0
  1 17  1  0  0  0  0
  1 18  1  0  0  0  0
  1  3  1  0  0  0  0
  2 21  1  0  0  0  0
  2  4  1  0  0  0  0
  3  5  1  0  0  0  0
  4  6  1  0  0  0  0
  4 25  1  0  0  0  0
  5 26  1  0  0  0  0
  5 27  1  0  0  0  0
  5  7  1  0  0  0  0
  6  8  1  0  0  0  0
  6 28  1  0  0  0  0
  7  9  1  0  0  0  0
  7 31  1  0  0  0  0
  8 32  1  0  0  0  0
  8 10  1  0  0  0  0
  9 34  1  0  0  0  0
  9 11  1  0  0  0  0
 10 12  1  0  0  0  0
 10 36  1  0  0  0  0
 10 37  1  0  0  0  0
 11 13  1  0  0  0  0
 12 41  1  0  0  0  0
 13 15  1  0  0  0  0
 13 43  1  0  0  0  0
 13 42  1  0  0  0  0
 14 12  1  0  0  0  0
 15 14  1  0  0  0  0
 16  1  1  0  0  0  0
 19  2  1  0  0  0  0
 20  2  1  0  0  0  0
 22  3  1  0  0  0  0
 23  3  1  0  0  0  0
 24  4  1  0  0  0  0
 29  6  1  0  0  0  0
 30  7  1  0  0  0  0
 33  8  1  0  0  0  0
 35  9  1  0  0  0  0
 38 11  1  0  0  0  0
 39 11  1  0  0  0  0
 40 12  1  0  0  0  0
M  RAD  2  14   2  15   2
M  END
>  <HBA>
2

>  <HBD>
0

>  <TPSA>
24.72

>  <cid>
52539

>  <dipole>
0.09

>  <excitation_energy_1>
3.387

>  <excitation_energy_2>
5.788

>  <excitation_energy_3>
5.933

>  <excitation_energy_4>
5.967

>  <homo_energy>
-5.902

>  <homo_lumo_gap>
5.108

>  <logP>
4.989

>  <lumo_energy>
-0.795

>  <melting_point>
-15.69

>  <molecular_refractivity>
69.46

>  <oscillator_strength_1>
0.0001

>  <oscillator_strength_2>
0.002

>  <oscillator_strength_3>
0.009

>  <oscillator_strength_4>
0.0125

>  <open_babel_can_smiles>
CCCCCCC[N][N]CCCCCC

>  <mulliken_charges>
43
1   -0.443264
2   -0.442207
3   -0.250428
4   -0.249105
5   -0.253737
6   -0.250509
7   -0.267502
8   -0.270387
9   -0.256837
10   -0.270932
11   -0.273829
12   -0.144758
13   -0.135191
14   -0.18778
15   -0.187702
16   0.14112
17   0.140302
18   0.145577
19   0.141917
20   0.141283
21   0.140426
22   0.130362
23   0.133237
24   0.136214
25   0.133578
26   0.126757
27   0.125886
28   0.125499
29   0.127055
30   0.134307
31   0.148312
32   0.131422
33   0.150812
34   0.127931
35   0.133692
36   0.135975
37   0.149226
38   0.134263
39   0.148694
40   0.151169
41   0.150552
42   0.143314
43   0.155287

>  <lowdin_charges>
43
1   -0.444475
2   -0.443942
3   -0.275446
4   -0.27797
5   -0.277982
6   -0.275557
7   -0.285895
8   -0.282102
9   -0.277288
10   -0.284342
11   -0.283042
12   -0.226404
13   -0.225858
14   -0.098336
15   -0.09718
16   0.147764
17   0.145612
18   0.145472
19   0.148104
20   0.145643
21   0.146879
22   0.140969
23   0.138738
24   0.142364
25   0.138736
26   0.14007
27   0.14058
28   0.136957
29   0.139617
30   0.140553
31   0.146708
32   0.143258
33   0.148903
34   0.138648
35   0.141053
36   0.145652
37   0.153761
38   0.147293
39   0.151411
40   0.14582
41   0.154032
42   0.142995
43   0.158229

$$$$

