PCCDB-ID:  52307
public computational chemistry database (PCCDB) project, http://pccdb.org

 27 29  0  0  0  0  0  0  0  0999 V2000
   -3.4489    0.1034   -0.0569 C   0  0  0  0  0  0  0  0  0  0  0  0
   -3.0118   -1.2258   -0.0306 C   0  0  0  0  0  0  0  0  0  0  0  0
    3.0146   -1.2619    0.0844 C   0  0  0  0  0  0  0  0  0  0  0  0
   -2.5267    1.1561   -0.0540 C   0  0  0  0  0  0  0  0  0  0  0  0
    3.4651    0.0627    0.0736 C   0  0  0  0  0  0  0  0  0  0  0  0
   -1.6484   -1.5257   -0.0016 C   0  0  0  0  0  0  0  0  0  0  0  0
    1.6495   -1.5467    0.0605 C   0  0  0  0  0  0  0  0  0  0  0  0
    0.0214    1.8012   -0.0131 C   0  0  0  0  0  0  0  0  0  0  0  0
    3.0661    2.5678    0.0217 C   0  0  0  0  0  0  0  0  0  0  0  0
   -1.1677    0.8635   -0.0252 C   0  0  0  0  0  0  0  0  0  0  0  0
    2.5672    1.1397    0.0449 C   0  0  0  0  0  0  0  0  0  0  0  0
   -0.7271   -0.4761    0.0006 C   0  0  0  0  0  0  0  0  0  0  0  0
    0.7424   -0.4838    0.0281 C   0  0  0  0  0  0  0  0  0  0  0  0
    1.1995    0.8489    0.0217 C   0  0  0  0  0  0  0  0  0  0  0  0
    2.6233    3.3019   -1.1222 O   0  0  0  0  0  0  0  0  0  0  0  0
   -4.5136    0.3199   -0.0794 H   0  0  0  0  0  0  0  0  0  0  0  0
   -3.7406   -2.0321   -0.0330 H   0  0  0  0  0  0  0  0  0  0  0  0
    3.7364   -2.0740    0.1080 H   0  0  0  0  0  0  0  0  0  0  0  0
   -2.8731    2.1868   -0.0737 H   0  0  0  0  0  0  0  0  0  0  0  0
    4.5340    0.2648    0.0902 H   0  0  0  0  0  0  0  0  0  0  0  0
   -1.3153   -2.5605    0.0188 H   0  0  0  0  0  0  0  0  0  0  0  0
    1.3023   -2.5767    0.0671 H   0  0  0  0  0  0  0  0  0  0  0  0
    0.0095    2.4685    0.8613 H   0  0  0  0  0  0  0  0  0  0  0  0
    0.0592    2.4599   -0.8892 H   0  0  0  0  0  0  0  0  0  0  0  0
    4.1647    2.5785    0.0954 H   0  0  0  0  0  0  0  0  0  0  0  0
    2.6780    3.1291    0.8793 H   0  0  0  0  0  0  0  0  0  0  0  0
    2.8868    2.7924   -1.9050 H   0  0  0  0  0  0  0  0  0  0  0  0
  1  4  2  0  0  0  0
  1  2  1  0  0  0  0
  2  6  2  0  0  0  0
  3 18  1  0  0  0  0
  4 10  1  0  0  0  0
  5  3  1  0  0  0  0
  5 20  1  0  0  0  0
  6 12  1  0  0  0  0
  6 21  1  0  0  0  0
  7 22  1  0  0  0  0
  7  3  2  0  0  0  0
  8 14  1  0  0  0  0
  8 23  1  0  0  0  0
  9 11  1  0  0  0  0
  9 25  1  0  0  0  0
  9 26  1  0  0  0  0
 10  8  1  0  0  0  0
 10 12  2  0  0  0  0
 11  5  2  0  0  0  0
 12 13  1  0  0  0  0
 13  7  1  0  0  0  0
 14 13  2  0  0  0  0
 14 11  1  0  0  0  0
 15  9  1  0  0  0  0
 16  1  1  0  0  0  0
 17  2  1  0  0  0  0
 19  4  1  0  0  0  0
 24  8  1  0  0  0  0
 27 15  1  0  0  0  0
M  END
>  <HBA>
1

>  <HBD>
1

>  <TPSA>
20.23

>  <cid>
52307

>  <dipole>
1.07

>  <excitation_energy_1>
4.463

>  <excitation_energy_2>
4.666

>  <excitation_energy_3>
4.798

>  <excitation_energy_4>
5.354

>  <homo_energy>
-5.81

>  <homo_lumo_gap>
5.04

>  <logP>
2.75

>  <lumo_energy>
-0.77

>  <melting_point>
96.96

>  <molecular_refractivity>
61.02

>  <oscillator_strength_1>
0.1385

>  <oscillator_strength_2>
0.2936

>  <oscillator_strength_3>
0.0093

>  <oscillator_strength_4>
0.0381

>  <open_babel_can_smiles>
OCc1cccc2c1Cc1c2cccc1

>  <mulliken_charges>
27
1   -0.129304
2   -0.137814
3   -0.132369
4   -0.204544
5   -0.193744
6   -0.192501
7   -0.192317
8   -0.417656
9   -0.101871
10   0.1099
11   0.05679
12   0.083027
13   0.089952
14   0.050483
15   -0.609294
16   0.126841
17   0.127077
18   0.128445
19   0.12659
20   0.122245
21   0.12751
22   0.130071
23   0.169597
24   0.189732
25   0.129224
26   0.155234
27   0.388695

>  <lowdin_charges>
27
1   -0.156107
2   -0.15897
3   -0.158425
4   -0.162392
5   -0.168888
6   -0.161447
7   -0.159937
8   -0.276328
9   -0.129389
10   -0.003886
11   -0.041032
12   -0.013366
13   -0.009768
14   -0.003398
15   -0.466361
16   0.155485
17   0.15786
18   0.158702
19   0.156065
20   0.152699
21   0.155413
22   0.157069
23   0.169033
24   0.178509
25   0.131171
26   0.154421
27   0.34327

$$$$

