PCCDB-ID:  27507
public computational chemistry database (PCCDB) project, http://pccdb.org

 12 12  0  0  0  0  0  0  0  0999 V2000
   -0.7961   -1.0518   -0.0450 C   0  0  0  0  0  0  0  0  0  0  0  0
    1.2661    0.3874    0.0197 C   0  0  0  0  0  0  0  0  0  0  0  0
    0.7359   -1.0498   -0.0168 C   0  0  0  0  0  0  0  0  0  0  0  0
   -1.2334    0.4062   -0.0255 C   0  0  0  0  0  0  0  0  0  0  0  0
    0.0481    1.3006    0.0147 C   0  0  0  0  0  0  0  0  0  0  0  0
    1.4276   -2.0407   -0.0227 O   0  0  0  0  0  0  0  0  0  0  0  0
   -2.3578    0.8427   -0.0377 O   0  0  0  0  0  0  0  0  0  0  0  0
    0.0262    2.5064    0.0370 O   0  0  0  0  0  0  0  0  0  0  0  0
   -1.1994   -1.6013    0.8155 H   0  0  0  0  0  0  0  0  0  0  0  0
   -1.1671   -1.5681   -0.9398 H   0  0  0  0  0  0  0  0  0  0  0  0
    1.9157    0.5835   -0.8431 H   0  0  0  0  0  0  0  0  0  0  0  0
    1.8839    0.5507    0.9122 H   0  0  0  0  0  0  0  0  0  0  0  0
  1  4  1  0  0  0  0
  1  3  1  0  0  0  0
  1  9  1  0  0  0  0
  2 12  1  0  0  0  0
  3  2  1  0  0  0  0
  4  5  1  0  0  0  0
  5  2  1  0  0  0  0
  5  8  2  0  0  0  0
  6  3  2  0  0  0  0
  7  4  2  0  0  0  0
 10  1  1  0  0  0  0
 11  2  1  0  0  0  0
M  END
>  <HBA>
3

>  <HBD>
0

>  <TPSA>
51.21

>  <cid>
27507

>  <dipole>
1.73

>  <excitation_energy_1>
2.41

>  <excitation_energy_2>
3.234

>  <excitation_energy_3>
4.245

>  <excitation_energy_4>
4.576

>  <homo_energy>
-6.999

>  <homo_lumo_gap>
3.954

>  <logP>
-0.512

>  <lumo_energy>
-3.045

>  <melting_point>
60.85

>  <molecular_refractivity>
24.64

>  <oscillator_strength_1>
0.0001

>  <oscillator_strength_2>
0.0

>  <oscillator_strength_3>
0.0

>  <oscillator_strength_4>
0.0

>  <open_babel_can_smiles>
O=C1CC(=O)C(=O)C1

>  <mulliken_charges>
12
1   -0.471811
2   -0.472167
3   0.458108
4   0.404497
5   0.404739
6   -0.42804
7   -0.397806
8   -0.397901
9   0.225077
10   0.225079
11   0.225113
12   0.225111

>  <lowdin_charges>
12
1   -0.350876
2   -0.348722
3   0.160112
4   0.123367
5   0.119998
6   -0.205537
7   -0.159452
8   -0.158369
9   0.205071
10   0.204869
11   0.204844
12   0.204693

$$$$

