PCCDB-ID:  17157
public computational chemistry database (PCCDB) project, http://pccdb.org

 17 17  0  0  1  0  0  0  0  0999 V2000
    1.0394   -0.0777    0.0403 C   0  0  0  0  0  0  0  0  0  0  0  0
    4.5727    1.0622   -0.3517 C   0  0  0  0  0  0  0  0  0  0  0  0
    4.5229   -1.3423   -0.2755 C   0  0  0  0  0  0  0  0  0  0  0  0
    3.2014    1.0733   -0.2161 C   0  0  0  0  0  0  0  0  0  0  0  0
    3.1543   -1.2891   -0.1415 C   0  0  0  0  0  0  0  0  0  0  0  0
    5.2642   -0.1559   -0.3835 C   0  0  2  0  0  0  0  0  0  0  0  0
    6.8195   -0.1931   -0.5346 C   0  0  0  0  0  0  0  0  0  0  0  0
    2.5045   -0.0914   -0.1125 N   0  0  0  0  0  0  0  0  0  0  0  0
    7.3271    0.9427   -0.6211 O   0  0  0  0  0  0  0  0  0  0  0  0
    7.2789   -1.3529   -0.5415 O   0  0  0  0  0  0  0  0  0  0  0  0
    0.6861    0.9529    0.0147 H   0  0  0  0  0  0  0  0  0  0  0  0
    0.7631   -0.5299    0.9961 H   0  0  0  0  0  0  0  0  0  0  0  0
    0.5781   -0.6366   -0.7775 H   0  0  0  0  0  0  0  0  0  0  0  0
    5.1531    1.9754   -0.4368 H   0  0  0  0  0  0  0  0  0  0  0  0
    5.0671   -2.2811   -0.3020 H   0  0  0  0  0  0  0  0  0  0  0  0
    2.6099    1.9814   -0.1853 H   0  0  0  0  0  0  0  0  0  0  0  0
    2.5229   -2.1669   -0.0531 H   0  0  0  0  0  0  0  0  0  0  0  0
  1 12  1  0  0  0  0
  2  4  2  0  0  0  0
  3  5  2  0  0  0  0
  4 16  1  0  0  0  0
  4  8  1  0  0  0  0
  5  8  1  0  0  0  0
  5 17  1  0  0  0  0
  6  7  1  1  0  0  0
  6  2  1  0  0  0  0
  6  3  1  0  0  0  0
  8  1  1  0  0  0  0
  9  7  2  0  0  0  0
 10  7  1  0  0  0  0
 11  1  1  0  0  0  0
 13  1  1  0  0  0  0
 14  2  1  0  0  0  0
 15  3  1  0  0  0  0
M  RAD  1  10   2
M  END
>  <HBA>
2

>  <HBD>
0

>  <TPSA>
44.01

>  <cid>
17157

>  <dipole>
14.86

>  <excitation_energy_1>
1.76

>  <excitation_energy_2>
1.827

>  <excitation_energy_3>
2.286

>  <excitation_energy_4>
2.96

>  <homo_energy>
-5.072

>  <homo_lumo_gap>
2.43

>  <logP>
-1.125

>  <lumo_energy>
-2.642

>  <melting_point>
37.83

>  <molecular_refractivity>
35.05

>  <oscillator_strength_1>
0.0

>  <oscillator_strength_2>
0.0

>  <oscillator_strength_3>
0.0028

>  <oscillator_strength_4>
0.0

>  <open_babel_can_smiles>
CN1C=C[C@H](C=C1)C(=O)[O]

>  <mulliken_charges>
17
1   -0.343557
2   -0.194967
3   -0.195038
4   0.088731
5   0.087915
6   0.100449
7   0.563638
8   -0.370089
9   -0.572504
10   -0.57241
11   0.197538
12   0.207851
13   0.207003
14   0.207876
15   0.208125
16   0.190606
17   0.188833

>  <lowdin_charges>
17
1   -0.344191
2   -0.135626
3   -0.131553
4   -0.077938
5   -0.079957
6   0.047269
7   0.113145
8   0.054294
9   -0.382426
10   -0.382502
11   0.179547
12   0.181289
13   0.182329
14   0.206145
15   0.206068
16   0.181716
17   0.182392

$$$$

