PCCDB-ID:  61976
public computational chemistry database (PCCDB) project, http://pccdb.org

 15 15  0  0  0  0  0  0  0  0999 V2000
    0.6777   -0.2590    0.0564 C   0  0  0  0  0  0  0  0  0  0  0  0
    5.5422    2.9478    0.6056 C   0  0  0  0  0  0  0  0  0  0  0  0
    4.3379   -0.4745    0.0213 C   0  0  0  0  0  0  0  0  0  0  0  0
    2.1585   -0.0388    0.0956 C   0  0  0  0  0  0  0  0  0  0  0  0
    4.4449    0.8676    0.2590 C   0  0  0  0  0  0  0  0  0  0  0  0
    3.0542   -0.9620   -0.0666 N   0  0  0  0  0  0  0  0  0  0  0  0
    5.6049    1.5434    0.3821 O   0  0  0  0  0  0  0  0  0  0  0  0
    2.8368    1.5811    0.3836 S   0  0  0  0  0  0  0  0  0  0  0  0
    0.4988   -1.3152   -0.1599 H   0  0  0  0  0  0  0  0  0  0  0  0
    0.1939    0.3447   -0.7208 H   0  0  0  0  0  0  0  0  0  0  0  0
    0.2017   -0.0129    1.0134 H   0  0  0  0  0  0  0  0  0  0  0  0
    6.5767    3.2919    0.6494 H   0  0  0  0  0  0  0  0  0  0  0  0
    5.0404    3.1749    1.5550 H   0  0  0  0  0  0  0  0  0  0  0  0
    5.0212    3.4564   -0.2155 H   0  0  0  0  0  0  0  0  0  0  0  0
    5.1848   -1.1391   -0.0960 H   0  0  0  0  0  0  0  0  0  0  0  0
  1  4  1  0  0  0  0
  1 11  1  0  0  0  0
  2 12  1  0  0  0  0
  2 13  1  0  0  0  0
  3  5  2  0  0  0  0
  4  8  1  0  0  0  0
  5  7  1  0  0  0  0
  5  8  1  0  0  0  0
  6  3  1  0  0  0  0
  6  4  2  0  0  0  0
  7  2  1  0  0  0  0
  9  1  1  0  0  0  0
 10  1  1  0  0  0  0
 14  2  1  0  0  0  0
 15  3  1  0  0  0  0
M  END
>  <HBA>
3

>  <HBD>
0

>  <TPSA>
50.36

>  <cid>
61976

>  <dipole>
2.65

>  <excitation_energy_1>
4.664

>  <excitation_energy_2>
4.953

>  <excitation_energy_3>
5.148

>  <excitation_energy_4>
5.557

>  <homo_energy>
-5.69

>  <homo_lumo_gap>
5.475

>  <logP>
1.46

>  <lumo_energy>
-0.215

>  <melting_point>
27.99

>  <molecular_refractivity>
33.57

>  <oscillator_strength_1>
0.0

>  <oscillator_strength_2>
0.1667

>  <oscillator_strength_3>
0.0066

>  <oscillator_strength_4>
0.0004

>  <open_babel_can_smiles>
COc1cnc(s1)C

>  <mulliken_charges>
15
1   -0.507163
2   -0.229842
3   -0.008365
4   0.107187
5   0.130387
6   -0.394237
7   -0.464719
8   0.170628
9   0.189346
10   0.169838
11   0.170685
12   0.177836
13   0.16852
14   0.168676
15   0.151224

>  <lowdin_charges>
15
1   -0.441142
2   -0.273701
3   -0.1833
4   -0.089341
5   -0.058526
6   -0.151275
7   -0.179718
8   0.216384
9   0.178861
10   0.167193
11   0.166322
12   0.166445
13   0.154161
14   0.155659
15   0.171978

$$$$

