PCCDB-ID:  35402
public computational chemistry database (PCCDB) project, http://pccdb.org

 25 26  0  0  0  0  0  0  0  0999 V2000
    0.8778   -0.0325    0.1017 C   0  0  0  0  0  0  0  0  0  0  0  0
    6.7869    0.0491    0.0571 C   0  0  0  0  0  0  0  0  0  0  0  0
    1.3378    3.2383    0.0655 C   0  0  0  0  0  0  0  0  0  0  0  0
    3.1341   -1.1536    0.0924 C   0  0  0  0  0  0  0  0  0  0  0  0
    4.5437   -1.1556    0.0817 C   0  0  0  0  0  0  0  0  0  0  0  0
    3.8822    3.3632    0.0503 C   0  0  0  0  0  0  0  0  0  0  0  0
    2.3875    0.0203    0.0888 C   0  0  0  0  0  0  0  0  0  0  0  0
    5.2795    0.0222    0.0663 C   0  0  0  0  0  0  0  0  0  0  0  0
    2.7162    2.6406    0.0643 C   0  0  0  0  0  0  0  0  0  0  0  0
    3.1026    1.2441    0.0722 C   0  0  0  0  0  0  0  0  0  0  0  0
    4.5242    1.2077    0.0613 C   0  0  0  0  0  0  0  0  0  0  0  0
    4.9711    2.5125    0.0480 N   0  0  0  0  0  0  0  0  0  0  0  0
    0.5262   -1.0694    0.1067 H   0  0  0  0  0  0  0  0  0  0  0  0
    0.4429    0.4602   -0.7765 H   0  0  0  0  0  0  0  0  0  0  0  0
    0.4580    0.4630    0.9858 H   0  0  0  0  0  0  0  0  0  0  0  0
    7.1974   -0.9651    0.0507 H   0  0  0  0  0  0  0  0  0  0  0  0
    7.1928    0.5631    0.9400 H   0  0  0  0  0  0  0  0  0  0  0  0
    7.1815    0.5686   -0.8278 H   0  0  0  0  0  0  0  0  0  0  0  0
    1.3944    4.3324    0.0751 H   0  0  0  0  0  0  0  0  0  0  0  0
    0.7538    2.9337    0.9425 H   0  0  0  0  0  0  0  0  0  0  0  0
    0.7590    2.9486   -0.8203 H   0  0  0  0  0  0  0  0  0  0  0  0
    2.6114   -2.1074    0.1035 H   0  0  0  0  0  0  0  0  0  0  0  0
    5.0711   -2.1070    0.0861 H   0  0  0  0  0  0  0  0  0  0  0  0
    4.0215    4.4361    0.0422 H   0  0  0  0  0  0  0  0  0  0  0  0
    5.9366    2.7992    0.0435 H   0  0  0  0  0  0  0  0  0  0  0  0
  1 13  1  0  0  0  0
  1 15  1  0  0  0  0
  2  8  1  0  0  0  0
  2 17  1  0  0  0  0
  3 19  1  0  0  0  0
  3 20  1  0  0  0  0
  4 22  1  0  0  0  0
  5 23  1  0  0  0  0
  5  4  2  0  0  0  0
  6  9  2  0  0  0  0
  7  4  1  0  0  0  0
  7  1  1  0  0  0  0
  8  5  1  0  0  0  0
  9  3  1  0  0  0  0
  9 10  1  0  0  0  0
 10  7  2  0  0  0  0
 11  8  2  0  0  0  0
 11 10  1  0  0  0  0
 12  6  1  0  0  0  0
 12 11  1  0  0  0  0
 14  1  1  0  0  0  0
 16  2  1  0  0  0  0
 18  2  1  0  0  0  0
 21  3  1  0  0  0  0
 24  6  1  0  0  0  0
 25 12  1  0  0  0  0
M  END
>  <HBA>
0

>  <HBD>
1

>  <TPSA>
15.79

>  <cid>
35402

>  <dipole>
1.98

>  <excitation_energy_1>
4.445

>  <excitation_energy_2>
4.567

>  <excitation_energy_3>
4.804

>  <excitation_energy_4>
5.013

>  <homo_energy>
-5.056

>  <homo_lumo_gap>
5.154

>  <logP>
3.093

>  <lumo_energy>
0.098

>  <melting_point>
109.44

>  <molecular_refractivity>
53.2

>  <oscillator_strength_1>
0.0001

>  <oscillator_strength_2>
0.1136

>  <oscillator_strength_3>
0.0214

>  <oscillator_strength_4>
0.0024

>  <open_babel_can_smiles>
Cc1ccc(c2c1[nH]cc2C)C

>  <mulliken_charges>
25
1   -0.529689
2   -0.546959
3   -0.527016
4   -0.194591
5   -0.218719
6   -0.003346
7   0.110274
8   0.192789
9   0.080308
10   0.029721
11   0.234701
12   -0.696697
13   0.149824
14   0.157201
15   0.15718
16   0.161676
17   0.152439
18   0.151829
19   0.145454
20   0.155967
21   0.156002
22   0.10757
23   0.110632
24   0.139048
25   0.324403

>  <lowdin_charges>
25
1   -0.440498
2   -0.444744
3   -0.4351
4   -0.191414
5   -0.177363
6   -0.142548
7   -0.004276
8   -0.030575
9   -0.057872
10   -0.044994
11   0.022834
12   -0.200568
13   0.153706
14   0.157568
15   0.157404
16   0.161231
17   0.153357
18   0.153027
19   0.15223
20   0.155688
21   0.155504
22   0.149528
23   0.150732
24   0.158648
25   0.288493

$$$$

