PCCDB-ID:  47797
public computational chemistry database (PCCDB) project, http://pccdb.org

 24 24  0  0  1  0  0  0  0  0999 V2000
    0.9122    0.8929   -1.2277 C   0  0  0  0  0  0  0  0  0  0  0  0
    2.3899    0.8368   -1.6279 C   0  0  0  0  0  0  0  0  0  0  0  0
    3.2279   -0.0685   -0.7145 C   0  0  0  0  0  0  0  0  0  0  0  0
    5.6785   -0.9094   -0.1785 C   0  0  0  0  0  0  0  0  0  0  0  0
    5.5859    1.1450   -0.8907 C   0  0  0  0  0  0  0  0  0  0  0  0
    4.7028   -0.1211   -1.0972 C   0  0  2  0  0  0  0  0  0  0  0  0
    6.7268    0.2424   -0.3643 C   0  0  2  0  0  0  0  0  0  0  0  0
    7.7786   -0.0902   -1.4091 C   0  0  0  0  0  0  0  0  0  0  0  0
    7.8049    0.3328   -2.5380 O   0  0  0  0  0  0  0  0  0  0  0  0
    8.7380   -0.9674   -0.9926 O   0  0  0  0  0  0  0  0  0  0  0  0
    0.3426    1.5512   -1.8934 H   0  0  0  0  0  0  0  0  0  0  0  0
    0.7922    1.2694   -0.2043 H   0  0  0  0  0  0  0  0  0  0  0  0
    0.4518   -0.1019   -1.2695 H   0  0  0  0  0  0  0  0  0  0  0  0
    2.8107    1.8520   -1.6180 H   0  0  0  0  0  0  0  0  0  0  0  0
    2.4771    0.4825   -2.6646 H   0  0  0  0  0  0  0  0  0  0  0  0
    2.8127   -1.0877   -0.7327 H   0  0  0  0  0  0  0  0  0  0  0  0
    3.1368    0.2791    0.3264 H   0  0  0  0  0  0  0  0  0  0  0  0
    5.9735   -1.9165   -0.4933 H   0  0  0  0  0  0  0  0  0  0  0  0
    5.3207   -0.9557    0.8560 H   0  0  0  0  0  0  0  0  0  0  0  0
    5.1931    1.7940   -0.1000 H   0  0  0  0  0  0  0  0  0  0  0  0
    5.8267    1.7441   -1.7713 H   0  0  0  0  0  0  0  0  0  0  0  0
    4.8066   -0.4718   -2.1316 H   0  0  0  0  0  0  0  0  0  0  0  0
    7.2302    0.5724    0.5538 H   0  0  0  0  0  0  0  0  0  0  0  0
    8.5690   -1.2237   -0.0706 H   0  0  0  0  0  0  0  0  0  0  0  0
  1 12  1  0  0  0  0
  2 14  1  0  0  0  0
  2  1  1  0  0  0  0
  2  3  1  0  0  0  0
  3 17  1  0  0  0  0
  4 19  1  0  0  0  0
  5  7  1  0  0  0  0
  5 20  1  0  0  0  0
  6 22  1  6  0  0  0
  6  5  1  0  0  0  0
  6  3  1  0  0  0  0
  6  4  1  0  0  0  0
  7  4  1  0  0  0  0
  7 23  1  1  0  0  0
  8 10  1  0  0  0  0
  8  7  1  0  0  0  0
  9  8  2  0  0  0  0
 10 24  1  0  0  0  0
 11  1  1  0  0  0  0
 13  1  1  0  0  0  0
 15  2  1  0  0  0  0
 16  3  1  0  0  0  0
 18  4  1  0  0  0  0
 21  5  1  0  0  0  0
M  END
>  <HBA>
2

>  <HBD>
1

>  <TPSA>
37.3

>  <cid>
47797

>  <dipole>
4.13

>  <excitation_energy_1>
5.61

>  <excitation_energy_2>
6.381

>  <excitation_energy_3>
7.015

>  <excitation_energy_4>
7.135

>  <homo_energy>
-7.26

>  <homo_lumo_gap>
7.51

>  <logP>
1.897

>  <lumo_energy>
0.25

>  <melting_point>
71.85

>  <molecular_refractivity>
40.23

>  <oscillator_strength_1>
0.0018

>  <oscillator_strength_2>
0.0089

>  <oscillator_strength_3>
0.0034

>  <oscillator_strength_4>
0.0174

>  <open_babel_can_smiles>
CCC[C@@H]1C[C@H](C1)C(=O)O

>  <mulliken_charges>
24
1   -0.442
2   -0.252244
3   -0.257927
4   -0.298048
5   -0.271477
6   -0.075207
7   -0.25133
8   0.60144
9   -0.439684
10   -0.570526
11   0.144659
12   0.140971
13   0.142357
14   0.138563
15   0.136033
16   0.130754
17   0.120768
18   0.149519
19   0.144161
20   0.133519
21   0.173459
22   0.145559
23   0.147483
24   0.409196

>  <lowdin_charges>
24
1   -0.444188
2   -0.270587
3   -0.274193
4   -0.284134
5   -0.284443
6   -0.123953
7   -0.179071
8   0.191932
9   -0.23845
10   -0.359061
11   0.152264
12   0.145221
13   0.14623
14   0.141547
15   0.140732
16   0.1407
17   0.133447
18   0.14622
19   0.148946
20   0.148405
21   0.164131
22   0.149662
23   0.152065
24   0.356577

$$$$

