PCCDB-ID:  53306
public computational chemistry database (PCCDB) project, http://pccdb.org

 25 27  0  0  0  0  0  0  0  0999 V2000
    0.8785   -0.2586   -0.0045 C   0  0  0  0  0  0  0  0  0  0  0  0
    4.4724    1.1061    0.0178 C   0  0  0  0  0  0  0  0  0  0  0  0
    3.0479    1.0355    0.0121 C   0  0  0  0  0  0  0  0  0  0  0  0
    5.2208   -0.0406    0.0148 C   0  0  0  0  0  0  0  0  0  0  0  0
    3.9703   -4.7899   -0.0018 C   0  0  0  0  0  0  0  0  0  0  0  0
    2.7603   -5.4128   -0.0038 C   0  0  0  0  0  0  0  0  0  0  0  0
    2.3768   -0.1557    0.0036 C   0  0  0  0  0  0  0  0  0  0  0  0
    4.0205   -3.3613   -0.0003 C   0  0  0  0  0  0  0  0  0  0  0  0
    1.4866   -4.6905   -0.0036 C   0  0  0  0  0  0  0  0  0  0  0  0
    4.5785   -1.3000    0.0075 C   0  0  0  0  0  0  0  0  0  0  0  0
    2.8160   -2.6591   -0.0008 C   0  0  0  0  0  0  0  0  0  0  0  0
    0.2856   -5.1637   -0.0044 N   0  0  0  0  0  0  0  0  0  0  0  0
    5.0963   -2.5149    0.0057 N   0  0  0  0  0  0  0  0  0  0  0  0
    1.6019   -3.2875   -0.0029 N   0  0  0  0  0  0  0  0  0  0  0  0
    3.1390   -1.3244    0.0020 N   0  0  0  0  0  0  0  0  0  0  0  0
    0.4445    0.7437   -0.0176 H   0  0  0  0  0  0  0  0  0  0  0  0
    0.4952   -0.7708    0.8876 H   0  0  0  0  0  0  0  0  0  0  0  0
    0.5067   -0.7872   -0.8919 H   0  0  0  0  0  0  0  0  0  0  0  0
    4.9553    2.0779    0.0237 H   0  0  0  0  0  0  0  0  0  0  0  0
    2.4626    1.9489    0.0125 H   0  0  0  0  0  0  0  0  0  0  0  0
    6.3049   -0.0335    0.0172 H   0  0  0  0  0  0  0  0  0  0  0  0
    4.8975   -5.3553   -0.0025 H   0  0  0  0  0  0  0  0  0  0  0  0
    2.6957   -6.4965   -0.0065 H   0  0  0  0  0  0  0  0  0  0  0  0
    0.3137   -6.1839   -0.0053 H   0  0  0  0  0  0  0  0  0  0  0  0
    0.7212   -2.7936   -0.0024 H   0  0  0  0  0  0  0  0  0  0  0  0
  1  7  1  0  0  0  0
  1 17  1  0  0  0  0
  2 19  1  0  0  0  0
  3 20  1  0  0  0  0
  3  2  1  0  0  0  0
  4 21  1  0  0  0  0
  4  2  2  0  0  0  0
  5  8  1  0  0  0  0
  6  9  1  0  0  0  0
  6  5  2  0  0  0  0
  7  3  2  0  0  0  0
  8 13  1  0  0  0  0
  9 14  1  0  0  0  0
 10  4  1  0  0  0  0
 11  8  2  0  0  0  0
 11 15  1  0  0  0  0
 12  9  2  0  0  0  0
 13 10  2  0  0  0  0
 14 25  1  0  0  0  0
 14 11  1  0  0  0  0
 15  7  1  0  0  0  0
 15 10  1  0  0  0  0
 16  1  1  0  0  0  0
 18  1  1  0  0  0  0
 22  5  1  0  0  0  0
 23  6  1  0  0  0  0
 24 12  1  0  0  0  0
M  END
>  <HBA>
4

>  <HBD>
1

>  <TPSA>
56.21

>  <cid>
53306

>  <dipole>
2.89

>  <excitation_energy_1>
3.0

>  <excitation_energy_2>
3.977

>  <excitation_energy_3>
4.102

>  <excitation_energy_4>
4.218

>  <homo_energy>
-4.846

>  <homo_lumo_gap>
3.421

>  <logP>
2.354

>  <lumo_energy>
-1.426

>  <melting_point>
172.22

>  <molecular_refractivity>
59.86

>  <oscillator_strength_1>
0.1669

>  <oscillator_strength_2>
0.0115

>  <oscillator_strength_3>
0.0125

>  <oscillator_strength_4>
0.0006

>  <open_babel_can_smiles>
N=c1ccc2c([nH]1)n1c(C)cccc1n2

>  <mulliken_charges>
25
1   -0.556126
2   -0.117743
3   -0.232412
4   -0.18359
5   -0.114983
6   -0.213275
7   0.383265
8   0.197321
9   0.501211
10   0.516965
11   0.603193
12   -0.683449
13   -0.578569
14   -0.768942
15   -0.651041
16   0.182972
17   0.181525
18   0.181113
19   0.141843
20   0.138883
21   0.159063
22   0.156186
23   0.137825
24   0.279205
25   0.339559

>  <lowdin_charges>
25
1   -0.448797
2   -0.163304
3   -0.193078
4   -0.156597
5   -0.12303
6   -0.20081
7   0.043029
8   -0.023639
9   0.093406
10   0.070924
11   0.060801
12   -0.468879
13   -0.194362
14   -0.215831
15   0.007789
16   0.17579
17   0.168572
18   0.168416
19   0.165868
20   0.167409
21   0.178218
22   0.175046
23   0.164467
24   0.250615
25   0.297978

$$$$

