PCCDB-ID:  61016
public computational chemistry database (PCCDB) project, http://pccdb.org

 26 25  0  0  1  0  0  0  0  0999 V2000
    0.4023   -1.2558   -0.4191 C   0  0  0  0  0  0  0  0  0  0  0  0
    2.3396   -1.2751   -2.0577 C   0  0  0  0  0  0  0  0  0  0  0  0
    5.2822   -4.1179   -0.5695 C   0  0  0  0  0  0  0  0  0  0  0  0
    4.2354   -1.2467    0.4728 C   0  0  0  0  0  0  0  0  0  0  0  0
    2.7293   -1.2507    0.4439 C   0  0  0  0  0  0  0  0  0  0  0  0
    4.8231   -2.4053    1.3070 C   0  0  0  0  0  0  0  0  0  0  0  0
    4.8314   -4.8955    1.7576 C   0  0  0  0  0  0  0  0  0  0  0  0
    1.9009   -1.2662   -0.6130 C   0  0  0  0  0  0  0  0  0  0  0  0
    4.5383   -3.8042    0.7430 C   0  0  2  0  0  0  0  0  0  0  0  0
    5.1715   -4.7182    2.9067 O   0  0  0  0  0  0  0  0  0  0  0  0
   -0.0649   -2.1332   -0.8884 H   0  0  0  0  0  0  0  0  0  0  0  0
   -0.0517   -0.3736   -0.8922 H   0  0  0  0  0  0  0  0  0  0  0  0
    0.1263   -1.2508    0.6401 H   0  0  0  0  0  0  0  0  0  0  0  0
    1.9681   -0.3821   -2.5796 H   0  0  0  0  0  0  0  0  0  0  0  0
    1.9160   -2.1400   -2.5870 H   0  0  0  0  0  0  0  0  0  0  0  0
    3.4247   -1.3033   -2.1817 H   0  0  0  0  0  0  0  0  0  0  0  0
    4.9626   -3.4469   -1.3721 H   0  0  0  0  0  0  0  0  0  0  0  0
    5.0880   -5.1445   -0.9028 H   0  0  0  0  0  0  0  0  0  0  0  0
    6.3655   -4.0034   -0.4431 H   0  0  0  0  0  0  0  0  0  0  0  0
    4.5773   -0.3063    0.9309 H   0  0  0  0  0  0  0  0  0  0  0  0
    4.6559   -1.2557   -0.5384 H   0  0  0  0  0  0  0  0  0  0  0  0
    2.2684   -1.2361    1.4343 H   0  0  0  0  0  0  0  0  0  0  0  0
    4.4273   -2.3560    2.3283 H   0  0  0  0  0  0  0  0  0  0  0  0
    5.9090   -2.2722    1.4001 H   0  0  0  0  0  0  0  0  0  0  0  0
    4.7045   -5.9318    1.3630 H   0  0  0  0  0  0  0  0  0  0  0  0
    3.4575   -3.8912    0.5346 H   0  0  0  0  0  0  0  0  0  0  0  0
  1 13  1  0  0  0  0
  2  8  1  0  0  0  0
  3 19  1  0  0  0  0
  3  9  1  0  0  0  0
  4 20  1  0  0  0  0
  4  6  1  0  0  0  0
  5  4  1  0  0  0  0
  5 22  1  0  0  0  0
  6 24  1  0  0  0  0
  6 23  1  0  0  0  0
  7 10  2  0  0  0  0
  8  1  1  0  0  0  0
  8  5  2  0  0  0  0
  9 26  1  6  0  0  0
  9  6  1  0  0  0  0
  9  7  1  0  0  0  0
 11  1  1  0  0  0  0
 12  1  1  0  0  0  0
 14  2  1  0  0  0  0
 15  2  1  0  0  0  0
 16  2  1  0  0  0  0
 17  3  1  0  0  0  0
 18  3  1  0  0  0  0
 21  4  1  0  0  0  0
 25  7  1  0  0  0  0
M  END
>  <HBA>
1

>  <HBD>
0

>  <TPSA>
17.07

>  <cid>
61016

>  <dipole>
2.91

>  <excitation_energy_1>
4.26

>  <excitation_energy_2>
4.993

>  <excitation_energy_3>
5.774

>  <excitation_energy_4>
6.2

>  <homo_energy>
-6.348

>  <homo_lumo_gap>
5.84

>  <logP>
2.568

>  <lumo_energy>
-0.509

>  <melting_point>
16.38

>  <molecular_refractivity>
45.1

>  <oscillator_strength_1>
0.0002

>  <oscillator_strength_2>
0.0207

>  <oscillator_strength_3>
0.0021

>  <oscillator_strength_4>
0.0056

>  <open_babel_can_smiles>
O=C[C@@H](CCC=C(C)C)C

>  <mulliken_charges>
26
1   -0.505923
2   -0.51348
3   -0.466299
4   -0.308869
5   -0.160809
6   -0.258726
7   0.2529
8   0.183017
9   -0.155815
10   -0.388226
11   0.148592
12   0.150882
13   0.152971
14   0.154993
15   0.150944
16   0.152835
17   0.160802
18   0.148604
19   0.155845
20   0.146143
21   0.135898
22   0.11364
23   0.155363
24   0.137691
25   0.097973
26   0.159052

>  <lowdin_charges>
26
1   -0.439835
2   -0.444967
3   -0.44176
4   -0.275825
5   -0.192448
6   -0.269559
7   0.052986
8   -0.0111
9   -0.160644
10   -0.218699
11   0.152897
12   0.154047
13   0.153864
14   0.157476
15   0.155306
16   0.151913
17   0.158369
18   0.151509
19   0.151373
20   0.153317
21   0.142955
22   0.145595
23   0.154241
24   0.145389
25   0.112182
26   0.161417

$$$$

