PCCDB-ID:  27867
public computational chemistry database (PCCDB) project, http://pccdb.org

 36 36  0  0  1  0  0  0  0  0999 V2000
    1.4912    0.9656    0.6465 C   0  0  0  0  0  0  0  0  0  0  0  0
    1.5264   -1.4672    0.0301 C   0  0  0  0  0  0  0  0  0  0  0  0
    5.4369    1.1767   -4.8732 C   0  0  0  0  0  0  0  0  0  0  0  0
    6.1905    2.3153    1.1152 C   0  0  0  0  0  0  0  0  0  0  0  0
    4.2468   -0.5375   -3.4161 C   0  0  0  0  0  0  0  0  0  0  0  0
    3.7560   -0.8999   -2.0056 C   0  0  0  0  0  0  0  0  0  0  0  0
    4.0961    1.9022   -2.8456 C   0  0  0  0  0  0  0  0  0  0  0  0
    2.3399   -0.1609    0.0291 C   0  0  0  0  0  0  0  0  0  0  0  0
    4.9875    0.8087   -3.4550 C   0  0  2  0  0  0  0  0  0  0  0  0
    4.9744    2.5618    0.2506 C   0  0  0  0  0  0  0  0  0  0  0  0
    2.8603    0.1967   -1.3901 C   0  0  1  0  0  0  0  0  0  0  0  0
    3.5829    1.5558   -1.4444 C   0  0  1  0  0  0  0  0  0  0  0  0
    4.3076    3.5745    0.2621 O   0  0  0  0  0  0  0  0  0  0  0  0
    4.7242    1.4876   -0.5333 O   0  0  0  0  0  0  0  0  0  0  0  0
    1.0926    0.6517    1.6183 H   0  0  0  0  0  0  0  0  0  0  0  0
    0.6340    1.2094    0.0046 H   0  0  0  0  0  0  0  0  0  0  0  0
    2.0600    1.8860    0.8099 H   0  0  0  0  0  0  0  0  0  0  0  0
    1.1428   -1.6769    1.0353 H   0  0  0  0  0  0  0  0  0  0  0  0
    2.1184   -2.3335   -0.2797 H   0  0  0  0  0  0  0  0  0  0  0  0
    0.6613   -1.3932   -0.6430 H   0  0  0  0  0  0  0  0  0  0  0  0
    6.0922    0.4051   -5.2950 H   0  0  0  0  0  0  0  0  0  0  0  0
    5.9858    2.1259   -4.8854 H   0  0  0  0  0  0  0  0  0  0  0  0
    4.5743    1.2831   -5.5444 H   0  0  0  0  0  0  0  0  0  0  0  0
    6.0080    1.4688    1.7858 H   0  0  0  0  0  0  0  0  0  0  0  0
    6.4072    3.2091    1.7011 H   0  0  0  0  0  0  0  0  0  0  0  0
    7.0527    2.0567    0.4923 H   0  0  0  0  0  0  0  0  0  0  0  0
    3.3844   -0.4889   -4.0997 H   0  0  0  0  0  0  0  0  0  0  0  0
    4.8983   -1.3346   -3.7985 H   0  0  0  0  0  0  0  0  0  0  0  0
    4.6211   -1.0615   -1.3474 H   0  0  0  0  0  0  0  0  0  0  0  0
    3.2130   -1.8494   -2.0498 H   0  0  0  0  0  0  0  0  0  0  0  0
    3.2193    2.0601   -3.4922 H   0  0  0  0  0  0  0  0  0  0  0  0
    4.6270    2.8615   -2.8025 H   0  0  0  0  0  0  0  0  0  0  0  0
    3.2184   -0.3125    0.6727 H   0  0  0  0  0  0  0  0  0  0  0  0
    5.8833    0.7181   -2.8234 H   0  0  0  0  0  0  0  0  0  0  0  0
    1.9763    0.3145   -2.0400 H   0  0  0  0  0  0  0  0  0  0  0  0
    2.9360    2.3596   -1.0926 H   0  0  0  0  0  0  0  0  0  0  0  0
  1 17  1  0  0  0  0
  1 15  1  0  0  0  0
  2 18  1  0  0  0  0
  3  9  1  0  0  0  0
  4 25  1  0  0  0  0
  4 24  1  0  0  0  0
  5  6  1  0  0  0  0
  6 11  1  0  0  0  0
  6 29  1  0  0  0  0
  7 32  1  0  0  0  0
  7 12  1  0  0  0  0
  8  2  1  0  0  0  0
  8  1  1  0  0  0  0
  8 33  1  0  0  0  0
  9  5  1  0  0  0  0
  9  7  1  0  0  0  0
  9 34  1  1  0  0  0
 10 13  2  0  0  0  0
 10  4  1  0  0  0  0
 11 35  1  6  0  0  0
 11  8  1  0  0  0  0
 12 11  1  0  0  0  0
 12 36  1  1  0  0  0
 12 14  1  0  0  0  0
 14 10  1  0  0  0  0
 16  1  1  0  0  0  0
 19  2  1  0  0  0  0
 20  2  1  0  0  0  0
 21  3  1  0  0  0  0
 22  3  1  0  0  0  0
 23  3  1  0  0  0  0
 26  4  1  0  0  0  0
 27  5  1  0  0  0  0
 28  5  1  0  0  0  0
 30  6  1  0  0  0  0
 31  7  1  0  0  0  0
M  END
>  <HBA>
2

>  <HBD>
0

>  <TPSA>
26.3

>  <cid>
27867

>  <dipole>
1.99

>  <excitation_energy_1>
5.813

>  <excitation_energy_2>
6.871

>  <excitation_energy_3>
7.156

>  <excitation_energy_4>
7.188

>  <homo_energy>
-7.276

>  <homo_lumo_gap>
7.695

>  <logP>
3.01

>  <lumo_energy>
0.419

>  <melting_point>
4.47

>  <molecular_refractivity>
58.97

>  <oscillator_strength_1>
0.0009

>  <oscillator_strength_2>
0.0301

>  <oscillator_strength_3>
0.0275

>  <oscillator_strength_4>
0.0385

>  <open_babel_can_smiles>
C[C@@H]1CC[C@H]([C@H](C1)OC(=O)C)C(C)C

>  <mulliken_charges>
36
1   -0.468957
2   -0.451886
3   -0.446481
4   -0.525158
5   -0.263515
6   -0.278607
7   -0.276363
8   -0.068375
9   -0.070224
10   0.615928
11   -0.08579
12   0.089751
13   -0.475237
14   -0.473319
15   0.139526
16   0.136608
17   0.166203
18   0.140846
19   0.146352
20   0.137308
21   0.140724
22   0.14111
23   0.138207
24   0.181094
25   0.181704
26   0.178985
27   0.122224
28   0.128782
29   0.14082
30   0.135722
31   0.131127
32   0.145024
33   0.127266
34   0.129481
35   0.116752
36   0.172368

>  <lowdin_charges>
36
1   -0.452772
2   -0.446762
3   -0.444646
4   -0.467188
5   -0.27915
6   -0.282871
7   -0.285012
8   -0.123555
9   -0.128026
10   0.200593
11   -0.136278
12   -0.003978
13   -0.269465
14   -0.200603
15   0.148968
16   0.145135
17   0.157791
18   0.1486
19   0.14956
20   0.144936
21   0.149687
22   0.148565
23   0.145581
24   0.177819
25   0.175427
26   0.176486
27   0.135545
28   0.144119
29   0.145328
30   0.146501
31   0.14606
32   0.15162
33   0.139143
34   0.139806
35   0.13952
36   0.163518

$$$$

