PCCDB-ID:  27253
public computational chemistry database (PCCDB) project, http://pccdb.org

 26 26  0  0  0  0  0  0  0  0999 V2000
    0.9217   -0.1856    0.0374 C   0  0  0  0  0  0  0  0  0  0  0  0
    4.2797    5.7273   -0.9319 C   0  0  0  0  0  0  0  0  0  0  0  0
    2.4183    0.0154    0.0681 C   0  0  0  0  0  0  0  0  0  0  0  0
    5.1176    2.3233    0.8558 C   0  0  0  0  0  0  0  0  0  0  0  0
    4.9912    3.7520    0.3811 C   0  0  0  0  0  0  0  0  0  0  0  0
    4.5713    1.2393   -0.0948 C   0  0  0  0  0  0  0  0  0  0  0  0
    3.0882    3.5035   -1.2928 C   0  0  0  0  0  0  0  0  0  0  0  0
    2.3158    2.4521   -0.4725 C   0  0  0  0  0  0  0  0  0  0  0  0
    4.1744    4.2686   -0.5489 C   0  0  0  0  0  0  0  0  0  0  0  0
    3.0639    1.1685   -0.1634 C   0  0  0  0  0  0  0  0  0  0  0  0
    0.6587   -1.2109    0.3152 H   0  0  0  0  0  0  0  0  0  0  0  0
    0.4996   -0.0010   -0.9607 H   0  0  0  0  0  0  0  0  0  0  0  0
    0.3980    0.4857    0.7307 H   0  0  0  0  0  0  0  0  0  0  0  0
    5.0934    6.2340   -0.4035 H   0  0  0  0  0  0  0  0  0  0  0  0
    3.3448    6.2646   -0.7172 H   0  0  0  0  0  0  0  0  0  0  0  0
    4.4578    5.8390   -2.0112 H   0  0  0  0  0  0  0  0  0  0  0  0
    3.0159   -0.8651    0.3036 H   0  0  0  0  0  0  0  0  0  0  0  0
    4.6536    2.2085    1.8484 H   0  0  0  0  0  0  0  0  0  0  0  0
    6.1871    2.1257    1.0159 H   0  0  0  0  0  0  0  0  0  0  0  0
    5.6932    4.4394    0.8558 H   0  0  0  0  0  0  0  0  0  0  0  0
    4.9600    0.2629    0.2177 H   0  0  0  0  0  0  0  0  0  0  0  0
    4.9870    1.4305   -1.0956 H   0  0  0  0  0  0  0  0  0  0  0  0
    2.3573    4.2367   -1.6582 H   0  0  0  0  0  0  0  0  0  0  0  0
    3.5027    3.0408   -2.2014 H   0  0  0  0  0  0  0  0  0  0  0  0
    1.3880    2.2102   -1.0058 H   0  0  0  0  0  0  0  0  0  0  0  0
    2.0010    2.9263    0.4703 H   0  0  0  0  0  0  0  0  0  0  0  0
  1  3  1  0  0  0  0
  1 11  1  0  0  0  0
  1 13  1  0  0  0  0
  2 15  1  0  0  0  0
  2  9  1  0  0  0  0
  2 14  1  0  0  0  0
  3 17  1  0  0  0  0
  4 19  1  0  0  0  0
  4 18  1  0  0  0  0
  5 20  1  0  0  0  0
  5  4  1  0  0  0  0
  6 21  1  0  0  0  0
  6  4  1  0  0  0  0
  7  9  1  0  0  0  0
  7  8  1  0  0  0  0
  8 10  1  0  0  0  0
  8 26  1  0  0  0  0
  9  5  2  0  0  0  0
 10  6  1  0  0  0  0
 10  3  2  0  0  0  0
 12  1  1  0  0  0  0
 16  2  1  0  0  0  0
 22  6  1  0  0  0  0
 23  7  1  0  0  0  0
 24  7  1  0  0  0  0
 25  8  1  0  0  0  0
M  END
>  <HBA>
0

>  <HBD>
0

>  <TPSA>
0.0

>  <cid>
27253

>  <dipole>
0.32

>  <excitation_energy_1>
5.46

>  <excitation_energy_2>
5.541

>  <excitation_energy_3>
5.849

>  <excitation_energy_4>
5.93

>  <homo_energy>
-6.044

>  <homo_lumo_gap>
6.863

>  <logP>
3.453

>  <lumo_energy>
0.819

>  <melting_point>
19.78

>  <molecular_refractivity>
47.12

>  <oscillator_strength_1>
0.0018

>  <oscillator_strength_2>
0.0084

>  <oscillator_strength_3>
0.0014

>  <oscillator_strength_4>
0.007

>  <open_babel_can_smiles>
C/C=C\1/CCC=C(CC1)C

>  <mulliken_charges>
26
1   -0.485525
2   -0.515557
3   -0.19255
4   -0.294365
5   -0.175284
6   -0.339154
7   -0.342882
8   -0.331667
9   0.190021
10   0.211016
11   0.147108
12   0.155841
13   0.15589
14   0.150017
15   0.14847
16   0.149941
17   0.116137
18   0.147303
19   0.138424
20   0.110453
21   0.133639
22   0.143947
23   0.136664
24   0.150507
25   0.139354
26   0.15225

>  <lowdin_charges>
26
1   -0.447947
2   -0.438498
3   -0.19706
4   -0.2729
5   -0.196559
6   -0.271437
7   -0.280139
8   -0.276128
9   -0.019963
10   -0.01705
11   0.154068
12   0.154682
13   0.156675
14   0.154085
15   0.151244
16   0.150524
17   0.146356
18   0.149068
19   0.148412
20   0.147637
21   0.148361
22   0.147784
23   0.150528
24   0.152051
25   0.151905
26   0.154301

$$$$

