PCCDB-ID:  14280
public computational chemistry database (PCCDB) project, http://pccdb.org

 20 20  0  0  0  0  0  0  0  0999 V2000
    0.8817   -0.0283   -0.0345 C   0  0  0  0  0  0  0  0  0  0  0  0
    2.4485   -2.5817   -0.1140 C   0  0  0  0  0  0  0  0  0  0  0  0
    5.2939    2.4420   -0.3768 C   0  0  0  0  0  0  0  0  0  0  0  0
    3.1018    1.1690   -0.1966 C   0  0  0  0  0  0  0  0  0  0  0  0
    4.5092   -1.1277   -0.2680 C   0  0  0  0  0  0  0  0  0  0  0  0
    2.3867   -0.0294   -0.1357 C   0  0  0  0  0  0  0  0  0  0  0  0
    3.1176   -1.2317   -0.1732 C   0  0  0  0  0  0  0  0  0  0  0  0
    4.4977    1.1626   -0.2930 C   0  0  0  0  0  0  0  0  0  0  0  0
    5.1959    0.0166   -0.3264 N   0  0  0  0  0  0  0  0  0  0  0  0
    0.4884    0.9910    0.0210 H   0  0  0  0  0  0  0  0  0  0  0  0
    0.5384   -0.5726    0.8543 H   0  0  0  0  0  0  0  0  0  0  0  0
    0.4222   -0.5204   -0.9015 H   0  0  0  0  0  0  0  0  0  0  0  0
    3.1891   -3.3870   -0.1481 H   0  0  0  0  0  0  0  0  0  0  0  0
    1.7560   -2.7307   -0.9528 H   0  0  0  0  0  0  0  0  0  0  0  0
    1.8626   -2.7071    0.8059 H   0  0  0  0  0  0  0  0  0  0  0  0
    4.6736    3.3211   -0.1768 H   0  0  0  0  0  0  0  0  0  0  0  0
    5.7365    2.5546   -1.3742 H   0  0  0  0  0  0  0  0  0  0  0  0
    6.1220    2.4220    0.3392 H   0  0  0  0  0  0  0  0  0  0  0  0
    2.5680    2.1161   -0.1677 H   0  0  0  0  0  0  0  0  0  0  0  0
    5.1082   -2.0389   -0.2966 H   0  0  0  0  0  0  0  0  0  0  0  0
  1 10  1  0  0  0  0
  1 11  1  0  0  0  0
  2 15  1  0  0  0  0
  3  8  1  0  0  0  0
  3 16  1  0  0  0  0
  3 18  1  0  0  0  0
  4 19  1  0  0  0  0
  4  6  2  0  0  0  0
  5  7  2  0  0  0  0
  6  1  1  0  0  0  0
  7  6  1  0  0  0  0
  7  2  1  0  0  0  0
  8  4  1  0  0  0  0
  9  8  2  0  0  0  0
  9  5  1  0  0  0  0
 12  1  1  0  0  0  0
 13  2  1  0  0  0  0
 14  2  1  0  0  0  0
 17  3  1  0  0  0  0
 20  5  1  0  0  0  0
M  END
>  <HBA>
1

>  <HBD>
0

>  <TPSA>
12.89

>  <cid>
14280

>  <dipole>
2.39

>  <excitation_energy_1>
4.913

>  <excitation_energy_2>
5.224

>  <excitation_energy_3>
5.261

>  <excitation_energy_4>
5.937

>  <homo_energy>
-6.452

>  <homo_lumo_gap>
6.101

>  <logP>
2.007

>  <lumo_energy>
-0.351

>  <melting_point>
32.33

>  <molecular_refractivity>
39.13

>  <oscillator_strength_1>
0.0044

>  <oscillator_strength_2>
0.0517

>  <oscillator_strength_3>
0.0003

>  <oscillator_strength_4>
0.0477

>  <open_babel_can_smiles>
Cc1ncc(c(c1)C)C

>  <mulliken_charges>
20
1   -0.532345
2   -0.537838
3   -0.505224
4   -0.229031
5   -0.019894
6   0.160434
7   0.116292
8   0.309213
9   -0.464836
10   0.159383
11   0.164943
12   0.165977
13   0.160497
14   0.160454
15   0.160363
16   0.145521
17   0.168222
18   0.170451
19   0.119849
20   0.12757

>  <lowdin_charges>
20
1   -0.442612
2   -0.441674
3   -0.444975
4   -0.197949
5   -0.101561
6   0.017396
7   -0.035046
8   0.053041
9   -0.164746
10   0.158829
11   0.163167
12   0.163946
13   0.160843
14   0.15941
15   0.158889
16   0.152482
17   0.165819
18   0.168536
19   0.155694
20   0.150512

$$$$

