PCCDB-ID:  15682
public computational chemistry database (PCCDB) project, http://pccdb.org

 30 31  0  0  0  0  0  0  0  0999 V2000
    0.8493   -2.8946   -2.4554 C   0  0  0  0  0  0  0  0  0  0  0  0
    2.1832   -2.4952   -2.5467 C   0  0  0  0  0  0  0  0  0  0  0  0
   -0.0735   -2.0860   -1.7848 C   0  0  0  0  0  0  0  0  0  0  0  0
    2.5942   -1.2886   -1.9791 C   0  0  0  0  0  0  0  0  0  0  0  0
    0.3383   -0.8868   -1.2128 C   0  0  0  0  0  0  0  0  0  0  0  0
    5.0403    4.5221    0.4034 C   0  0  0  0  0  0  0  0  0  0  0  0
    3.7320    2.5665   -0.2916 C   0  0  0  0  0  0  0  0  0  0  0  0
    6.1568    5.3465    0.4126 C   0  0  0  0  0  0  0  0  0  0  0  0
    3.3776    1.4212   -0.9173 C   0  0  0  0  0  0  0  0  0  0  0  0
    7.2235    3.8437   -1.1592 C   0  0  0  0  0  0  0  0  0  0  0  0
    1.6756   -0.4676   -1.3069 C   0  0  0  0  0  0  0  0  0  0  0  0
    4.9565    3.3461   -0.3683 C   0  0  0  0  0  0  0  0  0  0  0  0
    7.2590    5.0013   -0.3781 C   0  0  0  0  0  0  0  0  0  0  0  0
    2.0406    0.8407   -0.6584 C   0  0  0  0  0  0  0  0  0  0  0  0
    6.0934    3.0290   -1.1574 C   0  0  0  0  0  0  0  0  0  0  0  0
    8.3965    5.7495   -0.4312 O   0  0  0  0  0  0  0  0  0  0  0  0
    1.2191    1.4080    0.0632 O   0  0  0  0  0  0  0  0  0  0  0  0
    6.0556    1.8981   -1.9190 O   0  0  0  0  0  0  0  0  0  0  0  0
    0.5295   -3.8326   -2.9019 H   0  0  0  0  0  0  0  0  0  0  0  0
    2.9065   -3.1237   -3.0594 H   0  0  0  0  0  0  0  0  0  0  0  0
   -1.1129   -2.3946   -1.7091 H   0  0  0  0  0  0  0  0  0  0  0  0
    3.6389   -1.0052   -2.0503 H   0  0  0  0  0  0  0  0  0  0  0  0
   -0.3581   -0.2468   -0.6813 H   0  0  0  0  0  0  0  0  0  0  0  0
    4.1843    4.7882    1.0176 H   0  0  0  0  0  0  0  0  0  0  0  0
    2.9779    2.9773    0.3797 H   0  0  0  0  0  0  0  0  0  0  0  0
    6.1765    6.2461    1.0233 H   0  0  0  0  0  0  0  0  0  0  0  0
    4.0453    0.9363   -1.6134 H   0  0  0  0  0  0  0  0  0  0  0  0
    8.0904    3.5928   -1.7653 H   0  0  0  0  0  0  0  0  0  0  0  0
    8.2965    6.5174    0.1532 H   0  0  0  0  0  0  0  0  0  0  0  0
    6.8919    1.8186   -2.4047 H   0  0  0  0  0  0  0  0  0  0  0  0
  1  3  1  0  0  0  0
  2  1  2  0  0  0  0
  2  4  1  0  0  0  0
  3 21  1  0  0  0  0
  3  5  2  0  0  0  0
  4 11  2  0  0  0  0
  5 23  1  0  0  0  0
  6  8  1  0  0  0  0
  6 24  1  0  0  0  0
  7 25  1  0  0  0  0
  8 26  1  0  0  0  0
  9 14  1  0  0  0  0
  9  7  2  0  0  0  0
 10 15  2  0  0  0  0
 10 13  1  0  0  0  0
 11  5  1  0  0  0  0
 11 14  1  0  0  0  0
 12  7  1  0  0  0  0
 12  6  2  0  0  0  0
 13  8  2  0  0  0  0
 14 17  2  0  0  0  0
 15 12  1  0  0  0  0
 16 13  1  0  0  0  0
 16 29  1  0  0  0  0
 18 15  1  0  0  0  0
 19  1  1  0  0  0  0
 20  2  1  0  0  0  0
 22  4  1  0  0  0  0
 27  9  1  0  0  0  0
 28 10  1  0  0  0  0
 30 18  1  0  0  0  0
M  END
>  <HBA>
3

>  <HBD>
2

>  <TPSA>
57.53

>  <cid>
15682

>  <dipole>
4.45

>  <excitation_energy_1>
3.274

>  <excitation_energy_2>
3.637

>  <excitation_energy_3>
4.233

>  <excitation_energy_4>
4.268

>  <homo_energy>
-5.733

>  <homo_lumo_gap>
3.973

>  <logP>
2.994

>  <lumo_energy>
-1.761

>  <melting_point>
170.24

>  <molecular_refractivity>
70.29

>  <oscillator_strength_1>
0.0003

>  <oscillator_strength_2>
0.6903

>  <oscillator_strength_3>
0.0445

>  <oscillator_strength_4>
0.0268

>  <open_babel_can_smiles>
Oc1ccc(c(c1)O)/C=C/C(=O)c1ccccc1

>  <mulliken_charges>
30
1   -0.119196
2   -0.13857
3   -0.134829
4   -0.174364
5   -0.154947
6   -0.216063
7   -0.160096
8   -0.19802
9   -0.221678
10   -0.240944
11   0.066882
12   0.165512
13   0.358728
14   0.378828
15   0.309838
16   -0.637441
17   -0.502732
18   -0.640949
19   0.131874
20   0.129879
21   0.133201
22   0.139042
23   0.160829
24   0.148474
25   0.162287
26   0.125593
27   0.165098
28   0.13475
29   0.413962
30   0.415051

>  <lowdin_charges>
30
1   -0.14382
2   -0.161886
3   -0.155806
4   -0.149582
5   -0.132282
6   -0.125485
7   -0.099117
8   -0.233029
9   -0.229616
10   -0.245262
11   -0.042083
12   -0.053295
13   0.120517
14   0.151992
15   0.124769
16   -0.366453
17   -0.275692
18   -0.360334
19   0.158606
20   0.159049
21   0.157887
22   0.160185
23   0.177437
24   0.167937
25   0.174494
26   0.158162
27   0.17152
28   0.166641
29   0.362906
30   0.361642

$$$$

