PCCDB-ID:  23432
public computational chemistry database (PCCDB) project, http://pccdb.org

 23 23  0  0  1  0  0  0  0  0999 V2000
    0.9796    0.0249   -0.0929 C   0  0  0  0  0  0  0  0  0  0  0  0
    4.6311    1.2971    0.5513 C   0  0  0  0  0  0  0  0  0  0  0  0
    5.2032    0.0393    1.2225 C   0  0  0  0  0  0  0  0  0  0  0  0
    3.0939    1.2921    0.5595 C   0  0  0  0  0  0  0  0  0  0  0  0
    4.6239   -1.2369    0.5925 C   0  0  0  0  0  0  0  0  0  0  0  0
    2.5117    0.0070   -0.0638 C   0  0  1  0  0  0  0  0  0  0  0  0
    3.0769   -1.2589    0.6291 C   0  0  2  0  0  0  0  0  0  0  0  0
    2.5004   -1.4196    1.9761 N   0  0  0  0  0  0  0  0  0  0  0  0
    0.6105    0.8974   -0.6459 H   0  0  0  0  0  0  0  0  0  0  0  0
    0.5696    0.0538    0.9207 H   0  0  0  0  0  0  0  0  0  0  0  0
    0.5847   -0.8747   -0.5804 H   0  0  0  0  0  0  0  0  0  0  0  0
    4.9835    1.3387   -0.4901 H   0  0  0  0  0  0  0  0  0  0  0  0
    5.0116    2.2007    1.0446 H   0  0  0  0  0  0  0  0  0  0  0  0
    4.9670    0.0606    2.2972 H   0  0  0  0  0  0  0  0  0  0  0  0
    6.2981    0.0312    1.1535 H   0  0  0  0  0  0  0  0  0  0  0  0
    2.7118    2.1658    0.0151 H   0  0  0  0  0  0  0  0  0  0  0  0
    2.7276    1.4002    1.5920 H   0  0  0  0  0  0  0  0  0  0  0  0
    5.0167   -2.1291    1.1000 H   0  0  0  0  0  0  0  0  0  0  0  0
    4.9565   -1.3020   -0.4543 H   0  0  0  0  0  0  0  0  0  0  0  0
    2.8704   -0.0342   -1.1047 H   0  0  0  0  0  0  0  0  0  0  0  0
    2.7333   -2.1304    0.0549 H   0  0  0  0  0  0  0  0  0  0  0  0
    2.8524   -0.6953    2.6002 H   0  0  0  0  0  0  0  0  0  0  0  0
    2.8156   -2.3040    2.3730 H   0  0  0  0  0  0  0  0  0  0  0  0
  1  6  1  0  0  0  0
  1 10  1  0  0  0  0
  2  4  1  0  0  0  0
  2 13  1  0  0  0  0
  2  3  1  0  0  0  0
  3 14  1  0  0  0  0
  4 17  1  0  0  0  0
  5  7  1  0  0  0  0
  5 18  1  0  0  0  0
  5  3  1  0  0  0  0
  6 20  1  6  0  0  0
  6  4  1  0  0  0  0
  6  7  1  0  0  0  0
  7 21  1  6  0  0  0
  7  8  1  0  0  0  0
  8 23  1  0  0  0  0
  8 22  1  0  0  0  0
  9  1  1  0  0  0  0
 11  1  1  0  0  0  0
 12  2  1  0  0  0  0
 15  3  1  0  0  0  0
 16  4  1  0  0  0  0
 19  5  1  0  0  0  0
M  END
>  <HBA>
1

>  <HBD>
1

>  <TPSA>
26.02

>  <cid>
23432

>  <dipole>
1.39

>  <excitation_energy_1>
5.523

>  <excitation_energy_2>
6.047

>  <excitation_energy_3>
6.293

>  <excitation_energy_4>
6.401

>  <homo_energy>
-6.166

>  <homo_lumo_gap>
8.022

>  <logP>
2.224

>  <lumo_energy>
1.856

>  <melting_point>
49.6

>  <molecular_refractivity>
36.36

>  <oscillator_strength_1>
0.0197

>  <oscillator_strength_2>
0.0066

>  <oscillator_strength_3>
0.0066

>  <oscillator_strength_4>
0.0026

>  <open_babel_can_smiles>
C[C@H]1CCCC[C@H]1N

>  <mulliken_charges>
23
1   -0.436011
2   -0.258339
3   -0.261577
4   -0.267325
5   -0.264912
6   -0.069762
7   0.022722
8   -0.718883
9   0.128389
10   0.161395
11   0.133922
12   0.128146
13   0.129166
14   0.117094
15   0.132847
16   0.130482
17   0.12488
18   0.118763
19   0.125279
20   0.114031
21   0.121585
22   0.294857
23   0.29325

>  <lowdin_charges>
23
1   -0.443756
2   -0.277595
3   -0.277213
4   -0.281088
5   -0.295623
6   -0.128805
7   -0.070976
8   -0.555645
9   0.142956
10   0.156787
11   0.147361
12   0.136717
13   0.14321
14   0.129399
15   0.143039
16   0.14475
17   0.134465
18   0.137682
19   0.138399
20   0.133236
21   0.138812
22   0.24982
23   0.254069

$$$$

