PCCDB-ID:  7725
public computational chemistry database (PCCDB) project, http://pccdb.org

 17 17  0  0  0  0  0  0  0  0999 V2000
    1.0004   -0.0795    0.0386 C   0  0  0  0  0  0  0  0  0  0  0  0
    3.2039   -1.3032   -0.2245 C   0  0  0  0  0  0  0  0  0  0  0  0
    3.2351    1.1055   -0.0800 C   0  0  0  0  0  0  0  0  0  0  0  0
    4.5908   -1.3116   -0.3588 C   0  0  0  0  0  0  0  0  0  0  0  0
    4.6166    1.1038   -0.2130 C   0  0  0  0  0  0  0  0  0  0  0  0
    6.7794   -0.1241   -0.4923 C   0  0  0  0  0  0  0  0  0  0  0  0
    2.5048   -0.0969   -0.0856 C   0  0  0  0  0  0  0  0  0  0  0  0
    5.3083   -0.1099   -0.3544 C   0  0  0  0  0  0  0  0  0  0  0  0
    7.4876    0.8655   -0.4970 O   0  0  0  0  0  0  0  0  0  0  0  0
    0.6059   -1.0684    0.2915 H   0  0  0  0  0  0  0  0  0  0  0  0
    0.5313    0.2321   -0.9041 H   0  0  0  0  0  0  0  0  0  0  0  0
    0.6711    0.6269    0.8089 H   0  0  0  0  0  0  0  0  0  0  0  0
    2.6549   -2.2417   -0.2257 H   0  0  0  0  0  0  0  0  0  0  0  0
    2.7049    2.0486    0.0320 H   0  0  0  0  0  0  0  0  0  0  0  0
    5.1232   -2.2549   -0.4640 H   0  0  0  0  0  0  0  0  0  0  0  0
    5.1865    2.0280   -0.2072 H   0  0  0  0  0  0  0  0  0  0  0  0
    7.2238   -1.1397   -0.5971 H   0  0  0  0  0  0  0  0  0  0  0  0
  1 10  1  0  0  0  0
  1 12  1  0  0  0  0
  2  7  2  0  0  0  0
  3 14  1  0  0  0  0
  4  8  2  0  0  0  0
  4  2  1  0  0  0  0
  5 16  1  0  0  0  0
  5  3  2  0  0  0  0
  6  8  1  0  0  0  0
  7  3  1  0  0  0  0
  7  1  1  0  0  0  0
  8  5  1  0  0  0  0
  9  6  2  0  0  0  0
 11  1  1  0  0  0  0
 13  2  1  0  0  0  0
 15  4  1  0  0  0  0
 17  6  1  0  0  0  0
M  END
>  <HBA>
1

>  <HBD>
0

>  <TPSA>
17.07

>  <cid>
7725

>  <dipole>
3.79

>  <excitation_energy_1>
3.719

>  <excitation_energy_2>
4.688

>  <excitation_energy_3>
4.973

>  <excitation_energy_4>
5.552

>  <homo_energy>
-6.841

>  <homo_lumo_gap>
5.244

>  <logP>
1.808

>  <lumo_energy>
-1.597

>  <melting_point>
41.92

>  <molecular_refractivity>
36.8

>  <oscillator_strength_1>
0.0001

>  <oscillator_strength_2>
0.0169

>  <oscillator_strength_3>
0.3367

>  <oscillator_strength_4>
0.0001

>  <open_babel_can_smiles>
O=Cc1ccc(cc1)C

>  <mulliken_charges>
17
1   -0.532065
2   -0.183733
3   -0.176925
4   -0.176427
5   -0.156382
6   0.191421
7   0.183267
8   0.095096
9   -0.410197
10   0.160914
11   0.173035
12   0.166437
13   0.131307
14   0.132908
15   0.139201
16   0.162448
17   0.099696

>  <lowdin_charges>
17
1   -0.443549
2   -0.168752
3   -0.163185
4   -0.140054
5   -0.123964
6   0.047571
7   0.022379
8   -0.060229
9   -0.232844
10   0.15985
11   0.167225
12   0.164668
13   0.158925
14   0.159647
15   0.161649
16   0.175726
17   0.114938

$$$$

