PCCDB-ID:  61527
public computational chemistry database (PCCDB) project, http://pccdb.org

 20 20  0  0  0  0  0  0  0  0999 V2000
    1.0145   -0.1180    0.2917 C   0  0  0  0  0  0  0  0  0  0  0  0
    7.2307    0.7126   -0.3994 C   0  0  0  0  0  0  0  0  0  0  0  0
    5.4711   -1.9969    0.0160 C   0  0  0  0  0  0  0  0  0  0  0  0
    3.3292    1.0711   -0.0341 C   0  0  0  0  0  0  0  0  0  0  0  0
    2.4878    0.0224    0.1370 C   0  0  0  0  0  0  0  0  0  0  0  0
    5.8641    1.3738   -0.3062 C   0  0  0  0  0  0  0  0  0  0  0  0
    4.5368   -0.8316    0.0087 C   0  0  0  0  0  0  0  0  0  0  0  0
    4.6646    0.5348   -0.1199 C   0  0  0  0  0  0  0  0  0  0  0  0
    5.7561    2.5910   -0.3851 O   0  0  0  0  0  0  0  0  0  0  0  0
    3.2210   -1.1476    0.1645 O   0  0  0  0  0  0  0  0  0  0  0  0
    0.5463    0.8697    0.2739 H   0  0  0  0  0  0  0  0  0  0  0  0
    0.7533   -0.6044    1.2397 H   0  0  0  0  0  0  0  0  0  0  0  0
    0.5786   -0.7181   -0.5168 H   0  0  0  0  0  0  0  0  0  0  0  0
    7.2733    0.0067   -1.2375 H   0  0  0  0  0  0  0  0  0  0  0  0
    7.4610    0.1501    0.5134 H   0  0  0  0  0  0  0  0  0  0  0  0
    7.9847    1.4887   -0.5433 H   0  0  0  0  0  0  0  0  0  0  0  0
    6.2086   -1.9268    0.8238 H   0  0  0  0  0  0  0  0  0  0  0  0
    6.0256   -2.0845   -0.9255 H   0  0  0  0  0  0  0  0  0  0  0  0
    4.8967   -2.9158    0.1587 H   0  0  0  0  0  0  0  0  0  0  0  0
    3.0736    2.1186   -0.0974 H   0  0  0  0  0  0  0  0  0  0  0  0
  1 12  1  0  0  0  0
  2  6  1  0  0  0  0
  2 15  1  0  0  0  0
  3 19  1  0  0  0  0
  3 17  1  0  0  0  0
  4  5  2  0  0  0  0
  5 10  1  0  0  0  0
  5  1  1  0  0  0  0
  6  8  1  0  0  0  0
  7  3  1  0  0  0  0
  7 10  1  0  0  0  0
  8  4  1  0  0  0  0
  8  7  2  0  0  0  0
  9  6  2  0  0  0  0
 11  1  1  0  0  0  0
 13  1  1  0  0  0  0
 14  2  1  0  0  0  0
 16  2  1  0  0  0  0
 18  3  1  0  0  0  0
 20  4  1  0  0  0  0
M  END
>  <HBA>
2

>  <HBD>
0

>  <TPSA>
30.21

>  <cid>
61527

>  <dipole>
3.22

>  <excitation_energy_1>
4.048

>  <excitation_energy_2>
4.559

>  <excitation_energy_3>
5.457

>  <excitation_energy_4>
5.845

>  <homo_energy>
-6.0

>  <homo_lumo_gap>
5.129

>  <logP>
2.099

>  <lumo_energy>
-0.871

>  <melting_point>
47.12

>  <molecular_refractivity>
38.83

>  <oscillator_strength_1>
0.0001

>  <oscillator_strength_2>
0.0784

>  <oscillator_strength_3>
0.0007

>  <oscillator_strength_4>
0.0003

>  <open_babel_can_smiles>
Cc1oc(c(c1)C(=O)C)C

>  <mulliken_charges>
20
1   -0.529317
2   -0.543246
3   -0.546984
4   -0.223273
5   0.342453
6   0.402806
7   0.309877
8   0.003754
9   -0.464339
10   -0.467406
11   0.171972
12   0.171106
13   0.171126
14   0.16453
15   0.164712
16   0.179523
17   0.176364
18   0.176417
19   0.182613
20   0.157312

>  <lowdin_charges>
20
1   -0.440909
2   -0.473446
3   -0.447516
4   -0.197473
5   0.068863
6   0.15757
7   0.088769
8   -0.100457
9   -0.255273
10   -0.108043
11   0.171223
12   0.166854
13   0.167635
14   0.166367
15   0.166382
16   0.174428
17   0.16987
18   0.169373
19   0.176778
20   0.179004

$$$$

