PCCDB-ID:  27664
public computational chemistry database (PCCDB) project, http://pccdb.org

 24 23  0  0  0  0  0  0  0  0999 V2000
    0.7263    2.1987    0.9247 C   0  0  0  0  0  0  0  0  0  0  0  0
    2.2552    2.2897    0.9174 C   0  0  0  0  0  0  0  0  0  0  0  0
    2.9003    1.3464   -0.1060 C   0  0  0  0  0  0  0  0  0  0  0  0
    5.7085    4.8812   -3.2384 C   0  0  0  0  0  0  0  0  0  0  0  0
    5.5088    4.3994   -2.0073 C   0  0  0  0  0  0  0  0  0  0  0  0
    4.4241    1.4117   -0.1414 C   0  0  0  0  0  0  0  0  0  0  0  0
    6.1995    6.2764   -3.4433 C   0  0  0  0  0  0  0  0  0  0  0  0
    5.0200    3.0083   -1.8088 C   0  0  0  0  0  0  0  0  0  0  0  0
    6.4363    7.0501   -2.5467 O   0  0  0  0  0  0  0  0  0  0  0  0
    6.3745    6.6521   -4.7381 O   0  0  0  0  0  0  0  0  0  0  0  0
    4.7713    2.2263   -2.7060 O   0  0  0  0  0  0  0  0  0  0  0  0
    4.8979    2.7374   -0.4941 O   0  0  0  0  0  0  0  0  0  0  0  0
    0.2913    2.8801    1.6641 H   0  0  0  0  0  0  0  0  0  0  0  0
    0.3888    1.1835    1.1673 H   0  0  0  0  0  0  0  0  0  0  0  0
    0.3091    2.4603   -0.0554 H   0  0  0  0  0  0  0  0  0  0  0  0
    2.6430    2.0557    1.9192 H   0  0  0  0  0  0  0  0  0  0  0  0
    2.5636    3.3207    0.7038 H   0  0  0  0  0  0  0  0  0  0  0  0
    2.5152    1.5524   -1.1126 H   0  0  0  0  0  0  0  0  0  0  0  0
    2.6256    0.3063    0.1226 H   0  0  0  0  0  0  0  0  0  0  0  0
    5.5076    4.2384   -4.0940 H   0  0  0  0  0  0  0  0  0  0  0  0
    5.6996    5.0141   -1.1333 H   0  0  0  0  0  0  0  0  0  0  0  0
    4.8327    0.6950   -0.8576 H   0  0  0  0  0  0  0  0  0  0  0  0
    4.8546    1.2295    0.8470 H   0  0  0  0  0  0  0  0  0  0  0  0
    6.1454    5.9241   -5.3389 H   0  0  0  0  0  0  0  0  0  0  0  0
  1 14  1  0  0  0  0
  1 13  1  0  0  0  0
  2  1  1  0  0  0  0
  2 16  1  0  0  0  0
  3 19  1  0  0  0  0
  3  2  1  0  0  0  0
  4  5  2  0  0  0  0
  5  8  1  0  0  0  0
  5 21  1  0  0  0  0
  6  3  1  0  0  0  0
  6 23  1  0  0  0  0
  7  4  1  0  0  0  0
  7  9  2  0  0  0  0
  8 12  1  0  0  0  0
 10  7  1  0  0  0  0
 11  8  2  0  0  0  0
 12  6  1  0  0  0  0
 15  1  1  0  0  0  0
 17  2  1  0  0  0  0
 18  3  1  0  0  0  0
 20  4  1  0  0  0  0
 22  6  1  0  0  0  0
 24 10  1  0  0  0  0
M  END
>  <HBA>
4

>  <HBD>
1

>  <TPSA>
63.6

>  <cid>
27664

>  <dipole>
3.49

>  <excitation_energy_1>
4.012

>  <excitation_energy_2>
4.214

>  <excitation_energy_3>
5.272

>  <excitation_energy_4>
5.411

>  <homo_energy>
-7.704

>  <homo_lumo_gap>
5.26

>  <logP>
0.971

>  <lumo_energy>
-2.444

>  <melting_point>
71.5

>  <molecular_refractivity>
43.15

>  <oscillator_strength_1>
0.0001

>  <oscillator_strength_2>
0.0003

>  <oscillator_strength_3>
0.039

>  <oscillator_strength_4>
0.3474

>  <open_babel_can_smiles>
CCCCOC(=O)/C=C/C(=O)O

>  <mulliken_charges>
24
1   -0.443153
2   -0.24893
3   -0.277451
4   -0.201502
5   -0.154949
6   -0.056376
7   0.609105
8   0.622866
9   -0.441726
10   -0.573927
11   -0.487498
12   -0.468916
13   0.147597
14   0.142881
15   0.145676
16   0.132135
17   0.147457
18   0.160581
19   0.140695
20   0.168111
21   0.194428
22   0.173189
23   0.155626
24   0.41408

>  <lowdin_charges>
24
1   -0.444031
2   -0.273353
3   -0.284338
4   -0.175821
5   -0.132892
6   -0.131268
7   0.198284
8   0.194998
9   -0.234769
10   -0.351226
11   -0.268984
12   -0.183042
13   0.153718
14   0.146249
15   0.148389
16   0.139558
17   0.145828
18   0.154749
19   0.150013
20   0.175079
21   0.193271
22   0.163794
23   0.154214
24   0.36158

$$$$

