PCCDB-ID:  69378
public computational chemistry database (PCCDB) project, http://pccdb.org

 25 24  0  0  0  0  0  0  0  0999 V2000
   -0.0703    0.8602    2.3133 C   0  0  0  0  0  0  0  0  0  0  0  0
    2.6176   -1.7942   -2.9726 C   0  0  0  0  0  0  0  0  0  0  0  0
    4.2756   -3.1105   -1.5850 C   0  0  0  0  0  0  0  0  0  0  0  0
    0.5666    0.9656    0.9246 C   0  0  0  0  0  0  0  0  0  0  0  0
    1.8184    0.0992    0.7796 C   0  0  0  0  0  0  0  0  0  0  0  0
    3.6346   -0.7720   -0.8585 C   0  0  0  0  0  0  0  0  0  0  0  0
    3.1463   -2.0702   -1.5583 C   0  0  0  0  0  0  0  0  0  0  0  0
    2.4994    0.2061   -0.5802 C   0  0  0  0  0  0  0  0  0  0  0  0
    2.1433    1.0211   -1.4136 O   0  0  0  0  0  0  0  0  0  0  0  0
   -0.9637    1.4903    2.3865 H   0  0  0  0  0  0  0  0  0  0  0  0
    0.6265    1.1799    3.0984 H   0  0  0  0  0  0  0  0  0  0  0  0
   -0.3717   -0.1703    2.5398 H   0  0  0  0  0  0  0  0  0  0  0  0
    3.4228   -1.4249   -3.6203 H   0  0  0  0  0  0  0  0  0  0  0  0
    1.8256   -1.0401   -2.9727 H   0  0  0  0  0  0  0  0  0  0  0  0
    2.2212   -2.7124   -3.4219 H   0  0  0  0  0  0  0  0  0  0  0  0
    3.9397   -4.0399   -2.0596 H   0  0  0  0  0  0  0  0  0  0  0  0
    4.6234   -3.3548   -0.5741 H   0  0  0  0  0  0  0  0  0  0  0  0
    5.1362   -2.7379   -2.1550 H   0  0  0  0  0  0  0  0  0  0  0  0
    0.8289    2.0068    0.7055 H   0  0  0  0  0  0  0  0  0  0  0  0
   -0.1591    0.6753    0.1549 H   0  0  0  0  0  0  0  0  0  0  0  0
    1.5917   -0.9606    0.9741 H   0  0  0  0  0  0  0  0  0  0  0  0
    2.5682    0.3696    1.5409 H   0  0  0  0  0  0  0  0  0  0  0  0
    4.3662   -0.2705   -1.5031 H   0  0  0  0  0  0  0  0  0  0  0  0
    4.1322   -1.0399    0.0827 H   0  0  0  0  0  0  0  0  0  0  0  0
    2.3227   -2.4876   -0.9586 H   0  0  0  0  0  0  0  0  0  0  0  0
  1 10  1  0  0  0  0
  1 12  1  0  0  0  0
  1 11  1  0  0  0  0
  2  7  1  0  0  0  0
  3  7  1  0  0  0  0
  3 17  1  0  0  0  0
  4  1  1  0  0  0  0
  5  4  1  0  0  0  0
  5 21  1  0  0  0  0
  5 22  1  0  0  0  0
  6  8  1  0  0  0  0
  6 24  1  0  0  0  0
  7 25  1  0  0  0  0
  7  6  1  0  0  0  0
  8  5  1  0  0  0  0
  9  8  2  0  0  0  0
 13  2  1  0  0  0  0
 14  2  1  0  0  0  0
 15  2  1  0  0  0  0
 16  3  1  0  0  0  0
 18  3  1  0  0  0  0
 19  4  1  0  0  0  0
 20  4  1  0  0  0  0
 23  6  1  0  0  0  0
M  END
>  <HBA>
1

>  <HBD>
0

>  <TPSA>
17.07

>  <cid>
69378

>  <dipole>
2.53

>  <excitation_energy_1>
4.293

>  <excitation_energy_2>
6.022

>  <excitation_energy_3>
6.577

>  <excitation_energy_4>
6.614

>  <homo_energy>
-6.468

>  <homo_lumo_gap>
6.172

>  <logP>
2.402

>  <lumo_energy>
-0.297

>  <melting_point>
-6.5

>  <molecular_refractivity>
40.77

>  <oscillator_strength_1>
0.0007

>  <oscillator_strength_2>
0.021

>  <oscillator_strength_3>
0.0013

>  <oscillator_strength_4>
0.0013

>  <open_babel_can_smiles>
CCCC(=O)CC(C)C

>  <mulliken_charges>
25
1   -0.446327
2   -0.443355
3   -0.43936
4   -0.240187
5   -0.357073
6   -0.328385
7   -0.083498
8   0.451067
9   -0.451029
10   0.147235
11   0.140262
12   0.139423
13   0.142984
14   0.16833
15   0.138448
16   0.145509
17   0.140075
18   0.144556
19   0.154179
20   0.14597
21   0.153545
22   0.15819
23   0.158052
24   0.134932
25   0.126455

>  <lowdin_charges>
25
1   -0.445145
2   -0.449974
3   -0.443391
4   -0.268818
5   -0.310652
6   -0.309247
7   -0.114102
8   0.165378
9   -0.241972
10   0.152368
11   0.146487
12   0.144171
13   0.149751
14   0.16219
15   0.148251
16   0.151281
17   0.146738
18   0.149282
19   0.152076
20   0.149937
21   0.154767
22   0.161594
23   0.163222
24   0.149406
25   0.136401

$$$$

