PCCDB-ID:  70817
public computational chemistry database (PCCDB) project, http://pccdb.org

 31 32  0  0  0  0  0  0  0  0999 V2000
   -1.6456   -0.4790    0.6131 C   0  0  0  0  0  0  0  0  0  0  0  0
    4.2614   -1.2138    2.2337 C   0  0  0  0  0  0  0  0  0  0  0  0
   -0.9136    0.4417    1.3584 C   0  0  0  0  0  0  0  0  0  0  0  0
   -0.9861   -1.2656   -0.3341 C   0  0  0  0  0  0  0  0  0  0  0  0
    3.5157   -2.1109    1.2363 C   0  0  0  0  0  0  0  0  0  0  0  0
    3.5839    0.1584    2.3489 C   0  0  0  0  0  0  0  0  0  0  0  0
    0.4660    0.5703    1.1660 C   0  0  0  0  0  0  0  0  0  0  0  0
    0.3876   -1.1348   -0.5240 C   0  0  0  0  0  0  0  0  0  0  0  0
    3.3876   -1.4323   -0.1341 C   0  0  0  0  0  0  0  0  0  0  0  0
    3.4158    0.8227    0.9715 C   0  0  0  0  0  0  0  0  0  0  0  0
    1.1502   -0.2217    0.2284 C   0  0  0  0  0  0  0  0  0  0  0  0
    2.8305    0.6565   -1.4289 C   0  0  0  0  0  0  0  0  0  0  0  0
    2.6561   -0.0660   -0.0644 C   0  0  0  0  0  0  0  0  0  0  0  0
    3.7106    0.4075   -2.2164 O   0  0  0  0  0  0  0  0  0  0  0  0
    1.9672    1.6730   -1.6770 O   0  0  0  0  0  0  0  0  0  0  0  0
   -2.7168   -0.5811    0.7626 H   0  0  0  0  0  0  0  0  0  0  0  0
    5.2988   -1.0806    1.8936 H   0  0  0  0  0  0  0  0  0  0  0  0
    4.3124   -1.6934    3.2192 H   0  0  0  0  0  0  0  0  0  0  0  0
   -1.4092    1.0649    2.0980 H   0  0  0  0  0  0  0  0  0  0  0  0
   -1.5435   -1.9811   -0.9327 H   0  0  0  0  0  0  0  0  0  0  0  0
    2.5187   -2.3519    1.6310 H   0  0  0  0  0  0  0  0  0  0  0  0
    4.0433   -3.0654    1.1175 H   0  0  0  0  0  0  0  0  0  0  0  0
    4.1715    0.8236    2.9944 H   0  0  0  0  0  0  0  0  0  0  0  0
    2.6066    0.0358    2.8322 H   0  0  0  0  0  0  0  0  0  0  0  0
    1.0047    1.2933    1.7689 H   0  0  0  0  0  0  0  0  0  0  0  0
    0.8707   -1.7466   -1.2800 H   0  0  0  0  0  0  0  0  0  0  0  0
    2.8894   -2.0974   -0.8464 H   0  0  0  0  0  0  0  0  0  0  0  0
    4.3827   -1.2449   -0.5505 H   0  0  0  0  0  0  0  0  0  0  0  0
    4.4112    1.0156    0.5513 H   0  0  0  0  0  0  0  0  0  0  0  0
    2.9362    1.8041    1.0665 H   0  0  0  0  0  0  0  0  0  0  0  0
    1.2687    1.6747   -0.9974 H   0  0  0  0  0  0  0  0  0  0  0  0
  1 16  1  0  0  0  0
  1  3  2  0  0  0  0
  2  6  1  0  0  0  0
  2 18  1  0  0  0  0
  3 19  1  0  0  0  0
  4  1  1  0  0  0  0
  5 21  1  0  0  0  0
  5  2  1  0  0  0  0
  6 24  1  0  0  0  0
  6 23  1  0  0  0  0
  7  3  1  0  0  0  0
  7 25  1  0  0  0  0
  8  4  2  0  0  0  0
  8 11  1  0  0  0  0
  9 13  1  0  0  0  0
  9  5  1  0  0  0  0
 10 30  1  0  0  0  0
 10  6  1  0  0  0  0
 11  7  2  0  0  0  0
 12 13  1  0  0  0  0
 13 11  1  0  0  0  0
 13 10  1  0  0  0  0
 14 12  2  0  0  0  0
 15 12  1  0  0  0  0
 15 31  1  0  0  0  0
 17  2  1  0  0  0  0
 20  4  1  0  0  0  0
 22  5  1  0  0  0  0
 26  8  1  0  0  0  0
 27  9  1  0  0  0  0
 28  9  1  0  0  0  0
 29 10  1  0  0  0  0
M  END
>  <HBA>
2

>  <HBD>
1

>  <TPSA>
37.3

>  <cid>
70817

>  <dipole>
4.52

>  <excitation_energy_1>
5.159

>  <excitation_energy_2>
5.432

>  <excitation_energy_3>
5.624

>  <excitation_energy_4>
5.977

>  <homo_energy>
-6.721

>  <homo_lumo_gap>
6.161

>  <logP>
2.973

>  <lumo_energy>
-0.561

>  <melting_point>
109.85

>  <molecular_refractivity>
59.79

>  <oscillator_strength_1>
0.0022

>  <oscillator_strength_2>
0.0401

>  <oscillator_strength_3>
0.0351

>  <oscillator_strength_4>
0.0195

>  <open_babel_can_smiles>
OC(=O)C1(CCCCC1)c1ccccc1

>  <mulliken_charges>
31
1   -0.126658
2   -0.256491
3   -0.127308
4   -0.129139
5   -0.268016
6   -0.265101
7   -0.206053
8   -0.167126
9   -0.270811
10   -0.287579
11   0.087853
12   0.613859
13   -0.100301
14   -0.45531
15   -0.580495
16   0.138015
17   0.133617
18   0.133595
19   0.137808
20   0.139892
21   0.137533
22   0.136814
23   0.138173
24   0.139314
25   0.141395
26   0.147515
27   0.1412
28   0.164432
29   0.160246
30   0.135057
31   0.414072

>  <lowdin_charges>
31
1   -0.151516
2   -0.275294
3   -0.154189
4   -0.149325
5   -0.27967
6   -0.282295
7   -0.186918
8   -0.160733
9   -0.274698
10   -0.27731
11   -0.023633
12   0.193695
13   -0.033052
14   -0.243464
15   -0.355605
16   0.160181
17   0.138903
18   0.144964
19   0.162645
20   0.163952
21   0.141829
22   0.147739
23   0.149764
24   0.142916
25   0.164288
26   0.165618
27   0.150088
28   0.160339
29   0.157927
30   0.14314
31   0.359711

$$$$

