PCCDB-ID:  43581
public computational chemistry database (PCCDB) project, http://pccdb.org

 10  9  0  0  0  0  0  0  0  0999 V2000
    1.1308   -0.3663    0.0030 C   0  0  0  0  0  0  0  0  0  0  0  0
    0.8730   -1.8683    0.2506 C   0  0  0  0  0  0  0  0  0  0  0  0
    2.5691    0.0841   -0.0116 N   0  0  0  0  0  0  0  0  0  0  0  0
   -0.1648   -2.1947    0.7667 O   0  0  0  0  0  0  0  0  0  0  0  0
    1.7851   -2.7331   -0.1909 O   0  0  0  0  0  0  0  0  0  0  0  0
    2.8315    1.1476    0.5187 O   0  0  0  0  0  0  0  0  0  0  0  0
    3.3908   -0.6382   -0.5955 O   0  0  0  0  0  0  0  0  0  0  0  0
    0.6226    0.2225    0.7624 H   0  0  0  0  0  0  0  0  0  0  0  0
    0.7418   -0.1055   -0.9874 H   0  0  0  0  0  0  0  0  0  0  0  0
    2.5592   -2.2361   -0.5441 H   0  0  0  0  0  0  0  0  0  0  0  0
  1  2  1  0  0  0  0
  1  8  1  0  0  0  0
  2  4  2  0  0  0  0
  3  1  1  0  0  0  0
  3  6  2  0  0  0  0
  5  2  1  0  0  0  0
  7  3  2  0  0  0  0
  9  1  1  0  0  0  0
 10  5  1  0  0  0  0
M  END
>  <HBA>
2

>  <HBD>
1

>  <TPSA>
83.12

>  <cid>
43581

>  <dipole>
2.22

>  <excitation_energy_1>
3.95

>  <excitation_energy_2>
4.437

>  <excitation_energy_3>
4.778

>  <excitation_energy_4>
5.307

>  <homo_energy>
-8.115

>  <homo_lumo_gap>
5.11

>  <logP>
-0.129

>  <lumo_energy>
-3.004

>  <melting_point>
84.01

>  <molecular_refractivity>
21.6

>  <oscillator_strength_1>
0.0062

>  <oscillator_strength_2>
0.0059

>  <oscillator_strength_3>
0.0117

>  <oscillator_strength_4>
0.0006

>  <open_babel_can_smiles>
OC(=O)CN(=O)=O

>  <mulliken_charges>
10
1   -0.296746
2   0.606376
3   0.469615
4   -0.42422
5   -0.558827
6   -0.328691
7   -0.396105
8   0.239691
9   0.244301
10   0.444606

>  <lowdin_charges>
10
1   -0.263307
2   0.184514
3   0.302085
4   -0.222323
5   -0.333741
6   -0.190812
7   -0.259023
8   0.207978
9   0.209086
10   0.365543

$$$$

