PCCDB-ID:  58282
public computational chemistry database (PCCDB) project, http://pccdb.org

 33 34  0  0  0  0  0  0  0  0999 V2000
    0.9654    1.0316    0.4194 C   0  0  0  0  0  0  0  0  0  0  0  0
    3.2457    3.2753   -0.3068 C   0  0  0  0  0  0  0  0  0  0  0  0
    0.7500   -6.4676   -0.1982 C   0  0  0  0  0  0  0  0  0  0  0  0
    2.5266   -6.7039    1.5072 C   0  0  0  0  0  0  0  0  0  0  0  0
    5.0238   -2.4799    0.2548 C   0  0  0  0  0  0  0  0  0  0  0  0
    5.4539   -1.1891   -0.0179 C   0  0  0  0  0  0  0  0  0  0  0  0
    2.7182   -1.7418    0.5174 C   0  0  0  0  0  0  0  0  0  0  0  0
    2.2430   -4.6007    0.3028 C   0  0  0  0  0  0  0  0  0  0  0  0
    2.4352    0.8392    0.1938 C   0  0  0  0  0  0  0  0  0  0  0  0
    3.3770    1.7989   -0.1093 C   0  0  0  0  0  0  0  0  0  0  0  0
    3.6596   -2.7779    0.5048 C   0  0  0  0  0  0  0  0  0  0  0  0
    3.1292   -0.4251    0.2499 C   0  0  0  0  0  0  0  0  0  0  0  0
    4.4971   -0.1694   -0.0241 C   0  0  0  0  0  0  0  0  0  0  0  0
    3.3359   -4.1217    0.7747 N   0  0  0  0  0  0  0  0  0  0  0  0
    4.6187    1.1889   -0.2420 N   0  0  0  0  0  0  0  0  0  0  0  0
    1.7567   -5.8371    0.6324 N   0  0  0  0  0  0  0  0  0  0  0  0
    0.6778    2.0870    0.3739 H   0  0  0  0  0  0  0  0  0  0  0  0
    0.6561    0.6512    1.4022 H   0  0  0  0  0  0  0  0  0  0  0  0
    0.3653    0.4978   -0.3305 H   0  0  0  0  0  0  0  0  0  0  0  0
    2.2186    3.6008   -0.1252 H   0  0  0  0  0  0  0  0  0  0  0  0
    3.5112    3.5759   -1.3298 H   0  0  0  0  0  0  0  0  0  0  0  0
    3.8961    3.8371    0.3776 H   0  0  0  0  0  0  0  0  0  0  0  0
    1.1875   -7.1733   -0.9224 H   0  0  0  0  0  0  0  0  0  0  0  0
    0.1987   -5.7042   -0.7550 H   0  0  0  0  0  0  0  0  0  0  0  0
    0.0376   -7.0203    0.4261 H   0  0  0  0  0  0  0  0  0  0  0  0
    3.2171   -7.3483    0.9416 H   0  0  0  0  0  0  0  0  0  0  0  0
    1.8443   -7.3427    2.0795 H   0  0  0  0  0  0  0  0  0  0  0  0
    3.1141   -6.0840    2.1850 H   0  0  0  0  0  0  0  0  0  0  0  0
    5.7309   -3.3035    0.2723 H   0  0  0  0  0  0  0  0  0  0  0  0
    6.5033   -0.9829   -0.2151 H   0  0  0  0  0  0  0  0  0  0  0  0
    1.6826   -1.9548    0.7698 H   0  0  0  0  0  0  0  0  0  0  0  0
    1.5951   -4.0497   -0.3926 H   0  0  0  0  0  0  0  0  0  0  0  0
    5.4795    1.6746   -0.4397 H   0  0  0  0  0  0  0  0  0  0  0  0
  1 18  1  0  0  0  0
  2 20  1  0  0  0  0
  2 10  1  0  0  0  0
  2 22  1  0  0  0  0
  3 25  1  0  0  0  0
  3 16  1  0  0  0  0
  4 27  1  0  0  0  0
  4 28  1  0  0  0  0
  5 29  1  0  0  0  0
  5 11  2  0  0  0  0
  6  5  1  0  0  0  0
  7 31  1  0  0  0  0
  8 16  1  0  0  0  0
  8 14  2  0  0  0  0
  9 12  1  0  0  0  0
  9  1  1  0  0  0  0
 10  9  2  0  0  0  0
 11  7  1  0  0  0  0
 11 14  1  0  0  0  0
 12  7  2  0  0  0  0
 13  6  2  0  0  0  0
 13 12  1  0  0  0  0
 15 10  1  0  0  0  0
 15 13  1  0  0  0  0
 16  4  1  0  0  0  0
 17  1  1  0  0  0  0
 19  1  1  0  0  0  0
 21  2  1  0  0  0  0
 23  3  1  0  0  0  0
 24  3  1  0  0  0  0
 26  4  1  0  0  0  0
 30  6  1  0  0  0  0
 32  8  1  0  0  0  0
 33 15  1  0  0  0  0
M  END
>  <HBA>
2

>  <HBD>
1

>  <TPSA>
31.39

>  <cid>
58282

>  <dipole>
1.61

>  <excitation_energy_1>
4.176

>  <excitation_energy_2>
4.307

>  <excitation_energy_3>
4.401

>  <excitation_energy_4>
4.478

>  <homo_energy>
-4.727

>  <homo_lumo_gap>
4.904

>  <logP>
3.006

>  <lumo_energy>
0.177

>  <melting_point>
132.15

>  <molecular_refractivity>
69.95

>  <oscillator_strength_1>
0.1377

>  <oscillator_strength_2>
0.0208

>  <oscillator_strength_3>
0.0008

>  <oscillator_strength_4>
0.0232

>  <open_babel_can_smiles>
CN(/C=N/c1ccc2c(c1)c(C)c([nH]2)C)C

>  <mulliken_charges>
33
1   -0.534371
2   -0.53903
3   -0.308108
4   -0.307187
5   -0.179245
6   -0.176853
7   -0.266125
8   0.257128
9   0.042739
10   0.299063
11   0.273112
12   0.077408
13   0.323331
14   -0.532574
15   -0.748165
16   -0.370926
17   0.145278
18   0.155385
19   0.15207
20   0.170195
21   0.160412
22   0.158158
23   0.152148
24   0.162422
25   0.157298
26   0.148931
27   0.145169
28   0.198502
29   0.119985
30   0.114299
31   0.112135
32   0.121953
33   0.315464

>  <lowdin_charges>
33
1   -0.437464
2   -0.44601
3   -0.351128
4   -0.357416
5   -0.178363
6   -0.185967
7   -0.202764
8   -0.032929
9   -0.075587
10   0.018846
11   0.033128
12   -0.032099
13   0.024317
14   -0.223384
15   -0.216437
16   -0.097835
17   0.150966
18   0.154837
19   0.15443
20   0.166598
21   0.157719
22   0.159016
23   0.143919
24   0.160951
25   0.153259
26   0.146124
27   0.150387
28   0.18186
29   0.159514
30   0.150865
31   0.15058
32   0.134077
33   0.28599

$$$$

