PCCDB-ID:  8299
public computational chemistry database (PCCDB) project, http://pccdb.org

 11 10  0  0  0  0  0  0  0  0999 V2000
    1.0695   -0.2078   -0.0852 C   0  0  0  0  0  0  0  0  0  0  0  0
    3.1148    0.3175    1.4420 C   0  0  0  0  0  0  0  0  0  0  0  0
    2.1836    0.7434    0.2992 C   0  0  0  0  0  0  0  0  0  0  0  0
    2.6209   -0.7204    2.2741 O   0  0  0  0  0  0  0  0  0  0  0  0
    2.3851    1.7958   -0.2760 O   0  0  0  0  0  0  0  0  0  0  0  0
    0.3534   -0.3150    0.7386 H   0  0  0  0  0  0  0  0  0  0  0  0
    1.4686   -1.2109   -0.2744 H   0  0  0  0  0  0  0  0  0  0  0  0
    0.5549    0.1716   -0.9701 H   0  0  0  0  0  0  0  0  0  0  0  0
    3.4035    1.2178    2.0020 H   0  0  0  0  0  0  0  0  0  0  0  0
    4.0287   -0.0746    0.9774 H   0  0  0  0  0  0  0  0  0  0  0  0
    1.9581   -0.3391    2.8697 H   0  0  0  0  0  0  0  0  0  0  0  0
  1  3  1  0  0  0  0
  1  6  1  0  0  0  0
  2  9  1  0  0  0  0
  2  4  1  0  0  0  0
  3  2  1  0  0  0  0
  4 11  1  0  0  0  0
  5  3  2  0  0  0  0
  7  1  1  0  0  0  0
  8  1  1  0  0  0  0
 10  2  1  0  0  0  0
M  END
>  <HBA>
2

>  <HBD>
1

>  <TPSA>
37.3

>  <cid>
8299

>  <dipole>
2.04

>  <excitation_energy_1>
4.256

>  <excitation_energy_2>
5.761

>  <excitation_energy_3>
6.595

>  <excitation_energy_4>
6.71

>  <homo_energy>
-6.574

>  <homo_lumo_gap>
6.049

>  <logP>
-0.432

>  <lumo_energy>
-0.525

>  <melting_point>
15.44

>  <molecular_refractivity>
17.9

>  <oscillator_strength_1>
0.0001

>  <oscillator_strength_2>
0.0073

>  <oscillator_strength_3>
0.0082

>  <oscillator_strength_4>
0.0527

>  <open_babel_can_smiles>
CC(=O)CO

>  <mulliken_charges>
11
1   -0.515585
2   -0.124724
3   0.413549
4   -0.604172
5   -0.43137
6   0.162706
7   0.181213
8   0.177357
9   0.160951
10   0.183468
11   0.396607

>  <lowdin_charges>
11
1   -0.474072
2   -0.17508
3   0.14532
4   -0.458762
5   -0.233882
6   0.170122
7   0.176949
8   0.172455
9   0.15504
10   0.17351
11   0.3484

$$$$

