PCCDB-ID:  43058
public computational chemistry database (PCCDB) project, http://pccdb.org

 28 28  0  0  0  0  0  0  0  0999 V2000
    6.9458    0.4906   -3.9809 C   0  0  0  0  0  0  0  0  0  0  0  0
    9.3959    1.9619    3.8905 C   0  0  0  0  0  0  0  0  0  0  0  0
    8.8574    3.0053    3.1321 C   0  0  0  0  0  0  0  0  0  0  0  0
    8.8873    0.6708    3.7500 C   0  0  0  0  0  0  0  0  0  0  0  0
    7.8150    2.7573    2.2409 C   0  0  0  0  0  0  0  0  0  0  0  0
    7.8449    0.4241    2.8534 C   0  0  0  0  0  0  0  0  0  0  0  0
    6.1429    1.2025    1.1437 C   0  0  0  0  0  0  0  0  0  0  0  0
    7.3646    0.9309   -1.0695 C   0  0  0  0  0  0  0  0  0  0  0  0
    6.6103   -0.4366   -2.8404 C   0  0  0  0  0  0  0  0  0  0  0  0
    7.2970    1.4631    2.0945 C   0  0  0  0  0  0  0  0  0  0  0  0
    6.7769   -0.2897   -1.5835 N   0  0  0  0  0  0  0  0  0  0  0  0
    5.6084    2.6144   -0.6924 N   0  0  0  0  0  0  0  0  0  0  0  0
    6.4071    1.6473   -0.2215 N   0  0  0  0  0  0  0  0  0  0  0  0
    6.0584   -1.5933   -3.2794 O   0  0  0  0  0  0  0  0  0  0  0  0
    5.7631    2.9093   -1.8756 O   0  0  0  0  0  0  0  0  0  0  0  0
    8.0276    0.5077   -4.1565 H   0  0  0  0  0  0  0  0  0  0  0  0
    6.6173    1.5072   -3.7485 H   0  0  0  0  0  0  0  0  0  0  0  0
    6.4565    0.1451   -4.8932 H   0  0  0  0  0  0  0  0  0  0  0  0
   10.2087    2.1557    4.5851 H   0  0  0  0  0  0  0  0  0  0  0  0
    9.2484    4.0137    3.2384 H   0  0  0  0  0  0  0  0  0  0  0  0
    9.3033   -0.1466    4.3329 H   0  0  0  0  0  0  0  0  0  0  0  0
    7.3987    3.5693    1.6496 H   0  0  0  0  0  0  0  0  0  0  0  0
    7.4528   -0.5846    2.7430 H   0  0  0  0  0  0  0  0  0  0  0  0
    5.2449    1.7443    1.4582 H   0  0  0  0  0  0  0  0  0  0  0  0
    5.9020    0.1336    1.1182 H   0  0  0  0  0  0  0  0  0  0  0  0
    7.6971    1.6431   -1.8296 H   0  0  0  0  0  0  0  0  0  0  0  0
    8.2131    0.6734   -0.4277 H   0  0  0  0  0  0  0  0  0  0  0  0
    5.8811   -2.1213   -2.4777 H   0  0  0  0  0  0  0  0  0  0  0  0
  1 17  1  0  0  0  0
  1  9  1  0  0  0  0
  2 19  1  0  0  0  0
  3 20  1  0  0  0  0
  3  2  2  0  0  0  0
  4  2  1  0  0  0  0
  4 21  1  0  0  0  0
  5  3  1  0  0  0  0
  6  4  2  0  0  0  0
  7 24  1  0  0  0  0
  7 10  1  0  0  0  0
  8 27  1  0  0  0  0
  8 13  1  0  0  0  0
  9 11  2  0  0  0  0
 10  5  2  0  0  0  0
 10  6  1  0  0  0  0
 11  8  1  0  0  0  0
 12 13  1  0  0  0  0
 13  7  1  0  0  0  0
 14  9  1  0  0  0  0
 14 28  1  0  0  0  0
 15 12  2  0  0  0  0
 16  1  1  0  0  0  0
 18  1  1  0  0  0  0
 22  5  1  0  0  0  0
 23  6  1  0  0  0  0
 25  7  1  0  0  0  0
 26  8  1  0  0  0  0
M  END
>  <HBA>
5

>  <HBD>
1

>  <TPSA>
61.77

>  <cid>
43058

>  <dipole>
3.25

>  <excitation_energy_1>
3.333

>  <excitation_energy_2>
4.978

>  <excitation_energy_3>
5.11

>  <excitation_energy_4>
5.22

>  <homo_energy>
-6.098

>  <homo_lumo_gap>
5.121

>  <logP>
1.655

>  <lumo_energy>
-0.977

>  <melting_point>
75.42

>  <molecular_refractivity>
56.46

>  <oscillator_strength_1>
0.0007

>  <oscillator_strength_2>
0.0226

>  <oscillator_strength_3>
0.018

>  <oscillator_strength_4>
0.0041

>  <open_babel_can_smiles>
O=NN(Cc1ccccc1)C/N=C(/O)\C

>  <mulliken_charges>
28
1   -0.549887
2   -0.127973
3   -0.1286
4   -0.126729
5   -0.173947
6   -0.188197
7   -0.226145
8   -0.053086
9   0.525315
10   0.156192
11   -0.465811
12   0.1602
13   -0.201504
14   -0.581663
15   -0.388902
16   0.178064
17   0.21701
18   0.184216
19   0.133728
20   0.135744
21   0.133838
22   0.143681
23   0.131179
24   0.188063
25   0.176282
26   0.173109
27   0.170942
28   0.404879

>  <lowdin_charges>
28
1   -0.47181
2   -0.15368
3   -0.151039
4   -0.15514
5   -0.159837
6   -0.164852
7   -0.196213
8   -0.150261
9   0.151711
10   -0.021871
11   -0.264902
12   0.054538
13   -0.037047
14   -0.359195
15   -0.277588
16   0.172637
17   0.18784
18   0.178439
19   0.160106
20   0.159689
21   0.160867
22   0.164896
23   0.157181
24   0.175223
25   0.16118
26   0.159564
27   0.162726
28   0.356838

$$$$

