PCCDB-ID:  35230
public computational chemistry database (PCCDB) project, http://pccdb.org

 19 19  0  0  0  0  0  0  0  0999 V2000
    0.9682   -0.0744   -0.1559 C   0  0  0  0  0  0  0  0  0  0  0  0
    1.0410    4.2481    2.0881 C   0  0  0  0  0  0  0  0  0  0  0  0
    5.0205    2.0093    0.7489 C   0  0  0  0  0  0  0  0  0  0  0  0
    3.0350    0.9482    0.2817 C   0  0  0  0  0  0  0  0  0  0  0  0
    3.0135    3.1639    1.4411 C   0  0  0  0  0  0  0  0  0  0  0  0
    2.4169   -0.0528   -0.2133 N   0  0  0  0  0  0  0  0  0  0  0  0
    2.4891    4.1854    1.9964 N   0  0  0  0  0  0  0  0  0  0  0  0
    4.4317    0.9873    0.2379 N   0  0  0  0  0  0  0  0  0  0  0  0
    4.4036    3.0792    1.3390 N   0  0  0  0  0  0  0  0  0  0  0  0
    2.3865    2.0564    0.8905 N   0  0  0  0  0  0  0  0  0  0  0  0
    0.6064   -1.0077   -0.5958 H   0  0  0  0  0  0  0  0  0  0  0  0
    0.5076    0.7528   -0.7235 H   0  0  0  0  0  0  0  0  0  0  0  0
    0.5780   -0.0289    0.8761 H   0  0  0  0  0  0  0  0  0  0  0  0
    0.7561    5.1841    2.5759 H   0  0  0  0  0  0  0  0  0  0  0  0
    0.6161    3.4255    2.6874 H   0  0  0  0  0  0  0  0  0  0  0  0
    0.5495    4.2321    1.1008 H   0  0  0  0  0  0  0  0  0  0  0  0
    6.1079    2.0635    0.7282 H   0  0  0  0  0  0  0  0  0  0  0  0
    4.9221    3.8564    1.7251 H   0  0  0  0  0  0  0  0  0  0  0  0
    1.3779    2.0454    0.9288 H   0  0  0  0  0  0  0  0  0  0  0  0
  1 13  1  0  0  0  0
  2 14  1  0  0  0  0
  2 15  1  0  0  0  0
  3  9  1  0  0  0  0
  4 10  1  0  0  0  0
  5  7  2  0  0  0  0
  6  1  1  0  0  0  0
  6  4  1  0  0  0  0
  7  2  1  0  0  0  0
  8  4  2  0  0  0  0
  8  3  1  0  0  0  0
  9  5  1  0  0  0  0
  9 18  1  0  0  0  0
 10 19  1  0  0  0  0
 10  5  1  0  0  0  0
 11  1  1  0  0  0  0
 12  1  1  0  0  0  0
 16  2  1  0  0  0  0
 17  3  1  0  0  0  0
M  RAD  2   3   2   6   2
M  END
>  <HBA>
5

>  <HBD>
2

>  <TPSA>
62.73

>  <cid>
35230

>  <dipole>
3.07

>  <excitation_energy_1>
4.817

>  <excitation_energy_2>
4.939

>  <excitation_energy_3>
5.092

>  <excitation_energy_4>
5.425

>  <homo_energy>
-6.321

>  <homo_lumo_gap>
5.592

>  <logP>
0.101

>  <lumo_energy>
-0.729

>  <melting_point>
119.94

>  <molecular_refractivity>
38.44

>  <oscillator_strength_1>
0.0001

>  <oscillator_strength_2>
0.0945

>  <oscillator_strength_3>
0.0429

>  <oscillator_strength_4>
0.0016

>  <open_babel_can_smiles>
C[N]C1=N[CH]N/C(=N/C)/N1

>  <mulliken_charges>
19
1   -0.350225
2   -0.344774
3   0.238488
4   0.639657
5   0.746241
6   -0.427072
7   -0.479845
8   -0.435066
9   -0.623237
10   -0.739003
11   0.172127
12   0.138925
13   0.136219
14   0.170102
15   0.14215
16   0.141441
17   0.170869
18   0.353018
19   0.349984

>  <lowdin_charges>
19
1   -0.36959
2   -0.364416
3   -0.012339
4   0.120443
5   0.135305
6   -0.212699
7   -0.266297
8   -0.180874
9   -0.225445
10   -0.270936
11   0.162425
12   0.13823
13   0.134482
14   0.161931
15   0.13932
16   0.137584
17   0.168059
18   0.308746
19   0.296072

$$$$

