PCCDB-ID:  39880
public computational chemistry database (PCCDB) project, http://pccdb.org

 17 17  0  0  0  0  0  0  0  0999 V2000
    1.1657   -0.1014    0.3632 C   0  0  0  0  0  0  0  0  0  0  0  0
    3.1818    1.2187   -0.5085 C   0  0  0  0  0  0  0  0  0  0  0  0
    5.2267    0.2636   -0.6525 C   0  0  0  0  0  0  0  0  0  0  0  0
    2.6018    0.0596   -0.0067 C   0  0  0  0  0  0  0  0  0  0  0  0
    4.7497   -0.9486   -0.1568 C   0  0  0  0  0  0  0  0  0  0  0  0
    5.7019   -2.1134    0.0092 C   0  0  0  0  0  0  0  0  0  0  0  0
    4.4728    1.3481   -0.8359 N   0  0  0  0  0  0  0  0  0  0  0  0
    3.4140   -1.0378    0.1660 N   0  3  0  0  0  0  0  0  0  0  0  0
    6.8678   -1.9731   -0.2889 O   0  0  0  0  0  0  0  0  0  0  0  0
    5.1948   -3.2465    0.4828 O   0  0  0  0  0  0  0  0  0  0  0  0
    2.8912   -2.1236    0.6297 O   0  5  0  0  0  0  0  0  0  0  0  0
    0.6248    0.8311    0.1858 H   0  0  0  0  0  0  0  0  0  0  0  0
    1.0674   -0.3842    1.4170 H   0  0  0  0  0  0  0  0  0  0  0  0
    0.7043   -0.9063   -0.2194 H   0  0  0  0  0  0  0  0  0  0  0  0
    2.5485    2.0916   -0.6496 H   0  0  0  0  0  0  0  0  0  0  0  0
    6.2812    0.3193   -0.9028 H   0  0  0  0  0  0  0  0  0  0  0  0
    4.2196   -3.1034    0.6475 H   0  0  0  0  0  0  0  0  0  0  0  0
  1 13  1  0  0  0  0
  2  4  2  0  0  0  0
  3  5  1  0  0  0  0
  4  8  1  0  0  0  0
  4  1  1  0  0  0  0
  5  6  1  0  0  0  0
  5  8  2  0  0  0  0
  6 10  1  0  0  0  0
  7  3  2  0  0  0  0
  7  2  1  0  0  0  0
  8 11  1  0  0  0  0
  9  6  2  0  0  0  0
 10 17  1  0  0  0  0
 12  1  1  0  0  0  0
 14  1  1  0  0  0  0
 15  2  1  0  0  0  0
 16  3  1  0  0  0  0
M  CHG  2   8   1  11  -1
M  END
>  <HBA>
4

>  <HBD>
1

>  <TPSA>
75.65

>  <cid>
39880

>  <dipole>
5.6

>  <excitation_energy_1>
3.966

>  <excitation_energy_2>
4.223

>  <excitation_energy_3>
4.426

>  <excitation_energy_4>
4.443

>  <homo_energy>
-7.519

>  <homo_lumo_gap>
4.879

>  <logP>
0.517

>  <lumo_energy>
-2.64

>  <melting_point>
130.49

>  <molecular_refractivity>
37.32

>  <oscillator_strength_1>
0.0008

>  <oscillator_strength_2>
0.0

>  <oscillator_strength_3>
0.0274

>  <oscillator_strength_4>
0.0011

>  <open_babel_can_smiles>
[O-][n+]1c(cncc1C)C(=O)O

>  <mulliken_charges>
17
1   -0.504253
2   -0.016839
3   0.008509
4   0.344994
5   0.234315
6   0.615989
7   -0.385636
8   -0.124668
9   -0.456865
10   -0.586068
11   -0.526339
12   0.170059
13   0.198732
14   0.198664
15   0.172115
16   0.209259
17   0.448033

>  <lowdin_charges>
17
1   -0.434747
2   -0.087929
3   -0.060369
4   0.024623
5   -0.036919
6   0.184073
7   -0.126211
8   0.221617
9   -0.246178
10   -0.339392
11   -0.374057
12   0.169617
13   0.183296
14   0.185528
15   0.176764
16   0.194578
17   0.365705

$$$$

