PCCDB-ID:  37509
public computational chemistry database (PCCDB) project, http://pccdb.org

 23 22  0  0  0  0  0  0  0  0999 V2000
    3.1352    0.9692    0.9487 C   0  0  0  0  0  0  0  0  0  0  0  0
    3.8539   -2.9983    2.0327 C   0  0  0  0  0  0  0  0  0  0  0  0
    6.2233   -2.3937   -0.1630 C   0  0  0  0  0  0  0  0  0  0  0  0
    7.0691   -0.8186    1.6132 C   0  0  0  0  0  0  0  0  0  0  0  0
    4.3890    0.3300    1.5250 C   0  0  0  0  0  0  0  0  0  0  0  0
    5.3056   -2.5637    2.1468 C   0  0  0  0  0  0  0  0  0  0  0  0
    5.8441   -1.5725    1.0823 C   0  0  0  0  0  0  0  0  0  0  0  0
    6.0360   -3.0029    3.0153 O   0  0  0  0  0  0  0  0  0  0  0  0
    4.7958   -0.7040    0.6344 O   0  0  0  0  0  0  0  0  0  0  0  0
    2.7978    1.7926    1.5878 H   0  0  0  0  0  0  0  0  0  0  0  0
    2.3265    0.2355    0.8678 H   0  0  0  0  0  0  0  0  0  0  0  0
    3.3366    1.3655   -0.0518 H   0  0  0  0  0  0  0  0  0  0  0  0
    3.5650   -3.1897    0.9951 H   0  0  0  0  0  0  0  0  0  0  0  0
    3.1954   -2.2019    2.3995 H   0  0  0  0  0  0  0  0  0  0  0  0
    3.7001   -3.8899    2.6444 H   0  0  0  0  0  0  0  0  0  0  0  0
    6.9783   -3.1466    0.0842 H   0  0  0  0  0  0  0  0  0  0  0  0
    6.6281   -1.7235   -0.9282 H   0  0  0  0  0  0  0  0  0  0  0  0
    5.3463   -2.8950   -0.5837 H   0  0  0  0  0  0  0  0  0  0  0  0
    7.8748   -1.5234    1.8293 H   0  0  0  0  0  0  0  0  0  0  0  0
    6.8522   -0.2833    2.5419 H   0  0  0  0  0  0  0  0  0  0  0  0
    7.4144   -0.1004    0.8619 H   0  0  0  0  0  0  0  0  0  0  0  0
    4.1863   -0.0736    2.5305 H   0  0  0  0  0  0  0  0  0  0  0  0
    5.1829    1.0825    1.6323 H   0  0  0  0  0  0  0  0  0  0  0  0
  1  5  1  0  0  0  0
  1 10  1  0  0  0  0
  2  6  1  0  0  0  0
  2 14  1  0  0  0  0
  2 15  1  0  0  0  0
  3 16  1  0  0  0  0
  3  7  1  0  0  0  0
  4 19  1  0  0  0  0
  4 20  1  0  0  0  0
  5 23  1  0  0  0  0
  5 22  1  0  0  0  0
  6  8  2  0  0  0  0
  7  4  1  0  0  0  0
  7  6  1  0  0  0  0
  9  7  1  0  0  0  0
  9  5  1  0  0  0  0
 11  1  1  0  0  0  0
 12  1  1  0  0  0  0
 13  2  1  0  0  0  0
 17  3  1  0  0  0  0
 18  3  1  0  0  0  0
 21  4  1  0  0  0  0
M  END
>  <HBA>
2

>  <HBD>
0

>  <TPSA>
26.3

>  <cid>
37509

>  <dipole>
1.94

>  <excitation_energy_1>
4.109

>  <excitation_energy_2>
5.863

>  <excitation_energy_3>
5.921

>  <excitation_energy_4>
6.376

>  <homo_energy>
-6.294

>  <homo_lumo_gap>
5.829

>  <logP>
1.391

>  <lumo_energy>
-0.465

>  <melting_point>
-3.76

>  <molecular_refractivity>
37.09

>  <oscillator_strength_1>
0.0005

>  <oscillator_strength_2>
0.003

>  <oscillator_strength_3>
0.0095

>  <oscillator_strength_4>
0.0314

>  <open_babel_can_smiles>
CCOC(C(=O)C)(C)C

>  <mulliken_charges>
23
1   -0.45458
2   -0.526138
3   -0.462001
4   -0.464975
5   -0.018842
6   0.4299
7   0.254406
8   -0.443205
9   -0.504004
10   0.14524
11   0.155016
12   0.161207
13   0.173048
14   0.176812
15   0.17397
16   0.159491
17   0.162203
18   0.15627
19   0.169214
20   0.153753
21   0.147685
22   0.121061
23   0.134466

>  <lowdin_charges>
23
1   -0.448788
2   -0.474953
3   -0.442786
4   -0.453412
5   -0.129292
6   0.152801
7   0.094032
8   -0.234232
9   -0.272268
10   0.155761
11   0.155078
12   0.158146
13   0.169861
14   0.175971
15   0.170685
16   0.161349
17   0.163164
18   0.157788
19   0.170288
20   0.156986
21   0.155396
22   0.123911
23   0.134514

$$$$

