PCCDB-ID:  73014
public computational chemistry database (PCCDB) project, http://pccdb.org

 22 22  0  0  0  0  0  0  0  0999 V2000
    0.7776    0.0365    0.3036 C   0  0  0  0  0  0  0  0  0  0  0  0
    2.7958    0.4405    1.7911 C   0  0  0  0  0  0  0  0  0  0  0  0
    2.6759   -1.2600   -4.3752 C   0  0  0  0  0  0  0  0  0  0  0  0
    4.6941   -0.8558   -2.8877 C   0  0  0  0  0  0  0  0  0  0  0  0
    2.2995    0.0558    0.3904 C   0  0  0  0  0  0  0  0  0  0  0  0
    3.1721   -0.8752   -2.9745 C   0  0  0  0  0  0  0  0  0  0  0  0
    3.0749    1.3255   -0.7466 S   0  0  0  0  0  0  0  0  0  0  0  0
    3.0656   -1.6217    0.0663 S   0  0  0  0  0  0  0  0  0  0  0  0
    2.4061    0.8024   -2.6505 S   0  0  0  0  0  0  0  0  0  0  0  0
    2.3966   -2.1448   -1.8375 S   0  0  0  0  0  0  0  0  0  0  0  0
    0.3804    1.0285    0.5456 H   0  0  0  0  0  0  0  0  0  0  0  0
    0.3756   -0.6911    1.0172 H   0  0  0  0  0  0  0  0  0  0  0  0
    0.4347   -0.2372   -0.6969 H   0  0  0  0  0  0  0  0  0  0  0  0
    2.4210    1.4353    2.0568 H   0  0  0  0  0  0  0  0  0  0  0  0
    3.8887    0.4535    1.8492 H   0  0  0  0  0  0  0  0  0  0  0  0
    2.4164   -0.2755    2.5287 H   0  0  0  0  0  0  0  0  0  0  0  0
    3.0558   -0.5442   -5.1129 H   0  0  0  0  0  0  0  0  0  0  0  0
    1.5831   -1.2724   -4.4336 H   0  0  0  0  0  0  0  0  0  0  0  0
    3.0503   -2.2550   -4.6407 H   0  0  0  0  0  0  0  0  0  0  0  0
    5.0962   -0.1300   -3.6031 H   0  0  0  0  0  0  0  0  0  0  0  0
    5.0911   -1.8485   -3.1271 H   0  0  0  0  0  0  0  0  0  0  0  0
    5.0369   -0.5796   -1.8878 H   0  0  0  0  0  0  0  0  0  0  0  0
  1  5  1  0  0  0  0
  1 11  1  0  0  0  0
  1 12  1  0  0  0  0
  2 15  1  0  0  0  0
  2 14  1  0  0  0  0
  2 16  1  0  0  0  0
  3  6  1  0  0  0  0
  4 22  1  0  0  0  0
  5  2  1  0  0  0  0
  6  4  1  0  0  0  0
  6  9  1  0  0  0  0
  6 10  1  0  0  0  0
  7  5  1  0  0  0  0
  8  5  1  0  0  0  0
  9  7  1  0  0  0  0
 10  8  1  0  0  0  0
 13  1  1  0  0  0  0
 17  3  1  0  0  0  0
 18  3  1  0  0  0  0
 19  3  1  0  0  0  0
 20  4  1  0  0  0  0
 21  4  1  0  0  0  0
M  END
>  <HBA>
4

>  <HBD>
0

>  <TPSA>
101.2

>  <cid>
73014

>  <dipole>
0.0

>  <excitation_energy_1>
4.175

>  <excitation_energy_2>
4.201

>  <excitation_energy_3>
4.513

>  <excitation_energy_4>
4.532

>  <homo_energy>
-6.221

>  <homo_lumo_gap>
5.369

>  <logP>
4.235

>  <lumo_energy>
-0.852

>  <melting_point>
53.94

>  <molecular_refractivity>
59.28

>  <oscillator_strength_1>
0.0

>  <oscillator_strength_2>
0.0055

>  <oscillator_strength_3>
0.0003

>  <oscillator_strength_4>
0.0

>  <open_babel_can_smiles>
CC1(C)SSC(SS1)(C)C

>  <mulliken_charges>
22
1   -0.434268
2   -0.469771
3   -0.469738
4   -0.434314
5   -0.234561
6   -0.234557
7   0.035574
8   0.03548
9   0.035479
10   0.035575
11   0.163995
12   0.164042
13   0.198857
14   0.178536
15   0.183596
16   0.17852
17   0.178505
18   0.183588
19   0.178544
20   0.163996
21   0.164054
22   0.19887

>  <lowdin_charges>
22
1   -0.446867
2   -0.446861
3   -0.446854
4   -0.446876
5   -0.181329
6   -0.181328
7   0.031891
8   0.032191
9   0.032187
10   0.031896
11   0.162055
12   0.163564
13   0.175757
14   0.169387
15   0.169328
16   0.170883
17   0.170876
18   0.169326
19   0.169392
20   0.163543
21   0.162071
22   0.175768

$$$$

