PCCDB-ID:  10342
public computational chemistry database (PCCDB) project, http://pccdb.org

 14 14  0  0  0  0  0  0  0  0999 V2000
    1.0475    0.0941   -0.1606 C   0  0  0  0  0  0  0  0  0  0  0  0
    3.0889   -1.4469   -1.9693 C   0  0  0  0  0  0  0  0  0  0  0  0
    3.2669    0.0415   -2.3654 C   0  0  0  0  0  0  0  0  0  0  0  0
    2.5608   -0.1018   -0.1935 C   0  0  0  0  0  0  0  0  0  0  0  0
    2.9225   -1.4250   -0.5542 O   0  0  0  0  0  0  0  0  0  0  0  0
    3.1928    0.7524   -1.1327 O   0  0  0  0  0  0  0  0  0  0  0  0
    0.5958   -0.5896    0.5655 H   0  0  0  0  0  0  0  0  0  0  0  0
    0.6042   -0.1034   -1.1430 H   0  0  0  0  0  0  0  0  0  0  0  0
    0.8073    1.1231    0.1260 H   0  0  0  0  0  0  0  0  0  0  0  0
    3.9667   -2.0600   -2.1960 H   0  0  0  0  0  0  0  0  0  0  0  0
    2.2158   -1.8952   -2.4633 H   0  0  0  0  0  0  0  0  0  0  0  0
    2.4824    0.3713   -3.0604 H   0  0  0  0  0  0  0  0  0  0  0  0
    4.2406    0.2528   -2.8179 H   0  0  0  0  0  0  0  0  0  0  0  0
    3.0031    0.1045    0.7873 H   0  0  0  0  0  0  0  0  0  0  0  0
  1  9  1  0  0  0  0
  1  7  1  0  0  0  0
  2  5  1  0  0  0  0
  3  2  1  0  0  0  0
  3  6  1  0  0  0  0
  4  1  1  0  0  0  0
  4 14  1  0  0  0  0
  5  4  1  0  0  0  0
  6  4  1  0  0  0  0
  8  1  1  0  0  0  0
 10  2  1  0  0  0  0
 11  2  1  0  0  0  0
 12  3  1  0  0  0  0
 13  3  1  0  0  0  0
M  END
>  <HBA>
2

>  <HBD>
0

>  <TPSA>
18.46

>  <cid>
10342

>  <dipole>
1.44

>  <excitation_energy_1>
6.516

>  <excitation_energy_2>
6.708

>  <excitation_energy_3>
6.968

>  <excitation_energy_4>
7.077

>  <homo_energy>
-6.909

>  <homo_lumo_gap>
9.048

>  <logP>
0.379

>  <lumo_energy>
2.139

>  <melting_point>
-20.56

>  <molecular_refractivity>
21.4

>  <oscillator_strength_1>
0.0143

>  <oscillator_strength_2>
0.0

>  <oscillator_strength_3>
0.0097

>  <oscillator_strength_4>
0.0288

>  <open_babel_can_smiles>
CC1OCCO1

>  <mulliken_charges>
14
1   -0.452357
2   -0.053213
3   -0.054224
4   0.344168
5   -0.481977
6   -0.481421
7   0.155405
8   0.144823
9   0.155124
10   0.153147
11   0.138129
12   0.138095
13   0.15344
14   0.14086

>  <lowdin_charges>
14
1   -0.469208
2   -0.149021
3   -0.147987
4   0.106792
5   -0.269768
6   -0.267664
7   0.161516
8   0.153293
9   0.159306
10   0.152098
11   0.137247
12   0.137152
13   0.151711
14   0.144533

$$$$

