PCCDB-ID:  67524
public computational chemistry database (PCCDB) project, http://pccdb.org

 42 42  0  0  0  0  0  0  0  0999 V2000
   -1.2671    2.8664    0.3289 C   0  0  0  0  0  0  0  0  0  0  0  0
   -1.4941    1.4333   -0.1669 C   0  0  0  0  0  0  0  0  0  0  0  0
    0.1001    3.4718   -0.0580 C   0  0  0  0  0  0  0  0  0  0  0  0
   -2.8107    0.7758    0.2747 C   0  0  0  0  0  0  0  0  0  0  0  0
    1.3298    2.7082    0.4929 C   0  0  0  0  0  0  0  0  0  0  0  0
   -2.9303   -0.6836   -0.2117 C   0  0  0  0  0  0  0  0  0  0  0  0
    1.9317    1.6588   -0.4634 C   0  0  0  0  0  0  0  0  0  0  0  0
   -1.9329   -1.6600    0.4614 C   0  0  0  0  0  0  0  0  0  0  0  0
    2.9265    0.6824    0.2136 C   0  0  0  0  0  0  0  0  0  0  0  0
   -1.3317   -2.7063   -0.4985 C   0  0  0  0  0  0  0  0  0  0  0  0
    2.8092   -0.7771   -0.2727 C   0  0  0  0  0  0  0  0  0  0  0  0
   -0.1029   -3.4728    0.0504 C   0  0  0  0  0  0  0  0  0  0  0  0
    1.4935   -1.4366    0.1684 C   0  0  0  0  0  0  0  0  0  0  0  0
    1.2643   -2.8667   -0.3354 C   0  0  0  0  0  0  0  0  0  0  0  0
   -1.3596    2.8854    1.4254 H   0  0  0  0  0  0  0  0  0  0  0  0
   -2.0656    3.5180   -0.0540 H   0  0  0  0  0  0  0  0  0  0  0  0
   -0.6655    0.8126    0.1869 H   0  0  0  0  0  0  0  0  0  0  0  0
   -1.4391    1.4173   -1.2662 H   0  0  0  0  0  0  0  0  0  0  0  0
    0.1221    4.5048    0.3127 H   0  0  0  0  0  0  0  0  0  0  0  0
    0.1732    3.5460   -1.1531 H   0  0  0  0  0  0  0  0  0  0  0  0
   -3.6597    1.3582   -0.1100 H   0  0  0  0  0  0  0  0  0  0  0  0
   -2.8888    0.8074    1.3718 H   0  0  0  0  0  0  0  0  0  0  0  0
    1.0451    2.2148    1.4341 H   0  0  0  0  0  0  0  0  0  0  0  0
    2.1167    3.4246    0.7649 H   0  0  0  0  0  0  0  0  0  0  0  0
   -2.7702   -0.6920   -1.2997 H   0  0  0  0  0  0  0  0  0  0  0  0
   -3.9581   -1.0373   -0.0602 H   0  0  0  0  0  0  0  0  0  0  0  0
    2.4272    2.1764   -1.2962 H   0  0  0  0  0  0  0  0  0  0  0  0
    1.1189    1.0888   -0.9240 H   0  0  0  0  0  0  0  0  0  0  0  0
   -2.4248   -2.1792    1.2953 H   0  0  0  0  0  0  0  0  0  0  0  0
   -1.1195   -1.0893    0.9198 H   0  0  0  0  0  0  0  0  0  0  0  0
    2.7628    0.6916    1.3011 H   0  0  0  0  0  0  0  0  0  0  0  0
    3.9548    1.0361    0.0654 H   0  0  0  0  0  0  0  0  0  0  0  0
   -1.0449   -2.2086   -1.4368 H   0  0  0  0  0  0  0  0  0  0  0  0
   -2.1192   -3.4204   -0.7750 H   0  0  0  0  0  0  0  0  0  0  0  0
    3.6592   -1.3582    0.1118 H   0  0  0  0  0  0  0  0  0  0  0  0
    2.8875   -0.8084   -1.3698 H   0  0  0  0  0  0  0  0  0  0  0  0
   -0.1256   -4.5049   -0.3228 H   0  0  0  0  0  0  0  0  0  0  0  0
   -0.1757   -3.5493    1.1453 H   0  0  0  0  0  0  0  0  0  0  0  0
    0.6647   -0.8132   -0.1798 H   0  0  0  0  0  0  0  0  0  0  0  0
    1.4412   -1.4270    1.2679 H   0  0  0  0  0  0  0  0  0  0  0  0
    1.3547   -2.8791   -1.4321 H   0  0  0  0  0  0  0  0  0  0  0  0
    2.0630   -3.5213    0.0421 H   0  0  0  0  0  0  0  0  0  0  0  0
  1 15  1  0  0  0  0
  2 17  1  0  0  0  0
  2  4  1  0  0  0  0
  2  1  1  0  0  0  0
  3 19  1  0  0  0  0
  3  1  1  0  0  0  0
  3  5  1  0  0  0  0
  4 22  1  0  0  0  0
  5 24  1  0  0  0  0
  5 23  1  0  0  0  0
  6 26  1  0  0  0  0
  6  4  1  0  0  0  0
  6  8  1  0  0  0  0
  7  9  1  0  0  0  0
  7  5  1  0  0  0  0
  8 30  1  0  0  0  0
  8 29  1  0  0  0  0
  9 31  1  0  0  0  0
 10 12  1  0  0  0  0
 10  8  1  0  0  0  0
 11 35  1  0  0  0  0
 11 13  1  0  0  0  0
 11  9  1  0  0  0  0
 12 38  1  0  0  0  0
 13 40  1  0  0  0  0
 14 42  1  0  0  0  0
 14 12  1  0  0  0  0
 14 13  1  0  0  0  0
 16  1  1  0  0  0  0
 18  2  1  0  0  0  0
 20  3  1  0  0  0  0
 21  4  1  0  0  0  0
 25  6  1  0  0  0  0
 27  7  1  0  0  0  0
 28  7  1  0  0  0  0
 32  9  1  0  0  0  0
 33 10  1  0  0  0  0
 34 10  1  0  0  0  0
 36 11  1  0  0  0  0
 37 12  1  0  0  0  0
 39 13  1  0  0  0  0
 41 14  1  0  0  0  0
M  END
>  <HBA>
0

>  <HBD>
0

>  <TPSA>
0.0

>  <cid>
67524

>  <dipole>
0.0

>  <excitation_energy_1>
7.477

>  <excitation_energy_2>
7.548

>  <excitation_energy_3>
7.572

>  <excitation_energy_4>
7.607

>  <homo_energy>
-7.837

>  <homo_lumo_gap>
10.215

>  <logP>
5.461

>  <lumo_energy>
2.378

>  <melting_point>
-9.3

>  <molecular_refractivity>
67.3

>  <oscillator_strength_1>
0.0

>  <oscillator_strength_2>
0.0221

>  <oscillator_strength_3>
0.0

>  <oscillator_strength_4>
0.0185

>  <open_babel_can_smiles>
C1CCCCCCCCCCCCC1

>  <mulliken_charges>
42
1   -0.255294
2   -0.259668
3   -0.261312
4   -0.261347
5   -0.261241
6   -0.259448
7   -0.267779
8   -0.267693
9   -0.259471
10   -0.261263
11   -0.261284
12   -0.261255
13   -0.259739
14   -0.255414
15   0.125877
16   0.125987
17   0.147183
18   0.1237
19   0.128491
20   0.128926
21   0.126448
22   0.126705
23   0.129804
24   0.130384
25   0.129244
26   0.130134
27   0.130274
28   0.142975
29   0.130232
30   0.142929
31   0.129223
32   0.130142
33   0.129806
34   0.130386
35   0.126468
36   0.126686
37   0.128503
38   0.128937
39   0.147156
40   0.123739
41   0.12588
42   0.12599

>  <lowdin_charges>
42
1   -0.27296
2   -0.282312
3   -0.275603
4   -0.27437
5   -0.280424
6   -0.275272
7   -0.286829
8   -0.286831
9   -0.275275
10   -0.28041
11   -0.274357
12   -0.275639
13   -0.282322
14   -0.272953
15   0.134175
16   0.139711
17   0.14442
18   0.133753
19   0.141672
20   0.136836
21   0.140213
22   0.13524
23   0.137082
24   0.142476
25   0.135987
26   0.141237
27   0.141003
28   0.143965
29   0.140958
30   0.143999
31   0.135988
32   0.141223
33   0.137113
34   0.142465
35   0.140217
36   0.135232
37   0.1417
38   0.13685
39   0.144417
40   0.133779
41   0.134154
42   0.139692

$$$$

