PCCDB-ID:  69275
public computational chemistry database (PCCDB) project, http://pccdb.org

 18 18  0  0  0  0  0  0  0  0999 V2000
   -0.8404    1.0476   -0.0510 C   0  0  0  0  0  0  0  0  0  0  0  0
    1.3302   -0.0099    0.0657 C   0  0  0  0  0  0  0  0  0  0  0  0
   -1.4571   -0.1982   -0.1136 C   0  0  0  0  0  0  0  0  0  0  0  0
    0.7304   -1.2647    0.0105 C   0  0  0  0  0  0  0  0  0  0  0  0
    1.2193    2.5214    0.0619 C   0  0  0  0  0  0  0  0  0  0  0  0
    0.5545    1.1568    0.0335 C   0  0  0  0  0  0  0  0  0  0  0  0
   -0.6583   -1.3401   -0.0807 C   0  0  0  0  0  0  0  0  0  0  0  0
   -1.3004   -2.6617   -0.1387 N   0  0  0  0  0  0  0  0  0  0  0  0
    2.4812    2.5324    0.7098 O   0  0  0  0  0  0  0  0  0  0  0  0
   -2.5283   -2.6982   -0.2215 O   0  0  0  0  0  0  0  0  0  0  0  0
   -0.5726   -3.6538   -0.1016 O   0  0  0  0  0  0  0  0  0  0  0  0
   -1.4526    1.9462   -0.0641 H   0  0  0  0  0  0  0  0  0  0  0  0
    2.4095    0.0775    0.1371 H   0  0  0  0  0  0  0  0  0  0  0  0
   -2.5332   -0.3005   -0.1798 H   0  0  0  0  0  0  0  0  0  0  0  0
    1.3141   -2.1768    0.0342 H   0  0  0  0  0  0  0  0  0  0  0  0
    0.5302    3.2593    0.5021 H   0  0  0  0  0  0  0  0  0  0  0  0
    1.4221    2.8523   -0.9638 H   0  0  0  0  0  0  0  0  0  0  0  0
    2.3374    2.2958    1.6400 H   0  0  0  0  0  0  0  0  0  0  0  0
  1  6  2  0  0  0  0
  2 13  1  0  0  0  0
  3  7  2  0  0  0  0
  3  1  1  0  0  0  0
  4 15  1  0  0  0  0
  4  2  2  0  0  0  0
  5 16  1  0  0  0  0
  5  9  1  0  0  0  0
  6  5  1  0  0  0  0
  6  2  1  0  0  0  0
  7  4  1  0  0  0  0
  8 11  2  0  0  0  0
  8  7  1  0  0  0  0
  9 18  1  0  0  0  0
 10  8  2  0  0  0  0
 12  1  1  0  0  0  0
 14  3  1  0  0  0  0
 17  5  1  0  0  0  0
M  END
>  <HBA>
1

>  <HBD>
1

>  <TPSA>
66.05

>  <cid>
69275

>  <dipole>
4.26

>  <excitation_energy_1>
3.739

>  <excitation_energy_2>
4.257

>  <excitation_energy_3>
4.291

>  <excitation_energy_4>
4.446

>  <homo_energy>
-7.456

>  <homo_lumo_gap>
5.023

>  <logP>
1.61

>  <lumo_energy>
-2.433

>  <melting_point>
65.57

>  <molecular_refractivity>
41.39

>  <oscillator_strength_1>
0.0

>  <oscillator_strength_2>
0.0028

>  <oscillator_strength_3>
0.015

>  <oscillator_strength_4>
0.2422

>  <open_babel_can_smiles>
OCc1ccc(cc1)N(=O)=O

>  <mulliken_charges>
18
1   -0.190798
2   -0.186777
3   -0.147456
4   -0.148012
5   -0.095174
6   0.120858
7   0.273975
8   0.379226
9   -0.602491
10   -0.395697
11   -0.394896
12   0.142667
13   0.161779
14   0.184004
15   0.184334
16   0.140849
17   0.178754
18   0.394854

>  <lowdin_charges>
18
1   -0.160524
2   -0.155094
3   -0.132619
4   -0.134237
5   -0.134764
6   -0.008696
7   -0.000208
8   0.30627
9   -0.450882
10   -0.245909
11   -0.247477
12   0.164979
13   0.172651
14   0.186252
15   0.188528
16   0.141221
17   0.165137
18   0.345372

$$$$

