PCCDB-ID:  28652
public computational chemistry database (PCCDB) project, http://pccdb.org

 33 34  0  0  1  0  0  0  0  0999 V2000
    0.7142   -0.3881    0.3097 C   0  0  0  0  0  0  0  0  0  0  0  0
    2.1542   -0.2090   -0.1859 C   0  0  0  0  0  0  0  0  0  0  0  0
    6.3604   -2.0757    0.1984 C   0  0  0  0  0  0  0  0  0  0  0  0
    6.0631   -0.7690    0.1689 C   0  0  0  0  0  0  0  0  0  0  0  0
    5.7753   -3.0860   -0.7526 C   0  0  0  0  0  0  0  0  0  0  0  0
    5.1250   -0.1594   -0.8468 C   0  0  0  0  0  0  0  0  0  0  0  0
    4.9918   -2.4417   -1.9156 C   0  0  0  0  0  0  0  0  0  0  0  0
    4.1823   -1.1795   -1.5311 C   0  0  1  0  0  0  0  0  0  0  0  0
    1.8460   -2.0438   -1.8754 C   0  0  0  0  0  0  0  0  0  0  0  0
    2.8811   -2.5575    0.2920 C   0  0  0  0  0  0  0  0  0  0  0  0
    1.6332   -4.1290   -0.8898 C   0  0  0  0  0  0  0  0  0  0  0  0
    2.7992   -1.4942   -0.8070 C   0  0  2  0  0  0  0  0  0  0  0  0
    1.3302   -3.2055   -1.9216 N   0  0  0  0  0  0  0  0  0  0  0  0
    2.3345   -3.7094    0.2687 N   0  0  0  0  0  0  0  0  0  0  0  0
    1.5083   -1.1995   -2.8801 O   0  0  0  0  0  0  0  0  0  0  0  0
    3.5227   -2.2211    1.4315 O   0  0  0  0  0  0  0  0  0  0  0  0
    1.2836   -5.2833   -0.9940 O   0  0  0  0  0  0  0  0  0  0  0  0
    0.3590    0.5434    0.7625 H   0  0  0  0  0  0  0  0  0  0  0  0
    0.6490   -1.1737    1.0696 H   0  0  0  0  0  0  0  0  0  0  0  0
    0.0307   -0.6475   -0.5048 H   0  0  0  0  0  0  0  0  0  0  0  0
    2.7770    0.1213    0.6501 H   0  0  0  0  0  0  0  0  0  0  0  0
    2.1951    0.6081   -0.9213 H   0  0  0  0  0  0  0  0  0  0  0  0
    7.0508   -2.4515    0.9521 H   0  0  0  0  0  0  0  0  0  0  0  0
    6.5422   -0.0886    0.8714 H   0  0  0  0  0  0  0  0  0  0  0  0
    5.1480   -3.7890   -0.1890 H   0  0  0  0  0  0  0  0  0  0  0  0
    6.5860   -3.7002   -1.1674 H   0  0  0  0  0  0  0  0  0  0  0  0
    5.7277    0.3087   -1.6401 H   0  0  0  0  0  0  0  0  0  0  0  0
    4.5665    0.6694   -0.3989 H   0  0  0  0  0  0  0  0  0  0  0  0
    4.3406   -3.1866   -2.3862 H   0  0  0  0  0  0  0  0  0  0  0  0
    5.7083   -2.1316   -2.6864 H   0  0  0  0  0  0  0  0  0  0  0  0
    3.8824   -0.7102   -2.4758 H   0  0  0  0  0  0  0  0  0  0  0  0
    1.8974   -0.3239   -2.7292 H   0  0  0  0  0  0  0  0  0  0  0  0
    4.2279   -1.5692    1.2527 H   0  0  0  0  0  0  0  0  0  0  0  0
  1 18  1  0  0  0  0
  1 19  1  0  0  0  0
  2  1  1  0  0  0  0
  2 21  1  0  0  0  0
  3 23  1  0  0  0  0
  4  3  2  0  0  0  0
  4 24  1  0  0  0  0
  5 25  1  0  0  0  0
  5  3  1  0  0  0  0
  6 28  1  0  0  0  0
  6  4  1  0  0  0  0
  7  8  1  0  0  0  0
  7  5  1  0  0  0  0
  8 31  1  6  0  0  0
  8  6  1  0  0  0  0
  8 12  1  0  0  0  0
  9 12  1  0  0  0  0
 10 16  1  0  0  0  0
 11 14  1  0  0  0  0
 12  2  1  1  0  0  0
 12 10  1  0  0  0  0
 13  9  2  0  0  0  0
 13 11  2  0  0  0  0
 14 10  2  0  0  0  0
 15 32  1  0  0  0  0
 15  9  1  0  0  0  0
 17 11  2  0  0  0  0
 20  1  1  0  0  0  0
 22  2  1  0  0  0  0
 26  5  1  0  0  0  0
 27  6  1  0  0  0  0
 29  7  1  0  0  0  0
 30  7  1  0  0  0  0
 33 16  1  0  0  0  0
M  END
>  <HBA>
5

>  <HBD>
2

>  <TPSA>
75.27

>  <cid>
28652

>  <dipole>
9.9

>  <excitation_energy_1>
3.952

>  <excitation_energy_2>
4.136

>  <excitation_energy_3>
5.073

>  <excitation_energy_4>
5.175

>  <homo_energy>
-6.787

>  <homo_lumo_gap>
5.325

>  <logP>
1.763

>  <lumo_energy>
-1.461

>  <melting_point>
171.95

>  <molecular_refractivity>
69.26

>  <oscillator_strength_1>
0.0001

>  <oscillator_strength_2>
0.0001

>  <oscillator_strength_3>
0.0108

>  <oscillator_strength_4>
0.0021

>  <open_babel_can_smiles>
CC[C@@]1([C@@H]2CCC=CC2)C(=N[C](=[N]=C1O)=O)O

>  <mulliken_charges>
33
1   -0.471094
2   -0.293375
3   -0.087677
4   -0.175551
5   -0.329405
6   -0.314457
7   -0.292575
8   -0.124708
9   0.535681
10   0.530127
11   0.611262
12   -0.106192
13   -0.469807
14   -0.466675
15   -0.578996
16   -0.601171
17   -0.433762
18   0.158843
19   0.184507
20   0.176919
21   0.159808
22   0.13109
23   0.147428
24   0.141456
25   0.198352
26   0.163532
27   0.16729
28   0.152608
29   0.170871
30   0.152328
31   0.127264
32   0.416803
33   0.419278

>  <lowdin_charges>
33
1   -0.455307
2   -0.276361
3   -0.150464
4   -0.210402
5   -0.291957
6   -0.291732
7   -0.284166
8   -0.129645
9   0.145751
10   0.145324
11   0.165792
12   -0.062199
13   -0.182812
14   -0.186867
15   -0.332524
16   -0.345936
17   -0.212434
18   0.161406
19   0.169145
20   0.164852
21   0.156344
22   0.138791
23   0.164986
24   0.161666
25   0.17625
26   0.165915
27   0.164716
28   0.155354
29   0.164047
30   0.155667
31   0.14589
32   0.355509
33   0.355401

$$$$

