PCCDB-ID:  6985
public computational chemistry database (PCCDB) project, http://pccdb.org

 23 23  0  0  0  0  0  0  0  0999 V2000
    1.0000    0.1026    0.0981 C   0  0  0  0  0  0  0  0  0  0  0  0
    5.0542   -2.7226    0.9760 C   0  0  0  0  0  0  0  0  0  0  0  0
    7.5633    0.4813   -1.1180 C   0  0  0  0  0  0  0  0  0  0  0  0
    3.2878    0.8693   -0.6786 C   0  0  0  0  0  0  0  0  0  0  0  0
    4.6610    0.6806   -0.7774 C   0  0  0  0  0  0  0  0  0  0  0  0
    3.1183   -1.2323    0.4629 C   0  0  0  0  0  0  0  0  0  0  0  0
    2.4897   -0.0917   -0.0494 C   0  0  0  0  0  0  0  0  0  0  0  0
    4.4979   -1.4504    0.3813 C   0  0  0  0  0  0  0  0  0  0  0  0
    6.7762   -0.6111   -0.3992 C   0  0  0  0  0  0  0  0  0  0  0  0
    5.2948   -0.4626   -0.2588 C   0  0  0  0  0  0  0  0  0  0  0  0
    7.3787   -1.5805    0.0438 O   0  0  0  0  0  0  0  0  0  0  0  0
    0.5977    0.7391   -0.6969 H   0  0  0  0  0  0  0  0  0  0  0  0
    0.7591    0.5849    1.0550 H   0  0  0  0  0  0  0  0  0  0  0  0
    0.4661   -0.8532    0.0742 H   0  0  0  0  0  0  0  0  0  0  0  0
    4.2442   -3.3170    1.4117 H   0  0  0  0  0  0  0  0  0  0  0  0
    5.7974   -2.5153    1.7511 H   0  0  0  0  0  0  0  0  0  0  0  0
    5.5717   -3.3276    0.2256 H   0  0  0  0  0  0  0  0  0  0  0  0
    7.4675    1.4473   -0.6083 H   0  0  0  0  0  0  0  0  0  0  0  0
    7.2158    0.6171   -2.1487 H   0  0  0  0  0  0  0  0  0  0  0  0
    8.6138    0.1861   -1.1295 H   0  0  0  0  0  0  0  0  0  0  0  0
    2.8336    1.7660   -1.0932 H   0  0  0  0  0  0  0  0  0  0  0  0
    5.2525    1.4426   -1.2731 H   0  0  0  0  0  0  0  0  0  0  0  0
    2.5070   -1.9908    0.9481 H   0  0  0  0  0  0  0  0  0  0  0  0
  1 13  1  0  0  0  0
  2 15  1  0  0  0  0
  2 16  1  0  0  0  0
  3 18  1  0  0  0  0
  3  9  1  0  0  0  0
  4  7  1  0  0  0  0
  5  4  2  0  0  0  0
  5 10  1  0  0  0  0
  6 23  1  0  0  0  0
  7  1  1  0  0  0  0
  7  6  2  0  0  0  0
  8  6  1  0  0  0  0
  8  2  1  0  0  0  0
  9 10  1  0  0  0  0
  9 11  2  0  0  0  0
 10  8  2  0  0  0  0
 12  1  1  0  0  0  0
 14  1  1  0  0  0  0
 17  2  1  0  0  0  0
 19  3  1  0  0  0  0
 20  3  1  0  0  0  0
 21  4  1  0  0  0  0
 22  5  1  0  0  0  0
M  END
>  <HBA>
1

>  <HBD>
0

>  <TPSA>
17.07

>  <cid>
6985

>  <dipole>
3.06

>  <excitation_energy_1>
3.69

>  <excitation_energy_2>
4.567

>  <excitation_energy_3>
5.007

>  <excitation_energy_4>
5.458

>  <homo_energy>
-6.482

>  <homo_lumo_gap>
5.157

>  <logP>
2.506

>  <lumo_energy>
-1.325

>  <melting_point>
47.89

>  <molecular_refractivity>
46.57

>  <oscillator_strength_1>
0.0001

>  <oscillator_strength_2>
0.0434

>  <oscillator_strength_3>
0.2815

>  <oscillator_strength_4>
0.0001

>  <open_babel_can_smiles>
Cc1ccc(c(c1)C)C(=O)C

>  <mulliken_charges>
23
1   -0.532749
2   -0.498588
3   -0.540805
4   -0.187011
5   -0.187843
6   -0.244876
7   0.198571
8   0.135358
9   0.397977
10   0.046464
11   -0.464353
12   0.159796
13   0.171293
14   0.16255
15   0.135776
16   0.177134
17   0.176076
18   0.168649
19   0.168244
20   0.179073
21   0.124917
22   0.133139
23   0.121209

>  <lowdin_charges>
23
1   -0.443246
2   -0.442105
3   -0.475032
4   -0.176581
5   -0.147606
6   -0.180766
7   0.019575
8   0.034823
9   0.160398
10   -0.065378
11   -0.246234
12   0.160853
13   0.165916
14   0.1613
15   0.146887
16   0.172637
17   0.172638
18   0.167597
19   0.166582
20   0.172185
21   0.156595
22   0.16344
23   0.15552

$$$$

