PCCDB-ID:  66345
public computational chemistry database (PCCDB) project, http://pccdb.org

 20 20  0  0  0  0  0  0  0  0999 V2000
    1.2801    0.1100    0.3166 C   0  0  0  0  0  0  0  0  0  0  0  0
    3.2862    3.8935   -0.2582 C   0  0  0  0  0  0  0  0  0  0  0  0
    5.2010    2.7011   -1.1190 C   0  0  0  0  0  0  0  0  0  0  0  0
    2.6401    2.6893   -0.0075 C   0  0  0  0  0  0  0  0  0  0  0  0
    4.5696    1.4971   -0.8705 C   0  0  0  0  0  0  0  0  0  0  0  0
    4.5714    3.9218   -0.8177 C   0  0  0  0  0  0  0  0  0  0  0  0
    3.2730    1.4638   -0.3057 C   0  0  0  0  0  0  0  0  0  0  0  0
    5.2929    5.1745   -1.1045 C   0  0  0  0  0  0  0  0  0  0  0  0
    2.6775    0.2497   -0.0412 N   0  0  0  0  0  0  0  0  0  0  0  0
    4.5881    6.2923   -0.7661 O   0  0  0  0  0  0  0  0  0  0  0  0
    6.4060    5.2528   -1.5930 O   0  0  0  0  0  0  0  0  0  0  0  0
    1.0507   -0.9531    0.4206 H   0  0  0  0  0  0  0  0  0  0  0  0
    0.5993    0.5431   -0.4327 H   0  0  0  0  0  0  0  0  0  0  0  0
    1.0750    0.5907    1.2805 H   0  0  0  0  0  0  0  0  0  0  0  0
    2.7863    4.8269   -0.0227 H   0  0  0  0  0  0  0  0  0  0  0  0
    6.1953    2.7246   -1.5535 H   0  0  0  0  0  0  0  0  0  0  0  0
    1.6438    2.6984    0.4208 H   0  0  0  0  0  0  0  0  0  0  0  0
    5.0712    0.5605   -1.1049 H   0  0  0  0  0  0  0  0  0  0  0  0
    3.1034   -0.5485   -0.4894 H   0  0  0  0  0  0  0  0  0  0  0  0
    5.1682    7.0387   -1.0031 H   0  0  0  0  0  0  0  0  0  0  0  0
  1 12  1  0  0  0  0
  1 14  1  0  0  0  0
  2 15  1  0  0  0  0
  2  4  1  0  0  0  0
  3  5  2  0  0  0  0
  3  6  1  0  0  0  0
  4 17  1  0  0  0  0
  5  7  1  0  0  0  0
  6  2  2  0  0  0  0
  7  9  1  0  0  0  0
  7  4  2  0  0  0  0
  8  6  1  0  0  0  0
  8 10  1  0  0  0  0
  9  1  1  0  0  0  0
 11  8  2  0  0  0  0
 13  1  1  0  0  0  0
 16  3  1  0  0  0  0
 18  5  1  0  0  0  0
 19  9  1  0  0  0  0
 20 10  1  0  0  0  0
M  END
>  <HBA>
3

>  <HBD>
2

>  <TPSA>
49.33

>  <cid>
66345

>  <dipole>
4.36

>  <excitation_energy_1>
4.483

>  <excitation_energy_2>
4.635

>  <excitation_energy_3>
4.844

>  <excitation_energy_4>
5.047

>  <homo_energy>
-5.57

>  <homo_lumo_gap>
4.844

>  <logP>
1.5

>  <lumo_energy>
-0.727

>  <melting_point>
130.2

>  <molecular_refractivity>
42.71

>  <oscillator_strength_1>
0.4264

>  <oscillator_strength_2>
0.0608

>  <oscillator_strength_3>
0.0016

>  <oscillator_strength_4>
0.0001

>  <open_babel_can_smiles>
CNc1ccc(cc1)C(=O)O

>  <mulliken_charges>
20
1   -0.302363
2   -0.173256
3   -0.162921
4   -0.191898
5   -0.198553
6   0.068952
7   0.377493
8   0.52579
9   -0.64478
10   -0.591565
11   -0.490272
12   0.160063
13   0.157259
14   0.169655
15   0.156135
16   0.160097
17   0.128564
18   0.121664
19   0.323597
20   0.406339

>  <lowdin_charges>
20
1   -0.350768
2   -0.124238
3   -0.117396
4   -0.211531
5   -0.202716
6   -0.079912
7   0.075715
8   0.190173
9   -0.282672
10   -0.372693
11   -0.288876
12   0.159929
13   0.146176
14   0.156013
15   0.172336
16   0.175158
17   0.159608
18   0.154369
19   0.280897
20   0.360428

$$$$

