PCCDB-ID:  26830
public computational chemistry database (PCCDB) project, http://pccdb.org

 32 33  0  0  1  0  0  0  0  0999 V2000
    1.2146    0.2733    0.0883 C   0  0  0  0  0  0  0  0  0  0  0  0
    2.6665   -0.9419   -2.0759 C   0  0  0  0  0  0  0  0  0  0  0  0
    4.7242   -0.8480   -0.8604 C   0  0  0  0  0  0  0  0  0  0  0  0
    4.5201   -3.0596    7.1164 C   0  0  0  0  0  0  0  0  0  0  0  0
    4.2191   -3.7099    5.9194 C   0  0  0  0  0  0  0  0  0  0  0  0
    4.5375   -1.6625    7.1581 C   0  0  0  0  0  0  0  0  0  0  0  0
    3.9374   -2.9698    4.7715 C   0  0  0  0  0  0  0  0  0  0  0  0
    4.2574   -0.9212    6.0139 C   0  0  0  0  0  0  0  0  0  0  0  0
    3.3438   -1.2555    2.2775 C   0  0  0  0  0  0  0  0  0  0  0  0
    2.7502    0.1479    0.1248 C   0  0  1  0  0  0  0  0  0  0  0  0
    3.9530   -1.5678    4.8040 C   0  0  0  0  0  0  0  0  0  0  0  0
    3.6573   -0.7831    3.5910 C   0  0  0  0  0  0  0  0  0  0  0  0
    3.1716   -0.1213    1.5461 C   0  0  0  0  0  0  0  0  0  0  0  0
    3.6671    0.5378    3.6316 N   0  0  0  0  0  0  0  0  0  0  0  0
    3.2676   -0.9204   -0.7452 N   0  0  0  0  0  0  0  0  0  0  0  0
    3.3604    0.9589    2.3352 O   0  0  0  0  0  0  0  0  0  0  0  0
    0.8912    0.9706    0.8666 H   0  0  0  0  0  0  0  0  0  0  0  0
    0.7455   -0.6978    0.2777 H   0  0  0  0  0  0  0  0  0  0  0  0
    0.8630    0.6592   -0.8727 H   0  0  0  0  0  0  0  0  0  0  0  0
    3.1228   -1.7549   -2.6496 H   0  0  0  0  0  0  0  0  0  0  0  0
    2.8196   -0.0026   -2.6426 H   0  0  0  0  0  0  0  0  0  0  0  0
    1.5943   -1.1409   -2.0179 H   0  0  0  0  0  0  0  0  0  0  0  0
    5.0861   -1.7075   -1.4340 H   0  0  0  0  0  0  0  0  0  0  0  0
    5.1847   -0.8833    0.1300 H   0  0  0  0  0  0  0  0  0  0  0  0
    5.0679    0.0739   -1.3683 H   0  0  0  0  0  0  0  0  0  0  0  0
    4.7405   -3.6359    8.0109 H   0  0  0  0  0  0  0  0  0  0  0  0
    4.2029   -4.7956    5.8763 H   0  0  0  0  0  0  0  0  0  0  0  0
    4.7710   -1.1487    8.0868 H   0  0  0  0  0  0  0  0  0  0  0  0
    3.7035   -3.4883    3.8464 H   0  0  0  0  0  0  0  0  0  0  0  0
    4.2708    0.1633    6.0420 H   0  0  0  0  0  0  0  0  0  0  0  0
    3.2599   -2.2692    1.9197 H   0  0  0  0  0  0  0  0  0  0  0  0
    3.1709    1.1326   -0.1612 H   0  0  0  0  0  0  0  0  0  0  0  0
  1 10  1  0  0  0  0
  1 18  1  0  0  0  0
  1 17  1  0  0  0  0
  2 22  1  0  0  0  0
  2 15  1  0  0  0  0
  3 15  1  0  0  0  0
  3 24  1  0  0  0  0
  4  6  1  0  0  0  0
  4 26  1  0  0  0  0
  5  4  2  0  0  0  0
  6 28  1  0  0  0  0
  7 11  2  0  0  0  0
  7  5  1  0  0  0  0
  8 30  1  0  0  0  0
  8  6  2  0  0  0  0
  9 12  1  0  0  0  0
 10 32  1  6  0  0  0
 10 13  1  0  0  0  0
 11  8  1  0  0  0  0
 12 14  2  0  0  0  0
 12 11  1  0  0  0  0
 13  9  2  0  0  0  0
 13 16  1  0  0  0  0
 15 10  1  0  0  0  0
 16 14  1  0  0  0  0
 19  1  1  0  0  0  0
 20  2  1  0  0  0  0
 21  2  1  0  0  0  0
 23  3  1  0  0  0  0
 25  3  1  0  0  0  0
 27  5  1  0  0  0  0
 29  7  1  0  0  0  0
 31  9  1  0  0  0  0
M  END
>  <HBA>
3

>  <HBD>
0

>  <TPSA>
29.27

>  <cid>
26830

>  <dipole>
2.8

>  <excitation_energy_1>
4.517

>  <excitation_energy_2>
4.894

>  <excitation_energy_3>
5.032

>  <excitation_energy_4>
5.26

>  <homo_energy>
-6.101

>  <homo_lumo_gap>
5.195

>  <logP>
2.964

>  <lumo_energy>
-0.906

>  <melting_point>
60.8

>  <molecular_refractivity>
64.22

>  <oscillator_strength_1>
0.0009

>  <oscillator_strength_2>
0.0223

>  <oscillator_strength_3>
0.3126

>  <oscillator_strength_4>
0.0141

>  <open_babel_can_smiles>
CN([C@H](c1onc(c1)c1ccccc1)C)C

>  <mulliken_charges>
32
1   -0.471451
2   -0.299982
3   -0.309912
4   -0.122906
5   -0.137324
6   -0.134921
7   -0.180105
8   -0.169313
9   -0.295323
10   -0.0017
11   0.119382
12   0.258625
13   0.416681
14   -0.247047
15   -0.385932
16   -0.386185
17   0.171449
18   0.162464
19   0.156949
20   0.152807
21   0.121814
22   0.159828
23   0.151422
24   0.165873
25   0.124252
26   0.131611
27   0.131648
28   0.134096
29   0.130566
30   0.163989
31   0.157251
32   0.131392

>  <lowdin_charges>
32
1   -0.446134
2   -0.357269
3   -0.362206
4   -0.153217
5   -0.153054
6   -0.153559
7   -0.156636
8   -0.141376
9   -0.244287
10   -0.056573
11   -0.008425
12   0.021326
13   0.089901
14   -0.094536
15   -0.184412
16   -0.072349
17   0.167784
18   0.158966
19   0.156206
20   0.154905
21   0.123252
22   0.15329
23   0.152654
24   0.158446
25   0.124598
26   0.159577
27   0.156718
28   0.160226
29   0.158505
30   0.173179
31   0.17962
32   0.13488

$$$$

