PCCDB-ID:  48482
public computational chemistry database (PCCDB) project, http://pccdb.org

 29 29  0  0  1  0  0  0  0  0999 V2000
    1.0691   -0.7768    0.5770 C   0  0  0  0  0  0  0  0  0  0  0  0
    7.3126    0.5506    0.1253 C   0  0  0  0  0  0  0  0  0  0  0  0
    2.3547   -0.2369   -0.0559 C   0  0  0  0  0  0  0  0  0  0  0  0
    6.4600    0.2550   -1.0948 C   0  0  0  0  0  0  0  0  0  0  0  0
    4.2857   -0.5275   -1.7126 C   0  0  0  0  0  0  0  0  0  0  0  0
    2.0106   -1.4516   -2.2496 C   0  0  0  0  0  0  0  0  0  0  0  0
    3.3581   -2.5293   -0.4892 C   0  0  0  0  0  0  0  0  0  0  0  0
    1.7262   -3.6853   -1.6706 C   0  0  0  0  0  0  0  0  0  0  0  0
    3.0049   -1.1786   -1.1233 C   0  0  2  0  0  0  0  0  0  0  0  0
    1.4475   -2.5614   -2.5020 N   0  0  0  0  0  0  0  0  0  0  0  0
    2.7746   -3.6393   -0.7227 N   0  0  0  0  0  0  0  0  0  0  0  0
    1.6833   -0.4024   -3.0448 O   0  0  0  0  0  0  0  0  0  0  0  0
    4.3460   -2.5131    0.4180 O   0  0  0  0  0  0  0  0  0  0  0  0
    1.0623   -4.6894   -1.7945 O   0  0  0  0  0  0  0  0  0  0  0  0
    5.1752   -0.2054   -0.6524 O   0  0  0  0  0  0  0  0  0  0  0  0
    0.6868   -0.0585    1.3094 H   0  0  0  0  0  0  0  0  0  0  0  0
    1.2457   -1.7230    1.0988 H   0  0  0  0  0  0  0  0  0  0  0  0
    0.2849   -0.9449   -0.1684 H   0  0  0  0  0  0  0  0  0  0  0  0
    8.2932    0.9243   -0.1870 H   0  0  0  0  0  0  0  0  0  0  0  0
    7.4662   -0.3535    0.7235 H   0  0  0  0  0  0  0  0  0  0  0  0
    6.8379    1.3093    0.7553 H   0  0  0  0  0  0  0  0  0  0  0  0
    3.1009   -0.0370    0.7181 H   0  0  0  0  0  0  0  0  0  0  0  0
    2.1533    0.7332   -0.5334 H   0  0  0  0  0  0  0  0  0  0  0  0
    6.9237   -0.5146   -1.7293 H   0  0  0  0  0  0  0  0  0  0  0  0
    6.3201    1.1574   -1.7080 H   0  0  0  0  0  0  0  0  0  0  0  0
    4.0417    0.3922   -2.2663 H   0  0  0  0  0  0  0  0  0  0  0  0
    4.7646   -1.2204   -2.4208 H   0  0  0  0  0  0  0  0  0  0  0  0
    2.0672    0.4179   -2.6979 H   0  0  0  0  0  0  0  0  0  0  0  0
    4.8199   -1.6546    0.3546 H   0  0  0  0  0  0  0  0  0  0  0  0
  1 17  1  0  0  0  0
  1 16  1  0  0  0  0
  2 20  1  0  0  0  0
  2 21  1  0  0  0  0
  3  1  1  0  0  0  0
  3 22  1  0  0  0  0
  4 15  1  0  0  0  0
  4  2  1  0  0  0  0
  5 15  1  0  0  0  0
  6  9  1  0  0  0  0
  7 13  1  0  0  0  0
  8 11  1  0  0  0  0
  9  5  1  6  0  0  0
  9  7  1  0  0  0  0
  9  3  1  0  0  0  0
 10  6  2  0  0  0  0
 10  8  2  0  0  0  0
 11  7  2  0  0  0  0
 12 28  1  0  0  0  0
 12  6  1  0  0  0  0
 14  8  2  0  0  0  0
 18  1  1  0  0  0  0
 19  2  1  0  0  0  0
 23  3  1  0  0  0  0
 24  4  1  0  0  0  0
 25  4  1  0  0  0  0
 26  5  1  0  0  0  0
 27  5  1  0  0  0  0
 29 13  1  0  0  0  0
M  END
>  <HBA>
6

>  <HBD>
2

>  <TPSA>
84.5

>  <cid>
48482

>  <dipole>
11.11

>  <excitation_energy_1>
4.0

>  <excitation_energy_2>
4.182

>  <excitation_energy_3>
5.218

>  <excitation_energy_4>
5.481

>  <homo_energy>
-6.792

>  <homo_lumo_gap>
5.388

>  <logP>
0.443

>  <lumo_energy>
-1.404

>  <melting_point>
132.62

>  <molecular_refractivity>
58.51

>  <oscillator_strength_1>
0.0003

>  <oscillator_strength_2>
0.0001

>  <oscillator_strength_3>
0.002

>  <oscillator_strength_4>
0.049

>  <open_babel_can_smiles>
CCOC[C@]1(CC)C(=N[C](=[N]=C1O)=O)O

>  <mulliken_charges>
29
1   -0.471799
2   -0.465581
3   -0.258454
4   -0.023056
5   -0.019699
6   0.546839
7   0.541702
8   0.616252
9   -0.177712
10   -0.467108
11   -0.470493
12   -0.580693
13   -0.598878
14   -0.43258
15   -0.507836
16   0.159894
17   0.183651
18   0.176654
19   0.16468
20   0.170414
21   0.16882
22   0.172433
23   0.128641
24   0.149808
25   0.143615
26   0.127646
27   0.169862
28   0.414214
29   0.438765

>  <lowdin_charges>
29
1   -0.455016
2   -0.450293
3   -0.268638
4   -0.123947
5   -0.134798
6   0.143415
7   0.146763
8   0.17208
9   -0.069834
10   -0.18103
11   -0.189946
12   -0.335966
13   -0.341386
14   -0.211678
15   -0.277508
16   0.162861
17   0.168074
18   0.16468
19   0.166379
20   0.163072
21   0.163889
22   0.162737
23   0.139357
24   0.14362
25   0.140142
26   0.135216
27   0.155002
28   0.355044
29   0.357709

$$$$

