PCCDB-ID:  20127
public computational chemistry database (PCCDB) project, http://pccdb.org

 25 25  0  0  0  0  0  0  0  0999 V2000
    1.1917   -0.0112   -0.9825 C   0  0  0  0  0  0  0  0  0  0  0  0
    2.2036    2.9070    1.7189 C   0  0  0  0  0  0  0  0  0  0  0  0
    2.6231    0.2870   -0.6369 C   0  0  0  0  0  0  0  0  0  0  0  0
    2.2628    1.3722    1.6189 C   0  0  0  0  0  0  0  0  0  0  0  0
    7.3844    1.5230    0.7348 C   0  0  0  0  0  0  0  0  0  0  0  0
    6.7063    1.7699   -0.4599 C   0  0  0  0  0  0  0  0  0  0  0  0
    6.6677    1.0813    1.8482 C   0  0  0  0  0  0  0  0  0  0  0  0
    5.3281    1.5744   -0.5385 C   0  0  0  0  0  0  0  0  0  0  0  0
    5.2892    0.8865    1.7670 C   0  0  0  0  0  0  0  0  0  0  0  0
    3.1184    0.8852    0.4639 C   0  0  0  0  0  0  0  0  0  0  0  0
    4.5907    1.1175    0.5685 C   0  0  0  0  0  0  0  0  0  0  0  0
    1.0419   -1.0901   -1.1266 H   0  0  0  0  0  0  0  0  0  0  0  0
    0.9182    0.4678   -1.9330 H   0  0  0  0  0  0  0  0  0  0  0  0
    0.4793    0.3268   -0.2259 H   0  0  0  0  0  0  0  0  0  0  0  0
    1.5985    3.2184    2.5782 H   0  0  0  0  0  0  0  0  0  0  0  0
    1.7594    3.3398    0.8155 H   0  0  0  0  0  0  0  0  0  0  0  0
    3.2048    3.3350    1.8362 H   0  0  0  0  0  0  0  0  0  0  0  0
    3.3409   -0.0414   -1.3889 H   0  0  0  0  0  0  0  0  0  0  0  0
    1.2472    0.9754    1.5328 H   0  0  0  0  0  0  0  0  0  0  0  0
    2.6577    0.9739    2.5628 H   0  0  0  0  0  0  0  0  0  0  0  0
    8.4578    1.6797    0.7998 H   0  0  0  0  0  0  0  0  0  0  0  0
    7.2488    2.1286   -1.3309 H   0  0  0  0  0  0  0  0  0  0  0  0
    7.1833    0.8836    2.7846 H   0  0  0  0  0  0  0  0  0  0  0  0
    4.8044    1.7975   -1.4638 H   0  0  0  0  0  0  0  0  0  0  0  0
    4.7552    0.5281    2.6425 H   0  0  0  0  0  0  0  0  0  0  0  0
  1  3  1  0  0  0  0
  1 14  1  0  0  0  0
  2 17  1  0  0  0  0
  2 15  1  0  0  0  0
  3 10  2  0  0  0  0
  4  2  1  0  0  0  0
  4 20  1  0  0  0  0
  5 21  1  0  0  0  0
  5  7  2  0  0  0  0
  6  5  1  0  0  0  0
  7 23  1  0  0  0  0
  8  6  2  0  0  0  0
  8 11  1  0  0  0  0
  9  7  1  0  0  0  0
  9 25  1  0  0  0  0
 10 11  1  0  0  0  0
 10  4  1  0  0  0  0
 11  9  2  0  0  0  0
 12  1  1  0  0  0  0
 13  1  1  0  0  0  0
 16  2  1  0  0  0  0
 18  3  1  0  0  0  0
 19  4  1  0  0  0  0
 22  6  1  0  0  0  0
 24  8  1  0  0  0  0
M  END
>  <HBA>
0

>  <HBD>
0

>  <TPSA>
0.0

>  <cid>
20127

>  <dipole>
0.38

>  <excitation_energy_1>
4.899

>  <excitation_energy_2>
5.007

>  <excitation_energy_3>
5.416

>  <excitation_energy_4>
5.672

>  <homo_energy>
-5.853

>  <homo_lumo_gap>
5.54

>  <logP>
3.5

>  <lumo_energy>
-0.313

>  <melting_point>
17.36

>  <molecular_refractivity>
50.95

>  <oscillator_strength_1>
0.0043

>  <oscillator_strength_2>
0.3028

>  <oscillator_strength_3>
0.0045

>  <oscillator_strength_4>
0.0419

>  <open_babel_can_smiles>
CC/C(=C\C)/c1ccccc1

>  <mulliken_charges>
25
1   -0.489885
2   -0.438561
3   -0.15933
4   -0.332348
5   -0.129242
6   -0.131894
7   -0.13159
8   -0.175853
9   -0.182785
10   0.108945
11   0.103148
12   0.157012
13   0.155708
14   0.154928
15   0.140782
16   0.146679
17   0.157081
18   0.126148
19   0.139934
20   0.143321
21   0.126864
22   0.12738
23   0.127341
24   0.128401
25   0.127818

>  <lowdin_charges>
25
1   -0.442664
2   -0.443843
3   -0.174848
4   -0.271827
5   -0.158608
6   -0.157652
7   -0.156693
8   -0.163865
9   -0.166774
10   -0.018631
11   0.00107
12   0.156358
13   0.157989
14   0.155456
15   0.149155
16   0.14992
17   0.153928
18   0.153361
19   0.146934
20   0.147743
21   0.154642
22   0.157365
23   0.156552
24   0.158366
25   0.156566

$$$$

