PCCDB-ID:  8680
public computational chemistry database (PCCDB) project, http://pccdb.org

 24 24  0  0  1  0  0  0  0  0999 V2000
    3.0867    1.4607   -0.1909 C   0  0  0  0  0  0  0  0  0  0  0  0
    2.5423   -2.4291   -0.2505 C   0  0  0  0  0  0  0  0  0  0  0  0
    2.4530    0.0991   -0.4914 C   0  0  0  0  0  0  0  0  0  0  0  0
    7.1531   -1.2676   -2.1135 C   0  0  0  0  0  0  0  0  0  0  0  0
    5.9643   -1.3349   -2.8437 C   0  0  0  0  0  0  0  0  0  0  0  0
    7.0976   -1.1434   -0.7254 C   0  0  0  0  0  0  0  0  0  0  0  0
    4.7340   -1.2806   -2.1893 C   0  0  0  0  0  0  0  0  0  0  0  0
    5.8623   -1.0878   -0.0762 C   0  0  0  0  0  0  0  0  0  0  0  0
    3.3193   -1.1106   -0.0711 C   0  0  2  0  0  0  0  0  0  0  0  0
    4.6607   -1.1553   -0.7931 C   0  0  0  0  0  0  0  0  0  0  0  0
    2.4257    2.2784   -0.5001 H   0  0  0  0  0  0  0  0  0  0  0  0
    4.0406    1.5819   -0.7149 H   0  0  0  0  0  0  0  0  0  0  0  0
    3.2800    1.5783    0.8828 H   0  0  0  0  0  0  0  0  0  0  0  0
    1.6139   -2.4155    0.3330 H   0  0  0  0  0  0  0  0  0  0  0  0
    3.1391   -3.2877    0.0758 H   0  0  0  0  0  0  0  0  0  0  0  0
    2.2729   -2.5918   -1.3009 H   0  0  0  0  0  0  0  0  0  0  0  0
    2.2263    0.0265   -1.5642 H   0  0  0  0  0  0  0  0  0  0  0  0
    1.4876    0.0239    0.0279 H   0  0  0  0  0  0  0  0  0  0  0  0
    8.1122   -1.3114   -2.6228 H   0  0  0  0  0  0  0  0  0  0  0  0
    5.9953   -1.4313   -3.9261 H   0  0  0  0  0  0  0  0  0  0  0  0
    8.0152   -1.0890   -0.1451 H   0  0  0  0  0  0  0  0  0  0  0  0
    3.8189   -1.3357   -2.7743 H   0  0  0  0  0  0  0  0  0  0  0  0
    5.8293   -0.9899    1.0069 H   0  0  0  0  0  0  0  0  0  0  0  0
    3.5343   -0.9974    1.0014 H   0  0  0  0  0  0  0  0  0  0  0  0
  1 13  1  0  0  0  0
  2  9  1  0  0  0  0
  2 15  1  0  0  0  0
  2 14  1  0  0  0  0
  3  1  1  0  0  0  0
  3  9  1  0  0  0  0
  3 18  1  0  0  0  0
  4  6  2  0  0  0  0
  5  7  2  0  0  0  0
  5  4  1  0  0  0  0
  6 21  1  0  0  0  0
  6  8  1  0  0  0  0
  7 10  1  0  0  0  0
  8 23  1  0  0  0  0
  9 24  1  1  0  0  0
 10  8  2  0  0  0  0
 10  9  1  0  0  0  0
 11  1  1  0  0  0  0
 12  1  1  0  0  0  0
 16  2  1  0  0  0  0
 17  3  1  0  0  0  0
 19  4  1  0  0  0  0
 20  5  1  0  0  0  0
 22  7  1  0  0  0  0
M  END
>  <HBA>
0

>  <HBD>
0

>  <TPSA>
0.0

>  <cid>
8680

>  <dipole>
0.23

>  <excitation_energy_1>
5.306

>  <excitation_energy_2>
5.92

>  <excitation_energy_3>
5.991

>  <excitation_energy_4>
6.206

>  <homo_energy>
-6.416

>  <homo_lumo_gap>
6.514

>  <logP>
3.2

>  <lumo_energy>
0.098

>  <melting_point>
5.16

>  <molecular_refractivity>
45.83

>  <oscillator_strength_1>
0.0012

>  <oscillator_strength_2>
0.0261

>  <oscillator_strength_3>
0.0001

>  <oscillator_strength_4>
0.0003

>  <open_babel_can_smiles>
CC[C@H](c1ccccc1)C

>  <mulliken_charges>
24
1   -0.446816
2   -0.443567
3   -0.245861
4   -0.132142
5   -0.129347
6   -0.125236
7   -0.18632
8   -0.195963
9   -0.159169
10   0.184612
11   0.140719
12   0.157327
13   0.138338
14   0.140444
15   0.149299
16   0.143088
17   0.131063
18   0.129904
19   0.126323
20   0.12668
21   0.12665
22   0.124476
23   0.121951
24   0.123545

>  <lowdin_charges>
24
1   -0.446851
2   -0.440599
3   -0.268962
4   -0.162758
5   -0.152623
6   -0.156865
7   -0.168398
8   -0.167891
9   -0.120214
10   0.000904
11   0.150224
12   0.154604
13   0.143525
14   0.147817
15   0.153599
16   0.14632
17   0.137737
18   0.140569
19   0.156164
20   0.153881
21   0.156633
22   0.154048
23   0.151202
24   0.137934

$$$$

