PCCDB-ID:  356
public computational chemistry database (PCCDB) project, http://pccdb.org

 26 25  0  0  0  0  0  0  0  0999 V2000
    3.6812    2.6735   -0.2366 C   0  0  0  0  0  0  0  0  0  0  0  0
    5.0132   -4.8404    3.4359 C   0  0  0  0  0  0  0  0  0  0  0  0
    4.0782    1.2103   -0.0141 C   0  0  0  0  0  0  0  0  0  0  0  0
    4.6324   -3.3719    3.2200 C   0  0  0  0  0  0  0  0  0  0  0  0
    4.4146    0.8982    1.4511 C   0  0  0  0  0  0  0  0  0  0  0  0
    4.2715   -3.0565    1.7612 C   0  0  0  0  0  0  0  0  0  0  0  0
    4.8825   -0.5432    1.7170 C   0  0  0  0  0  0  0  0  0  0  0  0
    3.8012   -1.6142    1.5056 C   0  0  0  0  0  0  0  0  0  0  0  0
    3.4500    2.8706   -1.2898 H   0  0  0  0  0  0  0  0  0  0  0  0
    4.4895    3.3536    0.0597 H   0  0  0  0  0  0  0  0  0  0  0  0
    2.7949    2.9379    0.3535 H   0  0  0  0  0  0  0  0  0  0  0  0
    5.2654   -5.0395    4.4839 H   0  0  0  0  0  0  0  0  0  0  0  0
    5.8821   -5.1183    2.8265 H   0  0  0  0  0  0  0  0  0  0  0  0
    4.1887   -5.5090    3.1590 H   0  0  0  0  0  0  0  0  0  0  0  0
    4.9474    0.9671   -0.6425 H   0  0  0  0  0  0  0  0  0  0  0  0
    3.2630    0.5608   -0.3587 H   0  0  0  0  0  0  0  0  0  0  0  0
    5.4628   -2.7331    3.5480 H   0  0  0  0  0  0  0  0  0  0  0  0
    3.7786   -3.1167    3.8646 H   0  0  0  0  0  0  0  0  0  0  0  0
    3.5365    1.1160    2.0779 H   0  0  0  0  0  0  0  0  0  0  0  0
    5.2012    1.5908    1.7838 H   0  0  0  0  0  0  0  0  0  0  0  0
    3.4780   -3.7471    1.4409 H   0  0  0  0  0  0  0  0  0  0  0  0
    5.1382   -3.2751    1.1191 H   0  0  0  0  0  0  0  0  0  0  0  0
    5.2549   -0.6012    2.7480 H   0  0  0  0  0  0  0  0  0  0  0  0
    5.7440   -0.7683    1.0697 H   0  0  0  0  0  0  0  0  0  0  0  0
    2.9428   -1.3933    2.1584 H   0  0  0  0  0  0  0  0  0  0  0  0
    3.4229   -1.5516    0.4769 H   0  0  0  0  0  0  0  0  0  0  0  0
  1  3  1  0  0  0  0
  1 10  1  0  0  0  0
  1 11  1  0  0  0  0
  2 12  1  0  0  0  0
  3  5  1  0  0  0  0
  4  2  1  0  0  0  0
  4 17  1  0  0  0  0
  4 18  1  0  0  0  0
  5  7  1  0  0  0  0
  5 20  1  0  0  0  0
  5 19  1  0  0  0  0
  6  4  1  0  0  0  0
  7 23  1  0  0  0  0
  8  7  1  0  0  0  0
  8  6  1  0  0  0  0
  8 25  1  0  0  0  0
  9  1  1  0  0  0  0
 13  2  1  0  0  0  0
 14  2  1  0  0  0  0
 15  3  1  0  0  0  0
 16  3  1  0  0  0  0
 21  6  1  0  0  0  0
 22  6  1  0  0  0  0
 24  7  1  0  0  0  0
 26  8  1  0  0  0  0
M  END
>  <HBA>
0

>  <HBD>
0

>  <TPSA>
0.0

>  <cid>
356

>  <dipole>
0.0

>  <excitation_energy_1>
7.738

>  <excitation_energy_2>
7.922

>  <excitation_energy_3>
7.941

>  <excitation_energy_4>
7.995

>  <homo_energy>
-8.109

>  <homo_lumo_gap>
10.653

>  <logP>
3.367

>  <lumo_energy>
2.544

>  <melting_point>
-27.89

>  <molecular_refractivity>
40.57

>  <oscillator_strength_1>
0.0

>  <oscillator_strength_2>
0.019

>  <oscillator_strength_3>
0.0

>  <oscillator_strength_4>
0.0138

>  <open_babel_can_smiles>
CCCCCCCC

>  <mulliken_charges>
26
1   -0.441267
2   -0.441288
3   -0.248503
4   -0.248406
5   -0.247525
6   -0.247497
7   -0.256159
8   -0.256339
9   0.140659
10   0.140587
11   0.141025
12   0.140641
13   0.141002
14   0.140602
15   0.128645
16   0.135404
17   0.135473
18   0.12855
19   0.125339
20   0.125556
21   0.125497
22   0.125388
23   0.131815
24   0.124501
25   0.124606
26   0.131692

>  <lowdin_charges>
26
1   -0.44431
2   -0.444424
3   -0.276315
4   -0.276364
5   -0.276871
6   -0.276879
7   -0.277175
8   -0.277191
9   0.147346
10   0.146443
11   0.146517
12   0.147411
13   0.146616
14   0.146393
15   0.138512
16   0.140841
17   0.140873
18   0.138555
19   0.137393
20   0.140353
21   0.14028
22   0.13743
23   0.140412
24   0.136915
25   0.13692
26   0.140317

$$$$

