PCCDB-ID:  14100
public computational chemistry database (PCCDB) project, http://pccdb.org

 21 21  0  0  0  0  0  0  0  0999 V2000
   -2.0351    0.2861    0.0490 C   0  0  0  0  0  0  0  0  0  0  0  0
   -1.2284    1.4077   -0.1655 C   0  0  0  0  0  0  0  0  0  0  0  0
   -1.4397   -0.9733    0.0862 C   0  0  0  0  0  0  0  0  0  0  0  0
    4.3335   -1.1348   -0.6290 C   0  0  0  0  0  0  0  0  0  0  0  0
    0.1433    1.2699   -0.3447 C   0  0  0  0  0  0  0  0  0  0  0  0
   -0.0622   -1.1247   -0.0853 C   0  0  0  0  0  0  0  0  0  0  0  0
    5.1292   -2.3321   -0.3498 C   0  0  0  0  0  0  0  0  0  0  0  0
    2.8633   -1.3015   -0.2014 C   0  0  0  0  0  0  0  0  0  0  0  0
    0.7494   -0.0005   -0.3110 C   0  0  0  0  0  0  0  0  0  0  0  0
    5.7462   -3.2889   -0.1252 N   0  0  0  0  0  0  0  0  0  0  0  0
    2.1301   -0.0964   -0.5412 N   0  0  0  0  0  0  0  0  0  0  0  0
   -3.1066    0.3952    0.1874 H   0  0  0  0  0  0  0  0  0  0  0  0
   -1.6705    2.4003   -0.1956 H   0  0  0  0  0  0  0  0  0  0  0  0
   -2.0479   -1.8575    0.2592 H   0  0  0  0  0  0  0  0  0  0  0  0
    4.3794   -0.9112   -1.7011 H   0  0  0  0  0  0  0  0  0  0  0  0
    4.7901   -0.2862   -0.1018 H   0  0  0  0  0  0  0  0  0  0  0  0
    0.7606    2.1490   -0.5199 H   0  0  0  0  0  0  0  0  0  0  0  0
    0.3713   -2.1179   -0.0378 H   0  0  0  0  0  0  0  0  0  0  0  0
    2.8145   -1.5543    0.8711 H   0  0  0  0  0  0  0  0  0  0  0  0
    2.4358   -2.1460   -0.7511 H   0  0  0  0  0  0  0  0  0  0  0  0
    2.6228    0.7537   -0.2906 H   0  0  0  0  0  0  0  0  0  0  0  0
  1  3  1  0  0  0  0
  1 12  1  0  0  0  0
  2  1  2  0  0  0  0
  3 14  1  0  0  0  0
  4  7  1  0  0  0  0
  4  8  1  0  0  0  0
  4 16  1  0  0  0  0
  5  9  2  0  0  0  0
  5  2  1  0  0  0  0
  6 18  1  0  0  0  0
  6  3  2  0  0  0  0
  7 10  3  0  0  0  0
  8 19  1  0  0  0  0
  9  6  1  0  0  0  0
 11  9  1  0  0  0  0
 11 21  1  0  0  0  0
 11  8  1  0  0  0  0
 13  2  1  0  0  0  0
 15  4  1  0  0  0  0
 17  5  1  0  0  0  0
 20  8  1  0  0  0  0
M  END
>  <HBA>
2

>  <HBD>
1

>  <TPSA>
35.82

>  <cid>
14100

>  <dipole>
3.29

>  <excitation_energy_1>
4.609

>  <excitation_energy_2>
4.788

>  <excitation_energy_3>
5.237

>  <excitation_energy_4>
5.358

>  <homo_energy>
-5.633

>  <homo_lumo_gap>
5.616

>  <logP>
2.085

>  <lumo_energy>
-0.016

>  <melting_point>
70.44

>  <molecular_refractivity>
45.11

>  <oscillator_strength_1>
0.0147

>  <oscillator_strength_2>
0.0232

>  <oscillator_strength_3>
0.126

>  <oscillator_strength_4>
0.0253

>  <open_babel_can_smiles>
N#CCCNc1ccccc1

>  <mulliken_charges>
21
1   -0.135147
2   -0.133575
3   -0.138566
4   -0.361038
5   -0.187344
6   -0.182518
7   0.35141
8   -0.109125
9   0.352514
10   -0.465238
11   -0.667702
12   0.124801
13   0.128485
14   0.129359
15   0.21134
16   0.190583
17   0.116464
18   0.127077
19   0.15834
20   0.177682
21   0.312198

>  <lowdin_charges>
21
1   -0.180775
2   -0.144964
3   -0.144574
4   -0.276879
5   -0.198301
6   -0.207329
7   -0.016649
8   -0.185653
9   0.059753
10   -0.119431
11   -0.307478
12   0.154945
13   0.157157
14   0.158436
15   0.187646
16   0.178953
17   0.152506
18   0.157892
19   0.140994
20   0.162539
21   0.271212

$$$$

