PCCDB-ID:  42477
public computational chemistry database (PCCDB) project, http://pccdb.org

 24 23  0  0  0  0  0  0  0  0999 V2000
    1.1098    0.5456    0.0529 C   0  0  0  0  0  0  0  0  0  0  0  0
    3.4108    1.5787   -0.1652 C   0  0  0  0  0  0  0  0  0  0  0  0
    7.1318   -2.0038    0.8837 C   0  0  0  0  0  0  0  0  0  0  0  0
    3.0767   -0.5354    1.2221 C   0  0  0  0  0  0  0  0  0  0  0  0
    4.4940   -1.0221    1.1361 C   0  0  0  0  0  0  0  0  0  0  0  0
    7.4755   -0.7241    2.9621 C   0  0  0  0  0  0  0  0  0  0  0  0
    2.6186    0.2722   -0.0165 C   0  0  0  0  0  0  0  0  0  0  0  0
    5.3493   -0.6836    2.0283 N   0  0  0  0  0  0  0  0  0  0  0  0
    6.6385   -1.1412    1.9444 N   0  0  0  0  0  0  0  0  0  0  0  0
    8.6495   -1.0268    3.0578 O   0  0  0  0  0  0  0  0  0  0  0  0
    0.7678    1.0955   -0.8315 H   0  0  0  0  0  0  0  0  0  0  0  0
    0.8618    1.1492    0.9354 H   0  0  0  0  0  0  0  0  0  0  0  0
    0.5346   -0.3860    0.1132 H   0  0  0  0  0  0  0  0  0  0  0  0
    3.1080    2.1207   -1.0687 H   0  0  0  0  0  0  0  0  0  0  0  0
    4.4891    1.3958   -0.2260 H   0  0  0  0  0  0  0  0  0  0  0  0
    3.2367    2.2384    0.6945 H   0  0  0  0  0  0  0  0  0  0  0  0
    8.1869   -2.1827    1.0908 H   0  0  0  0  0  0  0  0  0  0  0  0
    7.0223   -1.5200   -0.0942 H   0  0  0  0  0  0  0  0  0  0  0  0
    6.5897   -2.9571    0.8725 H   0  0  0  0  0  0  0  0  0  0  0  0
    2.9666    0.0698    2.1297 H   0  0  0  0  0  0  0  0  0  0  0  0
    2.4147   -1.4082    1.3307 H   0  0  0  0  0  0  0  0  0  0  0  0
    4.7461   -1.6674    0.2883 H   0  0  0  0  0  0  0  0  0  0  0  0
    6.9329   -0.0802    3.6730 H   0  0  0  0  0  0  0  0  0  0  0  0
    2.8083   -0.3467   -0.9075 H   0  0  0  0  0  0  0  0  0  0  0  0
  1 13  1  0  0  0  0
  1 12  1  0  0  0  0
  2  7  1  0  0  0  0
  2 16  1  0  0  0  0
  3 17  1  0  0  0  0
  3  9  1  0  0  0  0
  4 21  1  0  0  0  0
  4 20  1  0  0  0  0
  5  4  1  0  0  0  0
  5  8  2  0  0  0  0
  6 10  2  0  0  0  0
  6 23  1  0  0  0  0
  7  1  1  0  0  0  0
  7  4  1  0  0  0  0
  9  8  1  0  0  0  0
  9  6  1  0  0  0  0
 11  1  1  0  0  0  0
 14  2  1  0  0  0  0
 15  2  1  0  0  0  0
 18  3  1  0  0  0  0
 19  3  1  0  0  0  0
 22  5  1  0  0  0  0
 24  7  1  0  0  0  0
M  END
>  <HBA>
3

>  <HBD>
0

>  <TPSA>
32.67

>  <cid>
42477

>  <dipole>
4.12

>  <excitation_energy_1>
5.311

>  <excitation_energy_2>
5.653

>  <excitation_energy_3>
5.83

>  <excitation_energy_4>
5.974

>  <homo_energy>
-6.436

>  <homo_lumo_gap>
6.057

>  <logP>
1.742

>  <lumo_energy>
-0.378

>  <melting_point>
14.66

>  <molecular_refractivity>
42.93

>  <oscillator_strength_1>
0.0008

>  <oscillator_strength_2>
0.5867

>  <oscillator_strength_3>
0.0121

>  <oscillator_strength_4>
0.0014

>  <open_babel_can_smiles>
O=CN(/N=C/CC(C)C)C

>  <mulliken_charges>
24
1   -0.441949
2   -0.439328
3   -0.340248
4   -0.296403
5   0.06744
6   0.37155
7   -0.079018
8   -0.243622
9   -0.24458
10   -0.458066
11   0.145235
12   0.144331
13   0.141203
14   0.143009
15   0.147802
16   0.145446
17   0.210649
18   0.16722
19   0.167974
20   0.157541
21   0.144878
22   0.129322
23   0.137706
24   0.121908

>  <lowdin_charges>
24
1   -0.445214
2   -0.445265
3   -0.368456
4   -0.2778
5   -0.119311
6   0.046107
7   -0.11932
8   -0.095069
9   -0.030313
10   -0.27788
11   0.15166
12   0.149021
13   0.148256
14   0.150338
15   0.149536
16   0.149974
17   0.189692
18   0.157084
19   0.157469
20   0.159162
21   0.15392
22   0.138737
23   0.142965
24   0.134706

$$$$

