PCCDB-ID:  37893
public computational chemistry database (PCCDB) project, http://pccdb.org

 32 35  0  0  0  0  0  0  0  0999 V2000
    1.0348    0.1542   -0.0550 C   0  0  0  0  0  0  0  0  0  0  0  0
    2.5248   -2.4515   -0.0536 C   0  0  0  0  0  0  0  0  0  0  0  0
    9.2109   -0.0315   -0.0507 C   0  0  0  0  0  0  0  0  0  0  0  0
    6.8572   -4.2784   -0.0510 C   0  0  0  0  0  0  0  0  0  0  0  0
    9.3236   -1.4113   -0.0491 C   0  0  0  0  0  0  0  0  0  0  0  0
    8.0874   -3.6468   -0.0494 C   0  0  0  0  0  0  0  0  0  0  0  0
    7.9510    0.6290   -0.0520 C   0  0  0  0  0  0  0  0  0  0  0  0
    5.6265   -3.5622   -0.0523 C   0  0  0  0  0  0  0  0  0  0  0  0
    3.2628    1.3126   -0.0538 C   0  0  0  0  0  0  0  0  0  0  0  0
    4.6594    1.3505   -0.0529 C   0  0  0  0  0  0  0  0  0  0  0  0
    2.5483    0.1067   -0.0541 C   0  0  0  0  0  0  0  0  0  0  0  0
    3.2487   -1.1245   -0.0538 C   0  0  0  0  0  0  0  0  0  0  0  0
    8.1542   -2.2242   -0.0493 C   0  0  0  0  0  0  0  0  0  0  0  0
    6.8007   -0.1344   -0.0509 C   0  0  0  0  0  0  0  0  0  0  0  0
    5.3559    0.1502   -0.0531 C   0  0  0  0  0  0  0  0  0  0  0  0
    5.6528   -2.1788   -0.0512 C   0  0  0  0  0  0  0  0  0  0  0  0
    4.6486   -1.0889   -0.0532 C   0  0  0  0  0  0  0  0  0  0  0  0
    6.9254   -1.5456   -0.0496 C   0  0  0  0  0  0  0  0  0  0  0  0
    0.6806    1.1897   -0.0559 H   0  0  0  0  0  0  0  0  0  0  0  0
    0.6053   -0.3372    0.8272 H   0  0  0  0  0  0  0  0  0  0  0  0
    0.6063   -0.3385   -0.9369 H   0  0  0  0  0  0  0  0  0  0  0  0
    1.4398   -2.3356   -0.0557 H   0  0  0  0  0  0  0  0  0  0  0  0
    2.7918   -3.0463    0.8292 H   0  0  0  0  0  0  0  0  0  0  0  0
    2.7948   -3.0481   -0.9343 H   0  0  0  0  0  0  0  0  0  0  0  0
   10.1139    0.5734   -0.0507 H   0  0  0  0  0  0  0  0  0  0  0  0
    6.8204   -5.3647   -0.0511 H   0  0  0  0  0  0  0  0  0  0  0  0
   10.3059   -1.8775   -0.0482 H   0  0  0  0  0  0  0  0  0  0  0  0
    9.0029   -4.2336   -0.0484 H   0  0  0  0  0  0  0  0  0  0  0  0
    7.9171    1.7156   -0.0534 H   0  0  0  0  0  0  0  0  0  0  0  0
    4.6980   -4.1226   -0.0537 H   0  0  0  0  0  0  0  0  0  0  0  0
    2.7074    2.2474   -0.0540 H   0  0  0  0  0  0  0  0  0  0  0  0
    5.1814    2.3040   -0.0528 H   0  0  0  0  0  0  0  0  0  0  0  0
  1 11  1  0  0  0  0
  1 20  1  0  0  0  0
  2 23  1  0  0  0  0
  3  5  2  0  0  0  0
  4  6  2  0  0  0  0
  5 27  1  0  0  0  0
  6 13  1  0  0  0  0
  6 28  1  0  0  0  0
  7 14  2  0  0  0  0
  7  3  1  0  0  0  0
  8 16  2  0  0  0  0
  8  4  1  0  0  0  0
  9 10  1  0  0  0  0
 10 32  1  0  0  0  0
 11 12  1  0  0  0  0
 11  9  2  0  0  0  0
 12  2  1  0  0  0  0
 12 17  2  0  0  0  0
 13  5  1  0  0  0  0
 14 18  1  0  0  0  0
 15 10  2  0  0  0  0
 15 14  1  0  0  0  0
 16 18  1  0  0  0  0
 17 15  1  0  0  0  0
 17 16  1  0  0  0  0
 18 13  2  0  0  0  0
 19  1  1  0  0  0  0
 21  1  1  0  0  0  0
 22  2  1  0  0  0  0
 24  2  1  0  0  0  0
 25  3  1  0  0  0  0
 26  4  1  0  0  0  0
 29  7  1  0  0  0  0
 30  8  1  0  0  0  0
 31  9  1  0  0  0  0
M  END
>  <HBA>
0

>  <HBD>
0

>  <TPSA>
0.0

>  <cid>
37893

>  <dipole>
0.49

>  <excitation_energy_1>
3.281

>  <excitation_energy_2>
3.513

>  <excitation_energy_3>
4.163

>  <excitation_energy_4>
4.494

>  <homo_energy>
-5.619

>  <homo_lumo_gap>
3.962

>  <logP>
5.104

>  <lumo_energy>
-1.657

>  <melting_point>
131.57

>  <molecular_refractivity>
78.31

>  <oscillator_strength_1>
0.0108

>  <oscillator_strength_2>
0.1861

>  <oscillator_strength_3>
0.0287

>  <oscillator_strength_4>
0.0726

>  <open_babel_can_smiles>
Cc1c(C)ccc2c1c1cccc3c1c2ccc3

>  <mulliken_charges>
32
1   -0.541776
2   -0.543429
3   -0.131482
4   -0.129246
5   -0.206802
6   -0.208191
7   -0.219927
8   -0.233129
9   -0.194205
10   -0.201281
11   0.123476
12   0.081464
13   0.19748
14   0.110857
15   0.073413
16   0.11835
17   -0.007953
18   -0.081983
19   0.154875
20   0.160971
21   0.160973
22   0.156105
23   0.166022
24   0.166011
25   0.129316
26   0.12866
27   0.129755
28   0.130327
29   0.132204
30   0.133649
31   0.118722
32   0.126775

>  <lowdin_charges>
32
1   -0.444692
2   -0.44598
3   -0.156729
4   -0.155321
5   -0.154894
6   -0.153943
7   -0.149162
8   -0.158832
9   -0.168192
10   -0.161535
11   -0.009002
12   -0.007372
13   -0.000741
14   -0.0045
15   -0.009364
16   -0.003126
17   -0.017701
18   -0.017049
19   0.156011
20   0.158921
21   0.158917
22   0.158354
23   0.162192
24   0.162177
25   0.15918
26   0.156269
27   0.158129
28   0.158874
29   0.156885
30   0.161272
31   0.153837
32   0.157114

$$$$

