PCCDB-ID:  70980
public computational chemistry database (PCCDB) project, http://pccdb.org

 22 22  0  0  0  0  0  0  0  0999 V2000
    1.0090    0.2063   -0.8596 C   0  0  0  0  0  0  0  0  0  0  0  0
    4.9080    3.5061   -0.0625 C   0  0  0  0  0  0  0  0  0  0  0  0
    4.0442    3.3081   -1.1405 C   0  0  0  0  0  0  0  0  0  0  0  0
    4.9298    2.5778    0.9804 C   0  0  0  0  0  0  0  0  0  0  0  0
    3.2113    2.1911   -1.1777 C   0  0  0  0  0  0  0  0  0  0  0  0
    4.1042    1.4566    0.9382 C   0  0  0  0  0  0  0  0  0  0  0  0
    2.8009   -1.1381    0.3082 C   0  0  0  0  0  0  0  0  0  0  0  0
    2.3574    0.0354   -0.2045 C   0  0  0  0  0  0  0  0  0  0  0  0
    3.2370    1.2341   -0.1473 C   0  0  0  0  0  0  0  0  0  0  0  0
    2.0550   -2.4182    0.3706 C   0  0  0  0  0  0  0  0  0  0  0  0
    0.9405   -2.6379   -0.0528 O   0  0  0  0  0  0  0  0  0  0  0  0
    2.7337   -3.4387    0.9779 O   0  0  0  0  0  0  0  0  0  0  0  0
    0.3525   -0.6319   -0.6350 H   0  0  0  0  0  0  0  0  0  0  0  0
    1.1219    0.2540   -1.9514 H   0  0  0  0  0  0  0  0  0  0  0  0
    0.5476    1.1479   -0.5431 H   0  0  0  0  0  0  0  0  0  0  0  0
    5.5515    4.3810   -0.0297 H   0  0  0  0  0  0  0  0  0  0  0  0
    4.0163    4.0253   -1.9563 H   0  0  0  0  0  0  0  0  0  0  0  0
    5.5826    2.7327    1.8351 H   0  0  0  0  0  0  0  0  0  0  0  0
    2.5488    2.0525   -2.0262 H   0  0  0  0  0  0  0  0  0  0  0  0
    4.1038    0.7618    1.7727 H   0  0  0  0  0  0  0  0  0  0  0  0
    3.8132   -1.1592    0.7073 H   0  0  0  0  0  0  0  0  0  0  0  0
    3.6093   -3.1371    1.2680 H   0  0  0  0  0  0  0  0  0  0  0  0
  1 13  1  0  0  0  0
  1 15  1  0  0  0  0
  1  8  1  0  0  0  0
  2 16  1  0  0  0  0
  2  4  2  0  0  0  0
  3  2  1  0  0  0  0
  4 18  1  0  0  0  0
  5  3  2  0  0  0  0
  5  9  1  0  0  0  0
  6  4  1  0  0  0  0
  6 20  1  0  0  0  0
  7 10  1  0  0  0  0
  7 21  1  0  0  0  0
  8  9  1  0  0  0  0
  8  7  2  0  0  0  0
  9  6  2  0  0  0  0
 10 12  1  0  0  0  0
 11 10  2  0  0  0  0
 12 22  1  0  0  0  0
 14  1  1  0  0  0  0
 17  3  1  0  0  0  0
 19  5  1  0  0  0  0
M  END
>  <HBA>
2

>  <HBD>
1

>  <TPSA>
37.3

>  <cid>
70980

>  <dipole>
4.98

>  <excitation_energy_1>
4.285

>  <excitation_energy_2>
4.508

>  <excitation_energy_3>
4.626

>  <excitation_energy_4>
5.496

>  <homo_energy>
-6.626

>  <homo_lumo_gap>
4.92

>  <logP>
2.175

>  <lumo_energy>
-1.706

>  <melting_point>
95.18

>  <molecular_refractivity>
47.92

>  <oscillator_strength_1>
0.0014

>  <oscillator_strength_2>
0.4596

>  <oscillator_strength_3>
0.0128

>  <oscillator_strength_4>
0.0245

>  <open_babel_can_smiles>
C/C(=C\C(=O)O)/c1ccccc1

>  <mulliken_charges>
22
1   -0.542748
2   -0.123807
3   -0.130813
4   -0.132274
5   -0.17368
6   -0.171589
7   -0.300457
8   0.148562
9   0.095216
10   0.613945
11   -0.463486
12   -0.581669
13   0.220652
14   0.169364
15   0.162256
16   0.137224
17   0.137775
18   0.136657
19   0.137064
20   0.133859
21   0.120745
22   0.407204

>  <lowdin_charges>
22
1   -0.454906
2   -0.1485
3   -0.15283
4   -0.153642
5   -0.1545
6   -0.156758
7   -0.251081
8   0.062237
9   -0.009325
10   0.194342
11   -0.252826
12   -0.361697
13   0.193671
14   0.166827
15   0.162849
16   0.16175
17   0.162207
18   0.161591
19   0.163447
20   0.160708
21   0.152489
22   0.353947

$$$$

