PCCDB-ID:  40089
public computational chemistry database (PCCDB) project, http://pccdb.org

 32 33  0  0  1  0  0  0  0  0999 V2000
    3.5078   -0.5426    1.2855 C   0  0  0  0  0  0  0  0  0  0  0  0
    2.0328    2.1541    0.9734 C   0  0  0  0  0  0  0  0  0  0  0  0
    4.1285   -5.0947   -2.4853 C   0  0  0  0  0  0  0  0  0  0  0  0
    3.6913    1.4076   -2.2952 C   0  0  0  0  0  0  0  0  0  0  0  0
    2.6510    1.9902   -1.3434 C   0  0  0  0  0  0  0  0  0  0  0  0
    3.9273   -0.8395   -3.4435 C   0  0  0  0  0  0  0  0  0  0  0  0
    2.9017   -2.1485   -1.2434 C   0  0  0  0  0  0  0  0  0  0  0  0
    2.6780   -0.0174    0.0960 C   0  0  2  0  0  0  0  0  0  0  0  0
    3.5795   -0.0976   -2.3074 C   0  0  0  0  0  0  0  0  0  0  0  0
    3.0650   -0.7565   -1.1843 C   0  0  0  0  0  0  0  0  0  0  0  0
    3.7680   -2.2216   -3.4921 C   0  0  0  0  0  0  0  0  0  0  0  0
    3.2440   -2.8905   -2.3685 C   0  0  0  0  0  0  0  0  0  0  0  0
    2.8498    1.4465   -0.0028 N   0  0  0  0  0  0  0  0  0  0  0  0
    4.0743   -2.9673   -4.6013 O   0  0  0  0  0  0  0  0  0  0  0  0
    2.9875   -4.2410   -2.3733 O   0  0  0  0  0  0  0  0  0  0  0  0
    3.3713   -1.6203    1.4173 H   0  0  0  0  0  0  0  0  0  0  0  0
    3.2175   -0.0581    2.2232 H   0  0  0  0  0  0  0  0  0  0  0  0
    4.5694   -0.3431    1.1101 H   0  0  0  0  0  0  0  0  0  0  0  0
    2.2629    3.2243    0.9347 H   0  0  0  0  0  0  0  0  0  0  0  0
    2.2511    1.8054    1.9863 H   0  0  0  0  0  0  0  0  0  0  0  0
    0.9450    2.0305    0.8000 H   0  0  0  0  0  0  0  0  0  0  0  0
    3.7503   -6.1154   -2.3909 H   0  0  0  0  0  0  0  0  0  0  0  0
    4.8443   -4.8978   -1.6756 H   0  0  0  0  0  0  0  0  0  0  0  0
    4.6275   -4.9762   -3.4518 H   0  0  0  0  0  0  0  0  0  0  0  0
    4.6884    1.7234   -1.9589 H   0  0  0  0  0  0  0  0  0  0  0  0
    3.5476    1.8093   -3.3061 H   0  0  0  0  0  0  0  0  0  0  0  0
    1.6324    1.7925   -1.7349 H   0  0  0  0  0  0  0  0  0  0  0  0
    2.7651    3.0787   -1.2819 H   0  0  0  0  0  0  0  0  0  0  0  0
    4.3111   -0.3196   -4.3216 H   0  0  0  0  0  0  0  0  0  0  0  0
    2.4827   -2.6963   -0.4040 H   0  0  0  0  0  0  0  0  0  0  0  0
    1.6117   -0.2517    0.2931 H   0  0  0  0  0  0  0  0  0  0  0  0
    4.4135   -2.3716   -5.2874 H   0  0  0  0  0  0  0  0  0  0  0  0
  1 16  1  0  0  0  0
  1 17  1  0  0  0  0
  2 20  1  0  0  0  0
  3 22  1  0  0  0  0
  3 15  1  0  0  0  0
  3 23  1  0  0  0  0
  4 25  1  0  0  0  0
  4  5  1  0  0  0  0
  5 28  1  0  0  0  0
  5 13  1  0  0  0  0
  6  9  1  0  0  0  0
  7 10  1  0  0  0  0
  7 30  1  0  0  0  0
  8 31  1  1  0  0  0
  8  1  1  0  0  0  0
  9  4  1  0  0  0  0
  9 10  2  0  0  0  0
 10  8  1  0  0  0  0
 11  6  2  0  0  0  0
 11 12  1  0  0  0  0
 12  7  2  0  0  0  0
 13  8  1  0  0  0  0
 13  2  1  0  0  0  0
 14 11  1  0  0  0  0
 15 12  1  0  0  0  0
 18  1  1  0  0  0  0
 19  2  1  0  0  0  0
 21  2  1  0  0  0  0
 24  3  1  0  0  0  0
 26  4  1  0  0  0  0
 27  5  1  0  0  0  0
 29  6  1  0  0  0  0
 32 14  1  0  0  0  0
M  END
>  <HBA>
3

>  <HBD>
1

>  <TPSA>
32.7

>  <cid>
40089

>  <dipole>
1.88

>  <excitation_energy_1>
4.716

>  <excitation_energy_2>
4.884

>  <excitation_energy_3>
4.89

>  <excitation_energy_4>
5.082

>  <homo_energy>
-5.524

>  <homo_lumo_gap>
5.646

>  <logP>
1.888

>  <lumo_energy>
0.122

>  <melting_point>
82.3

>  <molecular_refractivity>
64.01

>  <oscillator_strength_1>
0.0286

>  <oscillator_strength_2>
0.0024

>  <oscillator_strength_3>
0.0305

>  <oscillator_strength_4>
0.0378

>  <open_babel_can_smiles>
COc1cc2c(cc1O)CCN([C@@H]2C)C

>  <mulliken_charges>
32
1   -0.43715
2   -0.29696
3   -0.213184
4   -0.339975
5   -0.124871
6   -0.279413
7   -0.247203
8   0.006547
9   0.125295
10   0.094289
11   0.326132
12   0.332804
13   -0.406169
14   -0.647628
15   -0.523526
16   0.142934
17   0.140955
18   0.155242
19   0.147757
20   0.151383
21   0.119181
22   0.156587
23   0.137008
24   0.168061
25   0.158384
26   0.136611
27   0.115384
28   0.133536
29   0.110469
30   0.131829
31   0.117061
32   0.408632

>  <lowdin_charges>
32
1   -0.441053
2   -0.351425
3   -0.276572
4   -0.27599
5   -0.193063
6   -0.219531
7   -0.175033
8   -0.049266
9   -0.011314
10   -0.030441
11   0.076391
12   0.066054
13   -0.189077
14   -0.379074
15   -0.224936
16   0.148089
17   0.147505
18   0.154513
19   0.147685
20   0.149459
21   0.118608
22   0.153923
23   0.138441
24   0.151921
25   0.156493
26   0.14821
27   0.117778
28   0.14242
29   0.150318
30   0.165215
31   0.123878
32   0.35987

$$$$

