PCCDB-ID:  23533
public computational chemistry database (PCCDB) project, http://pccdb.org

 25 28  0  0  0  0  0  0  0  0999 V2000
    3.7113   -0.7294    0.0009 C   0  0  0  0  0  0  0  0  0  0  0  0
    3.7187    0.6687    0.0012 C   0  0  0  0  0  0  0  0  0  0  0  0
   -2.1899   -2.4012   -0.0013 C   0  0  0  0  0  0  0  0  0  0  0  0
   -2.9431   -1.2391   -0.0004 C   0  0  0  0  0  0  0  0  0  0  0  0
    2.5043   -1.4387   -0.0011 C   0  0  0  0  0  0  0  0  0  0  0  0
    2.5195    1.3917   -0.0009 C   0  0  0  0  0  0  0  0  0  0  0  0
   -0.7639   -2.3948    0.0006 C   0  0  0  0  0  0  0  0  0  0  0  0
   -2.8449    1.3335   -0.0011 C   0  0  0  0  0  0  0  0  0  0  0  0
   -0.7580    2.3667    0.0002 C   0  0  0  0  0  0  0  0  0  0  0  0
   -2.2826    0.0215    0.0015 C   0  0  0  0  0  0  0  0  0  0  0  0
    1.3060   -0.7316    0.0014 C   0  0  0  0  0  0  0  0  0  0  0  0
    1.3139    0.6976    0.0011 C   0  0  0  0  0  0  0  0  0  0  0  0
   -0.0995   -1.1845    0.0025 C   0  0  0  0  0  0  0  0  0  0  0  0
   -0.0882    1.1605    0.0022 C   0  0  0  0  0  0  0  0  0  0  0  0
   -0.8858   -0.0066    0.0032 C   0  0  0  0  0  0  0  0  0  0  0  0
   -2.1232    2.4418   -0.0013 N   0  0  0  0  0  0  0  0  0  0  0  0
    4.6523   -1.2724    0.0027 H   0  0  0  0  0  0  0  0  0  0  0  0
    4.6656    1.2014    0.0037 H   0  0  0  0  0  0  0  0  0  0  0  0
   -2.6979   -3.3618   -0.0050 H   0  0  0  0  0  0  0  0  0  0  0  0
   -4.0290   -1.2881   -0.0011 H   0  0  0  0  0  0  0  0  0  0  0  0
    2.5097   -2.5259   -0.0060 H   0  0  0  0  0  0  0  0  0  0  0  0
    2.5363    2.4784   -0.0058 H   0  0  0  0  0  0  0  0  0  0  0  0
   -0.2319   -3.3428    0.0008 H   0  0  0  0  0  0  0  0  0  0  0  0
   -3.9280    1.4619   -0.0040 H   0  0  0  0  0  0  0  0  0  0  0  0
   -0.2444    3.3259   -0.0010 H   0  0  0  0  0  0  0  0  0  0  0  0
  1  2  1  0  0  0  0
  1 17  1  0  0  0  0
  2 18  1  0  0  0  0
  3  4  2  0  0  0  0
  3  7  1  0  0  0  0
  4 10  1  0  0  0  0
  5  1  2  0  0  0  0
  5 11  1  0  0  0  0
  6 12  1  0  0  0  0
  6  2  2  0  0  0  0
  7 23  1  0  0  0  0
  7 13  2  0  0  0  0
  8 10  1  0  0  0  0
  9 14  2  0  0  0  0
 10 15  2  0  0  0  0
 11 13  1  0  0  0  0
 12 11  2  0  0  0  0
 12 14  1  0  0  0  0
 13 15  1  0  0  0  0
 14 15  1  0  0  0  0
 16  8  2  0  0  0  0
 16  9  1  0  0  0  0
 19  3  1  0  0  0  0
 20  4  1  0  0  0  0
 21  5  1  0  0  0  0
 22  6  1  0  0  0  0
 24  8  1  0  0  0  0
 25  9  1  0  0  0  0
M  END
>  <HBA>
1

>  <HBD>
0

>  <TPSA>
12.89

>  <cid>
23533

>  <dipole>
2.46

>  <excitation_energy_1>
3.358

>  <excitation_energy_2>
3.589

>  <excitation_energy_3>
3.799

>  <excitation_energy_4>
4.237

>  <homo_energy>
-6.076

>  <homo_lumo_gap>
4.025

>  <logP>
3.882

>  <lumo_energy>
-2.052

>  <melting_point>
137.39

>  <molecular_refractivity>
66.17

>  <oscillator_strength_1>
0.0169

>  <oscillator_strength_2>
0.1708

>  <oscillator_strength_3>
0.0003

>  <oscillator_strength_4>
0.0139

>  <open_babel_can_smiles>
c1ccc2c(c1)c1cncc3c1c2ccc3

>  <mulliken_charges>
25
1   -0.134924
2   -0.136091
3   -0.129075
4   -0.206995
5   -0.195608
6   -0.193937
7   -0.221658
8   -0.008587
9   -0.042195
10   0.163101
11   0.060091
12   0.059647
13   0.135733
14   0.091192
15   -0.051402
16   -0.429163
17   0.131544
18   0.132227
19   0.136763
20   0.140653
21   0.132259
22   0.136095
23   0.1404
24   0.144474
25   0.145456

>  <lowdin_charges>
25
1   -0.155577
2   -0.154858
3   -0.153591
4   -0.141794
5   -0.152508
6   -0.151419
7   -0.140973
8   -0.074329
9   -0.088884
10   -0.024857
11   -0.009333
12   -0.006818
13   -0.003618
14   -0.021096
15   -0.004226
16   -0.152379
17   0.159697
18   0.15997
19   0.162217
20   0.161653
21   0.157068
22   0.159101
23   0.162631
24   0.154823
25   0.159101

$$$$

