PCCDB-ID:  19240
public computational chemistry database (PCCDB) project, http://pccdb.org

 21 20  0  0  0  0  0  0  0  0999 V2000
    2.5066   -0.6200   -1.4245 C   0  0  0  0  0  0  0  0  0  0  0  0
    8.4919    1.8373   -0.3244 C   0  0  0  0  0  0  0  0  0  0  0  0
    7.1401    0.8848    1.4130 C   0  0  0  0  0  0  0  0  0  0  0  0
    2.7613    0.6645   -1.6929 C   0  0  0  0  0  0  0  0  0  0  0  0
    6.1000    1.6891   -0.6301 C   0  0  0  0  0  0  0  0  0  0  0  0
    4.9613    0.6850   -0.7947 C   0  0  0  0  0  0  0  0  0  0  0  0
    7.2827    1.0799   -0.0256 N   0  0  0  0  0  0  0  0  0  0  0  0
    3.8908    1.3731   -1.4379 O   0  0  0  0  0  0  0  0  0  0  0  0
    1.5414   -1.0316   -1.6963 H   0  0  0  0  0  0  0  0  0  0  0  0
    3.2156   -1.2864   -0.9474 H   0  0  0  0  0  0  0  0  0  0  0  0
    9.3611    1.3163    0.0918 H   0  0  0  0  0  0  0  0  0  0  0  0
    8.4812    2.8642    0.0917 H   0  0  0  0  0  0  0  0  0  0  0  0
    8.6270    1.9102   -1.4086 H   0  0  0  0  0  0  0  0  0  0  0  0
    8.0232    0.3653    1.8002 H   0  0  0  0  0  0  0  0  0  0  0  0
    6.2674    0.2634    1.6336 H   0  0  0  0  0  0  0  0  0  0  0  0
    7.0302    1.8372    1.9691 H   0  0  0  0  0  0  0  0  0  0  0  0
    2.0308    1.3071   -2.1775 H   0  0  0  0  0  0  0  0  0  0  0  0
    5.7357    2.5660   -0.0608 H   0  0  0  0  0  0  0  0  0  0  0  0
    6.3676    2.0497   -1.6291 H   0  0  0  0  0  0  0  0  0  0  0  0
    4.6135    0.2909    0.1697 H   0  0  0  0  0  0  0  0  0  0  0  0
    5.2935   -0.1633   -1.4074 H   0  0  0  0  0  0  0  0  0  0  0  0
  1 10  1  0  0  0  0
  2  7  1  0  0  0  0
  2 12  1  0  0  0  0
  2 11  1  0  0  0  0
  3 15  1  0  0  0  0
  3 14  1  0  0  0  0
  3 16  1  0  0  0  0
  4  8  1  0  0  0  0
  4  1  2  0  0  0  0
  5 18  1  0  0  0  0
  5  7  1  0  0  0  0
  6  5  1  0  0  0  0
  6 20  1  0  0  0  0
  7  3  1  0  0  0  0
  8  6  1  0  0  0  0
  9  1  1  0  0  0  0
 13  2  1  0  0  0  0
 17  4  1  0  0  0  0
 19  5  1  0  0  0  0
 21  6  1  0  0  0  0
M  END
>  <HBA>
2

>  <HBD>
0

>  <TPSA>
12.47

>  <cid>
19240

>  <dipole>
1.04

>  <excitation_energy_1>
5.47

>  <excitation_energy_2>
5.829

>  <excitation_energy_3>
5.894

>  <excitation_energy_4>
6.068

>  <homo_energy>
-5.856

>  <homo_lumo_gap>
7.102

>  <logP>
0.708

>  <lumo_energy>
1.246

>  <melting_point>
-53.47

>  <molecular_refractivity>
34.46

>  <oscillator_strength_1>
0.0223

>  <oscillator_strength_2>
0.0257

>  <oscillator_strength_3>
0.033

>  <oscillator_strength_4>
0.0081

>  <open_babel_can_smiles>
C=COCCN(C)C

>  <mulliken_charges>
21
1   -0.401652
2   -0.294973
3   -0.303237
4   0.158886
5   -0.137468
6   -0.031674
7   -0.373357
8   -0.455129
9   0.140357
10   0.142404
11   0.149124
12   0.120333
13   0.151897
14   0.151743
15   0.151575
16   0.12119
17   0.140471
18   0.126527
19   0.151086
20   0.140315
21   0.151581

>  <lowdin_charges>
21
1   -0.431183
2   -0.352479
3   -0.359871
4   -0.037466
5   -0.205567
6   -0.132412
7   -0.184325
8   -0.19777
9   0.167795
10   0.16318
11   0.150835
12   0.120582
13   0.149072
14   0.152585
15   0.149997
16   0.122216
17   0.159166
18   0.127283
19   0.15291
20   0.138846
21   0.146607

$$$$

