PCCDB-ID:  19475
public computational chemistry database (PCCDB) project, http://pccdb.org

 19 19  0  0  0  0  0  0  0  0999 V2000
    0.8504   -0.0272    0.1079 C   0  0  0  0  0  0  0  0  0  0  0  0
    3.0410   -1.2770   -0.1473 C   0  0  0  0  0  0  0  0  0  0  0  0
    3.1160    1.1135    0.0886 C   0  0  0  0  0  0  0  0  0  0  0  0
    4.4301   -1.3084   -0.2553 C   0  0  0  0  0  0  0  0  0  0  0  0
    4.5007    1.0914   -0.0177 C   0  0  0  0  0  0  0  0  0  0  0  0
    6.6409   -0.2010   -0.3056 C   0  0  0  0  0  0  0  0  0  0  0  0
    2.3577   -0.0673    0.0225 C   0  0  0  0  0  0  0  0  0  0  0  0
    5.1823   -0.1264   -0.1927 C   0  0  0  0  0  0  0  0  0  0  0  0
    7.3767    0.8477   -0.2557 N   0  0  0  0  0  0  0  0  0  0  0  0
    8.7329    0.5110   -0.3867 O   0  0  0  0  0  0  0  0  0  0  0  0
    0.4449   -0.9697    0.4905 H   0  0  0  0  0  0  0  0  0  0  0  0
    0.4009    0.1434   -0.8798 H   0  0  0  0  0  0  0  0  0  0  0  0
    0.5069    0.7812    0.7624 H   0  0  0  0  0  0  0  0  0  0  0  0
    2.4795   -2.2073   -0.1957 H   0  0  0  0  0  0  0  0  0  0  0  0
    2.6071    2.0650    0.2265 H   0  0  0  0  0  0  0  0  0  0  0  0
    4.9393   -2.2607   -0.3852 H   0  0  0  0  0  0  0  0  0  0  0  0
    5.0726    2.0121    0.0374 H   0  0  0  0  0  0  0  0  0  0  0  0
    7.0989   -1.1853   -0.4363 H   0  0  0  0  0  0  0  0  0  0  0  0
    9.1675    1.3766   -0.3342 H   0  0  0  0  0  0  0  0  0  0  0  0
  1 11  1  0  0  0  0
  1 13  1  0  0  0  0
  2  7  2  0  0  0  0
  3 15  1  0  0  0  0
  4  8  2  0  0  0  0
  4  2  1  0  0  0  0
  5 17  1  0  0  0  0
  5  3  2  0  0  0  0
  6  9  2  0  0  0  0
  6  8  1  0  0  0  0
  7  3  1  0  0  0  0
  7  1  1  0  0  0  0
  8  5  1  0  0  0  0
 10 19  1  0  0  0  0
 10  9  1  0  0  0  0
 12  1  1  0  0  0  0
 14  2  1  0  0  0  0
 16  4  1  0  0  0  0
 18  6  1  0  0  0  0
M  END
>  <HBA>
2

>  <HBD>
1

>  <TPSA>
32.59

>  <cid>
19475

>  <dipole>
1.07

>  <excitation_energy_1>
4.631

>  <excitation_energy_2>
4.751

>  <excitation_energy_3>
5.282

>  <excitation_energy_4>
5.629

>  <homo_energy>
-5.948

>  <homo_lumo_gap>
4.928

>  <logP>
1.803

>  <lumo_energy>
-1.02

>  <melting_point>
83.76

>  <molecular_refractivity>
40.79

>  <oscillator_strength_1>
0.341

>  <oscillator_strength_2>
0.1263

>  <oscillator_strength_3>
0.0009

>  <oscillator_strength_4>
0.2146

>  <open_babel_can_smiles>
O/N=C/c1ccc(cc1)C

>  <mulliken_charges>
19
1   -0.530494
2   -0.185723
3   -0.17919
4   -0.187719
5   -0.167741
6   0.050305
7   0.180943
8   0.143478
9   -0.199805
10   -0.498866
11   0.158084
12   0.168145
13   0.159475
14   0.124961
15   0.125581
16   0.130438
17   0.151112
18   0.140055
19   0.416961

>  <lowdin_charges>
19
1   -0.443102
2   -0.167567
3   -0.16379
4   -0.155415
5   -0.143263
6   -0.111065
7   0.007498
8   -0.016892
9   -0.060627
10   -0.373791
11   0.158944
12   0.163184
13   0.160427
14   0.156313
15   0.15624
16   0.157923
17   0.170052
18   0.149704
19   0.355226

$$$$

