PCCDB-ID:  7491
public computational chemistry database (PCCDB) project, http://pccdb.org

 22 22  0  0  0  0  0  0  0  0999 V2000
    1.5721   -0.5323   -0.8920 C   0  0  0  0  0  0  0  0  0  0  0  0
    2.7777    1.4801    0.0139 C   0  0  0  0  0  0  0  0  0  0  0  0
    2.9693   -2.1572    0.9748 C   0  0  0  0  0  0  0  0  0  0  0  0
    4.1145   -0.2095    1.8687 C   0  0  0  0  0  0  0  0  0  0  0  0
    3.6397   -2.9630    1.8791 C   0  0  0  0  0  0  0  0  0  0  0  0
    4.7826   -1.0197    2.7709 C   0  0  0  0  0  0  0  0  0  0  0  0
    3.1849   -0.7537    0.9431 C   0  0  0  0  0  0  0  0  0  0  0  0
    4.5452   -2.3958    2.7780 C   0  0  0  0  0  0  0  0  0  0  0  0
    2.5169    0.0490    0.0496 N   0  0  0  0  0  0  0  0  0  0  0  0
    5.2486   -3.2441    3.7250 N   0  0  0  0  0  0  0  0  0  0  0  0
    5.0090   -4.4559    3.7063 O   0  0  0  0  0  0  0  0  0  0  0  0
    6.0490   -2.7090    4.4990 O   0  0  0  0  0  0  0  0  0  0  0  0
    1.1289    0.2637   -1.4917 H   0  0  0  0  0  0  0  0  0  0  0  0
    0.7589   -1.0584   -0.3748 H   0  0  0  0  0  0  0  0  0  0  0  0
    2.0588   -1.2423   -1.5750 H   0  0  0  0  0  0  0  0  0  0  0  0
    2.1628    1.9364   -0.7629 H   0  0  0  0  0  0  0  0  0  0  0  0
    3.8299    1.6971   -0.2156 H   0  0  0  0  0  0  0  0  0  0  0  0
    2.5297    1.9617    0.9693 H   0  0  0  0  0  0  0  0  0  0  0  0
    2.2746   -2.6196    0.2849 H   0  0  0  0  0  0  0  0  0  0  0  0
    4.3142    0.8546    1.8824 H   0  0  0  0  0  0  0  0  0  0  0  0
    3.4727   -4.0331    1.9007 H   0  0  0  0  0  0  0  0  0  0  0  0
    5.4916   -0.6015    3.4750 H   0  0  0  0  0  0  0  0  0  0  0  0
  1 14  1  0  0  0  0
  1  9  1  0  0  0  0
  2  9  1  0  0  0  0
  2 18  1  0  0  0  0
  3  5  1  0  0  0  0
  4 20  1  0  0  0  0
  4  6  2  0  0  0  0
  5 21  1  0  0  0  0
  5  8  2  0  0  0  0
  6  8  1  0  0  0  0
  6 22  1  0  0  0  0
  7  3  2  0  0  0  0
  7  4  1  0  0  0  0
  8 10  1  0  0  0  0
  9  7  1  0  0  0  0
 10 12  2  0  0  0  0
 11 10  2  0  0  0  0
 13  1  1  0  0  0  0
 15  1  1  0  0  0  0
 16  2  1  0  0  0  0
 17  2  1  0  0  0  0
 19  3  1  0  0  0  0
M  END
>  <HBA>
1

>  <HBD>
0

>  <TPSA>
49.06

>  <cid>
7491

>  <dipole>
8.07

>  <excitation_energy_1>
3.608

>  <excitation_energy_2>
3.778

>  <excitation_energy_3>
4.351

>  <excitation_energy_4>
4.405

>  <homo_energy>
-5.826

>  <homo_lumo_gap>
3.997

>  <logP>
2.184

>  <lumo_energy>
-1.829

>  <melting_point>
52.46

>  <molecular_refractivity>
49.47

>  <oscillator_strength_1>
0.3966

>  <oscillator_strength_2>
0.0002

>  <oscillator_strength_3>
0.0004

>  <oscillator_strength_4>
0.0016

>  <open_babel_can_smiles>
CN(c1ccc(cc1)N(=O)=O)C

>  <mulliken_charges>
22
1   -0.317782
2   -0.317573
3   -0.202817
4   -0.202633
5   -0.160548
6   -0.160753
7   0.391313
8   0.277842
9   -0.474364
10   0.363407
11   -0.414362
12   -0.414254
13   0.163651
14   0.169508
15   0.167865
16   0.163586
17   0.168408
18   0.16891
19   0.138458
20   0.138435
21   0.17684
22   0.176862

>  <lowdin_charges>
22
1   -0.3533
2   -0.349133
3   -0.206555
4   -0.204933
5   -0.124627
6   -0.127222
7   0.075087
8   -0.032159
9   -0.097006
10   0.307687
11   -0.266327
12   -0.26898
13   0.163863
14   0.156187
15   0.15464
16   0.163809
17   0.152748
18   0.15455
19   0.167564
20   0.164713
21   0.183348
22   0.186047

$$$$

