PCCDB-ID:  47807
public computational chemistry database (PCCDB) project, http://pccdb.org

 23 22  0  0  0  0  0  0  0  0999 V2000
    2.2386    0.9241    3.4733 C   0  0  0  0  0  0  0  0  0  0  0  0
    7.6756    0.4451    0.0462 C   0  0  0  0  0  0  0  0  0  0  0  0
    3.1498    1.3141    2.3054 C   0  0  0  0  0  0  0  0  0  0  0  0
    3.1922    2.8345    2.1015 C   0  0  0  0  0  0  0  0  0  0  0  0
    5.4737    3.2385    1.0572 C   0  0  0  0  0  0  0  0  0  0  0  0
    7.2894    1.8157    0.5467 C   0  0  0  0  0  0  0  0  0  0  0  0
    3.3935    3.6128   -0.1475 N   0  0  0  0  0  0  0  0  0  0  0  0
    4.0419    3.2613    0.9931 N   0  0  0  0  0  0  0  0  0  0  0  0
    8.0530    2.7098    0.8358 O   0  0  0  0  0  0  0  0  0  0  0  0
    4.1154    3.8866   -1.0927 O   0  0  0  0  0  0  0  0  0  0  0  0
    5.9396    1.9350    0.6397 O   0  0  0  0  0  0  0  0  0  0  0  0
    2.2157   -0.1625    3.6055 H   0  0  0  0  0  0  0  0  0  0  0  0
    1.2085    1.2610    3.3060 H   0  0  0  0  0  0  0  0  0  0  0  0
    2.5840    1.3658    4.4162 H   0  0  0  0  0  0  0  0  0  0  0  0
    8.7623    0.3721   -0.0048 H   0  0  0  0  0  0  0  0  0  0  0  0
    7.2433    0.2739   -0.9450 H   0  0  0  0  0  0  0  0  0  0  0  0
    7.2805   -0.3275    0.7140 H   0  0  0  0  0  0  0  0  0  0  0  0
    2.7996    0.8479    1.3764 H   0  0  0  0  0  0  0  0  0  0  0  0
    4.1655    0.9385    2.4778 H   0  0  0  0  0  0  0  0  0  0  0  0
    3.5398    3.3341    3.0152 H   0  0  0  0  0  0  0  0  0  0  0  0
    2.1925    3.2169    1.8736 H   0  0  0  0  0  0  0  0  0  0  0  0
    5.7982    3.4303    2.0822 H   0  0  0  0  0  0  0  0  0  0  0  0
    5.8723    3.9965    0.3832 H   0  0  0  0  0  0  0  0  0  0  0  0
  1 12  1  0  0  0  0
  1 14  1  0  0  0  0
  2  6  1  0  0  0  0
  2 17  1  0  0  0  0
  3 19  1  0  0  0  0
  3  1  1  0  0  0  0
  4  3  1  0  0  0  0
  4 20  1  0  0  0  0
  5 22  1  0  0  0  0
  6 11  1  0  0  0  0
  6  9  2  0  0  0  0
  7  8  1  0  0  0  0
  8  5  1  0  0  0  0
  8  4  1  0  0  0  0
 10  7  2  0  0  0  0
 11  5  1  0  0  0  0
 13  1  1  0  0  0  0
 15  2  1  0  0  0  0
 16  2  1  0  0  0  0
 18  3  1  0  0  0  0
 21  4  1  0  0  0  0
 23  5  1  0  0  0  0
M  END
>  <HBA>
5

>  <HBD>
0

>  <TPSA>
58.97

>  <cid>
47807

>  <dipole>
3.97

>  <excitation_energy_1>
3.249

>  <excitation_energy_2>
5.457

>  <excitation_energy_3>
5.747

>  <excitation_energy_4>
5.798

>  <homo_energy>
-6.416

>  <homo_lumo_gap>
5.121

>  <logP>
0.9

>  <lumo_energy>
-1.295

>  <melting_point>
7.57

>  <molecular_refractivity>
39.88

>  <oscillator_strength_1>
0.0014

>  <oscillator_strength_2>
0.0891

>  <oscillator_strength_3>
0.006

>  <oscillator_strength_4>
0.0001

>  <open_babel_can_smiles>
CCCN(COC(=O)C)N=O

>  <mulliken_charges>
23
1   -0.450948
2   -0.524533
3   -0.253239
4   -0.13694
5   0.087789
6   0.609689
7   0.168723
8   -0.250577
9   -0.464344
10   -0.356408
11   -0.45157
12   0.155483
13   0.151016
14   0.146569
15   0.186399
16   0.191282
17   0.181452
18   0.155978
19   0.150117
20   0.151515
21   0.1772
22   0.171055
23   0.204293

>  <lowdin_charges>
23
1   -0.442528
2   -0.463181
3   -0.281641
4   -0.201708
5   -0.078892
6   0.207908
7   0.066248
8   -0.048199
9   -0.259256
10   -0.243712
11   -0.207147
12   0.155956
13   0.150292
14   0.149067
15   0.176342
16   0.182396
17   0.178812
18   0.153704
19   0.148309
20   0.14958
21   0.165991
22   0.161005
23   0.180654

$$$$

