PCCDB-ID:  29841
public computational chemistry database (PCCDB) project, http://pccdb.org

 21 20  0  0  1  0  0  0  0  0999 V2000
    1.7295    2.3000   -0.1098 C   0  0  0  0  0  0  0  0  0  0  0  0
    1.1916   -0.1170    0.4536 C   0  0  0  0  0  0  0  0  0  0  0  0
    2.2610    0.8581   -0.0584 C   0  0  0  0  0  0  0  0  0  0  0  0
    2.8618    0.3850   -1.4123 C   0  0  1  0  0  0  0  0  0  0  0  0
    1.8221    0.4683   -2.5481 C   0  0  0  0  0  0  0  0  0  0  0  0
    4.9815    0.3848   -2.5465 N   0  0  0  0  0  0  0  0  0  0  0  0
    4.0223    1.2154   -1.7888 N   0  0  0  0  0  0  0  0  0  0  0  0
    0.9277   -0.3299   -2.6989 O   0  0  0  0  0  0  0  0  0  0  0  0
    1.9864    1.5388   -3.3511 O   0  0  0  0  0  0  0  0  0  0  0  0
    1.3963    2.6139    0.8854 H   0  0  0  0  0  0  0  0  0  0  0  0
    0.8719    2.3842   -0.7874 H   0  0  0  0  0  0  0  0  0  0  0  0
    2.4936    3.0100   -0.4451 H   0  0  0  0  0  0  0  0  0  0  0  0
    0.8303    0.2061    1.4363 H   0  0  0  0  0  0  0  0  0  0  0  0
    1.5943   -1.1308    0.5566 H   0  0  0  0  0  0  0  0  0  0  0  0
    0.3397   -0.1669   -0.2303 H   0  0  0  0  0  0  0  0  0  0  0  0
    3.1007    0.8301    0.6544 H   0  0  0  0  0  0  0  0  0  0  0  0
    3.1593   -0.6677   -1.3145 H   0  0  0  0  0  0  0  0  0  0  0  0
    5.6705    1.0564   -2.8953 H   0  0  0  0  0  0  0  0  0  0  0  0
    4.4698    0.1159   -3.3915 H   0  0  0  0  0  0  0  0  0  0  0  0
    4.5244    1.4473   -0.9318 H   0  0  0  0  0  0  0  0  0  0  0  0
    2.7869    2.0000   -2.9943 H   0  0  0  0  0  0  0  0  0  0  0  0
  1  3  1  0  0  0  0
  1 10  1  0  0  0  0
  2 14  1  0  0  0  0
  2 13  1  0  0  0  0
  3  2  1  0  0  0  0
  3 16  1  0  0  0  0
  4 17  1  1  0  0  0
  4  3  1  0  0  0  0
  5  4  1  0  0  0  0
  6  7  1  0  0  0  0
  7  4  1  0  0  0  0
  7 20  1  0  0  0  0
  8  5  2  0  0  0  0
  9 21  1  0  0  0  0
  9  5  1  0  0  0  0
 11  1  1  0  0  0  0
 12  1  1  0  0  0  0
 15  2  1  0  0  0  0
 18  6  1  0  0  0  0
 19  6  1  0  0  0  0
M  END
>  <HBA>
4

>  <HBD>
3

>  <TPSA>
75.35

>  <cid>
29841

>  <dipole>
4.49

>  <excitation_energy_1>
5.266

>  <excitation_energy_2>
5.337

>  <excitation_energy_3>
5.733

>  <excitation_energy_4>
5.996

>  <homo_energy>
-6.31

>  <homo_lumo_gap>
6.618

>  <logP>
0.65

>  <lumo_energy>
0.307

>  <melting_point>
132.69

>  <molecular_refractivity>
33.43

>  <oscillator_strength_1>
0.0017

>  <oscillator_strength_2>
0.0023

>  <oscillator_strength_3>
0.0045

>  <oscillator_strength_4>
0.0144

>  <open_babel_can_smiles>
NN[C@H](C(=O)O)C(C)C

>  <mulliken_charges>
21
1   -0.463629
2   -0.44856
3   -0.105374
4   -0.048848
5   0.601839
6   -0.581447
7   -0.534514
8   -0.462442
9   -0.586469
10   0.15168
11   0.168915
12   0.145895
13   0.142105
14   0.147832
15   0.182502
16   0.130269
17   0.169735
18   0.314035
19   0.318269
20   0.328121
21   0.430085

>  <lowdin_charges>
21
1   -0.455951
2   -0.445743
3   -0.118387
4   -0.115231
5   0.172739
6   -0.486134
7   -0.317576
8   -0.250811
9   -0.362859
10   0.155211
11   0.160312
12   0.150185
13   0.150419
14   0.152291
15   0.168537
16   0.139126
17   0.160625
18   0.261066
19   0.26056
20   0.265961
21   0.35566

$$$$

