PCCDB-ID:  29959
public computational chemistry database (PCCDB) project, http://pccdb.org

 27 26  0  0  0  0  0  0  0  0999 V2000
    1.3471   -3.6026    2.7874 C   0  0  0  0  0  0  0  0  0  0  0  0
    2.4348   -1.6505   -0.9651 C   0  0  0  0  0  0  0  0  0  0  0  0
    2.5779    1.1487    2.8695 C   0  0  0  0  0  0  0  0  0  0  0  0
    1.5162    0.0495    2.5901 C   0  0  0  0  0  0  0  0  0  0  0  0
    2.5804    2.8305    5.3765 C   0  0  0  0  0  0  0  0  0  0  0  0
    3.3687    0.9193    4.1554 C   0  0  0  0  0  0  0  0  0  0  0  0
    3.3544    1.6306    5.2096 N   0  0  0  0  0  0  0  0  0  0  0  0
    3.3706    3.8219    6.0060 O   0  0  0  0  0  0  0  0  0  0  0  0
    4.1587   -0.1756    4.1722 O   0  0  0  0  0  0  0  0  0  0  0  0
    3.5879   -1.7180    1.9749 O   0  0  0  0  0  0  0  0  0  0  0  0
    1.1309   -2.5815    1.7911 O   0  0  0  0  0  0  0  0  0  0  0  0
    1.9109   -0.8705    0.1305 O   0  0  0  0  0  0  0  0  0  0  0  0
    2.1737   -1.3554    1.6404 P   0  0  0  0  0  0  0  0  0  0  0  0
    0.7261   -4.4507    2.4953 H   0  0  0  0  0  0  0  0  0  0  0  0
    1.0328   -3.2429    3.7732 H   0  0  0  0  0  0  0  0  0  0  0  0
    2.3992   -3.8943    2.8183 H   0  0  0  0  0  0  0  0  0  0  0  0
    2.3020   -1.0433   -1.8613 H   0  0  0  0  0  0  0  0  0  0  0  0
    1.8736   -2.5843   -1.0616 H   0  0  0  0  0  0  0  0  0  0  0  0
    3.4959   -1.8630   -0.8093 H   0  0  0  0  0  0  0  0  0  0  0  0
    2.0672    2.1109    2.9245 H   0  0  0  0  0  0  0  0  0  0  0  0
    3.2809    1.2183    2.0300 H   0  0  0  0  0  0  0  0  0  0  0  0
    0.6779    0.4565    2.0158 H   0  0  0  0  0  0  0  0  0  0  0  0
    1.1022   -0.3364    3.5287 H   0  0  0  0  0  0  0  0  0  0  0  0
    1.6983    2.5845    5.9947 H   0  0  0  0  0  0  0  0  0  0  0  0
    2.2157    3.3009    4.4510 H   0  0  0  0  0  0  0  0  0  0  0  0
    3.9385    3.3332    6.6249 H   0  0  0  0  0  0  0  0  0  0  0  0
    4.1011   -0.6875    3.3311 H   0  0  0  0  0  0  0  0  0  0  0  0
  1 16  1  0  0  0  0
  1 15  1  0  0  0  0
  2 19  1  0  0  0  0
  2 12  1  0  0  0  0
  3 20  1  0  0  0  0
  3  6  1  0  0  0  0
  4  3  1  0  0  0  0
  4 23  1  0  0  0  0
  5 24  1  0  0  0  0
  5  8  1  0  0  0  0
  6  9  1  0  0  0  0
  6  7  2  0  0  0  0
  7  5  1  0  0  0  0
  8 26  1  0  0  0  0
 11  1  1  0  0  0  0
 12 13  1  0  0  0  0
 13 11  1  0  0  0  0
 13 10  2  0  0  0  0
 13  4  1  0  0  0  0
 14  1  1  0  0  0  0
 17  2  1  0  0  0  0
 18  2  1  0  0  0  0
 21  3  1  0  0  0  0
 22  4  1  0  0  0  0
 25  5  1  0  0  0  0
 27  9  1  0  0  0  0
M  END
>  <HBA>
6

>  <HBD>
2

>  <TPSA>
94.67

>  <cid>
29959

>  <dipole>
6.57

>  <excitation_energy_1>
5.632

>  <excitation_energy_2>
5.866

>  <excitation_energy_3>
6.125

>  <excitation_energy_4>
6.35

>  <homo_energy>
-6.479

>  <homo_lumo_gap>
7.064

>  <logP>
0.319

>  <lumo_energy>
0.585

>  <melting_point>
38.16

>  <molecular_refractivity>
45.95

>  <oscillator_strength_1>
0.0015

>  <oscillator_strength_2>
0.006

>  <oscillator_strength_3>
0.0181

>  <oscillator_strength_4>
0.0039

>  <open_babel_can_smiles>
OC/N=C(\CCP(=O)(OC)OC)/O

>  <mulliken_charges>
27
1   -0.22648
2   -0.224503
3   -0.385991
4   -0.501093
5   0.094419
6   0.489463
7   -0.446074
8   -0.615701
9   -0.611778
10   -0.617987
11   -0.52231
12   -0.515772
13   1.155776
14   0.17678
15   0.16521
16   0.19281
17   0.178585
18   0.174563
19   0.186883
20   0.172723
21   0.192309
22   0.205012
23   0.197972
24   0.119907
25   0.119381
26   0.390116
27   0.455781

>  <lowdin_charges>
27
1   -0.269045
2   -0.269456
3   -0.306597
4   -0.45141
5   -0.074827
6   0.132975
7   -0.232337
8   -0.469347
9   -0.376979
10   -0.617128
11   -0.400525
12   -0.391941
13   1.066894
14   0.16658
15   0.153719
16   0.1708
17   0.167934
18   0.160576
19   0.166866
20   0.168056
21   0.174316
22   0.193925
23   0.185689
24   0.122411
25   0.121732
26   0.343185
27   0.363934

$$$$

