PCCDB-ID:  2899
public computational chemistry database (PCCDB) project, http://pccdb.org

 23 23  0  0  0  0  0  0  0  0999 V2000
   -1.5465    0.7644    0.1260 C   0  0  0  0  0  0  0  0  0  0  0  0
   -0.3255    1.5381   -0.4036 C   0  0  0  0  0  0  0  0  0  0  0  0
   -1.5416   -0.7559   -0.0955 C   0  0  0  0  0  0  0  0  0  0  0  0
    0.9670    1.2666    0.3907 C   0  0  0  0  0  0  0  0  0  0  0  0
   -0.3015   -1.5220    0.3975 C   0  0  0  0  0  0  0  0  0  0  0  0
    1.7639    0.0011    0.0067 C   0  0  0  0  0  0  0  0  0  0  0  0
    0.9684   -1.2519   -0.4322 C   0  0  0  0  0  0  0  0  0  0  0  0
    1.8033   -2.4697   -0.4538 N   0  0  0  0  0  0  0  0  0  0  0  0
   -2.4562    1.1727   -0.3357 H   0  0  0  0  0  0  0  0  0  0  0  0
   -1.6365    0.9708    1.2033 H   0  0  0  0  0  0  0  0  0  0  0  0
   -0.5529    2.6102   -0.3367 H   0  0  0  0  0  0  0  0  0  0  0  0
   -0.1741    1.3294   -1.4728 H   0  0  0  0  0  0  0  0  0  0  0  0
   -1.6655   -0.9638   -1.1687 H   0  0  0  0  0  0  0  0  0  0  0  0
   -2.4314   -1.1733    0.3950 H   0  0  0  0  0  0  0  0  0  0  0  0
    0.7003    1.2206    1.4556 H   0  0  0  0  0  0  0  0  0  0  0  0
    1.6399    2.1285    0.2945 H   0  0  0  0  0  0  0  0  0  0  0  0
   -0.5077   -2.5961    0.3222 H   0  0  0  0  0  0  0  0  0  0  0  0
   -0.1187   -1.3104    1.4623 H   0  0  0  0  0  0  0  0  0  0  0  0
    2.3922   -0.2814    0.8645 H   0  0  0  0  0  0  0  0  0  0  0  0
    2.4641    0.2457   -0.8054 H   0  0  0  0  0  0  0  0  0  0  0  0
    0.6452   -1.1054   -1.4721 H   0  0  0  0  0  0  0  0  0  0  0  0
    2.1479   -2.6491    0.4914 H   0  0  0  0  0  0  0  0  0  0  0  0
    2.6384   -2.2938   -1.0143 H   0  0  0  0  0  0  0  0  0  0  0  0
  1 10  1  0  0  0  0
  2 11  1  0  0  0  0
  2  1  1  0  0  0  0
  2  4  1  0  0  0  0
  3  1  1  0  0  0  0
  3 14  1  0  0  0  0
  3  5  1  0  0  0  0
  4 15  1  0  0  0  0
  5 18  1  0  0  0  0
  6  4  1  0  0  0  0
  6 19  1  0  0  0  0
  7  6  1  0  0  0  0
  7  5  1  0  0  0  0
  8  7  1  0  0  0  0
  8 22  1  0  0  0  0
  9  1  1  0  0  0  0
 12  2  1  0  0  0  0
 13  3  1  0  0  0  0
 16  4  1  0  0  0  0
 17  5  1  0  0  0  0
 20  6  1  0  0  0  0
 21  7  1  0  0  0  0
 23  8  1  0  0  0  0
M  END
>  <HBA>
1

>  <HBD>
1

>  <TPSA>
26.02

>  <cid>
2899

>  <dipole>
1.35

>  <excitation_energy_1>
5.593

>  <excitation_energy_2>
6.122

>  <excitation_energy_3>
6.215

>  <excitation_energy_4>
6.417

>  <homo_energy>
-6.158

>  <homo_lumo_gap>
8.294

>  <logP>
2.368

>  <lumo_energy>
2.136

>  <melting_point>
49.6

>  <molecular_refractivity>
36.36

>  <oscillator_strength_1>
0.0233

>  <oscillator_strength_2>
0.0123

>  <oscillator_strength_3>
0.0009

>  <oscillator_strength_4>
0.0106

>  <open_babel_can_smiles>
NC1CCCCCC1

>  <mulliken_charges>
23
1   -0.255068
2   -0.254986
3   -0.262535
4   -0.262859
5   -0.263007
6   -0.269057
7   0.033015
8   -0.714729
9   0.127953
10   0.12617
11   0.129695
12   0.128836
13   0.131119
14   0.129789
15   0.130616
16   0.130587
17   0.150924
18   0.120189
19   0.118149
20   0.122431
21   0.128294
22   0.285419
23   0.289056

>  <lowdin_charges>
23
1   -0.276455
2   -0.277275
3   -0.274606
4   -0.281568
5   -0.283161
6   -0.29898
7   -0.069652
8   -0.549487
9   0.142527
10   0.134247
11   0.142472
12   0.136566
13   0.136844
14   0.144199
15   0.137025
16   0.145239
17   0.153891
18   0.133702
19   0.136645
20   0.137346
21   0.134387
22   0.246139
23   0.249954

$$$$

