PCCDB-ID:  15759
public computational chemistry database (PCCDB) project, http://pccdb.org

 23 23  0  0  0  0  0  0  0  0999 V2000
    0.9283   -0.0017    0.2279 C   0  0  0  0  0  0  0  0  0  0  0  0
    2.4485   -0.0821    0.0598 C   0  0  0  0  0  0  0  0  0  0  0  0
    6.6954   -1.8698    0.9151 C   0  0  0  0  0  0  0  0  0  0  0  0
    7.4821   -0.7196    0.9777 C   0  0  0  0  0  0  0  0  0  0  0  0
    3.1808   -0.4270    1.3749 C   0  0  0  0  0  0  0  0  0  0  0  0
    5.3117   -1.7494    1.0480 C   0  0  0  0  0  0  0  0  0  0  0  0
    6.8860    0.5253    1.1611 C   0  0  0  0  0  0  0  0  0  0  0  0
    4.6863   -0.5133    1.2389 C   0  0  0  0  0  0  0  0  0  0  0  0
    5.4933    0.6471    1.2912 C   0  0  0  0  0  0  0  0  0  0  0  0
    4.9235    1.9062    1.5431 N   0  0  0  0  0  0  0  0  0  0  0  0
    0.4330    0.2374   -0.7199 H   0  0  0  0  0  0  0  0  0  0  0  0
    0.6484    0.7701    0.9558 H   0  0  0  0  0  0  0  0  0  0  0  0
    0.5204   -0.9547    0.5865 H   0  0  0  0  0  0  0  0  0  0  0  0
    2.8259    0.8701   -0.3408 H   0  0  0  0  0  0  0  0  0  0  0  0
    2.7031   -0.8392   -0.6931 H   0  0  0  0  0  0  0  0  0  0  0  0
    7.1504   -2.8455    0.7710 H   0  0  0  0  0  0  0  0  0  0  0  0
    8.5627   -0.7868    0.8802 H   0  0  0  0  0  0  0  0  0  0  0  0
    2.7989   -1.3888    1.7406 H   0  0  0  0  0  0  0  0  0  0  0  0
    2.9162    0.3141    2.1427 H   0  0  0  0  0  0  0  0  0  0  0  0
    4.6899   -2.6421    1.0115 H   0  0  0  0  0  0  0  0  0  0  0  0
    7.5019    1.4215    1.2107 H   0  0  0  0  0  0  0  0  0  0  0  0
    5.5325    2.6825    1.3130 H   0  0  0  0  0  0  0  0  0  0  0  0
    4.0033    2.0477    1.1461 H   0  0  0  0  0  0  0  0  0  0  0  0
  1 13  1  0  0  0  0
  1 12  1  0  0  0  0
  2  1  1  0  0  0  0
  2  5  1  0  0  0  0
  3  4  2  0  0  0  0
  3  6  1  0  0  0  0
  4  7  1  0  0  0  0
  5 18  1  0  0  0  0
  5 19  1  0  0  0  0
  6  8  2  0  0  0  0
  7 21  1  0  0  0  0
  7  9  2  0  0  0  0
  8  9  1  0  0  0  0
  8  5  1  0  0  0  0
  9 10  1  0  0  0  0
 11  1  1  0  0  0  0
 14  2  1  0  0  0  0
 15  2  1  0  0  0  0
 16  3  1  0  0  0  0
 17  4  1  0  0  0  0
 20  6  1  0  0  0  0
 22 10  1  0  0  0  0
 23 10  1  0  0  0  0
M  END
>  <HBA>
1

>  <HBD>
1

>  <TPSA>
26.02

>  <cid>
15759

>  <dipole>
1.71

>  <excitation_energy_1>
4.702

>  <excitation_energy_2>
4.732

>  <excitation_energy_3>
5.266

>  <excitation_energy_4>
5.396

>  <homo_energy>
-5.325

>  <homo_lumo_gap>
5.63

>  <logP>
2.803

>  <lumo_energy>
0.305

>  <melting_point>
55.98

>  <molecular_refractivity>
45.43

>  <oscillator_strength_1>
0.0113

>  <oscillator_strength_2>
0.0471

>  <oscillator_strength_3>
0.0057

>  <oscillator_strength_4>
0.0192

>  <open_babel_can_smiles>
CCCc1ccccc1N

>  <mulliken_charges>
23
1   -0.439973
2   -0.24931
3   -0.133163
4   -0.138062
5   -0.362234
6   -0.202147
7   -0.171102
8   0.157839
9   0.239911
10   -0.795953
11   0.144721
12   0.140939
13   0.145544
14   0.123988
15   0.14366
16   0.118422
17   0.122025
18   0.141948
19   0.145271
20   0.116242
21   0.111292
22   0.316465
23   0.323679

>  <lowdin_charges>
23
1   -0.446683
2   -0.273375
3   -0.185976
4   -0.149461
5   -0.279373
6   -0.159924
7   -0.201621
8   -0.038742
9   0.050295
10   -0.495405
11   0.151048
12   0.146858
13   0.148656
14   0.133057
15   0.147067
16   0.153636
17   0.152714
18   0.150061
19   0.148477
20   0.151942
21   0.149892
22   0.273503
23   0.273354

$$$$

