PCCDB-ID:  15132
public computational chemistry database (PCCDB) project, http://pccdb.org

 19 20  0  0  0  0  0  0  0  0999 V2000
    0.9694   -0.1605    0.0502 C   0  0  0  0  0  0  0  0  0  0  0  0
    4.5395    1.2499    0.0844 C   0  0  0  0  0  0  0  0  0  0  0  0
    3.1448    1.1682    0.0744 C   0  0  0  0  0  0  0  0  0  0  0  0
    5.3197    0.0908    0.0782 C   0  0  0  0  0  0  0  0  0  0  0  0
    2.4750   -0.0619    0.0581 C   0  0  0  0  0  0  0  0  0  0  0  0
    4.6737   -1.1408    0.0623 C   0  0  0  0  0  0  0  0  0  0  0  0
    3.2714   -1.2138    0.0531 C   0  0  0  0  0  0  0  0  0  0  0  0
    3.7726   -3.5390    0.0373 C   0  0  0  0  0  0  0  0  0  0  0  0
    3.6490   -4.8059    0.0271 N   0  0  0  0  0  0  0  0  0  0  0  0
    2.8137   -2.5302    0.0401 N   0  0  0  0  0  0  0  0  0  0  0  0
    5.3951   -2.7601    0.0520 S   0  0  0  0  0  0  0  0  0  0  0  0
    0.5129    0.8329    0.0214 H   0  0  0  0  0  0  0  0  0  0  0  0
    0.5885   -0.6702    0.9462 H   0  0  0  0  0  0  0  0  0  0  0  0
    0.6004   -0.7159   -0.8233 H   0  0  0  0  0  0  0  0  0  0  0  0
    5.0230    2.2222    0.0961 H   0  0  0  0  0  0  0  0  0  0  0  0
    2.5543    2.0809    0.0786 H   0  0  0  0  0  0  0  0  0  0  0  0
    6.4039    0.1490    0.0848 H   0  0  0  0  0  0  0  0  0  0  0  0
    2.6677   -5.0949    0.0203 H   0  0  0  0  0  0  0  0  0  0  0  0
    1.8311   -2.7639    0.0377 H   0  0  0  0  0  0  0  0  0  0  0  0
  1  5  1  0  0  0  0
  1 13  1  0  0  0  0
  2 15  1  0  0  0  0
  3 16  1  0  0  0  0
  3  2  1  0  0  0  0
  4  2  2  0  0  0  0
  4 17  1  0  0  0  0
  5  3  2  0  0  0  0
  6  4  1  0  0  0  0
  7  5  1  0  0  0  0
  7  6  2  0  0  0  0
  8 10  1  0  0  0  0
  8 11  1  0  0  0  0
  9  8  2  0  0  0  0
 10  7  1  0  0  0  0
 11  6  1  0  0  0  0
 12  1  1  0  0  0  0
 14  1  1  0  0  0  0
 18  9  1  0  0  0  0
 19 10  1  0  0  0  0
M  END
>  <HBA>
3

>  <HBD>
1

>  <TPSA>
67.15

>  <cid>
15132

>  <dipole>
4.24

>  <excitation_energy_1>
4.434

>  <excitation_energy_2>
4.513

>  <excitation_energy_3>
4.672

>  <excitation_energy_4>
4.835

>  <homo_energy>
-5.502

>  <homo_lumo_gap>
5.263

>  <logP>
2.768

>  <lumo_energy>
-0.239

>  <melting_point>
117.38

>  <molecular_refractivity>
48.99

>  <oscillator_strength_1>
0.0006

>  <oscillator_strength_2>
0.0864

>  <oscillator_strength_3>
0.0002

>  <oscillator_strength_4>
0.0657

>  <open_babel_can_smiles>
N=c1sc2c([nH]1)c(C)ccc2

>  <mulliken_charges>
19
1   -0.552144
2   -0.112564
3   -0.211767
4   -0.195067
5   0.180543
6   -0.1404
7   0.311001
8   0.32647
9   -0.635159
10   -0.704447
11   0.233139
12   0.169623
13   0.162272
14   0.160146
15   0.131563
16   0.125843
17   0.14388
18   0.276892
19   0.330177

>  <lowdin_charges>
19
1   -0.44615
2   -0.167048
3   -0.165984
4   -0.159622
5   -0.027763
6   -0.147521
7   0.035423
8   -0.011412
9   -0.429357
10   -0.24498
11   0.253525
12   0.166168
13   0.158563
14   0.15762
15   0.160973
16   0.158031
17   0.164802
18   0.253222
19   0.291509

$$$$

