PCCDB-ID:  70629
public computational chemistry database (PCCDB) project, http://pccdb.org

 26 26  0  0  1  0  0  0  0  0999 V2000
    1.3348   -0.3668    0.7936 C   0  0  0  0  0  0  0  0  0  0  0  0
    2.8507   -3.8516   -1.3428 C   0  0  0  0  0  0  0  0  0  0  0  0
    4.8515   -2.5678   -1.7360 C   0  0  0  0  0  0  0  0  0  0  0  0
    2.6147   -3.0868   -0.0389 C   0  0  0  0  0  0  0  0  0  0  0  0
    4.6140   -1.7996   -0.4346 C   0  0  0  0  0  0  0  0  0  0  0  0
    3.1467   -1.2530    2.3332 C   0  0  0  0  0  0  0  0  0  0  0  0
    2.8049   -0.7865    0.9059 C   0  0  1  0  0  0  0  0  0  0  0  0
    4.2891   -3.9124   -1.6056 N   0  0  0  0  0  0  0  0  0  0  0  0
    3.1808   -1.7412   -0.1481 N   0  0  0  0  0  0  0  0  0  0  0  0
    2.9941   -0.1311    3.2007 O   0  0  0  0  0  0  0  0  0  0  0  0
    1.1180    0.4182    1.5232 H   0  0  0  0  0  0  0  0  0  0  0  0
    0.6532   -1.2022    0.9941 H   0  0  0  0  0  0  0  0  0  0  0  0
    1.1265    0.0092   -0.2129 H   0  0  0  0  0  0  0  0  0  0  0  0
    2.2862   -3.3460   -2.1489 H   0  0  0  0  0  0  0  0  0  0  0  0
    2.4651   -4.8735   -1.2458 H   0  0  0  0  0  0  0  0  0  0  0  0
    5.9287   -2.6508   -1.9232 H   0  0  0  0  0  0  0  0  0  0  0  0
    4.4016   -1.9921   -2.5669 H   0  0  0  0  0  0  0  0  0  0  0  0
    3.0623   -3.6705    0.7880 H   0  0  0  0  0  0  0  0  0  0  0  0
    1.5386   -3.0123    0.1460 H   0  0  0  0  0  0  0  0  0  0  0  0
    4.9913   -0.7757   -0.5402 H   0  0  0  0  0  0  0  0  0  0  0  0
    5.1935   -2.2921    0.3695 H   0  0  0  0  0  0  0  0  0  0  0  0
    4.1789   -1.6352    2.3643 H   0  0  0  0  0  0  0  0  0  0  0  0
    2.4778   -2.0760    2.6324 H   0  0  0  0  0  0  0  0  0  0  0  0
    3.4144    0.1096    0.7285 H   0  0  0  0  0  0  0  0  0  0  0  0
    4.4647   -4.4461   -2.4542 H   0  0  0  0  0  0  0  0  0  0  0  0
    3.1569   -0.4304    4.1076 H   0  0  0  0  0  0  0  0  0  0  0  0
  1  7  1  0  0  0  0
  1 12  1  0  0  0  0
  1 11  1  0  0  0  0
  2 15  1  0  0  0  0
  2  4  1  0  0  0  0
  3  8  1  0  0  0  0
  3  5  1  0  0  0  0
  4 19  1  0  0  0  0
  4 18  1  0  0  0  0
  5  9  1  0  0  0  0
  5 21  1  0  0  0  0
  6 22  1  0  0  0  0
  6 23  1  0  0  0  0
  6 10  1  0  0  0  0
  7 24  1  6  0  0  0
  7  6  1  0  0  0  0
  8  2  1  0  0  0  0
  9  4  1  0  0  0  0
  9  7  1  0  0  0  0
 10 26  1  0  0  0  0
 13  1  1  0  0  0  0
 14  2  1  0  0  0  0
 16  3  1  0  0  0  0
 17  3  1  0  0  0  0
 20  5  1  0  0  0  0
 25  8  1  0  0  0  0
M  END
>  <HBA>
3

>  <HBD>
2

>  <TPSA>
35.5

>  <cid>
70629

>  <dipole>
1.2

>  <excitation_energy_1>
4.991

>  <excitation_energy_2>
5.165

>  <excitation_energy_3>
5.38

>  <excitation_energy_4>
5.548

>  <homo_energy>
-5.475

>  <homo_lumo_gap>
7.491

>  <logP>
-0.461

>  <lumo_energy>
2.016

>  <melting_point>
43.78

>  <molecular_refractivity>
48.34

>  <oscillator_strength_1>
0.0095

>  <oscillator_strength_2>
0.0101

>  <oscillator_strength_3>
0.0026

>  <oscillator_strength_4>
0.0073

>  <open_babel_can_smiles>
OC[C@@H](N1CCNCC1)C

>  <mulliken_charges>
26
1   -0.45122
2   -0.130385
3   -0.130654
4   -0.120864
5   -0.113329
6   -0.042352
7   0.041169
8   -0.55435
9   -0.406332
10   -0.622646
11   0.166256
12   0.133525
13   0.1488
14   0.118824
15   0.132221
16   0.13277
17   0.118415
18   0.119881
19   0.138162
20   0.13497
21   0.119288
22   0.124688
23   0.117089
24   0.13779
25   0.295865
26   0.392419

>  <lowdin_charges>
26
1   -0.452249
2   -0.207833
3   -0.207105
4   -0.205391
5   -0.203976
6   -0.151857
7   -0.065685
8   -0.369683
9   -0.190868
10   -0.472044
11   0.164267
12   0.143343
13   0.153622
14   0.122355
15   0.143617
16   0.142853
17   0.121856
18   0.122593
19   0.145698
20   0.145167
21   0.121527
22   0.127911
23   0.126011
24   0.147265
25   0.254226
26   0.34438

$$$$

