PCCDB-ID:  60314
public computational chemistry database (PCCDB) project, http://pccdb.org

 38 37  0  0  0  0  0  0  0  0999 V2000
    2.3647   -1.5982   -0.2140 C   0  0  0  0  0  0  0  0  0  0  0  0
    4.9965    0.9063    6.3701 C   0  0  0  0  0  0  0  0  0  0  0  0
    6.1216   -2.7153    4.3578 C   0  0  0  0  0  0  0  0  0  0  0  0
    2.0210    1.4840   -0.4143 C   0  0  0  0  0  0  0  0  0  0  0  0
    1.3699    1.5160    1.9886 C   0  0  0  0  0  0  0  0  0  0  0  0
    1.6527   -0.7070    0.8101 C   0  0  0  0  0  0  0  0  0  0  0  0
    4.5248   -0.4649    5.8864 C   0  0  0  0  0  0  0  0  0  0  0  0
    4.7697   -2.0757    4.0440 C   0  0  0  0  0  0  0  0  0  0  0  0
    3.6660    0.0504    3.6481 C   0  0  0  0  0  0  0  0  0  0  0  0
    4.2283    0.4681    2.2715 C   0  0  0  0  0  0  0  0  0  0  0  0
    2.1936    0.7457    0.9311 C   0  0  0  0  0  0  0  0  0  0  0  0
    3.6409    0.7582    1.1885 N   0  0  0  0  0  0  0  0  0  0  0  0
    4.6909   -0.6532    4.4343 N   0  0  0  0  0  0  0  0  0  0  0  0
    5.5830    0.5637    2.3048 O   0  0  0  0  0  0  0  0  0  0  0  0
    1.9680   -2.6196   -0.1746 H   0  0  0  0  0  0  0  0  0  0  0  0
    3.4411   -1.6397   -0.0202 H   0  0  0  0  0  0  0  0  0  0  0  0
    2.2267   -1.2323   -1.2368 H   0  0  0  0  0  0  0  0  0  0  0  0
    4.8784    0.9829    7.4568 H   0  0  0  0  0  0  0  0  0  0  0  0
    4.4264    1.7267    5.9206 H   0  0  0  0  0  0  0  0  0  0  0  0
    6.0531    1.0569    6.1254 H   0  0  0  0  0  0  0  0  0  0  0  0
    6.1291   -3.7565    4.0170 H   0  0  0  0  0  0  0  0  0  0  0  0
    6.3455   -2.7199    5.4299 H   0  0  0  0  0  0  0  0  0  0  0  0
    6.9276   -2.1811    3.8438 H   0  0  0  0  0  0  0  0  0  0  0  0
    0.9755    1.4676   -0.7465 H   0  0  0  0  0  0  0  0  0  0  0  0
    2.6466    1.0317   -1.1880 H   0  0  0  0  0  0  0  0  0  0  0  0
    2.3353    2.5281   -0.3095 H   0  0  0  0  0  0  0  0  0  0  0  0
    0.3477    1.6788    1.6272 H   0  0  0  0  0  0  0  0  0  0  0  0
    1.8189    2.4980    2.1768 H   0  0  0  0  0  0  0  0  0  0  0  0
    1.2941    0.9828    2.9415 H   0  0  0  0  0  0  0  0  0  0  0  0
    1.7036   -1.1884    1.7962 H   0  0  0  0  0  0  0  0  0  0  0  0
    0.5836   -0.6474    0.5621 H   0  0  0  0  0  0  0  0  0  0  0  0
    3.4751   -0.6380    6.1850 H   0  0  0  0  0  0  0  0  0  0  0  0
    5.1187   -1.2341    6.3886 H   0  0  0  0  0  0  0  0  0  0  0  0
    3.9514   -2.6510    4.5135 H   0  0  0  0  0  0  0  0  0  0  0  0
    4.6049   -2.1241    2.9622 H   0  0  0  0  0  0  0  0  0  0  0  0
    2.7563   -0.5524    3.5325 H   0  0  0  0  0  0  0  0  0  0  0  0
    3.3814    0.9633    4.1807 H   0  0  0  0  0  0  0  0  0  0  0  0
    5.8333    0.2338    3.1999 H   0  0  0  0  0  0  0  0  0  0  0  0
  1 15  1  0  0  0  0
  1 16  1  0  0  0  0
  1  6  1  0  0  0  0
  2 18  1  0  0  0  0
  3 22  1  0  0  0  0
  4 26  1  0  0  0  0
  4 11  1  0  0  0  0
  5 28  1  0  0  0  0
  5 29  1  0  0  0  0
  6 11  1  0  0  0  0
  6 30  1  0  0  0  0
  7 32  1  0  0  0  0
  7  2  1  0  0  0  0
  7 33  1  0  0  0  0
  8  3  1  0  0  0  0
  8 13  1  0  0  0  0
  8 34  1  0  0  0  0
  9 37  1  0  0  0  0
  9 13  1  0  0  0  0
 10 14  1  0  0  0  0
 10  9  1  0  0  0  0
 11 12  1  0  0  0  0
 11  5  1  0  0  0  0
 12 10  2  0  0  0  0
 13  7  1  0  0  0  0
 14 38  1  0  0  0  0
 17  1  1  0  0  0  0
 19  2  1  0  0  0  0
 20  2  1  0  0  0  0
 21  3  1  0  0  0  0
 23  3  1  0  0  0  0
 24  4  1  0  0  0  0
 25  4  1  0  0  0  0
 27  5  1  0  0  0  0
 31  6  1  0  0  0  0
 35  8  1  0  0  0  0
 36  9  1  0  0  0  0
M  END
>  <HBA>
3

>  <HBD>
1

>  <TPSA>
32.34

>  <cid>
60314

>  <dipole>
4.65

>  <excitation_energy_1>
5.157

>  <excitation_energy_2>
5.438

>  <excitation_energy_3>
5.809

>  <excitation_energy_4>
5.854

>  <homo_energy>
-5.899

>  <homo_lumo_gap>
6.719

>  <logP>
2.024

>  <lumo_energy>
0.819

>  <melting_point>
32.35

>  <molecular_refractivity>
60.93

>  <oscillator_strength_1>
0.005

>  <oscillator_strength_2>
0.0312

>  <oscillator_strength_3>
0.01

>  <oscillator_strength_4>
0.008

>  <open_babel_can_smiles>
CCN(C/C(=N\C(CC)(C)C)/O)CC

>  <mulliken_charges>
38
1   -0.448213
2   -0.450023
3   -0.450116
4   -0.433466
5   -0.462287
6   -0.253505
7   -0.123163
8   -0.131416
9   -0.232752
10   0.487307
11   0.203196
12   -0.445714
13   -0.440492
14   -0.59887
15   0.132397
16   0.161561
17   0.147776
18   0.150508
19   0.15413
20   0.159104
21   0.152879
22   0.150587
23   0.161716
24   0.121914
25   0.15495
26   0.143313
27   0.140999
28   0.147991
29   0.130526
30   0.117913
31   0.127134
32   0.127374
33   0.148363
34   0.129561
35   0.16493
36   0.160915
37   0.176955
38   0.416018

>  <lowdin_charges>
38
1   -0.445235
2   -0.448311
3   -0.448122
4   -0.441998
5   -0.453251
6   -0.275265
7   -0.197744
8   -0.200528
9   -0.24578
10   0.116184
11   0.071492
12   -0.215369
13   -0.193729
14   -0.380422
15   0.144594
16   0.154258
17   0.149097
18   0.154827
19   0.152193
20   0.155044
21   0.157019
22   0.148077
23   0.158311
24   0.136871
25   0.157317
26   0.15058
27   0.14999
28   0.15186
29   0.141497
30   0.131917
31   0.13933
32   0.126533
33   0.151923
34   0.130723
35   0.155001
36   0.148889
37   0.168236
38   0.34399

$$$$

