PCCDB-ID:  12264
public computational chemistry database (PCCDB) project, http://pccdb.org

 21 20  0  0  0  0  0  0  0  0999 V2000
    2.6449   -1.6532    0.6715 C   0  0  0  0  0  0  0  0  0  0  0  0
    3.5518   -0.6009   -1.4487 C   0  0  0  0  0  0  0  0  0  0  0  0
    5.9874    2.6009    1.0053 C   0  0  0  0  0  0  0  0  0  0  0  0
    6.9371    0.3009    0.5211 C   0  0  0  0  0  0  0  0  0  0  0  0
    3.8314   -0.9343    0.0187 C   0  0  0  0  0  0  0  0  0  0  0  0
    5.7454    1.2434    0.3350 C   0  0  0  0  0  0  0  0  0  0  0  0
    4.1743    0.5675    1.0481 S   0  0  0  0  0  0  0  0  0  0  0  0
    2.4083   -2.5672    0.1136 H   0  0  0  0  0  0  0  0  0  0  0  0
    1.7517   -1.0177    0.6704 H   0  0  0  0  0  0  0  0  0  0  0  0
    2.8650   -1.9308    1.7071 H   0  0  0  0  0  0  0  0  0  0  0  0
    3.3563   -1.5221   -2.0133 H   0  0  0  0  0  0  0  0  0  0  0  0
    4.3986   -0.0970   -1.9262 H   0  0  0  0  0  0  0  0  0  0  0  0
    2.6748    0.0495   -1.5385 H   0  0  0  0  0  0  0  0  0  0  0  0
    6.8980    3.0595    0.6016 H   0  0  0  0  0  0  0  0  0  0  0  0
    6.1197    2.4868    2.0876 H   0  0  0  0  0  0  0  0  0  0  0  0
    5.1522    3.2872    0.8339 H   0  0  0  0  0  0  0  0  0  0  0  0
    7.8422    0.7481    0.0890 H   0  0  0  0  0  0  0  0  0  0  0  0
    6.7803   -0.6642    0.0284 H   0  0  0  0  0  0  0  0  0  0  0  0
    7.1208    0.1131    1.5846 H   0  0  0  0  0  0  0  0  0  0  0  0
    4.7109   -1.5854    0.0846 H   0  0  0  0  0  0  0  0  0  0  0  0
    5.5753    1.4102   -0.7349 H   0  0  0  0  0  0  0  0  0  0  0  0
  1 10  1  0  0  0  0
  2  5  1  0  0  0  0
  3 15  1  0  0  0  0
  4 19  1  0  0  0  0
  5 20  1  0  0  0  0
  5  1  1  0  0  0  0
  5  7  1  0  0  0  0
  6  4  1  0  0  0  0
  6  3  1  0  0  0  0
  6  7  1  0  0  0  0
  8  1  1  0  0  0  0
  9  1  1  0  0  0  0
 11  2  1  0  0  0  0
 12  2  1  0  0  0  0
 13  2  1  0  0  0  0
 14  3  1  0  0  0  0
 16  3  1  0  0  0  0
 17  4  1  0  0  0  0
 18  4  1  0  0  0  0
 21  6  1  0  0  0  0
M  END
>  <HBA>
1

>  <HBD>
0

>  <TPSA>
25.3

>  <cid>
12264

>  <dipole>
1.68

>  <excitation_energy_1>
5.271

>  <excitation_energy_2>
5.287

>  <excitation_energy_3>
5.893

>  <excitation_energy_4>
5.909

>  <homo_energy>
-5.791

>  <homo_lumo_gap>
7.048

>  <logP>
2.536

>  <lumo_energy>
1.257

>  <melting_point>
-17.59

>  <molecular_refractivity>
38.55

>  <oscillator_strength_1>
0.0003

>  <oscillator_strength_2>
0.0201

>  <oscillator_strength_3>
0.0119

>  <oscillator_strength_4>
0.0001

>  <open_babel_can_smiles>
CC(SC(C)C)C

>  <mulliken_charges>
21
1   -0.450932
2   -0.436467
3   -0.450794
4   -0.436303
5   -0.227723
6   -0.228196
7   0.069475
8   0.147054
9   0.159653
10   0.162914
11   0.143504
12   0.14831
13   0.158958
14   0.147092
15   0.159489
16   0.162946
17   0.143386
18   0.14817
19   0.159113
20   0.160151
21   0.160201

>  <lowdin_charges>
21
1   -0.44398
2   -0.449238
3   -0.443696
4   -0.446618
5   -0.213883
6   -0.211904
7   0.060111
8   0.152898
9   0.156905
10   0.159299
11   0.150163
12   0.151131
13   0.157465
14   0.15307
15   0.154776
16   0.160972
17   0.150252
18   0.149944
19   0.155798
20   0.149286
21   0.147247

$$$$

