PCCDB-ID:  26447
public computational chemistry database (PCCDB) project, http://pccdb.org

 29 29  0  0  1  0  0  0  0  0999 V2000
    0.6168   -0.5326    0.2183 C   0  0  0  0  0  0  0  0  0  0  0  0
    2.2375    1.3569    0.7007 C   0  0  0  0  0  0  0  0  0  0  0  0
    2.5016   -4.8020    2.5496 C   0  0  0  0  0  0  0  0  0  0  0  0
    2.6064   -3.5572    0.3382 C   0  0  0  0  0  0  0  0  0  0  0  0
    3.2150   -2.3303   -0.3566 C   0  0  0  0  0  0  0  0  0  0  0  0
    3.9019   -2.6705    2.3497 C   0  0  0  0  0  0  0  0  0  0  0  0
    2.0600   -0.0277    0.0556 C   0  0  0  0  0  0  0  0  0  0  0  0
    3.3733   -3.9478    1.6213 C   0  0  1  0  0  0  0  0  0  0  0  0
    3.1348   -1.0432    0.5271 C   0  0  1  0  0  0  0  0  0  0  0  0
    3.0661   -1.4457    2.0069 C   0  0  0  0  0  0  0  0  0  0  0  0
    2.4112   -0.8550    2.8477 O   0  0  0  0  0  0  0  0  0  0  0  0
    0.3708   -0.6838    1.2735 H   0  0  0  0  0  0  0  0  0  0  0  0
    0.4505   -1.4761   -0.3146 H   0  0  0  0  0  0  0  0  0  0  0  0
   -0.0886    0.2003   -0.1907 H   0  0  0  0  0  0  0  0  0  0  0  0
    1.5586    2.0829    0.2372 H   0  0  0  0  0  0  0  0  0  0  0  0
    3.2613    1.7288    0.5656 H   0  0  0  0  0  0  0  0  0  0  0  0
    2.0268    1.3217    1.7720 H   0  0  0  0  0  0  0  0  0  0  0  0
    2.1012   -5.6754    2.0206 H   0  0  0  0  0  0  0  0  0  0  0  0
    1.6525   -4.2211    2.9301 H   0  0  0  0  0  0  0  0  0  0  0  0
    3.0733   -5.1636    3.4120 H   0  0  0  0  0  0  0  0  0  0  0  0
    2.5765   -4.4120   -0.3487 H   0  0  0  0  0  0  0  0  0  0  0  0
    1.5620   -3.3367    0.6005 H   0  0  0  0  0  0  0  0  0  0  0  0
    2.7043   -2.1429   -1.3085 H   0  0  0  0  0  0  0  0  0  0  0  0
    4.2608   -2.5471   -0.6113 H   0  0  0  0  0  0  0  0  0  0  0  0
    4.9324   -2.4702    2.0254 H   0  0  0  0  0  0  0  0  0  0  0  0
    3.9109   -2.7996    3.4356 H   0  0  0  0  0  0  0  0  0  0  0  0
    2.2423    0.0954   -1.0233 H   0  0  0  0  0  0  0  0  0  0  0  0
    4.2474   -4.5444    1.3280 H   0  0  0  0  0  0  0  0  0  0  0  0
    4.1059   -0.5283    0.4382 H   0  0  0  0  0  0  0  0  0  0  0  0
  1 12  1  0  0  0  0
  2 17  1  0  0  0  0
  3 19  1  0  0  0  0
  3 20  1  0  0  0  0
  4 22  1  0  0  0  0
  4  8  1  0  0  0  0
  5  4  1  0  0  0  0
  5  9  1  0  0  0  0
  6 26  1  0  0  0  0
  7  1  1  0  0  0  0
  7  9  1  0  0  0  0
  7  2  1  0  0  0  0
  8 28  1  6  0  0  0
  8  6  1  0  0  0  0
  8  3  1  0  0  0  0
  9 29  1  6  0  0  0
  9 10  1  0  0  0  0
 10  6  1  0  0  0  0
 10 11  2  0  0  0  0
 13  1  1  0  0  0  0
 14  1  1  0  0  0  0
 15  2  1  0  0  0  0
 16  2  1  0  0  0  0
 18  3  1  0  0  0  0
 21  4  1  0  0  0  0
 23  5  1  0  0  0  0
 24  5  1  0  0  0  0
 25  6  1  0  0  0  0
 27  7  1  0  0  0  0
M  END
>  <HBA>
1

>  <HBD>
0

>  <TPSA>
17.07

>  <cid>
26447

>  <dipole>
2.81

>  <excitation_energy_1>
4.126

>  <excitation_energy_2>
5.811

>  <excitation_energy_3>
6.208

>  <excitation_energy_4>
6.304

>  <homo_energy>
-6.283

>  <homo_lumo_gap>
5.948

>  <logP>
2.648

>  <lumo_energy>
-0.335

>  <melting_point>
14.75

>  <molecular_refractivity>
48.27

>  <oscillator_strength_1>
0.0002

>  <oscillator_strength_2>
0.0025

>  <oscillator_strength_3>
0.0084

>  <oscillator_strength_4>
0.007

>  <open_babel_can_smiles>
C[C@H]1CC[C@H](C(=O)C1)C(C)C

>  <mulliken_charges>
29
1   -0.460805
2   -0.457431
3   -0.452204
4   -0.282447
5   -0.287733
6   -0.352432
7   -0.063537
8   -0.068034
9   -0.166662
10   0.442559
11   -0.4541
12   0.169491
13   0.137093
14   0.138831
15   0.134176
16   0.12842
17   0.1796
18   0.143517
19   0.15617
20   0.144884
21   0.136895
22   0.147731
23   0.146507
24   0.134113
25   0.149265
26   0.161613
27   0.118123
28   0.128878
29   0.147521

>  <lowdin_charges>
29
1   -0.453086
2   -0.450651
3   -0.446292
4   -0.284676
5   -0.279347
6   -0.309026
7   -0.112216
8   -0.121076
9   -0.164642
10   0.16189
11   -0.240122
12   0.158944
13   0.143864
14   0.150102
15   0.146854
16   0.140796
17   0.163354
18   0.150408
19   0.154076
20   0.150671
21   0.148684
22   0.144512
23   0.151503
24   0.142168
25   0.158053
26   0.161527
27   0.133263
28   0.140388
29   0.160076

$$$$

