PCCDB-ID:  8434
public computational chemistry database (PCCDB) project, http://pccdb.org

 22 22  0  0  0  0  0  0  0  0999 V2000
    3.4453   -0.8853   -3.5629 C   0  0  0  0  0  0  0  0  0  0  0  0
    2.9301   -0.5525   -2.1704 C   0  0  0  0  0  0  0  0  0  0  0  0
    6.8002   -0.4874    0.7572 C   0  0  0  0  0  0  0  0  0  0  0  0
    5.7905    1.5929    0.0482 C   0  0  0  0  0  0  0  0  0  0  0  0
    7.7443    0.2170    1.4942 C   0  0  0  0  0  0  0  0  0  0  0  0
    6.7305    2.3054    0.7806 C   0  0  0  0  0  0  0  0  0  0  0  0
    5.8133    0.1887    0.0274 C   0  0  0  0  0  0  0  0  0  0  0  0
    7.7115    1.6179    1.5075 C   0  0  0  0  0  0  0  0  0  0  0  0
    4.8324   -0.6222   -0.7371 C   0  0  0  0  0  0  0  0  0  0  0  0
    8.6086    2.3663    2.2090 O   0  0  0  0  0  0  0  0  0  0  0  0
    4.8299   -1.8394   -0.7757 O   0  0  0  0  0  0  0  0  0  0  0  0
    3.9269    0.1467   -1.3910 O   0  0  0  0  0  0  0  0  0  0  0  0
    2.6452   -1.3430   -4.1562 H   0  0  0  0  0  0  0  0  0  0  0  0
    4.2776   -1.5921   -3.5045 H   0  0  0  0  0  0  0  0  0  0  0  0
    3.7829    0.0191   -4.0799 H   0  0  0  0  0  0  0  0  0  0  0  0
    2.6336   -1.4564   -1.6328 H   0  0  0  0  0  0  0  0  0  0  0  0
    2.0848    0.1394   -2.2108 H   0  0  0  0  0  0  0  0  0  0  0  0
    6.8114   -1.5721    0.7349 H   0  0  0  0  0  0  0  0  0  0  0  0
    5.0296    2.1218   -0.5145 H   0  0  0  0  0  0  0  0  0  0  0  0
    8.5074   -0.3149    2.0597 H   0  0  0  0  0  0  0  0  0  0  0  0
    6.7245    3.3904    0.8044 H   0  0  0  0  0  0  0  0  0  0  0  0
    9.2289    1.7754    2.6645 H   0  0  0  0  0  0  0  0  0  0  0  0
  1 14  1  0  0  0  0
  1  2  1  0  0  0  0
  2 16  1  0  0  0  0
  2 12  1  0  0  0  0
  3  5  2  0  0  0  0
  4  6  1  0  0  0  0
  5  8  1  0  0  0  0
  5 20  1  0  0  0  0
  6 21  1  0  0  0  0
  6  8  2  0  0  0  0
  7  4  2  0  0  0  0
  7  3  1  0  0  0  0
  8 10  1  0  0  0  0
  9  7  1  0  0  0  0
 10 22  1  0  0  0  0
 11  9  2  0  0  0  0
 12  9  1  0  0  0  0
 13  1  1  0  0  0  0
 15  1  1  0  0  0  0
 17  2  1  0  0  0  0
 18  3  1  0  0  0  0
 19  4  1  0  0  0  0
M  END
>  <HBA>
3

>  <HBD>
1

>  <TPSA>
46.53

>  <cid>
8434

>  <dipole>
1.24

>  <excitation_energy_1>
4.935

>  <excitation_energy_2>
4.987

>  <excitation_energy_3>
5.024

>  <excitation_energy_4>
5.442

>  <homo_energy>
-6.299

>  <homo_lumo_gap>
5.393

>  <logP>
1.569

>  <lumo_energy>
-0.906

>  <melting_point>
69.57

>  <molecular_refractivity>
44.55

>  <oscillator_strength_1>
0.0038

>  <oscillator_strength_2>
0.0223

>  <oscillator_strength_3>
0.3372

>  <oscillator_strength_4>
0.0002

>  <open_babel_can_smiles>
CCOC(=O)c1ccc(cc1)O

>  <mulliken_charges>
22
1   -0.461536
2   -0.040073
3   -0.159007
4   -0.165315
5   -0.202606
6   -0.16561
7   0.046813
8   0.362423
9   0.592656
10   -0.633875
11   -0.501691
12   -0.481277
13   0.14836
14   0.177524
15   0.155693
16   0.170222
17   0.149786
18   0.165268
19   0.157892
20   0.126634
21   0.146041
22   0.411678

>  <lowdin_charges>
22
1   -0.457246
2   -0.128544
3   -0.11548
4   -0.127552
5   -0.215393
6   -0.185995
7   -0.066968
8   0.115687
9   0.194085
10   -0.367334
11   -0.281495
12   -0.195653
13   0.158835
14   0.166506
15   0.15579
16   0.15943
17   0.151313
18   0.176439
19   0.175066
20   0.157942
21   0.168428
22   0.362139

$$$$

