PCCDB-ID:  7772
public computational chemistry database (PCCDB) project, http://pccdb.org

 26 25  0  0  0  0  0  0  0  0999 V2000
    3.9801   -1.2431    0.3997 C   0  0  0  0  0  0  0  0  0  0  0  0
    6.8041    4.2557    4.3985 C   0  0  0  0  0  0  0  0  0  0  0  0
    9.0064    4.1232    3.1673 C   0  0  0  0  0  0  0  0  0  0  0  0
    4.3262    0.1875   -0.0083 C   0  0  0  0  0  0  0  0  0  0  0  0
    6.9474    3.1198    2.1081 C   0  0  0  0  0  0  0  0  0  0  0  0
    5.4626    3.2435    1.7754 C   0  0  0  0  0  0  0  0  0  0  0  0
    7.4823    4.2428    3.0192 C   0  0  0  0  0  0  0  0  0  0  0  0
    4.7100    1.0609    1.1718 C   0  0  0  0  0  0  0  0  0  0  0  0
    4.6865    0.7182    2.3348 O   0  0  0  0  0  0  0  0  0  0  0  0
    5.0781    2.2943    0.7520 O   0  0  0  0  0  0  0  0  0  0  0  0
    3.6916   -1.8316   -0.4774 H   0  0  0  0  0  0  0  0  0  0  0  0
    3.1523   -1.2570    1.1146 H   0  0  0  0  0  0  0  0  0  0  0  0
    4.8335   -1.7329    0.8783 H   0  0  0  0  0  0  0  0  0  0  0  0
    7.2281    5.0429    5.0328 H   0  0  0  0  0  0  0  0  0  0  0  0
    6.9492    3.2974    4.9135 H   0  0  0  0  0  0  0  0  0  0  0  0
    5.7256    4.4353    4.3296 H   0  0  0  0  0  0  0  0  0  0  0  0
    9.4087    4.9371    3.7819 H   0  0  0  0  0  0  0  0  0  0  0  0
    9.5079    4.1580    2.1929 H   0  0  0  0  0  0  0  0  0  0  0  0
    9.2797    3.1758    3.6497 H   0  0  0  0  0  0  0  0  0  0  0  0
    3.4826    0.6717   -0.5177 H   0  0  0  0  0  0  0  0  0  0  0  0
    5.1540    0.2125   -0.7281 H   0  0  0  0  0  0  0  0  0  0  0  0
    7.5072    3.1242    1.1635 H   0  0  0  0  0  0  0  0  0  0  0  0
    7.1228    2.1454    2.5822 H   0  0  0  0  0  0  0  0  0  0  0  0
    5.2357    4.2216    1.3405 H   0  0  0  0  0  0  0  0  0  0  0  0
    4.8341    3.0818    2.6536 H   0  0  0  0  0  0  0  0  0  0  0  0
    7.2690    5.2048    2.5268 H   0  0  0  0  0  0  0  0  0  0  0  0
  1 13  1  0  0  0  0
  1 12  1  0  0  0  0
  2 15  1  0  0  0  0
  2 14  1  0  0  0  0
  3 19  1  0  0  0  0
  3 17  1  0  0  0  0
  4  1  1  0  0  0  0
  4  8  1  0  0  0  0
  5 23  1  0  0  0  0
  5  7  1  0  0  0  0
  6  5  1  0  0  0  0
  6 25  1  0  0  0  0
  7  3  1  0  0  0  0
  7  2  1  0  0  0  0
  8  9  2  0  0  0  0
 10  8  1  0  0  0  0
 10  6  1  0  0  0  0
 11  1  1  0  0  0  0
 16  2  1  0  0  0  0
 18  3  1  0  0  0  0
 20  4  1  0  0  0  0
 21  4  1  0  0  0  0
 22  5  1  0  0  0  0
 24  6  1  0  0  0  0
 26  7  1  0  0  0  0
M  END
>  <HBA>
2

>  <HBD>
0

>  <TPSA>
26.3

>  <cid>
7772

>  <dipole>
1.63

>  <excitation_energy_1>
5.846

>  <excitation_energy_2>
6.958

>  <excitation_energy_3>
7.331

>  <excitation_energy_4>
7.444

>  <homo_energy>
-7.26

>  <homo_lumo_gap>
7.753

>  <logP>
1.986

>  <lumo_energy>
0.493

>  <melting_point>
-15.45

>  <molecular_refractivity>
41.85

>  <oscillator_strength_1>
0.0007

>  <oscillator_strength_2>
0.0222

>  <oscillator_strength_3>
0.0271

>  <oscillator_strength_4>
0.054

>  <open_babel_can_smiles>
CCC(=O)OCCC(C)C

>  <mulliken_charges>
26
1   -0.435027
2   -0.446461
3   -0.441397
4   -0.352244
5   -0.272328
6   -0.049286
7   -0.076435
8   0.621796
9   -0.479111
10   -0.469618
11   0.141919
12   0.163569
13   0.159895
14   0.142067
15   0.148911
16   0.144371
17   0.141644
18   0.141003
19   0.143118
20   0.172333
21   0.170759
22   0.138965
23   0.154588
24   0.146105
25   0.17002
26   0.120846

>  <lowdin_charges>
26
1   -0.441204
2   -0.446557
3   -0.444
4   -0.300696
5   -0.288033
6   -0.134819
7   -0.119084
8   0.196992
9   -0.269083
10   -0.197837
11   0.151949
12   0.160541
13   0.158961
14   0.150711
15   0.150777
16   0.146554
17   0.149894
18   0.147845
19   0.14787
20   0.169734
21   0.168119
22   0.146953
23   0.152791
24   0.148891
25   0.158709
26   0.134022

$$$$

