PCCDB-ID:  12244
public computational chemistry database (PCCDB) project, http://pccdb.org

 15 14  0  0  0  0  0  0  0  0999 V2000
    1.0023    0.0463   -0.0598 C   0  0  0  0  0  0  0  0  0  0  0  0
    2.9989   -1.5015    0.1839 C   0  0  0  0  0  0  0  0  0  0  0  0
    3.1076    0.5281   -1.3561 C   0  0  0  0  0  0  0  0  0  0  0  0
    4.5727    0.5769   -1.3785 C   0  0  0  0  0  0  0  0  0  0  0  0
    2.5329   -0.0576   -0.0405 C   0  0  0  0  0  0  0  0  0  0  0  0
    5.7333    0.6101   -1.3761 N   0  0  0  0  0  0  0  0  0  0  0  0
    0.5768   -0.3388    0.8733 H   0  0  0  0  0  0  0  0  0  0  0  0
    0.5780   -0.5399   -0.8851 H   0  0  0  0  0  0  0  0  0  0  0  0
    0.6685    1.0840   -0.1770 H   0  0  0  0  0  0  0  0  0  0  0  0
    2.6178   -1.8865    1.1362 H   0  0  0  0  0  0  0  0  0  0  0  0
    4.0915   -1.5731    0.2041 H   0  0  0  0  0  0  0  0  0  0  0  0
    2.6309   -2.1603   -0.6134 H   0  0  0  0  0  0  0  0  0  0  0  0
    2.7678   -0.0725   -2.2108 H   0  0  0  0  0  0  0  0  0  0  0  0
    2.7280    1.5453   -1.5138 H   0  0  0  0  0  0  0  0  0  0  0  0
    2.9118    0.5608    0.7844 H   0  0  0  0  0  0  0  0  0  0  0  0
  1  5  1  0  0  0  0
  1  7  1  0  0  0  0
  2 11  1  0  0  0  0
  2 10  1  0  0  0  0
  3  5  1  0  0  0  0
  4  6  3  0  0  0  0
  4  3  1  0  0  0  0
  5  2  1  0  0  0  0
  5 15  1  0  0  0  0
  8  1  1  0  0  0  0
  9  1  1  0  0  0  0
 12  2  1  0  0  0  0
 13  3  1  0  0  0  0
 14  3  1  0  0  0  0
M  END
>  <HBA>
1

>  <HBD>
0

>  <TPSA>
23.79

>  <cid>
12244

>  <dipole>
3.97

>  <excitation_energy_1>
7.565

>  <excitation_energy_2>
7.756

>  <excitation_energy_3>
7.871

>  <excitation_energy_4>
8.027

>  <homo_energy>
-8.607

>  <homo_lumo_gap>
9.524

>  <logP>
1.556

>  <lumo_energy>
0.917

>  <melting_point>
8.0

>  <molecular_refractivity>
25.9

>  <oscillator_strength_1>
0.0

>  <oscillator_strength_2>
0.0115

>  <oscillator_strength_3>
0.0012

>  <oscillator_strength_4>
0.004

>  <open_babel_can_smiles>
CC(CC#N)C

>  <mulliken_charges>
15
1   -0.444249
2   -0.45197
3   -0.334411
4   0.352691
5   -0.080296
6   -0.479905
7   0.155201
8   0.145599
9   0.14669
10   0.151201
11   0.17188
12   0.143078
13   0.186571
14   0.188598
15   0.149321

>  <lowdin_charges>
15
1   -0.444736
2   -0.447097
3   -0.275323
4   -0.019069
5   -0.112596
6   -0.132256
7   0.157332
8   0.150354
9   0.150059
10   0.155238
11   0.161491
12   0.149314
13   0.177981
14   0.179078
15   0.15023

$$$$

