PCCDB-ID:  17877
public computational chemistry database (PCCDB) project, http://pccdb.org

 24 24  0  0  0  0  0  0  0  0999 V2000
    1.0977   -0.1605    0.2665 C   0  0  0  0  0  0  0  0  0  0  0  0
    2.8948    2.9720    0.4029 C   0  0  0  0  0  0  0  0  0  0  0  0
    2.9270   -1.0658   -2.7296 C   0  0  0  0  0  0  0  0  0  0  0  0
    2.6037    0.0423    0.0078 C   0  0  0  0  0  0  0  0  0  0  0  0
    3.3720    2.6588   -3.3574 C   0  0  0  0  0  0  0  0  0  0  0  0
    3.2446    3.1842   -2.0746 C   0  0  0  0  0  0  0  0  0  0  0  0
    3.2618    1.2843   -3.5480 C   0  0  0  0  0  0  0  0  0  0  0  0
    3.0064    2.3518   -0.9744 C   0  0  0  0  0  0  0  0  0  0  0  0
    3.0229    0.4233   -2.4701 C   0  0  0  0  0  0  0  0  0  0  0  0
    2.8927    0.9577   -1.1693 C   0  0  0  0  0  0  0  0  0  0  0  0
    0.9341   -0.8266    1.1218 H   0  0  0  0  0  0  0  0  0  0  0  0
    0.6007   -0.6010   -0.6049 H   0  0  0  0  0  0  0  0  0  0  0  0
    0.5988    0.7914    0.4790 H   0  0  0  0  0  0  0  0  0  0  0  0
    2.9495    4.0632    0.3403 H   0  0  0  0  0  0  0  0  0  0  0  0
    3.7041    2.6415    1.0672 H   0  0  0  0  0  0  0  0  0  0  0  0
    1.9517    2.7170    0.9002 H   0  0  0  0  0  0  0  0  0  0  0  0
    2.9951   -1.2760   -3.8014 H   0  0  0  0  0  0  0  0  0  0  0  0
    1.9833   -1.4921   -2.3694 H   0  0  0  0  0  0  0  0  0  0  0  0
    3.7357   -1.6204   -2.2356 H   0  0  0  0  0  0  0  0  0  0  0  0
    3.0677   -0.9363   -0.1567 H   0  0  0  0  0  0  0  0  0  0  0  0
    3.0676    0.4427    0.9160 H   0  0  0  0  0  0  0  0  0  0  0  0
    3.5563    3.3163   -4.2031 H   0  0  0  0  0  0  0  0  0  0  0  0
    3.3314    4.2571   -1.9179 H   0  0  0  0  0  0  0  0  0  0  0  0
    3.3621    0.8666   -4.5472 H   0  0  0  0  0  0  0  0  0  0  0  0
  1 13  1  0  0  0  0
  1 11  1  0  0  0  0
  2 16  1  0  0  0  0
  2 15  1  0  0  0  0
  3  9  1  0  0  0  0
  3 18  1  0  0  0  0
  3 19  1  0  0  0  0
  4  1  1  0  0  0  0
  4 21  1  0  0  0  0
  5  6  1  0  0  0  0
  6 23  1  0  0  0  0
  6  8  2  0  0  0  0
  7  5  2  0  0  0  0
  7  9  1  0  0  0  0
  8  2  1  0  0  0  0
  9 10  2  0  0  0  0
 10  8  1  0  0  0  0
 10  4  1  0  0  0  0
 12  1  1  0  0  0  0
 14  2  1  0  0  0  0
 17  3  1  0  0  0  0
 20  4  1  0  0  0  0
 22  5  1  0  0  0  0
 24  7  1  0  0  0  0
M  END
>  <HBA>
0

>  <HBD>
0

>  <TPSA>
0.0

>  <cid>
17877

>  <dipole>
0.58

>  <excitation_energy_1>
5.141

>  <excitation_energy_2>
5.638

>  <excitation_energy_3>
5.83

>  <excitation_energy_4>
5.832

>  <homo_energy>
-6.169

>  <homo_lumo_gap>
6.335

>  <logP>
2.866

>  <lumo_energy>
0.166

>  <melting_point>
16.16

>  <molecular_refractivity>
46.15

>  <oscillator_strength_1>
0.0009

>  <oscillator_strength_2>
0.0359

>  <oscillator_strength_3>
0.0039

>  <oscillator_strength_4>
0.0075

>  <open_babel_can_smiles>
CCc1c(C)cccc1C

>  <mulliken_charges>
24
1   -0.441528
2   -0.540401
3   -0.540429
4   -0.338694
5   -0.122051
6   -0.187253
7   -0.18722
8   0.131942
9   0.132107
10   0.062397
11   0.142639
12   0.150868
13   0.15098
14   0.153327
15   0.161179
16   0.16007
17   0.153334
18   0.159991
19   0.161205
20   0.141288
21   0.141259
22   0.122521
23   0.116235
24   0.116233

>  <lowdin_charges>
24
1   -0.442167
2   -0.44347
3   -0.444321
4   -0.276205
5   -0.161802
6   -0.170861
7   -0.172625
8   -0.007511
9   -0.006975
10   -0.0207
11   0.149264
12   0.150252
13   0.149512
14   0.154176
15   0.158735
16   0.157215
17   0.154584
18   0.157242
19   0.158916
20   0.149808
21   0.150493
22   0.155843
23   0.14964
24   0.150956

$$$$

