PCCDB-ID:  70502
public computational chemistry database (PCCDB) project, http://pccdb.org

 27 27  0  0  0  0  0  0  0  0999 V2000
    1.0301   -0.2031    0.0083 C   0  0  0  0  0  0  0  0  0  0  0  0
    2.9052    0.4529   -1.5083 C   0  0  0  0  0  0  0  0  0  0  0  0
    2.6364   -1.4920    2.6909 C   0  0  0  0  0  0  0  0  0  0  0  0
    4.7950   -2.3571    1.7755 C   0  0  0  0  0  0  0  0  0  0  0  0
    3.7370    1.3475    1.8043 C   0  0  0  0  0  0  0  0  0  0  0  0
    2.8411    1.3398    0.8146 C   0  0  0  0  0  0  0  0  0  0  0  0
    4.5218    0.1223    2.1984 C   0  0  0  0  0  0  0  0  0  0  0  0
    2.5409    0.1259   -0.0441 C   0  0  0  0  0  0  0  0  0  0  0  0
    3.8102   -1.1787    1.7444 C   0  0  0  0  0  0  0  0  0  0  0  0
    3.3329   -1.0690    0.3452 N   0  0  0  0  0  0  0  0  0  0  0  0
    0.4334    0.6580   -0.3173 H   0  0  0  0  0  0  0  0  0  0  0  0
    0.7081   -0.4720    1.0170 H   0  0  0  0  0  0  0  0  0  0  0  0
    0.8134   -1.0478   -0.6538 H   0  0  0  0  0  0  0  0  0  0  0  0
    2.2930    1.2765   -1.8908 H   0  0  0  0  0  0  0  0  0  0  0  0
    2.7334   -0.4246   -2.1434 H   0  0  0  0  0  0  0  0  0  0  0  0
    3.9580    0.7481   -1.5943 H   0  0  0  0  0  0  0  0  0  0  0  0
    3.0145   -1.7610    3.6842 H   0  0  0  0  0  0  0  0  0  0  0  0
    2.0518   -2.3319    2.3023 H   0  0  0  0  0  0  0  0  0  0  0  0
    1.9719   -0.6320    2.8129 H   0  0  0  0  0  0  0  0  0  0  0  0
    5.1957   -2.5037    2.7848 H   0  0  0  0  0  0  0  0  0  0  0  0
    5.6454   -2.1812    1.1032 H   0  0  0  0  0  0  0  0  0  0  0  0
    4.2979   -3.2804    1.4599 H   0  0  0  0  0  0  0  0  0  0  0  0
    3.9155    2.2644    2.3647 H   0  0  0  0  0  0  0  0  0  0  0  0
    2.2808    2.2446    0.5783 H   0  0  0  0  0  0  0  0  0  0  0  0
    4.6830    0.1104    3.2854 H   0  0  0  0  0  0  0  0  0  0  0  0
    5.5280    0.1639    1.7508 H   0  0  0  0  0  0  0  0  0  0  0  0
    4.1594   -1.0979   -0.2495 H   0  0  0  0  0  0  0  0  0  0  0  0
  1 12  1  0  0  0  0
  2  8  1  0  0  0  0
  3 19  1  0  0  0  0
  3 17  1  0  0  0  0
  4 20  1  0  0  0  0
  5  7  1  0  0  0  0
  5 23  1  0  0  0  0
  6  5  2  0  0  0  0
  7 25  1  0  0  0  0
  8  1  1  0  0  0  0
  8 10  1  0  0  0  0
  8  6  1  0  0  0  0
  9  4  1  0  0  0  0
  9  7  1  0  0  0  0
  9  3  1  0  0  0  0
 10  9  1  0  0  0  0
 11  1  1  0  0  0  0
 13  1  1  0  0  0  0
 14  2  1  0  0  0  0
 15  2  1  0  0  0  0
 16  2  1  0  0  0  0
 18  3  1  0  0  0  0
 21  4  1  0  0  0  0
 22  4  1  0  0  0  0
 24  6  1  0  0  0  0
 26  7  1  0  0  0  0
 27 10  1  0  0  0  0
M  END
>  <HBA>
1

>  <HBD>
1

>  <TPSA>
12.03

>  <cid>
70502

>  <dipole>
0.9

>  <excitation_energy_1>
5.22

>  <excitation_energy_2>
5.405

>  <excitation_energy_3>
5.862

>  <excitation_energy_4>
5.895

>  <homo_energy>
-5.753

>  <homo_lumo_gap>
6.534

>  <logP>
2.422

>  <lumo_energy>
0.781

>  <melting_point>
53.04

>  <molecular_refractivity>
49.58

>  <oscillator_strength_1>
0.0034

>  <oscillator_strength_2>
0.0218

>  <oscillator_strength_3>
0.0004

>  <oscillator_strength_4>
0.015

>  <open_babel_can_smiles>
CC1(C)CC=CC(N1)(C)C

>  <mulliken_charges>
27
1   -0.429129
2   -0.470211
3   -0.445135
4   -0.457591
5   -0.131677
6   -0.095621
7   -0.295913
8   0.192961
9   0.204666
10   -0.591512
11   0.128155
12   0.15049
13   0.146469
14   0.145735
15   0.152121
16   0.142107
17   0.133069
18   0.151167
19   0.151368
20   0.141294
21   0.129907
22   0.155426
23   0.120492
24   0.114575
25   0.133618
26   0.133944
27   0.289224

>  <lowdin_charges>
27
1   -0.446374
2   -0.44555
3   -0.450286
4   -0.44437
5   -0.177907
6   -0.182173
7   -0.286555
8   0.069701
9   0.06956
10   -0.360188
11   0.143537
12   0.153589
13   0.153517
14   0.154088
15   0.153455
16   0.146469
17   0.146025
18   0.155662
19   0.153486
20   0.149795
21   0.142443
22   0.156492
23   0.151431
24   0.151525
25   0.145359
26   0.145468
27   0.251804

$$$$

