PCCDB-ID:  8261
public computational chemistry database (PCCDB) project, http://pccdb.org

 17 16  0  0  0  0  0  0  0  0999 V2000
    1.3280    0.8081    0.2487 C   0  0  0  0  0  0  0  0  0  0  0  0
    4.1138    1.6332   -0.9733 C   0  0  0  0  0  0  0  0  0  0  0  0
    4.3614   -0.7830   -1.6839 C   0  0  0  0  0  0  0  0  0  0  0  0
    2.4868   -0.1028   -0.1193 C   0  0  0  0  0  0  0  0  0  0  0  0
    3.3812    0.3302   -1.3129 C   0  0  0  0  0  0  0  0  0  0  0  0
    2.7083   -1.1324    0.4906 O   0  0  0  0  0  0  0  0  0  0  0  0
    2.5305    0.6511   -2.4289 O   0  0  0  0  0  0  0  0  0  0  0  0
    0.8409    1.2114   -0.6424 H   0  0  0  0  0  0  0  0  0  0  0  0
    1.7034    1.6594    0.8315 H   0  0  0  0  0  0  0  0  0  0  0  0
    0.6174    0.2562    0.8676 H   0  0  0  0  0  0  0  0  0  0  0  0
    4.7492    1.5059   -0.0905 H   0  0  0  0  0  0  0  0  0  0  0  0
    3.4037    2.4434   -0.7835 H   0  0  0  0  0  0  0  0  0  0  0  0
    4.7424    1.9262   -1.8203 H   0  0  0  0  0  0  0  0  0  0  0  0
    5.0292   -1.0167   -0.8506 H   0  0  0  0  0  0  0  0  0  0  0  0
    4.9592   -0.4723   -2.5466 H   0  0  0  0  0  0  0  0  0  0  0  0
    3.8276   -1.7068   -1.9353 H   0  0  0  0  0  0  0  0  0  0  0  0
    2.1868   -0.1853   -2.7829 H   0  0  0  0  0  0  0  0  0  0  0  0
  1  9  1  0  0  0  0
  1 10  1  0  0  0  0
  2 12  1  0  0  0  0
  2 11  1  0  0  0  0
  3  5  1  0  0  0  0
  3 14  1  0  0  0  0
  4  1  1  0  0  0  0
  4  6  2  0  0  0  0
  5  2  1  0  0  0  0
  5  4  1  0  0  0  0
  7  5  1  0  0  0  0
  8  1  1  0  0  0  0
 13  2  1  0  0  0  0
 15  3  1  0  0  0  0
 16  3  1  0  0  0  0
 17  7  1  0  0  0  0
M  END
>  <HBA>
2

>  <HBD>
1

>  <TPSA>
37.3

>  <cid>
8261

>  <dipole>
1.27

>  <excitation_energy_1>
4.1

>  <excitation_energy_2>
5.838

>  <excitation_energy_3>
6.342

>  <excitation_energy_4>
6.594

>  <homo_energy>
-6.414

>  <homo_lumo_gap>
5.872

>  <logP>
0.346

>  <lumo_energy>
-0.542

>  <melting_point>
25.13

>  <molecular_refractivity>
27.55

>  <oscillator_strength_1>
0.0002

>  <oscillator_strength_2>
0.003

>  <oscillator_strength_3>
0.0159

>  <oscillator_strength_4>
0.0211

>  <open_babel_can_smiles>
CC(=O)C(O)(C)C

>  <mulliken_charges>
17
1   -0.535779
2   -0.458144
3   -0.455757
4   0.434446
5   0.224832
6   -0.440148
7   -0.633035
8   0.183478
9   0.174877
10   0.175118
11   0.154789
12   0.160285
13   0.163968
14   0.164719
15   0.149822
16   0.144097
17   0.392432

>  <lowdin_charges>
17
1   -0.481876
2   -0.445463
3   -0.454045
4   0.146179
5   0.094046
6   -0.232062
7   -0.455119
8   0.176097
9   0.175467
10   0.173382
11   0.158621
12   0.160249
13   0.164166
14   0.167141
15   0.155788
16   0.153226
17   0.344205

$$$$

