PCCDB-ID:  46244
public computational chemistry database (PCCDB) project, http://pccdb.org

 32 32  0  0  1  0  0  0  0  0999 V2000
    1.8734   -0.8258    2.6640 C   0  0  0  0  0  0  0  0  0  0  0  0
    3.9167    5.2767   -1.8611 C   0  0  0  0  0  0  0  0  0  0  0  0
    6.5974   -1.6008   -1.7895 C   0  0  0  0  0  0  0  0  0  0  0  0
    5.4308    2.2226   -3.1543 C   0  0  0  0  0  0  0  0  0  0  0  0
    5.7974    0.9422   -2.7442 C   0  0  0  0  0  0  0  0  0  0  0  0
    4.5968    2.6926   -0.9372 C   0  0  0  0  0  0  0  0  0  0  0  0
    3.4650    0.0416    1.0057 C   0  0  0  0  0  0  0  0  0  0  0  0
    4.8302    3.1054   -2.2536 C   0  0  0  0  0  0  0  0  0  0  0  0
    4.9586    1.4114   -0.5152 C   0  0  0  0  0  0  0  0  0  0  0  0
    4.6908    0.9732    0.9110 C   0  0  1  0  0  0  0  0  0  0  0  0
    5.5634    0.5305   -1.4280 C   0  0  0  0  0  0  0  0  0  0  0  0
    3.1700   -0.1966    2.4233 N   0  0  0  0  0  0  0  0  0  0  0  0
    4.4649    2.1047    1.7376 O   0  0  0  0  0  0  0  0  0  0  0  0
    4.5116    4.3441   -2.7467 O   0  0  0  0  0  0  0  0  0  0  0  0
    5.8887   -0.7166   -0.9403 O   0  0  0  0  0  0  0  0  0  0  0  0
    1.7476   -1.0027    3.7372 H   0  0  0  0  0  0  0  0  0  0  0  0
    1.7338   -1.7849    2.1350 H   0  0  0  0  0  0  0  0  0  0  0  0
    1.0774   -0.1466    2.3395 H   0  0  0  0  0  0  0  0  0  0  0  0
    3.7519    6.1836   -2.4467 H   0  0  0  0  0  0  0  0  0  0  0  0
    4.5741    5.5071   -1.0121 H   0  0  0  0  0  0  0  0  0  0  0  0
    2.9536    4.9144   -1.4764 H   0  0  0  0  0  0  0  0  0  0  0  0
    6.7989   -2.4942   -1.1947 H   0  0  0  0  0  0  0  0  0  0  0  0
    7.5489   -1.1654   -2.1236 H   0  0  0  0  0  0  0  0  0  0  0  0
    6.0044   -1.8817   -2.6708 H   0  0  0  0  0  0  0  0  0  0  0  0
    5.6109    2.5524   -4.1727 H   0  0  0  0  0  0  0  0  0  0  0  0
    6.2645    0.2753   -3.4599 H   0  0  0  0  0  0  0  0  0  0  0  0
    4.1533    3.3502   -0.2011 H   0  0  0  0  0  0  0  0  0  0  0  0
    3.6356   -0.8783    0.4261 H   0  0  0  0  0  0  0  0  0  0  0  0
    2.6027    0.5609    0.5700 H   0  0  0  0  0  0  0  0  0  0  0  0
    5.5708    0.4120    1.2703 H   0  0  0  0  0  0  0  0  0  0  0  0
    3.9050   -0.7836    2.8173 H   0  0  0  0  0  0  0  0  0  0  0  0
    3.9297    1.7450    2.4740 H   0  0  0  0  0  0  0  0  0  0  0  0
  1 16  1  0  0  0  0
  2 21  1  0  0  0  0
  2 20  1  0  0  0  0
  3 22  1  0  0  0  0
  3 15  1  0  0  0  0
  4  5  2  0  0  0  0
  4  8  1  0  0  0  0
  5 11  1  0  0  0  0
  6  9  1  0  0  0  0
  6 27  1  0  0  0  0
  7 12  1  0  0  0  0
  8  6  2  0  0  0  0
  9 10  1  0  0  0  0
 10  7  1  0  0  0  0
 10 30  1  1  0  0  0
 10 13  1  0  0  0  0
 11 15  1  0  0  0  0
 11  9  2  0  0  0  0
 12  1  1  0  0  0  0
 12 31  1  0  0  0  0
 13 32  1  0  0  0  0
 14  8  1  0  0  0  0
 14  2  1  0  0  0  0
 17  1  1  0  0  0  0
 18  1  1  0  0  0  0
 19  2  1  0  0  0  0
 23  3  1  0  0  0  0
 24  3  1  0  0  0  0
 25  4  1  0  0  0  0
 26  5  1  0  0  0  0
 28  7  1  0  0  0  0
 29  7  1  0  0  0  0
M  END
>  <HBA>
4

>  <HBD>
2

>  <TPSA>
50.72

>  <cid>
46244

>  <dipole>
2.88

>  <excitation_energy_1>
4.621

>  <excitation_energy_2>
4.839

>  <excitation_energy_3>
5.056

>  <excitation_energy_4>
5.252

>  <homo_energy>
-5.162

>  <homo_lumo_gap>
5.355

>  <logP>
1.347

>  <lumo_energy>
0.193

>  <melting_point>
63.84

>  <molecular_refractivity>
57.97

>  <oscillator_strength_1>
0.0853

>  <oscillator_strength_2>
0.0009

>  <oscillator_strength_3>
0.0007

>  <oscillator_strength_4>
0.006

>  <open_babel_can_smiles>
CNC[C@@H](c1cc(OC)ccc1OC)O

>  <mulliken_charges>
32
1   -0.298228
2   -0.211401
3   -0.211614
4   -0.181775
5   -0.197149
6   -0.260445
7   -0.154402
8   0.383444
9   0.063404
10   0.102708
11   0.323986
12   -0.573849
13   -0.658065
14   -0.517281
15   -0.526098
16   0.152149
17   0.129673
18   0.158662
19   0.162642
20   0.154721
21   0.148236
22   0.163685
23   0.151901
24   0.148957
25   0.133069
26   0.129331
27   0.158222
28   0.143034
29   0.147587
30   0.125354
31   0.303849
32   0.405691

>  <lowdin_charges>
32
1   -0.357214
2   -0.279033
3   -0.279002
4   -0.178062
5   -0.204037
6   -0.205715
7   -0.225088
8   0.08816
9   -0.030121
10   -0.000912
11   0.07577
12   -0.366009
13   -0.473119
14   -0.207362
15   -0.214146
16   0.150725
17   0.127397
18   0.153382
19   0.159185
20   0.14691
21   0.142764
22   0.159814
23   0.144874
24   0.143222
25   0.1638
26   0.163063
27   0.178688
28   0.139142
29   0.14903
30   0.13409
31   0.257722
32   0.342084

$$$$

