PCCDB-ID:  15077
public computational chemistry database (PCCDB) project, http://pccdb.org

 30 29  0  0  0  0  0  0  0  0999 V2000
    6.0876   -2.3985    3.0916 C   0  0  0  0  0  0  0  0  0  0  0  0
    6.6481   -1.3735    2.1005 C   0  0  0  0  0  0  0  0  0  0  0  0
    5.8539   -0.0608    2.0712 C   0  0  0  0  0  0  0  0  0  0  0  0
    6.4176    0.9659    1.0785 C   0  0  0  0  0  0  0  0  0  0  0  0
    5.6051    2.2669    0.9543 C   0  0  0  0  0  0  0  0  0  0  0  0
    5.6058    3.1377    2.2187 C   0  0  0  0  0  0  0  0  0  0  0  0
    4.7552    4.4183    2.1122 C   0  0  0  0  0  0  0  0  0  0  0  0
    5.1431    5.4664    1.0499 C   0  0  0  0  0  0  0  0  0  0  0  0
    6.3191    6.3964    1.3820 C   0  0  0  0  0  0  0  0  0  0  0  0
    8.0317    5.7359    1.1536 S   0  0  0  0  0  0  0  0  0  0  0  0
    6.6765   -3.3229    3.0884 H   0  0  0  0  0  0  0  0  0  0  0  0
    5.0518   -2.6631    2.8454 H   0  0  0  0  0  0  0  0  0  0  0  0
    6.0931   -2.0045    4.1155 H   0  0  0  0  0  0  0  0  0  0  0  0
    6.6633   -1.8097    1.0915 H   0  0  0  0  0  0  0  0  0  0  0  0
    7.6962   -1.1566    2.3521 H   0  0  0  0  0  0  0  0  0  0  0  0
    5.8337    0.3638    3.0846 H   0  0  0  0  0  0  0  0  0  0  0  0
    4.8064   -0.2778    1.8115 H   0  0  0  0  0  0  0  0  0  0  0  0
    6.4774    0.4965    0.0863 H   0  0  0  0  0  0  0  0  0  0  0  0
    7.4531    1.2118    1.3575 H   0  0  0  0  0  0  0  0  0  0  0  0
    4.5663    2.0210    0.6852 H   0  0  0  0  0  0  0  0  0  0  0  0
    6.0109    2.8464    0.1156 H   0  0  0  0  0  0  0  0  0  0  0  0
    6.6423    3.3818    2.4831 H   0  0  0  0  0  0  0  0  0  0  0  0
    5.2111    2.5554    3.0616 H   0  0  0  0  0  0  0  0  0  0  0  0
    4.7291    4.9122    3.0949 H   0  0  0  0  0  0  0  0  0  0  0  0
    3.7191    4.1114    1.9097 H   0  0  0  0  0  0  0  0  0  0  0  0
    4.2719    6.1232    0.9092 H   0  0  0  0  0  0  0  0  0  0  0  0
    5.3206    4.9917    0.0780 H   0  0  0  0  0  0  0  0  0  0  0  0
    6.2322    6.7943    2.3987 H   0  0  0  0  0  0  0  0  0  0  0  0
    6.2995    7.2569    0.7055 H   0  0  0  0  0  0  0  0  0  0  0  0
    8.0996    4.9982    2.2809 H   0  0  0  0  0  0  0  0  0  0  0  0
  1 13  1  0  0  0  0
  2 15  1  0  0  0  0
  2  1  1  0  0  0  0
  3  2  1  0  0  0  0
  3 16  1  0  0  0  0
  4 19  1  0  0  0  0
  4  3  1  0  0  0  0
  5  4  1  0  0  0  0
  5  6  1  0  0  0  0
  6 22  1  0  0  0  0
  6 23  1  0  0  0  0
  7  6  1  0  0  0  0
  7 24  1  0  0  0  0
  8  9  1  0  0  0  0
  8  7  1  0  0  0  0
  9 28  1  0  0  0  0
 10  9  1  0  0  0  0
 10 30  1  0  0  0  0
 11  1  1  0  0  0  0
 12  1  1  0  0  0  0
 14  2  1  0  0  0  0
 17  3  1  0  0  0  0
 18  4  1  0  0  0  0
 20  5  1  0  0  0  0
 21  5  1  0  0  0  0
 25  7  1  0  0  0  0
 26  8  1  0  0  0  0
 27  8  1  0  0  0  0
 29  9  1  0  0  0  0
M  END
>  <HBA>
1

>  <HBD>
1

>  <TPSA>
38.8

>  <cid>
15077

>  <dipole>
1.75

>  <excitation_energy_1>
5.235

>  <excitation_energy_2>
5.77

>  <excitation_energy_3>
6.098

>  <excitation_energy_4>
6.264

>  <homo_energy>
-6.34

>  <homo_lumo_gap>
7.102

>  <logP>
3.667

>  <lumo_energy>
0.762

>  <melting_point>
-8.3

>  <molecular_refractivity>
53.31

>  <oscillator_strength_1>
0.0137

>  <oscillator_strength_2>
0.0243

>  <oscillator_strength_3>
0.0126

>  <oscillator_strength_4>
0.012

>  <open_babel_can_smiles>
CCCCCCCCCS

>  <mulliken_charges>
30
1   -0.441485
2   -0.246431
3   -0.247201
4   -0.256024
5   -0.258512
6   -0.249831
7   -0.262027
8   -0.246961
9   -0.416412
10   -0.085798
11   0.141374
12   0.14069
13   0.140188
14   0.130066
15   0.130208
16   0.129841
17   0.124525
18   0.127751
19   0.128662
20   0.122593
21   0.144269
22   0.120675
23   0.13368
24   0.125667
25   0.133498
26   0.136932
27   0.156502
28   0.1735
29   0.178688
30   0.091373

>  <lowdin_charges>
30
1   -0.44243
2   -0.269834
3   -0.275211
4   -0.272972
5   -0.27809
6   -0.279071
7   -0.276035
8   -0.28311
9   -0.370833
10   -0.095412
11   0.149021
12   0.144796
13   0.14459
14   0.137818
15   0.137432
16   0.136682
17   0.134819
18   0.14032
19   0.137431
20   0.134491
21   0.147779
22   0.134453
23   0.143186
24   0.138995
25   0.142267
26   0.148724
27   0.152234
28   0.158349
29   0.168779
30   0.110832

$$$$

