PCCDB-ID:  69216
public computational chemistry database (PCCDB) project, http://pccdb.org

 14 14  0  0  1  0  0  0  0  0999 V2000
    0.9971    0.0005    0.0272 C   0  0  0  0  0  0  0  0  0  0  0  0
    2.5310   -0.0349   -0.0097 C   0  0  2  0  0  0  0  0  0  0  0  0
    3.1551    1.1349   -0.7660 C   0  0  0  0  0  0  0  0  0  0  0  0
    3.7829   -0.6472   -1.6658 C   0  0  0  0  0  0  0  0  0  0  0  0
    3.0533   -1.1825   -0.7431 N   0  0  0  0  0  0  0  0  0  0  0  0
    3.8954    0.7551   -1.7493 N   0  0  0  0  0  0  0  0  0  0  0  0
    2.9716    2.4271   -0.4734 O   0  0  0  0  0  0  0  0  0  0  0  0
    4.4642   -1.3425   -2.5821 O   0  0  0  0  0  0  0  0  0  0  0  0
    0.6244    0.8785    0.5711 H   0  0  0  0  0  0  0  0  0  0  0  0
    0.6220   -0.8942    0.5308 H   0  0  0  0  0  0  0  0  0  0  0  0
    0.5907    0.0207   -0.9886 H   0  0  0  0  0  0  0  0  0  0  0  0
    2.9169   -0.0479    1.0221 H   0  0  0  0  0  0  0  0  0  0  0  0
    2.3727    2.5035    0.2866 H   0  0  0  0  0  0  0  0  0  0  0  0
    4.2925   -2.2819   -2.3921 H   0  0  0  0  0  0  0  0  0  0  0  0
  1 10  1  0  0  0  0
  1  9  1  0  0  0  0
  2  1  1  0  0  0  0
  2 12  1  1  0  0  0
  3  7  1  0  0  0  0
  3  2  1  0  0  0  0
  4  5  2  0  0  0  0
  5  2  1  0  0  0  0
  6  4  2  0  0  0  0
  6  3  2  0  0  0  0
  7 13  1  0  0  0  0
  8 14  1  0  0  0  0
  8  4  1  0  0  0  0
 11  1  1  0  0  0  0
M  END
>  <HBA>
4

>  <HBD>
2

>  <TPSA>
58.2

>  <cid>
69216

>  <dipole>
3.95

>  <excitation_energy_1>
5.212

>  <excitation_energy_2>
5.3

>  <excitation_energy_3>
5.73

>  <excitation_energy_4>
6.121

>  <homo_energy>
-6.664

>  <homo_lumo_gap>
6.052

>  <logP>
-0.128

>  <lumo_energy>
-0.612

>  <melting_point>
104.82

>  <molecular_refractivity>
33.45

>  <oscillator_strength_1>
0.0312

>  <oscillator_strength_2>
0.0023

>  <oscillator_strength_3>
0.0194

>  <oscillator_strength_4>
0.0025

>  <open_babel_can_smiles>
C[C@H]1N=[C](=[N]=C1O)O

>  <mulliken_charges>
14
1   -0.44142
2   -0.074912
3   0.518338
4   0.618159
5   -0.480238
6   -0.465308
7   -0.576863
8   -0.590225
9   0.126998
10   0.180939
11   0.172652
12   0.168742
13   0.423939
14   0.4192

>  <lowdin_charges>
14
1   -0.439617
2   -0.091795
3   0.135818
4   0.145442
5   -0.288895
6   -0.195802
7   -0.317087
8   -0.328338
9   0.142524
10   0.172169
11   0.164165
12   0.162424
13   0.370222
14   0.368771

$$$$

