PCCDB-ID:  17433
public computational chemistry database (PCCDB) project, http://pccdb.org

 22 21  0  0  0  0  0  0  0  0999 V2000
    0.7147    0.2893    2.3707 C   0  0  0  0  0  0  0  0  0  0  0  0
    4.7792    1.1838   -1.8492 C   0  0  0  0  0  0  0  0  0  0  0  0
    4.9242   -1.3217   -1.4999 C   0  0  0  0  0  0  0  0  0  0  0  0
    2.1956    0.4137    2.6779 C   0  0  0  0  0  0  0  0  0  0  0  0
    4.3995    0.0073   -0.9400 C   0  0  0  0  0  0  0  0  0  0  0  0
    4.2462    0.3331    1.4058 C   0  0  0  0  0  0  0  0  0  0  0  0
    4.9847    0.2255    0.3831 N   0  0  0  0  0  0  0  0  0  0  0  0
    4.7863    0.5352    2.6371 O   0  0  0  0  0  0  0  0  0  0  0  0
    2.9001    0.2680    1.4257 O   0  0  0  0  0  0  0  0  0  0  0  0
    0.1340    0.3921    3.2938 H   0  0  0  0  0  0  0  0  0  0  0  0
    0.4898   -0.6855    1.9266 H   0  0  0  0  0  0  0  0  0  0  0  0
    0.3952    1.0688    1.6718 H   0  0  0  0  0  0  0  0  0  0  0  0
    4.3817    1.0390   -2.8609 H   0  0  0  0  0  0  0  0  0  0  0  0
    5.8692    1.2793   -1.9144 H   0  0  0  0  0  0  0  0  0  0  0  0
    4.3804    2.1250   -1.4553 H   0  0  0  0  0  0  0  0  0  0  0  0
    4.5248   -1.5063   -2.5044 H   0  0  0  0  0  0  0  0  0  0  0  0
    4.6327   -2.1584   -0.8556 H   0  0  0  0  0  0  0  0  0  0  0  0
    6.0187   -1.3056   -1.5586 H   0  0  0  0  0  0  0  0  0  0  0  0
    2.5286   -0.3628    3.3743 H   0  0  0  0  0  0  0  0  0  0  0  0
    2.4347    1.3877    3.1174 H   0  0  0  0  0  0  0  0  0  0  0  0
    3.3031   -0.0487   -0.8866 H   0  0  0  0  0  0  0  0  0  0  0  0
    5.7467    0.5579    2.4793 H   0  0  0  0  0  0  0  0  0  0  0  0
  1  4  1  0  0  0  0
  1 10  1  0  0  0  0
  2 15  1  0  0  0  0
  2  5  1  0  0  0  0
  3  5  1  0  0  0  0
  3 17  1  0  0  0  0
  4 20  1  0  0  0  0
  4 19  1  0  0  0  0
  5 21  1  0  0  0  0
  5  7  1  0  0  0  0
  6  9  1  0  0  0  0
  6  8  1  0  0  0  0
  7  6  2  0  0  0  0
  9  4  1  0  0  0  0
 11  1  1  0  0  0  0
 12  1  1  0  0  0  0
 13  2  1  0  0  0  0
 14  2  1  0  0  0  0
 16  3  1  0  0  0  0
 18  3  1  0  0  0  0
 22  8  1  0  0  0  0
M  END
>  <HBA>
3

>  <HBD>
1

>  <TPSA>
38.33

>  <cid>
17433

>  <dipole>
1.84

>  <excitation_energy_1>
5.829

>  <excitation_energy_2>
6.37

>  <excitation_energy_3>
6.424

>  <excitation_energy_4>
6.579

>  <homo_energy>
-6.327

>  <homo_lumo_gap>
7.938

>  <logP>
1.532

>  <lumo_energy>
1.611

>  <melting_point>
23.39

>  <molecular_refractivity>
35.43

>  <oscillator_strength_1>
0.0053

>  <oscillator_strength_2>
0.0006

>  <oscillator_strength_3>
0.0327

>  <oscillator_strength_4>
0.0046

>  <open_babel_can_smiles>
CCO/C(=N\C(C)C)/O

>  <mulliken_charges>
22
1   -0.460466
2   -0.427374
3   -0.427224
4   -0.022533
5   0.019123
6   0.724734
7   -0.498638
8   -0.610918
9   -0.479161
10   0.151591
11   0.163974
12   0.163942
13   0.132633
14   0.145611
15   0.140103
16   0.132537
17   0.140107
18   0.145481
19   0.157178
20   0.156902
21   0.132532
22   0.419864

>  <lowdin_charges>
22
1   -0.449578
2   -0.442553
3   -0.443191
4   -0.118405
5   -0.046594
6   0.187635
7   -0.272386
8   -0.373734
9   -0.20293
10   0.159169
11   0.15978
12   0.160914
13   0.144567
14   0.148265
15   0.148722
16   0.144639
17   0.149378
18   0.148102
19   0.150505
20   0.149013
21   0.130748
22   0.367935

$$$$

