PCCDB-ID:  7601
public computational chemistry database (PCCDB) project, http://pccdb.org

 34 35  0  0  0  0  0  0  0  0999 V2000
   -1.7159   -5.5218   -0.3488 C   0  0  0  0  0  0  0  0  0  0  0  0
    9.2068   -2.1717    0.4028 C   0  0  0  0  0  0  0  0  0  0  0  0
   -1.8070   -4.2677    0.2569 C   0  0  0  0  0  0  0  0  0  0  0  0
   -0.6426   -5.8018   -1.1971 C   0  0  0  0  0  0  0  0  0  0  0  0
    8.7163   -2.8047   -0.7421 C   0  0  0  0  0  0  0  0  0  0  0  0
    8.4865   -1.1214    0.9718 C   0  0  0  0  0  0  0  0  0  0  0  0
   -0.8294   -3.3012    0.0153 C   0  0  0  0  0  0  0  0  0  0  0  0
    0.3316   -4.8325   -1.4371 C   0  0  0  0  0  0  0  0  0  0  0  0
    7.5156   -2.3881   -1.3154 C   0  0  0  0  0  0  0  0  0  0  0  0
    7.2832   -0.7056    0.3979 C   0  0  0  0  0  0  0  0  0  0  0  0
    1.3337   -2.5365   -1.0697 C   0  0  0  0  0  0  0  0  0  0  0  0
    2.5283   -2.7607   -0.1347 C   0  0  0  0  0  0  0  0  0  0  0  0
    5.4819   -0.8712   -1.3825 C   0  0  0  0  0  0  0  0  0  0  0  0
    0.2515   -3.5689   -0.8347 C   0  0  0  0  0  0  0  0  0  0  0  0
    6.7885   -1.3305   -0.7518 C   0  0  0  0  0  0  0  0  0  0  0  0
    4.4261   -1.9649   -1.3291 C   0  0  0  0  0  0  0  0  0  0  0  0
    4.3911   -2.9220   -2.0741 O   0  0  0  0  0  0  0  0  0  0  0  0
    3.5475   -1.7517   -0.3252 O   0  0  0  0  0  0  0  0  0  0  0  0
   -2.4771   -6.2749   -0.1635 H   0  0  0  0  0  0  0  0  0  0  0  0
   10.1439   -2.4959    0.8475 H   0  0  0  0  0  0  0  0  0  0  0  0
   -2.6422   -4.0387    0.9139 H   0  0  0  0  0  0  0  0  0  0  0  0
   -0.5661   -6.7741   -1.6768 H   0  0  0  0  0  0  0  0  0  0  0  0
    9.2706   -3.6248   -1.1910 H   0  0  0  0  0  0  0  0  0  0  0  0
    8.8586   -0.6234    1.8634 H   0  0  0  0  0  0  0  0  0  0  0  0
   -0.9097   -2.3235    0.4863 H   0  0  0  0  0  0  0  0  0  0  0  0
    1.1624   -5.0531   -2.1041 H   0  0  0  0  0  0  0  0  0  0  0  0
    7.1275   -2.8893   -2.1976 H   0  0  0  0  0  0  0  0  0  0  0  0
    6.7255    0.1138    0.8452 H   0  0  0  0  0  0  0  0  0  0  0  0
    1.6914   -2.5884   -2.1033 H   0  0  0  0  0  0  0  0  0  0  0  0
    0.9423   -1.5259   -0.9042 H   0  0  0  0  0  0  0  0  0  0  0  0
    2.9680   -3.7478   -0.2959 H   0  0  0  0  0  0  0  0  0  0  0  0
    2.2317   -2.6603    0.9120 H   0  0  0  0  0  0  0  0  0  0  0  0
    5.6380   -0.6330   -2.4405 H   0  0  0  0  0  0  0  0  0  0  0  0
    5.1099    0.0227   -0.8764 H   0  0  0  0  0  0  0  0  0  0  0  0
  1 19  1  0  0  0  0
  1  3  2  0  0  0  0
  2 20  1  0  0  0  0
  2  6  1  0  0  0  0
  3 21  1  0  0  0  0
  4  1  1  0  0  0  0
  5  2  2  0  0  0  0
  6 24  1  0  0  0  0
  7  3  1  0  0  0  0
  7 25  1  0  0  0  0
  8  4  2  0  0  0  0
  8 14  1  0  0  0  0
  9 15  2  0  0  0  0
  9  5  1  0  0  0  0
 10 28  1  0  0  0  0
 10  6  2  0  0  0  0
 11 30  1  0  0  0  0
 11 14  1  0  0  0  0
 11 12  1  0  0  0  0
 12 32  1  0  0  0  0
 13 16  1  0  0  0  0
 13 34  1  0  0  0  0
 13 15  1  0  0  0  0
 14  7  2  0  0  0  0
 15 10  1  0  0  0  0
 16 18  1  0  0  0  0
 17 16  2  0  0  0  0
 18 12  1  0  0  0  0
 22  4  1  0  0  0  0
 23  5  1  0  0  0  0
 26  8  1  0  0  0  0
 27  9  1  0  0  0  0
 29 11  1  0  0  0  0
 31 12  1  0  0  0  0
 33 13  1  0  0  0  0
M  END
>  <HBA>
2

>  <HBD>
0

>  <TPSA>
26.3

>  <cid>
7601

>  <dipole>
1.44

>  <excitation_energy_1>
5.254

>  <excitation_energy_2>
5.308

>  <excitation_energy_3>
5.421

>  <excitation_energy_4>
5.736

>  <homo_energy>
-6.558

>  <homo_lumo_gap>
6.316

>  <logP>
3.015

>  <lumo_energy>
-0.242

>  <melting_point>
47.99

>  <molecular_refractivity>
71.6

>  <oscillator_strength_1>
0.0007

>  <oscillator_strength_2>
0.0002

>  <oscillator_strength_3>
0.0696

>  <oscillator_strength_4>
0.0098

>  <open_babel_can_smiles>
O=C(Cc1ccccc1)OCCc1ccccc1

>  <mulliken_charges>
34
1   -0.129932
2   -0.128478
3   -0.127364
4   -0.128099
5   -0.129673
6   -0.128408
7   -0.181887
8   -0.18098
9   -0.168912
10   -0.179702
11   -0.368993
12   -0.042513
13   -0.42493
14   0.153861
15   0.148023
16   0.62496
17   -0.477153
18   -0.458201
19   0.129547
20   0.129525
21   0.129653
22   0.131498
23   0.13199
24   0.129923
25   0.123815
26   0.139217
27   0.150982
28   0.126929
29   0.173206
30   0.151033
31   0.173718
32   0.157483
33   0.181345
34   0.168515

>  <lowdin_charges>
34
1   -0.160037
2   -0.157846
3   -0.155017
4   -0.153212
5   -0.153691
6   -0.155534
7   -0.167561
8   -0.164724
9   -0.160662
10   -0.166369
11   -0.282843
12   -0.128945
13   -0.292268
14   -0.004608
15   -0.002119
16   0.202932
17   -0.273733
18   -0.18875
19   0.158602
20   0.157763
21   0.158095
22   0.158034
23   0.159607
24   0.158328
25   0.153942
26   0.161675
27   0.168475
28   0.157121
29   0.163907
30   0.152893
31   0.160015
32   0.154344
33   0.174174
34   0.168014

$$$$

