PCCDB-ID:  22681
public computational chemistry database (PCCDB) project, http://pccdb.org

 23 23  0  0  0  0  0  0  0  0999 V2000
    4.5298    2.4328    0.3558 C   0  0  0  0  0  0  0  0  0  0  0  0
    3.1497   -2.1582   -1.4288 C   0  0  0  0  0  0  0  0  0  0  0  0
    3.0259   -3.4632   -1.9612 C   0  0  0  0  0  0  0  0  0  0  0  0
    4.9591   -0.3372   -1.8701 C   0  0  0  0  0  0  0  0  0  0  0  0
    4.2883   -1.6101   -1.9873 C   0  0  0  0  0  0  0  0  0  0  0  0
    4.0943   -3.6165   -2.8062 C   0  0  0  0  0  0  0  0  0  0  0  0
    6.0725    2.3091   -1.5941 C   0  0  0  0  0  0  0  0  0  0  0  0
    6.3592    2.1628   -2.8276 N   0  0  0  0  0  0  0  0  0  0  0  0
    4.4724    0.5330   -1.0470 N   0  0  0  0  0  0  0  0  0  0  0  0
    5.0321    1.7466   -0.8389 N   0  0  0  0  0  0  0  0  0  0  0  0
    4.4859   -4.7203   -3.6150 N   0  0  0  0  0  0  0  0  0  0  0  0
    6.8169    3.1332   -0.8183 O   0  0  0  0  0  0  0  0  0  0  0  0
    3.7525   -5.7150   -3.5605 O   0  0  0  0  0  0  0  0  0  0  0  0
    5.5052   -4.6087   -4.2970 O   0  0  0  0  0  0  0  0  0  0  0  0
    4.8692   -2.5069   -2.8382 O   0  0  0  0  0  0  0  0  0  0  0  0
    4.5554    3.5121    0.2018 H   0  0  0  0  0  0  0  0  0  0  0  0
    5.1265    2.1848    1.2404 H   0  0  0  0  0  0  0  0  0  0  0  0
    3.5018    2.1013    0.5075 H   0  0  0  0  0  0  0  0  0  0  0  0
    2.4967   -1.6647   -0.7244 H   0  0  0  0  0  0  0  0  0  0  0  0
    2.2658   -4.2038   -1.7649 H   0  0  0  0  0  0  0  0  0  0  0  0
    5.8671   -0.2098   -2.4581 H   0  0  0  0  0  0  0  0  0  0  0  0
    5.6653    1.6145   -3.3304 H   0  0  0  0  0  0  0  0  0  0  0  0
    7.4469    3.5574   -1.4296 H   0  0  0  0  0  0  0  0  0  0  0  0
  1 18  1  0  0  0  0
  1 17  1  0  0  0  0
  2 19  1  0  0  0  0
  3 20  1  0  0  0  0
  3  2  1  0  0  0  0
  4  9  2  0  0  0  0
  5  4  1  0  0  0  0
  5  2  2  0  0  0  0
  6  3  2  0  0  0  0
  7 10  1  0  0  0  0
  7 12  1  0  0  0  0
  8  7  2  0  0  0  0
  9 10  1  0  0  0  0
 10  1  1  0  0  0  0
 11 13  2  0  0  0  0
 11  6  1  0  0  0  0
 14 11  2  0  0  0  0
 15  6  1  0  0  0  0
 15  5  1  0  0  0  0
 16  1  1  0  0  0  0
 21  4  1  0  0  0  0
 22  8  1  0  0  0  0
 23 12  1  0  0  0  0
M  END
>  <HBA>
5

>  <HBD>
1

>  <TPSA>
117.65

>  <cid>
22681

>  <dipole>
6.77

>  <excitation_energy_1>
3.25

>  <excitation_energy_2>
3.694

>  <excitation_energy_3>
4.174

>  <excitation_energy_4>
4.212

>  <homo_energy>
-6.163

>  <homo_lumo_gap>
3.538

>  <logP>
1.756

>  <lumo_energy>
-2.626

>  <melting_point>
151.32

>  <molecular_refractivity>
51.99

>  <oscillator_strength_1>
0.5587

>  <oscillator_strength_2>
0.0

>  <oscillator_strength_3>
0.1625

>  <oscillator_strength_4>
0.0014

>  <open_babel_can_smiles>
CN(C(=N)O)/N=C/c1ccc(o1)N(=O)=O

>  <mulliken_charges>
23
1   -0.289928
2   -0.195007
3   -0.145337
4   -0.045226
5   0.378923
6   0.533097
7   0.656782
8   -0.626927
9   -0.258446
10   -0.298604
11   0.327348
12   -0.585792
13   -0.408849
14   -0.394177
15   -0.460167
16   0.178899
17   0.17781
18   0.182314
19   0.171612
20   0.189099
21   0.179328
22   0.305012
23   0.428238

>  <lowdin_charges>
23
1   -0.340668
2   -0.187745
3   -0.151
4   -0.147913
5   0.095065
6   0.065262
7   0.152129
8   -0.44529
9   -0.076993
10   -0.034922
11   0.302972
12   -0.359684
13   -0.261349
14   -0.242408
15   -0.06457
16   0.166611
17   0.161924
18   0.171354
19   0.187142
20   0.196161
21   0.16916
22   0.270345
23   0.374417

$$$$

