PCCDB-ID:  62339
public computational chemistry database (PCCDB) project, http://pccdb.org

 25 26  0  0  0  0  0  0  0  0999 V2000
   -1.4483    0.0564   -0.5381 C   0  0  0  0  0  0  0  0  0  0  0  0
   -0.8206   -0.9728    0.1697 C   0  0  0  0  0  0  0  0  0  0  0  0
   -0.6815    1.1325   -0.9785 C   0  0  0  0  0  0  0  0  0  0  0  0
    0.5437   -0.9234    0.4346 C   0  0  0  0  0  0  0  0  0  0  0  0
    0.6921    1.1835   -0.7298 C   0  0  0  0  0  0  0  0  0  0  0  0
    3.4433    1.4249    0.0256 C   0  0  0  0  0  0  0  0  0  0  0  0
    3.5084   -0.9885   -0.0565 C   0  0  0  0  0  0  0  0  0  0  0  0
    4.7955    1.3884    0.7378 C   0  0  0  0  0  0  0  0  0  0  0  0
    4.8585   -0.9418    0.6542 C   0  0  0  0  0  0  0  0  0  0  0  0
    1.3313    0.1559   -0.0141 C   0  0  0  0  0  0  0  0  0  0  0  0
    2.7106    0.1923    0.3016 N   0  0  0  0  0  0  0  0  0  0  0  0
    5.5603    0.2558    0.3529 O   0  0  0  0  0  0  0  0  0  0  0  0
   -2.5153    0.0189   -0.7373 H   0  0  0  0  0  0  0  0  0  0  0  0
   -1.4014   -1.8167    0.5337 H   0  0  0  0  0  0  0  0  0  0  0  0
   -1.1475    1.9424   -1.5344 H   0  0  0  0  0  0  0  0  0  0  0  0
    1.0022   -1.7141    1.0209 H   0  0  0  0  0  0  0  0  0  0  0  0
    1.2623    2.0235   -1.1104 H   0  0  0  0  0  0  0  0  0  0  0  0
    3.6108    1.5739   -1.0575 H   0  0  0  0  0  0  0  0  0  0  0  0
    2.8661    2.2772    0.3987 H   0  0  0  0  0  0  0  0  0  0  0  0
    2.9773   -1.8981    0.2330 H   0  0  0  0  0  0  0  0  0  0  0  0
    3.6753   -1.0308   -1.1481 H   0  0  0  0  0  0  0  0  0  0  0  0
    4.6336    1.3830    1.8284 H   0  0  0  0  0  0  0  0  0  0  0  0
    5.3885    2.2696    0.4748 H   0  0  0  0  0  0  0  0  0  0  0  0
    5.4942   -1.7678    0.3208 H   0  0  0  0  0  0  0  0  0  0  0  0
    4.7063   -1.0285    1.7430 H   0  0  0  0  0  0  0  0  0  0  0  0
  1  2  2  0  0  0  0
  2  4  1  0  0  0  0
  2 14  1  0  0  0  0
  3  5  2  0  0  0  0
  3  1  1  0  0  0  0
  4 16  1  0  0  0  0
  5 10  1  0  0  0  0
  6 11  1  0  0  0  0
  6 19  1  0  0  0  0
  6  8  1  0  0  0  0
  7 20  1  0  0  0  0
  7 11  1  0  0  0  0
  7  9  1  0  0  0  0
  8 22  1  0  0  0  0
  9 25  1  0  0  0  0
 10 11  1  0  0  0  0
 10  4  2  0  0  0  0
 12  9  1  0  0  0  0
 12  8  1  0  0  0  0
 13  1  1  0  0  0  0
 15  3  1  0  0  0  0
 17  5  1  0  0  0  0
 18  6  1  0  0  0  0
 21  7  1  0  0  0  0
 23  8  1  0  0  0  0
 24  9  1  0  0  0  0
M  END
>  <HBA>
2

>  <HBD>
0

>  <TPSA>
12.47

>  <cid>
62339

>  <dipole>
0.32

>  <excitation_energy_1>
4.569

>  <excitation_energy_2>
4.919

>  <excitation_energy_3>
5.119

>  <excitation_energy_4>
5.351

>  <homo_energy>
-5.388

>  <homo_lumo_gap>
5.505

>  <logP>
1.588

>  <lumo_energy>
0.117

>  <melting_point>
24.96

>  <molecular_refractivity>
52.17

>  <oscillator_strength_1>
0.0271

>  <oscillator_strength_2>
0.1298

>  <oscillator_strength_3>
0.1065

>  <oscillator_strength_4>
0.0167

>  <open_babel_can_smiles>
O1CCN(CC1)c1ccccc1

>  <mulliken_charges>
25
1   -0.132033
2   -0.136549
3   -0.140589
4   -0.170613
5   -0.187244
6   -0.139549
7   -0.146294
8   -0.034851
9   -0.0322
10   0.331571
11   -0.504445
12   -0.466115
13   0.12324
14   0.126072
15   0.126113
16   0.125917
17   0.127909
18   0.132799
19   0.153493
20   0.151265
21   0.137926
22   0.130574
23   0.147002
24   0.14749
25   0.129113

>  <lowdin_charges>
25
1   -0.176356
2   -0.151305
3   -0.150159
4   -0.186623
5   -0.203293
6   -0.21419
7   -0.207302
8   -0.135549
9   -0.137341
10   0.054308
11   -0.149203
12   -0.271203
13   0.153938
14   0.157058
15   0.156946
16   0.157255
17   0.160015
18   0.12801
19   0.158748
20   0.15752
21   0.131335
22   0.130435
23   0.153304
24   0.15392
25   0.129731

$$$$

