PCCDB-ID:  40838
public computational chemistry database (PCCDB) project, http://pccdb.org

 18 18  0  0  1  0  0  0  0  0999 V2000
   -1.5058   -0.1438   -0.1138 C   0  0  0  0  0  0  0  0  0  0  0  0
   -0.8186    0.7153   -0.9749 C   0  0  0  0  0  0  0  0  0  0  0  0
   -0.8008   -0.8586    0.8538 C   0  0  0  0  0  0  0  0  0  0  0  0
    0.5637    0.8590   -0.8676 C   0  0  0  0  0  0  0  0  0  0  0  0
    0.5844   -0.7168    0.9637 C   0  0  0  0  0  0  0  0  0  0  0  0
    3.4398   -0.6114    1.1165 C   0  0  0  0  0  0  0  0  0  0  0  0
    1.2750    0.1430    0.1045 C   0  0  0  0  0  0  0  0  0  0  0  0
    2.7865    0.3638    0.2065 C   0  0  2  0  0  0  0  0  0  0  0  0
    4.0090   -1.3733    1.7834 N   0  0  0  0  0  0  0  0  0  0  0  0
    3.4020    0.3875   -1.1263 N   0  0  0  0  0  0  0  0  0  0  0  0
   -2.5830   -0.2577   -0.2006 H   0  0  0  0  0  0  0  0  0  0  0  0
   -1.3601    1.2758   -1.7323 H   0  0  0  0  0  0  0  0  0  0  0  0
   -1.3251   -1.5331    1.5253 H   0  0  0  0  0  0  0  0  0  0  0  0
    1.1042    1.5152   -1.5422 H   0  0  0  0  0  0  0  0  0  0  0  0
    1.1251   -1.2821    1.7173 H   0  0  0  0  0  0  0  0  0  0  0  0
    2.9612    1.3560    0.6467 H   0  0  0  0  0  0  0  0  0  0  0  0
    3.3062   -0.5276   -1.5644 H   0  0  0  0  0  0  0  0  0  0  0  0
    4.3992    0.5797   -1.0469 H   0  0  0  0  0  0  0  0  0  0  0  0
  1  3  2  0  0  0  0
  2  4  2  0  0  0  0
  2  1  1  0  0  0  0
  3  5  1  0  0  0  0
  3 13  1  0  0  0  0
  4  7  1  0  0  0  0
  5 15  1  0  0  0  0
  6  9  3  0  0  0  0
  7  8  1  0  0  0  0
  7  5  2  0  0  0  0
  8 16  1  1  0  0  0
  8  6  1  0  0  0  0
 10 18  1  0  0  0  0
 10  8  1  0  0  0  0
 11  1  1  0  0  0  0
 12  2  1  0  0  0  0
 14  4  1  0  0  0  0
 17 10  1  0  0  0  0
M  END
>  <HBA>
2

>  <HBD>
1

>  <TPSA>
49.81

>  <cid>
40838

>  <dipole>
2.64

>  <excitation_energy_1>
5.286

>  <excitation_energy_2>
5.682

>  <excitation_energy_3>
5.955

>  <excitation_energy_4>
6.194

>  <homo_energy>
-6.885

>  <homo_lumo_gap>
6.465

>  <logP>
1.91

>  <lumo_energy>
-0.419

>  <melting_point>
94.64

>  <molecular_refractivity>
38.67

>  <oscillator_strength_1>
0.0013

>  <oscillator_strength_2>
0.0503

>  <oscillator_strength_3>
0.0075

>  <oscillator_strength_4>
0.1225

>  <open_babel_can_smiles>
N[C@@H](c1ccccc1)C#N

>  <mulliken_charges>
18
1   -0.121042
2   -0.135402
3   -0.138431
4   -0.153637
5   -0.174513
6   0.343091
7   0.117619
8   -0.111728
9   -0.486281
10   -0.693054
11   0.133823
12   0.134907
13   0.137344
14   0.154207
15   0.155856
16   0.203327
17   0.316936
18   0.316979

>  <lowdin_charges>
18
1   -0.150436
2   -0.154096
3   -0.153266
4   -0.156103
5   -0.16559
6   -0.035848
7   -0.018329
8   -0.061165
9   -0.128124
10   -0.519227
11   0.158061
12   0.161332
13   0.1627
14   0.172602
15   0.172833
16   0.181497
17   0.267247
18   0.265913

$$$$

