PCCDB-ID:  29908
public computational chemistry database (PCCDB) project, http://pccdb.org

 32 33  0  0  0  0  0  0  0  0999 V2000
   -1.7772   -0.7469    0.1161 C   0  0  0  0  0  0  0  0  0  0  0  0
    4.4664   -4.2869    0.1472 C   0  0  0  0  0  0  0  0  0  0  0  0
   -1.0662    0.0744   -0.7583 C   0  0  0  0  0  0  0  0  0  0  0  0
   -1.0885   -1.4647    1.0971 C   0  0  0  0  0  0  0  0  0  0  0  0
    4.3416   -3.6788    1.3951 C   0  0  0  0  0  0  0  0  0  0  0  0
    3.9766   -3.6322   -0.9858 C   0  0  0  0  0  0  0  0  0  0  0  0
    0.3226    0.1776   -0.6489 C   0  0  0  0  0  0  0  0  0  0  0  0
    0.2978   -1.3598    1.2015 C   0  0  0  0  0  0  0  0  0  0  0  0
    3.7332   -2.4257    1.5121 C   0  0  0  0  0  0  0  0  0  0  0  0
    3.3692   -2.3844   -0.8637 C   0  0  0  0  0  0  0  0  0  0  0  0
    2.9454    0.4325    1.7017 C   0  0  0  0  0  0  0  0  0  0  0  0
    2.5106    1.8989    1.6278 C   0  0  0  0  0  0  0  0  0  0  0  0
    1.0249   -0.5331    0.3326 C   0  0  0  0  0  0  0  0  0  0  0  0
    3.2366   -1.7588    0.3854 C   0  0  0  0  0  0  0  0  0  0  0  0
    2.5445   -0.3959    0.4589 C   0  0  0  0  0  0  0  0  0  0  0  0
    2.9430    2.6467    2.7603 O   0  0  0  0  0  0  0  0  0  0  0  0
   -2.8573   -0.8318    0.0324 H   0  0  0  0  0  0  0  0  0  0  0  0
    4.9425   -5.2594    0.0556 H   0  0  0  0  0  0  0  0  0  0  0  0
   -1.5892    0.6350   -1.5289 H   0  0  0  0  0  0  0  0  0  0  0  0
   -1.6323   -2.1133    1.7792 H   0  0  0  0  0  0  0  0  0  0  0  0
    4.7219   -4.1752    2.2842 H   0  0  0  0  0  0  0  0  0  0  0  0
    4.0709   -4.0928   -1.9658 H   0  0  0  0  0  0  0  0  0  0  0  0
    0.8687    0.8208   -1.3359 H   0  0  0  0  0  0  0  0  0  0  0  0
    0.8244   -1.9392    1.9557 H   0  0  0  0  0  0  0  0  0  0  0  0
    3.6576   -1.9677    2.4937 H   0  0  0  0  0  0  0  0  0  0  0  0
    2.9867   -1.8834   -1.7505 H   0  0  0  0  0  0  0  0  0  0  0  0
    2.5107   -0.0172    2.6062 H   0  0  0  0  0  0  0  0  0  0  0  0
    4.0348    0.4061    1.8247 H   0  0  0  0  0  0  0  0  0  0  0  0
    1.4213    1.9741    1.4941 H   0  0  0  0  0  0  0  0  0  0  0  0
    2.9781    2.3846    0.7636 H   0  0  0  0  0  0  0  0  0  0  0  0
    2.8828    0.1701   -0.4205 H   0  0  0  0  0  0  0  0  0  0  0  0
    2.4670    2.3039    3.5325 H   0  0  0  0  0  0  0  0  0  0  0  0
  1  4  2  0  0  0  0
  2  5  2  0  0  0  0
  3  7  2  0  0  0  0
  3  1  1  0  0  0  0
  4  8  1  0  0  0  0
  4 20  1  0  0  0  0
  5  9  1  0  0  0  0
  5 21  1  0  0  0  0
  6 10  2  0  0  0  0
  6  2  1  0  0  0  0
  7 13  1  0  0  0  0
  8 24  1  0  0  0  0
  9 25  1  0  0  0  0
 10 14  1  0  0  0  0
 11 28  1  0  0  0  0
 11 27  1  0  0  0  0
 12 11  1  0  0  0  0
 12 16  1  0  0  0  0
 13 15  1  0  0  0  0
 13  8  2  0  0  0  0
 14 15  1  0  0  0  0
 14  9  2  0  0  0  0
 15 11  1  0  0  0  0
 16 32  1  0  0  0  0
 17  1  1  0  0  0  0
 18  2  1  0  0  0  0
 19  3  1  0  0  0  0
 22  6  1  0  0  0  0
 23  7  1  0  0  0  0
 26 10  1  0  0  0  0
 29 12  1  0  0  0  0
 30 12  1  0  0  0  0
 31 15  1  0  0  0  0
M  END
>  <HBA>
1

>  <HBD>
1

>  <TPSA>
20.23

>  <cid>
29908

>  <dipole>
1.66

>  <excitation_energy_1>
5.199

>  <excitation_energy_2>
5.231

>  <excitation_energy_3>
5.516

>  <excitation_energy_4>
5.662

>  <homo_energy>
-6.346

>  <homo_lumo_gap>
6.142

>  <logP>
3.201

>  <lumo_energy>
-0.204

>  <melting_point>
54.83

>  <molecular_refractivity>
66.67

>  <oscillator_strength_1>
0.0198

>  <oscillator_strength_2>
0.0022

>  <oscillator_strength_3>
0.0925

>  <oscillator_strength_4>
0.0077

>  <open_babel_can_smiles>
OCCC(c1ccccc1)c1ccccc1

>  <mulliken_charges>
32
1   -0.130965
2   -0.128837
3   -0.126253
4   -0.129584
5   -0.133479
6   -0.128408
7   -0.195435
8   -0.17942
9   -0.188199
10   -0.172677
11   -0.28518
12   -0.036119
13   0.184031
14   0.16969
15   -0.268423
16   -0.616192
17   0.129065
18   0.128198
19   0.129719
20   0.129553
21   0.128301
22   0.129223
23   0.123965
24   0.131314
25   0.126389
26   0.125554
27   0.126562
28   0.155827
29   0.135316
30   0.142354
31   0.137794
32   0.386317

>  <lowdin_charges>
32
1   -0.158329
2   -0.158615
3   -0.156139
4   -0.154975
5   -0.156141
6   -0.153631
7   -0.174686
8   -0.165047
9   -0.174833
10   -0.16185
11   -0.290767
12   -0.136997
13   -0.000867
14   0.001501
15   -0.123458
16   -0.468336
17   0.155581
18   0.156595
19   0.15892
20   0.158767
21   0.157526
22   0.157226
23   0.155008
24   0.159897
25   0.156439
26   0.15663
27   0.137919
28   0.152579
29   0.132022
30   0.145305
31   0.151435
32   0.341321

$$$$

