PCCDB-ID:  14231
public computational chemistry database (PCCDB) project, http://pccdb.org

 28 27  0  0  1  0  0  0  0  0999 V2000
    0.3135    2.8274    1.1544 C   0  0  0  0  0  0  0  0  0  0  0  0
    1.6948    2.1704    1.2415 C   0  0  0  0  0  0  0  0  0  0  0  0
    2.6420    2.5984    0.1132 C   0  0  0  0  0  0  0  0  0  0  0  0
    4.0309    1.9526    0.1978 C   0  0  0  0  0  0  0  0  0  0  0  0
    4.9689    2.3704   -0.9417 C   0  0  0  0  0  0  0  0  0  0  0  0
    6.3589    1.7314   -0.8494 C   0  0  0  0  0  0  0  0  0  0  0  0
    8.6639    1.4803   -1.9172 C   0  0  0  0  0  0  0  0  0  0  0  0
    7.2681    2.0947   -2.0345 C   0  0  1  0  0  0  0  0  0  0  0  0
    8.4998    0.0643   -2.0486 O   0  0  0  0  0  0  0  0  0  0  0  0
    6.6969    1.7108   -3.2831 O   0  0  0  0  0  0  0  0  0  0  0  0
   -0.3398    2.4983    1.9708 H   0  0  0  0  0  0  0  0  0  0  0  0
   -0.1844    2.5796    0.2087 H   0  0  0  0  0  0  0  0  0  0  0  0
    0.3905    3.9204    1.2095 H   0  0  0  0  0  0  0  0  0  0  0  0
    1.5821    1.0769    1.2237 H   0  0  0  0  0  0  0  0  0  0  0  0
    2.1542    2.4113    2.2110 H   0  0  0  0  0  0  0  0  0  0  0  0
    2.7487    3.6936    0.1263 H   0  0  0  0  0  0  0  0  0  0  0  0
    2.1855    2.3514   -0.8569 H   0  0  0  0  0  0  0  0  0  0  0  0
    3.9227    0.8576    0.1949 H   0  0  0  0  0  0  0  0  0  0  0  0
    4.4907    2.2076    1.1648 H   0  0  0  0  0  0  0  0  0  0  0  0
    5.0725    3.4662   -0.9438 H   0  0  0  0  0  0  0  0  0  0  0  0
    4.5234    2.1046   -1.9082 H   0  0  0  0  0  0  0  0  0  0  0  0
    6.2691    0.6380   -0.7979 H   0  0  0  0  0  0  0  0  0  0  0  0
    6.8528    2.0462    0.0822 H   0  0  0  0  0  0  0  0  0  0  0  0
    9.1254    1.7391   -0.9520 H   0  0  0  0  0  0  0  0  0  0  0  0
    9.2975    1.8738   -2.7249 H   0  0  0  0  0  0  0  0  0  0  0  0
    7.3791    3.1863   -2.0803 H   0  0  0  0  0  0  0  0  0  0  0  0
    9.3687   -0.3316   -2.2074 H   0  0  0  0  0  0  0  0  0  0  0  0
    6.8579    0.7529   -3.3469 H   0  0  0  0  0  0  0  0  0  0  0  0
  1 13  1  0  0  0  0
  1  2  1  0  0  0  0
  1 11  1  0  0  0  0
  2 15  1  0  0  0  0
  3 16  1  0  0  0  0
  3  4  1  0  0  0  0
  3  2  1  0  0  0  0
  4 19  1  0  0  0  0
  5  6  1  0  0  0  0
  5  4  1  0  0  0  0
  6 22  1  0  0  0  0
  6 23  1  0  0  0  0
  7 24  1  0  0  0  0
  8 26  1  6  0  0  0
  8  7  1  0  0  0  0
  8  6  1  0  0  0  0
  9  7  1  0  0  0  0
 10  8  1  0  0  0  0
 12  1  1  0  0  0  0
 14  2  1  0  0  0  0
 17  3  1  0  0  0  0
 18  4  1  0  0  0  0
 20  5  1  0  0  0  0
 21  5  1  0  0  0  0
 25  7  1  0  0  0  0
 27  9  1  0  0  0  0
 28 10  1  0  0  0  0
M  END
>  <HBA>
2

>  <HBD>
2

>  <TPSA>
40.46

>  <cid>
14231

>  <dipole>
2.58

>  <excitation_energy_1>
6.263

>  <excitation_energy_2>
6.591

>  <excitation_energy_3>
6.864

>  <excitation_energy_4>
7.321

>  <homo_energy>
-6.917

>  <homo_lumo_gap>
8.493

>  <logP>
1.31

>  <lumo_energy>
1.576

>  <melting_point>
9.35

>  <molecular_refractivity>
42.89

>  <oscillator_strength_1>
0.025

>  <oscillator_strength_2>
0.0016

>  <oscillator_strength_3>
0.0011

>  <oscillator_strength_4>
0.0038

>  <open_babel_can_smiles>
CCCCCC[C@@H](CO)O

>  <mulliken_charges>
28
1   -0.440986
2   -0.24631
3   -0.244906
4   -0.252932
5   -0.253752
6   -0.267392
7   -0.057968
8   0.130315
9   -0.63229
10   -0.636198
11   0.139803
12   0.141173
13   0.14036
14   0.129116
15   0.128197
16   0.125077
17   0.127943
18   0.125918
19   0.122494
20   0.120945
21   0.150697
22   0.143224
23   0.118735
24   0.124473
25   0.133349
26   0.129393
27   0.401842
28   0.399678

>  <lowdin_charges>
28
1   -0.44343
2   -0.269733
3   -0.271988
4   -0.271558
5   -0.273191
6   -0.290115
7   -0.151796
8   -0.006327
9   -0.478923
10   -0.464836
11   0.149014
12   0.14616
13   0.143668
14   0.136037
15   0.13745
16   0.134439
17   0.137843
18   0.134818
19   0.134594
20   0.133087
21   0.149693
22   0.145513
23   0.138834
24   0.132369
25   0.137404
26   0.139752
27   0.350451
28   0.340771

$$$$

