PCCDB-ID:  49607
public computational chemistry database (PCCDB) project, http://pccdb.org

 30 30  0  0  0  0  0  0  0  0999 V2000
    1.9851   -2.8066    1.0958 C   0  0  0  0  0  0  0  0  0  0  0  0
    3.4549   -0.5712    0.1418 C   0  0  0  0  0  0  0  0  0  0  0  0
    1.8052   -0.3674   -1.6081 C   0  0  0  0  0  0  0  0  0  0  0  0
    4.1254    0.5345   -0.3777 C   0  0  0  0  0  0  0  0  0  0  0  0
    2.4756    0.7390   -2.1276 C   0  0  0  0  0  0  0  0  0  0  0  0
    4.9328    4.1376   -3.3231 C   0  0  0  0  0  0  0  0  0  0  0  0
    3.9672    2.9912   -3.0772 C   0  0  0  0  0  0  0  0  0  0  0  0
    2.2838   -1.0315   -0.4746 C   0  0  0  0  0  0  0  0  0  0  0  0
    3.6473    1.1991   -1.5111 C   0  0  0  0  0  0  0  0  0  0  0  0
    7.2594    4.5705   -3.9381 C   0  0  0  0  0  0  0  0  0  0  0  0
    7.0180    5.8310   -3.8955 N   0  0  0  0  0  0  0  0  0  0  0  0
    8.4553    3.9366   -4.3243 N   0  0  0  0  0  0  0  0  0  0  0  0
    6.2751    3.6520   -3.6081 N   0  0  0  0  0  0  0  0  0  0  0  0
    1.5444   -2.1056   -0.0529 O   0  0  0  0  0  0  0  0  0  0  0  0
    4.3901    2.2736   -1.9275 O   0  0  0  0  0  0  0  0  0  0  0  0
    1.2612   -3.6084    1.2549 H   0  0  0  0  0  0  0  0  0  0  0  0
    2.0078   -2.1595    1.9836 H   0  0  0  0  0  0  0  0  0  0  0  0
    2.9819   -3.2450    0.9480 H   0  0  0  0  0  0  0  0  0  0  0  0
    3.8539   -1.0610    1.0229 H   0  0  0  0  0  0  0  0  0  0  0  0
    0.8963   -0.7320   -2.0768 H   0  0  0  0  0  0  0  0  0  0  0  0
    5.0329    0.9012    0.0921 H   0  0  0  0  0  0  0  0  0  0  0  0
    2.0736    1.2304   -3.0064 H   0  0  0  0  0  0  0  0  0  0  0  0
    4.9780    4.7833   -2.4415 H   0  0  0  0  0  0  0  0  0  0  0  0
    4.5400    4.7545   -4.1455 H   0  0  0  0  0  0  0  0  0  0  0  0
    3.9278    2.3200   -3.9512 H   0  0  0  0  0  0  0  0  0  0  0  0
    2.9572    3.4007   -2.9299 H   0  0  0  0  0  0  0  0  0  0  0  0
    7.8700    6.3707   -4.0574 H   0  0  0  0  0  0  0  0  0  0  0  0
    9.2379    4.5751   -4.4037 H   0  0  0  0  0  0  0  0  0  0  0  0
    8.6957    3.1380   -3.7453 H   0  0  0  0  0  0  0  0  0  0  0  0
    6.3150    2.7939   -4.1457 H   0  0  0  0  0  0  0  0  0  0  0  0
  1 16  1  0  0  0  0
  1 17  1  0  0  0  0
  2 19  1  0  0  0  0
  3  8  1  0  0  0  0
  4 21  1  0  0  0  0
  4  2  1  0  0  0  0
  5  3  2  0  0  0  0
  5  9  1  0  0  0  0
  6  7  1  0  0  0  0
  6 23  1  0  0  0  0
  7 26  1  0  0  0  0
  7 15  1  0  0  0  0
  8 14  1  0  0  0  0
  8  2  2  0  0  0  0
  9  4  2  0  0  0  0
 10 11  1  0  0  0  0
 10 13  1  0  0  0  0
 12 10  2  0  0  0  0
 12 29  1  0  0  0  0
 13  6  1  0  0  0  0
 14  1  1  0  0  0  0
 15  9  1  0  0  0  0
 18  1  1  0  0  0  0
 20  3  1  0  0  0  0
 22  5  1  0  0  0  0
 24  6  1  0  0  0  0
 25  7  1  0  0  0  0
 27 11  1  0  0  0  0
 28 12  1  0  0  0  0
 30 13  1  0  0  0  0
M  RAD  1  11   2
M  END
>  <HBA>
5

>  <HBD>
2

>  <TPSA>
82.86

>  <cid>
49607

>  <dipole>
2.76

>  <excitation_energy_1>
4.603

>  <excitation_energy_2>
4.891

>  <excitation_energy_3>
5.053

>  <excitation_energy_4>
5.213

>  <homo_energy>
-5.314

>  <homo_lumo_gap>
5.336

>  <logP>
1.748

>  <lumo_energy>
0.022

>  <melting_point>
139.56

>  <molecular_refractivity>
58.14

>  <oscillator_strength_1>
0.0598

>  <oscillator_strength_2>
0.0018

>  <oscillator_strength_3>
0.0017

>  <oscillator_strength_4>
0.0075

>  <open_babel_can_smiles>
COc1ccc(cc1)OCCNC(=[NH2])[NH]

>  <mulliken_charges>
30
1   -0.212002
2   -0.195964
3   -0.183558
4   -0.187268
5   -0.196771
6   -0.101751
7   -0.06692
8   0.372787
9   0.375312
10   0.584842
11   -0.647089
12   -0.757919
13   -0.592868
14   -0.512299
15   -0.517274
16   0.167161
17   0.148866
18   0.14792
19   0.131497
20   0.137767
21   0.138076
22   0.133682
23   0.180144
24   0.153595
25   0.130792
26   0.147544
27   0.263324
28   0.317701
29   0.323542
30   0.317132

>  <lowdin_charges>
30
1   -0.277808
2   -0.203016
3   -0.174302
4   -0.174519
5   -0.203505
6   -0.192825
7   -0.133344
8   0.085401
9   0.085211
10   0.120815
11   -0.479151
12   -0.516308
13   -0.303602
14   -0.20532
15   -0.204397
16   0.162083
17   0.143253
18   0.141712
19   0.163112
20   0.166583
21   0.166677
22   0.162976
23   0.168338
24   0.150492
25   0.132443
26   0.14426
27   0.246001
28   0.27517
29   0.279047
30   0.274525

$$$$

