PCCDB-ID:  12589
public computational chemistry database (PCCDB) project, http://pccdb.org

 22 21  0  0  0  0  0  0  0  0999 V2000
    2.7023    0.2415    1.3867 C   0  0  0  0  0  0  0  0  0  0  0  0
    2.4424   -1.2471    1.1274 C   0  0  0  0  0  0  0  0  0  0  0  0
    2.8951   -1.7412   -0.2565 C   0  0  0  0  0  0  0  0  0  0  0  0
    4.4133   -1.7048   -0.4807 C   0  0  0  0  0  0  0  0  0  0  0  0
    4.8163   -2.2755   -1.8470 C   0  0  0  0  0  0  0  0  0  0  0  0
    6.3108   -2.2162   -2.1307 C   0  0  0  0  0  0  0  0  0  0  0  0
    7.1307   -3.1195   -1.2291 N   0  0  0  0  0  0  0  0  0  0  0  0
    8.2928   -2.7827   -1.0269 O   0  0  0  0  0  0  0  0  0  0  0  0
    6.5999   -4.1387   -0.7974 O   0  0  0  0  0  0  0  0  0  0  0  0
    2.3048    0.5455    2.3617 H   0  0  0  0  0  0  0  0  0  0  0  0
    2.2215    0.8653    0.6225 H   0  0  0  0  0  0  0  0  0  0  0  0
    3.7725    0.4775    1.3833 H   0  0  0  0  0  0  0  0  0  0  0  0
    1.3672   -1.4441    1.2320 H   0  0  0  0  0  0  0  0  0  0  0  0
    2.9371   -1.8470    1.9043 H   0  0  0  0  0  0  0  0  0  0  0  0
    2.3984   -1.1427   -1.0352 H   0  0  0  0  0  0  0  0  0  0  0  0
    2.5445   -2.7737   -0.3949 H   0  0  0  0  0  0  0  0  0  0  0  0
    4.9075   -2.2819    0.3121 H   0  0  0  0  0  0  0  0  0  0  0  0
    4.7829   -0.6735   -0.3987 H   0  0  0  0  0  0  0  0  0  0  0  0
    4.3209   -1.7085   -2.6472 H   0  0  0  0  0  0  0  0  0  0  0  0
    4.4782   -3.3132   -1.9377 H   0  0  0  0  0  0  0  0  0  0  0  0
    6.7410   -1.2222   -1.9964 H   0  0  0  0  0  0  0  0  0  0  0  0
    6.5478   -2.5628   -3.1423 H   0  0  0  0  0  0  0  0  0  0  0  0
  1 10  1  0  0  0  0
  2 13  1  0  0  0  0
  2  1  1  0  0  0  0
  2 14  1  0  0  0  0
  3  2  1  0  0  0  0
  4 18  1  0  0  0  0
  4  3  1  0  0  0  0
  4 17  1  0  0  0  0
  5  4  1  0  0  0  0
  6 21  1  0  0  0  0
  6  5  1  0  0  0  0
  6  7  1  0  0  0  0
  7  8  2  0  0  0  0
  7  9  2  0  0  0  0
 11  1  1  0  0  0  0
 12  1  1  0  0  0  0
 15  3  1  0  0  0  0
 16  3  1  0  0  0  0
 19  5  1  0  0  0  0
 20  5  1  0  0  0  0
 22  6  1  0  0  0  0
M  END
>  <HBA>
0

>  <HBD>
0

>  <TPSA>
45.82

>  <cid>
12589

>  <dipole>
3.58

>  <excitation_energy_1>
4.115

>  <excitation_energy_2>
4.451

>  <excitation_energy_3>
6.002

>  <excitation_energy_4>
6.168

>  <homo_energy>
-7.905

>  <homo_lumo_gap>
6.142

>  <logP>
2.367

>  <lumo_energy>
-1.763

>  <melting_point>
4.19

>  <molecular_refractivity>
39.06

>  <oscillator_strength_1>
0.0001

>  <oscillator_strength_2>
0.0

>  <oscillator_strength_3>
0.0069

>  <oscillator_strength_4>
0.0036

>  <open_babel_can_smiles>
CCCCCCN(=O)=O

>  <mulliken_charges>
22
1   -0.444801
2   -0.251189
3   -0.252125
4   -0.263414
5   -0.274568
6   -0.180837
7   0.454554
8   -0.372439
9   -0.373376
10   0.146104
11   0.140488
12   0.146231
13   0.134275
14   0.136132
15   0.126637
16   0.135487
17   0.153329
18   0.135472
19   0.146786
20   0.171761
21   0.189423
22   0.19607

>  <lowdin_charges>
22
1   -0.447034
2   -0.27198
3   -0.274289
4   -0.281829
5   -0.28246
6   -0.222645
7   0.292568
8   -0.241024
9   -0.2442
10   0.151734
11   0.146908
12   0.145532
13   0.142047
14   0.143144
15   0.138135
16   0.143025
17   0.150863
18   0.13993
19   0.156012
20   0.161631
21   0.17404
22   0.179893

$$$$

