PCCDB-ID:  15421
public computational chemistry database (PCCDB) project, http://pccdb.org

 21 21  0  0  0  0  0  0  0  0999 V2000
    1.0158   -0.0345   -0.1720 C   0  0  0  0  0  0  0  0  0  0  0  0
    2.9599    0.3832    1.3610 C   0  0  0  0  0  0  0  0  0  0  0  0
    3.1079   -1.5143   -1.9636 C   0  0  0  0  0  0  0  0  0  0  0  0
    3.1642   -0.0314   -2.4421 C   0  0  0  0  0  0  0  0  0  0  0  0
    3.1093   -1.4542   -0.4180 C   0  0  0  0  0  0  0  0  0  0  0  0
    3.1980    0.8221   -1.1525 C   0  0  0  0  0  0  0  0  0  0  0  0
    2.5524   -0.0557   -0.0515 C   0  0  0  0  0  0  0  0  0  0  0  0
    0.5572   -0.7160    0.5553 H   0  0  0  0  0  0  0  0  0  0  0  0
    0.6745   -0.3369   -1.1687 H   0  0  0  0  0  0  0  0  0  0  0  0
    0.6232    0.9718    0.0202 H   0  0  0  0  0  0  0  0  0  0  0  0
    2.5354   -0.2826    2.1230 H   0  0  0  0  0  0  0  0  0  0  0  0
    2.6080    1.3996    1.5783 H   0  0  0  0  0  0  0  0  0  0  0  0
    4.0506    0.3742    1.4786 H   0  0  0  0  0  0  0  0  0  0  0  0
    3.9500   -2.1028   -2.3430 H   0  0  0  0  0  0  0  0  0  0  0  0
    2.1992   -2.0027   -2.3329 H   0  0  0  0  0  0  0  0  0  0  0  0
    2.2821    0.2109   -3.0451 H   0  0  0  0  0  0  0  0  0  0  0  0
    4.0353    0.1654   -3.0760 H   0  0  0  0  0  0  0  0  0  0  0  0
    4.1384   -1.5359   -0.0425 H   0  0  0  0  0  0  0  0  0  0  0  0
    2.5369   -2.2690    0.0416 H   0  0  0  0  0  0  0  0  0  0  0  0
    2.6954    1.7903   -1.2676 H   0  0  0  0  0  0  0  0  0  0  0  0
    4.2386    1.0350   -0.8723 H   0  0  0  0  0  0  0  0  0  0  0  0
  1  7  1  0  0  0  0
  1 10  1  0  0  0  0
  1  8  1  0  0  0  0
  2 13  1  0  0  0  0
  2 12  1  0  0  0  0
  2 11  1  0  0  0  0
  3  5  1  0  0  0  0
  4  3  1  0  0  0  0
  4  6  1  0  0  0  0
  5  7  1  0  0  0  0
  5 18  1  0  0  0  0
  5 19  1  0  0  0  0
  6 21  1  0  0  0  0
  6  7  1  0  0  0  0
  7  2  1  0  0  0  0
  9  1  1  0  0  0  0
 14  3  1  0  0  0  0
 15  3  1  0  0  0  0
 16  4  1  0  0  0  0
 17  4  1  0  0  0  0
 20  6  1  0  0  0  0
M  END
>  <HBA>
0

>  <HBD>
0

>  <TPSA>
0.0

>  <cid>
15421

>  <dipole>
0.06

>  <excitation_energy_1>
7.566

>  <excitation_energy_2>
7.835

>  <excitation_energy_3>
7.865

>  <excitation_energy_4>
7.965

>  <homo_energy>
-8.082

>  <homo_lumo_gap>
10.087

>  <logP>
2.587

>  <lumo_energy>
2.005

>  <melting_point>
14.04

>  <molecular_refractivity>
33.39

>  <oscillator_strength_1>
0.0368

>  <oscillator_strength_2>
0.0503

>  <oscillator_strength_3>
0.0025

>  <oscillator_strength_4>
0.0215

>  <open_babel_can_smiles>
CC1(C)CCCC1

>  <mulliken_charges>
21
1   -0.451044
2   -0.449197
3   -0.274671
4   -0.274923
5   -0.266341
6   -0.266473
7   0.103164
8   0.137876
9   0.142421
10   0.137919
11   0.137315
12   0.137301
13   0.135438
14   0.134213
15   0.136023
16   0.136094
17   0.134245
18   0.127342
19   0.127959
20   0.128017
21   0.127324

>  <lowdin_charges>
21
1   -0.444895
2   -0.440202
3   -0.289038
4   -0.288334
5   -0.282645
6   -0.280481
7   0.009389
8   0.147625
9   0.147896
10   0.145865
11   0.147565
12   0.145687
13   0.143176
14   0.145836
15   0.142853
16   0.142913
17   0.145522
18   0.138365
19   0.143015
20   0.141667
21   0.138219

$$$$

