PCCDB-ID:  32965
public computational chemistry database (PCCDB) project, http://pccdb.org

 26 25  0  0  0  0  0  0  0  0999 V2000
    1.5647    0.9327   -0.2536 C   0  0  0  0  0  0  0  0  0  0  0  0
    6.1291   -3.1069    3.4420 C   0  0  0  0  0  0  0  0  0  0  0  0
    2.8980    0.2997    0.1574 C   0  0  0  0  0  0  0  0  0  0  0  0
    5.1333   -4.2378    3.1685 C   0  0  0  0  0  0  0  0  0  0  0  0
    2.7820   -1.2021    0.4459 C   0  0  0  0  0  0  0  0  0  0  0  0
    3.8372   -3.8098    2.4635 C   0  0  0  0  0  0  0  0  0  0  0  0
    4.1280   -1.8221    0.8495 C   0  0  0  0  0  0  0  0  0  0  0  0
    4.0729   -4.1593    0.1328 N   0  0  0  0  0  0  0  0  0  0  0  0
    4.0351   -3.2594    1.1214 N   0  0  0  0  0  0  0  0  0  0  0  0
    4.2194   -3.6912   -0.9966 O   0  0  0  0  0  0  0  0  0  0  0  0
    1.6779    2.0041   -0.4533 H   0  0  0  0  0  0  0  0  0  0  0  0
    0.8109    0.8182    0.5350 H   0  0  0  0  0  0  0  0  0  0  0  0
    1.1680    0.4636   -1.1619 H   0  0  0  0  0  0  0  0  0  0  0  0
    7.0030   -3.4842    3.9841 H   0  0  0  0  0  0  0  0  0  0  0  0
    5.6792   -2.3132    4.0520 H   0  0  0  0  0  0  0  0  0  0  0  0
    6.4913   -2.6554    2.5119 H   0  0  0  0  0  0  0  0  0  0  0  0
    3.2890    0.8149    1.0469 H   0  0  0  0  0  0  0  0  0  0  0  0
    3.6393    0.4587   -0.6379 H   0  0  0  0  0  0  0  0  0  0  0  0
    4.8471   -4.7139    4.1163 H   0  0  0  0  0  0  0  0  0  0  0  0
    5.6095   -5.0154    2.5587 H   0  0  0  0  0  0  0  0  0  0  0  0
    2.4114   -1.7263   -0.4422 H   0  0  0  0  0  0  0  0  0  0  0  0
    2.0482   -1.3700    1.2469 H   0  0  0  0  0  0  0  0  0  0  0  0
    3.3042   -3.0550    3.0533 H   0  0  0  0  0  0  0  0  0  0  0  0
    3.1772   -4.6761    2.3596 H   0  0  0  0  0  0  0  0  0  0  0  0
    4.5226   -1.3415    1.7495 H   0  0  0  0  0  0  0  0  0  0  0  0
    4.8539   -1.6976    0.0406 H   0  0  0  0  0  0  0  0  0  0  0  0
  1  3  1  0  0  0  0
  1 12  1  0  0  0  0
  2 14  1  0  0  0  0
  2 15  1  0  0  0  0
  3  5  1  0  0  0  0
  3 17  1  0  0  0  0
  4  2  1  0  0  0  0
  4 19  1  0  0  0  0
  5  7  1  0  0  0  0
  5 22  1  0  0  0  0
  6 23  1  0  0  0  0
  6  4  1  0  0  0  0
  7  9  1  0  0  0  0
  7 25  1  0  0  0  0
  8  9  1  0  0  0  0
  9  6  1  0  0  0  0
 10  8  2  0  0  0  0
 11  1  1  0  0  0  0
 13  1  1  0  0  0  0
 16  2  1  0  0  0  0
 18  3  1  0  0  0  0
 20  4  1  0  0  0  0
 21  5  1  0  0  0  0
 24  6  1  0  0  0  0
 26  7  1  0  0  0  0
M  END
>  <HBA>
3

>  <HBD>
0

>  <TPSA>
32.67

>  <cid>
32965

>  <dipole>
4.02

>  <excitation_energy_1>
3.337

>  <excitation_energy_2>
5.604

>  <excitation_energy_3>
5.685

>  <excitation_energy_4>
5.92

>  <homo_energy>
-5.875

>  <homo_lumo_gap>
5.17

>  <logP>
2.18

>  <lumo_energy>
-0.705

>  <melting_point>
-5.54

>  <molecular_refractivity>
43.4

>  <oscillator_strength_1>
0.0011

>  <oscillator_strength_2>
0.0325

>  <oscillator_strength_3>
0.1235

>  <oscillator_strength_4>
0.0005

>  <open_babel_can_smiles>
CCCCN(CCC)N=O

>  <mulliken_charges>
26
1   -0.442274
2   -0.45143
3   -0.253197
4   -0.250336
5   -0.25625
6   -0.141134
7   -0.149349
8   0.14634
9   -0.221127
10   -0.392024
11   0.145209
12   0.142085
13   0.149442
14   0.15375
15   0.140587
16   0.157776
17   0.129116
18   0.141835
19   0.139448
20   0.159878
21   0.166517
22   0.130907
23   0.150856
24   0.172893
25   0.150978
26   0.179503

>  <lowdin_charges>
26
1   -0.442359
2   -0.451657
3   -0.273115
4   -0.280562
5   -0.2834
6   -0.203954
7   -0.218971
8   0.044657
9   -0.040979
10   -0.281683
11   0.149723
12   0.147373
13   0.150974
14   0.157186
15   0.14643
16   0.153719
17   0.138371
18   0.145215
19   0.148232
20   0.156034
21   0.158725
22   0.140056
23   0.15244
24   0.165564
25   0.153575
26   0.168406

$$$$

