PCCDB-ID:  68267
public computational chemistry database (PCCDB) project, http://pccdb.org

 23 23  0  0  1  0  0  0  0  0999 V2000
    1.7848   -0.0369    0.0263 C   0  0  0  0  0  0  0  0  0  0  0  0
    0.9204   -1.2069    0.5249 C   0  0  0  0  0  0  0  0  0  0  0  0
    0.9791    1.1663   -0.4945 C   0  0  0  0  0  0  0  0  0  0  0  0
   -0.2552   -1.5749   -0.3929 C   0  0  0  0  0  0  0  0  0  0  0  0
   -0.2408    1.5289    0.3638 C   0  0  0  0  0  0  0  0  0  0  0  0
   -1.4576   -0.6703   -0.2831 C   0  0  1  0  0  0  0  0  0  0  0  0
   -1.4458    0.6414    0.1686 C   0  0  0  0  0  0  0  0  0  0  0  0
   -2.6507   -1.1834   -0.7440 N   0  0  0  0  0  0  0  0  0  0  0  0
   -2.7242    1.1476    0.4180 N   0  0  0  0  0  0  0  0  0  0  0  0
   -2.8975   -2.5518   -0.4403 O   0  0  0  0  0  0  0  0  0  0  0  0
   -2.7905    2.3315    0.7760 O   0  0  0  0  0  0  0  0  0  0  0  0
    2.4544   -0.3876   -0.7708 H   0  0  0  0  0  0  0  0  0  0  0  0
    2.4345    0.2857    0.8506 H   0  0  0  0  0  0  0  0  0  0  0  0
    0.5237   -0.9814    1.5225 H   0  0  0  0  0  0  0  0  0  0  0  0
    1.5558   -2.0925    0.6464 H   0  0  0  0  0  0  0  0  0  0  0  0
    0.6406    0.9732   -1.5214 H   0  0  0  0  0  0  0  0  0  0  0  0
    1.6452    2.0356   -0.5578 H   0  0  0  0  0  0  0  0  0  0  0  0
   -0.6034   -2.5865   -0.1629 H   0  0  0  0  0  0  0  0  0  0  0  0
    0.0681   -1.6050   -1.4452 H   0  0  0  0  0  0  0  0  0  0  0  0
   -0.5848    2.5428    0.1273 H   0  0  0  0  0  0  0  0  0  0  0  0
    0.0380    1.5700    1.4277 H   0  0  0  0  0  0  0  0  0  0  0  0
   -3.4452   -0.6124   -0.4421 H   0  0  0  0  0  0  0  0  0  0  0  0
   -3.0513   -2.9490   -1.3139 H   0  0  0  0  0  0  0  0  0  0  0  0
  1  2  1  0  0  0  0
  1 13  1  0  0  0  0
  2 15  1  0  0  0  0
  2 14  1  0  0  0  0
  3  1  1  0  0  0  0
  3  5  1  0  0  0  0
  4  6  1  0  0  0  0
  4 18  1  0  0  0  0
  4  2  1  0  0  0  0
  5 21  1  0  0  0  0
  6  8  1  6  0  0  0
  6  7  1  0  0  0  0
  7  5  1  0  0  0  0
  7  9  2  0  0  0  0
  8 22  1  0  0  0  0
  8 10  1  0  0  0  0
  9 11  1  0  0  0  0
 12  1  1  0  0  0  0
 16  3  1  0  0  0  0
 17  3  1  0  0  0  0
 19  4  1  0  0  0  0
 20  5  1  0  0  0  0
 23 10  1  0  0  0  0
M  RAD  2   6   2  11   2
M  END
>  <HBA>
4

>  <HBD>
2

>  <TPSA>
61.69

>  <cid>
68267

>  <dipole>
4.9

>  <excitation_energy_1>
1.712

>  <excitation_energy_2>
4.071

>  <excitation_energy_3>
4.564

>  <excitation_energy_4>
5.194

>  <homo_energy>
-5.279

>  <homo_lumo_gap>
3.355

>  <logP>
2.298

>  <lumo_energy>
-1.924

>  <melting_point>
112.12

>  <molecular_refractivity>
41.44

>  <oscillator_strength_1>
0.0004

>  <oscillator_strength_2>
0.246

>  <oscillator_strength_3>
0.0041

>  <oscillator_strength_4>
0.0023

>  <open_babel_can_smiles>
[O]/N=C/1\CCCCC[C]1NO

>  <mulliken_charges>
23
1   -0.259059
2   -0.270914
3   -0.27247
4   -0.351204
5   -0.329004
6   0.330965
7   0.203169
8   -0.402266
9   -0.103818
10   -0.498948
11   -0.355372
12   0.13287
13   0.138345
14   0.15256
15   0.141798
16   0.136281
17   0.141161
18   0.184208
19   0.167037
20   0.174165
21   0.154377
22   0.364389
23   0.421731

>  <lowdin_charges>
23
1   -0.282066
2   -0.278139
3   -0.278709
4   -0.286814
5   -0.284531
6   0.084808
7   -0.071353
8   -0.157191
9   -0.005382
10   -0.389717
11   -0.239709
12   0.143099
13   0.146288
14   0.150357
15   0.151861
16   0.14056
17   0.150669
18   0.173677
19   0.162946
20   0.169095
21   0.153282
22   0.288774
23   0.358196

$$$$

