PCCDB-ID:  58454
public computational chemistry database (PCCDB) project, http://pccdb.org

 22 22  0  0  0  0  0  0  0  0999 V2000
    3.6668    1.1287   -0.5832 C   0  0  0  0  0  0  0  0  0  0  0  0
    1.2484    0.9113   -0.1033 C   0  0  0  0  0  0  0  0  0  0  0  0
    4.5004   -4.1522    2.8030 C   0  0  0  0  0  0  0  0  0  0  0  0
    5.5569   -4.7456    2.1086 C   0  0  0  0  0  0  0  0  0  0  0  0
    3.9390   -2.9729    2.3235 C   0  0  0  0  0  0  0  0  0  0  0  0
    6.0078   -4.1185    0.9500 C   0  0  0  0  0  0  0  0  0  0  0  0
    4.4760   -2.4456    1.1438 C   0  0  0  0  0  0  0  0  0  0  0  0
    2.7338   -0.8742    0.5865 C   0  0  0  0  0  0  0  0  0  0  0  0
    5.4792   -2.9857    0.4676 N   0  0  0  0  0  0  0  0  0  0  0  0
    2.5829    0.3400   -0.0145 N   0  0  0  0  0  0  0  0  0  0  0  0
    1.8316   -1.5526    1.0432 O   0  0  0  0  0  0  0  0  0  0  0  0
    4.0633   -1.2377    0.6048 O   0  0  0  0  0  0  0  0  0  0  0  0
    3.4253    1.3929   -1.6207 H   0  0  0  0  0  0  0  0  0  0  0  0
    4.5938    0.5611   -0.5687 H   0  0  0  0  0  0  0  0  0  0  0  0
    3.8049    2.0600   -0.0169 H   0  0  0  0  0  0  0  0  0  0  0  0
    0.9628    1.0560   -1.1535 H   0  0  0  0  0  0  0  0  0  0  0  0
    1.2171    1.8870    0.3995 H   0  0  0  0  0  0  0  0  0  0  0  0
    0.5413    0.2343    0.3733 H   0  0  0  0  0  0  0  0  0  0  0  0
    4.1150   -4.6013    3.7142 H   0  0  0  0  0  0  0  0  0  0  0  0
    6.0186   -5.6646    2.4555 H   0  0  0  0  0  0  0  0  0  0  0  0
    3.1114   -2.4878    2.8210 H   0  0  0  0  0  0  0  0  0  0  0  0
    6.8299   -4.5389    0.3736 H   0  0  0  0  0  0  0  0  0  0  0  0
  1 14  1  0  0  0  0
  1 15  1  0  0  0  0
  1 10  1  0  0  0  0
  2 10  1  0  0  0  0
  2 18  1  0  0  0  0
  2 17  1  0  0  0  0
  3 19  1  0  0  0  0
  4 20  1  0  0  0  0
  4  3  1  0  0  0  0
  5  3  2  0  0  0  0
  5 21  1  0  0  0  0
  6  4  2  0  0  0  0
  7  5  1  0  0  0  0
  8 12  1  0  0  0  0
  8 11  2  0  0  0  0
  9  6  1  0  0  0  0
  9  7  2  0  0  0  0
 10  8  1  0  0  0  0
 12  7  1  0  0  0  0
 13  1  1  0  0  0  0
 16  2  1  0  0  0  0
 22  6  1  0  0  0  0
M  END
>  <HBA>
4

>  <HBD>
0

>  <TPSA>
42.43

>  <cid>
58454

>  <dipole>
1.47

>  <excitation_energy_1>
5.198

>  <excitation_energy_2>
5.25

>  <excitation_energy_3>
5.508

>  <excitation_energy_4>
5.569

>  <homo_energy>
-6.553

>  <homo_lumo_gap>
5.995

>  <logP>
1.142

>  <lumo_energy>
-0.558

>  <melting_point>
56.96

>  <molecular_refractivity>
43.83

>  <oscillator_strength_1>
0.0689

>  <oscillator_strength_2>
0.0068

>  <oscillator_strength_3>
0.0078

>  <oscillator_strength_4>
0.0022

>  <open_babel_can_smiles>
O=C(N(C)C)Oc1ccccn1

>  <mulliken_charges>
22
1   -0.319306
2   -0.318246
3   -0.112811
4   -0.138815
5   -0.143578
6   0.034058
7   0.494151
8   0.788358
9   -0.452587
10   -0.434498
11   -0.514868
12   -0.520688
13   0.156858
14   0.209433
15   0.155794
16   0.156582
17   0.154296
18   0.204777
19   0.147238
20   0.138196
21   0.170973
22   0.144684

>  <lowdin_charges>
22
1   -0.352099
2   -0.34975
3   -0.123081
4   -0.185324
5   -0.184663
6   -0.084388
7   0.142374
8   0.220191
9   -0.150094
10   -0.102787
11   -0.311057
12   -0.164565
13   0.150573
14   0.184636
15   0.149411
16   0.149384
17   0.149116
18   0.186244
19   0.165952
20   0.165216
21   0.185453
22   0.159257

$$$$

