PCCDB-ID:  22350
public computational chemistry database (PCCDB) project, http://pccdb.org

 26 26  0  0  0  0  0  0  0  0999 V2000
    1.7310    0.2269   -0.1180 C   0  0  0  0  0  0  0  0  0  0  0  0
    3.2330    0.1189   -0.3066 C   0  0  0  0  0  0  0  0  0  0  0  0
    7.1879   -1.2468   -1.0312 C   0  0  0  0  0  0  0  0  0  0  0  0
    6.2658   -3.4510   -1.4682 C   0  0  0  0  0  0  0  0  0  0  0  0
    5.9131   -0.7452   -0.7851 C   0  0  0  0  0  0  0  0  0  0  0  0
    4.9989   -2.9620   -1.2257 C   0  0  0  0  0  0  0  0  0  0  0  0
   10.8074   -5.4487   -1.1590 C   0  0  0  0  0  0  0  0  0  0  0  0
   10.5765   -4.8769   -3.5105 C   0  0  0  0  0  0  0  0  0  0  0  0
    7.3801   -2.5903   -1.3728 C   0  0  0  0  0  0  0  0  0  0  0  0
   10.3558   -4.4296   -2.1235 C   0  0  0  0  0  0  0  0  0  0  0  0
    4.8085   -1.6052   -0.8823 C   0  0  0  0  0  0  0  0  0  0  0  0
   11.1538   -6.2268   -0.3725 N   0  0  0  0  0  0  0  0  0  0  0  0
   10.7381   -5.1953   -4.6135 N   0  0  0  0  0  0  0  0  0  0  0  0
    8.7170   -2.9720   -1.5992 N   0  0  0  0  0  0  0  0  0  0  0  0
    8.8939   -4.1727   -1.9173 N   0  0  0  0  0  0  0  0  0  0  0  0
    3.5253   -1.2376   -0.6680 O   0  0  0  0  0  0  0  0  0  0  0  0
    1.4633    1.2510    0.1626 H   0  0  0  0  0  0  0  0  0  0  0  0
    1.3910   -0.4501    0.6717 H   0  0  0  0  0  0  0  0  0  0  0  0
    1.2057   -0.0285   -1.0433 H   0  0  0  0  0  0  0  0  0  0  0  0
    3.7680    0.3749    0.6178 H   0  0  0  0  0  0  0  0  0  0  0  0
    3.5819    0.7923   -1.1011 H   0  0  0  0  0  0  0  0  0  0  0  0
    8.0590   -0.6025   -0.9631 H   0  0  0  0  0  0  0  0  0  0  0  0
    6.4206   -4.4912   -1.7318 H   0  0  0  0  0  0  0  0  0  0  0  0
    5.7883    0.2982   -0.5229 H   0  0  0  0  0  0  0  0  0  0  0  0
    4.1241   -3.6010   -1.2914 H   0  0  0  0  0  0  0  0  0  0  0  0
   10.9215   -3.5021   -1.9534 H   0  0  0  0  0  0  0  0  0  0  0  0
  1 17  1  0  0  0  0
  1 18  1  0  0  0  0
  2  1  1  0  0  0  0
  2 20  1  0  0  0  0
  3 22  1  0  0  0  0
  3  5  2  0  0  0  0
  4  9  2  0  0  0  0
  4  6  1  0  0  0  0
  5 24  1  0  0  0  0
  6 11  2  0  0  0  0
  7 12  3  0  0  0  0
  8 10  1  0  0  0  0
  9  3  1  0  0  0  0
 10 26  1  0  0  0  0
 10 15  1  0  0  0  0
 10  7  1  0  0  0  0
 11  5  1  0  0  0  0
 11 16  1  0  0  0  0
 13  8  3  0  0  0  0
 14  9  1  0  0  0  0
 15 14  1  0  0  0  0
 16  2  1  0  0  0  0
 19  1  1  0  0  0  0
 21  2  1  0  0  0  0
 23  4  1  0  0  0  0
 25  6  1  0  0  0  0
M  RAD  2  14   2  15   2
M  END
>  <HBA>
5

>  <HBD>
0

>  <TPSA>
81.53

>  <cid>
22350

>  <dipole>
8.52

>  <excitation_energy_1>
3.168

>  <excitation_energy_2>
3.891

>  <excitation_energy_3>
4.238

>  <excitation_energy_4>
5.281

>  <homo_energy>
-6.642

>  <homo_lumo_gap>
4.125

>  <logP>
2.585

>  <lumo_energy>
-2.517

>  <melting_point>
98.13

>  <molecular_refractivity>
57.23

>  <oscillator_strength_1>
0.0002

>  <oscillator_strength_2>
0.608

>  <oscillator_strength_3>
0.0091

>  <oscillator_strength_4>
0.1095

>  <open_babel_can_smiles>
CCOc1ccc(cc1)[N][N]C(C#N)C#N

>  <mulliken_charges>
26
1   -0.459007
2   -0.040802
3   -0.137964
4   -0.121028
5   -0.204347
6   -0.188202
7   0.392035
8   0.391795
9   0.251087
10   -0.101905
11   0.401446
12   -0.439701
13   -0.43975
14   -0.282927
15   -0.183268
16   -0.504291
17   0.156288
18   0.169506
19   0.169513
20   0.151296
21   0.151344
22   0.154972
23   0.174063
24   0.147846
25   0.156431
26   0.235569

>  <lowdin_charges>
26
1   -0.446844
2   -0.124388
3   -0.122473
4   -0.128669
5   -0.212277
6   -0.172197
7   -0.00648
8   -0.007598
9   -0.017969
10   -0.063002
11   0.123846
12   -0.081126
13   -0.081096
14   -0.055717
15   -0.100608
16   -0.182962
17   0.160941
18   0.164224
19   0.163559
20   0.144425
21   0.145369
22   0.174428
23   0.181069
24   0.1685
25   0.175593
26   0.201451

$$$$

