PCCDB-ID:  60408
public computational chemistry database (PCCDB) project, http://pccdb.org

 21 20  0  0  1  0  0  0  0  0999 V2000
    3.1675    1.3630   -1.0278 C   0  0  0  0  0  0  0  0  0  0  0  0
    1.0749    0.1403   -0.1982 C   0  0  0  0  0  0  0  0  0  0  0  0
    0.5053   -0.2081   -1.5760 C   0  0  0  0  0  0  0  0  0  0  0  0
    3.0760    0.4061    1.3164 C   0  0  0  0  0  0  0  0  0  0  0  0
    2.6103    0.2394   -0.1420 C   0  0  2  0  0  0  0  0  0  0  0  0
   -0.9578   -0.3160   -1.5085 N   0  0  0  0  0  0  0  0  0  0  0  0
    4.5381    0.3250    1.4271 N   0  0  0  0  0  0  0  0  0  0  0  0
    4.2446    1.4659   -0.8704 H   0  0  0  0  0  0  0  0  0  0  0  0
    2.6950    2.3222   -0.7766 H   0  0  0  0  0  0  0  0  0  0  0  0
    2.9902    1.1727   -2.0920 H   0  0  0  0  0  0  0  0  0  0  0  0
    0.7407   -0.6269    0.5178 H   0  0  0  0  0  0  0  0  0  0  0  0
    0.6247    1.0859    0.1336 H   0  0  0  0  0  0  0  0  0  0  0  0
    1.0054   -1.1216   -1.9517 H   0  0  0  0  0  0  0  0  0  0  0  0
    0.7399    0.5905   -2.2891 H   0  0  0  0  0  0  0  0  0  0  0  0
    2.5453   -0.3320    1.9460 H   0  0  0  0  0  0  0  0  0  0  0  0
    2.7725    1.3986    1.6764 H   0  0  0  0  0  0  0  0  0  0  0  0
    3.0235   -0.7177   -0.5041 H   0  0  0  0  0  0  0  0  0  0  0  0
   -1.2128   -1.1247   -0.9419 H   0  0  0  0  0  0  0  0  0  0  0  0
   -1.3332   -0.4973   -2.4382 H   0  0  0  0  0  0  0  0  0  0  0  0
    4.8392   -0.6346    1.2585 H   0  0  0  0  0  0  0  0  0  0  0  0
    4.8255    0.5465    2.3787 H   0  0  0  0  0  0  0  0  0  0  0  0
  1  8  1  0  0  0  0
  1  9  1  0  0  0  0
  1  5  1  0  0  0  0
  2  5  1  0  0  0  0
  2 12  1  0  0  0  0
  2 11  1  0  0  0  0
  3  6  1  0  0  0  0
  3  2  1  0  0  0  0
  4  7  1  0  0  0  0
  4 16  1  0  0  0  0
  4 15  1  0  0  0  0
  5 17  1  6  0  0  0
  5  4  1  0  0  0  0
  6 18  1  0  0  0  0
  7 21  1  0  0  0  0
 10  1  1  0  0  0  0
 13  3  1  0  0  0  0
 14  3  1  0  0  0  0
 19  6  1  0  0  0  0
 20  7  1  0  0  0  0
M  END
>  <HBA>
2

>  <HBD>
2

>  <TPSA>
52.04

>  <cid>
60408

>  <dipole>
2.14

>  <excitation_energy_1>
5.549

>  <excitation_energy_2>
5.565

>  <excitation_energy_3>
6.146

>  <excitation_energy_4>
6.181

>  <homo_energy>
-6.199

>  <homo_lumo_gap>
8.408

>  <logP>
1.331

>  <lumo_energy>
2.21

>  <melting_point>
82.6

>  <molecular_refractivity>
31.56

>  <oscillator_strength_1>
0.0098

>  <oscillator_strength_2>
0.0108

>  <oscillator_strength_3>
0.0028

>  <oscillator_strength_4>
0.0025

>  <open_babel_can_smiles>
NCC[C@H](CN)C

>  <mulliken_charges>
21
1   -0.449516
2   -0.24647
3   -0.138732
4   -0.136288
5   -0.069743
6   -0.716818
7   -0.717061
8   0.171959
9   0.133517
10   0.135459
11   0.115305
12   0.14289
13   0.10735
14   0.144011
15   0.109129
16   0.135746
17   0.108551
18   0.289269
19   0.293775
20   0.291142
21   0.296526

>  <lowdin_charges>
21
1   -0.446703
2   -0.280539
3   -0.206305
4   -0.207434
5   -0.127061
6   -0.559157
7   -0.55462
8   0.162388
9   0.14349
10   0.142956
11   0.134638
12   0.147283
13   0.114292
14   0.14417
15   0.118326
16   0.140086
17   0.128787
18   0.249619
19   0.252771
20   0.248936
21   0.254076

$$$$

