PCCDB-ID:  24054
public computational chemistry database (PCCDB) project, http://pccdb.org

 30 32  0  0  0  0  0  0  0  0999 V2000
   -1.5199    0.1142    0.1333 C   0  0  0  0  0  0  0  0  0  0  0  0
   -0.9037    0.9973   -0.7561 C   0  0  0  0  0  0  0  0  0  0  0  0
   -0.7326   -0.7036    0.9451 C   0  0  0  0  0  0  0  0  0  0  0  0
    5.0047    3.9362   -0.0356 C   0  0  0  0  0  0  0  0  0  0  0  0
    3.6932    3.9094    0.4358 C   0  0  0  0  0  0  0  0  0  0  0  0
    4.9685   -0.9288   -0.3944 C   0  0  0  0  0  0  0  0  0  0  0  0
    0.4868    1.0608   -0.8336 C   0  0  0  0  0  0  0  0  0  0  0  0
    0.6588   -0.6399    0.8662 C   0  0  0  0  0  0  0  0  0  0  0  0
    5.5773    2.7677   -0.5440 C   0  0  0  0  0  0  0  0  0  0  0  0
    5.4580    0.3070   -1.1605 C   0  0  0  0  0  0  0  0  0  0  0  0
    2.9605    2.7231    0.3905 C   0  0  0  0  0  0  0  0  0  0  0  0
    3.4677   -0.8988   -0.2590 C   0  0  0  0  0  0  0  0  0  0  0  0
    1.2932    0.2371   -0.0286 C   0  0  0  0  0  0  0  0  0  0  0  0
    4.8564    1.5751   -0.5945 C   0  0  0  0  0  0  0  0  0  0  0  0
    3.5204    1.5454   -0.1288 C   0  0  0  0  0  0  0  0  0  0  0  0
    2.7783    0.2572   -0.1502 C   0  0  0  0  0  0  0  0  0  0  0  0
   -2.6038    0.0680    0.1961 H   0  0  0  0  0  0  0  0  0  0  0  0
   -1.5074    1.6361   -1.3956 H   0  0  0  0  0  0  0  0  0  0  0  0
   -1.2011   -1.3874    1.6484 H   0  0  0  0  0  0  0  0  0  0  0  0
    5.5826    4.8560   -0.0031 H   0  0  0  0  0  0  0  0  0  0  0  0
    3.2394    4.8077    0.8458 H   0  0  0  0  0  0  0  0  0  0  0  0
    5.4342   -0.9589    0.6049 H   0  0  0  0  0  0  0  0  0  0  0  0
    5.2872   -1.8431   -0.9082 H   0  0  0  0  0  0  0  0  0  0  0  0
    0.9574    1.7450   -1.5341 H   0  0  0  0  0  0  0  0  0  0  0  0
    1.2682   -1.2640    1.5139 H   0  0  0  0  0  0  0  0  0  0  0  0
    6.6030    2.7812   -0.9068 H   0  0  0  0  0  0  0  0  0  0  0  0
    5.1585    0.2054   -2.2156 H   0  0  0  0  0  0  0  0  0  0  0  0
    6.5524    0.3646   -1.1492 H   0  0  0  0  0  0  0  0  0  0  0  0
    1.9451    2.7064    0.7731 H   0  0  0  0  0  0  0  0  0  0  0  0
    2.9299   -1.8440   -0.2566 H   0  0  0  0  0  0  0  0  0  0  0  0
  1 17  1  0  0  0  0
  1  3  2  0  0  0  0
  2  1  1  0  0  0  0
  3 19  1  0  0  0  0
  4 20  1  0  0  0  0
  4  5  2  0  0  0  0
  5 21  1  0  0  0  0
  6 12  1  0  0  0  0
  6 22  1  0  0  0  0
  7  2  2  0  0  0  0
  7 13  1  0  0  0  0
  8  3  1  0  0  0  0
  8 25  1  0  0  0  0
  9  4  1  0  0  0  0
 10 28  1  0  0  0  0
 10 14  1  0  0  0  0
 10  6  1  0  0  0  0
 11  5  1  0  0  0  0
 11 29  1  0  0  0  0
 12 30  1  0  0  0  0
 12 16  2  0  0  0  0
 13  8  2  0  0  0  0
 14  9  2  0  0  0  0
 14 15  1  0  0  0  0
 15 11  2  0  0  0  0
 16 15  1  0  0  0  0
 16 13  1  0  0  0  0
 18  2  1  0  0  0  0
 23  6  1  0  0  0  0
 24  7  1  0  0  0  0
 26  9  1  0  0  0  0
 27 10  1  0  0  0  0
M  END
>  <HBA>
0

>  <HBD>
0

>  <TPSA>
0.0

>  <cid>
24054

>  <dipole>
0.44

>  <excitation_energy_1>
4.34

>  <excitation_energy_2>
4.564

>  <excitation_energy_3>
4.759

>  <excitation_energy_4>
4.773

>  <homo_energy>
-5.587

>  <homo_lumo_gap>
4.806

>  <logP>
4.064

>  <lumo_energy>
-0.781

>  <melting_point>
74.8

>  <molecular_refractivity>
68.68

>  <oscillator_strength_1>
0.1036

>  <oscillator_strength_2>
0.0141

>  <oscillator_strength_3>
0.0741

>  <oscillator_strength_4>
0.0027

>  <open_babel_can_smiles>
c1ccc(cc1)C1=CCCc2c1cccc2

>  <mulliken_charges>
30
1   -0.127343
2   -0.134352
3   -0.133474
4   -0.124137
5   -0.134913
6   -0.298916
7   -0.16952
8   -0.170998
9   -0.202475
10   -0.344196
11   -0.19614
12   -0.189325
13   0.07132
14   0.1193
15   0.076907
16   0.062067
17   0.128185
18   0.129645
19   0.12881
20   0.126296
21   0.126915
22   0.153557
23   0.142218
24   0.138548
25   0.130062
26   0.120858
27   0.154451
28   0.141238
29   0.142296
30   0.133115

>  <lowdin_charges>
30
1   -0.156988
2   -0.158846
3   -0.157641
4   -0.157525
5   -0.16233
6   -0.273297
7   -0.160878
8   -0.16336
9   -0.16618
10   -0.266746
11   -0.159771
12   -0.169998
13   -0.001375
14   -0.004221
15   -0.015302
16   -0.01598
17   0.155143
18   0.158983
19   0.15846
20   0.156931
21   0.15727
22   0.152353
23   0.152522
24   0.163434
25   0.160419
26   0.152487
27   0.15239
28   0.148616
29   0.163754
30   0.157677

$$$$

