PCCDB-ID:  32985
public computational chemistry database (PCCDB) project, http://pccdb.org

 29 29  0  0  1  0  0  0  0  0999 V2000
    1.4111    1.8071   -0.2097 C   0  0  0  0  0  0  0  0  0  0  0  0
    1.6988   -2.4949    2.1545 C   0  0  0  0  0  0  0  0  0  0  0  0
    3.2444   -2.2209    0.3441 C   0  0  0  0  0  0  0  0  0  0  0  0
    1.5747    2.2272    4.6971 C   0  0  0  0  0  0  0  0  0  0  0  0
    2.3278    1.2707    3.9377 C   0  0  0  0  0  0  0  0  0  0  0  0
    1.4126    3.3061    3.8856 C   0  0  0  0  0  0  0  0  0  0  0  0
    3.2872    1.3617    1.4941 C   0  0  0  0  0  0  0  0  0  0  0  0
    1.6254   -0.4733    0.8386 C   0  0  0  0  0  0  0  0  0  0  0  0
    2.3909    0.7764    0.3688 C   0  0  1  0  0  0  0  0  0  0  0  0
    2.5718    1.8338    2.7175 C   0  0  0  0  0  0  0  0  0  0  0  0
    2.4763   -1.5376    1.3775 N   0  0  0  0  0  0  0  0  0  0  0  0
    2.0103    3.0875    2.6773 O   0  0  0  0  0  0  0  0  0  0  0  0
    1.9412    2.6988   -0.5630 H   0  0  0  0  0  0  0  0  0  0  0  0
    0.6834    2.1338    0.5409 H   0  0  0  0  0  0  0  0  0  0  0  0
    0.8574    1.3867   -1.0577 H   0  0  0  0  0  0  0  0  0  0  0  0
    2.3688   -3.2420    2.5950 H   0  0  0  0  0  0  0  0  0  0  0  0
    0.9392   -3.0337    1.5535 H   0  0  0  0  0  0  0  0  0  0  0  0
    1.1819   -1.9777    2.9697 H   0  0  0  0  0  0  0  0  0  0  0  0
    3.8919   -2.9739    0.8067 H   0  0  0  0  0  0  0  0  0  0  0  0
    3.8861   -1.5141   -0.1897 H   0  0  0  0  0  0  0  0  0  0  0  0
    2.6034   -2.7324   -0.4022 H   0  0  0  0  0  0  0  0  0  0  0  0
    1.2124    2.1237    5.7107 H   0  0  0  0  0  0  0  0  0  0  0  0
    2.6557    0.2901    4.2538 H   0  0  0  0  0  0  0  0  0  0  0  0
    0.9312    4.2651    4.0033 H   0  0  0  0  0  0  0  0  0  0  0  0
    3.8724    2.1930    1.0800 H   0  0  0  0  0  0  0  0  0  0  0  0
    3.9913    0.5840    1.8043 H   0  0  0  0  0  0  0  0  0  0  0  0
    0.9952   -0.8452    0.0045 H   0  0  0  0  0  0  0  0  0  0  0  0
    0.9390   -0.1693    1.6378 H   0  0  0  0  0  0  0  0  0  0  0  0
    3.0754    0.4867   -0.4408 H   0  0  0  0  0  0  0  0  0  0  0  0
  1  9  1  0  0  0  0
  1 14  1  0  0  0  0
  2 16  1  0  0  0  0
  2 18  1  0  0  0  0
  3 19  1  0  0  0  0
  3 11  1  0  0  0  0
  4 22  1  0  0  0  0
  5 23  1  0  0  0  0
  5  4  1  0  0  0  0
  6 24  1  0  0  0  0
  6  4  2  0  0  0  0
  7 26  1  0  0  0  0
  7 10  1  0  0  0  0
  8 11  1  0  0  0  0
  8 28  1  0  0  0  0
  9 29  1  6  0  0  0
  9  8  1  0  0  0  0
  9  7  1  0  0  0  0
 10  5  2  0  0  0  0
 11  2  1  0  0  0  0
 12 10  1  0  0  0  0
 12  6  1  0  0  0  0
 13  1  1  0  0  0  0
 15  1  1  0  0  0  0
 17  2  1  0  0  0  0
 20  3  1  0  0  0  0
 21  3  1  0  0  0  0
 25  7  1  0  0  0  0
 27  8  1  0  0  0  0
M  END
>  <HBA>
2

>  <HBD>
0

>  <TPSA>
16.38

>  <cid>
32985

>  <dipole>
0.93

>  <excitation_energy_1>
5.214

>  <excitation_energy_2>
5.365

>  <excitation_energy_3>
5.387

>  <excitation_energy_4>
5.595

>  <homo_energy>
-5.641

>  <homo_lumo_gap>
6.283

>  <logP>
2.02

>  <lumo_energy>
0.642

>  <melting_point>
5.7

>  <molecular_refractivity>
50.6

>  <oscillator_strength_1>
0.0128

>  <oscillator_strength_2>
0.0105

>  <oscillator_strength_3>
0.0639

>  <oscillator_strength_4>
0.0436

>  <open_babel_can_smiles>
CN(C[C@H](Cc1ccco1)C)C

>  <mulliken_charges>
29
1   -0.450382
2   -0.296333
3   -0.300544
4   -0.182836
5   -0.210242
6   0.076282
7   -0.339069
8   -0.110935
9   -0.094283
10   0.338675
11   -0.374513
12   -0.440406
13   0.144128
14   0.156804
15   0.138497
16   0.145114
17   0.117182
18   0.152584
19   0.147666
20   0.152015
21   0.11728
22   0.135231
23   0.140832
24   0.148087
25   0.146626
26   0.16785
27   0.106322
28   0.143596
29   0.12477

>  <lowdin_charges>
29
1   -0.448928
2   -0.36027
3   -0.363144
4   -0.20661
5   -0.223093
6   -0.089643
7   -0.283707
8   -0.207513
9   -0.128441
10   0.068279
11   -0.184881
12   -0.108087
13   0.151836
14   0.154981
15   0.148156
16   0.149173
17   0.121415
18   0.151827
19   0.150989
20   0.151074
21   0.121691
22   0.165249
23   0.168384
24   0.167099
25   0.157271
26   0.169544
27   0.118591
28   0.149962
29   0.138796

$$$$

