PCCDB-ID:  11107
public computational chemistry database (PCCDB) project, http://pccdb.org

 20 21  0  0  0  0  0  0  0  0999 V2000
   -0.7582    1.0699   -0.1808 C   0  0  0  0  0  0  0  0  0  0  0  0
    1.3659    0.0144    0.1108 C   0  0  0  0  0  0  0  0  0  0  0  0
    2.5445    2.6320   -0.9004 C   0  0  0  0  0  0  0  0  0  0  0  0
    0.7410    3.6821    0.2640 C   0  0  0  0  0  0  0  0  0  0  0  0
   -1.3403   -0.1890   -0.0411 C   0  0  0  0  0  0  0  0  0  0  0  0
    0.6848   -1.1950    0.2386 C   0  0  0  0  0  0  0  0  0  0  0  0
    3.1342    3.8905   -1.0077 C   0  0  0  0  0  0  0  0  0  0  0  0
    1.4157    4.8913    0.1042 C   0  0  0  0  0  0  0  0  0  0  0  0
    0.6367    1.1925   -0.1054 C   0  0  0  0  0  0  0  0  0  0  0  0
    1.3097    2.5068   -0.2478 C   0  0  0  0  0  0  0  0  0  0  0  0
   -0.6468   -1.3154    0.1660 N   0  0  0  0  0  0  0  0  0  0  0  0
    2.5944    5.0141   -0.5191 N   0  0  0  0  0  0  0  0  0  0  0  0
   -1.3825    1.9377   -0.3710 H   0  0  0  0  0  0  0  0  0  0  0  0
    2.4474    0.0400    0.2041 H   0  0  0  0  0  0  0  0  0  0  0  0
    3.0296    1.7666   -1.3415 H   0  0  0  0  0  0  0  0  0  0  0  0
   -0.2018    3.6542    0.8018 H   0  0  0  0  0  0  0  0  0  0  0  0
   -2.4218   -0.2984   -0.1038 H   0  0  0  0  0  0  0  0  0  0  0  0
    1.2389   -2.1158    0.4136 H   0  0  0  0  0  0  0  0  0  0  0  0
    4.0897    4.0020   -1.5178 H   0  0  0  0  0  0  0  0  0  0  0  0
    0.9881    5.8099    0.5027 H   0  0  0  0  0  0  0  0  0  0  0  0
  1  9  2  0  0  0  0
  1  5  1  0  0  0  0
  2 14  1  0  0  0  0
  2  6  2  0  0  0  0
  3 10  1  0  0  0  0
  4 16  1  0  0  0  0
  5 11  2  0  0  0  0
  6 18  1  0  0  0  0
  7  3  2  0  0  0  0
  7 12  1  0  0  0  0
  8  4  1  0  0  0  0
  8 20  1  0  0  0  0
  9  2  1  0  0  0  0
 10  9  1  0  0  0  0
 10  4  2  0  0  0  0
 11  6  1  0  0  0  0
 12  8  2  0  0  0  0
 13  1  1  0  0  0  0
 15  3  1  0  0  0  0
 17  5  1  0  0  0  0
 19  7  1  0  0  0  0
M  END
>  <HBA>
2

>  <HBD>
0

>  <TPSA>
25.78

>  <cid>
11107

>  <dipole>
0.0

>  <excitation_energy_1>
4.384

>  <excitation_energy_2>
4.431

>  <excitation_energy_3>
4.897

>  <excitation_energy_4>
4.949

>  <homo_energy>
-7.089

>  <homo_lumo_gap>
5.434

>  <logP>
2.144

>  <lumo_energy>
-1.654

>  <melting_point>
71.6

>  <molecular_refractivity>
47.47

>  <oscillator_strength_1>
0.0052

>  <oscillator_strength_2>
0.0021

>  <oscillator_strength_3>
0.0059

>  <oscillator_strength_4>
0.0488

>  <open_babel_can_smiles>
n1ccc(cc1)c1ccncc1

>  <mulliken_charges>
20
1   -0.179585
2   -0.179707
3   -0.179635
4   -0.179688
5   0.037301
6   0.037312
7   0.037288
8   0.037289
9   0.109543
10   0.109871
11   -0.403814
12   -0.403837
13   0.143227
14   0.143228
15   0.143194
16   0.143193
17   0.146205
18   0.146202
19   0.146201
20   0.146211

>  <lowdin_charges>
20
1   -0.178528
2   -0.174649
3   -0.178729
4   -0.176028
5   -0.082935
6   -0.086688
7   -0.084696
8   -0.087293
9   0.018858
10   0.018787
11   -0.145978
12   -0.145233
13   0.167671
14   0.164942
15   0.167758
16   0.166535
17   0.15715
18   0.160131
19   0.158785
20   0.160141

$$$$

