PCCDB-ID:  8500
public computational chemistry database (PCCDB) project, http://pccdb.org

 20 20  0  0  0  0  0  0  0  0999 V2000
    0.9578   -0.0802   -0.0718 C   0  0  0  0  0  0  0  0  0  0  0  0
    7.5824    1.1517   -0.1278 C   0  0  0  0  0  0  0  0  0  0  0  0
    3.1845   -1.2762   -0.2720 C   0  0  0  0  0  0  0  0  0  0  0  0
    3.1910    1.1112    0.0283 C   0  0  0  0  0  0  0  0  0  0  0  0
    4.5730   -1.2770   -0.3252 C   0  0  0  0  0  0  0  0  0  0  0  0
    4.5832    1.1163   -0.0241 C   0  0  0  0  0  0  0  0  0  0  0  0
    2.4674   -0.0823   -0.0972 C   0  0  0  0  0  0  0  0  0  0  0  0
    6.7892   -0.1389   -0.2653 C   0  0  0  0  0  0  0  0  0  0  0  0
    5.2946   -0.0793   -0.2027 C   0  0  0  0  0  0  0  0  0  0  0  0
    7.3661   -1.2046   -0.4258 O   0  0  0  0  0  0  0  0  0  0  0  0
    0.5615   -1.0398    0.2759 H   0  0  0  0  0  0  0  0  0  0  0  0
    0.5474    0.0974   -1.0750 H   0  0  0  0  0  0  0  0  0  0  0  0
    0.5675    0.7073    0.5817 H   0  0  0  0  0  0  0  0  0  0  0  0
    7.3680    1.6496    0.8254 H   0  0  0  0  0  0  0  0  0  0  0  0
    7.3289    1.8568   -0.9287 H   0  0  0  0  0  0  0  0  0  0  0  0
    8.6462    0.9144   -0.1803 H   0  0  0  0  0  0  0  0  0  0  0  0
    2.6422   -2.2147   -0.3635 H   0  0  0  0  0  0  0  0  0  0  0  0
    2.6568    2.0476    0.1720 H   0  0  0  0  0  0  0  0  0  0  0  0
    5.1292   -2.1993   -0.4585 H   0  0  0  0  0  0  0  0  0  0  0  0
    5.1115    2.0593    0.0797 H   0  0  0  0  0  0  0  0  0  0  0  0
  1 11  1  0  0  0  0
  1 13  1  0  0  0  0
  2 14  1  0  0  0  0
  3  7  1  0  0  0  0
  4 18  1  0  0  0  0
  5  3  2  0  0  0  0
  5  9  1  0  0  0  0
  6  4  1  0  0  0  0
  6 20  1  0  0  0  0
  7  1  1  0  0  0  0
  7  4  2  0  0  0  0
  8  9  1  0  0  0  0
  8  2  1  0  0  0  0
  9  6  2  0  0  0  0
 10  8  2  0  0  0  0
 12  1  1  0  0  0  0
 15  2  1  0  0  0  0
 16  2  1  0  0  0  0
 17  3  1  0  0  0  0
 19  5  1  0  0  0  0
M  END
>  <HBA>
1

>  <HBD>
0

>  <TPSA>
17.07

>  <cid>
8500

>  <dipole>
3.37

>  <excitation_energy_1>
3.765

>  <excitation_energy_2>
4.724

>  <excitation_energy_3>
4.977

>  <excitation_energy_4>
5.505

>  <homo_energy>
-6.637

>  <homo_lumo_gap>
5.263

>  <logP>
2.198

>  <lumo_energy>
-1.374

>  <melting_point>
43.05

>  <molecular_refractivity>
41.6

>  <oscillator_strength_1>
0.0001

>  <oscillator_strength_2>
0.0194

>  <oscillator_strength_3>
0.3167

>  <oscillator_strength_4>
0.0

>  <open_babel_can_smiles>
Cc1ccc(cc1)C(=O)C

>  <mulliken_charges>
20
1   -0.531257
2   -0.542669
3   -0.180413
4   -0.182154
5   -0.158463
6   -0.181854
7   0.183671
8   0.406301
9   0.075724
10   -0.455708
11   0.161806
12   0.171659
13   0.161179
14   0.169134
15   0.169907
16   0.180557
17   0.129588
18   0.126839
19   0.163169
20   0.132986

>  <lowdin_charges>
20
1   -0.443249
2   -0.475394
3   -0.166756
4   -0.169388
5   -0.12601
6   -0.148798
7   0.018439
8   0.162232
9   -0.057024
10   -0.246776
11   0.160896
12   0.165565
13   0.161656
14   0.168642
15   0.170036
16   0.172999
17   0.158089
18   0.156982
19   0.176727
20   0.161132

$$$$

