PCCDB-ID:  69167
public computational chemistry database (PCCDB) project, http://pccdb.org

 30 31  0  0  0  0  0  0  0  0999 V2000
    0.9890   -0.1180   -0.1301 C   0  0  0  0  0  0  0  0  0  0  0  0
    8.4284    3.8471   -2.3193 C   0  0  0  0  0  0  0  0  0  0  0  0
    5.3074    0.0078   -0.1748 C   0  0  0  0  0  0  0  0  0  0  0  0
    4.8076    3.6834    0.0318 C   0  0  0  0  0  0  0  0  0  0  0  0
    4.6401   -1.2022    0.0065 C   0  0  0  0  0  0  0  0  0  0  0  0
    5.4725    4.8940   -0.1537 C   0  0  0  0  0  0  0  0  0  0  0  0
    3.1914    1.1334   -0.3223 C   0  0  0  0  0  0  0  0  0  0  0  0
    6.4792    2.5811   -1.2936 C   0  0  0  0  0  0  0  0  0  0  0  0
    2.4956   -0.0610   -0.1390 C   0  0  0  0  0  0  0  0  0  0  0  0
    7.1688    3.7764   -1.4939 C   0  0  0  0  0  0  0  0  0  0  0  0
    4.5964    1.2042   -0.3439 C   0  0  0  0  0  0  0  0  0  0  0  0
    5.2967    2.4984   -0.5358 C   0  0  0  0  0  0  0  0  0  0  0  0
    3.2451   -1.2391    0.0258 C   0  0  0  0  0  0  0  0  0  0  0  0
    6.6446    4.9429   -0.9095 C   0  0  0  0  0  0  0  0  0  0  0  0
    2.5411   -2.4035    0.2011 O   0  0  0  0  0  0  0  0  0  0  0  0
    7.3359    6.1088   -1.1224 O   0  0  0  0  0  0  0  0  0  0  0  0
    0.5593    0.8806   -0.2547 H   0  0  0  0  0  0  0  0  0  0  0  0
    0.6113   -0.5411    0.8084 H   0  0  0  0  0  0  0  0  0  0  0  0
    0.6086   -0.7584   -0.9352 H   0  0  0  0  0  0  0  0  0  0  0  0
    8.7123    2.8557   -2.6853 H   0  0  0  0  0  0  0  0  0  0  0  0
    9.2647    4.2520   -1.7369 H   0  0  0  0  0  0  0  0  0  0  0  0
    8.3025    4.5096   -3.1844 H   0  0  0  0  0  0  0  0  0  0  0  0
    6.3933    0.0225   -0.1571 H   0  0  0  0  0  0  0  0  0  0  0  0
    3.9126    3.6586    0.6468 H   0  0  0  0  0  0  0  0  0  0  0  0
    5.2071   -2.1216    0.1455 H   0  0  0  0  0  0  0  0  0  0  0  0
    5.0842    5.8043    0.3013 H   0  0  0  0  0  0  0  0  0  0  0  0
    2.6164    2.0428   -0.4793 H   0  0  0  0  0  0  0  0  0  0  0  0
    6.8644    1.6815   -1.7675 H   0  0  0  0  0  0  0  0  0  0  0  0
    3.1693   -3.1359    0.2980 H   0  0  0  0  0  0  0  0  0  0  0  0
    6.8712    6.8327   -0.6747 H   0  0  0  0  0  0  0  0  0  0  0  0
  1 18  1  0  0  0  0
  2 21  1  0  0  0  0
  2 10  1  0  0  0  0
  3 23  1  0  0  0  0
  3  5  2  0  0  0  0
  4 24  1  0  0  0  0
  5 13  1  0  0  0  0
  5 25  1  0  0  0  0
  6  4  1  0  0  0  0
  6 26  1  0  0  0  0
  7  9  1  0  0  0  0
  8 12  1  0  0  0  0
  9  1  1  0  0  0  0
  9 13  2  0  0  0  0
 10  8  2  0  0  0  0
 10 14  1  0  0  0  0
 11  7  2  0  0  0  0
 11  3  1  0  0  0  0
 12 11  1  0  0  0  0
 12  4  2  0  0  0  0
 13 15  1  0  0  0  0
 14  6  2  0  0  0  0
 15 29  1  0  0  0  0
 16 14  1  0  0  0  0
 16 30  1  0  0  0  0
 17  1  1  0  0  0  0
 19  1  1  0  0  0  0
 20  2  1  0  0  0  0
 22  2  1  0  0  0  0
 27  7  1  0  0  0  0
 28  8  1  0  0  0  0
M  END
>  <HBA>
2

>  <HBD>
2

>  <TPSA>
40.46

>  <cid>
69167

>  <dipole>
0.7

>  <excitation_energy_1>
4.458

>  <excitation_energy_2>
4.545

>  <excitation_energy_3>
4.621

>  <excitation_energy_4>
4.711

>  <homo_energy>
-5.225

>  <homo_lumo_gap>
5.034

>  <logP>
3.382

>  <lumo_energy>
-0.19

>  <melting_point>
132.22

>  <molecular_refractivity>
65.86

>  <oscillator_strength_1>
0.0039

>  <oscillator_strength_2>
0.337

>  <oscillator_strength_3>
0.1282

>  <oscillator_strength_4>
0.0002

>  <open_babel_can_smiles>
Oc1ccc(cc1C)c1ccc(c(c1)C)O

>  <mulliken_charges>
30
1   -0.514972
2   -0.515038
3   -0.188841
4   -0.188722
5   -0.193853
6   -0.193832
7   -0.252079
8   -0.25184
9   0.146034
10   0.145985
11   0.099852
12   0.099613
13   0.292969
14   0.292886
15   -0.644286
16   -0.644287
17   0.147242
18   0.166124
19   0.166441
20   0.147251
21   0.166202
22   0.166453
23   0.130055
24   0.130042
25   0.115188
26   0.115199
27   0.123211
28   0.12318
29   0.406908
30   0.406916

>  <lowdin_charges>
30
1   -0.437124
2   -0.437523
3   -0.155997
4   -0.157657
5   -0.21223
6   -0.212774
7   -0.165187
8   -0.165113
9   -0.025282
10   -0.024712
11   -0.017787
12   -0.018135
13   0.091149
14   0.091267
15   -0.382847
16   -0.383623
17   0.153587
18   0.163593
19   0.164318
20   0.153725
21   0.164258
22   0.163763
23   0.156956
24   0.158962
25   0.151937
26   0.152026
27   0.156681
28   0.156761
29   0.358217
30   0.358791

$$$$

