PCCDB-ID:  42237
public computational chemistry database (PCCDB) project, http://pccdb.org

 31 33  0  0  1  0  0  0  0  0999 V2000
    2.5076    1.9997    0.7649 C   0  0  0  0  0  0  0  0  0  0  0  0
   -0.6017    4.7586   -6.9100 C   0  0  0  0  0  0  0  0  0  0  0  0
   -0.1426    6.0399   -6.5891 C   0  0  0  0  0  0  0  0  0  0  0  0
   -0.1543    3.6371   -6.2034 C   0  0  0  0  0  0  0  0  0  0  0  0
    0.7865    6.2212   -5.5559 C   0  0  0  0  0  0  0  0  0  0  0  0
    1.9420    0.8183   -3.0877 C   0  0  0  0  0  0  0  0  0  0  0  0
    1.2443    1.4747   -4.1000 C   0  0  0  0  0  0  0  0  0  0  0  0
    2.9035    2.9198   -2.3352 C   0  0  0  0  0  0  0  0  0  0  0  0
    3.4043    1.0311    0.0243 C   0  0  0  0  0  0  0  0  0  0  0  0
    2.7563    1.5253   -2.1810 C   0  0  0  0  0  0  0  0  0  0  0  0
    0.7633    3.8175   -5.1679 C   0  0  0  0  0  0  0  0  0  0  0  0
    1.3769    2.8588   -4.2330 C   0  0  0  0  0  0  0  0  0  0  0  0
    1.2364    5.1090   -4.8587 C   0  0  0  0  0  0  0  0  0  0  0  0
    2.2201    3.5642   -3.3550 C   0  0  0  0  0  0  0  0  0  0  0  0
    2.2397    5.0451   -3.7148 C   0  0  2  0  0  0  0  0  0  0  0  0
    3.4709    0.7977   -1.2212 N   0  0  0  0  0  0  0  0  0  0  0  0
    4.2303    0.2916    0.8189 O   0  0  0  0  0  0  0  0  0  0  0  0
    1.9797    5.9366   -2.6313 O   0  0  0  0  0  0  0  0  0  0  0  0
    3.0996    2.7831    1.2541 H   0  0  0  0  0  0  0  0  0  0  0  0
    1.9474    1.4681    1.5451 H   0  0  0  0  0  0  0  0  0  0  0  0
    1.7970    2.4763    0.0889 H   0  0  0  0  0  0  0  0  0  0  0  0
   -1.3182    4.6317   -7.7174 H   0  0  0  0  0  0  0  0  0  0  0  0
   -0.5075    6.8989   -7.1456 H   0  0  0  0  0  0  0  0  0  0  0  0
   -0.5243    2.6469   -6.4569 H   0  0  0  0  0  0  0  0  0  0  0  0
    1.1460    7.2147   -5.2997 H   0  0  0  0  0  0  0  0  0  0  0  0
    1.8674   -0.2591   -2.9753 H   0  0  0  0  0  0  0  0  0  0  0  0
    0.6111    0.9054   -4.7759 H   0  0  0  0  0  0  0  0  0  0  0  0
    3.5622    3.4737   -1.6717 H   0  0  0  0  0  0  0  0  0  0  0  0
    3.2386    5.3375   -4.0636 H   0  0  0  0  0  0  0  0  0  0  0  0
    4.0715    0.5222    1.7472 H   0  0  0  0  0  0  0  0  0  0  0  0
    1.0807    5.7420   -2.3189 H   0  0  0  0  0  0  0  0  0  0  0  0
  1 19  1  0  0  0  0
  1 20  1  0  0  0  0
  2  3  2  0  0  0  0
  2  4  1  0  0  0  0
  3  5  1  0  0  0  0
  4 11  2  0  0  0  0
  5 25  1  0  0  0  0
  5 13  2  0  0  0  0
  6 26  1  0  0  0  0
  6 10  2  0  0  0  0
  7  6  1  0  0  0  0
  8 10  1  0  0  0  0
  8 28  1  0  0  0  0
  9  1  1  0  0  0  0
  9 17  1  0  0  0  0
 10 16  1  0  0  0  0
 11 13  1  0  0  0  0
 11 12  1  0  0  0  0
 12  7  2  0  0  0  0
 12 14  1  0  0  0  0
 13 15  1  0  0  0  0
 14  8  2  0  0  0  0
 15 29  1  6  0  0  0
 15 14  1  0  0  0  0
 15 18  1  0  0  0  0
 16  9  2  0  0  0  0
 17 30  1  0  0  0  0
 18 31  1  0  0  0  0
 21  1  1  0  0  0  0
 22  2  1  0  0  0  0
 23  3  1  0  0  0  0
 24  4  1  0  0  0  0
 27  7  1  0  0  0  0
M  END
>  <HBA>
3

>  <HBD>
2

>  <TPSA>
49.33

>  <cid>
42237

>  <dipole>
3.65

>  <excitation_energy_1>
3.911

>  <excitation_energy_2>
4.134

>  <excitation_energy_3>
4.682

>  <excitation_energy_4>
4.703

>  <homo_energy>
-5.396

>  <homo_lumo_gap>
4.514

>  <logP>
2.78

>  <lumo_energy>
-0.882

>  <melting_point>
148.41

>  <molecular_refractivity>
70.36

>  <oscillator_strength_1>
0.1849

>  <oscillator_strength_2>
0.3395

>  <oscillator_strength_3>
0.0125

>  <oscillator_strength_4>
0.006

>  <open_babel_can_smiles>
C/C(=N\c1ccc2c(c1)[C@H](O)c1c2cccc1)/O

>  <mulliken_charges>
31
1   -0.554599
2   -0.13339
3   -0.133415
4   -0.19734
5   -0.195744
6   -0.159972
7   -0.203007
8   -0.236374
9   0.483102
10   0.252018
11   0.094629
12   0.091635
13   0.055287
14   0.057454
15   -0.004837
16   -0.470235
17   -0.567693
18   -0.610642
19   0.181016
20   0.169389
21   0.196252
22   0.128774
23   0.12812
24   0.129152
25   0.137379
26   0.135505
27   0.130837
28   0.134152
29   0.167421
30   0.408576
31   0.386551

>  <lowdin_charges>
31
1   -0.486201
2   -0.151151
3   -0.162926
4   -0.16616
5   -0.154893
6   -0.16601
7   -0.158429
8   -0.187478
9   0.145286
10   0.048629
11   -0.006975
12   -0.024731
13   -0.034262
14   -0.028519
15   0.001293
16   -0.169474
17   -0.35581
18   -0.450791
19   0.173846
20   0.168209
21   0.184484
22   0.157867
23   0.15853
24   0.156971
25   0.162184
26   0.162891
27   0.15983
28   0.163752
29   0.163112
30   0.355603
31   0.34132

$$$$

