PCCDB-ID:  9092
public computational chemistry database (PCCDB) project, http://pccdb.org

 27 28  0  0  0  0  0  0  0  0999 V2000
    2.7141    0.0572    0.0741 C   0  0  0  0  0  0  0  0  0  0  0  0
    1.8673    1.0522   -0.7319 C   0  0  0  0  0  0  0  0  0  0  0  0
    1.9397   -1.2437    0.3309 C   0  0  0  0  0  0  0  0  0  0  0  0
   -2.3946   -0.5912   -0.9411 C   0  0  0  0  0  0  0  0  0  0  0  0
    0.5228    1.3187   -0.0381 C   0  0  0  0  0  0  0  0  0  0  0  0
    0.5802   -0.9736    0.9954 C   0  0  0  0  0  0  0  0  0  0  0  0
   -0.8623   -0.5690   -1.1218 C   0  0  0  0  0  0  0  0  0  0  0  0
   -2.6215    0.4989    0.1189 C   0  0  0  0  0  0  0  0  0  0  0  0
   -0.2939    0.0312    0.2187 C   0  0  0  0  0  0  0  0  0  0  0  0
   -1.4841    0.3898    1.0444 N   0  0  0  0  0  0  0  0  0  0  0  0
    2.9861    0.5127    1.0378 H   0  0  0  0  0  0  0  0  0  0  0  0
    3.6554   -0.1588   -0.4476 H   0  0  0  0  0  0  0  0  0  0  0  0
    1.6975    0.6499   -1.7415 H   0  0  0  0  0  0  0  0  0  0  0  0
    2.4108    1.9963   -0.8647 H   0  0  0  0  0  0  0  0  0  0  0  0
    2.5289   -1.9219    0.9614 H   0  0  0  0  0  0  0  0  0  0  0  0
    1.7868   -1.7670   -0.6240 H   0  0  0  0  0  0  0  0  0  0  0  0
   -2.7214   -1.5617   -0.5442 H   0  0  0  0  0  0  0  0  0  0  0  0
   -2.9392   -0.4193   -1.8766 H   0  0  0  0  0  0  0  0  0  0  0  0
   -0.0791    2.0244   -0.6258 H   0  0  0  0  0  0  0  0  0  0  0  0
    0.7007    1.7970    0.9339 H   0  0  0  0  0  0  0  0  0  0  0  0
    0.7467   -0.5688    2.0044 H   0  0  0  0  0  0  0  0  0  0  0  0
    0.0277   -1.9166    1.1198 H   0  0  0  0  0  0  0  0  0  0  0  0
   -0.5888    0.0658   -1.9730 H   0  0  0  0  0  0  0  0  0  0  0  0
   -0.4611   -1.5664   -1.3319 H   0  0  0  0  0  0  0  0  0  0  0  0
   -3.5668    0.4038    0.6634 H   0  0  0  0  0  0  0  0  0  0  0  0
   -2.6125    1.4935   -0.3471 H   0  0  0  0  0  0  0  0  0  0  0  0
   -1.6747   -0.3893    1.6760 H   0  0  0  0  0  0  0  0  0  0  0  0
  1  3  1  0  0  0  0
  1 11  1  0  0  0  0
  2  5  1  0  0  0  0
  2  1  1  0  0  0  0
  3 15  1  0  0  0  0
  3  6  1  0  0  0  0
  4 17  1  0  0  0  0
  4  8  1  0  0  0  0
  5  9  1  0  0  0  0
  5 20  1  0  0  0  0
  6 22  1  0  0  0  0
  6 21  1  0  0  0  0
  7  4  1  0  0  0  0
  7  9  1  0  0  0  0
  8 25  1  0  0  0  0
  8 10  1  0  0  0  0
  9  6  1  0  0  0  0
  9 10  1  0  0  0  0
 10 27  1  0  0  0  0
 12  1  1  0  0  0  0
 13  2  1  0  0  0  0
 14  2  1  0  0  0  0
 16  3  1  0  0  0  0
 18  4  1  0  0  0  0
 19  5  1  0  0  0  0
 23  7  1  0  0  0  0
 24  7  1  0  0  0  0
 26  8  1  0  0  0  0
M  END
>  <HBA>
1

>  <HBD>
1

>  <TPSA>
12.03

>  <cid>
9092

>  <dipole>
1.18

>  <excitation_energy_1>
5.426

>  <excitation_energy_2>
5.81

>  <excitation_energy_3>
5.944

>  <excitation_energy_4>
6.09

>  <homo_energy>
-5.897

>  <homo_lumo_gap>
7.919

>  <logP>
2.401

>  <lumo_energy>
2.022

>  <melting_point>
54.8

>  <molecular_refractivity>
47.9

>  <oscillator_strength_1>
0.0239

>  <oscillator_strength_2>
0.0097

>  <oscillator_strength_3>
0.0043

>  <oscillator_strength_4>
0.0012

>  <open_babel_can_smiles>
C1CCC2(CC1)CCCN2

>  <mulliken_charges>
27
1   -0.253527
2   -0.267183
3   -0.262643
4   -0.277501
5   -0.253505
6   -0.303274
7   -0.30684
8   -0.153895
9   0.233676
10   -0.558805
11   0.129018
12   0.128408
13   0.128945
14   0.131015
15   0.131382
16   0.13179
17   0.129253
18   0.132776
19   0.124391
20   0.137425
21   0.138342
22   0.120642
23   0.138046
24   0.137049
25   0.136129
26   0.141485
27   0.287402

>  <lowdin_charges>
27
1   -0.277275
2   -0.280897
3   -0.279604
4   -0.296023
5   -0.28185
6   -0.284223
7   -0.300554
8   -0.212002
9   0.054801
10   -0.361154
11   0.137954
12   0.142614
13   0.13618
14   0.144509
15   0.145872
16   0.138214
17   0.137907
18   0.145391
19   0.142077
20   0.145748
21   0.143241
22   0.137207
23   0.145416
24   0.145566
25   0.144581
26   0.138139
27   0.248161

$$$$

