PCCDB-ID:  44799
public computational chemistry database (PCCDB) project, http://pccdb.org

 34 34  0  0  0  0  0  0  0  0999 V2000
    1.3298   -1.3963   -0.3593 C   0  0  0  0  0  0  0  0  0  0  0  0
    2.7489   -0.8886   -0.0836 C   0  0  0  0  0  0  0  0  0  0  0  0
    3.1714    0.2593   -1.0092 C   0  0  0  0  0  0  0  0  0  0  0  0
    4.5891    0.7784   -0.7363 C   0  0  0  0  0  0  0  0  0  0  0  0
    5.0059    1.9218   -1.6692 C   0  0  0  0  0  0  0  0  0  0  0  0
    6.4162    2.4401   -1.3797 C   0  0  0  0  0  0  0  0  0  0  0  0
    8.5933    5.2204   -2.9787 C   0  0  0  0  0  0  0  0  0  0  0  0
    9.1142    3.7498   -1.1439 C   0  0  0  0  0  0  0  0  0  0  0  0
    9.8373    5.8174   -2.8651 C   0  0  0  0  0  0  0  0  0  0  0  0
   10.3642    4.3417   -1.0190 C   0  0  0  0  0  0  0  0  0  0  0  0
    8.2010    4.1748   -2.1235 C   0  0  0  0  0  0  0  0  0  0  0  0
   10.7488    5.3873   -1.8794 C   0  0  0  0  0  0  0  0  0  0  0  0
    6.8470    3.5797   -2.3031 C   0  0  0  0  0  0  0  0  0  0  0  0
   12.0154    5.9472   -1.7939 N   0  0  0  0  0  0  0  0  0  0  0  0
    6.0898    3.9935   -3.1733 O   0  0  0  0  0  0  0  0  0  0  0  0
    1.0574   -2.2152    0.3164 H   0  0  0  0  0  0  0  0  0  0  0  0
    1.2346   -1.7666   -1.3876 H   0  0  0  0  0  0  0  0  0  0  0  0
    0.5908   -0.5960   -0.2288 H   0  0  0  0  0  0  0  0  0  0  0  0
    3.4616   -1.7192   -0.1881 H   0  0  0  0  0  0  0  0  0  0  0  0
    2.8218   -0.5565    0.9620 H   0  0  0  0  0  0  0  0  0  0  0  0
    2.4561    1.0890   -0.9078 H   0  0  0  0  0  0  0  0  0  0  0  0
    3.1016   -0.0739   -2.0554 H   0  0  0  0  0  0  0  0  0  0  0  0
    5.3035   -0.0533   -0.8326 H   0  0  0  0  0  0  0  0  0  0  0  0
    4.6555    1.1136    0.3100 H   0  0  0  0  0  0  0  0  0  0  0  0
    4.2946    2.7527   -1.5851 H   0  0  0  0  0  0  0  0  0  0  0  0
    4.9518    1.5918   -2.7138 H   0  0  0  0  0  0  0  0  0  0  0  0
    7.1488    1.6240   -1.4675 H   0  0  0  0  0  0  0  0  0  0  0  0
    6.4891    2.7868   -0.3381 H   0  0  0  0  0  0  0  0  0  0  0  0
    7.8879    5.5519   -3.7340 H   0  0  0  0  0  0  0  0  0  0  0  0
    8.8515    2.9477   -0.4608 H   0  0  0  0  0  0  0  0  0  0  0  0
   10.1215    6.6211   -3.5409 H   0  0  0  0  0  0  0  0  0  0  0  0
   11.0575    3.9938   -0.2565 H   0  0  0  0  0  0  0  0  0  0  0  0
   12.1227    6.8717   -2.1902 H   0  0  0  0  0  0  0  0  0  0  0  0
   12.4912    5.8454   -0.9071 H   0  0  0  0  0  0  0  0  0  0  0  0
  1 18  1  0  0  0  0
  1  2  1  0  0  0  0
  1 16  1  0  0  0  0
  2 20  1  0  0  0  0
  3 21  1  0  0  0  0
  3  4  1  0  0  0  0
  3  2  1  0  0  0  0
  4 24  1  0  0  0  0
  5 25  1  0  0  0  0
  5  6  1  0  0  0  0
  5  4  1  0  0  0  0
  6 28  1  0  0  0  0
  7  9  2  0  0  0  0
  7 11  1  0  0  0  0
  8 10  1  0  0  0  0
  8 30  1  0  0  0  0
  9 12  1  0  0  0  0
 10 32  1  0  0  0  0
 11  8  2  0  0  0  0
 12 14  1  0  0  0  0
 12 10  2  0  0  0  0
 13 11  1  0  0  0  0
 13  6  1  0  0  0  0
 14 34  1  0  0  0  0
 15 13  2  0  0  0  0
 17  1  1  0  0  0  0
 19  2  1  0  0  0  0
 22  3  1  0  0  0  0
 23  4  1  0  0  0  0
 26  5  1  0  0  0  0
 27  6  1  0  0  0  0
 29  7  1  0  0  0  0
 31  9  1  0  0  0  0
 33 14  1  0  0  0  0
M  END
>  <HBA>
2

>  <HBD>
1

>  <TPSA>
43.09

>  <cid>
44799

>  <dipole>
4.63

>  <excitation_energy_1>
3.868

>  <excitation_energy_2>
4.455

>  <excitation_energy_3>
4.652

>  <excitation_energy_4>
4.926

>  <homo_energy>
-5.744

>  <homo_lumo_gap>
4.77

>  <logP>
4.003

>  <lumo_energy>
-0.974

>  <melting_point>
85.05

>  <molecular_refractivity>
65.08

>  <oscillator_strength_1>
0.0

>  <oscillator_strength_2>
0.4369

>  <oscillator_strength_3>
0.0046

>  <oscillator_strength_4>
0.0032

>  <open_babel_can_smiles>
CCCCCCC(=O)c1ccc(cc1)N

>  <mulliken_charges>
34
1   -0.441092
2   -0.246416
3   -0.245392
4   -0.255833
5   -0.243937
6   -0.371164
7   -0.165432
8   -0.191871
9   -0.176908
10   -0.180014
11   0.078481
12   0.334161
13   0.39991
14   -0.790624
15   -0.482932
16   0.139973
17   0.14155
18   0.141383
19   0.128526
20   0.128229
21   0.128501
22   0.128849
23   0.123156
24   0.122584
25   0.146005
26   0.146673
27   0.155415
28   0.15431
29   0.16051
30   0.133538
31   0.123616
32   0.120769
33   0.328242
34   0.327233

>  <lowdin_charges>
34
1   -0.444936
2   -0.271367
3   -0.273426
4   -0.274551
5   -0.268791
6   -0.310309
7   -0.116899
8   -0.138293
9   -0.200961
10   -0.206367
11   -0.080463
12   0.077009
13   0.157084
14   -0.473031
15   -0.259761
16   0.14907
17   0.145392
18   0.146862
19   0.138415
20   0.136384
21   0.139067
22   0.137383
23   0.135828
24   0.133676
25   0.15015
26   0.148706
27   0.158233
28   0.155963
29   0.177064
30   0.161827
31   0.156003
32   0.155252
33   0.279916
34   0.279872

$$$$

