PCCDB-ID:  30228
public computational chemistry database (PCCDB) project, http://pccdb.org

 24 24  0  0  0  0  0  0  0  0999 V2000
    2.0332   -0.5943    1.2727 C   0  0  0  0  0  0  0  0  0  0  0  0
    3.0573    0.1499    0.4111 C   0  0  0  0  0  0  0  0  0  0  0  0
   -2.2332   -0.8192   -1.6388 C   0  0  0  0  0  0  0  0  0  0  0  0
   -1.1727   -1.4912   -2.2530 C   0  0  0  0  0  0  0  0  0  0  0  0
   -2.0070    0.4128   -1.0255 C   0  0  0  0  0  0  0  0  0  0  0  0
    0.1061   -0.9365   -2.2546 C   0  0  0  0  0  0  0  0  0  0  0  0
   -0.7246    0.9668   -1.0239 C   0  0  0  0  0  0  0  0  0  0  0  0
    1.7290    0.9159   -1.6495 C   0  0  0  0  0  0  0  0  0  0  0  0
    0.3425    0.2998   -1.6354 C   0  0  0  0  0  0  0  0  0  0  0  0
    3.6099   -0.6605   -1.7458 N   0  0  0  0  0  0  0  0  0  0  0  0
    2.7777    0.0997   -1.0222 N   0  0  0  0  0  0  0  0  0  0  0  0
    3.3763   -0.7111   -2.9522 O   0  0  0  0  0  0  0  0  0  0  0  0
    2.3299   -0.5374    2.3261 H   0  0  0  0  0  0  0  0  0  0  0  0
    1.9828   -1.6490    0.9842 H   0  0  0  0  0  0  0  0  0  0  0  0
    1.0313   -0.1666    1.1757 H   0  0  0  0  0  0  0  0  0  0  0  0
    4.0507   -0.2912    0.5310 H   0  0  0  0  0  0  0  0  0  0  0  0
    3.1191    1.2040    0.7119 H   0  0  0  0  0  0  0  0  0  0  0  0
   -3.2293   -1.2535   -1.6410 H   0  0  0  0  0  0  0  0  0  0  0  0
   -1.3436   -2.4492   -2.7369 H   0  0  0  0  0  0  0  0  0  0  0  0
   -2.8255    0.9441   -0.5470 H   0  0  0  0  0  0  0  0  0  0  0  0
    0.9284   -1.4516   -2.7425 H   0  0  0  0  0  0  0  0  0  0  0  0
   -0.5543    1.9290   -0.5449 H   0  0  0  0  0  0  0  0  0  0  0  0
    1.7194    1.8821   -1.1339 H   0  0  0  0  0  0  0  0  0  0  0  0
    2.0648    1.0697   -2.6799 H   0  0  0  0  0  0  0  0  0  0  0  0
  1 13  1  0  0  0  0
  2 16  1  0  0  0  0
  2 17  1  0  0  0  0
  2  1  1  0  0  0  0
  3  5  2  0  0  0  0
  4  3  1  0  0  0  0
  5  7  1  0  0  0  0
  5 20  1  0  0  0  0
  6  4  2  0  0  0  0
  6  9  1  0  0  0  0
  7 22  1  0  0  0  0
  8  9  1  0  0  0  0
  8 23  1  0  0  0  0
  8 11  1  0  0  0  0
  9  7  2  0  0  0  0
 10 11  1  0  0  0  0
 11  2  1  0  0  0  0
 12 10  2  0  0  0  0
 14  1  1  0  0  0  0
 15  1  1  0  0  0  0
 18  3  1  0  0  0  0
 19  4  1  0  0  0  0
 21  6  1  0  0  0  0
 24  8  1  0  0  0  0
M  END
>  <HBA>
3

>  <HBD>
0

>  <TPSA>
32.67

>  <cid>
30228

>  <dipole>
3.81

>  <excitation_energy_1>
3.376

>  <excitation_energy_2>
4.98

>  <excitation_energy_3>
5.099

>  <excitation_energy_4>
5.178

>  <homo_energy>
-6.068

>  <homo_lumo_gap>
5.167

>  <logP>
2.19

>  <lumo_energy>
-0.901

>  <melting_point>
27.51

>  <molecular_refractivity>
48.66

>  <oscillator_strength_1>
0.0005

>  <oscillator_strength_2>
0.0067

>  <oscillator_strength_3>
0.0246

>  <oscillator_strength_4>
0.0183

>  <open_babel_can_smiles>
CCN(Cc1ccccc1)N=O

>  <mulliken_charges>
24
1   -0.448058
2   -0.133882
3   -0.128207
4   -0.129827
5   -0.127792
6   -0.178434
7   -0.192009
8   -0.252963
9   0.172884
10   0.152911
11   -0.20407
12   -0.382975
13   0.150706
14   0.166367
15   0.166318
16   0.178877
17   0.149652
18   0.131912
19   0.135238
20   0.131324
21   0.160947
22   0.12326
23   0.155783
24   0.202039

>  <lowdin_charges>
24
1   -0.450417
2   -0.193685
3   -0.15597
4   -0.150243
5   -0.157106
6   -0.160021
7   -0.170712
8   -0.213997
9   -0.014702
10   0.051022
11   -0.036078
12   -0.277311
13   0.155757
14   0.159879
15   0.160078
16   0.166389
17   0.145999
18   0.158324
19   0.159793
20   0.159729
21   0.172383
22   0.153108
23   0.156381
24   0.181398

$$$$

