PCCDB-ID:  49104
public computational chemistry database (PCCDB) project, http://pccdb.org

 28 28  0  0  0  0  0  0  0  0999 V2000
    3.8830   -1.2573    0.3296 C   0  0  0  0  0  0  0  0  0  0  0  0
    2.3564   -0.8010    2.2245 C   0  0  0  0  0  0  0  0  0  0  0  0
    6.5668    5.0117    0.1628 C   0  0  0  0  0  0  0  0  0  0  0  0
    5.1778    4.9329    0.2774 C   0  0  0  0  0  0  0  0  0  0  0  0
    7.3298    3.8454    0.1918 C   0  0  0  0  0  0  0  0  0  0  0  0
    4.5538    3.6941    0.4173 C   0  0  0  0  0  0  0  0  0  0  0  0
    7.5575    1.3204    0.3607 C   0  0  0  0  0  0  0  0  0  0  0  0
    6.7336    2.5887    0.3455 C   0  0  0  0  0  0  0  0  0  0  0  0
    5.3373    2.5418    0.4505 C   0  0  0  0  0  0  0  0  0  0  0  0
    3.8225    0.9703    1.4590 C   0  0  0  0  0  0  0  0  0  0  0  0
    7.5940    0.7034   -0.9787 N   0  0  0  0  0  0  0  0  0  0  0  0
    3.4273   -0.3336    1.3572 N   0  0  0  0  0  0  0  0  0  0  0  0
    3.4181    1.7672    2.2827 O   0  0  0  0  0  0  0  0  0  0  0  0
    4.7636    1.2672    0.4942 O   0  0  0  0  0  0  0  0  0  0  0  0
    3.1331   -1.3754   -0.4658 H   0  0  0  0  0  0  0  0  0  0  0  0
    4.0566   -2.2409    0.7821 H   0  0  0  0  0  0  0  0  0  0  0  0
    4.8131   -0.9051   -0.1112 H   0  0  0  0  0  0  0  0  0  0  0  0
    1.4526   -1.0280    1.6422 H   0  0  0  0  0  0  0  0  0  0  0  0
    2.1292   -0.0231    2.9516 H   0  0  0  0  0  0  0  0  0  0  0  0
    2.6673   -1.7129    2.7491 H   0  0  0  0  0  0  0  0  0  0  0  0
    7.0527    5.9767    0.0493 H   0  0  0  0  0  0  0  0  0  0  0  0
    4.5737    5.8357    0.2574 H   0  0  0  0  0  0  0  0  0  0  0  0
    8.4112    3.8998    0.0951 H   0  0  0  0  0  0  0  0  0  0  0  0
    3.4780    3.6171    0.5113 H   0  0  0  0  0  0  0  0  0  0  0  0
    7.1692    0.6512    1.1458 H   0  0  0  0  0  0  0  0  0  0  0  0
    8.5883    1.5715    0.6356 H   0  0  0  0  0  0  0  0  0  0  0  0
    6.6404    0.4903   -1.2694 H   0  0  0  0  0  0  0  0  0  0  0  0
    8.0837   -0.1896   -0.9237 H   0  0  0  0  0  0  0  0  0  0  0  0
  1 16  1  0  0  0  0
  1 12  1  0  0  0  0
  2 20  1  0  0  0  0
  2 19  1  0  0  0  0
  3  5  2  0  0  0  0
  3  4  1  0  0  0  0
  4  6  2  0  0  0  0
  5  8  1  0  0  0  0
  6  9  1  0  0  0  0
  6 24  1  0  0  0  0
  7 26  1  0  0  0  0
  7 25  1  0  0  0  0
  8  7  1  0  0  0  0
  8  9  2  0  0  0  0
  9 14  1  0  0  0  0
 10 13  2  0  0  0  0
 11 28  1  0  0  0  0
 11  7  1  0  0  0  0
 12 10  1  0  0  0  0
 12  2  1  0  0  0  0
 14 10  1  0  0  0  0
 15  1  1  0  0  0  0
 17  1  1  0  0  0  0
 18  2  1  0  0  0  0
 21  3  1  0  0  0  0
 22  4  1  0  0  0  0
 23  5  1  0  0  0  0
 27 11  1  0  0  0  0
M  END
>  <HBA>
4

>  <HBD>
1

>  <TPSA>
55.56

>  <cid>
49104

>  <dipole>
3.14

>  <excitation_energy_1>
5.188

>  <excitation_energy_2>
5.312

>  <excitation_energy_3>
5.609

>  <excitation_energy_4>
5.685

>  <homo_energy>
-6.275

>  <homo_lumo_gap>
6.278

>  <logP>
1.906

>  <lumo_energy>
0.003

>  <melting_point>
100.54

>  <molecular_refractivity>
53.71

>  <oscillator_strength_1>
0.0062

>  <oscillator_strength_2>
0.0037

>  <oscillator_strength_3>
0.0443

>  <oscillator_strength_4>
0.0162

>  <open_babel_can_smiles>
NCc1ccccc1OC(=O)N(C)C

>  <mulliken_charges>
28
1   -0.313814
2   -0.318848
3   -0.119294
4   -0.147846
5   -0.187816
6   -0.129959
7   -0.211558
8   0.136641
9   0.301314
10   0.785897
11   -0.715449
12   -0.437038
13   -0.508052
14   -0.569284
15   0.158445
16   0.156699
17   0.186485
18   0.15445
19   0.206563
20   0.154862
21   0.128945
22   0.1332
23   0.131214
24   0.151618
25   0.128429
26   0.145045
27   0.306455
28   0.292696

>  <lowdin_charges>
28
1   -0.351989
2   -0.35189
3   -0.162297
4   -0.152212
5   -0.148577
6   -0.162192
7   -0.199777
8   -0.02289
9   0.097159
10   0.21551
11   -0.556304
12   -0.107497
13   -0.302513
14   -0.185665
15   0.149773
16   0.152801
17   0.171122
18   0.148517
19   0.186682
20   0.150953
21   0.158452
22   0.160459
23   0.157929
24   0.172128
25   0.130094
26   0.147544
27   0.253063
28   0.251619

$$$$

