PCCDB-ID:  38097
public computational chemistry database (PCCDB) project, http://pccdb.org

 31 31  0  0  0  0  0  0  0  0999 V2000
    2.4103   -0.6741   -2.8115 C   0  0  0  0  0  0  0  0  0  0  0  0
    2.1821    1.3661   -1.3142 C   0  0  0  0  0  0  0  0  0  0  0  0
    6.2786    4.2237    0.2390 C   0  0  0  0  0  0  0  0  0  0  0  0
    6.2362   -3.0120   -1.3992 C   0  0  0  0  0  0  0  0  0  0  0  0
    7.3899   -2.3211   -1.7731 C   0  0  0  0  0  0  0  0  0  0  0  0
    5.0556   -2.3184   -1.1289 C   0  0  0  0  0  0  0  0  0  0  0  0
    7.3670   -0.9280   -1.8588 C   0  0  0  0  0  0  0  0  0  0  0  0
    3.1333    0.3834   -1.9817 C   0  0  0  0  0  0  0  0  0  0  0  0
    5.0148   -0.9244   -1.2203 C   0  0  0  0  0  0  0  0  0  0  0  0
    6.1902   -0.2479   -1.5766 C   0  0  0  0  0  0  0  0  0  0  0  0
    6.3131    1.8684   -0.5799 C   0  0  0  0  0  0  0  0  0  0  0  0
    5.5679    3.6184   -2.0377 N   0  0  0  0  0  0  0  0  0  0  0  0
    6.0603    3.2346   -0.8144 N   0  0  0  0  0  0  0  0  0  0  0  0
    6.6534    1.4428    0.4954 O   0  0  0  0  0  0  0  0  0  0  0  0
    5.3751    4.8163   -2.1145 O   0  0  0  0  0  0  0  0  0  0  0  0
    3.8748   -0.2414   -0.8924 O   0  0  0  0  0  0  0  0  0  0  0  0
    6.1492    1.1476   -1.7116 O   0  0  0  0  0  0  0  0  0  0  0  0
    1.8714   -0.2004   -3.6399 H   0  0  0  0  0  0  0  0  0  0  0  0
    1.6871   -1.2191   -2.1943 H   0  0  0  0  0  0  0  0  0  0  0  0
    3.1152   -1.3953   -3.2380 H   0  0  0  0  0  0  0  0  0  0  0  0
    1.5787    1.8830   -2.0678 H   0  0  0  0  0  0  0  0  0  0  0  0
    2.7382    2.1147   -0.7418 H   0  0  0  0  0  0  0  0  0  0  0  0
    1.5083    0.8393   -0.6295 H   0  0  0  0  0  0  0  0  0  0  0  0
    6.6685    3.6983    1.1076 H   0  0  0  0  0  0  0  0  0  0  0  0
    5.3346    4.7197    0.4799 H   0  0  0  0  0  0  0  0  0  0  0  0
    6.9870    4.9789   -0.1111 H   0  0  0  0  0  0  0  0  0  0  0  0
    6.2512   -4.0955   -1.3228 H   0  0  0  0  0  0  0  0  0  0  0  0
    8.3077   -2.8594   -1.9894 H   0  0  0  0  0  0  0  0  0  0  0  0
    4.1494   -2.8382   -0.8342 H   0  0  0  0  0  0  0  0  0  0  0  0
    8.2506   -0.3617   -2.1360 H   0  0  0  0  0  0  0  0  0  0  0  0
    3.8441    0.9301   -2.6125 H   0  0  0  0  0  0  0  0  0  0  0  0
  1 19  1  0  0  0  0
  1  8  1  0  0  0  0
  2 22  1  0  0  0  0
  2 23  1  0  0  0  0
  3 25  1  0  0  0  0
  3 24  1  0  0  0  0
  4 27  1  0  0  0  0
  4  6  2  0  0  0  0
  5  4  1  0  0  0  0
  6 29  1  0  0  0  0
  7  5  2  0  0  0  0
  7 10  1  0  0  0  0
  8  2  1  0  0  0  0
  8 16  1  0  0  0  0
  9  6  1  0  0  0  0
  9 16  1  0  0  0  0
 10  9  2  0  0  0  0
 11 14  2  0  0  0  0
 12 13  1  0  0  0  0
 13 11  1  0  0  0  0
 13  3  1  0  0  0  0
 15 12  1  0  0  0  0
 17 10  1  0  0  0  0
 17 11  1  0  0  0  0
 18  1  1  0  0  0  0
 20  1  1  0  0  0  0
 21  2  1  0  0  0  0
 26  3  1  0  0  0  0
 28  5  1  0  0  0  0
 30  7  1  0  0  0  0
 31  8  1  0  0  0  0
M  RAD  2  12   2  15   2
M  END
>  <HBA>
6

>  <HBD>
0

>  <TPSA>
68.2

>  <cid>
38097

>  <dipole>
1.14

>  <excitation_energy_1>
2.996

>  <excitation_energy_2>
3.8

>  <excitation_energy_3>
4.279

>  <excitation_energy_4>
4.847

>  <homo_energy>
-6.52

>  <homo_lumo_gap>
4.517

>  <logP>
2.586

>  <lumo_energy>
-2.003

>  <melting_point>
65.95

>  <molecular_refractivity>
62.07

>  <oscillator_strength_1>
0.0012

>  <oscillator_strength_2>
0.0001

>  <oscillator_strength_3>
0.0006

>  <oscillator_strength_4>
0.0051

>  <open_babel_can_smiles>
[O][N]N(C(=O)Oc1ccccc1OC(C)C)C

>  <mulliken_charges>
31
1   -0.456801
2   -0.448336
3   -0.327592
4   -0.127614
5   -0.142478
6   -0.184365
7   -0.158687
8   0.122823
9   0.367739
10   0.311911
11   0.826549
12   0.195447
13   -0.344217
14   -0.460367
15   -0.322586
16   -0.551879
17   -0.525837
18   0.149266
19   0.151159
20   0.156633
21   0.149529
22   0.152102
23   0.156118
24   0.210435
25   0.188926
26   0.188915
27   0.137163
28   0.137987
29   0.144324
30   0.146683
31   0.157052

>  <lowdin_charges>
31
1   -0.461329
2   -0.449333
3   -0.368102
4   -0.148137
5   -0.158312
6   -0.171713
7   -0.159472
8   0.011697
9   0.086619
10   0.07836
11   0.224511
12   0.083411
13   -0.044238
14   -0.246189
15   -0.205903
16   -0.229005
17   -0.141806
18   0.158404
19   0.154951
20   0.159238
21   0.158577
22   0.157241
23   0.158074
24   0.191431
25   0.172993
26   0.174015
27   0.160538
28   0.163513
29   0.170146
30   0.171702
31   0.148117

$$$$

