PCCDB-ID:  61370
public computational chemistry database (PCCDB) project, http://pccdb.org

 19 18  0  0  0  0  0  0  0  0999 V2000
    0.5558   -0.2638    0.7482 C   0  0  0  0  0  0  0  0  0  0  0  0
    2.0450   -0.3846    0.9041 C   0  0  0  0  0  0  0  0  0  0  0  0
    2.8277   -1.2199    0.2159 C   0  0  0  0  0  0  0  0  0  0  0  0
    4.3183   -1.3470    0.3782 C   0  0  0  0  0  0  0  0  0  0  0  0
    4.7554   -2.7545    0.8273 C   0  0  0  0  0  0  0  0  0  0  0  0
    6.2725   -2.8919    0.9673 C   0  0  0  0  0  0  0  0  0  0  0  0
    6.6802   -4.2090    1.3201 O   0  0  0  0  0  0  0  0  0  0  0  0
    0.0369   -0.4722    1.6939 H   0  0  0  0  0  0  0  0  0  0  0  0
    0.1729   -0.9580   -0.0077 H   0  0  0  0  0  0  0  0  0  0  0  0
    0.2668    0.7537    0.4512 H   0  0  0  0  0  0  0  0  0  0  0  0
    2.5056    0.2766    1.6412 H   0  0  0  0  0  0  0  0  0  0  0  0
    2.3697   -1.8840   -0.5208 H   0  0  0  0  0  0  0  0  0  0  0  0
    4.6760   -0.5996    1.0994 H   0  0  0  0  0  0  0  0  0  0  0  0
    4.8131   -1.1176   -0.5787 H   0  0  0  0  0  0  0  0  0  0  0  0
    4.4031   -3.5073    0.1102 H   0  0  0  0  0  0  0  0  0  0  0  0
    4.2769   -2.9890    1.7898 H   0  0  0  0  0  0  0  0  0  0  0  0
    6.6538   -2.1502    1.6899 H   0  0  0  0  0  0  0  0  0  0  0  0
    6.7594   -2.6839    0.0079 H   0  0  0  0  0  0  0  0  0  0  0  0
    6.2944   -4.4087    2.1871 H   0  0  0  0  0  0  0  0  0  0  0  0
  1  2  1  0  0  0  0
  1  8  1  0  0  0  0
  2 11  1  0  0  0  0
  3  4  1  0  0  0  0
  3  2  2  0  0  0  0
  4  5  1  0  0  0  0
  4 13  1  0  0  0  0
  5  6  1  0  0  0  0
  5 16  1  0  0  0  0
  6  7  1  0  0  0  0
  6 17  1  0  0  0  0
  7 19  1  0  0  0  0
  9  1  1  0  0  0  0
 10  1  1  0  0  0  0
 12  3  1  0  0  0  0
 14  4  1  0  0  0  0
 15  5  1  0  0  0  0
 18  6  1  0  0  0  0
M  END
>  <HBA>
1

>  <HBD>
1

>  <TPSA>
20.23

>  <cid>
61370

>  <dipole>
1.78

>  <excitation_energy_1>
6.103

>  <excitation_energy_2>
6.271

>  <excitation_energy_3>
6.467

>  <excitation_energy_4>
6.548

>  <homo_energy>
-6.471

>  <homo_lumo_gap>
7.285

>  <logP>
1.335

>  <lumo_energy>
0.814

>  <melting_point>
1.85

>  <molecular_refractivity>
31.64

>  <oscillator_strength_1>
0.0209

>  <oscillator_strength_2>
0.0026

>  <oscillator_strength_3>
0.0005

>  <oscillator_strength_4>
0.0101

>  <open_babel_can_smiles>
C/C=C/CCCO

>  <mulliken_charges>
19
1   -0.486202
2   -0.092858
3   -0.084152
4   -0.30926
5   -0.276764
6   -0.0261
7   -0.614745
8   0.153375
9   0.151833
10   0.154252
11   0.116245
12   0.115466
13   0.13603
14   0.14168
15   0.146373
16   0.127376
17   0.117004
18   0.144866
19   0.38558

>  <lowdin_charges>
19
1   -0.439365
2   -0.167907
3   -0.170869
4   -0.271391
5   -0.293856
6   -0.136439
7   -0.467327
8   0.155648
9   0.155275
10   0.155353
11   0.145928
12   0.146196
13   0.145371
14   0.147413
15   0.149092
16   0.137678
17   0.124522
18   0.145258
19   0.339421

$$$$

