PCCDB-ID:  1048
public computational chemistry database (PCCDB) project, http://pccdb.org

  9  9  0  0  0  0  0  0  0  0999 V2000
   -1.1927   -0.0197    0.0015 C   0  0  0  0  0  0  0  0  0  0  0  0
   -0.3666   -1.1267    0.0018 C   0  0  0  0  0  0  0  0  0  0  0  0
   -0.3072    1.0825   -0.0009 C   0  0  0  0  0  0  0  0  0  0  0  0
    0.9052   -0.6482   -0.0005 N   0  0  0  0  0  0  0  0  0  0  0  0
    0.9699    0.7007   -0.0019 N   0  0  0  0  0  0  0  0  0  0  0  0
   -2.2729   -0.0097    0.0011 H   0  0  0  0  0  0  0  0  0  0  0  0
   -0.5769   -2.1868    0.0018 H   0  0  0  0  0  0  0  0  0  0  0  0
   -0.5464    2.1379   -0.0015 H   0  0  0  0  0  0  0  0  0  0  0  0
    1.7654   -1.1750    0.0005 H   0  0  0  0  0  0  0  0  0  0  0  0
  1  2  2  0  0  0  0
  2  7  1  0  0  0  0
  3  1  1  0  0  0  0
  4  9  1  0  0  0  0
  4  2  1  0  0  0  0
  5  3  2  0  0  0  0
  5  4  1  0  0  0  0
  6  1  1  0  0  0  0
  8  3  1  0  0  0  0
M  END
>  <HBA>
1

>  <HBD>
1

>  <TPSA>
28.68

>  <cid>
1048

>  <dipole>
2.29

>  <excitation_energy_1>
6.031

>  <excitation_energy_2>
6.311

>  <excitation_energy_3>
6.572

>  <excitation_energy_4>
6.799

>  <homo_energy>
-6.621

>  <homo_lumo_gap>
7.276

>  <logP>
0.41

>  <lumo_energy>
0.656

>  <melting_point>
65.09

>  <molecular_refractivity>
18.59

>  <oscillator_strength_1>
0.0072

>  <oscillator_strength_2>
0.0

>  <oscillator_strength_3>
0.0672

>  <oscillator_strength_4>
0.0125

>  <open_babel_can_smiles>
c1ccn[nH]1

>  <mulliken_charges>
9
1   -0.226577
2   0.075423
3   0.04325
4   -0.393916
5   -0.277576
6   0.135702
7   0.157168
8   0.141021
9   0.345505

>  <lowdin_charges>
9
1   -0.229563
2   -0.138131
3   -0.145229
4   -0.123442
5   -0.156518
6   0.16612
7   0.169105
8   0.161926
9   0.295731

$$$$

