PCCDB-ID:  16699
public computational chemistry database (PCCDB) project, http://pccdb.org

 26 25  0  0  0  0  0  0  0  0999 V2000
    1.6503    0.7600   -0.4256 C   0  0  0  0  0  0  0  0  0  0  0  0
    1.5801   -2.0396   -2.8623 C   0  0  0  0  0  0  0  0  0  0  0  0
    7.0924   -1.6546    0.1688 C   0  0  0  0  0  0  0  0  0  0  0  0
    2.4652   -0.4149    0.1256 C   0  0  0  0  0  0  0  0  0  0  0  0
    2.1125   -2.3526   -1.4608 C   0  0  0  0  0  0  0  0  0  0  0  0
    5.2298   -0.1903   -0.8567 C   0  0  0  0  0  0  0  0  0  0  0  0
    5.9494   -0.6911    0.4006 C   0  0  0  0  0  0  0  0  0  0  0  0
    4.2769   -1.2796   -1.3854 C   0  0  0  0  0  0  0  0  0  0  0  0
    2.9967   -1.3124   -0.9088 N   0  0  0  0  0  0  0  0  0  0  0  0
    5.5911   -0.3425    1.5108 O   0  0  0  0  0  0  0  0  0  0  0  0
    4.6952   -2.1035   -2.1979 O   0  0  0  0  0  0  0  0  0  0  0  0
    1.2834    1.3824    0.3987 H   0  0  0  0  0  0  0  0  0  0  0  0
    0.7840    0.4143   -0.9992 H   0  0  0  0  0  0  0  0  0  0  0  0
    2.2597    1.3900   -1.0834 H   0  0  0  0  0  0  0  0  0  0  0  0
    0.9356   -2.8566   -3.2073 H   0  0  0  0  0  0  0  0  0  0  0  0
    2.4105   -1.9397   -3.5659 H   0  0  0  0  0  0  0  0  0  0  0  0
    0.9936   -1.1147   -2.8755 H   0  0  0  0  0  0  0  0  0  0  0  0
    6.8051   -2.4044   -0.5770 H   0  0  0  0  0  0  0  0  0  0  0  0
    7.3867   -2.1266    1.1083 H   0  0  0  0  0  0  0  0  0  0  0  0
    7.9510   -1.1083   -0.2443 H   0  0  0  0  0  0  0  0  0  0  0  0
    1.8355   -1.0224    0.7866 H   0  0  0  0  0  0  0  0  0  0  0  0
    3.2889   -0.0575    0.7454 H   0  0  0  0  0  0  0  0  0  0  0  0
    2.6781   -3.2884   -1.4898 H   0  0  0  0  0  0  0  0  0  0  0  0
    1.2849   -2.4788   -0.7554 H   0  0  0  0  0  0  0  0  0  0  0  0
    5.9508   -0.0283   -1.6621 H   0  0  0  0  0  0  0  0  0  0  0  0
    4.7259    0.7498   -0.6267 H   0  0  0  0  0  0  0  0  0  0  0  0
  1  4  1  0  0  0  0
  1 12  1  0  0  0  0
  2  5  1  0  0  0  0
  3  7  1  0  0  0  0
  3 19  1  0  0  0  0
  4 22  1  0  0  0  0
  4 21  1  0  0  0  0
  5  9  1  0  0  0  0
  5 24  1  0  0  0  0
  6 26  1  0  0  0  0
  6  7  1  0  0  0  0
  7 10  2  0  0  0  0
  8  9  1  0  0  0  0
  8  6  1  0  0  0  0
  9  4  1  0  0  0  0
 11  8  2  0  0  0  0
 13  1  1  0  0  0  0
 14  1  1  0  0  0  0
 15  2  1  0  0  0  0
 16  2  1  0  0  0  0
 17  2  1  0  0  0  0
 18  3  1  0  0  0  0
 20  3  1  0  0  0  0
 23  5  1  0  0  0  0
 25  6  1  0  0  0  0
M  END
>  <HBA>
3

>  <HBD>
0

>  <TPSA>
37.38

>  <cid>
16699

>  <dipole>
1.72

>  <excitation_energy_1>
4.293

>  <excitation_energy_2>
5.021

>  <excitation_energy_3>
5.062

>  <excitation_energy_4>
5.93

>  <homo_energy>
-6.534

>  <homo_lumo_gap>
5.818

>  <logP>
0.834

>  <lumo_energy>
-0.716

>  <melting_point>
17.53

>  <molecular_refractivity>
43.87

>  <oscillator_strength_1>
0.0061

>  <oscillator_strength_2>
0.0364

>  <oscillator_strength_3>
0.0102

>  <oscillator_strength_4>
0.008

>  <open_babel_can_smiles>
CCN(C(=O)CC(=O)C)CC

>  <mulliken_charges>
26
1   -0.443832
2   -0.449268
3   -0.531745
4   -0.174947
5   -0.133824
6   -0.438287
7   0.449718
8   0.57293
9   -0.39853
10   -0.432546
11   -0.52072
12   0.152931
13   0.15557
14   0.1529
15   0.145076
16   0.181103
17   0.144296
18   0.200272
19   0.176533
20   0.173912
21   0.153717
22   0.193875
23   0.17546
24   0.138081
25   0.182929
26   0.174397

>  <lowdin_charges>
26
1   -0.457061
2   -0.454299
3   -0.478362
4   -0.206715
5   -0.192587
6   -0.336784
7   0.172543
8   0.158361
9   -0.096426
10   -0.239803
11   -0.32483
12   0.158257
13   0.153725
14   0.15351
15   0.154751
16   0.167688
17   0.14703
18   0.185859
19   0.171844
20   0.176069
21   0.15294
22   0.172014
23   0.164372
24   0.146672
25   0.180567
26   0.170665

$$$$

