PCCDB-ID:  70287
public computational chemistry database (PCCDB) project, http://pccdb.org

 24 25  0  0  0  0  0  0  0  0999 V2000
   -1.5384    0.5494   -0.4558 C   0  0  0  0  0  0  0  0  0  0  0  0
   -0.9144   -0.6475   -0.8102 C   0  0  0  0  0  0  0  0  0  0  0  0
   -0.7625    1.6342   -0.0420 C   0  0  0  0  0  0  0  0  0  0  0  0
    0.4764   -0.7535   -0.7533 C   0  0  0  0  0  0  0  0  0  0  0  0
    0.6270    1.5233    0.0148 C   0  0  0  0  0  0  0  0  0  0  0  0
    3.6394    1.0839   -1.1082 C   0  0  0  0  0  0  0  0  0  0  0  0
    3.5088   -0.3836   -1.4364 C   0  0  0  0  0  0  0  0  0  0  0  0
    3.3023   -0.1615    1.1363 C   0  0  0  0  0  0  0  0  0  0  0  0
    1.2667    0.3291   -0.3442 C   0  0  0  0  0  0  0  0  0  0  0  0
    2.7648    0.1895   -0.2504 C   0  0  0  0  0  0  0  0  0  0  0  0
    3.0919    0.9375    2.0831 N   0  0  0  0  0  0  0  0  0  0  0  0
   -2.6208    0.6371   -0.5034 H   0  0  0  0  0  0  0  0  0  0  0  0
   -1.5087   -1.4980   -1.1349 H   0  0  0  0  0  0  0  0  0  0  0  0
   -1.2405    2.5695    0.2385 H   0  0  0  0  0  0  0  0  0  0  0  0
    0.9589   -1.6873   -1.0326 H   0  0  0  0  0  0  0  0  0  0  0  0
    1.2263    2.3637    0.3500 H   0  0  0  0  0  0  0  0  0  0  0  0
    3.1493    1.7984   -1.7635 H   0  0  0  0  0  0  0  0  0  0  0  0
    4.5842    1.4331   -0.6965 H   0  0  0  0  0  0  0  0  0  0  0  0
    4.3617   -1.0305   -1.2456 H   0  0  0  0  0  0  0  0  0  0  0  0
    2.9327   -0.6555   -2.3162 H   0  0  0  0  0  0  0  0  0  0  0  0
    4.3615   -0.4616    1.0306 H   0  0  0  0  0  0  0  0  0  0  0  0
    2.7619   -1.0367    1.5178 H   0  0  0  0  0  0  0  0  0  0  0  0
    3.7018    1.7169    1.8407 H   0  0  0  0  0  0  0  0  0  0  0  0
    3.3560    0.6443    3.0218 H   0  0  0  0  0  0  0  0  0  0  0  0
  1  3  2  0  0  0  0
  2  4  2  0  0  0  0
  2  1  1  0  0  0  0
  3  5  1  0  0  0  0
  3 14  1  0  0  0  0
  4  9  1  0  0  0  0
  5 16  1  0  0  0  0
  6 18  1  0  0  0  0
  6 10  1  0  0  0  0
  7 19  1  0  0  0  0
  7  6  1  0  0  0  0
  7 10  1  0  0  0  0
  8 22  1  0  0  0  0
  8 11  1  0  0  0  0
  9 10  1  0  0  0  0
  9  5  2  0  0  0  0
 10  8  1  0  0  0  0
 11 24  1  0  0  0  0
 12  1  1  0  0  0  0
 13  2  1  0  0  0  0
 15  4  1  0  0  0  0
 17  6  1  0  0  0  0
 20  7  1  0  0  0  0
 21  8  1  0  0  0  0
 23 11  1  0  0  0  0
M  END
>  <HBA>
1

>  <HBD>
1

>  <TPSA>
26.02

>  <cid>
70287

>  <dipole>
1.65

>  <excitation_energy_1>
5.282

>  <excitation_energy_2>
5.546

>  <excitation_energy_3>
5.726

>  <excitation_energy_4>
5.805

>  <homo_energy>
-6.215

>  <homo_lumo_gap>
6.468

>  <logP>
2.377

>  <lumo_energy>
0.253

>  <melting_point>
88.93

>  <molecular_refractivity>
46.31

>  <oscillator_strength_1>
0.0001

>  <oscillator_strength_2>
0.0037

>  <oscillator_strength_3>
0.0164

>  <oscillator_strength_4>
0.0065

>  <open_babel_can_smiles>
NCC1(CC1)c1ccccc1

>  <mulliken_charges>
24
1   -0.128682
2   -0.131821
3   -0.135826
4   -0.177956
5   -0.144521
6   -0.323755
7   -0.335805
8   -0.149779
9   0.132231
10   0.040014
11   -0.708707
12   0.123564
13   0.12348
14   0.124241
15   0.122331
16   0.127498
17   0.157664
18   0.139961
19   0.145643
20   0.156643
21   0.107236
22   0.146651
23   0.292953
24   0.296742

>  <lowdin_charges>
24
1   -0.158347
2   -0.162207
3   -0.159696
4   -0.166282
5   -0.150403
6   -0.318434
7   -0.315441
8   -0.193715
9   0.002344
10   -0.011355
11   -0.552478
12   0.152744
13   0.155449
14   0.155211
15   0.154571
16   0.161134
17   0.164288
18   0.152106
19   0.155671
20   0.162796
21   0.116386
22   0.148399
23   0.251887
24   0.255371

$$$$

