PCCDB-ID:  42245
public computational chemistry database (PCCDB) project, http://pccdb.org

 31 32  0  0  1  0  0  0  0  0999 V2000
    0.6155    1.7662   -2.0573 C   0  0  0  0  0  0  0  0  0  0  0  0
    3.6373   -0.3742   -1.6818 C   0  0  0  0  0  0  0  0  0  0  0  0
    4.1938    1.0391   -1.3404 C   0  0  0  0  0  0  0  0  0  0  0  0
    3.1650    0.8900    3.0716 C   0  0  0  0  0  0  0  0  0  0  0  0
    1.5933   -0.4591   -0.1601 C   0  0  0  0  0  0  0  0  0  0  0  0
    2.4904    1.8196    0.3924 C   0  0  0  0  0  0  0  0  0  0  0  0
    2.1050   -0.1942   -1.5885 C   0  0  1  0  0  0  0  0  0  0  0  0
    2.9210    1.8811   -1.0909 C   0  0  2  0  0  0  0  0  0  0  0  0
    2.5261   -0.0540    2.0543 C   0  0  0  0  0  0  0  0  0  0  0  0
    3.3172    0.4001    4.5301 C   0  0  0  0  0  0  0  0  0  0  0  0
    1.9581    1.2176   -1.9766 N   0  0  0  0  0  0  0  0  0  0  0  0
    2.2770    0.4231    0.8069 N   0  0  0  0  0  0  0  0  0  0  0  0
    2.2533   -1.2299    2.3545 O   0  0  0  0  0  0  0  0  0  0  0  0
    3.7238    1.1719    5.3677 O   0  0  0  0  0  0  0  0  0  0  0  0
    3.0070   -0.8661    4.7979 O   0  0  0  0  0  0  0  0  0  0  0  0
    0.0406    1.1924   -2.7928 H   0  0  0  0  0  0  0  0  0  0  0  0
    0.6737    2.8011   -2.4132 H   0  0  0  0  0  0  0  0  0  0  0  0
    0.0416    1.7682   -1.1138 H   0  0  0  0  0  0  0  0  0  0  0  0
    4.0009   -1.1472   -0.9982 H   0  0  0  0  0  0  0  0  0  0  0  0
    3.9158   -0.6674   -2.6974 H   0  0  0  0  0  0  0  0  0  0  0  0
    4.7526    1.4549   -2.1829 H   0  0  0  0  0  0  0  0  0  0  0  0
    4.8598    1.0306   -0.4716 H   0  0  0  0  0  0  0  0  0  0  0  0
    2.6110    1.8323    3.1273 H   0  0  0  0  0  0  0  0  0  0  0  0
    4.1743    1.1624    2.7384 H   0  0  0  0  0  0  0  0  0  0  0  0
    1.7826   -1.4887    0.1442 H   0  0  0  0  0  0  0  0  0  0  0  0
    0.5086   -0.2936   -0.0995 H   0  0  0  0  0  0  0  0  0  0  0  0
    1.5695    2.4008    0.5456 H   0  0  0  0  0  0  0  0  0  0  0  0
    3.2690    2.2704    1.0090 H   0  0  0  0  0  0  0  0  0  0  0  0
    1.5534   -0.8378   -2.2834 H   0  0  0  0  0  0  0  0  0  0  0  0
    3.0379    2.9340   -1.3732 H   0  0  0  0  0  0  0  0  0  0  0  0
    2.6820   -1.2887    3.9541 H   0  0  0  0  0  0  0  0  0  0  0  0
  1 11  1  0  0  0  0
  1 18  1  0  0  0  0
  2  7  1  0  0  0  0
  2  3  1  0  0  0  0
  2 19  1  0  0  0  0
  3  8  1  0  0  0  0
  3 22  1  0  0  0  0
  4 23  1  0  0  0  0
  4 10  1  0  0  0  0
  5 26  1  0  0  0  0
  5 25  1  0  0  0  0
  5 12  1  0  0  0  0
  6 27  1  0  0  0  0
  6 12  1  0  0  0  0
  6 28  1  0  0  0  0
  7 29  1  6  0  0  0
  7  5  1  0  0  0  0
  8 30  1  6  0  0  0
  8  6  1  0  0  0  0
  9 13  2  0  0  0  0
  9  4  1  0  0  0  0
 10 15  1  0  0  0  0
 10 14  2  0  0  0  0
 11  7  1  0  0  0  0
 11  8  1  0  0  0  0
 12  9  1  0  0  0  0
 16  1  1  0  0  0  0
 17  1  1  0  0  0  0
 20  2  1  0  0  0  0
 21  3  1  0  0  0  0
 24  4  1  0  0  0  0
 31 15  1  0  0  0  0
M  END
>  <HBA>
5

>  <HBD>
1

>  <TPSA>
60.85

>  <cid>
42245

>  <dipole>
7.38

>  <excitation_energy_1>
4.898

>  <excitation_energy_2>
5.376

>  <excitation_energy_3>
5.556

>  <excitation_energy_4>
5.645

>  <homo_energy>
-6.112

>  <homo_lumo_gap>
5.973

>  <logP>
-0.358

>  <lumo_energy>
-0.139

>  <melting_point>
119.76

>  <molecular_refractivity>
61.55

>  <oscillator_strength_1>
0.0177

>  <oscillator_strength_2>
0.0356

>  <oscillator_strength_3>
0.0036

>  <oscillator_strength_4>
0.0079

>  <open_babel_can_smiles>
CN1[C@@H]2CC[C@H]1CN(C2)C(=O)CC(=O)O

>  <mulliken_charges>
31
1   -0.31211
2   -0.272459
3   -0.272163
4   -0.515322
5   -0.147191
6   -0.150907
7   -0.004028
8   0.00329
9   0.64118
10   0.614136
11   -0.3735
12   -0.449711
13   -0.565062
14   -0.47041
15   -0.583654
16   0.158534
17   0.156662
18   0.126542
19   0.14924
20   0.154445
21   0.156123
22   0.138061
23   0.20583
24   0.209224
25   0.196535
26   0.156559
27   0.159128
28   0.168992
29   0.138085
30   0.137499
31   0.446453

>  <lowdin_charges>
31
1   -0.363148
2   -0.283455
3   -0.28432
4   -0.354104
5   -0.210957
6   -0.217196
7   -0.074751
8   -0.071187
9   0.165367
10   0.191149
11   -0.185537
12   -0.091536
13   -0.334535
14   -0.266879
15   -0.356276
16   0.157786
17   0.154039
18   0.122972
19   0.152911
20   0.156112
21   0.158602
22   0.146505
23   0.189625
24   0.191401
25   0.178478
26   0.147637
27   0.148975
28   0.16513
29   0.151734
30   0.148127
31   0.36733

$$$$

