PCCDB-ID:  7912
public computational chemistry database (PCCDB) project, http://pccdb.org

 22 21  0  0  0  0  0  0  0  0999 V2000
    2.0564    0.3841    1.3447 C   0  0  0  0  0  0  0  0  0  0  0  0
    3.8648   -1.3483    1.6298 C   0  0  0  0  0  0  0  0  0  0  0  0
    5.4312    0.1700   -2.1470 C   0  0  0  0  0  0  0  0  0  0  0  0
    5.9196    1.7023   -0.1904 C   0  0  0  0  0  0  0  0  0  0  0  0
    3.5443    0.0740    1.1525 C   0  0  0  0  0  0  0  0  0  0  0  0
    5.2892    0.3684   -0.6336 C   0  0  0  0  0  0  0  0  0  0  0  0
    3.8703    0.2193   -0.2745 N   0  0  0  0  0  0  0  0  0  0  0  0
    1.7602    0.2493    2.3905 H   0  0  0  0  0  0  0  0  0  0  0  0
    1.4464   -0.2819    0.7233 H   0  0  0  0  0  0  0  0  0  0  0  0
    1.8259    1.4195    1.0626 H   0  0  0  0  0  0  0  0  0  0  0  0
    3.6404   -1.4561    2.6976 H   0  0  0  0  0  0  0  0  0  0  0  0
    4.9219   -1.5984    1.4893 H   0  0  0  0  0  0  0  0  0  0  0  0
    3.2691   -2.0774    1.0691 H   0  0  0  0  0  0  0  0  0  0  0  0
    6.4815    0.2176   -2.4573 H   0  0  0  0  0  0  0  0  0  0  0  0
    4.8889    0.9538   -2.6932 H   0  0  0  0  0  0  0  0  0  0  0  0
    5.0158   -0.7968   -2.4465 H   0  0  0  0  0  0  0  0  0  0  0  0
    6.9860    1.7405   -0.4442 H   0  0  0  0  0  0  0  0  0  0  0  0
    5.8309    1.8564    0.8905 H   0  0  0  0  0  0  0  0  0  0  0  0
    5.4276    2.5460   -0.6932 H   0  0  0  0  0  0  0  0  0  0  0  0
    4.1162    0.7804    1.7838 H   0  0  0  0  0  0  0  0  0  0  0  0
    5.8293   -0.4470   -0.1360 H   0  0  0  0  0  0  0  0  0  0  0  0
    3.3620    1.0208   -0.6487 H   0  0  0  0  0  0  0  0  0  0  0  0
  1  8  1  0  0  0  0
  2 11  1  0  0  0  0
  3  6  1  0  0  0  0
  4 18  1  0  0  0  0
  5  1  1  0  0  0  0
  5  2  1  0  0  0  0
  5 20  1  0  0  0  0
  6  7  1  0  0  0  0
  6  4  1  0  0  0  0
  6 21  1  0  0  0  0
  7  5  1  0  0  0  0
  9  1  1  0  0  0  0
 10  1  1  0  0  0  0
 12  2  1  0  0  0  0
 13  2  1  0  0  0  0
 14  3  1  0  0  0  0
 15  3  1  0  0  0  0
 16  3  1  0  0  0  0
 17  4  1  0  0  0  0
 19  4  1  0  0  0  0
 22  7  1  0  0  0  0
M  END
>  <HBA>
1

>  <HBD>
1

>  <TPSA>
12.03

>  <cid>
7912

>  <dipole>
0.88

>  <excitation_energy_1>
5.41

>  <excitation_energy_2>
5.784

>  <excitation_energy_3>
5.976

>  <excitation_energy_4>
6.049

>  <homo_energy>
-5.739

>  <homo_lumo_gap>
7.9

>  <logP>
1.784

>  <lumo_energy>
2.161

>  <melting_point>
0.62

>  <molecular_refractivity>
33.76

>  <oscillator_strength_1>
0.0102

>  <oscillator_strength_2>
0.0013

>  <oscillator_strength_3>
0.0422

>  <oscillator_strength_4>
0.0026

>  <open_babel_can_smiles>
CC(NC(C)C)C

>  <mulliken_charges>
22
1   -0.460633
2   -0.432169
3   -0.434695
4   -0.449244
5   0.069821
6   0.043228
7   -0.553532
8   0.144372
9   0.15416
10   0.134983
11   0.133727
12   0.141639
13   0.149452
14   0.136137
15   0.131479
16   0.154913
17   0.140281
18   0.146647
19   0.13193
20   0.104485
21   0.130842
22   0.282177

>  <lowdin_charges>
22
1   -0.447807
2   -0.447267
3   -0.446087
4   -0.460355
5   -0.05669
6   -0.060728
7   -0.364543
8   0.151329
9   0.154625
10   0.143434
11   0.144985
12   0.146144
13   0.153629
14   0.14597
15   0.143831
16   0.156426
17   0.148433
18   0.14727
19   0.143411
20   0.116318
21   0.140009
22   0.247664

$$$$

