PCCDB-ID:  70689
public computational chemistry database (PCCDB) project, http://pccdb.org

 16 15  0  0  0  0  0  0  0  0999 V2000
    1.0146   -0.2453    0.2955 C   0  0  0  0  0  0  0  0  0  0  0  0
    2.5059    3.3678   -1.1301 C   0  0  0  0  0  0  0  0  0  0  0  0
    5.1206    0.4157    0.1961 C   0  0  0  0  0  0  0  0  0  0  0  0
    2.2703   -0.1547   -0.1613 C   0  0  0  0  0  0  0  0  0  0  0  0
    2.1261    2.0841   -1.0893 C   0  0  0  0  0  0  0  0  0  0  0  0
    4.2954    1.1116   -0.5967 C   0  0  0  0  0  0  0  0  0  0  0  0
    2.8977    1.0094   -0.6262 N   0  0  0  0  0  0  0  0  0  0  0  0
    0.6036   -1.2167    0.5458 H   0  0  0  0  0  0  0  0  0  0  0  0
    0.3736    0.6188    0.4346 H   0  0  0  0  0  0  0  0  0  0  0  0
    1.8589    4.1042   -1.5929 H   0  0  0  0  0  0  0  0  0  0  0  0
    3.4440    3.7188   -0.7136 H   0  0  0  0  0  0  0  0  0  0  0  0
    6.1930    0.5113    0.0703 H   0  0  0  0  0  0  0  0  0  0  0  0
    4.7667   -0.2495    0.9764 H   0  0  0  0  0  0  0  0  0  0  0  0
    2.9064   -1.0328   -0.2356 H   0  0  0  0  0  0  0  0  0  0  0  0
    1.1544    1.7728   -1.4634 H   0  0  0  0  0  0  0  0  0  0  0  0
    4.6803    1.8146   -1.3307 H   0  0  0  0  0  0  0  0  0  0  0  0
  1  9  1  0  0  0  0
  1  8  1  0  0  0  0
  2  5  2  0  0  0  0
  2 11  1  0  0  0  0
  3 13  1  0  0  0  0
  4  1  2  0  0  0  0
  5  7  1  0  0  0  0
  6  3  2  0  0  0  0
  7  6  1  0  0  0  0
  7  4  1  0  0  0  0
 10  2  1  0  0  0  0
 12  3  1  0  0  0  0
 14  4  1  0  0  0  0
 15  5  1  0  0  0  0
 16  6  1  0  0  0  0
M  END
>  <HBA>
1

>  <HBD>
0

>  <TPSA>
3.24

>  <cid>
70689

>  <dipole>
0.36

>  <excitation_energy_1>
4.702

>  <excitation_energy_2>
4.703

>  <excitation_energy_3>
5.111

>  <excitation_energy_4>
5.354

>  <homo_energy>
-5.222

>  <homo_lumo_gap>
5.44

>  <logP>
1.719

>  <lumo_energy>
0.218

>  <melting_point>
-85.72

>  <molecular_refractivity>
32.43

>  <oscillator_strength_1>
0.2417

>  <oscillator_strength_2>
0.242

>  <oscillator_strength_3>
0.0689

>  <oscillator_strength_4>
0.0289

>  <open_babel_can_smiles>
C=CN(C=C)C=C

>  <mulliken_charges>
16
1   -0.38232
2   -0.382499
3   -0.382403
4   0.083002
5   0.08315
6   0.083015
7   -0.42413
8   0.144286
9   0.147004
10   0.144261
11   0.147007
12   0.144271
13   0.147009
14   0.149442
15   0.149435
16   0.149469

>  <lowdin_charges>
16
1   -0.391073
2   -0.391428
3   -0.389727
4   -0.092758
5   -0.092137
6   -0.091182
7   -0.035412
8   0.167052
9   0.164174
10   0.168379
11   0.163473
12   0.16539
13   0.164177
14   0.163997
15   0.162925
16   0.164152

$$$$

