PCCDB-ID:  69687
public computational chemistry database (PCCDB) project, http://pccdb.org

 19 19  0  0  0  0  0  0  0  0999 V2000
    2.1658   -1.3405    0.3662 C   0  0  0  0  0  0  0  0  0  0  0  0
    4.4587    2.9600    2.2630 C   0  0  0  0  0  0  0  0  0  0  0  0
    3.2761    3.2480    1.5871 C   0  0  0  0  0  0  0  0  0  0  0  0
    5.0523    1.7054    2.1527 C   0  0  0  0  0  0  0  0  0  0  0  0
    2.6276   -0.0406   -0.2624 C   0  0  0  0  0  0  0  0  0  0  0  0
    2.6849    2.2674    0.7815 C   0  0  0  0  0  0  0  0  0  0  0  0
    4.4468    0.7303    1.3529 C   0  0  0  0  0  0  0  0  0  0  0  0
    3.2577    0.9894    0.6536 C   0  0  0  0  0  0  0  0  0  0  0  0
    2.4656    0.1998   -1.4426 O   0  0  0  0  0  0  0  0  0  0  0  0
    1.5139    2.4942    0.1217 O   0  0  0  0  0  0  0  0  0  0  0  0
    5.0019   -0.5133    1.2011 O   0  0  0  0  0  0  0  0  0  0  0  0
    1.3387   -1.1301    1.0573 H   0  0  0  0  0  0  0  0  0  0  0  0
    2.9694   -1.8020    0.9470 H   0  0  0  0  0  0  0  0  0  0  0  0
    1.8196   -2.0211   -0.4150 H   0  0  0  0  0  0  0  0  0  0  0  0
    4.9227    3.7218    2.8830 H   0  0  0  0  0  0  0  0  0  0  0  0
    2.8090    4.2259    1.6807 H   0  0  0  0  0  0  0  0  0  0  0  0
    5.9799    1.4815    2.6751 H   0  0  0  0  0  0  0  0  0  0  0  0
    1.2313    3.4061    0.2910 H   0  0  0  0  0  0  0  0  0  0  0  0
    5.8300   -0.5500    1.7040 H   0  0  0  0  0  0  0  0  0  0  0  0
  1 13  1  0  0  0  0
  1 12  1  0  0  0  0
  2 15  1  0  0  0  0
  3 16  1  0  0  0  0
  3  2  2  0  0  0  0
  4  2  1  0  0  0  0
  4 17  1  0  0  0  0
  5  1  1  0  0  0  0
  5  8  1  0  0  0  0
  6  3  1  0  0  0  0
  7  4  2  0  0  0  0
  8  6  2  0  0  0  0
  8  7  1  0  0  0  0
  9  5  2  0  0  0  0
 10 18  1  0  0  0  0
 10  6  1  0  0  0  0
 11  7  1  0  0  0  0
 11 19  1  0  0  0  0
 14  1  1  0  0  0  0
M  END
>  <HBA>
3

>  <HBD>
2

>  <TPSA>
57.53

>  <cid>
69687

>  <dipole>
4.52

>  <excitation_energy_1>
4.094

>  <excitation_energy_2>
4.524

>  <excitation_energy_3>
4.99

>  <excitation_energy_4>
5.161

>  <homo_energy>
-6.09

>  <homo_lumo_gap>
5.396

>  <logP>
1.3

>  <lumo_energy>
-0.694

>  <melting_point>
120.16

>  <molecular_refractivity>
40.68

>  <oscillator_strength_1>
0.0037

>  <oscillator_strength_2>
0.0268

>  <oscillator_strength_3>
0.0738

>  <oscillator_strength_4>
0.0003

>  <open_babel_can_smiles>
CC(=O)c1c(O)cccc1O

>  <mulliken_charges>
19
1   -0.53389
2   -0.134473
3   -0.197393
4   -0.196231
5   0.420605
6   0.318375
7   0.308195
8   -0.020196
9   -0.420786
10   -0.627752
11   -0.64432
12   0.169262
13   0.186646
14   0.171284
15   0.137573
16   0.119702
17   0.118849
18   0.411253
19   0.413297

>  <lowdin_charges>
19
1   -0.476921
2   -0.129684
3   -0.234043
4   -0.234381
5   0.177152
6   0.123658
7   0.114511
8   -0.100069
9   -0.215811
10   -0.361263
11   -0.376763
12   0.171344
13   0.177826
14   0.169331
15   0.16399
16   0.155191
17   0.155026
18   0.359344
19   0.361562

$$$$

