PCCDB-ID:  35283
public computational chemistry database (PCCDB) project, http://pccdb.org

 24 24  0  0  0  0  0  0  0  0999 V2000
    1.8220    0.6252    0.4586 C   0  0  0  0  0  0  0  0  0  0  0  0
    4.1939    1.0388    1.2389 C   0  0  0  0  0  0  0  0  0  0  0  0
    3.6607   -0.9440   -0.2778 C   0  0  0  0  0  0  0  0  0  0  0  0
    3.3100    0.5170    0.0974 C   0  0  0  0  0  0  0  0  0  0  0  0
    5.0498   -1.1033   -0.8357 C   0  0  0  0  0  0  0  0  0  0  0  0
    7.2171   -1.9209   -0.6589 C   0  0  0  0  0  0  0  0  0  0  0  0
    6.4632   -0.6219   -2.5337 C   0  0  0  0  0  0  0  0  0  0  0  0
    8.2004   -2.5405   -0.1324 N   0  0  0  0  0  0  0  0  0  0  0  0
    5.9311   -1.7790   -0.1486 N   0  0  0  0  0  0  0  0  0  0  0  0
    5.2564   -0.4864   -2.0589 N   0  0  0  0  0  0  0  0  0  0  0  0
    7.4459   -1.2954   -1.9145 N   0  0  0  0  0  0  0  0  0  0  0  0
    6.8043   -0.0807   -3.7079 O   0  0  0  0  0  0  0  0  0  0  0  0
    1.5541    1.6582    0.7096 H   0  0  0  0  0  0  0  0  0  0  0  0
    1.5813   -0.0004    1.3279 H   0  0  0  0  0  0  0  0  0  0  0  0
    1.1826    0.3041   -0.3722 H   0  0  0  0  0  0  0  0  0  0  0  0
    3.9624    2.0871    1.4614 H   0  0  0  0  0  0  0  0  0  0  0  0
    5.2593    0.9749    0.9929 H   0  0  0  0  0  0  0  0  0  0  0  0
    4.0322    0.4582    2.1561 H   0  0  0  0  0  0  0  0  0  0  0  0
    2.9520   -1.2880   -1.0429 H   0  0  0  0  0  0  0  0  0  0  0  0
    3.5636   -1.5946    0.5970 H   0  0  0  0  0  0  0  0  0  0  0  0
    3.4931    1.1330   -0.7934 H   0  0  0  0  0  0  0  0  0  0  0  0
    7.8921   -2.9353    0.7576 H   0  0  0  0  0  0  0  0  0  0  0  0
    8.3701   -1.3755   -2.3219 H   0  0  0  0  0  0  0  0  0  0  0  0
    6.0040    0.3699   -4.0355 H   0  0  0  0  0  0  0  0  0  0  0  0
  1 13  1  0  0  0  0
  1 14  1  0  0  0  0
  2 16  1  0  0  0  0
  2 18  1  0  0  0  0
  3  4  1  0  0  0  0
  3 20  1  0  0  0  0
  4  1  1  0  0  0  0
  4  2  1  0  0  0  0
  5  3  1  0  0  0  0
  5  9  2  0  0  0  0
  6  9  2  0  0  0  0
  6  8  1  0  0  0  0
  7 10  2  0  0  0  0
  7 11  1  0  0  0  0
  8 22  1  0  0  0  0
 10  5  1  0  0  0  0
 11  6  1  0  0  0  0
 12  7  1  0  0  0  0
 15  1  1  0  0  0  0
 17  2  1  0  0  0  0
 19  3  1  0  0  0  0
 21  4  1  0  0  0  0
 23 11  1  0  0  0  0
 24 12  1  0  0  0  0
M  RAD  1   8   2
M  END
>  <HBA>
4

>  <HBD>
2

>  <TPSA>
84.66

>  <cid>
35283

>  <dipole>
3.36

>  <excitation_energy_1>
4.431

>  <excitation_energy_2>
4.834

>  <excitation_energy_3>
5.371

>  <excitation_energy_4>
5.43

>  <homo_energy>
-6.245

>  <homo_lumo_gap>
5.246

>  <logP>
0.527

>  <lumo_energy>
-0.999

>  <melting_point>
169.05

>  <molecular_refractivity>
46.44

>  <oscillator_strength_1>
0.039

>  <oscillator_strength_2>
0.0017

>  <oscillator_strength_3>
0.0048

>  <oscillator_strength_4>
0.0006

>  <open_babel_can_smiles>
CC(CC1=[N]=C(NC(=N1)O)[NH])C

>  <mulliken_charges>
24
1   -0.442523
2   -0.442942
3   -0.309135
4   -0.077985
5   0.429371
6   0.600389
7   0.738419
8   -0.657093
9   -0.492432
10   -0.535872
11   -0.624984
12   -0.593575
13   0.143222
14   0.142481
15   0.141076
16   0.140367
17   0.15008
18   0.144604
19   0.152063
20   0.158715
21   0.141647
22   0.298565
23   0.362174
24   0.433368

>  <lowdin_charges>
24
1   -0.444104
2   -0.443109
3   -0.280703
4   -0.116078
5   0.124853
6   0.116672
7   0.194036
8   -0.436074
9   -0.222309
10   -0.272993
11   -0.207081
12   -0.333605
13   0.149129
14   0.147757
15   0.148829
16   0.147432
17   0.150694
18   0.14914
19   0.162141
20   0.161407
21   0.144921
22   0.266307
23   0.313718
24   0.379019

$$$$

