PCCDB-ID:  12239
public computational chemistry database (PCCDB) project, http://pccdb.org

 31 30  0  0  0  0  0  0  0  0999 V2000
    1.2409   -4.1075   -0.7888 C   0  0  0  0  0  0  0  0  0  0  0  0
   11.0915   -6.1053   -3.7613 C   0  0  0  0  0  0  0  0  0  0  0  0
    2.6339   -3.5421   -0.4961 C   0  0  0  0  0  0  0  0  0  0  0  0
   10.7139   -4.8395   -2.9851 C   0  0  0  0  0  0  0  0  0  0  0  0
    2.8897   -2.2067   -1.2062 C   0  0  0  0  0  0  0  0  0  0  0  0
    9.1956   -4.6846   -2.8156 C   0  0  0  0  0  0  0  0  0  0  0  0
    4.2543   -1.6026   -0.9183 C   0  0  0  0  0  0  0  0  0  0  0  0
    8.8364   -3.4229   -2.0491 C   0  0  0  0  0  0  0  0  0  0  0  0
    7.1483   -0.8752   -1.8036 O   0  0  0  0  0  0  0  0  0  0  0  0
    7.0492   -2.2687    0.2873 O   0  0  0  0  0  0  0  0  0  0  0  0
    5.2562   -2.5147   -1.4718 O   0  0  0  0  0  0  0  0  0  0  0  0
    7.3782   -3.3848   -1.9543 O   0  0  0  0  0  0  0  0  0  0  0  0
    6.7875   -2.1210   -1.1386 S   0  0  0  0  0  0  0  0  0  0  0  0
    1.0855   -5.0628   -0.2755 H   0  0  0  0  0  0  0  0  0  0  0  0
    1.1005   -4.2807   -1.8628 H   0  0  0  0  0  0  0  0  0  0  0  0
    0.4526   -3.4197   -0.4583 H   0  0  0  0  0  0  0  0  0  0  0  0
   12.1782   -6.1943   -3.8677 H   0  0  0  0  0  0  0  0  0  0  0  0
   10.6564   -6.0972   -4.7677 H   0  0  0  0  0  0  0  0  0  0  0  0
   10.7305   -7.0058   -3.2503 H   0  0  0  0  0  0  0  0  0  0  0  0
    3.3999   -4.2639   -0.8024 H   0  0  0  0  0  0  0  0  0  0  0  0
    2.7565   -3.4023    0.5871 H   0  0  0  0  0  0  0  0  0  0  0  0
   11.1164   -3.9583   -3.5035 H   0  0  0  0  0  0  0  0  0  0  0  0
   11.1927   -4.8599   -1.9962 H   0  0  0  0  0  0  0  0  0  0  0  0
    2.1399   -1.4663   -0.8929 H   0  0  0  0  0  0  0  0  0  0  0  0
    2.7766   -2.3259   -2.2916 H   0  0  0  0  0  0  0  0  0  0  0  0
    8.7861   -5.5524   -2.2835 H   0  0  0  0  0  0  0  0  0  0  0  0
    8.7087   -4.6532   -3.7984 H   0  0  0  0  0  0  0  0  0  0  0  0
    4.4317   -1.5039    0.1582 H   0  0  0  0  0  0  0  0  0  0  0  0
    4.3785   -0.6274   -1.3993 H   0  0  0  0  0  0  0  0  0  0  0  0
    9.1739   -2.5202   -2.5685 H   0  0  0  0  0  0  0  0  0  0  0  0
    9.2520   -3.4338   -1.0356 H   0  0  0  0  0  0  0  0  0  0  0  0
  1  3  1  0  0  0  0
  1 16  1  0  0  0  0
  1 14  1  0  0  0  0
  2 19  1  0  0  0  0
  2  4  1  0  0  0  0
  3 21  1  0  0  0  0
  4  6  1  0  0  0  0
  4 23  1  0  0  0  0
  5  7  1  0  0  0  0
  5 24  1  0  0  0  0
  5  3  1  0  0  0  0
  6 26  1  0  0  0  0
  6  8  1  0  0  0  0
  7 28  1  0  0  0  0
  8 12  1  0  0  0  0
  8 31  1  0  0  0  0
  9 13  2  0  0  0  0
 11 13  1  0  0  0  0
 11  7  1  0  0  0  0
 12 13  1  0  0  0  0
 13 10  2  0  0  0  0
 15  1  1  0  0  0  0
 17  2  1  0  0  0  0
 18  2  1  0  0  0  0
 20  3  1  0  0  0  0
 22  4  1  0  0  0  0
 25  5  1  0  0  0  0
 27  6  1  0  0  0  0
 29  7  1  0  0  0  0
 30  8  1  0  0  0  0
M  END
>  <HBA>
4

>  <HBD>
0

>  <TPSA>
60.98

>  <cid>
12239

>  <dipole>
1.91

>  <excitation_energy_1>
7.074

>  <excitation_energy_2>
7.407

>  <excitation_energy_3>
7.782

>  <excitation_energy_4>
7.872

>  <homo_energy>
-7.878

>  <homo_lumo_gap>
8.8

>  <logP>
2.945

>  <lumo_energy>
0.922

>  <melting_point>
-11.46

>  <molecular_refractivity>
51.7

>  <oscillator_strength_1>
0.0035

>  <oscillator_strength_2>
0.0

>  <oscillator_strength_3>
0.0008

>  <oscillator_strength_4>
0.0056

>  <open_babel_can_smiles>
CCCCOS(=O)(=O)OCCCC

>  <mulliken_charges>
31
1   -0.444427
2   -0.441999
3   -0.252115
4   -0.262203
5   -0.276444
6   -0.273135
7   -0.067213
8   -0.059821
9   -0.506352
10   -0.498908
11   -0.502876
12   -0.506472
13   1.316897
14   0.148539
15   0.145612
16   0.141821
17   0.149113
18   0.147678
19   0.147742
20   0.161599
21   0.136284
22   0.14079
23   0.140814
24   0.1451
25   0.156569
26   0.156776
27   0.156552
28   0.174783
29   0.175979
30   0.176273
31   0.173045

>  <lowdin_charges>
31
1   -0.442963
2   -0.439886
3   -0.27363
4   -0.27188
5   -0.278195
6   -0.279009
7   -0.123721
8   -0.124007
9   -0.563409
10   -0.560613
11   -0.396483
12   -0.394355
13   1.416262
14   0.153051
15   0.146921
16   0.147184
17   0.151658
18   0.149055
19   0.150235
20   0.154843
21   0.140753
22   0.144462
23   0.143353
24   0.154389
25   0.15231
26   0.15502
27   0.153758
28   0.157205
29   0.160441
30   0.159979
31   0.157272

$$$$

