PCCDB-ID:  71846
public computational chemistry database (PCCDB) project, http://pccdb.org

 36 38  0  0  1  0  0  0  0  0999 V2000
   -1.6787   -0.0650   -0.1177 C   0  0  0  0  0  0  0  0  0  0  0  0
    3.4261   -2.0276    6.6557 C   0  0  0  0  0  0  0  0  0  0  0  0
   -0.9778    1.1312   -0.2909 C   0  0  0  0  0  0  0  0  0  0  0  0
   -0.9723   -1.2434    0.1169 C   0  0  0  0  0  0  0  0  0  0  0  0
    2.3958   -2.2627    5.7426 C   0  0  0  0  0  0  0  0  0  0  0  0
    4.5929   -1.3912    6.2293 C   0  0  0  0  0  0  0  0  0  0  0  0
    0.4144    1.1402   -0.2343 C   0  0  0  0  0  0  0  0  0  0  0  0
    0.4246   -1.2316    0.1728 C   0  0  0  0  0  0  0  0  0  0  0  0
    2.5286   -1.8621    4.4128 C   0  0  0  0  0  0  0  0  0  0  0  0
    4.7255   -0.9947    4.8977 C   0  0  0  0  0  0  0  0  0  0  0  0
    3.4094   -1.2887    0.2077 C   0  0  0  0  0  0  0  0  0  0  0  0
    3.0789    0.5993    2.3216 C   0  0  0  0  0  0  0  0  0  0  0  0
    1.1376   -0.0414   -0.0091 C   0  0  0  0  0  0  0  0  0  0  0  0
    3.6968   -1.2215    3.9748 C   0  0  0  0  0  0  0  0  0  0  0  0
    2.6657    0.0402   -0.0195 C   0  0  1  0  0  0  0  0  0  0  0  0
    3.8284   -0.7380    2.5448 C   0  0  1  0  0  0  0  0  0  0  0  0
    3.1216    1.0736    0.9360 N   0  0  0  0  0  0  0  0  0  0  0  0
    3.2773   -1.7179    1.6000 N   0  0  0  0  0  0  0  0  0  0  0  0
   -2.7649   -0.0757   -0.1608 H   0  0  0  0  0  0  0  0  0  0  0  0
    3.3219   -2.3417    7.6910 H   0  0  0  0  0  0  0  0  0  0  0  0
   -1.5169    2.0582   -0.4704 H   0  0  0  0  0  0  0  0  0  0  0  0
   -1.5062   -2.1790    0.2644 H   0  0  0  0  0  0  0  0  0  0  0  0
    1.4850   -2.7601    6.0665 H   0  0  0  0  0  0  0  0  0  0  0  0
    5.4032   -1.2092    6.9306 H   0  0  0  0  0  0  0  0  0  0  0  0
    0.9599    2.0721   -0.3529 H   0  0  0  0  0  0  0  0  0  0  0  0
    0.9538   -2.1535    0.3859 H   0  0  0  0  0  0  0  0  0  0  0  0
    1.7333   -2.0498    3.6980 H   0  0  0  0  0  0  0  0  0  0  0  0
    5.6403   -0.5054    4.5688 H   0  0  0  0  0  0  0  0  0  0  0  0
    4.4669   -1.1236   -0.0819 H   0  0  0  0  0  0  0  0  0  0  0  0
    3.0187   -2.0767   -0.4459 H   0  0  0  0  0  0  0  0  0  0  0  0
    3.5015    1.3731    2.9715 H   0  0  0  0  0  0  0  0  0  0  0  0
    2.0296    0.4613    2.6045 H   0  0  0  0  0  0  0  0  0  0  0  0
    2.9593    0.4040   -1.0142 H   0  0  0  0  0  0  0  0  0  0  0  0
    4.9024   -0.5428    2.3415 H   0  0  0  0  0  0  0  0  0  0  0  0
    4.0828    1.3242    0.7018 H   0  0  0  0  0  0  0  0  0  0  0  0
    3.7394   -2.6151    1.7353 H   0  0  0  0  0  0  0  0  0  0  0  0
  1  4  2  0  0  0  0
  2 20  1  0  0  0  0
  3  7  2  0  0  0  0
  3  1  1  0  0  0  0
  4  8  1  0  0  0  0
  4 22  1  0  0  0  0
  5 23  1  0  0  0  0
  5  2  2  0  0  0  0
  6  2  1  0  0  0  0
  6 24  1  0  0  0  0
  7 13  1  0  0  0  0
  8 26  1  0  0  0  0
  9  5  1  0  0  0  0
 10  6  2  0  0  0  0
 11 18  1  0  0  0  0
 12 16  1  0  0  0  0
 12 32  1  0  0  0  0
 12 31  1  0  0  0  0
 13  8  2  0  0  0  0
 14  9  2  0  0  0  0
 14 10  1  0  0  0  0
 15 33  1  6  0  0  0
 15 13  1  0  0  0  0
 15 11  1  0  0  0  0
 15 17  1  0  0  0  0
 16 34  1  6  0  0  0
 16 14  1  0  0  0  0
 17 12  1  0  0  0  0
 18 36  1  0  0  0  0
 18 16  1  0  0  0  0
 19  1  1  0  0  0  0
 21  3  1  0  0  0  0
 25  7  1  0  0  0  0
 27  9  1  0  0  0  0
 28 10  1  0  0  0  0
 29 11  1  0  0  0  0
 30 11  1  0  0  0  0
 35 17  1  0  0  0  0
M  END
>  <HBA>
2

>  <HBD>
2

>  <TPSA>
24.06

>  <cid>
71846

>  <dipole>
1.98

>  <excitation_energy_1>
4.738

>  <excitation_energy_2>
4.946

>  <excitation_energy_3>
4.948

>  <excitation_energy_4>
5.101

>  <homo_energy>
-5.685

>  <homo_lumo_gap>
5.72

>  <logP>
3.319

>  <lumo_energy>
0.035

>  <melting_point>
112.49

>  <molecular_refractivity>
81.64

>  <oscillator_strength_1>
0.0093

>  <oscillator_strength_2>
0.0094

>  <oscillator_strength_3>
0.0549

>  <oscillator_strength_4>
0.0217

>  <open_babel_can_smiles>
N1C[C@H](NC[C@H]1c1ccccc1)c1ccccc1

>  <mulliken_charges>
36
1   -0.12792
2   -0.128182
3   -0.13276
4   -0.13746
5   -0.132096
6   -0.130613
7   -0.161281
8   -0.174779
9   -0.17445
10   -0.186838
11   -0.143946
12   -0.140101
13   0.159957
14   0.135207
15   -0.070707
16   -0.032934
17   -0.536376
18   -0.560951
19   0.123698
20   0.127261
21   0.124622
22   0.123109
23   0.128947
24   0.127257
25   0.136088
26   0.134933
27   0.150749
28   0.120597
29   0.106504
30   0.142753
31   0.14117
32   0.166243
33   0.140059
34   0.093372
35   0.288187
36   0.300681

>  <lowdin_charges>
36
1   -0.158124
2   -0.15822
3   -0.160148
4   -0.161845
5   -0.155441
6   -0.158545
7   -0.155444
8   -0.167541
9   -0.163197
10   -0.169016
11   -0.219248
12   -0.214051
13   -0.010512
14   -0.012755
15   -0.070479
16   -0.074656
17   -0.350367
18   -0.359793
19   0.152697
20   0.155316
21   0.155379
22   0.154531
23   0.157228
24   0.157356
25   0.162678
26   0.162276
27   0.168845
28   0.152932
29   0.115743
30   0.149832
31   0.151152
32   0.156535
33   0.150414
34   0.1112
35   0.247386
36   0.257884

$$$$

