PCCDB-ID:  70335
public computational chemistry database (PCCDB) project, http://pccdb.org

 23 24  0  0  0  0  0  0  0  0999 V2000
    0.9054   -0.1980   -0.2172 C   0  0  0  0  0  0  0  0  0  0  0  0
    7.7430   -3.2763    0.5176 C   0  0  0  0  0  0  0  0  0  0  0  0
    7.9831   -1.9236    0.2654 C   0  0  0  0  0  0  0  0  0  0  0  0
    6.4269   -3.7241    0.6283 C   0  0  0  0  0  0  0  0  0  0  0  0
    6.9323   -1.0227    0.1104 C   0  0  0  0  0  0  0  0  0  0  0  0
    5.3603   -2.8367    0.4890 C   0  0  0  0  0  0  0  0  0  0  0  0
    3.0700    1.1331    0.2889 C   0  0  0  0  0  0  0  0  0  0  0  0
    2.3683    0.0118    0.0029 C   0  0  0  0  0  0  0  0  0  0  0  0
    5.6093   -1.4814    0.2249 C   0  0  0  0  0  0  0  0  0  0  0  0
    4.4925    0.8044    0.3327 C   0  0  0  0  0  0  0  0  0  0  0  0
    3.2264   -1.0893   -0.0536 N   0  0  0  0  0  0  0  0  0  0  0  0
    4.5370   -0.5830    0.0348 N   0  0  0  0  0  0  0  0  0  0  0  0
    5.4679    1.5028    0.5725 O   0  0  0  0  0  0  0  0  0  0  0  0
    0.3693    0.7488   -0.1206 H   0  0  0  0  0  0  0  0  0  0  0  0
    0.4953   -0.9074    0.5109 H   0  0  0  0  0  0  0  0  0  0  0  0
    0.7027   -0.5999   -1.2188 H   0  0  0  0  0  0  0  0  0  0  0  0
    8.5708   -3.9707    0.6285 H   0  0  0  0  0  0  0  0  0  0  0  0
    9.0034   -1.5594    0.1798 H   0  0  0  0  0  0  0  0  0  0  0  0
    6.2209   -4.7712    0.8348 H   0  0  0  0  0  0  0  0  0  0  0  0
    7.1157    0.0265   -0.0774 H   0  0  0  0  0  0  0  0  0  0  0  0
    4.3411   -3.1863    0.6119 H   0  0  0  0  0  0  0  0  0  0  0  0
    2.6808    2.1228    0.4770 H   0  0  0  0  0  0  0  0  0  0  0  0
    3.1141   -1.6998   -0.8630 H   0  0  0  0  0  0  0  0  0  0  0  0
  1 14  1  0  0  0  0
  1  8  1  0  0  0  0
  1 15  1  0  0  0  0
  2  4  1  0  0  0  0
  2 17  1  0  0  0  0
  3  2  2  0  0  0  0
  4 19  1  0  0  0  0
  5  9  2  0  0  0  0
  5  3  1  0  0  0  0
  6 21  1  0  0  0  0
  6  4  2  0  0  0  0
  7 10  1  0  0  0  0
  7 22  1  0  0  0  0
  8  7  2  0  0  0  0
  9  6  1  0  0  0  0
 10 13  2  0  0  0  0
 11  8  1  0  0  0  0
 11 12  1  0  0  0  0
 12  9  1  0  0  0  0
 12 10  1  0  0  0  0
 16  1  1  0  0  0  0
 18  3  1  0  0  0  0
 20  5  1  0  0  0  0
 23 11  1  0  0  0  0
M  END
>  <HBA>
2

>  <HBD>
1

>  <TPSA>
37.79

>  <cid>
70335

>  <dipole>
5.03

>  <excitation_energy_1>
4.388

>  <excitation_energy_2>
4.709

>  <excitation_energy_3>
4.785

>  <excitation_energy_4>
4.836

>  <homo_energy>
-5.641

>  <homo_lumo_gap>
4.947

>  <logP>
1.474

>  <lumo_energy>
-0.694

>  <melting_point>
125.28

>  <molecular_refractivity>
51.36

>  <oscillator_strength_1>
0.2046

>  <oscillator_strength_2>
0.0099

>  <oscillator_strength_3>
0.0428

>  <oscillator_strength_4>
0.0089

>  <open_babel_can_smiles>
Cc1[nH]n(c(=O)c1)c1ccccc1

>  <mulliken_charges>
23
1   -0.526621
2   -0.125049
3   -0.144655
4   -0.137953
5   -0.15884
6   -0.182769
7   -0.298441
8   0.360979
9   0.319201
10   0.607273
11   -0.455958
12   -0.458804
13   -0.53447
14   0.183096
15   0.184944
16   0.167654
17   0.127068
18   0.134099
19   0.128861
20   0.18234
21   0.137876
22   0.149714
23   0.340453

>  <lowdin_charges>
23
1   -0.442649
2   -0.171352
3   -0.146132
4   -0.148639
5   -0.16949
6   -0.19438
7   -0.250492
8   0.057699
9   0.048306
10   0.154534
11   -0.197435
12   -0.033022
13   -0.307648
14   0.176515
15   0.175491
16   0.165227
17   0.158373
18   0.159382
19   0.156313
20   0.185536
21   0.161066
22   0.178286
23   0.284512

$$$$

