PCCDB-ID:  34773
public computational chemistry database (PCCDB) project, http://pccdb.org

 23 23  0  0  1  0  0  0  0  0999 V2000
    1.9626   -0.3253    1.3994 C   0  0  0  0  0  0  0  0  0  0  0  0
    3.0776    1.5130   -1.8691 C   0  0  0  0  0  0  0  0  0  0  0  0
    2.2480   -0.0442   -0.0786 C   0  0  0  0  0  0  0  0  0  0  0  0
    4.5859    1.0620    0.1517 C   0  0  0  0  0  0  0  0  0  0  0  0
    3.4564    2.7184    1.3940 C   0  0  0  0  0  0  0  0  0  0  0  0
    4.8516    2.4055    0.8560 C   0  0  2  0  0  0  0  0  0  0  0  0
    3.1269    1.1902   -0.3710 C   0  0  1  0  0  0  0  0  0  0  0  0
    5.3075    3.4187   -0.0360 O   0  0  0  0  0  0  0  0  0  0  0  0
    2.5814    2.3526    0.3249 O   0  0  0  0  0  0  0  0  0  0  0  0
    1.3190   -1.2060    1.5023 H   0  0  0  0  0  0  0  0  0  0  0  0
    1.4468    0.5232    1.8593 H   0  0  0  0  0  0  0  0  0  0  0  0
    2.8762   -0.5231    1.9724 H   0  0  0  0  0  0  0  0  0  0  0  0
    3.3580    0.6373   -2.4660 H   0  0  0  0  0  0  0  0  0  0  0  0
    3.7689    2.3239   -2.1229 H   0  0  0  0  0  0  0  0  0  0  0  0
    2.0658    1.8172   -2.1568 H   0  0  0  0  0  0  0  0  0  0  0  0
    1.2907    0.0940   -0.5985 H   0  0  0  0  0  0  0  0  0  0  0  0
    2.7269   -0.9181   -0.5425 H   0  0  0  0  0  0  0  0  0  0  0  0
    4.6786    0.2402    0.8707 H   0  0  0  0  0  0  0  0  0  0  0  0
    5.3058    0.8896   -0.6529 H   0  0  0  0  0  0  0  0  0  0  0  0
    3.3103    3.7822    1.6058 H   0  0  0  0  0  0  0  0  0  0  0  0
    3.2423    2.1413    2.3065 H   0  0  0  0  0  0  0  0  0  0  0  0
    5.6113    2.3304    1.6393 H   0  0  0  0  0  0  0  0  0  0  0  0
    4.5391    3.6879   -0.5654 H   0  0  0  0  0  0  0  0  0  0  0  0
  1 10  1  0  0  0  0
  1 11  1  0  0  0  0
  1 12  1  0  0  0  0
  3  1  1  0  0  0  0
  4  6  1  0  0  0  0
  4 18  1  0  0  0  0
  5 20  1  0  0  0  0
  5 21  1  0  0  0  0
  6  5  1  0  0  0  0
  6 22  1  1  0  0  0
  7  2  1  6  0  0  0
  7  3  1  0  0  0  0
  7  4  1  0  0  0  0
  7  9  1  0  0  0  0
  8  6  1  0  0  0  0
  9  5  1  0  0  0  0
 13  2  1  0  0  0  0
 14  2  1  0  0  0  0
 15  2  1  0  0  0  0
 16  3  1  0  0  0  0
 17  3  1  0  0  0  0
 19  4  1  0  0  0  0
 23  8  1  0  0  0  0
M  END
>  <HBA>
2

>  <HBD>
1

>  <TPSA>
29.46

>  <cid>
34773

>  <dipole>
1.44

>  <excitation_energy_1>
6.211

>  <excitation_energy_2>
6.468

>  <excitation_energy_3>
6.744

>  <excitation_energy_4>
6.914

>  <homo_energy>
-6.651

>  <homo_lumo_gap>
8.572

>  <logP>
0.936

>  <lumo_energy>
1.921

>  <melting_point>
16.04

>  <molecular_refractivity>
35.93

>  <oscillator_strength_1>
0.0092

>  <oscillator_strength_2>
0.0178

>  <oscillator_strength_3>
0.0013

>  <oscillator_strength_4>
0.0049

>  <open_babel_can_smiles>
C[C@@]1(CC)C[C@H](CO1)O

>  <mulliken_charges>
23
1   -0.460185
2   -0.461978
3   -0.262609
4   -0.338231
5   -0.056116
6   0.118821
7   0.339769
8   -0.631684
9   -0.521714
10   0.145766
11   0.164368
12   0.139419
13   0.144203
14   0.137142
15   0.156569
16   0.13887
17   0.130032
18   0.141951
19   0.159866
20   0.15223
21   0.126988
22   0.137671
23   0.39885

>  <lowdin_charges>
23
1   -0.45141
2   -0.450563
3   -0.281519
4   -0.313813
5   -0.151126
6   -0.015061
7   0.123733
8   -0.462833
9   -0.292894
10   0.153401
11   0.158194
12   0.143438
13   0.153372
14   0.147931
15   0.156906
16   0.147743
17   0.144337
18   0.151996
19   0.162655
20   0.150202
21   0.1333
22   0.148918
23   0.343095

$$$$

