PCCDB-ID:  33637
public computational chemistry database (PCCDB) project, http://pccdb.org

 19 19  0  0  0  0  0  0  0  0999 V2000
    0.7994   -0.9177   -0.3732 C   0  0  0  0  0  0  0  0  0  0  0  0
    2.0182    2.9757    0.4362 C   0  0  0  0  0  0  0  0  0  0  0  0
    4.5938   -1.3337   -0.0393 C   0  0  0  0  0  0  0  0  0  0  0  0
    4.9860   -0.0268    0.2301 C   0  0  0  0  0  0  0  0  0  0  0  0
    3.2373   -1.6154   -0.2339 C   0  0  0  0  0  0  0  0  0  0  0  0
    4.0340    0.9954    0.3045 C   0  0  0  0  0  0  0  0  0  0  0  0
    2.2629   -0.6204   -0.1656 C   0  0  0  0  0  0  0  0  0  0  0  0
    2.6823    0.6992    0.1085 C   0  0  0  0  0  0  0  0  0  0  0  0
    1.6768    1.6282    0.1611 O   0  0  0  0  0  0  0  0  0  0  0  0
    0.6424   -1.9832   -0.5675 H   0  0  0  0  0  0  0  0  0  0  0  0
    0.3914   -0.3495   -1.2178 H   0  0  0  0  0  0  0  0  0  0  0  0
    0.2059   -0.6364    0.5050 H   0  0  0  0  0  0  0  0  0  0  0  0
    1.0775    3.5299    0.4362 H   0  0  0  0  0  0  0  0  0  0  0  0
    2.6828    3.3904   -0.3336 H   0  0  0  0  0  0  0  0  0  0  0  0
    2.4996    3.0790    1.4180 H   0  0  0  0  0  0  0  0  0  0  0  0
    5.3303   -2.1299   -0.0985 H   0  0  0  0  0  0  0  0  0  0  0  0
    6.0353    0.2126    0.3815 H   0  0  0  0  0  0  0  0  0  0  0  0
    2.9241   -2.6357   -0.4444 H   0  0  0  0  0  0  0  0  0  0  0  0
    4.3544    2.0096    0.5144 H   0  0  0  0  0  0  0  0  0  0  0  0
  1  7  1  0  0  0  0
  1 12  1  0  0  0  0
  2 15  1  0  0  0  0
  3  4  2  0  0  0  0
  4  6  1  0  0  0  0
  4 17  1  0  0  0  0
  5  7  2  0  0  0  0
  5  3  1  0  0  0  0
  6 19  1  0  0  0  0
  7  8  1  0  0  0  0
  8  9  1  0  0  0  0
  8  6  2  0  0  0  0
  9  2  1  0  0  0  0
 10  1  1  0  0  0  0
 11  1  1  0  0  0  0
 13  2  1  0  0  0  0
 14  2  1  0  0  0  0
 16  3  1  0  0  0  0
 18  5  1  0  0  0  0
M  END
>  <HBA>
1

>  <HBD>
0

>  <TPSA>
9.23

>  <cid>
33637

>  <dipole>
1.26

>  <excitation_energy_1>
5.05

>  <excitation_energy_2>
5.408

>  <excitation_energy_3>
5.699

>  <excitation_energy_4>
5.715

>  <homo_energy>
-5.731

>  <homo_lumo_gap>
5.973

>  <logP>
2.004

>  <lumo_energy>
0.242

>  <melting_point>
13.26

>  <molecular_refractivity>
37.9

>  <oscillator_strength_1>
0.0375

>  <oscillator_strength_2>
0.0007

>  <oscillator_strength_3>
0.0719

>  <oscillator_strength_4>
0.0005

>  <open_babel_can_smiles>
COc1ccccc1C

>  <mulliken_charges>
19
1   -0.511632
2   -0.213071
3   -0.128048
4   -0.141366
5   -0.190646
6   -0.194539
7   0.126481
8   0.322372
9   -0.507955
10   0.145419
11   0.163703
12   0.163792
13   0.167502
14   0.151243
15   0.151269
16   0.122109
17   0.125297
18   0.120058
19   0.128013

>  <lowdin_charges>
19
1   -0.436787
2   -0.277453
3   -0.17937
4   -0.152058
5   -0.159757
6   -0.213093
7   -0.023637
8   0.091363
9   -0.201519
10   0.151599
11   0.162832
12   0.162634
13   0.161768
14   0.145822
15   0.144143
16   0.15639
17   0.15443
18   0.153201
19   0.159491

$$$$

