PCCDB-ID:  28022
public computational chemistry database (PCCDB) project, http://pccdb.org

 29 28  0  0  1  0  0  0  0  0999 V2000
    2.5546    0.7595   -0.3215 C   0  0  0  0  0  0  0  0  0  0  0  0
    2.3698   -2.1580   -1.4929 C   0  0  0  0  0  0  0  0  0  0  0  0
    4.7399   -3.3253    2.0454 C   0  0  0  0  0  0  0  0  0  0  0  0
    4.7643   -4.3031   -0.2710 C   0  0  0  0  0  0  0  0  0  0  0  0
    6.6286   -2.8102    0.4840 C   0  0  0  0  0  0  0  0  0  0  0  0
    2.1886   -0.5167    0.4478 C   0  0  0  0  0  0  0  0  0  0  0  0
    4.3875   -1.7840    0.0526 C   0  0  0  0  0  0  0  0  0  0  0  0
    2.8393   -1.8235   -0.0661 C   0  0  2  0  0  0  0  0  0  0  0  0
    5.1094   -3.0605    0.5719 C   0  0  0  0  0  0  0  0  0  0  0  0
    2.0762    1.6343    0.1335 H   0  0  0  0  0  0  0  0  0  0  0  0
    2.2272    0.7144   -1.3662 H   0  0  0  0  0  0  0  0  0  0  0  0
    3.6361    0.9386   -0.3202 H   0  0  0  0  0  0  0  0  0  0  0  0
    1.2744   -2.1811   -1.5521 H   0  0  0  0  0  0  0  0  0  0  0  0
    2.7410   -3.1332   -1.8228 H   0  0  0  0  0  0  0  0  0  0  0  0
    2.7261   -1.4139   -2.2152 H   0  0  0  0  0  0  0  0  0  0  0  0
    5.2782   -4.2005    2.4297 H   0  0  0  0  0  0  0  0  0  0  0  0
    3.6686   -3.5188    2.1720 H   0  0  0  0  0  0  0  0  0  0  0  0
    5.0022   -2.4683    2.6784 H   0  0  0  0  0  0  0  0  0  0  0  0
    5.3272   -5.1760    0.0826 H   0  0  0  0  0  0  0  0  0  0  0  0
    5.0164   -4.1511   -1.3278 H   0  0  0  0  0  0  0  0  0  0  0  0
    3.6997   -4.5547   -0.2105 H   0  0  0  0  0  0  0  0  0  0  0  0
    7.1927   -3.6647    0.8780 H   0  0  0  0  0  0  0  0  0  0  0  0
    6.9193   -1.9237    1.0615 H   0  0  0  0  0  0  0  0  0  0  0  0
    6.9449   -2.6508   -0.5543 H   0  0  0  0  0  0  0  0  0  0  0  0
    1.0963   -0.6395    0.4319 H   0  0  0  0  0  0  0  0  0  0  0  0
    2.4635   -0.3864    1.5040 H   0  0  0  0  0  0  0  0  0  0  0  0
    4.6738   -0.9669    0.7302 H   0  0  0  0  0  0  0  0  0  0  0  0
    4.8165   -1.5200   -0.9248 H   0  0  0  0  0  0  0  0  0  0  0  0
    2.4642   -2.6194    0.5924 H   0  0  0  0  0  0  0  0  0  0  0  0
  1 12  1  0  0  0  0
  1 10  1  0  0  0  0
  1  6  1  0  0  0  0
  2  8  1  0  0  0  0
  3 17  1  0  0  0  0
  3 16  1  0  0  0  0
  3 18  1  0  0  0  0
  4 21  1  0  0  0  0
  4 19  1  0  0  0  0
  4  9  1  0  0  0  0
  5  9  1  0  0  0  0
  5 22  1  0  0  0  0
  5 23  1  0  0  0  0
  6 26  1  0  0  0  0
  7  9  1  0  0  0  0
  7 27  1  0  0  0  0
  8  7  1  0  0  0  0
  8  6  1  0  0  0  0
  8 29  1  1  0  0  0
  9  3  1  0  0  0  0
 11  1  1  0  0  0  0
 13  2  1  0  0  0  0
 14  2  1  0  0  0  0
 15  2  1  0  0  0  0
 20  4  1  0  0  0  0
 24  5  1  0  0  0  0
 25  6  1  0  0  0  0
 28  7  1  0  0  0  0
M  END
>  <HBA>
0

>  <HBD>
0

>  <TPSA>
0.0

>  <cid>
28022

>  <dipole>
0.09

>  <excitation_energy_1>
7.41

>  <excitation_energy_2>
7.579

>  <excitation_energy_3>
7.792

>  <excitation_energy_4>
7.826

>  <homo_energy>
-7.938

>  <homo_lumo_gap>
9.927

>  <logP>
3.469

>  <lumo_energy>
1.989

>  <melting_point>
-9.87

>  <molecular_refractivity>
45.12

>  <oscillator_strength_1>
0.0512

>  <oscillator_strength_2>
0.021

>  <oscillator_strength_3>
0.0506

>  <oscillator_strength_4>
0.0184

>  <open_babel_can_smiles>
CC[C@H](CC(C)(C)C)C

>  <mulliken_charges>
29
1   -0.448746
2   -0.458277
3   -0.444155
4   -0.444296
5   -0.440844
6   -0.260122
7   -0.260327
8   -0.061371
9   0.094212
10   0.141254
11   0.145147
12   0.146248
13   0.135966
14   0.146552
15   0.142134
16   0.137149
17   0.141799
18   0.136163
19   0.135756
20   0.137699
21   0.143722
22   0.135886
23   0.136472
24   0.136951
25   0.125552
26   0.128186
27   0.124871
28   0.124368
29   0.122053

>  <lowdin_charges>
29
1   -0.447636
2   -0.448746
3   -0.44488
4   -0.442203
5   -0.442512
6   -0.270566
7   -0.278686
8   -0.128334
9   0.016218
10   0.150437
11   0.146032
12   0.145655
13   0.143466
14   0.150418
15   0.146459
16   0.147379
17   0.144833
18   0.146235
19   0.146943
20   0.14457
21   0.146401
22   0.146458
23   0.146122
24   0.144593
25   0.136025
26   0.137067
27   0.140706
28   0.139468
29   0.138076

$$$$

