PCCDB-ID:  34879
public computational chemistry database (PCCDB) project, http://pccdb.org

 34 35  0  0  0  0  0  0  0  0999 V2000
    1.7264    1.3348   -1.3455 C   0  0  0  0  0  0  0  0  0  0  0  0
    2.2314    0.1009   -0.5823 C   0  0  0  0  0  0  0  0  0  0  0  0
    0.2959    1.7009   -0.9220 C   0  0  0  0  0  0  0  0  0  0  0  0
    1.2815   -1.0947   -0.7462 C   0  0  0  0  0  0  0  0  0  0  0  0
   -0.6545    0.5024   -1.0807 C   0  0  0  0  0  0  0  0  0  0  0  0
   -0.7268   -1.4777    5.7782 C   0  0  0  0  0  0  0  0  0  0  0  0
    0.9099   -2.5030    4.9282 C   0  0  0  0  0  0  0  0  0  0  0  0
   -0.1688   -0.7551   -0.3362 C   0  0  0  0  0  0  0  0  0  0  0  0
   -0.5027   -2.1318    4.3918 C   0  0  0  0  0  0  0  0  0  0  0  0
   -0.3206   -1.6085    2.0083 C   0  0  0  0  0  0  0  0  0  0  0  0
   -0.1960   -2.8644    1.7642 N   0  0  0  0  0  0  0  0  0  0  0  0
    0.7426   -1.4648    5.9799 N   0  0  0  0  0  0  0  0  0  0  0  0
   -0.2690   -0.5358    1.1104 N   0  0  0  0  0  0  0  0  0  0  0  0
   -0.5437   -1.1619    3.3133 N   0  0  0  0  0  0  0  0  0  0  0  0
    1.7413    1.1267   -2.4260 H   0  0  0  0  0  0  0  0  0  0  0  0
    2.3990    2.1864   -1.1821 H   0  0  0  0  0  0  0  0  0  0  0  0
    2.3180    0.3442    0.4845 H   0  0  0  0  0  0  0  0  0  0  0  0
    3.2359   -0.1753   -0.9264 H   0  0  0  0  0  0  0  0  0  0  0  0
   -0.0764    2.5460   -1.5146 H   0  0  0  0  0  0  0  0  0  0  0  0
    0.3042    2.0341    0.1251 H   0  0  0  0  0  0  0  0  0  0  0  0
    1.6400   -1.9461   -0.1573 H   0  0  0  0  0  0  0  0  0  0  0  0
    1.2690   -1.4171   -1.7975 H   0  0  0  0  0  0  0  0  0  0  0  0
   -0.7372    0.2481   -2.1457 H   0  0  0  0  0  0  0  0  0  0  0  0
   -1.6690    0.7616   -0.7464 H   0  0  0  0  0  0  0  0  0  0  0  0
   -1.2835   -2.1429    6.4563 H   0  0  0  0  0  0  0  0  0  0  0  0
   -1.2021   -0.4883    5.7896 H   0  0  0  0  0  0  0  0  0  0  0  0
    1.7548   -2.3387    4.2508 H   0  0  0  0  0  0  0  0  0  0  0  0
    0.9469   -3.5372    5.3026 H   0  0  0  0  0  0  0  0  0  0  0  0
   -0.8232   -1.5934   -0.6279 H   0  0  0  0  0  0  0  0  0  0  0  0
   -1.1422   -2.9700    4.1204 H   0  0  0  0  0  0  0  0  0  0  0  0
   -0.1744   -3.0468    0.7615 H   0  0  0  0  0  0  0  0  0  0  0  0
    1.0575   -1.7290    6.9114 H   0  0  0  0  0  0  0  0  0  0  0  0
   -0.8976    0.2150    1.3741 H   0  0  0  0  0  0  0  0  0  0  0  0
   -0.0426   -0.3057    3.5310 H   0  0  0  0  0  0  0  0  0  0  0  0
  1 16  1  0  0  0  0
  1  3  1  0  0  0  0
  1  2  1  0  0  0  0
  2 17  1  0  0  0  0
  3 20  1  0  0  0  0
  4  2  1  0  0  0  0
  4  8  1  0  0  0  0
  4 21  1  0  0  0  0
  5  3  1  0  0  0  0
  5 24  1  0  0  0  0
  5  8  1  0  0  0  0
  6 26  1  0  0  0  0
  6 12  1  0  0  0  0
  6 25  1  0  0  0  0
  7 28  1  0  0  0  0
  7 12  1  0  0  0  0
  8 13  1  0  0  0  0
  9  7  1  0  0  0  0
  9  6  1  0  0  0  0
 10 14  1  0  0  0  0
 11 10  2  0  0  0  0
 12 32  1  0  0  0  0
 13 33  1  0  0  0  0
 13 10  1  0  0  0  0
 14 34  1  0  0  0  0
 14  9  1  0  0  0  0
 15  1  1  0  0  0  0
 18  2  1  0  0  0  0
 19  3  1  0  0  0  0
 22  4  1  0  0  0  0
 23  5  1  0  0  0  0
 27  7  1  0  0  0  0
 29  8  1  0  0  0  0
 30  9  1  0  0  0  0
 31 11  1  0  0  0  0
M  END
>  <HBA>
4

>  <HBD>
3

>  <TPSA>
62.44

>  <cid>
34879

>  <dipole>
1.9

>  <excitation_energy_1>
5.349

>  <excitation_energy_2>
5.457

>  <excitation_energy_3>
5.613

>  <excitation_energy_4>
5.743

>  <homo_energy>
-5.845

>  <homo_lumo_gap>
7.461

>  <logP>
1.615

>  <lumo_energy>
1.616

>  <melting_point>
142.41

>  <molecular_refractivity>
61.87

>  <oscillator_strength_1>
0.0018

>  <oscillator_strength_2>
0.002

>  <oscillator_strength_3>
0.0011

>  <oscillator_strength_4>
0.0153

>  <open_babel_can_smiles>
N=C(NC1CNC1)NC1CCCCC1

>  <mulliken_charges>
34
1   -0.257809
2   -0.256388
3   -0.254358
4   -0.26117
5   -0.302055
6   -0.143981
7   -0.122673
8   0.044559
9   0.031266
10   0.639049
11   -0.672188
12   -0.568859
13   -0.634571
14   -0.629161
15   0.126304
16   0.132393
17   0.144556
18   0.131726
19   0.133977
20   0.132121
21   0.149058
22   0.126662
23   0.141725
24   0.132689
25   0.127306
26   0.135704
27   0.146611
28   0.124887
29   0.124434
30   0.166443
31   0.280816
32   0.291032
33   0.318516
34   0.32138

>  <lowdin_charges>
34
1   -0.276331
2   -0.276533
3   -0.279397
4   -0.287233
5   -0.281403
6   -0.210543
7   -0.211532
8   -0.061416
9   -0.062985
10   0.122621
11   -0.480669
12   -0.390628
13   -0.325109
14   -0.303249
15   0.134574
16   0.145094
17   0.144539
18   0.14438
19   0.146102
20   0.137712
21   0.153644
22   0.139056
23   0.147345
24   0.14168
25   0.133859
26   0.137833
27   0.145656
28   0.131518
29   0.131417
30   0.163236
31   0.248063
32   0.247494
33   0.275089
34   0.276116

$$$$

