PCCDB-ID:  57567
public computational chemistry database (PCCDB) project, http://pccdb.org

 30 30  0  0  1  0  0  0  0  0999 V2000
    4.7480    2.5539   -0.6959 C   0  0  0  0  0  0  0  0  0  0  0  0
    6.3774   -1.3059    1.8154 C   0  0  0  0  0  0  0  0  0  0  0  0
    3.9331    2.4672    0.3588 C   0  0  0  0  0  0  0  0  0  0  0  0
    5.9464    1.0731    5.7229 C   0  0  0  0  0  0  0  0  0  0  0  0
    4.6946    1.8310    6.2013 C   0  0  0  0  0  0  0  0  0  0  0  0
    4.1131    3.8752    7.4703 C   0  0  0  0  0  0  0  0  0  0  0  0
    5.4104    4.1336    6.7844 C   0  0  0  0  0  0  0  0  0  0  0  0
    5.3866   -0.2855    2.3287 C   0  0  2  0  0  0  0  0  0  0  0  0
    4.0918    1.5018    1.4706 C   0  0  0  0  0  0  0  0  0  0  0  0
    5.5562    0.0541    4.6779 C   0  0  0  0  0  0  0  0  0  0  0  0
    5.0613    2.7877    7.2412 N   0  0  0  0  0  0  0  0  0  0  0  0
    3.3529    1.4565    2.4318 O   0  0  0  0  0  0  0  0  0  0  0  0
    4.9505   -0.9714    4.8972 O   0  0  0  0  0  0  0  0  0  0  0  0
    5.1562    0.6647    1.2946 O   0  0  0  0  0  0  0  0  0  0  0  0
    5.9354    0.4510    3.4314 O   0  0  0  0  0  0  0  0  0  0  0  0
    4.5774    3.2880   -1.4781 H   0  0  0  0  0  0  0  0  0  0  0  0
    5.6057    1.8984   -0.8067 H   0  0  0  0  0  0  0  0  0  0  0  0
    5.9722   -1.8155    0.9360 H   0  0  0  0  0  0  0  0  0  0  0  0
    6.5666   -2.0469    2.5969 H   0  0  0  0  0  0  0  0  0  0  0  0
    7.3184   -0.8182    1.5444 H   0  0  0  0  0  0  0  0  0  0  0  0
    3.0752    3.1225    0.4771 H   0  0  0  0  0  0  0  0  0  0  0  0
    6.3904    0.5518    6.5761 H   0  0  0  0  0  0  0  0  0  0  0  0
    6.6797    1.7734    5.3137 H   0  0  0  0  0  0  0  0  0  0  0  0
    3.9849    1.1141    6.6279 H   0  0  0  0  0  0  0  0  0  0  0  0
    4.2003    2.3103    5.3366 H   0  0  0  0  0  0  0  0  0  0  0  0
    3.2118    3.9075    6.8569 H   0  0  0  0  0  0  0  0  0  0  0  0
    3.9666    4.1617    8.5095 H   0  0  0  0  0  0  0  0  0  0  0  0
    6.2312    4.6149    7.3116 H   0  0  0  0  0  0  0  0  0  0  0  0
    5.3730    4.3373    5.7130 H   0  0  0  0  0  0  0  0  0  0  0  0
    4.4436   -0.7298    2.6476 H   0  0  0  0  0  0  0  0  0  0  0  0
  1  3  2  0  0  0  0
  2  8  1  0  0  0  0
  2 19  1  0  0  0  0
  3 21  1  0  0  0  0
  3  9  1  0  0  0  0
  4  5  1  0  0  0  0
  4 22  1  0  0  0  0
  5 24  1  0  0  0  0
  5 11  1  0  0  0  0
  6 27  1  0  0  0  0
  7 11  1  0  0  0  0
  7 28  1  0  0  0  0
  7  6  1  0  0  0  0
  8 30  1  1  0  0  0
  8 15  1  0  0  0  0
  9 12  2  0  0  0  0
 10 13  2  0  0  0  0
 10  4  1  0  0  0  0
 11  6  1  0  0  0  0
 14  9  1  0  0  0  0
 14  8  1  0  0  0  0
 15 10  1  0  0  0  0
 16  1  1  0  0  0  0
 17  1  1  0  0  0  0
 18  2  1  0  0  0  0
 20  2  1  0  0  0  0
 23  4  1  0  0  0  0
 25  5  1  0  0  0  0
 26  6  1  0  0  0  0
 29  7  1  0  0  0  0
M  END
>  <HBA>
5

>  <HBD>
0

>  <TPSA>
55.61

>  <cid>
57567

>  <dipole>
3.91

>  <excitation_energy_1>
4.268

>  <excitation_energy_2>
4.681

>  <excitation_energy_3>
5.231

>  <excitation_energy_4>
5.653

>  <homo_energy>
-6.376

>  <homo_lumo_gap>
4.841

>  <logP>
0.248

>  <lumo_energy>
-1.535

>  <melting_point>
-13.65

>  <molecular_refractivity>
56.98

>  <oscillator_strength_1>
0.0022

>  <oscillator_strength_2>
0.0

>  <oscillator_strength_3>
0.0133

>  <oscillator_strength_4>
0.0011

>  <open_babel_can_smiles>
C=CC(=O)O[C@H](OC(=O)CCN1CC1)C

>  <mulliken_charges>
30
1   -0.307577
2   -0.476046
3   -0.135272
4   -0.338989
5   -0.139855
6   -0.193118
7   -0.19803
8   0.338099
9   0.62525
10   0.618775
11   -0.356218
12   -0.477504
13   -0.473235
14   -0.488319
15   -0.469358
16   0.162685
17   0.179191
18   0.16371
19   0.178046
20   0.167115
21   0.162348
22   0.180852
23   0.164249
24   0.16998
25   0.142221
26   0.150116
27   0.158545
28   0.15761
29   0.146995
30   0.187735

>  <lowdin_charges>
30
1   -0.269698
2   -0.453676
3   -0.17957
4   -0.298415
5   -0.196077
6   -0.240071
7   -0.244997
8   0.114068
9   0.202889
10   0.207675
11   -0.193702
12   -0.25424
13   -0.261434
14   -0.186382
15   -0.194835
16   0.171832
17   0.177638
18   0.1666
19   0.173399
20   0.164987
21   0.176254
22   0.175956
23   0.164618
24   0.160111
25   0.134899
26   0.15096
27   0.158374
28   0.159808
29   0.146543
30   0.166486

$$$$

