PCCDB-ID:  70722
public computational chemistry database (PCCDB) project, http://pccdb.org

 18 18  0  0  0  0  0  0  0  0999 V2000
   -1.5308   -0.5571   -0.2169 C   0  0  0  0  0  0  0  0  0  0  0  0
   -0.4765   -1.6288   -0.0948 C   0  0  0  0  0  0  0  0  0  0  0  0
   -1.4282    0.7598   -0.0004 C   0  0  0  0  0  0  0  0  0  0  0  0
    0.8580   -1.2142    0.5402 C   0  0  0  0  0  0  0  0  0  0  0  0
   -0.1924    1.5532    0.3903 C   0  0  0  0  0  0  0  0  0  0  0  0
    1.6545   -0.1872   -0.2729 C   0  0  0  0  0  0  0  0  0  0  0  0
    1.0153    1.1885   -0.4729 C   0  0  0  0  0  0  0  0  0  0  0  0
    1.4664    1.9657   -1.2903 O   0  0  0  0  0  0  0  0  0  0  0  0
   -2.5086   -0.9277   -0.5263 H   0  0  0  0  0  0  0  0  0  0  0  0
   -0.2859   -2.0526   -1.0946 H   0  0  0  0  0  0  0  0  0  0  0  0
   -0.9015   -2.4599    0.4872 H   0  0  0  0  0  0  0  0  0  0  0  0
   -2.3220    1.3617   -0.1539 H   0  0  0  0  0  0  0  0  0  0  0  0
    1.4772   -2.1120    0.6583 H   0  0  0  0  0  0  0  0  0  0  0  0
    0.6791   -0.8380    1.5555 H   0  0  0  0  0  0  0  0  0  0  0  0
    0.0528    1.3996    1.4511 H   0  0  0  0  0  0  0  0  0  0  0  0
   -0.3762    2.6210    0.2482 H   0  0  0  0  0  0  0  0  0  0  0  0
    1.8960   -0.5766   -1.2701 H   0  0  0  0  0  0  0  0  0  0  0  0
    2.6231    0.0006    0.2133 H   0  0  0  0  0  0  0  0  0  0  0  0
  1  2  1  0  0  0  0
  1  3  2  0  0  0  0
  2 11  1  0  0  0  0
  2  4  1  0  0  0  0
  3  5  1  0  0  0  0
  4 13  1  0  0  0  0
  4 14  1  0  0  0  0
  5 15  1  0  0  0  0
  6 18  1  0  0  0  0
  6  4  1  0  0  0  0
  7  6  1  0  0  0  0
  7  5  1  0  0  0  0
  8  7  2  0  0  0  0
  9  1  1  0  0  0  0
 10  2  1  0  0  0  0
 12  3  1  0  0  0  0
 16  5  1  0  0  0  0
 17  6  1  0  0  0  0
M  END
>  <HBA>
1

>  <HBD>
0

>  <TPSA>
17.07

>  <cid>
70722

>  <dipole>
2.96

>  <excitation_energy_1>
4.285

>  <excitation_energy_2>
5.467

>  <excitation_energy_3>
5.782

>  <excitation_energy_4>
6.009

>  <homo_energy>
-6.321

>  <homo_lumo_gap>
6.025

>  <logP>
1.686

>  <lumo_energy>
-0.297

>  <melting_point>
26.53

>  <molecular_refractivity>
33.38

>  <oscillator_strength_1>
0.0015

>  <oscillator_strength_2>
0.0106

>  <oscillator_strength_3>
0.0136

>  <oscillator_strength_4>
0.0408

>  <open_babel_can_smiles>
O=C1CCCC=CC1

>  <mulliken_charges>
18
1   -0.091597
2   -0.297976
3   -0.13136
4   -0.278961
5   -0.38618
6   -0.349385
7   0.456233
8   -0.442037
9   0.126776
10   0.150114
11   0.147664
12   0.137549
13   0.142582
14   0.14334
15   0.164637
16   0.167891
17   0.170188
18   0.170521

>  <lowdin_charges>
18
1   -0.169964
2   -0.277219
3   -0.175481
4   -0.279878
5   -0.307951
6   -0.310323
7   0.167352
8   -0.236015
9   0.155
10   0.151432
11   0.15515
12   0.160576
13   0.153377
14   0.144836
15   0.162974
16   0.1674
17   0.167237
18   0.171495

$$$$

