PCCDB-ID:  7618
public computational chemistry database (PCCDB) project, http://pccdb.org

 25 24  0  0  0  0  0  0  0  0999 V2000
   -0.1098    1.7200   -0.0939 C   0  0  0  0  0  0  0  0  0  0  0  0
    1.5374    2.0938   -1.9099 C   0  0  0  0  0  0  0  0  0  0  0  0
    1.9651    2.9747    0.3654 C   0  0  0  0  0  0  0  0  0  0  0  0
   -0.2199    0.4941    0.8114 C   0  0  0  0  0  0  0  0  0  0  0  0
    1.5311    0.6986   -2.5468 C   0  0  0  0  0  0  0  0  0  0  0  0
    1.5690    4.4385    0.1328 C   0  0  0  0  0  0  0  0  0  0  0  0
    1.2858    1.9836   -0.4685 N   0  0  0  0  0  0  0  0  0  0  0  0
   -1.5890    0.3525    1.1690 O   0  0  0  0  0  0  0  0  0  0  0  0
    2.4178   -0.1636   -1.8601 O   0  0  0  0  0  0  0  0  0  0  0  0
    2.3047    5.2086    1.0768 O   0  0  0  0  0  0  0  0  0  0  0  0
   -0.5668    2.5770    0.4206 H   0  0  0  0  0  0  0  0  0  0  0  0
   -0.7110    1.5415   -0.9920 H   0  0  0  0  0  0  0  0  0  0  0  0
    0.8197    2.7529   -2.4295 H   0  0  0  0  0  0  0  0  0  0  0  0
    2.5367    2.5246   -2.0385 H   0  0  0  0  0  0  0  0  0  0  0  0
    1.7760    2.7343    1.4180 H   0  0  0  0  0  0  0  0  0  0  0  0
    3.0472    2.8837    0.2133 H   0  0  0  0  0  0  0  0  0  0  0  0
    0.4184    0.6328    1.6993 H   0  0  0  0  0  0  0  0  0  0  0  0
    0.1558   -0.3878    0.2688 H   0  0  0  0  0  0  0  0  0  0  0  0
    1.8610    0.7618   -3.5901 H   0  0  0  0  0  0  0  0  0  0  0  0
    0.5045    0.2923   -2.5533 H   0  0  0  0  0  0  0  0  0  0  0  0
    0.4836    4.5680    0.2691 H   0  0  0  0  0  0  0  0  0  0  0  0
    1.8093    4.7354   -0.9006 H   0  0  0  0  0  0  0  0  0  0  0  0
   -1.6743   -0.4352    1.7260 H   0  0  0  0  0  0  0  0  0  0  0  0
    2.3234    0.1027   -0.9251 H   0  0  0  0  0  0  0  0  0  0  0  0
    2.0760    6.1412    0.9488 H   0  0  0  0  0  0  0  0  0  0  0  0
  1 11  1  0  0  0  0
  1  4  1  0  0  0  0
  2  7  1  0  0  0  0
  3 15  1  0  0  0  0
  4  8  1  0  0  0  0
  4 17  1  0  0  0  0
  5  2  1  0  0  0  0
  5  9  1  0  0  0  0
  6 21  1  0  0  0  0
  6  3  1  0  0  0  0
  6 10  1  0  0  0  0
  7  1  1  0  0  0  0
  7  3  1  0  0  0  0
  8 23  1  0  0  0  0
  9 24  1  0  0  0  0
 12  1  1  0  0  0  0
 13  2  1  0  0  0  0
 14  2  1  0  0  0  0
 16  3  1  0  0  0  0
 18  4  1  0  0  0  0
 19  5  1  0  0  0  0
 20  5  1  0  0  0  0
 22  6  1  0  0  0  0
 25 10  1  0  0  0  0
M  END
>  <HBA>
4

>  <HBD>
3

>  <TPSA>
63.93

>  <cid>
7618

>  <dipole>
2.28

>  <excitation_energy_1>
5.308

>  <excitation_energy_2>
5.48

>  <excitation_energy_3>
5.831

>  <excitation_energy_4>
5.864

>  <homo_energy>
-6.003

>  <homo_lumo_gap>
7.742

>  <logP>
-1.735

>  <lumo_energy>
1.739

>  <melting_point>
31.93

>  <molecular_refractivity>
37.34

>  <oscillator_strength_1>
0.0076

>  <oscillator_strength_2>
0.0031

>  <oscillator_strength_3>
0.0282

>  <oscillator_strength_4>
0.007

>  <open_babel_can_smiles>
OCCN(CCO)CCO

>  <mulliken_charges>
25
1   -0.149556
2   -0.161321
3   -0.150636
4   -0.029288
5   -0.016454
6   -0.041202
7   -0.420054
8   -0.621534
9   -0.631711
10   -0.618191
11   0.148413
12   0.154881
13   0.123369
14   0.151784
15   0.156433
16   0.157824
17   0.123002
18   0.130306
19   0.139643
20   0.118679
21   0.125322
22   0.123589
23   0.395958
24   0.395594
25   0.395152

>  <lowdin_charges>
25
1   -0.210203
2   -0.222417
3   -0.207542
4   -0.145206
5   -0.138955
6   -0.148197
7   -0.18787
8   -0.473995
9   -0.475614
10   -0.468845
11   0.144283
12   0.152591
13   0.130677
14   0.150876
15   0.150864
16   0.150499
17   0.127197
18   0.130959
19   0.14431
20   0.121288
21   0.124738
22   0.125557
23   0.347862
24   0.331441
25   0.345703

$$$$

