PCCDB-ID:  10395
public computational chemistry database (PCCDB) project, http://pccdb.org

 21 21  0  0  1  0  0  0  0  0999 V2000
    1.1547   -2.4558   -5.0353 C   0  0  0  0  0  0  0  0  0  0  0  0
    2.0029   -2.1759   -4.2130 C   0  0  0  0  0  0  0  0  0  0  0  0
    2.9560   -1.8615   -3.2887 C   0  0  0  0  0  0  0  0  0  0  0  0
    3.8090   -1.5822   -2.4636 C   0  0  0  0  0  0  0  0  0  0  0  0
    4.7844   -1.2405   -1.4911 C   0  0  0  0  0  0  0  0  0  0  0  0
    6.0748   -1.1451   -1.7515 C   0  0  0  0  0  0  0  0  0  0  0  0
    7.3509   -1.0389   -1.9993 C   0  0  0  0  0  0  0  0  0  0  0  0
    8.8456   -2.6841   -3.2874 C   0  0  0  0  0  0  0  0  0  0  0  0
    9.1602   -4.1500   -2.9813 C   0  0  0  0  0  0  0  0  0  0  0  0
    8.3489   -2.1671   -1.9159 C   0  0  2  0  0  0  0  0  0  0  0  0
    8.2231   -4.4806   -1.8228 C   0  0  0  0  0  0  0  0  0  0  0  0
    7.9056   -5.5579   -1.3978 O   0  0  0  0  0  0  0  0  0  0  0  0
    7.7653   -3.3135   -1.2705 O   0  0  0  0  0  0  0  0  0  0  0  0
    0.4070   -2.7038   -5.7537 H   0  0  0  0  0  0  0  0  0  0  0  0
    4.4344   -1.0525   -0.4739 H   0  0  0  0  0  0  0  0  0  0  0  0
    7.7633   -0.0780   -2.3139 H   0  0  0  0  0  0  0  0  0  0  0  0
    8.0339   -2.6084   -4.0182 H   0  0  0  0  0  0  0  0  0  0  0  0
    9.6976   -2.1090   -3.6599 H   0  0  0  0  0  0  0  0  0  0  0  0
   10.1916   -4.2904   -2.6333 H   0  0  0  0  0  0  0  0  0  0  0  0
    8.9944   -4.8402   -3.8111 H   0  0  0  0  0  0  0  0  0  0  0  0
    9.2037   -1.8415   -1.3050 H   0  0  0  0  0  0  0  0  0  0  0  0
  1  2  3  0  0  0  0
  2  3  1  0  0  0  0
  3  4  3  0  0  0  0
  4  5  1  0  0  0  0
  5 15  1  0  0  0  0
  6  5  2  0  0  0  0
  7 10  1  0  0  0  0
  7  6  2  0  0  0  0
  8  9  1  0  0  0  0
  8 10  1  0  0  0  0
  9 19  1  0  0  0  0
  9 11  1  0  0  0  0
 10 21  1  1  0  0  0
 10 13  1  0  0  0  0
 11 12  2  0  0  0  0
 11 13  1  0  0  0  0
 14  1  1  0  0  0  0
 16  7  1  0  0  0  0
 17  8  1  0  0  0  0
 18  8  1  0  0  0  0
 20  9  1  0  0  0  0
M  END
>  <HBA>
2

>  <HBD>
0

>  <TPSA>
26.3

>  <cid>
10395

>  <dipole>
4.52

>  <excitation_energy_1>
4.133

>  <excitation_energy_2>
4.279

>  <excitation_energy_3>
4.288

>  <excitation_energy_4>
4.917

>  <homo_energy>
-6.27

>  <homo_lumo_gap>
4.884

>  <logP>
1.04

>  <lumo_energy>
-1.385

>  <melting_point>
50.29

>  <molecular_refractivity>
48.72

>  <oscillator_strength_1>
0.0001

>  <oscillator_strength_2>
0.0166

>  <oscillator_strength_3>
0.2075

>  <oscillator_strength_4>
0.0002

>  <open_babel_can_smiles>
C#CC#CC=C=C[C@@H]1CCC(=O)O1

>  <mulliken_charges>
21
1   -1.046527
2   0.665525
3   0.83462
4   -0.648948
5   -0.424319
6   0.363034
7   -0.362498
8   -0.307105
9   -0.38804
10   0.141589
11   0.617898
12   -0.447101
13   -0.460533
14   0.229807
15   0.196123
16   0.172374
17   0.174987
18   0.157709
19   0.184788
20   0.190946
21   0.155672

>  <lowdin_charges>
21
1   -0.204528
2   -0.020261
3   -0.049435
4   -0.011954
5   -0.163372
6   0.025254
7   -0.193691
8   -0.291309
9   -0.314128
10   0.018303
11   0.19678
12   -0.226373
13   -0.184938
14   0.215141
15   0.192381
16   0.182195
17   0.16373
18   0.16107
19   0.174384
20   0.180514
21   0.150234

$$$$

