PCCDB-ID:  21886
public computational chemistry database (PCCDB) project, http://pccdb.org

 17 17  0  0  0  0  0  0  0  0999 V2000
    0.8874   -0.0568    0.1823 C   0  0  0  0  0  0  0  0  0  0  0  0
    3.0756    0.3281    1.4041 C   0  0  0  0  0  0  0  0  0  0  0  0
    2.9677   -1.3382   -1.7834 C   0  0  0  0  0  0  0  0  0  0  0  0
    3.6235   -0.0603   -2.3129 C   0  0  0  0  0  0  0  0  0  0  0  0
    2.4133    0.0006    0.0699 C   0  0  0  0  0  0  0  0  0  0  0  0
    2.9446   -1.2430   -0.3682 O   0  0  0  0  0  0  0  0  0  0  0  0
    2.9083    1.2643   -1.2628 S   0  0  0  0  0  0  0  0  0  0  0  0
    0.6035   -0.7825    0.9541 H   0  0  0  0  0  0  0  0  0  0  0  0
    0.4290   -0.3534   -0.7648 H   0  0  0  0  0  0  0  0  0  0  0  0
    0.4816    0.9221    0.4577 H   0  0  0  0  0  0  0  0  0  0  0  0
    2.8154   -0.4411    2.1412 H   0  0  0  0  0  0  0  0  0  0  0  0
    2.7351    1.2974    1.7811 H   0  0  0  0  0  0  0  0  0  0  0  0
    4.1619    0.3556    1.2919 H   0  0  0  0  0  0  0  0  0  0  0  0
    3.5426   -2.2362   -2.0289 H   0  0  0  0  0  0  0  0  0  0  0  0
    1.9538   -1.4456   -2.1961 H   0  0  0  0  0  0  0  0  0  0  0  0
    3.3777    0.1244   -3.3620 H   0  0  0  0  0  0  0  0  0  0  0  0
    4.7104   -0.0938   -2.1961 H   0  0  0  0  0  0  0  0  0  0  0  0
  1 10  1  0  0  0  0
  1  8  1  0  0  0  0
  2 12  1  0  0  0  0
  2 11  1  0  0  0  0
  3  6  1  0  0  0  0
  4 17  1  0  0  0  0
  4  3  1  0  0  0  0
  4  7  1  0  0  0  0
  5  1  1  0  0  0  0
  5  2  1  0  0  0  0
  6  5  1  0  0  0  0
  7  5  1  0  0  0  0
  9  1  1  0  0  0  0
 13  2  1  0  0  0  0
 14  3  1  0  0  0  0
 15  3  1  0  0  0  0
 16  4  1  0  0  0  0
M  END
>  <HBA>
2

>  <HBD>
0

>  <TPSA>
34.53

>  <cid>
21886

>  <dipole>
1.22

>  <excitation_energy_1>
4.887

>  <excitation_energy_2>
5.539

>  <excitation_energy_3>
5.806

>  <excitation_energy_4>
6.098

>  <homo_energy>
-5.968

>  <homo_lumo_gap>
6.553

>  <logP>
1.486

>  <lumo_energy>
0.585

>  <melting_point>
7.72

>  <molecular_refractivity>
32.75

>  <oscillator_strength_1>
0.0003

>  <oscillator_strength_2>
0.0213

>  <oscillator_strength_3>
0.0146

>  <oscillator_strength_4>
0.0135

>  <open_babel_can_smiles>
CC1(C)OCCS1

>  <mulliken_charges>
17
1   -0.432958
2   -0.435277
3   -0.030882
4   -0.42378
5   0.15111
6   -0.463175
7   0.041329
8   0.152051
9   0.157581
10   0.154221
11   0.154293
12   0.151886
13   0.166626
14   0.158172
15   0.141458
16   0.176005
17   0.181341

>  <lowdin_charges>
17
1   -0.454659
2   -0.443893
3   -0.13407
4   -0.379137
5   0.049875
6   -0.255156
7   0.044354
8   0.155558
9   0.158618
10   0.159743
11   0.157512
12   0.158401
13   0.162775
14   0.157067
15   0.135796
16   0.168178
17   0.159038

$$$$

