PCCDB-ID:  48216
public computational chemistry database (PCCDB) project, http://pccdb.org

 36 36  0  0  1  0  0  0  0  0999 V2000
    1.3567    0.6054   -1.5495 C   0  0  0  0  0  0  0  0  0  0  0  0
    2.9851   -5.1130    3.0618 C   0  0  0  0  0  0  0  0  0  0  0  0
    2.5823    1.4224   -1.9304 C   0  0  0  0  0  0  0  0  0  0  0  0
    4.0054   -1.2143    1.7703 C   0  0  0  0  0  0  0  0  0  0  0  0
    5.5271   -2.2049    0.2012 C   0  0  0  0  0  0  0  0  0  0  0  0
    3.6358   -2.4813    2.2290 C   0  0  0  0  0  0  0  0  0  0  0  0
    5.1738   -3.4727    0.6471 C   0  0  0  0  0  0  0  0  0  0  0  0
    6.1616    1.1097    1.3585 C   0  0  0  0  0  0  0  0  0  0  0  0
    6.7948    2.4102    0.8509 C   0  0  0  0  0  0  0  0  0  0  0  0
    4.9541   -1.0509    0.7558 C   0  0  0  0  0  0  0  0  0  0  0  0
    4.2236   -3.6203    1.6671 C   0  0  0  0  0  0  0  0  0  0  0  0
    5.3771    0.3361    0.2802 C   0  0  1  0  0  0  0  0  0  0  0  0
    4.1363    1.1121   -0.1511 C   0  0  0  0  0  0  0  0  0  0  0  0
    7.7500    2.1418   -0.2335 N   0  0  0  0  0  0  0  0  0  0  0  0
    3.5078    1.8738    0.5588 O   0  0  0  0  0  0  0  0  0  0  0  0
    3.9410   -4.9058    2.0356 O   0  0  0  0  0  0  0  0  0  0  0  0
    3.7960    0.8182   -1.4239 O   0  0  0  0  0  0  0  0  0  0  0  0
    0.4610    1.0415   -2.0070 H   0  0  0  0  0  0  0  0  0  0  0  0
    1.2206    0.6002   -0.4644 H   0  0  0  0  0  0  0  0  0  0  0  0
    1.4548   -0.4279   -1.8977 H   0  0  0  0  0  0  0  0  0  0  0  0
    2.9162   -6.1945    3.1937 H   0  0  0  0  0  0  0  0  0  0  0  0
    1.9987   -4.7190    2.7823 H   0  0  0  0  0  0  0  0  0  0  0  0
    3.2999   -4.6526    4.0080 H   0  0  0  0  0  0  0  0  0  0  0  0
    2.5113    2.4444   -1.5496 H   0  0  0  0  0  0  0  0  0  0  0  0
    2.7259    1.4483   -3.0135 H   0  0  0  0  0  0  0  0  0  0  0  0
    3.5319   -0.3389    2.2071 H   0  0  0  0  0  0  0  0  0  0  0  0
    6.2634   -2.1071   -0.5931 H   0  0  0  0  0  0  0  0  0  0  0  0
    2.8942   -2.5644    3.0155 H   0  0  0  0  0  0  0  0  0  0  0  0
    5.6187   -4.3654    0.2183 H   0  0  0  0  0  0  0  0  0  0  0  0
    5.4971    1.3421    2.1974 H   0  0  0  0  0  0  0  0  0  0  0  0
    6.9486    0.4488    1.7465 H   0  0  0  0  0  0  0  0  0  0  0  0
    7.2375    2.9423    1.7119 H   0  0  0  0  0  0  0  0  0  0  0  0
    6.0097    3.0629    0.4526 H   0  0  0  0  0  0  0  0  0  0  0  0
    6.0153    0.2259   -0.6007 H   0  0  0  0  0  0  0  0  0  0  0  0
    8.5732    1.6737    0.1450 H   0  0  0  0  0  0  0  0  0  0  0  0
    8.0818    3.0195   -0.6293 H   0  0  0  0  0  0  0  0  0  0  0  0
  1 19  1  0  0  0  0
  2 21  1  0  0  0  0
  2 23  1  0  0  0  0
  3 24  1  0  0  0  0
  3  1  1  0  0  0  0
  3 17  1  0  0  0  0
  4 26  1  0  0  0  0
  4  6  1  0  0  0  0
  5  7  2  0  0  0  0
  5 10  1  0  0  0  0
  6 28  1  0  0  0  0
  7 11  1  0  0  0  0
  8 31  1  0  0  0  0
  8 30  1  0  0  0  0
  9  8  1  0  0  0  0
  9 32  1  0  0  0  0
 10  4  2  0  0  0  0
 11 16  1  0  0  0  0
 11  6  2  0  0  0  0
 12 34  1  6  0  0  0
 12 10  1  0  0  0  0
 12  8  1  0  0  0  0
 13 12  1  0  0  0  0
 13 15  2  0  0  0  0
 14 35  1  0  0  0  0
 14  9  1  0  0  0  0
 16  2  1  0  0  0  0
 17 13  1  0  0  0  0
 18  1  1  0  0  0  0
 20  1  1  0  0  0  0
 22  2  1  0  0  0  0
 25  3  1  0  0  0  0
 27  5  1  0  0  0  0
 29  7  1  0  0  0  0
 33  9  1  0  0  0  0
 36 14  1  0  0  0  0
M  END
>  <HBA>
4

>  <HBD>
1

>  <TPSA>
61.55

>  <cid>
48216

>  <dipole>
0.5

>  <excitation_energy_1>
4.893

>  <excitation_energy_2>
5.174

>  <excitation_energy_3>
5.382

>  <excitation_energy_4>
5.519

>  <homo_energy>
-5.714

>  <homo_lumo_gap>
5.763

>  <logP>
2.391

>  <lumo_energy>
0.049

>  <melting_point>
76.63

>  <molecular_refractivity>
65.93

>  <oscillator_strength_1>
0.0294

>  <oscillator_strength_2>
0.1398

>  <oscillator_strength_3>
0.0033

>  <oscillator_strength_4>
0.0055

>  <open_babel_can_smiles>
NCC[C@@H](c1ccc(cc1)OC)C(=O)OCC

>  <mulliken_charges>
36
1   -0.461033
2   -0.213905
3   -0.045072
4   -0.193031
5   -0.192664
6   -0.196394
7   -0.173421
8   -0.251422
9   -0.154241
10   0.154307
11   0.375577
12   -0.245229
13   0.638944
14   -0.715537
15   -0.502295
16   -0.508117
17   -0.461655
18   0.146667
19   0.174607
20   0.160706
21   0.16842
22   0.151277
23   0.151152
24   0.166954
25   0.151255
26   0.148763
27   0.130954
28   0.1306
29   0.136209
30   0.154465
31   0.130599
32   0.116681
33   0.156104
34   0.1786
35   0.292381
36   0.298796

>  <lowdin_charges>
36
1   -0.452768
2   -0.275191
3   -0.125022
4   -0.15716
5   -0.153658
6   -0.211386
7   -0.18332
8   -0.277714
9   -0.211422
10   -0.019089
11   0.099416
12   -0.148507
13   0.205297
14   -0.561666
15   -0.284783
16   -0.200207
17   -0.18699
18   0.157429
19   0.162881
20   0.156805
21   0.160149
22   0.143948
23   0.144392
24   0.155644
25   0.149547
26   0.166537
27   0.158902
28   0.161928
29   0.166548
30   0.157752
31   0.145456
32   0.12345
33   0.150104
34   0.174606
35   0.251739
36   0.256356

$$$$

