PCCDB-ID:  32394
public computational chemistry database (PCCDB) project, http://pccdb.org

 31 33  0  0  0  0  0  0  0  0999 V2000
   -1.5488   -0.1537    0.1261 C   0  0  0  0  0  0  0  0  0  0  0  0
   -0.7748   -0.9008    1.0162 C   0  0  0  0  0  0  0  0  0  0  0  0
   -0.9190    0.6345   -0.8383 C   0  0  0  0  0  0  0  0  0  0  0  0
    4.7314    1.4266   -0.0201 C   0  0  0  0  0  0  0  0  0  0  0  0
    0.6173   -0.8632    0.9396 C   0  0  0  0  0  0  0  0  0  0  0  0
    0.4738    0.6731   -0.9115 C   0  0  0  0  0  0  0  0  0  0  0  0
    5.5351    0.3074   -0.2046 C   0  0  0  0  0  0  0  0  0  0  0  0
    3.3469    1.2745    0.0305 C   0  0  0  0  0  0  0  0  0  0  0  0
    2.9739   -2.5108   -0.4931 C   0  0  0  0  0  0  0  0  0  0  0  0
    3.9642   -3.4767   -1.1452 C   0  0  0  0  0  0  0  0  0  0  0  0
    5.8915   -2.1425   -0.6099 C   0  0  0  0  0  0  0  0  0  0  0  0
    1.2655   -0.0779   -0.0273 C   0  0  0  0  0  0  0  0  0  0  0  0
    4.9689   -0.9649   -0.3454 C   0  0  0  0  0  0  0  0  0  0  0  0
    2.7550    0.0106   -0.0958 C   0  0  0  0  0  0  0  0  0  0  0  0
    3.5732   -1.1272   -0.2963 C   0  0  0  0  0  0  0  0  0  0  0  0
    5.2191   -3.4205   -0.3977 N   0  0  0  0  0  0  0  0  0  0  0  0
   -2.6335   -0.1839    0.1855 H   0  0  0  0  0  0  0  0  0  0  0  0
   -1.2554   -1.5095    1.7779 H   0  0  0  0  0  0  0  0  0  0  0  0
   -1.5117    1.2199   -1.5366 H   0  0  0  0  0  0  0  0  0  0  0  0
    5.1775    2.4111    0.0923 H   0  0  0  0  0  0  0  0  0  0  0  0
    1.2109   -1.4313    1.6500 H   0  0  0  0  0  0  0  0  0  0  0  0
    0.9604    1.2828   -1.6683 H   0  0  0  0  0  0  0  0  0  0  0  0
    6.6176    0.4146   -0.2423 H   0  0  0  0  0  0  0  0  0  0  0  0
    2.7092    2.1400    0.1890 H   0  0  0  0  0  0  0  0  0  0  0  0
    2.6796   -2.9320    0.4766 H   0  0  0  0  0  0  0  0  0  0  0  0
    2.0599   -2.4436   -1.0942 H   0  0  0  0  0  0  0  0  0  0  0  0
    4.0899   -3.2177   -2.2155 H   0  0  0  0  0  0  0  0  0  0  0  0
    3.5714   -4.4983   -1.1008 H   0  0  0  0  0  0  0  0  0  0  0  0
    6.7569   -2.0856    0.0625 H   0  0  0  0  0  0  0  0  0  0  0  0
    6.2874   -2.0395   -1.6417 H   0  0  0  0  0  0  0  0  0  0  0  0
    5.8366   -4.1754   -0.6880 H   0  0  0  0  0  0  0  0  0  0  0  0
  1 17  1  0  0  0  0
  1  2  2  0  0  0  0
  2 18  1  0  0  0  0
  3  1  1  0  0  0  0
  4  8  1  0  0  0  0
  4 20  1  0  0  0  0
  5  2  1  0  0  0  0
  5 21  1  0  0  0  0
  6  3  2  0  0  0  0
  6 12  1  0  0  0  0
  7  4  2  0  0  0  0
  8 24  1  0  0  0  0
  9 15  1  0  0  0  0
  9 25  1  0  0  0  0
 10 28  1  0  0  0  0
 10  9  1  0  0  0  0
 10 16  1  0  0  0  0
 11 16  1  0  0  0  0
 11 13  1  0  0  0  0
 11 29  1  0  0  0  0
 12  5  2  0  0  0  0
 13 15  2  0  0  0  0
 13  7  1  0  0  0  0
 14 12  1  0  0  0  0
 14  8  2  0  0  0  0
 15 14  1  0  0  0  0
 19  3  1  0  0  0  0
 22  6  1  0  0  0  0
 23  7  1  0  0  0  0
 26  9  1  0  0  0  0
 27 10  1  0  0  0  0
 30 11  1  0  0  0  0
 31 16  1  0  0  0  0
M  END
>  <HBA>
1

>  <HBD>
1

>  <TPSA>
12.03

>  <cid>
32394

>  <dipole>
1.14

>  <excitation_energy_1>
4.75

>  <excitation_energy_2>
4.873

>  <excitation_energy_3>
5.051

>  <excitation_energy_4>
5.107

>  <homo_energy>
-5.867

>  <homo_lumo_gap>
5.44

>  <logP>
3.328

>  <lumo_energy>
-0.427

>  <melting_point>
99.36

>  <molecular_refractivity>
71.22

>  <oscillator_strength_1>
0.0371

>  <oscillator_strength_2>
0.0316

>  <oscillator_strength_3>
0.0556

>  <oscillator_strength_4>
0.1344

>  <open_babel_can_smiles>
c1ccc(cc1)c1cccc2c1CCNC2

>  <mulliken_charges>
31
1   -0.127229
2   -0.134065
3   -0.13331
4   -0.133829
5   -0.161122
6   -0.165669
7   -0.177359
8   -0.169164
9   -0.321184
10   -0.152122
11   -0.199206
12   0.057744
13   0.104024
14   0.007815
15   0.08824
16   -0.551048
17   0.12821
18   0.129382
19   0.129053
20   0.126197
21   0.135636
22   0.132474
23   0.118058
24   0.130042
25   0.158402
26   0.151517
27   0.115932
28   0.13641
29   0.150361
30   0.127706
31   0.298103

>  <lowdin_charges>
31
1   -0.156861
2   -0.157587
3   -0.158095
4   -0.159211
5   -0.159771
6   -0.162964
7   -0.162277
8   -0.165297
9   -0.280188
10   -0.200073
11   -0.202254
12   -0.001855
13   -0.014917
14   -0.011418
15   -0.014071
16   -0.364932
17   0.155115
18   0.158602
19   0.158754
20   0.156323
21   0.161746
22   0.160777
23   0.151054
24   0.159618
25   0.156646
26   0.157614
27   0.1152
28   0.145417
29   0.152846
30   0.125039
31   0.25702

$$$$

