PCCDB-ID:  27791
public computational chemistry database (PCCDB) project, http://pccdb.org

 23 23  0  0  0  0  0  0  0  0999 V2000
    0.7139    0.1622    1.9033 C   0  0  0  0  0  0  0  0  0  0  0  0
    9.4347   -1.1480    1.7053 C   0  0  0  0  0  0  0  0  0  0  0  0
    8.6690   -0.1516    1.0921 C   0  0  0  0  0  0  0  0  0  0  0  0
    8.7945   -2.2292    2.3111 C   0  0  0  0  0  0  0  0  0  0  0  0
    4.2396   -0.5786    1.2772 C   0  0  0  0  0  0  0  0  0  0  0  0
    7.2799   -0.2342    1.0847 C   0  0  0  0  0  0  0  0  0  0  0  0
    7.4027   -2.3092    2.3048 C   0  0  0  0  0  0  0  0  0  0  0  0
    5.1529   -1.4510    1.7264 C   0  0  0  0  0  0  0  0  0  0  0  0
    2.7637   -0.8295    1.3092 C   0  0  0  0  0  0  0  0  0  0  0  0
    6.6171   -1.3148    1.6964 C   0  0  0  0  0  0  0  0  0  0  0  0
    2.1198    0.2778    1.9220 O   0  0  0  0  0  0  0  0  0  0  0  0
    0.3101    1.0597    2.3793 H   0  0  0  0  0  0  0  0  0  0  0  0
    0.3672   -0.7236    2.4607 H   0  0  0  0  0  0  0  0  0  0  0  0
    0.3221    0.0950    0.8746 H   0  0  0  0  0  0  0  0  0  0  0  0
   10.5193   -1.0813    1.7069 H   0  0  0  0  0  0  0  0  0  0  0  0
    9.1588    0.6922    0.6128 H   0  0  0  0  0  0  0  0  0  0  0  0
    9.3777   -3.0112    2.7902 H   0  0  0  0  0  0  0  0  0  0  0  0
    4.5341    0.3756    0.8438 H   0  0  0  0  0  0  0  0  0  0  0  0
    6.7041    0.5452    0.5943 H   0  0  0  0  0  0  0  0  0  0  0  0
    6.9097   -3.1542    2.7804 H   0  0  0  0  0  0  0  0  0  0  0  0
    4.7928   -2.3790    2.1731 H   0  0  0  0  0  0  0  0  0  0  0  0
    2.5395   -1.7637    1.8523 H   0  0  0  0  0  0  0  0  0  0  0  0
    2.3763   -0.9545    0.2798 H   0  0  0  0  0  0  0  0  0  0  0  0
  1 11  1  0  0  0  0
  1 12  1  0  0  0  0
  1 13  1  0  0  0  0
  2 15  1  0  0  0  0
  2  4  2  0  0  0  0
  3  2  1  0  0  0  0
  4 17  1  0  0  0  0
  5  9  1  0  0  0  0
  5  8  2  0  0  0  0
  6  3  2  0  0  0  0
  6 10  1  0  0  0  0
  7  4  1  0  0  0  0
  7 20  1  0  0  0  0
  8 21  1  0  0  0  0
  9 22  1  0  0  0  0
  9 11  1  0  0  0  0
 10  8  1  0  0  0  0
 10  7  2  0  0  0  0
 14  1  1  0  0  0  0
 16  3  1  0  0  0  0
 18  5  1  0  0  0  0
 19  6  1  0  0  0  0
 23  9  1  0  0  0  0
M  END
>  <HBA>
1

>  <HBD>
0

>  <TPSA>
9.23

>  <cid>
27791

>  <dipole>
1.1

>  <excitation_energy_1>
4.713

>  <excitation_energy_2>
4.85

>  <excitation_energy_3>
5.305

>  <excitation_energy_4>
5.672

>  <homo_energy>
-5.957

>  <homo_lumo_gap>
5.105

>  <logP>
2.346

>  <lumo_energy>
-0.852

>  <melting_point>
16.56

>  <molecular_refractivity>
47.23

>  <oscillator_strength_1>
0.3048

>  <oscillator_strength_2>
0.2121

>  <oscillator_strength_3>
0.0065

>  <oscillator_strength_4>
0.0105

>  <open_babel_can_smiles>
COC/C=C/c1ccccc1

>  <mulliken_charges>
23
1   -0.190279
2   -0.12913
3   -0.130065
4   -0.12913
5   -0.102884
6   -0.181158
7   -0.196249
8   -0.17654
9   -0.06245
10   0.177481
11   -0.457264
12   0.159276
13   0.128814
14   0.127566
15   0.129746
16   0.130515
17   0.130081
18   0.139728
19   0.129834
20   0.127543
21   0.122947
22   0.126061
23   0.125557

>  <lowdin_charges>
23
1   -0.279637
2   -0.154953
3   -0.154388
4   -0.15666
5   -0.159296
6   -0.15591
7   -0.160854
8   -0.157527
9   -0.123115
10   -0.001508
11   -0.272632
12   0.156421
13   0.131289
14   0.129263
15   0.155971
16   0.158831
17   0.159234
18   0.157707
19   0.159095
20   0.156632
21   0.152054
22   0.130196
23   0.129787

$$$$

