PCCDB-ID:  10973
public computational chemistry database (PCCDB) project, http://pccdb.org

 19 18  0  0  0  0  0  0  0  0999 V2000
    0.5787    0.5674    0.8817 C   0  0  0  0  0  0  0  0  0  0  0  0
    2.5429   -0.6798    1.8999 C   0  0  0  0  0  0  0  0  0  0  0  0
    2.0545   -0.8169   -0.5838 C   0  0  0  0  0  0  0  0  0  0  0  0
    2.0121    0.0604    0.6648 C   0  0  0  0  0  0  0  0  0  0  0  0
    3.6589   -1.9513   -1.8936 C   0  0  0  0  0  0  0  0  0  0  0  0
    2.7388   -2.3685   -2.6699 N   0  0  0  0  0  0  0  0  0  0  0  0
    5.0011   -2.1751   -1.9417 O   0  0  0  0  0  0  0  0  0  0  0  0
    3.4289   -1.1714   -0.8343 O   0  0  0  0  0  0  0  0  0  0  0  0
    0.5277    1.2197    1.7604 H   0  0  0  0  0  0  0  0  0  0  0  0
   -0.1148   -0.2669    1.0484 H   0  0  0  0  0  0  0  0  0  0  0  0
    0.2155    1.1379    0.0186 H   0  0  0  0  0  0  0  0  0  0  0  0
    2.5487   -0.0211    2.7760 H   0  0  0  0  0  0  0  0  0  0  0  0
    3.5624   -1.0406    1.7356 H   0  0  0  0  0  0  0  0  0  0  0  0
    1.9111   -1.5459    2.1380 H   0  0  0  0  0  0  0  0  0  0  0  0
    1.6600   -0.2942   -1.4618 H   0  0  0  0  0  0  0  0  0  0  0  0
    1.4691   -1.7348   -0.4529 H   0  0  0  0  0  0  0  0  0  0  0  0
    2.6610    0.9274    0.4762 H   0  0  0  0  0  0  0  0  0  0  0  0
    3.1019   -2.9537   -3.4220 H   0  0  0  0  0  0  0  0  0  0  0  0
    5.1880   -2.7316   -2.7130 H   0  0  0  0  0  0  0  0  0  0  0  0
  1 10  1  0  0  0  0
  1  9  1  0  0  0  0
  2 14  1  0  0  0  0
  2 12  1  0  0  0  0
  3 16  1  0  0  0  0
  3  4  1  0  0  0  0
  4  1  1  0  0  0  0
  4  2  1  0  0  0  0
  5  8  1  0  0  0  0
  6  5  2  0  0  0  0
  7  5  1  0  0  0  0
  8  3  1  0  0  0  0
 11  1  1  0  0  0  0
 13  2  1  0  0  0  0
 15  3  1  0  0  0  0
 17  4  1  0  0  0  0
 18  6  1  0  0  0  0
 19  7  1  0  0  0  0
M  END
>  <HBA>
3

>  <HBD>
1

>  <TPSA>
52.32

>  <cid>
10973

>  <dipole>
1.05

>  <excitation_energy_1>
5.9

>  <excitation_energy_2>
6.406

>  <excitation_energy_3>
7.088

>  <excitation_energy_4>
7.224

>  <homo_energy>
-7.031

>  <homo_lumo_gap>
8.329

>  <logP>
1.438

>  <lumo_energy>
1.298

>  <melting_point>
51.12

>  <molecular_refractivity>
30.53

>  <oscillator_strength_1>
0.0052

>  <oscillator_strength_2>
0.0449

>  <oscillator_strength_3>
0.009

>  <oscillator_strength_4>
0.0027

>  <open_babel_can_smiles>
CC(COC(=N)O)C

>  <mulliken_charges>
19
1   -0.450904
2   -0.44618
3   -0.008979
4   -0.09764
5   0.645106
6   -0.629011
7   -0.571542
8   -0.451561
9   0.148785
10   0.144137
11   0.14499
12   0.140618
13   0.166811
14   0.136587
15   0.155581
16   0.15291
17   0.138851
18   0.274447
19   0.406993

>  <lowdin_charges>
19
1   -0.445866
2   -0.447249
3   -0.120736
4   -0.128829
5   0.18873
6   -0.472797
7   -0.368074
8   -0.179617
9   0.153973
10   0.148776
11   0.150771
12   0.149366
13   0.159524
14   0.145543
15   0.153234
16   0.15028
17   0.145569
18   0.256531
19   0.360869

$$$$

