PCCDB-ID:  48158
public computational chemistry database (PCCDB) project, http://pccdb.org

 35 35  0  0  1  0  0  0  0  0999 V2000
    3.9545    0.5216    3.3447 C   0  0  0  0  0  0  0  0  0  0  0  0
    7.9840    1.5212   -1.6699 C   0  0  0  0  0  0  0  0  0  0  0  0
    5.6777    4.5614   -2.7565 C   0  0  0  0  0  0  0  0  0  0  0  0
    4.3381    0.1153    1.9183 C   0  0  0  0  0  0  0  0  0  0  0  0
    4.7966    1.3016    1.0606 C   0  0  0  0  0  0  0  0  0  0  0  0
    5.1898    0.8932   -0.3744 C   0  0  0  0  0  0  0  0  0  0  0  0
    5.5530    2.0803   -1.2256 C   0  0  0  0  0  0  0  0  0  0  0  0
    6.7414    2.3811   -1.7863 C   0  0  0  0  0  0  0  0  0  0  0  0
    7.4120    3.3074   -4.0259 C   0  0  0  0  0  0  0  0  0  0  0  0
    8.0441    4.5209   -1.9864 C   0  0  0  0  0  0  0  0  0  0  0  0
    9.0313    4.9613   -4.0331 C   0  0  0  0  0  0  0  0  0  0  0  0
    6.9391    3.6657   -2.6139 C   0  0  1  0  0  0  0  0  0  0  0  0
    8.3418    3.8908   -4.6675 N   0  0  0  0  0  0  0  0  0  0  0  0
    8.9767    5.1093   -2.6193 N   0  0  0  0  0  0  0  0  0  0  0  0
    6.7340    2.3138   -4.6367 O   0  0  0  0  0  0  0  0  0  0  0  0
    7.9698    4.6867   -0.6498 O   0  0  0  0  0  0  0  0  0  0  0  0
    9.6927    5.7279   -4.6943 O   0  0  0  0  0  0  0  0  0  0  0  0
    3.6294   -0.3452    3.9303 H   0  0  0  0  0  0  0  0  0  0  0  0
    3.1340    1.2494    3.3429 H   0  0  0  0  0  0  0  0  0  0  0  0
    4.8023    0.9789    3.8690 H   0  0  0  0  0  0  0  0  0  0  0  0
    7.8187    0.6308   -1.0620 H   0  0  0  0  0  0  0  0  0  0  0  0
    8.8101    2.0844   -1.2195 H   0  0  0  0  0  0  0  0  0  0  0  0
    8.3298    1.1928   -2.6574 H   0  0  0  0  0  0  0  0  0  0  0  0
    4.8628    4.0212   -3.2476 H   0  0  0  0  0  0  0  0  0  0  0  0
    5.9185    5.4375   -3.3643 H   0  0  0  0  0  0  0  0  0  0  0  0
    5.3280    4.9121   -1.7810 H   0  0  0  0  0  0  0  0  0  0  0  0
    3.4817   -0.3721    1.4314 H   0  0  0  0  0  0  0  0  0  0  0  0
    5.1381   -0.6374    1.9532 H   0  0  0  0  0  0  0  0  0  0  0  0
    5.6542    1.7929    1.5420 H   0  0  0  0  0  0  0  0  0  0  0  0
    3.9954    2.0536    1.0193 H   0  0  0  0  0  0  0  0  0  0  0  0
    4.3314    0.3846   -0.8383 H   0  0  0  0  0  0  0  0  0  0  0  0
    5.9988    0.1572   -0.3360 H   0  0  0  0  0  0  0  0  0  0  0  0
    4.7277    2.7762   -1.3687 H   0  0  0  0  0  0  0  0  0  0  0  0
    6.1158    1.9177   -3.9960 H   0  0  0  0  0  0  0  0  0  0  0  0
    7.2596    4.1167   -0.3029 H   0  0  0  0  0  0  0  0  0  0  0  0
  1 20  1  0  0  0  0
  1 18  1  0  0  0  0
  2 22  1  0  0  0  0
  2 21  1  0  0  0  0
  3 12  1  0  0  0  0
  3 26  1  0  0  0  0
  4 28  1  0  0  0  0
  4  1  1  0  0  0  0
  5 29  1  0  0  0  0
  5  4  1  0  0  0  0
  6 32  1  0  0  0  0
  6  5  1  0  0  0  0
  7  6  1  0  0  0  0
  8  2  1  0  0  0  0
  8  7  2  0  0  0  0
  9 12  1  0  0  0  0
 10 16  1  0  0  0  0
 11 14  1  0  0  0  0
 12 10  1  0  0  0  0
 12  8  1  1  0  0  0
 13 11  2  0  0  0  0
 13  9  2  0  0  0  0
 14 10  2  0  0  0  0
 15  9  1  0  0  0  0
 15 34  1  0  0  0  0
 16 35  1  0  0  0  0
 17 11  2  0  0  0  0
 19  1  1  0  0  0  0
 23  2  1  0  0  0  0
 24  3  1  0  0  0  0
 25  3  1  0  0  0  0
 27  4  1  0  0  0  0
 30  5  1  0  0  0  0
 31  6  1  0  0  0  0
 33  7  1  0  0  0  0
M  END
>  <HBA>
5

>  <HBD>
2

>  <TPSA>
75.27

>  <cid>
48158

>  <dipole>
10.93

>  <excitation_energy_1>
4.018

>  <excitation_energy_2>
4.252

>  <excitation_energy_3>
5.178

>  <excitation_energy_4>
5.509

>  <homo_energy>
-6.789

>  <homo_lumo_gap>
5.377

>  <logP>
2.153

>  <lumo_energy>
-1.412

>  <melting_point>
152.79

>  <molecular_refractivity>
71.37

>  <oscillator_strength_1>
0.0006

>  <oscillator_strength_2>
0.0003

>  <oscillator_strength_3>
0.0488

>  <oscillator_strength_4>
0.0005

>  <open_babel_can_smiles>
CCCC/C=C(/[C@@]1(C)C(=N[C](=[N]=C1O)=O)O)\C

>  <mulliken_charges>
35
1   -0.443899
2   -0.533918
3   -0.458174
4   -0.249831
5   -0.252571
6   -0.30537
7   -0.175736
8   0.062868
9   0.539813
10   0.540037
11   0.610342
12   -0.159491
13   -0.465021
14   -0.465279
15   -0.576763
16   -0.577183
17   -0.429144
18   0.150839
19   0.14551
20   0.146823
21   0.169752
22   0.188247
23   0.187708
24   0.165681
25   0.195567
26   0.165955
27   0.136803
28   0.137548
29   0.135836
30   0.135469
31   0.153497
32   0.151389
33   0.143153
34   0.415198
35   0.414344

>  <lowdin_charges>
35
1   -0.445861
2   -0.456895
3   -0.435873
4   -0.273587
5   -0.273418
6   -0.278308
7   -0.176882
8   -0.053361
9   0.144645
10   0.145181
11   0.176309
12   -0.057687
13   -0.185366
14   -0.185711
15   -0.331881
16   -0.333576
17   -0.211081
18   0.155198
19   0.149084
20   0.150214
21   0.166036
22   0.174961
23   0.173584
24   0.161813
25   0.17944
26   0.160695
27   0.142986
28   0.142934
29   0.141952
30   0.141763
31   0.157048
32   0.152353
33   0.160796
34   0.361894
35   0.360601

$$$$

