PCCDB-ID:  15550
public computational chemistry database (PCCDB) project, http://pccdb.org

 20 20  0  0  0  0  0  0  0  0999 V2000
    1.6477    0.1019   -0.5535 C   0  0  0  0  0  0  0  0  0  0  0  0
    1.3122   -1.2200   -0.0051 C   0  0  0  0  0  0  0  0  0  0  0  0
    1.1032    1.2810   -0.2093 C   0  0  0  0  0  0  0  0  0  0  0  0
    0.1265   -1.7646    0.3263 C   0  0  0  0  0  0  0  0  0  0  0  0
   -0.0239    1.4490    0.7717 C   0  0  0  0  0  0  0  0  0  0  0  0
   -1.3019   -1.3007    0.1416 C   0  0  0  0  0  0  0  0  0  0  0  0
   -1.4120    1.2945    0.1141 C   0  0  0  0  0  0  0  0  0  0  0  0
   -1.5901   -0.0196   -0.6613 C   0  0  0  0  0  0  0  0  0  0  0  0
    2.4857    0.1108   -1.2518 H   0  0  0  0  0  0  0  0  0  0  0  0
    2.1835   -1.8585    0.1547 H   0  0  0  0  0  0  0  0  0  0  0  0
    1.4839    2.1828   -0.6886 H   0  0  0  0  0  0  0  0  0  0  0  0
    0.1791   -2.7625    0.7660 H   0  0  0  0  0  0  0  0  0  0  0  0
    0.0374    2.4340    1.2516 H   0  0  0  0  0  0  0  0  0  0  0  0
    0.0774    0.6979    1.5656 H   0  0  0  0  0  0  0  0  0  0  0  0
   -1.7767   -1.2308    1.1345 H   0  0  0  0  0  0  0  0  0  0  0  0
   -1.8258   -2.1347   -0.3501 H   0  0  0  0  0  0  0  0  0  0  0  0
   -1.5899    2.1352   -0.5703 H   0  0  0  0  0  0  0  0  0  0  0  0
   -2.1802    1.3662    0.8970 H   0  0  0  0  0  0  0  0  0  0  0  0
   -2.6294   -0.0668   -1.0120 H   0  0  0  0  0  0  0  0  0  0  0  0
   -0.9645   -0.0103   -1.5607 H   0  0  0  0  0  0  0  0  0  0  0  0
  1  3  2  0  0  0  0
  1  2  1  0  0  0  0
  2 10  1  0  0  0  0
  2  4  2  0  0  0  0
  3  5  1  0  0  0  0
  4 12  1  0  0  0  0
  5 13  1  0  0  0  0
  5 14  1  0  0  0  0
  6  4  1  0  0  0  0
  6 15  1  0  0  0  0
  7  5  1  0  0  0  0
  7 18  1  0  0  0  0
  8  7  1  0  0  0  0
  8  6  1  0  0  0  0
  9  1  1  0  0  0  0
 11  3  1  0  0  0  0
 16  6  1  0  0  0  0
 17  7  1  0  0  0  0
 19  8  1  0  0  0  0
 20  8  1  0  0  0  0
M  END
>  <HBA>
0

>  <HBD>
0

>  <TPSA>
0.0

>  <cid>
15550

>  <dipole>
0.47

>  <excitation_energy_1>
5.056

>  <excitation_energy_2>
5.373

>  <excitation_energy_3>
5.794

>  <excitation_energy_4>
5.92

>  <homo_energy>
-5.818

>  <homo_lumo_gap>
5.576

>  <logP>
2.673

>  <lumo_energy>
-0.242

>  <melting_point>
14.27

>  <molecular_refractivity>
37.51

>  <oscillator_strength_1>
0.1885

>  <oscillator_strength_2>
0.0074

>  <oscillator_strength_3>
0.0065

>  <oscillator_strength_4>
0.02

>  <open_babel_can_smiles>
C1CCC=CC=CC1

>  <mulliken_charges>
20
1   -0.134575
2   -0.140777
3   -0.100665
4   -0.10552
5   -0.305419
6   -0.30001
7   -0.251724
8   -0.25834
9   0.122781
10   0.122775
11   0.122008
12   0.119436
13   0.132071
14   0.151621
15   0.143113
16   0.144923
17   0.130364
18   0.128736
19   0.128619
20   0.150584

>  <lowdin_charges>
20
1   -0.176965
2   -0.181383
3   -0.158414
4   -0.161539
5   -0.281788
6   -0.277855
7   -0.273232
8   -0.279297
9   0.153129
10   0.154698
11   0.151065
12   0.149697
13   0.146395
14   0.155526
15   0.148126
16   0.155118
17   0.141725
18   0.139885
19   0.143338
20   0.151773

$$$$

