PCCDB-ID:  68475
public computational chemistry database (PCCDB) project, http://pccdb.org

 19 19  0  0  0  0  0  0  0  0999 V2000
    0.9675    0.1135   -0.0613 C   0  0  0  0  0  0  0  0  0  0  0  0
    5.3046   -0.0243   -0.1399 C   0  0  0  0  0  0  0  0  0  0  0  0
    4.5844   -1.2087   -0.0777 C   0  0  0  0  0  0  0  0  0  0  0  0
    3.2128    1.1976   -0.1506 C   0  0  0  0  0  0  0  0  0  0  0  0
    2.4745    0.0160   -0.0874 C   0  0  0  0  0  0  0  0  0  0  0  0
    4.6110    1.1898   -0.1770 C   0  0  0  0  0  0  0  0  0  0  0  0
    3.1796   -1.2167   -0.0494 C   0  0  0  0  0  0  0  0  0  0  0  0
    2.4642   -2.5101    0.0181 C   0  0  0  0  0  0  0  0  0  0  0  0
    5.2396    2.3963   -0.2400 O   0  0  0  0  0  0  0  0  0  0  0  0
    3.3070   -3.5838    0.0447 O   0  0  0  0  0  0  0  0  0  0  0  0
    1.2572   -2.6719    0.0491 O   0  0  0  0  0  0  0  0  0  0  0  0
    0.6574    1.1622   -0.0987 H   0  0  0  0  0  0  0  0  0  0  0  0
    0.5514   -0.3467    0.8397 H   0  0  0  0  0  0  0  0  0  0  0  0
    0.5164   -0.4194   -0.9035 H   0  0  0  0  0  0  0  0  0  0  0  0
    6.3925   -0.0400   -0.1579 H   0  0  0  0  0  0  0  0  0  0  0  0
    5.1140   -2.1535   -0.0482 H   0  0  0  0  0  0  0  0  0  0  0  0
    2.7055    2.1569   -0.1801 H   0  0  0  0  0  0  0  0  0  0  0  0
    6.1994    2.2548   -0.2494 H   0  0  0  0  0  0  0  0  0  0  0  0
    2.7202   -4.3607    0.0870 H   0  0  0  0  0  0  0  0  0  0  0  0
  1 13  1  0  0  0  0
  2  3  2  0  0  0  0
  3  7  1  0  0  0  0
  3 16  1  0  0  0  0
  4  5  1  0  0  0  0
  5  1  1  0  0  0  0
  5  7  2  0  0  0  0
  6  4  2  0  0  0  0
  6  2  1  0  0  0  0
  7  8  1  0  0  0  0
  8 10  1  0  0  0  0
  8 11  2  0  0  0  0
  9  6  1  0  0  0  0
 10 19  1  0  0  0  0
 12  1  1  0  0  0  0
 14  1  1  0  0  0  0
 15  2  1  0  0  0  0
 17  4  1  0  0  0  0
 18  9  1  0  0  0  0
M  END
>  <HBA>
3

>  <HBD>
2

>  <TPSA>
57.53

>  <cid>
68475

>  <dipole>
2.83

>  <excitation_energy_1>
4.833

>  <excitation_energy_2>
4.914

>  <excitation_energy_3>
5.013

>  <excitation_energy_4>
5.467

>  <homo_energy>
-6.346

>  <homo_lumo_gap>
5.347

>  <logP>
1.399

>  <lumo_energy>
-0.999

>  <melting_point>
140.46

>  <molecular_refractivity>
40.39

>  <oscillator_strength_1>
0.0121

>  <oscillator_strength_2>
0.0

>  <oscillator_strength_3>
0.2911

>  <oscillator_strength_4>
0.0005

>  <open_babel_can_smiles>
Oc1ccc(c(c1)C)C(=O)O

>  <mulliken_charges>
19
1   -0.503344
2   -0.200765
3   -0.170164
4   -0.231016
5   0.13233
6   0.372737
7   0.025395
8   0.536502
9   -0.633965
10   -0.592278
11   -0.490335
12   0.142851
13   0.179179
14   0.179125
15   0.12527
16   0.166665
17   0.14145
18   0.411847
19   0.408517

>  <lowdin_charges>
19
1   -0.438637
2   -0.218332
3   -0.123352
4   -0.198714
5   0.042976
6   0.117165
7   -0.079258
8   0.193371
9   -0.361898
10   -0.371087
11   -0.278706
12   0.149085
13   0.1735
14   0.173857
15   0.154593
16   0.177071
17   0.168428
18   0.358851
19   0.361085

$$$$

