PCCDB-ID:  65746
public computational chemistry database (PCCDB) project, http://pccdb.org

 21 22  0  0  0  0  0  0  0  0999 V2000
    2.4384   -0.6813   -0.0259 C   0  0  0  0  0  0  0  0  0  0  0  0
   -2.4455    0.6544   -0.0515 C   0  0  0  0  0  0  0  0  0  0  0  0
   -1.2739    1.3755   -0.0966 C   0  0  0  0  0  0  0  0  0  0  0  0
    1.2667   -1.4015    0.0305 C   0  0  0  0  0  0  0  0  0  0  0  0
    2.4215    0.7283   -0.0593 C   0  0  0  0  0  0  0  0  0  0  0  0
   -2.4225   -0.7538    0.0490 C   0  0  0  0  0  0  0  0  0  0  0  0
   -0.0167    0.7136   -0.0416 C   0  0  0  0  0  0  0  0  0  0  0  0
    0.0245   -0.7164    0.0275 C   0  0  0  0  0  0  0  0  0  0  0  0
    1.2273    1.4312   -0.0571 C   0  0  0  0  0  0  0  0  0  0  0  0
   -1.2160   -1.4225    0.0808 C   0  0  0  0  0  0  0  0  0  0  0  0
    1.2146    2.8327   -0.1268 N   0  0  0  0  0  0  0  0  0  0  0  0
   -1.1316   -2.7866    0.1619 O   0  0  0  0  0  0  0  0  0  0  0  0
    3.3949   -1.1973   -0.0287 H   0  0  0  0  0  0  0  0  0  0  0  0
   -3.4028    1.1657   -0.1030 H   0  0  0  0  0  0  0  0  0  0  0  0
   -1.3142    2.4528   -0.2184 H   0  0  0  0  0  0  0  0  0  0  0  0
    1.2740   -2.4840    0.0736 H   0  0  0  0  0  0  0  0  0  0  0  0
    3.3614    1.2767   -0.0759 H   0  0  0  0  0  0  0  0  0  0  0  0
   -3.3557   -1.3129    0.0890 H   0  0  0  0  0  0  0  0  0  0  0  0
    2.1200    3.2482    0.0606 H   0  0  0  0  0  0  0  0  0  0  0  0
    0.5052    3.2716    0.4488 H   0  0  0  0  0  0  0  0  0  0  0  0
   -2.0296   -3.1522    0.1725 H   0  0  0  0  0  0  0  0  0  0  0  0
  1  4  2  0  0  0  0
  2  6  1  0  0  0  0
  3  2  2  0  0  0  0
  3  7  1  0  0  0  0
  4 16  1  0  0  0  0
  5  9  2  0  0  0  0
  5  1  1  0  0  0  0
  6 10  2  0  0  0  0
  6 18  1  0  0  0  0
  7  8  2  0  0  0  0
  8  4  1  0  0  0  0
  8 10  1  0  0  0  0
  9  7  1  0  0  0  0
 10 12  1  0  0  0  0
 11  9  1  0  0  0  0
 11 19  1  0  0  0  0
 11 20  1  0  0  0  0
 12 21  1  0  0  0  0
 13  1  1  0  0  0  0
 14  2  1  0  0  0  0
 15  3  1  0  0  0  0
 17  5  1  0  0  0  0
M  END
>  <HBA>
2

>  <HBD>
2

>  <TPSA>
46.25

>  <cid>
65746

>  <dipole>
1.67

>  <excitation_energy_1>
3.909

>  <excitation_energy_2>
4.121

>  <excitation_energy_3>
4.438

>  <excitation_energy_4>
4.581

>  <homo_energy>
-4.95

>  <homo_lumo_gap>
4.427

>  <logP>
2.709

>  <lumo_energy>
-0.522

>  <melting_point>
138.78

>  <molecular_refractivity>
50.38

>  <oscillator_strength_1>
0.1204

>  <oscillator_strength_2>
0.0715

>  <oscillator_strength_3>
0.0039

>  <oscillator_strength_4>
0.0026

>  <open_babel_can_smiles>
Nc1cccc2c1cccc2O

>  <mulliken_charges>
21
1   -0.142873
2   -0.140273
3   -0.202445
4   -0.17746
5   -0.179863
6   -0.201546
7   0.105604
8   0.070054
9   0.222227
10   0.285042
11   -0.784406
12   -0.641332
13   0.124398
14   0.126445
15   0.123087
16   0.143761
17   0.111316
18   0.112489
19   0.317794
20   0.319584
21   0.408397

>  <lowdin_charges>
21
1   -0.150855
2   -0.151131
3   -0.18488
4   -0.176182
5   -0.208754
6   -0.226527
7   -0.019015
8   -0.018165
9   0.056021
10   0.106393
11   -0.492085
12   -0.376775
13   0.156424
14   0.157493
15   0.153937
16   0.165916
17   0.150795
18   0.15196
19   0.272714
20   0.275133
21   0.357582

$$$$

