PCCDB-ID:  46115
public computational chemistry database (PCCDB) project, http://pccdb.org

 31 31  0  0  0  0  0  0  0  0999 V2000
    1.5636    1.2366   -1.5931 C   0  0  0  0  0  0  0  0  0  0  0  0
    8.3966    3.5031   -3.3520 C   0  0  0  0  0  0  0  0  0  0  0  0
    6.9516    5.1885   -4.2770 C   0  0  0  0  0  0  0  0  0  0  0  0
    6.5242   -0.9412   -4.6406 C   0  0  0  0  0  0  0  0  0  0  0  0
    6.7916    0.3516   -5.0928 C   0  0  0  0  0  0  0  0  0  0  0  0
    5.8417   -1.1387   -3.4407 C   0  0  0  0  0  0  0  0  0  0  0  0
    5.6971    1.2691   -3.1458 C   0  0  0  0  0  0  0  0  0  0  0  0
    6.6163    2.8727   -4.8694 C   0  0  0  0  0  0  0  0  0  0  0  0
    6.3766    1.4653   -4.3531 C   0  0  0  0  0  0  0  0  0  0  0  0
    5.4364   -0.0254   -2.7088 C   0  0  0  0  0  0  0  0  0  0  0  0
    3.6162    0.1939   -1.1912 C   0  0  0  0  0  0  0  0  0  0  0  0
    2.8825    0.8043   -2.0233 N   0  0  0  0  0  0  0  0  0  0  0  0
    7.0536    3.8058   -3.8323 N   0  0  0  0  0  0  0  0  0  0  0  0
    3.3565   -0.1381    0.0992 O   0  0  0  0  0  0  0  0  0  0  0  0
    4.8557   -0.2708   -1.4626 O   0  0  0  0  0  0  0  0  0  0  0  0
    1.0799    1.7757   -2.4119 H   0  0  0  0  0  0  0  0  0  0  0  0
    1.5950    1.9244   -0.7305 H   0  0  0  0  0  0  0  0  0  0  0  0
    0.9040    0.3926   -1.3298 H   0  0  0  0  0  0  0  0  0  0  0  0
    8.6516    4.1778   -2.5277 H   0  0  0  0  0  0  0  0  0  0  0  0
    9.1698    3.6133   -4.1385 H   0  0  0  0  0  0  0  0  0  0  0  0
    8.4350    2.4764   -2.9776 H   0  0  0  0  0  0  0  0  0  0  0  0
    7.2204    5.8588   -3.4531 H   0  0  0  0  0  0  0  0  0  0  0  0
    5.9201    5.4091   -4.5727 H   0  0  0  0  0  0  0  0  0  0  0  0
    7.6125    5.4240   -5.1351 H   0  0  0  0  0  0  0  0  0  0  0  0
    6.8549   -1.7994   -5.2192 H   0  0  0  0  0  0  0  0  0  0  0  0
    7.3289    0.4988   -6.0266 H   0  0  0  0  0  0  0  0  0  0  0  0
    5.6291   -2.1328   -3.0611 H   0  0  0  0  0  0  0  0  0  0  0  0
    5.3843    2.1239   -2.5582 H   0  0  0  0  0  0  0  0  0  0  0  0
    5.6741    3.2627   -5.2781 H   0  0  0  0  0  0  0  0  0  0  0  0
    7.3293    2.8332   -5.7179 H   0  0  0  0  0  0  0  0  0  0  0  0
    2.4639    0.1733    0.3171 H   0  0  0  0  0  0  0  0  0  0  0  0
  1 18  1  0  0  0  0
  1 17  1  0  0  0  0
  2 21  1  0  0  0  0
  2 19  1  0  0  0  0
  3 13  1  0  0  0  0
  3 22  1  0  0  0  0
  4  6  1  0  0  0  0
  5  4  2  0  0  0  0
  5  9  1  0  0  0  0
  6 27  1  0  0  0  0
  6 10  2  0  0  0  0
  7 10  1  0  0  0  0
  7 28  1  0  0  0  0
  8  9  1  0  0  0  0
  8 13  1  0  0  0  0
  9  7  2  0  0  0  0
 10 15  1  0  0  0  0
 11 14  1  0  0  0  0
 12  1  1  0  0  0  0
 12 11  2  0  0  0  0
 13  2  1  0  0  0  0
 14 31  1  0  0  0  0
 15 11  1  0  0  0  0
 16  1  1  0  0  0  0
 20  2  1  0  0  0  0
 23  3  1  0  0  0  0
 24  3  1  0  0  0  0
 25  4  1  0  0  0  0
 26  5  1  0  0  0  0
 29  8  1  0  0  0  0
 30  8  1  0  0  0  0
M  END
>  <HBA>
4

>  <HBD>
1

>  <TPSA>
41.57

>  <cid>
46115

>  <dipole>
1.58

>  <excitation_energy_1>
4.834

>  <excitation_energy_2>
5.015

>  <excitation_energy_3>
5.189

>  <excitation_energy_4>
5.315

>  <homo_energy>
-5.777

>  <homo_lumo_gap>
5.807

>  <logP>
1.857

>  <lumo_energy>
0.03

>  <melting_point>
72.81

>  <molecular_refractivity>
58.61

>  <oscillator_strength_1>
0.0007

>  <oscillator_strength_2>
0.0022

>  <oscillator_strength_3>
0.0067

>  <oscillator_strength_4>
0.0068

>  <open_babel_can_smiles>
C/N=C(/Oc1cccc(c1)CN(C)C)\O

>  <mulliken_charges>
31
1   -0.359169
2   -0.302688
3   -0.29301
4   -0.140701
5   -0.179422
6   -0.157668
7   -0.160845
8   -0.190606
9   0.121951
10   0.355856
11   0.663573
12   -0.425976
13   -0.365205
14   -0.588404
15   -0.520105
16   0.1747
17   0.138948
18   0.143326
19   0.147872
20   0.115565
21   0.164687
22   0.149171
23   0.149224
24   0.117295
25   0.131462
26   0.122437
27   0.139259
28   0.153086
29   0.155477
30   0.115073
31   0.42484

>  <lowdin_charges>
31
1   -0.367887
2   -0.360455
3   -0.356118
4   -0.15228
5   -0.173546
6   -0.173593
7   -0.163068
8   -0.195987
9   -0.008056
10   0.112622
11   0.194065
12   -0.264766
13   -0.180154
14   -0.358584
15   -0.145393
16   0.165306
17   0.135576
18   0.138969
19   0.150624
20   0.120507
21   0.157525
22   0.151242
23   0.148783
24   0.120674
25   0.160012
26   0.154859
27   0.167107
28   0.177596
29   0.155924
30   0.122069
31   0.366426

$$$$

