PCCDB-ID:  41940
public computational chemistry database (PCCDB) project, http://pccdb.org

 31 31  0  0  0  0  0  0  0  0999 V2000
    3.1599   -0.0331    4.0484 C   0  0  0  0  0  0  0  0  0  0  0  0
    8.1579    1.4117    0.8549 C   0  0  0  0  0  0  0  0  0  0  0  0
    5.2242   -0.4124   -1.0528 C   0  0  0  0  0  0  0  0  0  0  0  0
    4.1068    0.3913    3.4321 C   0  0  0  0  0  0  0  0  0  0  0  0
    9.8054   -2.6607   -1.7211 C   0  0  0  0  0  0  0  0  0  0  0  0
    9.2178   -2.8570   -0.4702 C   0  0  0  0  0  0  0  0  0  0  0  0
    9.5825   -1.4667   -2.4092 C   0  0  0  0  0  0  0  0  0  0  0  0
    8.4130   -1.8637    0.0899 C   0  0  0  0  0  0  0  0  0  0  0  0
    8.7792   -0.4734   -1.8477 C   0  0  0  0  0  0  0  0  0  0  0  0
    5.2724    0.9016    2.6990 C   0  0  0  0  0  0  0  0  0  0  0  0
    7.3586    0.4281    0.0292 C   0  0  0  0  0  0  0  0  0  0  0  0
    6.0298    0.5212   -0.1774 C   0  0  0  0  0  0  0  0  0  0  0  0
    8.1809   -0.6608   -0.5927 C   0  0  0  0  0  0  0  0  0  0  0  0
    5.2176    1.6208    0.4352 C   0  0  0  0  0  0  0  0  0  0  0  0
    4.8689    1.8251    1.6433 N   0  0  0  0  0  0  0  0  0  0  0  0
    4.7600    2.4806   -0.5161 O   0  0  0  0  0  0  0  0  0  0  0  0
    2.3193   -0.4038    4.5896 H   0  0  0  0  0  0  0  0  0  0  0  0
    8.9426    1.8703    0.2390 H   0  0  0  0  0  0  0  0  0  0  0  0
    8.6729    0.8983    1.6776 H   0  0  0  0  0  0  0  0  0  0  0  0
    7.5414    2.2098    1.2753 H   0  0  0  0  0  0  0  0  0  0  0  0
    5.8513   -1.1800   -1.5102 H   0  0  0  0  0  0  0  0  0  0  0  0
    4.7212    0.1516   -1.8468 H   0  0  0  0  0  0  0  0  0  0  0  0
    4.4387   -0.9111   -0.4698 H   0  0  0  0  0  0  0  0  0  0  0  0
   10.4331   -3.4333   -2.1569 H   0  0  0  0  0  0  0  0  0  0  0  0
    9.3845   -3.7851    0.0702 H   0  0  0  0  0  0  0  0  0  0  0  0
   10.0343   -1.3075   -3.3848 H   0  0  0  0  0  0  0  0  0  0  0  0
    7.9528   -2.0214    1.0622 H   0  0  0  0  0  0  0  0  0  0  0  0
    8.6035    0.4546   -2.3859 H   0  0  0  0  0  0  0  0  0  0  0  0
    5.8663    0.0535    2.3255 H   0  0  0  0  0  0  0  0  0  0  0  0
    5.9168    1.4478    3.4030 H   0  0  0  0  0  0  0  0  0  0  0  0
    4.1878    3.1116   -0.0379 H   0  0  0  0  0  0  0  0  0  0  0  0
  1 17  1  0  0  0  0
  2 20  1  0  0  0  0
  2 19  1  0  0  0  0
  3 23  1  0  0  0  0
  3 12  1  0  0  0  0
  4  1  3  0  0  0  0
  5  6  2  0  0  0  0
  6 25  1  0  0  0  0
  6  8  1  0  0  0  0
  7  9  2  0  0  0  0
  7  5  1  0  0  0  0
  8 27  1  0  0  0  0
  9 13  1  0  0  0  0
 10 30  1  0  0  0  0
 10  4  1  0  0  0  0
 11  2  1  0  0  0  0
 12 11  2  0  0  0  0
 12 14  1  0  0  0  0
 13 11  1  0  0  0  0
 13  8  2  0  0  0  0
 14 15  2  0  0  0  0
 15 10  1  0  0  0  0
 16 31  1  0  0  0  0
 16 14  1  0  0  0  0
 18  2  1  0  0  0  0
 21  3  1  0  0  0  0
 22  3  1  0  0  0  0
 24  5  1  0  0  0  0
 26  7  1  0  0  0  0
 28  9  1  0  0  0  0
 29 10  1  0  0  0  0
M  END
>  <HBA>
2

>  <HBD>
1

>  <TPSA>
29.1

>  <cid>
41940

>  <dipole>
1.75

>  <excitation_energy_1>
5.33

>  <excitation_energy_2>
5.521

>  <excitation_energy_3>
5.613

>  <excitation_energy_4>
5.655

>  <homo_energy>
-6.697

>  <homo_lumo_gap>
6.504

>  <logP>
2.62

>  <lumo_energy>
-0.193

>  <melting_point>
84.71

>  <molecular_refractivity>
66.54

>  <oscillator_strength_1>
0.0001

>  <oscillator_strength_2>
0.0147

>  <oscillator_strength_3>
0.0101

>  <oscillator_strength_4>
0.0012

>  <open_babel_can_smiles>
C#CC/N=C(\C(=C(\c1ccccc1)/C)\C)/O

>  <mulliken_charges>
31
1   -0.492725
2   -0.505032
3   -0.514823
4   0.358861
5   -0.127242
6   -0.129696
7   -0.129981
8   -0.163435
9   -0.160304
10   -0.298689
11   0.026431
12   0.078108
13   0.062607
14   0.429353
15   -0.444328
16   -0.589425
17   0.185489
18   0.165185
19   0.16073
20   0.168865
21   0.170687
22   0.177902
23   0.163839
24   0.131718
25   0.132943
26   0.132956
27   0.132641
28   0.135647
29   0.160539
30   0.175664
31   0.405513

>  <lowdin_charges>
31
1   -0.255325
2   -0.445375
3   -0.444115
4   -0.038333
5   -0.158618
6   -0.154107
7   -0.152741
8   -0.161675
9   -0.161756
10   -0.187355
11   -0.007565
12   -0.042064
13   -0.003016
14   0.13529
15   -0.232452
16   -0.36639
17   0.203799
18   0.165054
19   0.161422
20   0.164667
21   0.168722
22   0.170059
23   0.162635
24   0.160004
25   0.159396
26   0.158699
27   0.157851
28   0.160846
29   0.155426
30   0.168843
31   0.358174

$$$$

