PCCDB-ID:  18696
public computational chemistry database (PCCDB) project, http://pccdb.org

 32 34  0  0  0  0  0  0  0  0999 V2000
    1.9365    1.3465    0.7258 C   0  0  0  0  0  0  0  0  0  0  0  0
    3.4791    0.4804   -1.0468 C   0  0  0  0  0  0  0  0  0  0  0  0
    3.9662   -4.8453   -0.5176 C   0  0  0  0  0  0  0  0  0  0  0  0
    0.2247   -2.8026    3.7044 C   0  0  0  0  0  0  0  0  0  0  0  0
    4.8018   -3.7996   -0.9202 C   0  0  0  0  0  0  0  0  0  0  0  0
    0.5008   -1.4516    3.9328 C   0  0  0  0  0  0  0  0  0  0  0  0
    2.9327   -4.6114    0.3914 C   0  0  0  0  0  0  0  0  0  0  0  0
    0.8924   -3.4974    2.6941 C   0  0  0  0  0  0  0  0  0  0  0  0
    4.5975   -2.4988   -0.4438 C   0  0  0  0  0  0  0  0  0  0  0  0
    1.4262   -0.7673    3.1353 C   0  0  0  0  0  0  0  0  0  0  0  0
    2.4794    0.0774    0.0493 C   0  0  0  0  0  0  0  0  0  0  0  0
    2.7359   -3.3161    0.8730 C   0  0  0  0  0  0  0  0  0  0  0  0
    1.8215   -2.8166    1.9057 C   0  0  0  0  0  0  0  0  0  0  0  0
    3.5458   -2.2471    0.4344 C   0  0  0  0  0  0  0  0  0  0  0  0
    2.0708   -1.4414    2.1003 C   0  0  0  0  0  0  0  0  0  0  0  0
    3.0921   -0.9380    1.0804 C   0  0  0  0  0  0  0  0  0  0  0  0
    1.5815    2.0531   -0.0333 H   0  0  0  0  0  0  0  0  0  0  0  0
    2.7193    1.8537    1.3058 H   0  0  0  0  0  0  0  0  0  0  0  0
    1.0985    1.1347    1.3933 H   0  0  0  0  0  0  0  0  0  0  0  0
    3.0317    1.2372   -1.7015 H   0  0  0  0  0  0  0  0  0  0  0  0
    3.7699   -0.3650   -1.6741 H   0  0  0  0  0  0  0  0  0  0  0  0
    4.3894    0.9174   -0.6144 H   0  0  0  0  0  0  0  0  0  0  0  0
    4.1340   -5.8492   -0.8986 H   0  0  0  0  0  0  0  0  0  0  0  0
   -0.4989   -3.3200    4.3289 H   0  0  0  0  0  0  0  0  0  0  0  0
    5.6229   -3.9971   -1.6042 H   0  0  0  0  0  0  0  0  0  0  0  0
   -0.0014   -0.9269    4.7413 H   0  0  0  0  0  0  0  0  0  0  0  0
    2.3047   -5.4315    0.7305 H   0  0  0  0  0  0  0  0  0  0  0  0
    0.7022   -4.5564    2.5387 H   0  0  0  0  0  0  0  0  0  0  0  0
    5.2723   -1.7052   -0.7495 H   0  0  0  0  0  0  0  0  0  0  0  0
    1.6444    0.2755    3.3444 H   0  0  0  0  0  0  0  0  0  0  0  0
    1.6362   -0.4361   -0.4340 H   0  0  0  0  0  0  0  0  0  0  0  0
    3.9324   -0.4321    1.5796 H   0  0  0  0  0  0  0  0  0  0  0  0
  1 18  1  0  0  0  0
  1 19  1  0  0  0  0
  2 22  1  0  0  0  0
  2 11  1  0  0  0  0
  3  7  1  0  0  0  0
  4  6  1  0  0  0  0
  4 24  1  0  0  0  0
  5  3  2  0  0  0  0
  5  9  1  0  0  0  0
  6 26  1  0  0  0  0
  7 27  1  0  0  0  0
  7 12  2  0  0  0  0
  8  4  2  0  0  0  0
  9 14  2  0  0  0  0
 10 30  1  0  0  0  0
 10  6  2  0  0  0  0
 11  1  1  0  0  0  0
 11 16  1  0  0  0  0
 12 13  1  0  0  0  0
 13 15  2  0  0  0  0
 13  8  1  0  0  0  0
 14 12  1  0  0  0  0
 14 16  1  0  0  0  0
 15 10  1  0  0  0  0
 16 32  1  0  0  0  0
 16 15  1  0  0  0  0
 17  1  1  0  0  0  0
 20  2  1  0  0  0  0
 21  2  1  0  0  0  0
 23  3  1  0  0  0  0
 25  5  1  0  0  0  0
 28  8  1  0  0  0  0
 29  9  1  0  0  0  0
 31 11  1  0  0  0  0
M  END
>  <HBA>
0

>  <HBD>
0

>  <TPSA>
0.0

>  <cid>
18696

>  <dipole>
0.42

>  <excitation_energy_1>
4.474

>  <excitation_energy_2>
4.562

>  <excitation_energy_3>
4.826

>  <excitation_energy_4>
5.375

>  <homo_energy>
-5.72

>  <homo_lumo_gap>
4.982

>  <logP>
4.455

>  <lumo_energy>
-0.737

>  <melting_point>
71.52

>  <molecular_refractivity>
69.31

>  <oscillator_strength_1>
0.1719

>  <oscillator_strength_2>
0.1993

>  <oscillator_strength_3>
0.0101

>  <oscillator_strength_4>
0.0381

>  <open_babel_can_smiles>
CC(C1c2ccccc2c2c1cccc2)C

>  <mulliken_charges>
32
1   -0.452118
2   -0.452647
3   -0.136645
4   -0.1366
5   -0.132671
6   -0.132558
7   -0.189166
8   -0.189369
9   -0.202799
10   -0.202871
11   -0.054706
12   0.078081
13   0.078322
14   0.103153
15   0.103229
16   -0.25229
17   0.142075
18   0.135918
19   0.155502
20   0.14209
21   0.155986
22   0.135913
23   0.127283
24   0.12724
25   0.12631
26   0.126285
27   0.128141
28   0.128221
29   0.131135
30   0.131181
31   0.133585
32   0.144788

>  <lowdin_charges>
32
1   -0.453019
2   -0.45274
3   -0.155562
4   -0.15728
5   -0.160786
6   -0.162005
7   -0.164449
8   -0.161374
9   -0.168418
10   -0.165579
11   -0.111447
12   -0.00988
13   -0.011068
14   -0.003952
15   -0.004133
16   -0.126021
17   0.151352
18   0.145077
19   0.156955
20   0.151461
21   0.157363
22   0.144201
23   0.156292
24   0.15822
25   0.157241
26   0.157881
27   0.1578
28   0.155226
29   0.159606
30   0.157189
31   0.145528
32   0.15632

$$$$

