PCCDB-ID:  13379
public computational chemistry database (PCCDB) project, http://pccdb.org

 32 31  0  0  0  0  0  0  0  0999 V2000
    2.5870   -1.5426   -1.4994 C   0  0  0  0  0  0  0  0  0  0  0  0
    9.1209    0.5171    3.3581 C   0  0  0  0  0  0  0  0  0  0  0  0
    9.7569   -1.2525    1.6782 C   0  0  0  0  0  0  0  0  0  0  0  0
    3.7658   -1.5942   -0.5217 C   0  0  0  0  0  0  0  0  0  0  0  0
    4.0641   -0.2347    0.1266 C   0  0  0  0  0  0  0  0  0  0  0  0
    5.2799   -0.2209    1.0689 C   0  0  0  0  0  0  0  0  0  0  0  0
    5.0968   -1.0498    2.3499 C   0  0  0  0  0  0  0  0  0  0  0  0
    6.2212   -0.9211    3.3943 C   0  0  0  0  0  0  0  0  0  0  0  0
    7.5939   -1.4922    2.9687 C   0  0  0  0  0  0  0  0  0  0  0  0
    8.5905   -0.4971    2.3329 C   0  0  0  0  0  0  0  0  0  0  0  0
    2.3946   -2.5239   -1.9483 H   0  0  0  0  0  0  0  0  0  0  0  0
    2.7783   -0.8345   -2.3153 H   0  0  0  0  0  0  0  0  0  0  0  0
    1.6675   -1.2218   -0.9940 H   0  0  0  0  0  0  0  0  0  0  0  0
    9.7955    1.2399    2.8839 H   0  0  0  0  0  0  0  0  0  0  0  0
    9.6838    0.0084    4.1521 H   0  0  0  0  0  0  0  0  0  0  0  0
    8.3137    1.0841    3.8352 H   0  0  0  0  0  0  0  0  0  0  0  0
   10.4725   -0.5613    1.2167 H   0  0  0  0  0  0  0  0  0  0  0  0
    9.4029   -1.9384    0.8992 H   0  0  0  0  0  0  0  0  0  0  0  0
   10.3040   -1.8479    2.4213 H   0  0  0  0  0  0  0  0  0  0  0  0
    4.6643   -1.9455   -1.0497 H   0  0  0  0  0  0  0  0  0  0  0  0
    3.5570   -2.3417    0.2548 H   0  0  0  0  0  0  0  0  0  0  0  0
    3.1745    0.1065    0.6775 H   0  0  0  0  0  0  0  0  0  0  0  0
    4.2275    0.5044   -0.6710 H   0  0  0  0  0  0  0  0  0  0  0  0
    5.4943    0.8200    1.3515 H   0  0  0  0  0  0  0  0  0  0  0  0
    6.1613   -0.5741    0.5156 H   0  0  0  0  0  0  0  0  0  0  0  0
    4.9796   -2.1118    2.0924 H   0  0  0  0  0  0  0  0  0  0  0  0
    4.1508   -0.7478    2.8235 H   0  0  0  0  0  0  0  0  0  0  0  0
    5.8893   -1.4452    4.3001 H   0  0  0  0  0  0  0  0  0  0  0  0
    6.3242    0.1336    3.6852 H   0  0  0  0  0  0  0  0  0  0  0  0
    7.4259   -2.3254    2.2706 H   0  0  0  0  0  0  0  0  0  0  0  0
    8.0876   -1.9382    3.8447 H   0  0  0  0  0  0  0  0  0  0  0  0
    8.0693    0.0631    1.5442 H   0  0  0  0  0  0  0  0  0  0  0  0
  1 13  1  0  0  0  0
  1  4  1  0  0  0  0
  2 16  1  0  0  0  0
  2 15  1  0  0  0  0
  3 10  1  0  0  0  0
  3 19  1  0  0  0  0
  4  5  1  0  0  0  0
  4 21  1  0  0  0  0
  5 22  1  0  0  0  0
  5  6  1  0  0  0  0
  6 24  1  0  0  0  0
  6  7  1  0  0  0  0
  7 27  1  0  0  0  0
  7  8  1  0  0  0  0
  8 29  1  0  0  0  0
  8 28  1  0  0  0  0
  9  8  1  0  0  0  0
  9 31  1  0  0  0  0
 10  9  1  0  0  0  0
 10  2  1  0  0  0  0
 11  1  1  0  0  0  0
 12  1  1  0  0  0  0
 14  2  1  0  0  0  0
 17  3  1  0  0  0  0
 18  3  1  0  0  0  0
 20  4  1  0  0  0  0
 23  5  1  0  0  0  0
 25  6  1  0  0  0  0
 26  7  1  0  0  0  0
 30  9  1  0  0  0  0
 32 10  1  0  0  0  0
M  END
>  <HBA>
0

>  <HBD>
0

>  <TPSA>
0.0

>  <cid>
13379

>  <dipole>
0.07

>  <excitation_energy_1>
7.642

>  <excitation_energy_2>
7.721

>  <excitation_energy_3>
7.833

>  <excitation_energy_4>
7.877

>  <homo_energy>
-8.063

>  <homo_lumo_gap>
10.359

>  <logP>
4.003

>  <lumo_energy>
2.297

>  <melting_point>
-29.22

>  <molecular_refractivity>
50.18

>  <oscillator_strength_1>
0.0001

>  <oscillator_strength_2>
0.0106

>  <oscillator_strength_3>
0.0127

>  <oscillator_strength_4>
0.0025

>  <open_babel_can_smiles>
CCCCCCCC(C)C

>  <mulliken_charges>
32
1   -0.441297
2   -0.443661
3   -0.442511
4   -0.248539
5   -0.248488
6   -0.254706
7   -0.257162
8   -0.265109
9   -0.25002
10   -0.072133
11   0.14076
12   0.140669
13   0.141135
14   0.138914
15   0.136698
16   0.143045
17   0.137856
18   0.138172
19   0.137524
20   0.128455
21   0.135679
22   0.125234
23   0.125538
24   0.125526
25   0.133509
26   0.131853
27   0.12461
28   0.128371
29   0.131016
30   0.125829
31   0.124241
32   0.128995

>  <lowdin_charges>
32
1   -0.444726
2   -0.449863
3   -0.447608
4   -0.276093
5   -0.276636
6   -0.278812
7   -0.2753
8   -0.278394
9   -0.280176
10   -0.125616
11   0.148383
12   0.146245
13   0.146357
14   0.148579
15   0.145131
16   0.148156
17   0.147957
18   0.147003
19   0.146006
20   0.138317
21   0.141042
22   0.137089
23   0.139987
24   0.137933
25   0.139669
26   0.136449
27   0.13835
28   0.143634
29   0.137962
30   0.13965
31   0.140049
32   0.139277

$$$$

