PCCDB-ID:  71606
public computational chemistry database (PCCDB) project, http://pccdb.org

 21 21  0  0  0  0  0  0  0  0999 V2000
   -0.8818   -1.1376    0.2005 C   0  0  0  0  0  0  0  0  0  0  0  0
    0.6725   -1.2102    0.2898 C   0  0  0  0  0  0  0  0  0  0  0  0
   -1.2373    0.3665    0.3037 C   0  0  0  0  0  0  0  0  0  0  0  0
    1.1578    0.2543    0.4317 C   0  0  0  0  0  0  0  0  0  0  0  0
    0.1020    1.2103   -1.6997 C   0  0  0  0  0  0  0  0  0  0  0  0
    0.0264    1.1171   -0.1679 C   0  0  0  0  0  0  0  0  0  0  0  0
    1.2504    2.0811   -2.2004 C   0  0  0  0  0  0  0  0  0  0  0  0
    1.9670    2.7539   -1.5034 O   0  0  0  0  0  0  0  0  0  0  0  0
    1.4276    2.0838   -3.5531 O   0  0  0  0  0  0  0  0  0  0  0  0
   -1.3701   -1.7195    0.9890 H   0  0  0  0  0  0  0  0  0  0  0  0
   -1.2326   -1.5536   -0.7513 H   0  0  0  0  0  0  0  0  0  0  0  0
    1.0879   -1.6725   -0.6134 H   0  0  0  0  0  0  0  0  0  0  0  0
    1.0094   -1.8257    1.1302 H   0  0  0  0  0  0  0  0  0  0  0  0
   -1.4327    0.6328    1.3498 H   0  0  0  0  0  0  0  0  0  0  0  0
   -2.1366    0.6323   -0.2649 H   0  0  0  0  0  0  0  0  0  0  0  0
    2.1275    0.4395   -0.0396 H   0  0  0  0  0  0  0  0  0  0  0  0
    1.2684    0.5112    1.4922 H   0  0  0  0  0  0  0  0  0  0  0  0
   -0.8301    1.6383   -2.0992 H   0  0  0  0  0  0  0  0  0  0  0  0
    0.1936    0.2123   -2.1530 H   0  0  0  0  0  0  0  0  0  0  0  0
    0.0619    2.1380    0.2255 H   0  0  0  0  0  0  0  0  0  0  0  0
    0.7770    1.4969   -3.9732 H   0  0  0  0  0  0  0  0  0  0  0  0
  1  2  1  0  0  0  0
  1  3  1  0  0  0  0
  1 10  1  0  0  0  0
  2  4  1  0  0  0  0
  2 13  1  0  0  0  0
  3 14  1  0  0  0  0
  4 17  1  0  0  0  0
  5  6  1  0  0  0  0
  6 20  1  0  0  0  0
  6  3  1  0  0  0  0
  6  4  1  0  0  0  0
  7  5  1  0  0  0  0
  7  8  2  0  0  0  0
  9  7  1  0  0  0  0
 11  1  1  0  0  0  0
 12  2  1  0  0  0  0
 15  3  1  0  0  0  0
 16  4  1  0  0  0  0
 18  5  1  0  0  0  0
 19  5  1  0  0  0  0
 21  9  1  0  0  0  0
M  END
>  <HBA>
2

>  <HBD>
1

>  <TPSA>
37.3

>  <cid>
71606

>  <dipole>
4.04

>  <excitation_energy_1>
5.716

>  <excitation_energy_2>
6.389

>  <excitation_energy_3>
7.206

>  <excitation_energy_4>
7.42

>  <homo_energy>
-7.353

>  <homo_lumo_gap>
7.66

>  <logP>
1.651

>  <lumo_energy>
0.307

>  <melting_point>
72.51

>  <molecular_refractivity>
35.42

>  <oscillator_strength_1>
0.0004

>  <oscillator_strength_2>
0.0156

>  <oscillator_strength_3>
0.0111

>  <oscillator_strength_4>
0.0018

>  <open_babel_can_smiles>
OC(=O)CC1CCCC1

>  <mulliken_charges>
21
1   -0.274122
2   -0.27725
3   -0.277732
4   -0.274497
5   -0.409591
6   -0.081198
7   0.608176
8   -0.437807
9   -0.569256
10   0.14074
11   0.132611
12   0.133588
13   0.141186
14   0.140748
15   0.128443
16   0.15387
17   0.139746
18   0.168132
19   0.157653
20   0.149372
21   0.407187

>  <lowdin_charges>
21
1   -0.290475
2   -0.291667
3   -0.282982
4   -0.281475
5   -0.327348
6   -0.12437
7   0.200359
8   -0.237523
9   -0.364972
10   0.149069
11   0.140066
12   0.140948
13   0.14945
14   0.145395
15   0.141742
16   0.15386
17   0.145649
18   0.165325
19   0.157153
20   0.153947
21   0.357849

$$$$

