PCCDB-ID:  16238
public computational chemistry database (PCCDB) project, http://pccdb.org

 27 28  0  0  0  0  0  0  0  0999 V2000
    3.9749   -0.3804   -0.8070 C   0  0  0  0  0  0  0  0  0  0  0  0
    1.6457   -1.0822   -0.0775 C   0  0  0  0  0  0  0  0  0  0  0  0
    4.3059    1.2007    6.2075 C   0  0  0  0  0  0  0  0  0  0  0  0
    4.5854   -0.1521    5.8893 C   0  0  0  0  0  0  0  0  0  0  0  0
    3.7777    2.0415    5.2544 C   0  0  0  0  0  0  0  0  0  0  0  0
    4.3310   -0.6363    4.6264 C   0  0  0  0  0  0  0  0  0  0  0  0
    2.9582    2.4045    2.9294 C   0  0  0  0  0  0  0  0  0  0  0  0
    2.7065    1.9122    1.6690 C   0  0  0  0  0  0  0  0  0  0  0  0
    3.5108   -0.2640    2.3072 C   0  0  0  0  0  0  0  0  0  0  0  0
    2.6891    0.0507   -0.0766 C   0  0  0  0  0  0  0  0  0  0  0  0
    3.5025    1.5722    3.9416 C   0  0  0  0  0  0  0  0  0  0  0  0
    2.9795    0.5585    1.3312 C   0  0  0  0  0  0  0  0  0  0  0  0
    3.7844    0.2049    3.6184 C   0  0  0  0  0  0  0  0  0  0  0  0
    3.7517   -0.6839   -1.8369 H   0  0  0  0  0  0  0  0  0  0  0  0
    4.4507   -1.2310   -0.3045 H   0  0  0  0  0  0  0  0  0  0  0  0
    4.7043    0.4361   -0.8414 H   0  0  0  0  0  0  0  0  0  0  0  0
    1.4111   -1.3906   -1.1034 H   0  0  0  0  0  0  0  0  0  0  0  0
    0.7150   -0.7652    0.4055 H   0  0  0  0  0  0  0  0  0  0  0  0
    2.0156   -1.9643    0.4584 H   0  0  0  0  0  0  0  0  0  0  0  0
    4.5116    1.5705    7.2084 H   0  0  0  0  0  0  0  0  0  0  0  0
    5.0034   -0.8066    6.6496 H   0  0  0  0  0  0  0  0  0  0  0  0
    3.5616    3.0803    5.4939 H   0  0  0  0  0  0  0  0  0  0  0  0
    4.5448   -1.6743    4.3815 H   0  0  0  0  0  0  0  0  0  0  0  0
    2.7404    3.4440    3.1646 H   0  0  0  0  0  0  0  0  0  0  0  0
    2.2885    2.5684    0.9087 H   0  0  0  0  0  0  0  0  0  0  0  0
    3.7323   -1.3056    2.0823 H   0  0  0  0  0  0  0  0  0  0  0  0
    2.2595    0.8912   -0.6390 H   0  0  0  0  0  0  0  0  0  0  0  0
  1 15  1  0  0  0  0
  1 10  1  0  0  0  0
  2 10  1  0  0  0  0
  2 18  1  0  0  0  0
  2 19  1  0  0  0  0
  3 20  1  0  0  0  0
  4  3  1  0  0  0  0
  4 21  1  0  0  0  0
  5 22  1  0  0  0  0
  5  3  2  0  0  0  0
  6  4  2  0  0  0  0
  7 24  1  0  0  0  0
  7 11  2  0  0  0  0
  8  7  1  0  0  0  0
  9 13  2  0  0  0  0
 10 12  1  0  0  0  0
 11  5  1  0  0  0  0
 12  8  2  0  0  0  0
 12  9  1  0  0  0  0
 13 11  1  0  0  0  0
 13  6  1  0  0  0  0
 14  1  1  0  0  0  0
 16  1  1  0  0  0  0
 17  2  1  0  0  0  0
 23  6  1  0  0  0  0
 25  8  1  0  0  0  0
 26  9  1  0  0  0  0
 27 10  1  0  0  0  0
M  END
>  <HBA>
0

>  <HBD>
0

>  <TPSA>
0.0

>  <cid>
16238

>  <dipole>
0.37

>  <excitation_energy_1>
4.285

>  <excitation_energy_2>
4.414

>  <excitation_energy_3>
5.333

>  <excitation_energy_4>
5.446

>  <homo_energy>
-5.671

>  <homo_lumo_gap>
4.746

>  <logP>
3.963

>  <lumo_energy>
-0.925

>  <melting_point>
51.16

>  <molecular_refractivity>
58.53

>  <oscillator_strength_1>
0.0438

>  <oscillator_strength_2>
0.0055

>  <oscillator_strength_3>
0.0001

>  <oscillator_strength_4>
0.0017

>  <open_babel_can_smiles>
CC(c1ccc2c(c1)cccc2)C

>  <mulliken_charges>
27
1   -0.436803
2   -0.437668
3   -0.135993
4   -0.137096
5   -0.191563
6   -0.190376
7   -0.190211
8   -0.198033
9   -0.266654
10   -0.159642
11   0.135044
12   0.185498
13   0.142244
14   0.140594
15   0.14391
16   0.149756
17   0.140617
18   0.14996
19   0.143925
20   0.127986
21   0.12811
22   0.127871
23   0.126958
24   0.127723
25   0.122851
26   0.123094
27   0.127901

>  <lowdin_charges>
27
1   -0.441259
2   -0.44087
3   -0.160441
4   -0.160828
5   -0.155198
6   -0.156928
7   -0.155038
8   -0.170427
9   -0.166391
10   -0.119113
11   -0.003357
12   -0.001342
13   0.001484
14   0.146961
15   0.148515
16   0.153431
17   0.147236
18   0.153101
19   0.148099
20   0.157028
21   0.159021
22   0.155367
23   0.155008
24   0.15552
25   0.156128
26   0.151965
27   0.14233

$$$$

