PCCDB-ID:  37524
public computational chemistry database (PCCDB) project, http://pccdb.org

 31 31  0  0  0  0  0  0  0  0999 V2000
    0.8900    0.0010   -0.1494 C   0  0  0  0  0  0  0  0  0  0  0  0
    2.5260    0.1842    1.6994 C   0  0  0  0  0  0  0  0  0  0  0  0
    4.6361   -2.4739   -1.5379 C   0  0  0  0  0  0  0  0  0  0  0  0
    5.2068   -1.6116    0.7084 C   0  0  0  0  0  0  0  0  0  0  0  0
    2.9864    1.3297   -0.5534 C   0  0  0  0  0  0  0  0  0  0  0  0
    5.0014   -0.0025   -1.2952 C   0  0  0  0  0  0  0  0  0  0  0  0
    4.5254    1.3488   -0.7301 C   0  0  0  0  0  0  0  0  0  0  0  0
    2.3958    0.0861    0.1640 C   0  0  0  0  0  0  0  0  0  0  0  0
    4.4470   -1.2724   -0.5922 C   0  0  0  0  0  0  0  0  0  0  0  0
    5.3364    1.7737    0.4241 N   0  0  0  0  0  0  0  0  0  0  0  0
    2.9864   -1.1835   -0.3331 N   0  0  0  0  0  0  0  0  0  0  0  0
    0.3647    0.8933    0.2086 H   0  0  0  0  0  0  0  0  0  0  0  0
    0.4482   -0.8782    0.3326 H   0  0  0  0  0  0  0  0  0  0  0  0
    0.7140   -0.0757   -1.2304 H   0  0  0  0  0  0  0  0  0  0  0  0
    1.9454    1.0364    2.0727 H   0  0  0  0  0  0  0  0  0  0  0  0
    3.5528    0.3228    2.0411 H   0  0  0  0  0  0  0  0  0  0  0  0
    2.1409   -0.7300    2.1619 H   0  0  0  0  0  0  0  0  0  0  0  0
    5.6972   -2.6319   -1.7595 H   0  0  0  0  0  0  0  0  0  0  0  0
    4.1183   -2.3130   -2.4927 H   0  0  0  0  0  0  0  0  0  0  0  0
    4.2368   -3.3864   -1.0818 H   0  0  0  0  0  0  0  0  0  0  0  0
    6.2684   -1.7801    0.4940 H   0  0  0  0  0  0  0  0  0  0  0  0
    4.7895   -2.5227    1.1493 H   0  0  0  0  0  0  0  0  0  0  0  0
    5.1520   -0.8304    1.4684 H   0  0  0  0  0  0  0  0  0  0  0  0
    2.5474    1.3699   -1.5617 H   0  0  0  0  0  0  0  0  0  0  0  0
    2.6619    2.2488   -0.0447 H   0  0  0  0  0  0  0  0  0  0  0  0
    6.0978   -0.0171   -1.3035 H   0  0  0  0  0  0  0  0  0  0  0  0
    4.6748   -0.0430   -2.3440 H   0  0  0  0  0  0  0  0  0  0  0  0
    4.7372    2.1013   -1.5020 H   0  0  0  0  0  0  0  0  0  0  0  0
    5.2283    1.1361    1.2070 H   0  0  0  0  0  0  0  0  0  0  0  0
    5.0044    2.6798    0.7534 H   0  0  0  0  0  0  0  0  0  0  0  0
    2.5165   -1.4033   -1.2101 H   0  0  0  0  0  0  0  0  0  0  0  0
  1  8  1  0  0  0  0
  1 12  1  0  0  0  0
  1 13  1  0  0  0  0
  2 16  1  0  0  0  0
  2 15  1  0  0  0  0
  2 17  1  0  0  0  0
  3 20  1  0  0  0  0
  3  9  1  0  0  0  0
  4 22  1  0  0  0  0
  4 23  1  0  0  0  0
  5 25  1  0  0  0  0
  5  8  1  0  0  0  0
  6  7  1  0  0  0  0
  6  9  1  0  0  0  0
  7  5  1  0  0  0  0
  7 10  1  0  0  0  0
  8  2  1  0  0  0  0
  9 11  1  0  0  0  0
  9  4  1  0  0  0  0
 10 30  1  0  0  0  0
 10 29  1  0  0  0  0
 11  8  1  0  0  0  0
 14  1  1  0  0  0  0
 18  3  1  0  0  0  0
 19  3  1  0  0  0  0
 21  4  1  0  0  0  0
 24  5  1  0  0  0  0
 26  6  1  0  0  0  0
 27  6  1  0  0  0  0
 28  7  1  0  0  0  0
 31 11  1  0  0  0  0
M  END
>  <HBA>
2

>  <HBD>
2

>  <TPSA>
38.05

>  <cid>
37524

>  <dipole>
1.26

>  <excitation_energy_1>
5.162

>  <excitation_energy_2>
5.534

>  <excitation_energy_3>
5.74

>  <excitation_energy_4>
5.81

>  <homo_energy>
-5.728

>  <homo_lumo_gap>
7.314

>  <logP>
2.283

>  <lumo_energy>
1.586

>  <melting_point>
97.5

>  <molecular_refractivity>
52.76

>  <oscillator_strength_1>
0.0183

>  <oscillator_strength_2>
0.0274

>  <oscillator_strength_3>
0.0013

>  <oscillator_strength_4>
0.0107

>  <open_babel_can_smiles>
NC1CC(C)(C)NC(C1)(C)C

>  <mulliken_charges>
31
1   -0.461302
2   -0.434451
3   -0.46194
4   -0.431658
5   -0.267333
6   -0.259905
7   0.010819
8   0.215985
9   0.206476
10   -0.723864
11   -0.581172
12   0.143315
13   0.154299
14   0.131989
15   0.132645
16   0.123327
17   0.15194
18   0.146018
19   0.131371
20   0.153405
21   0.138908
22   0.149051
23   0.130658
24   0.116608
25   0.117008
26   0.143042
27   0.118071
28   0.128593
29   0.302385
30   0.290171
31   0.285539

>  <lowdin_charges>
31
1   -0.444909
2   -0.449574
3   -0.443551
4   -0.445934
5   -0.306607
6   -0.290313
7   -0.069964
8   0.065987
9   0.065026
10   -0.55897
11   -0.365135
12   0.151916
13   0.155513
14   0.14042
15   0.146581
16   0.13908
17   0.156531
18   0.151586
19   0.14163
20   0.154664
21   0.147695
22   0.155128
23   0.143421
24   0.138454
25   0.138861
26   0.150997
27   0.139068
28   0.142056
29   0.24852
30   0.251812
31   0.25001

$$$$

