PCCDB-ID:  11956
public computational chemistry database (PCCDB) project, http://pccdb.org

 23 23  0  0  0  0  0  0  0  0999 V2000
    2.7842   -2.0030   -0.6219 C   0  0  0  0  0  0  0  0  0  0  0  0
    2.0348   -0.7319    2.3161 C   0  0  0  0  0  0  0  0  0  0  0  0
    3.0233   -0.6399    0.0438 C   0  0  0  0  0  0  0  0  0  0  0  0
    6.9052   -2.0049    3.1474 C   0  0  0  0  0  0  0  0  0  0  0  0
    5.7587   -1.9018    3.9341 C   0  0  0  0  0  0  0  0  0  0  0  0
    6.8072   -1.6871    1.7919 C   0  0  0  0  0  0  0  0  0  0  0  0
    4.5440   -1.4897    3.3897 C   0  0  0  0  0  0  0  0  0  0  0  0
    5.6020   -1.2724    1.2322 C   0  0  0  0  0  0  0  0  0  0  0  0
    4.4343   -1.1504    2.0216 C   0  0  0  0  0  0  0  0  0  0  0  0
    3.2284   -0.6920    1.4887 N   0  0  0  0  0  0  0  0  0  0  0  0
    2.6452   -1.8842   -1.7032 H   0  0  0  0  0  0  0  0  0  0  0  0
    1.8873   -2.4854   -0.2171 H   0  0  0  0  0  0  0  0  0  0  0  0
    3.6331   -2.6742   -0.4576 H   0  0  0  0  0  0  0  0  0  0  0  0
    1.1983   -0.3153    1.7499 H   0  0  0  0  0  0  0  0  0  0  0  0
    2.1620   -0.1196    3.2169 H   0  0  0  0  0  0  0  0  0  0  0  0
    1.7585   -1.7500    2.6354 H   0  0  0  0  0  0  0  0  0  0  0  0
    2.1639    0.0152   -0.1371 H   0  0  0  0  0  0  0  0  0  0  0  0
    3.8789   -0.1383   -0.4200 H   0  0  0  0  0  0  0  0  0  0  0  0
    7.8484   -2.3297    3.5764 H   0  0  0  0  0  0  0  0  0  0  0  0
    5.7997   -2.1506    4.9920 H   0  0  0  0  0  0  0  0  0  0  0  0
    7.6817   -1.7647    1.1502 H   0  0  0  0  0  0  0  0  0  0  0  0
    3.6784   -1.4341    4.0385 H   0  0  0  0  0  0  0  0  0  0  0  0
    5.5767   -1.0445    0.1732 H   0  0  0  0  0  0  0  0  0  0  0  0
  1 13  1  0  0  0  0
  1 12  1  0  0  0  0
  1  3  1  0  0  0  0
  2 16  1  0  0  0  0
  2 15  1  0  0  0  0
  3 10  1  0  0  0  0
  4 19  1  0  0  0  0
  4  5  2  0  0  0  0
  5 20  1  0  0  0  0
  6  4  1  0  0  0  0
  7  5  1  0  0  0  0
  7 22  1  0  0  0  0
  8  6  2  0  0  0  0
  8  9  1  0  0  0  0
  9  7  2  0  0  0  0
 10  9  1  0  0  0  0
 10  2  1  0  0  0  0
 11  1  1  0  0  0  0
 14  2  1  0  0  0  0
 17  3  1  0  0  0  0
 18  3  1  0  0  0  0
 21  6  1  0  0  0  0
 23  8  1  0  0  0  0
M  END
>  <HBA>
1

>  <HBD>
0

>  <TPSA>
3.24

>  <cid>
11956

>  <dipole>
1.84

>  <excitation_energy_1>
4.443

>  <excitation_energy_2>
4.468

>  <excitation_energy_3>
4.946

>  <excitation_energy_4>
5.007

>  <homo_energy>
-4.974

>  <homo_lumo_gap>
5.325

>  <logP>
2.143

>  <lumo_energy>
0.351

>  <melting_point>
12.0

>  <molecular_refractivity>
45.46

>  <oscillator_strength_1>
0.0386

>  <oscillator_strength_2>
0.0128

>  <oscillator_strength_3>
0.0979

>  <oscillator_strength_4>
0.0032

>  <open_babel_can_smiles>
CCN(c1ccccc1)C

>  <mulliken_charges>
23
1   -0.44468
2   -0.311477
3   -0.148078
4   -0.137804
5   -0.135956
6   -0.137693
7   -0.198165
8   -0.191451
9   0.363219
10   -0.470896
11   0.142687
12   0.148325
13   0.164078
14   0.15225
15   0.162355
16   0.148322
17   0.142243
18   0.154202
19   0.117127
20   0.120882
21   0.12098
22   0.11989
23   0.119642

>  <lowdin_charges>
23
1   -0.458869
2   -0.352933
3   -0.196139
4   -0.192155
5   -0.145316
6   -0.149247
7   -0.214078
8   -0.208531
9   0.060502
10   -0.122049
11   0.150269
12   0.151274
13   0.159211
14   0.156778
15   0.15372
16   0.139026
17   0.14728
18   0.149745
19   0.153311
20   0.151998
21   0.154302
22   0.158057
23   0.153845

$$$$

