PCCDB-ID:  27946
public computational chemistry database (PCCDB) project, http://pccdb.org

 16 16  0  0  0  0  0  0  0  0999 V2000
   -0.7797   -1.1044   -0.0888 C   0  0  0  0  0  0  0  0  0  0  0  0
    0.7744   -1.0634   -0.1387 C   0  0  0  0  0  0  0  0  0  0  0  0
   -1.1866    0.3748    0.1842 C   0  0  0  0  0  0  0  0  0  0  0  0
    1.1188    0.4141    0.1899 C   0  0  0  0  0  0  0  0  0  0  0  0
    0.0190    1.4545   -1.6357 N   0  0  0  0  0  0  0  0  0  0  0  0
   -0.0437    1.2198   -0.2157 N   0  0  0  0  0  0  0  0  0  0  0  0
   -1.1563   -1.7687    0.6953 H   0  0  0  0  0  0  0  0  0  0  0  0
   -1.1950   -1.4682   -1.0352 H   0  0  0  0  0  0  0  0  0  0  0  0
    1.1382   -1.3274   -1.1375 H   0  0  0  0  0  0  0  0  0  0  0  0
    1.2363   -1.7612    0.5670 H   0  0  0  0  0  0  0  0  0  0  0  0
   -1.3562    0.5257    1.2576 H   0  0  0  0  0  0  0  0  0  0  0  0
   -2.0917    0.6947   -0.3408 H   0  0  0  0  0  0  0  0  0  0  0  0
    2.0112    0.7877   -0.3140 H   0  0  0  0  0  0  0  0  0  0  0  0
    1.2491    0.5399    1.2726 H   0  0  0  0  0  0  0  0  0  0  0  0
   -0.5760    2.2601   -1.8187 H   0  0  0  0  0  0  0  0  0  0  0  0
   -0.3845    0.6692   -2.1591 H   0  0  0  0  0  0  0  0  0  0  0  0
  1  3  1  0  0  0  0
  1  7  1  0  0  0  0
  2  1  1  0  0  0  0
  2  4  1  0  0  0  0
  2 10  1  0  0  0  0
  3 11  1  0  0  0  0
  4 14  1  0  0  0  0
  5  6  1  0  0  0  0
  6  3  1  0  0  0  0
  6  4  1  0  0  0  0
  8  1  1  0  0  0  0
  9  2  1  0  0  0  0
 12  3  1  0  0  0  0
 13  4  1  0  0  0  0
 15  5  1  0  0  0  0
 16  5  1  0  0  0  0
M  END
>  <HBA>
2

>  <HBD>
1

>  <TPSA>
29.26

>  <cid>
27946

>  <dipole>
1.84

>  <excitation_energy_1>
5.45

>  <excitation_energy_2>
6.018

>  <excitation_energy_3>
6.067

>  <excitation_energy_4>
6.262

>  <homo_energy>
-5.965

>  <homo_lumo_gap>
7.709

>  <logP>
0.594

>  <lumo_energy>
1.744

>  <melting_point>
54.23

>  <molecular_refractivity>
28.75

>  <oscillator_strength_1>
0.0176

>  <oscillator_strength_2>
0.0033

>  <oscillator_strength_3>
0.0318

>  <oscillator_strength_4>
0.0199

>  <open_babel_can_smiles>
NN1CCCC1

>  <mulliken_charges>
16
1   -0.295154
2   -0.292684
3   -0.149611
4   -0.122552
5   -0.585764
6   -0.290959
7   0.143067
8   0.136658
9   0.144779
10   0.139655
11   0.148125
12   0.133533
13   0.158519
14   0.139344
15   0.312454
16   0.280589

>  <lowdin_charges>
16
1   -0.308627
2   -0.305426
3   -0.224893
4   -0.212166
5   -0.482365
6   -0.140001
7   0.151466
8   0.142698
9   0.146211
10   0.150154
11   0.145115
12   0.143684
13   0.159401
14   0.139742
15   0.258838
16   0.236168

$$$$

