PCCDB-ID:  66519
public computational chemistry database (PCCDB) project, http://pccdb.org

 22 23  0  0  0  0  0  0  0  0999 V2000
   -1.1287    0.0769    1.1677 C   0  0  0  0  0  0  0  0  0  0  0  0
   -0.2252   -0.9341    1.4982 C   0  0  0  0  0  0  0  0  0  0  0  0
   -0.7207    1.1252    0.3417 C   0  0  0  0  0  0  0  0  0  0  0  0
    1.0811   -0.9007    1.0125 C   0  0  0  0  0  0  0  0  0  0  0  0
    0.5798    1.1653   -0.1589 C   0  0  0  0  0  0  0  0  0  0  0  0
    4.8791   -0.4957   -1.2951 C   0  0  0  0  0  0  0  0  0  0  0  0
    4.9670    0.9943   -0.9507 C   0  0  0  0  0  0  0  0  0  0  0  0
    1.4807    0.1507    0.1810 C   0  0  0  0  0  0  0  0  0  0  0  0
    3.4928   -0.9378   -0.8400 C   0  0  0  0  0  0  0  0  0  0  0  0
    3.6078    1.3570   -0.3622 C   0  0  0  0  0  0  0  0  0  0  0  0
    2.8205    0.1888   -0.3255 N   0  0  0  0  0  0  0  0  0  0  0  0
    3.0362   -2.0570   -0.9049 O   0  0  0  0  0  0  0  0  0  0  0  0
    3.2542    2.4524    0.0123 O   0  0  0  0  0  0  0  0  0  0  0  0
   -2.1446    0.0481    1.5517 H   0  0  0  0  0  0  0  0  0  0  0  0
   -0.5343   -1.7553    2.1387 H   0  0  0  0  0  0  0  0  0  0  0  0
   -1.4165    1.9175    0.0803 H   0  0  0  0  0  0  0  0  0  0  0  0
    1.7801   -1.6891    1.2622 H   0  0  0  0  0  0  0  0  0  0  0  0
    0.8981    1.9816   -0.7952 H   0  0  0  0  0  0  0  0  0  0  0  0
    5.6277   -1.1113   -0.7872 H   0  0  0  0  0  0  0  0  0  0  0  0
    4.9718   -0.7016   -2.3662 H   0  0  0  0  0  0  0  0  0  0  0  0
    5.1567    1.6369   -1.8158 H   0  0  0  0  0  0  0  0  0  0  0  0
    5.7370    1.2256   -0.2077 H   0  0  0  0  0  0  0  0  0  0  0  0
  1  2  1  0  0  0  0
  1 14  1  0  0  0  0
  2 15  1  0  0  0  0
  3  1  2  0  0  0  0
  4 17  1  0  0  0  0
  4  2  2  0  0  0  0
  5  8  2  0  0  0  0
  5  3  1  0  0  0  0
  6  7  1  0  0  0  0
  6  9  1  0  0  0  0
  6 19  1  0  0  0  0
  7 10  1  0  0  0  0
  7 22  1  0  0  0  0
  8  4  1  0  0  0  0
  9 11  1  0  0  0  0
 10 11  1  0  0  0  0
 10 13  2  0  0  0  0
 11  8  1  0  0  0  0
 12  9  2  0  0  0  0
 16  3  1  0  0  0  0
 18  5  1  0  0  0  0
 20  6  1  0  0  0  0
 21  7  1  0  0  0  0
M  END
>  <HBA>
3

>  <HBD>
0

>  <TPSA>
37.38

>  <cid>
66519

>  <dipole>
1.45

>  <excitation_energy_1>
4.94

>  <excitation_energy_2>
5.164

>  <excitation_energy_3>
5.203

>  <excitation_energy_4>
5.223

>  <homo_energy>
-6.558

>  <homo_lumo_gap>
5.959

>  <logP>
1.405

>  <lumo_energy>
-0.599

>  <melting_point>
76.69

>  <molecular_refractivity>
51.48

>  <oscillator_strength_1>
0.002

>  <oscillator_strength_2>
0.0065

>  <oscillator_strength_3>
0.0368

>  <oscillator_strength_4>
0.0

>  <open_babel_can_smiles>
O=C1CCC(=O)N1c1ccccc1

>  <mulliken_charges>
22
1   -0.11773
2   -0.146657
3   -0.14647
4   -0.129641
5   -0.129649
6   -0.384727
7   -0.384641
8   0.289971
9   0.593873
10   0.59384
11   -0.586508
12   -0.469401
13   -0.469419
14   0.1332
15   0.136558
16   0.136504
17   0.155178
18   0.154955
19   0.191873
20   0.19353
21   0.191877
22   0.193484

>  <lowdin_charges>
22
1   -0.151981
2   -0.152543
3   -0.153406
4   -0.153947
5   -0.153036
6   -0.305734
7   -0.307022
8   0.049112
9   0.169572
10   0.169549
11   -0.069136
12   -0.247578
13   -0.247639
14   0.159159
15   0.162232
16   0.162503
17   0.174652
18   0.174349
19   0.180619
20   0.17902
21   0.180002
22   0.181254

$$$$

