PCCDB-ID:  68120
public computational chemistry database (PCCDB) project, http://pccdb.org

 16 17  0  0  0  0  0  0  0  0999 V2000
   -1.3002    0.1384   -0.0888 C   0  0  0  0  0  0  0  0  0  0  0  0
    4.3097   -2.2188    0.2107 C   0  0  0  0  0  0  0  0  0  0  0  0
   -0.3974   -0.9594   -0.1747 C   0  0  0  0  0  0  0  0  0  0  0  0
    3.4019   -1.1295    0.3410 C   0  0  0  0  0  0  0  0  0  0  0  0
   -0.6730    1.3225    0.1826 C   0  0  0  0  0  0  0  0  0  0  0  0
    3.7035   -3.3683   -0.2139 C   0  0  0  0  0  0  0  0  0  0  0  0
    0.9199   -0.6099    0.0300 C   0  0  0  0  0  0  0  0  0  0  0  0
    2.1019   -1.4506    0.0151 C   0  0  0  0  0  0  0  0  0  0  0  0
    1.0438    1.1163    0.3346 S   0  0  0  0  0  0  0  0  0  0  0  0
    2.0026   -3.1363   -0.4708 S   0  0  0  0  0  0  0  0  0  0  0  0
   -2.3729    0.0464   -0.2195 H   0  0  0  0  0  0  0  0  0  0  0  0
    5.3699   -2.1471    0.4277 H   0  0  0  0  0  0  0  0  0  0  0  0
   -0.7112   -1.9788   -0.3736 H   0  0  0  0  0  0  0  0  0  0  0  0
    3.6981   -0.1394    0.6711 H   0  0  0  0  0  0  0  0  0  0  0  0
   -1.1098    2.3043    0.3049 H   0  0  0  0  0  0  0  0  0  0  0  0
    4.1475   -4.3381   -0.3933 H   0  0  0  0  0  0  0  0  0  0  0  0
  1  5  2  0  0  0  0
  2  4  1  0  0  0  0
  2 12  1  0  0  0  0
  3  1  1  0  0  0  0
  3  7  2  0  0  0  0
  4 14  1  0  0  0  0
  5 15  1  0  0  0  0
  5  9  1  0  0  0  0
  6  2  2  0  0  0  0
  7  9  1  0  0  0  0
  8  7  1  0  0  0  0
  8  4  2  0  0  0  0
 10  6  1  0  0  0  0
 10  8  1  0  0  0  0
 11  1  1  0  0  0  0
 13  3  1  0  0  0  0
 16  6  1  0  0  0  0
M  END
>  <HBA>
2

>  <HBD>
0

>  <TPSA>
56.48

>  <cid>
68120

>  <dipole>
0.09

>  <excitation_energy_1>
3.877

>  <excitation_energy_2>
4.802

>  <excitation_energy_3>
4.893

>  <excitation_energy_4>
5.038

>  <homo_energy>
-5.48

>  <homo_lumo_gap>
4.242

>  <logP>
3.477

>  <lumo_energy>
-1.238

>  <melting_point>
39.05

>  <molecular_refractivity>
47.63

>  <oscillator_strength_1>
0.4147

>  <oscillator_strength_2>
0.0002

>  <oscillator_strength_3>
0.0011

>  <oscillator_strength_4>
0.0117

>  <open_babel_can_smiles>
c1csc(c1)c1cccs1

>  <mulliken_charges>
16
1   -0.097302
2   -0.097284
3   -0.143364
4   -0.143144
5   -0.344003
6   -0.344076
7   -0.144961
8   -0.145268
9   0.260315
10   0.260269
11   0.144028
12   0.14399
13   0.151712
14   0.151558
15   0.173761
16   0.173768

>  <lowdin_charges>
16
1   -0.174507
2   -0.17475
3   -0.188833
4   -0.189147
5   -0.317416
6   -0.317483
7   -0.148861
8   -0.148672
9   0.310967
10   0.310722
11   0.165536
12   0.165712
13   0.169765
14   0.170053
15   0.183386
16   0.183527

$$$$

