PCCDB-ID:  29678
public computational chemistry database (PCCDB) project, http://pccdb.org

 23 23  0  0  1  0  0  0  0  0999 V2000
    2.0268    0.9287    1.1927 C   0  0  0  0  0  0  0  0  0  0  0  0
    2.5711    0.0698    0.3299 C   0  0  0  0  0  0  0  0  0  0  0  0
    3.3142    0.4475   -0.9225 C   0  0  0  0  0  0  0  0  0  0  0  0
    4.7826   -0.0196   -0.9141 C   0  0  0  0  0  0  0  0  0  0  0  0
    5.5270    0.3162   -2.2116 C   0  0  0  0  0  0  0  0  0  0  0  0
    6.9902   -0.1507   -2.2081 C   0  0  0  0  0  0  0  0  0  0  0  0
    9.1222    0.5823   -3.5308 C   0  0  0  0  0  0  0  0  0  0  0  0
    7.7085    0.1821   -3.4948 C   0  0  2  0  0  0  0  0  0  0  0  0
    8.0824    1.5574   -3.6807 O   0  0  0  0  0  0  0  0  0  0  0  0
    1.5075    0.5927    2.0864 H   0  0  0  0  0  0  0  0  0  0  0  0
    2.0760    2.0046    1.0357 H   0  0  0  0  0  0  0  0  0  0  0  0
    2.4963   -1.0008    0.5315 H   0  0  0  0  0  0  0  0  0  0  0  0
    3.2742    1.5359   -1.0624 H   0  0  0  0  0  0  0  0  0  0  0  0
    2.8110    0.0009   -1.7943 H   0  0  0  0  0  0  0  0  0  0  0  0
    4.8172   -1.1056   -0.7415 H   0  0  0  0  0  0  0  0  0  0  0  0
    5.2992    0.4415   -0.0612 H   0  0  0  0  0  0  0  0  0  0  0  0
    5.5044    1.4007   -2.3819 H   0  0  0  0  0  0  0  0  0  0  0  0
    5.0006   -0.1409   -3.0628 H   0  0  0  0  0  0  0  0  0  0  0  0
    7.0352   -1.2383   -2.0488 H   0  0  0  0  0  0  0  0  0  0  0  0
    7.5276    0.3169   -1.3728 H   0  0  0  0  0  0  0  0  0  0  0  0
    9.7208    0.3957   -4.4232 H   0  0  0  0  0  0  0  0  0  0  0  0
    9.6869    0.6414   -2.5994 H   0  0  0  0  0  0  0  0  0  0  0  0
    7.2931   -0.2789   -4.3953 H   0  0  0  0  0  0  0  0  0  0  0  0
  1 10  1  0  0  0  0
  2 12  1  0  0  0  0
  2  1  2  0  0  0  0
  3  4  1  0  0  0  0
  3  2  1  0  0  0  0
  4 15  1  0  0  0  0
  4 16  1  0  0  0  0
  5  6  1  0  0  0  0
  5  4  1  0  0  0  0
  6 19  1  0  0  0  0
  6 20  1  0  0  0  0
  7  8  1  0  0  0  0
  7 22  1  0  0  0  0
  8 23  1  6  0  0  0
  8  6  1  0  0  0  0
  9  7  1  0  0  0  0
  9  8  1  0  0  0  0
 11  1  1  0  0  0  0
 13  3  1  0  0  0  0
 14  3  1  0  0  0  0
 17  5  1  0  0  0  0
 18  5  1  0  0  0  0
 21  7  1  0  0  0  0
M  END
>  <HBA>
1

>  <HBD>
0

>  <TPSA>
12.53

>  <cid>
29678

>  <dipole>
1.95

>  <excitation_energy_1>
6.499

>  <excitation_energy_2>
6.829

>  <excitation_energy_3>
6.896

>  <excitation_energy_4>
6.911

>  <homo_energy>
-6.795

>  <homo_lumo_gap>
7.48

>  <logP>
2.132

>  <lumo_energy>
0.686

>  <melting_point>
-34.86

>  <molecular_refractivity>
39.07

>  <oscillator_strength_1>
0.0395

>  <oscillator_strength_2>
0.0085

>  <oscillator_strength_3>
0.0093

>  <oscillator_strength_4>
0.2095

>  <open_babel_can_smiles>
C=CCCCC[C@H]1OC1

>  <mulliken_charges>
23
1   -0.341188
2   -0.041673
3   -0.301288
4   -0.255984
5   -0.25965
6   -0.278015
7   -0.113093
8   0.10452
9   -0.444186
10   0.136941
11   0.1345
12   0.121689
13   0.139461
14   0.1396
15   0.128036
16   0.140279
17   0.153549
18   0.128699
19   0.13471
20   0.141488
21   0.14737
22   0.146555
23   0.137679

>  <lowdin_charges>
23
1   -0.342595
2   -0.142147
3   -0.270419
4   -0.271678
5   -0.273661
6   -0.278121
7   -0.169772
8   -0.020706
9   -0.293309
10   0.157412
11   0.151634
12   0.145681
13   0.144918
14   0.147932
15   0.135839
16   0.145013
17   0.148776
18   0.139358
19   0.145081
20   0.15126
21   0.152811
22   0.150933
23   0.145758

$$$$

