PCCDB-ID:  48772
public computational chemistry database (PCCDB) project, http://pccdb.org

 29 29  0  0  1  0  0  0  0  0999 V2000
    1.3968    0.2776    0.8811 C   0  0  0  0  0  0  0  0  0  0  0  0
    4.1941   -0.1689   -2.5368 C   0  0  0  0  0  0  0  0  0  0  0  0
    4.9361    2.2011   -2.4020 C   0  0  0  0  0  0  0  0  0  0  0  0
    3.8213    3.7636    2.0437 C   0  0  0  0  0  0  0  0  0  0  0  0
    2.3958    0.0463   -0.2576 C   0  0  0  0  0  0  0  0  0  0  0  0
    4.0927    1.0311   -1.9515 C   0  0  0  0  0  0  0  0  0  0  0  0
    1.9924    2.2359   -1.4127 C   0  0  0  0  0  0  0  0  0  0  0  0
    3.7974    2.0185    0.3348 C   0  0  0  0  0  0  0  0  0  0  0  0
    2.0525    3.7819    0.3129 C   0  0  0  0  0  0  0  0  0  0  0  0
    3.0763    1.3332   -0.8352 C   0  0  1  0  0  0  0  0  0  0  0  0
    1.5159    3.2963   -0.8807 N   0  0  0  0  0  0  0  0  0  0  0  0
    3.2072    3.1489    0.8598 N   0  0  0  0  0  0  0  0  0  0  0  0
    1.4581    1.8428   -2.5781 O   0  0  0  0  0  0  0  0  0  0  0  0
    4.8185    1.5346    0.7992 O   0  0  0  0  0  0  0  0  0  0  0  0
    1.5789    4.7468    0.8755 O   0  0  0  0  0  0  0  0  0  0  0  0
    0.9635   -0.6816    1.1829 H   0  0  0  0  0  0  0  0  0  0  0  0
    0.5718    0.9331    0.5830 H   0  0  0  0  0  0  0  0  0  0  0  0
    1.8767    0.7117    1.7640 H   0  0  0  0  0  0  0  0  0  0  0  0
    4.8996   -0.3262   -3.3481 H   0  0  0  0  0  0  0  0  0  0  0  0
    3.6298   -1.0395   -2.2215 H   0  0  0  0  0  0  0  0  0  0  0  0
    5.5485    1.9338   -3.2673 H   0  0  0  0  0  0  0  0  0  0  0  0
    5.6066    2.5219   -1.5967 H   0  0  0  0  0  0  0  0  0  0  0  0
    4.3178    3.0657   -2.6768 H   0  0  0  0  0  0  0  0  0  0  0  0
    4.3340    2.9863    2.6086 H   0  0  0  0  0  0  0  0  0  0  0  0
    3.0355    4.2328    2.6324 H   0  0  0  0  0  0  0  0  0  0  0  0
    4.5474    4.5262    1.7441 H   0  0  0  0  0  0  0  0  0  0  0  0
    1.8843   -0.4696   -1.0779 H   0  0  0  0  0  0  0  0  0  0  0  0
    3.2077   -0.6032    0.0843 H   0  0  0  0  0  0  0  0  0  0  0  0
    1.9938    1.1065   -2.9325 H   0  0  0  0  0  0  0  0  0  0  0  0
  1 16  1  0  0  0  0
  1 18  1  0  0  0  0
  2 20  1  0  0  0  0
  2  6  2  0  0  0  0
  3  6  1  0  0  0  0
  3 22  1  0  0  0  0
  4 24  1  0  0  0  0
  4 25  1  0  0  0  0
  5 28  1  0  0  0  0
  5  1  1  0  0  0  0
  7 11  2  0  0  0  0
  7 10  1  0  0  0  0
  8 14  2  0  0  0  0
  8 12  1  0  0  0  0
  9 12  1  0  0  0  0
  9 15  2  0  0  0  0
 10  6  1  6  0  0  0
 10  5  1  0  0  0  0
 10  8  1  0  0  0  0
 11  9  1  0  0  0  0
 12  4  1  0  0  0  0
 13  7  1  0  0  0  0
 17  1  1  0  0  0  0
 19  2  1  0  0  0  0
 21  3  1  0  0  0  0
 23  3  1  0  0  0  0
 26  4  1  0  0  0  0
 27  5  1  0  0  0  0
 29 13  1  0  0  0  0
M  END
>  <HBA>
5

>  <HBD>
1

>  <TPSA>
66.48

>  <cid>
48772

>  <dipole>
4.79

>  <excitation_energy_1>
4.493

>  <excitation_energy_2>
4.717

>  <excitation_energy_3>
5.121

>  <excitation_energy_4>
5.243

>  <homo_energy>
-7.249

>  <homo_lumo_gap>
5.766

>  <logP>
0.934

>  <lumo_energy>
-1.483

>  <melting_point>
99.19

>  <molecular_refractivity>
61.85

>  <oscillator_strength_1>
0.0003

>  <oscillator_strength_2>
0.0026

>  <oscillator_strength_3>
0.0023

>  <oscillator_strength_4>
0.0433

>  <open_babel_can_smiles>
CC[C@@]1(C(=C)C)C(=NC(=O)N(C1=O)C)O

>  <mulliken_charges>
29
1   -0.475287
2   -0.416175
3   -0.534284
4   -0.322455
5   -0.273341
6   0.208639
7   0.549615
8   0.625104
9   0.703122
10   -0.170982
11   -0.49525
12   -0.511342
13   -0.568068
14   -0.508405
15   -0.464434
16   0.161403
17   0.172907
18   0.167683
19   0.156453
20   0.157927
21   0.165499
22   0.194117
23   0.171672
24   0.188514
25   0.197751
26   0.174866
27   0.144127
28   0.184679
29   0.415946

>  <lowdin_charges>
29
1   -0.454964
2   -0.356053
3   -0.451126
4   -0.354916
5   -0.26476
6   0.011064
7   0.159108
8   0.16187
9   0.185374
10   -0.051075
11   -0.185985
12   -0.091572
13   -0.31975
14   -0.277985
15   -0.243835
16   0.162525
17   0.162418
18   0.160115
19   0.168285
20   0.166761
21   0.165897
22   0.178297
23   0.165041
24   0.176825
25   0.182007
26   0.164265
27   0.149021
28   0.170325
29   0.362824

$$$$

