PCCDB-ID:  15068
public computational chemistry database (PCCDB) project, http://pccdb.org

 21 21  0  0  0  0  0  0  0  0999 V2000
    1.0617   -0.0064   -0.1234 C   0  0  0  0  0  0  0  0  0  0  0  0
    7.0028   -2.3303   -0.6909 C   0  0  0  0  0  0  0  0  0  0  0  0
    3.2076    1.3522   -0.0968 C   0  0  0  0  0  0  0  0  0  0  0  0
    4.5934    1.4507   -0.1448 C   0  0  0  0  0  0  0  0  0  0  0  0
    3.3720   -1.0141   -0.3732 C   0  0  0  0  0  0  0  0  0  0  0  0
    2.5664    0.1099   -0.2059 C   0  0  0  0  0  0  0  0  0  0  0  0
    5.4898   -2.2690   -0.6183 C   0  0  0  0  0  0  0  0  0  0  0  0
    4.7755   -0.9572   -0.4287 C   0  0  0  0  0  0  0  0  0  0  0  0
    5.3861    0.3082   -0.3076 C   0  0  0  0  0  0  0  0  0  0  0  0
    4.8362   -3.2993   -0.7147 O   0  0  0  0  0  0  0  0  0  0  0  0
    6.7498    0.4128   -0.3553 O   0  0  0  0  0  0  0  0  0  0  0  0
    0.5682    0.8974   -0.4974 H   0  0  0  0  0  0  0  0  0  0  0  0
    0.7265   -0.1550    0.9118 H   0  0  0  0  0  0  0  0  0  0  0  0
    0.6954   -0.8569   -0.7074 H   0  0  0  0  0  0  0  0  0  0  0  0
    7.4587   -1.9268    0.2191 H   0  0  0  0  0  0  0  0  0  0  0  0
    7.3818   -1.7237   -1.5199 H   0  0  0  0  0  0  0  0  0  0  0  0
    7.2928   -3.3741   -0.8265 H   0  0  0  0  0  0  0  0  0  0  0  0
    2.6169    2.2573    0.0261 H   0  0  0  0  0  0  0  0  0  0  0  0
    5.0729    2.4251   -0.0610 H   0  0  0  0  0  0  0  0  0  0  0  0
    2.9275   -1.9999   -0.4719 H   0  0  0  0  0  0  0  0  0  0  0  0
    6.9904    1.3481   -0.2625 H   0  0  0  0  0  0  0  0  0  0  0  0
  1 13  1  0  0  0  0
  2  7  1  0  0  0  0
  2 15  1  0  0  0  0
  3 18  1  0  0  0  0
  4  3  1  0  0  0  0
  4 19  1  0  0  0  0
  5  6  1  0  0  0  0
  6  1  1  0  0  0  0
  6  3  2  0  0  0  0
  7  8  1  0  0  0  0
  8  5  2  0  0  0  0
  8  9  1  0  0  0  0
  9  4  2  0  0  0  0
 10  7  2  0  0  0  0
 11  9  1  0  0  0  0
 11 21  1  0  0  0  0
 12  1  1  0  0  0  0
 14  1  1  0  0  0  0
 16  2  1  0  0  0  0
 17  2  1  0  0  0  0
 20  5  1  0  0  0  0
M  END
>  <HBA>
2

>  <HBD>
1

>  <TPSA>
37.3

>  <cid>
15068

>  <dipole>
4.4

>  <excitation_energy_1>
3.788

>  <excitation_energy_2>
4.214

>  <excitation_energy_3>
5.171

>  <excitation_energy_4>
5.198

>  <homo_energy>
-6.15

>  <homo_lumo_gap>
4.898

>  <logP>
1.903

>  <lumo_energy>
-1.252

>  <melting_point>
84.03

>  <molecular_refractivity>
43.63

>  <oscillator_strength_1>
0.0001

>  <oscillator_strength_2>
0.0728

>  <oscillator_strength_3>
0.1525

>  <oscillator_strength_4>
0.0003

>  <open_babel_can_smiles>
Cc1ccc(c(c1)C(=O)C)O

>  <mulliken_charges>
21
1   -0.529105
2   -0.515788
3   -0.17753
4   -0.187914
5   -0.23991
6   0.185186
7   0.408388
8   0.059573
9   0.278639
10   -0.459182
11   -0.645463
12   0.153658
13   0.166303
14   0.164425
15   0.173331
16   0.173287
17   0.166521
18   0.130499
19   0.120407
20   0.162156
21   0.412521

>  <lowdin_charges>
21
1   -0.44161
2   -0.471535
3   -0.140373
4   -0.213503
5   -0.127698
6   -0.017278
7   0.169902
8   -0.083169
9   0.108231
10   -0.25474
11   -0.369421
12   0.156895
13   0.160754
14   0.162857
15   0.173214
16   0.173681
17   0.165384
18   0.159453
19   0.153925
20   0.176787
21   0.358244

$$$$

