PCCDB-ID:  15507
public computational chemistry database (PCCDB) project, http://pccdb.org

 27 27  0  0  1  0  0  0  0  0999 V2000
    0.8530   -0.0654   -0.0675 C   0  0  0  0  0  0  0  0  0  0  0  0
    5.0041    2.5814    1.4794 C   0  0  0  0  0  0  0  0  0  0  0  0
    2.2318    1.4656    2.2219 C   0  0  0  0  0  0  0  0  0  0  0  0
    4.4888   -1.2325    0.7802 C   0  0  0  0  0  0  0  0  0  0  0  0
    2.9551   -1.2661    0.7119 C   0  0  0  0  0  0  0  0  0  0  0  0
    4.9980    0.0377    1.4774 C   0  0  0  0  0  0  0  0  0  0  0  0
    2.3782    0.0159    0.0811 C   0  0  2  0  0  0  0  0  0  0  0  0
    4.4168    1.3152    0.8417 C   0  0  1  0  0  0  0  0  0  0  0  0
    2.8622    1.2908    0.8283 C   0  0  2  0  0  0  0  0  0  0  0  0
    0.5740   -0.8810   -0.7455 H   0  0  0  0  0  0  0  0  0  0  0  0
    0.4400    0.8648   -0.4775 H   0  0  0  0  0  0  0  0  0  0  0  0
    0.3583   -0.2569    0.8917 H   0  0  0  0  0  0  0  0  0  0  0  0
    6.0873    2.6302    1.3152 H   0  0  0  0  0  0  0  0  0  0  0  0
    4.8378    2.6085    2.5626 H   0  0  0  0  0  0  0  0  0  0  0  0
    4.5608    3.4888    1.0503 H   0  0  0  0  0  0  0  0  0  0  0  0
    1.1397    1.5047    2.1567 H   0  0  0  0  0  0  0  0  0  0  0  0
    2.5587    2.4023    2.6849 H   0  0  0  0  0  0  0  0  0  0  0  0
    2.4905    0.6522    2.9089 H   0  0  0  0  0  0  0  0  0  0  0  0
    4.8939   -1.2664   -0.2421 H   0  0  0  0  0  0  0  0  0  0  0  0
    4.8669   -2.1263    1.2932 H   0  0  0  0  0  0  0  0  0  0  0  0
    2.5432   -1.3972    1.7232 H   0  0  0  0  0  0  0  0  0  0  0  0
    2.6239   -2.1394    0.1337 H   0  0  0  0  0  0  0  0  0  0  0  0
    6.0950    0.0744    1.4367 H   0  0  0  0  0  0  0  0  0  0  0  0
    4.7339    0.0037    2.5444 H   0  0  0  0  0  0  0  0  0  0  0  0
    2.7978    0.0869   -0.9355 H   0  0  0  0  0  0  0  0  0  0  0  0
    4.7262    1.3136   -0.2162 H   0  0  0  0  0  0  0  0  0  0  0  0
    2.5365    2.1539    0.2263 H   0  0  0  0  0  0  0  0  0  0  0  0
  1  7  1  0  0  0  0
  1 12  1  0  0  0  0
  2 14  1  0  0  0  0
  3 17  1  0  0  0  0
  3 18  1  0  0  0  0
  4 20  1  0  0  0  0
  4  6  1  0  0  0  0
  5  4  1  0  0  0  0
  5 21  1  0  0  0  0
  6 24  1  0  0  0  0
  7 25  1  6  0  0  0
  7  5  1  0  0  0  0
  7  9  1  0  0  0  0
  8 26  1  6  0  0  0
  8  6  1  0  0  0  0
  8  2  1  0  0  0  0
  9 27  1  6  0  0  0
  9  8  1  0  0  0  0
  9  3  1  0  0  0  0
 10  1  1  0  0  0  0
 11  1  1  0  0  0  0
 13  2  1  0  0  0  0
 15  2  1  0  0  0  0
 16  3  1  0  0  0  0
 19  4  1  0  0  0  0
 22  5  1  0  0  0  0
 23  6  1  0  0  0  0
M  END
>  <HBA>
0

>  <HBD>
0

>  <TPSA>
0.0

>  <cid>
15507

>  <dipole>
0.09

>  <excitation_energy_1>
7.137

>  <excitation_energy_2>
7.175

>  <excitation_energy_3>
7.498

>  <excitation_energy_4>
7.542

>  <homo_energy>
-7.687

>  <homo_lumo_gap>
9.788

>  <logP>
3.079

>  <lumo_energy>
2.101

>  <melting_point>
-5.98

>  <molecular_refractivity>
43.26

>  <oscillator_strength_1>
0.0098

>  <oscillator_strength_2>
0.0269

>  <oscillator_strength_3>
0.0218

>  <oscillator_strength_4>
0.0001

>  <open_babel_can_smiles>
C[C@@H]1[C@H](C)CCC[C@@H]1C

>  <mulliken_charges>
27
1   -0.453576
2   -0.453893
3   -0.467095
4   -0.263947
5   -0.258451
6   -0.258348
7   -0.072005
8   -0.072204
9   -0.068961
10   0.138566
11   0.137571
12   0.142518
13   0.138629
14   0.142645
15   0.137619
16   0.145255
17   0.145326
18   0.143335
19   0.125808
20   0.127403
21   0.127354
22   0.12583
23   0.12576
24   0.127448
25   0.113501
26   0.113504
27   0.110408

>  <lowdin_charges>
27
1   -0.447632
2   -0.442982
3   -0.453305
4   -0.277097
5   -0.280026
6   -0.276077
7   -0.126086
8   -0.125878
9   -0.129365
10   0.148833
11   0.146945
12   0.146388
13   0.14625
14   0.144613
15   0.147001
16   0.149272
17   0.151488
18   0.146267
19   0.135632
20   0.142708
21   0.136479
22   0.142238
23   0.139375
24   0.135578
25   0.132505
26   0.131797
27   0.135077

$$$$

