PCCDB-ID:  69212
public computational chemistry database (PCCDB) project, http://pccdb.org

 16 16  0  0  0  0  0  0  0  0999 V2000
    0.8717   -0.1177    0.0588 C   0  0  0  0  0  0  0  0  0  0  0  0
    3.0318    1.1569    0.0593 C   0  0  0  0  0  0  0  0  0  0  0  0
    4.5066   -1.3233    0.0562 C   0  0  0  0  0  0  0  0  0  0  0  0
    2.3715   -0.0217    0.0587 C   0  0  0  0  0  0  0  0  0  0  0  0
    3.1497   -1.2815    0.0583 C   0  0  0  0  0  0  0  0  0  0  0  0
    4.5029    1.2403    0.0604 C   0  0  0  0  0  0  0  0  0  0  0  0
    5.2957   -0.0990    0.0546 C   0  0  0  0  0  0  0  0  0  0  0  0
    2.3655   -2.3860    0.0592 O   0  0  0  0  0  0  0  0  0  0  0  0
    5.0955    2.3048    0.0659 O   0  0  0  0  0  0  0  0  0  0  0  0
    6.5167   -0.0812    0.0489 O   0  0  0  0  0  0  0  0  0  0  0  0
    0.4214    0.8779    0.0544 H   0  0  0  0  0  0  0  0  0  0  0  0
    0.5137   -0.6640    0.9392 H   0  0  0  0  0  0  0  0  0  0  0  0
    0.5138   -0.6721   -0.8164 H   0  0  0  0  0  0  0  0  0  0  0  0
    2.4973    2.1027    0.0604 H   0  0  0  0  0  0  0  0  0  0  0  0
    5.0499   -2.2654    0.0554 H   0  0  0  0  0  0  0  0  0  0  0  0
    2.9285   -3.1784    0.0588 H   0  0  0  0  0  0  0  0  0  0  0  0
  1 12  1  0  0  0  0
  2  6  1  0  0  0  0
  2 14  1  0  0  0  0
  3  5  2  0  0  0  0
  4  1  1  0  0  0  0
  4  2  2  0  0  0  0
  5  4  1  0  0  0  0
  5  8  1  0  0  0  0
  6  9  2  0  0  0  0
  7  3  1  0  0  0  0
  7  6  1  0  0  0  0
 10  7  2  0  0  0  0
 11  1  1  0  0  0  0
 13  1  1  0  0  0  0
 15  3  1  0  0  0  0
 16  8  1  0  0  0  0
M  END
>  <HBA>
3

>  <HBD>
1

>  <TPSA>
54.37

>  <cid>
69212

>  <dipole>
6.25

>  <excitation_energy_1>
2.001

>  <excitation_energy_2>
2.975

>  <excitation_energy_3>
3.232

>  <excitation_energy_4>
4.78

>  <homo_energy>
-6.514

>  <homo_lumo_gap>
3.336

>  <logP>
0.526

>  <lumo_energy>
-3.178

>  <melting_point>
75.84

>  <molecular_refractivity>
34.67

>  <oscillator_strength_1>
0.0

>  <oscillator_strength_2>
0.0292

>  <oscillator_strength_3>
0.0

>  <oscillator_strength_4>
0.1551

>  <open_babel_can_smiles>
OC1=CC(=O)C(=O)C=C1C

>  <mulliken_charges>
16
1   -0.514304
2   -0.25944
3   -0.283216
4   0.163561
5   0.346635
6   0.394754
7   0.388903
8   -0.616345
9   -0.429885
10   -0.451284
11   0.168854
12   0.182788
13   0.182779
14   0.15808
15   0.14347
16   0.42465

>  <lowdin_charges>
16
1   -0.437017
2   -0.188191
3   -0.265486
4   0.021072
5   0.122211
6   0.12438
7   0.114661
8   -0.342298
9   -0.180923
10   -0.202139
11   0.165764
12   0.17538
13   0.175388
14   0.176409
15   0.170686
16   0.370104

$$$$

