PCCDB-ID:  12053
public computational chemistry database (PCCDB) project, http://pccdb.org

 22 22  0  0  0  0  0  0  0  0999 V2000
    3.5786    0.6577    0.8657 C   0  0  0  0  0  0  0  0  0  0  0  0
    2.1953    0.7916   -1.2604 C   0  0  0  0  0  0  0  0  0  0  0  0
    3.7629   -4.0529   -1.0606 C   0  0  0  0  0  0  0  0  0  0  0  0
    2.6192   -3.8573   -0.2874 C   0  0  0  0  0  0  0  0  0  0  0  0
    4.4977   -2.9448   -1.4874 C   0  0  0  0  0  0  0  0  0  0  0  0
    2.2087   -2.5674    0.0573 C   0  0  0  0  0  0  0  0  0  0  0  0
    4.0877   -1.6577   -1.1422 C   0  0  0  0  0  0  0  0  0  0  0  0
    2.9379   -1.4503   -0.3657 C   0  0  0  0  0  0  0  0  0  0  0  0
    2.5025   -0.0310    0.0050 C   0  0  0  0  0  0  0  0  0  0  0  0
    1.2999   -0.1558    0.7790 O   0  0  0  0  0  0  0  0  0  0  0  0
    4.5330    0.7416    0.3359 H   0  0  0  0  0  0  0  0  0  0  0  0
    3.7415    0.0878    1.7853 H   0  0  0  0  0  0  0  0  0  0  0  0
    3.2577    1.6727    1.1364 H   0  0  0  0  0  0  0  0  0  0  0  0
    3.0729    0.8898   -1.9073 H   0  0  0  0  0  0  0  0  0  0  0  0
    1.8693    1.8039   -0.9860 H   0  0  0  0  0  0  0  0  0  0  0  0
    1.3950    0.3118   -1.8316 H   0  0  0  0  0  0  0  0  0  0  0  0
    4.0809   -5.0571   -1.3283 H   0  0  0  0  0  0  0  0  0  0  0  0
    2.0381   -4.7118    0.0507 H   0  0  0  0  0  0  0  0  0  0  0  0
    5.3919   -3.0813   -2.0902 H   0  0  0  0  0  0  0  0  0  0  0  0
    1.3191   -2.4192    0.6574 H   0  0  0  0  0  0  0  0  0  0  0  0
    4.6738   -0.8080   -1.4841 H   0  0  0  0  0  0  0  0  0  0  0  0
    1.0251    0.7422    1.0204 H   0  0  0  0  0  0  0  0  0  0  0  0
  1 13  1  0  0  0  0
  1 12  1  0  0  0  0
  2 15  1  0  0  0  0
  2  9  1  0  0  0  0
  3  4  2  0  0  0  0
  4 18  1  0  0  0  0
  4  6  1  0  0  0  0
  5  7  2  0  0  0  0
  5  3  1  0  0  0  0
  6 20  1  0  0  0  0
  7  8  1  0  0  0  0
  8  9  1  0  0  0  0
  8  6  2  0  0  0  0
  9 10  1  0  0  0  0
  9  1  1  0  0  0  0
 10 22  1  0  0  0  0
 11  1  1  0  0  0  0
 14  2  1  0  0  0  0
 16  2  1  0  0  0  0
 17  3  1  0  0  0  0
 19  5  1  0  0  0  0
 21  7  1  0  0  0  0
M  END
>  <HBA>
1

>  <HBD>
1

>  <TPSA>
20.23

>  <cid>
12053

>  <dipole>
1.6

>  <excitation_energy_1>
5.334

>  <excitation_energy_2>
5.819

>  <excitation_energy_3>
5.936

>  <excitation_energy_4>
6.006

>  <homo_energy>
-6.387

>  <homo_lumo_gap>
6.542

>  <logP>
1.914

>  <lumo_energy>
0.155

>  <melting_point>
31.39

>  <molecular_refractivity>
42.07

>  <oscillator_strength_1>
0.0003

>  <oscillator_strength_2>
0.0041

>  <oscillator_strength_3>
0.0318

>  <oscillator_strength_4>
0.0016

>  <open_babel_can_smiles>
CC(c1ccccc1)(O)C

>  <mulliken_charges>
22
1   -0.451765
2   -0.451624
3   -0.127291
4   -0.13164
5   -0.135679
6   -0.172724
7   -0.181802
8   0.124697
9   0.258954
10   -0.64861
11   0.146167
12   0.164181
13   0.127536
14   0.145861
15   0.12749
16   0.164288
17   0.125281
18   0.126562
19   0.125372
20   0.15659
21   0.119986
22   0.388167

>  <lowdin_charges>
22
1   -0.452763
2   -0.454225
3   -0.16115
4   -0.157386
5   -0.15697
6   -0.160111
7   -0.170098
8   -0.008499
9   0.128041
10   -0.455655
11   0.15366
12   0.16181
13   0.141314
14   0.153946
15   0.141445
16   0.162762
17   0.155088
18   0.156836
19   0.155448
20   0.172545
21   0.152786
22   0.341174

$$$$

