PCCDB-ID:  34872
public computational chemistry database (PCCDB) project, http://pccdb.org

 33 33  0  0  1  0  0  0  0  0999 V2000
    0.5405    0.2988    0.3774 C   0  0  0  0  0  0  0  0  0  0  0  0
    7.1374   -2.3078   -1.1266 C   0  0  0  0  0  0  0  0  0  0  0  0
    6.1842    1.8818    0.2012 C   0  0  0  0  0  0  0  0  0  0  0  0
    2.3747    2.0505    0.3087 C   0  0  0  0  0  0  0  0  0  0  0  0
    3.7225    2.4053    0.2545 C   0  0  0  0  0  0  0  0  0  0  0  0
    3.0094   -0.2605    0.3198 C   0  0  0  0  0  0  0  0  0  0  0  0
    5.4097   -1.0239    0.2305 C   0  0  0  0  0  0  0  0  0  0  0  0
    4.7434   -2.1141   -2.0159 C   0  0  0  0  0  0  0  0  0  0  0  0
    1.9954    0.7064    0.3399 C   0  0  0  0  0  0  0  0  0  0  0  0
    5.8738   -1.4362   -1.1918 C   0  0  2  0  0  0  0  0  0  0  0  0
    4.7364    1.4420    0.2285 C   0  0  0  0  0  0  0  0  0  0  0  0
    4.3669    0.0785    0.2598 C   0  0  0  0  0  0  0  0  0  0  0  0
    4.2976   -3.4512   -1.4391 C   0  0  0  0  0  0  0  0  0  0  0  0
    3.4664   -3.5773   -0.5714 O   0  0  0  0  0  0  0  0  0  0  0  0
    4.9239   -4.5600   -1.9257 O   0  0  0  0  0  0  0  0  0  0  0  0
   -0.0952    1.1162    0.7340 H   0  0  0  0  0  0  0  0  0  0  0  0
    0.3829   -0.5648    1.0328 H   0  0  0  0  0  0  0  0  0  0  0  0
    0.1788    0.0141   -0.6199 H   0  0  0  0  0  0  0  0  0  0  0  0
    7.9581   -1.7647   -0.6456 H   0  0  0  0  0  0  0  0  0  0  0  0
    7.4809   -2.5949   -2.1297 H   0  0  0  0  0  0  0  0  0  0  0  0
    6.9675   -3.2255   -0.5514 H   0  0  0  0  0  0  0  0  0  0  0  0
    6.2569    2.9730    0.1588 H   0  0  0  0  0  0  0  0  0  0  0  0
    6.7282    1.4836   -0.6645 H   0  0  0  0  0  0  0  0  0  0  0  0
    6.7289    1.5519    1.0958 H   0  0  0  0  0  0  0  0  0  0  0  0
    1.6142    2.8282    0.3316 H   0  0  0  0  0  0  0  0  0  0  0  0
    3.9954    3.4585    0.2423 H   0  0  0  0  0  0  0  0  0  0  0  0
    2.7402   -1.3144    0.3493 H   0  0  0  0  0  0  0  0  0  0  0  0
    6.2995   -0.7094    0.7891 H   0  0  0  0  0  0  0  0  0  0  0  0
    5.0194   -1.9099    0.7430 H   0  0  0  0  0  0  0  0  0  0  0  0
    5.0840   -2.2401   -3.0524 H   0  0  0  0  0  0  0  0  0  0  0  0
    3.8676   -1.4604   -2.0335 H   0  0  0  0  0  0  0  0  0  0  0  0
    6.1234   -0.5200   -1.7435 H   0  0  0  0  0  0  0  0  0  0  0  0
    5.5657   -4.3041   -2.6073 H   0  0  0  0  0  0  0  0  0  0  0  0
  1 16  1  0  0  0  0
  1 17  1  0  0  0  0
  2 19  1  0  0  0  0
  2 21  1  0  0  0  0
  3 11  1  0  0  0  0
  3 24  1  0  0  0  0
  4 25  1  0  0  0  0
  4  9  2  0  0  0  0
  5  4  1  0  0  0  0
  6  9  1  0  0  0  0
  6 27  1  0  0  0  0
  7 12  1  0  0  0  0
  7 29  1  0  0  0  0
  7 28  1  0  0  0  0
  8 13  1  0  0  0  0
  8 10  1  0  0  0  0
  9  1  1  0  0  0  0
 10 32  1  6  0  0  0
 10  2  1  0  0  0  0
 10  7  1  0  0  0  0
 11  5  2  0  0  0  0
 11 12  1  0  0  0  0
 12  6  2  0  0  0  0
 13 14  2  0  0  0  0
 15 13  1  0  0  0  0
 18  1  1  0  0  0  0
 20  2  1  0  0  0  0
 22  3  1  0  0  0  0
 23  3  1  0  0  0  0
 26  5  1  0  0  0  0
 30  8  1  0  0  0  0
 31  8  1  0  0  0  0
 33 15  1  0  0  0  0
M  END
>  <HBA>
2

>  <HBD>
1

>  <TPSA>
37.3

>  <cid>
34872

>  <dipole>
3.96

>  <excitation_energy_1>
5.078

>  <excitation_energy_2>
5.17

>  <excitation_energy_3>
5.404

>  <excitation_energy_4>
5.546

>  <homo_energy>
-6.074

>  <homo_lumo_gap>
6.123

>  <logP>
2.957

>  <lumo_energy>
0.049

>  <melting_point>
91.33

>  <molecular_refractivity>
62.34

>  <oscillator_strength_1>
0.0035

>  <oscillator_strength_2>
0.0025

>  <oscillator_strength_3>
0.0121

>  <oscillator_strength_4>
0.0013

>  <open_babel_can_smiles>
C[C@@H](CC(=O)O)Cc1cc(C)ccc1C

>  <mulliken_charges>
33
1   -0.527571
2   -0.471663
3   -0.542522
4   -0.179981
5   -0.185914
6   -0.264776
7   -0.354521
8   -0.375853
9   0.179505
10   -0.078777
11   0.131493
12   0.104372
13   0.590713
14   -0.438243
15   -0.562359
16   0.151023
17   0.163104
18   0.161654
19   0.156157
20   0.129891
21   0.164676
22   0.155198
23   0.154313
24   0.161438
25   0.116513
26   0.116346
27   0.160172
28   0.138781
29   0.168615
30   0.134178
31   0.191139
32   0.143592
33   0.409306

>  <lowdin_charges>
33
1   -0.442745
2   -0.455566
3   -0.443939
4   -0.173551
5   -0.166333
6   -0.179528
7   -0.281491
8   -0.318598
9   -0.002568
10   -0.113885
11   -0.016094
12   -0.016442
13   0.194948
14   -0.245357
15   -0.356629
16   0.155732
17   0.161703
18   0.159554
19   0.157868
20   0.141212
21   0.15646
22   0.155152
23   0.153658
24   0.158185
25   0.153213
26   0.149986
27   0.16685
28   0.151412
29   0.163445
30   0.14646
31   0.181966
32   0.146776
33   0.358147

$$$$

