PCCDB-ID:  13561
public computational chemistry database (PCCDB) project, http://pccdb.org

 34 33  0  0  0  0  0  0  0  0999 V2000
    2.9897   -0.7369   -3.0056 C   0  0  0  0  0  0  0  0  0  0  0  0
   11.2633    2.8419    1.3823 C   0  0  0  0  0  0  0  0  0  0  0  0
    4.3220   -1.4857   -2.8786 C   0  0  0  0  0  0  0  0  0  0  0  0
   10.6199    4.0196    2.1241 C   0  0  0  0  0  0  0  0  0  0  0  0
    5.0794   -1.2217   -1.5666 C   0  0  0  0  0  0  0  0  0  0  0  0
    9.1887    3.7907    2.6436 C   0  0  0  0  0  0  0  0  0  0  0  0
    5.5821    0.2189   -1.4030 C   0  0  0  0  0  0  0  0  0  0  0  0
    8.1099    3.5483    1.5653 C   0  0  0  0  0  0  0  0  0  0  0  0
    6.3856    0.4212   -0.1163 C   0  0  0  0  0  0  0  0  0  0  0  0
    7.8803    2.0757    1.2079 C   0  0  0  0  0  0  0  0  0  0  0  0
    6.8369    1.8609    0.1161 C   0  0  0  0  0  0  0  0  0  0  0  0
    6.3859    2.7870   -0.5332 O   0  0  0  0  0  0  0  0  0  0  0  0
    2.4766   -1.0048   -3.9364 H   0  0  0  0  0  0  0  0  0  0  0  0
    3.1289    0.3497   -3.0086 H   0  0  0  0  0  0  0  0  0  0  0  0
    2.3180   -0.9844   -2.1738 H   0  0  0  0  0  0  0  0  0  0  0  0
   12.3088    3.0612    1.1362 H   0  0  0  0  0  0  0  0  0  0  0  0
   10.7485    2.6225    0.4402 H   0  0  0  0  0  0  0  0  0  0  0  0
   11.2515    1.9298    1.9925 H   0  0  0  0  0  0  0  0  0  0  0  0
    4.9705   -1.2251   -3.7274 H   0  0  0  0  0  0  0  0  0  0  0  0
    4.1327   -2.5645   -2.9617 H   0  0  0  0  0  0  0  0  0  0  0  0
   10.6180    4.8997    1.4653 H   0  0  0  0  0  0  0  0  0  0  0  0
   11.2547    4.2851    2.9804 H   0  0  0  0  0  0  0  0  0  0  0  0
    5.9365   -1.9083   -1.5117 H   0  0  0  0  0  0  0  0  0  0  0  0
    4.4294   -1.4808   -0.7166 H   0  0  0  0  0  0  0  0  0  0  0  0
    8.9061    4.6797    3.2223 H   0  0  0  0  0  0  0  0  0  0  0  0
    9.1893    2.9574    3.3626 H   0  0  0  0  0  0  0  0  0  0  0  0
    4.7464    0.9259   -1.4079 H   0  0  0  0  0  0  0  0  0  0  0  0
    6.2086    0.4912   -2.2634 H   0  0  0  0  0  0  0  0  0  0  0  0
    8.3555    4.1066    0.6537 H   0  0  0  0  0  0  0  0  0  0  0  0
    7.1529    3.9598    1.9077 H   0  0  0  0  0  0  0  0  0  0  0  0
    7.2663   -0.2370   -0.0898 H   0  0  0  0  0  0  0  0  0  0  0  0
    5.7854    0.1275    0.7603 H   0  0  0  0  0  0  0  0  0  0  0  0
    7.5792    1.5012    2.0971 H   0  0  0  0  0  0  0  0  0  0  0  0
    8.8078    1.5953    0.8654 H   0  0  0  0  0  0  0  0  0  0  0  0
  1  3  1  0  0  0  0
  1 15  1  0  0  0  0
  2 18  1  0  0  0  0
  2  4  1  0  0  0  0
  3  5  1  0  0  0  0
  4  6  1  0  0  0  0
  4 22  1  0  0  0  0
  5 23  1  0  0  0  0
  5  7  1  0  0  0  0
  5 24  1  0  0  0  0
  6 25  1  0  0  0  0
  6 26  1  0  0  0  0
  7  9  1  0  0  0  0
  8 30  1  0  0  0  0
  8  6  1  0  0  0  0
  9 31  1  0  0  0  0
  9 11  1  0  0  0  0
  9 32  1  0  0  0  0
 10  8  1  0  0  0  0
 10 33  1  0  0  0  0
 11 10  1  0  0  0  0
 12 11  2  0  0  0  0
 13  1  1  0  0  0  0
 14  1  1  0  0  0  0
 16  2  1  0  0  0  0
 17  2  1  0  0  0  0
 19  3  1  0  0  0  0
 20  3  1  0  0  0  0
 21  4  1  0  0  0  0
 27  7  1  0  0  0  0
 28  7  1  0  0  0  0
 29  8  1  0  0  0  0
 34 10  1  0  0  0  0
M  END
>  <HBA>
1

>  <HBD>
0

>  <TPSA>
17.07

>  <cid>
13561

>  <dipole>
2.4

>  <excitation_energy_1>
4.428

>  <excitation_energy_2>
6.033

>  <excitation_energy_3>
6.479

>  <excitation_energy_4>
6.579

>  <homo_energy>
-6.509

>  <homo_lumo_gap>
6.327

>  <logP>
3.716

>  <lumo_energy>
-0.182

>  <melting_point>
-8.49

>  <molecular_refractivity>
55.19

>  <oscillator_strength_1>
0.0

>  <oscillator_strength_2>
0.0122

>  <oscillator_strength_3>
0.0028

>  <oscillator_strength_4>
0.0033

>  <open_babel_can_smiles>
CCCCCC(=O)CCCCC

>  <mulliken_charges>
34
1   -0.444985
2   -0.444006
3   -0.248731
4   -0.248374
5   -0.252291
6   -0.259571
7   -0.247119
8   -0.248875
9   -0.359297
10   -0.363403
11   0.455186
12   -0.45091
13   0.142243
14   0.152126
15   0.139501
16   0.143969
17   0.146686
18   0.138468
19   0.131233
20   0.129981
21   0.134549
22   0.131236
23   0.124382
24   0.124415
25   0.133068
26   0.124002
27   0.158432
28   0.138966
29   0.153144
30   0.14286
31   0.148685
32   0.158907
33   0.150286
34   0.16524

>  <lowdin_charges>
34
1   -0.446555
2   -0.447832
3   -0.271455
4   -0.273419
5   -0.277398
6   -0.279459
7   -0.274358
8   -0.27464
9   -0.311108
10   -0.316336
11   0.16544
12   -0.239601
13   0.150133
14   0.148291
15   0.145988
16   0.149528
17   0.146542
18   0.144446
19   0.14017
20   0.139525
21   0.140797
22   0.14221
23   0.138511
24   0.13665
25   0.145872
26   0.136596
27   0.154929
28   0.146286
29   0.153338
30   0.150139
31   0.154551
32   0.162047
33   0.155822
34   0.164348

$$$$

