PCCDB-ID:  23902
public computational chemistry database (PCCDB) project, http://pccdb.org

 30 29  0  0  0  0  0  0  0  0999 V2000
    5.8846    2.9456    1.7824 C   0  0  0  0  0  0  0  0  0  0  0  0
    7.2021   -2.2419    5.5589 C   0  0  0  0  0  0  0  0  0  0  0  0
    6.1091    1.5825    1.1206 C   0  0  0  0  0  0  0  0  0  0  0  0
    7.6629   -3.1474    4.4093 C   0  0  0  0  0  0  0  0  0  0  0  0
    4.9817    0.5838    1.4107 C   0  0  0  0  0  0  0  0  0  0  0  0
    7.7091   -2.4652    3.0329 C   0  0  0  0  0  0  0  0  0  0  0  0
    5.1806   -0.7847    0.7459 C   0  0  0  0  0  0  0  0  0  0  0  0
    6.3373   -2.0331    2.5097 C   0  0  0  0  0  0  0  0  0  0  0  0
    6.7367   -2.5522    0.2550 N   0  0  0  0  0  0  0  0  0  0  0  0
    6.4090   -1.4833    1.1521 N   0  0  0  0  0  0  0  0  0  0  0  0
    6.7014    3.6397    1.5535 H   0  0  0  0  0  0  0  0  0  0  0  0
    5.8248    2.8523    2.8740 H   0  0  0  0  0  0  0  0  0  0  0  0
    4.9498    3.4071    1.4398 H   0  0  0  0  0  0  0  0  0  0  0  0
    7.2482   -2.7684    6.5193 H   0  0  0  0  0  0  0  0  0  0  0  0
    6.1693   -1.9000    5.4241 H   0  0  0  0  0  0  0  0  0  0  0  0
    7.8381   -1.3510    5.6376 H   0  0  0  0  0  0  0  0  0  0  0  0
    7.0605    1.1526    1.4540 H   0  0  0  0  0  0  0  0  0  0  0  0
    6.2000    1.7138    0.0325 H   0  0  0  0  0  0  0  0  0  0  0  0
    7.0091   -4.0301    4.3566 H   0  0  0  0  0  0  0  0  0  0  0  0
    8.6661   -3.5298    4.6403 H   0  0  0  0  0  0  0  0  0  0  0  0
    4.0258    0.9903    1.0502 H   0  0  0  0  0  0  0  0  0  0  0  0
    4.8624    0.4688    2.4965 H   0  0  0  0  0  0  0  0  0  0  0  0
    8.1494   -3.1478    2.2991 H   0  0  0  0  0  0  0  0  0  0  0  0
    8.3606   -1.5814    3.0766 H   0  0  0  0  0  0  0  0  0  0  0  0
    5.2562   -0.6312   -0.3384 H   0  0  0  0  0  0  0  0  0  0  0  0
    4.2864   -1.4207    0.9145 H   0  0  0  0  0  0  0  0  0  0  0  0
    5.9188   -1.2552    3.1557 H   0  0  0  0  0  0  0  0  0  0  0  0
    5.6323   -2.8894    2.5476 H   0  0  0  0  0  0  0  0  0  0  0  0
    7.1208   -2.1292   -0.5884 H   0  0  0  0  0  0  0  0  0  0  0  0
    5.8788   -3.0477   -0.0249 H   0  0  0  0  0  0  0  0  0  0  0  0
  1 12  1  0  0  0  0
  2 16  1  0  0  0  0
  2 14  1  0  0  0  0
  3  5  1  0  0  0  0
  3 17  1  0  0  0  0
  3  1  1  0  0  0  0
  4 20  1  0  0  0  0
  4  2  1  0  0  0  0
  5 22  1  0  0  0  0
  6 24  1  0  0  0  0
  6  4  1  0  0  0  0
  7 26  1  0  0  0  0
  7 10  1  0  0  0  0
  7  5  1  0  0  0  0
  8 28  1  0  0  0  0
  8  6  1  0  0  0  0
  8 27  1  0  0  0  0
  9 10  1  0  0  0  0
 10  8  1  0  0  0  0
 11  1  1  0  0  0  0
 13  1  1  0  0  0  0
 15  2  1  0  0  0  0
 18  3  1  0  0  0  0
 19  4  1  0  0  0  0
 21  5  1  0  0  0  0
 23  6  1  0  0  0  0
 25  7  1  0  0  0  0
 29  9  1  0  0  0  0
 30  9  1  0  0  0  0
M  END
>  <HBA>
2

>  <HBD>
1

>  <TPSA>
29.26

>  <cid>
23902

>  <dipole>
1.57

>  <excitation_energy_1>
5.377

>  <excitation_energy_2>
5.758

>  <excitation_energy_3>
5.912

>  <excitation_energy_4>
5.957

>  <homo_energy>
-5.853

>  <homo_lumo_gap>
7.965

>  <logP>
2.463

>  <lumo_energy>
2.112

>  <melting_point>
28.99

>  <molecular_refractivity>
46.17

>  <oscillator_strength_1>
0.043

>  <oscillator_strength_2>
0.0088

>  <oscillator_strength_3>
0.0188

>  <oscillator_strength_4>
0.037

>  <open_babel_can_smiles>
CCCCN(CCCC)N

>  <mulliken_charges>
30
1   -0.442647
2   -0.443711
3   -0.241208
4   -0.255457
5   -0.263946
6   -0.249405
7   -0.119727
8   -0.100667
9   -0.571633
10   -0.305632
11   0.142361
12   0.140593
13   0.138294
14   0.140353
15   0.141719
16   0.14076
17   0.155154
18   0.123792
19   0.128596
20   0.131681
21   0.12994
22   0.136655
23   0.160982
24   0.128349
25   0.12476
26   0.104495
27   0.138304
28   0.101056
29   0.310536
30   0.275652

>  <lowdin_charges>
30
1   -0.443605
2   -0.4472
3   -0.271944
4   -0.273561
5   -0.279696
6   -0.282744
7   -0.212372
8   -0.204896
9   -0.468703
10   -0.138881
11   0.150292
12   0.143721
13   0.14446
14   0.148373
15   0.143388
16   0.145991
17   0.150621
18   0.134683
19   0.137994
20   0.14199
21   0.143701
22   0.138692
23   0.158764
24   0.140453
25   0.135889
26   0.116346
27   0.144417
28   0.114364
29   0.257284
30   0.232178

$$$$

