PCCDB-ID:  41567
public computational chemistry database (PCCDB) project, http://pccdb.org

 23 23  0  0  0  0  0  0  0  0999 V2000
    0.2970   -0.0734    0.1858 C   0  0  0  0  0  0  0  0  0  0  0  0
    4.5206    2.7184   -0.2956 C   0  0  0  0  0  0  0  0  0  0  0  0
    2.3752    1.3677   -0.0895 C   0  0  0  0  0  0  0  0  0  0  0  0
    6.1536   -1.7387   -1.9224 C   0  0  0  0  0  0  0  0  0  0  0  0
    1.7514    0.1136   -0.1479 C   0  0  0  0  0  0  0  0  0  0  0  0
    3.7385    1.4361   -0.3615 C   0  0  0  0  0  0  0  0  0  0  0  0
    7.2618   -1.4301   -0.9077 C   0  0  0  0  0  0  0  0  0  0  0  0
    3.7355   -0.8226   -0.7594 C   0  0  0  0  0  0  0  0  0  0  0  0
    2.4359   -0.9837   -0.4973 N   0  0  0  0  0  0  0  0  0  0  0  0
    4.4267    0.3226   -0.6895 N   0  0  0  0  0  0  0  0  0  0  0  0
    8.2642   -2.1000   -0.8322 O   0  0  0  0  0  0  0  0  0  0  0  0
    7.0579   -0.3517   -0.1380 O   0  0  0  0  0  0  0  0  0  0  0  0
    4.5564   -2.3275   -1.2196 S   0  0  0  0  0  0  0  0  0  0  0  0
   -0.2395    0.8790    0.2120 H   0  0  0  0  0  0  0  0  0  0  0  0
    0.1995   -0.5515    1.1683 H   0  0  0  0  0  0  0  0  0  0  0  0
   -0.1741   -0.7381   -0.5439 H   0  0  0  0  0  0  0  0  0  0  0  0
    3.8896    3.5588    0.0042 H   0  0  0  0  0  0  0  0  0  0  0  0
    4.9648    2.9433   -1.2720 H   0  0  0  0  0  0  0  0  0  0  0  0
    5.3454    2.6247    0.4199 H   0  0  0  0  0  0  0  0  0  0  0  0
    1.8162    2.2585    0.1755 H   0  0  0  0  0  0  0  0  0  0  0  0
    6.4981   -2.5632   -2.5483 H   0  0  0  0  0  0  0  0  0  0  0  0
    5.9497   -0.8682   -2.5538 H   0  0  0  0  0  0  0  0  0  0  0  0
    6.1700    0.0428   -0.3473 H   0  0  0  0  0  0  0  0  0  0  0  0
  1 14  1  0  0  0  0
  1 15  1  0  0  0  0
  2 17  1  0  0  0  0
  2 19  1  0  0  0  0
  3 20  1  0  0  0  0
  4 13  1  0  0  0  0
  4  7  1  0  0  0  0
  5  3  2  0  0  0  0
  5  1  1  0  0  0  0
  6  2  1  0  0  0  0
  6  3  1  0  0  0  0
  7 11  2  0  0  0  0
  7 12  1  0  0  0  0
  8 10  1  0  0  0  0
  8  9  2  0  0  0  0
  9  5  1  0  0  0  0
 10  6  2  0  0  0  0
 13  8  1  0  0  0  0
 16  1  1  0  0  0  0
 18  2  1  0  0  0  0
 21  4  1  0  0  0  0
 22  4  1  0  0  0  0
 23 12  1  0  0  0  0
M  END
>  <HBA>
5

>  <HBD>
1

>  <TPSA>
88.38

>  <cid>
41567

>  <dipole>
7.56

>  <excitation_energy_1>
4.144

>  <excitation_energy_2>
4.597

>  <excitation_energy_3>
4.792

>  <excitation_energy_4>
5.053

>  <homo_energy>
-6.534

>  <homo_lumo_gap>
4.841

>  <logP>
1.27

>  <lumo_energy>
-1.693

>  <melting_point>
133.31

>  <molecular_refractivity>
50.26

>  <oscillator_strength_1>
0.0173

>  <oscillator_strength_2>
0.0037

>  <oscillator_strength_3>
0.1839

>  <oscillator_strength_4>
0.0075

>  <open_babel_can_smiles>
OC(=O)CSc1nc(C)cc(n1)C

>  <mulliken_charges>
23
1   -0.510951
2   -0.519921
3   -0.218982
4   -0.552799
5   0.317884
6   0.346834
7   0.597494
8   0.274908
9   -0.464184
10   -0.543916
11   -0.441338
12   -0.590424
13   0.20738
14   0.160786
15   0.188727
16   0.189238
17   0.167239
18   0.186428
19   0.193319
20   0.146862
21   0.216676
22   0.2037
23   0.44504

>  <lowdin_charges>
23
1   -0.445178
2   -0.446482
3   -0.222749
4   -0.423949
5   0.099258
6   0.096621
7   0.183948
8   -0.015715
9   -0.167396
10   -0.205853
11   -0.249102
12   -0.370503
13   0.222239
14   0.161357
15   0.179575
16   0.181066
17   0.165804
18   0.177614
19   0.181355
20   0.171918
21   0.196269
22   0.182329
23   0.347573

$$$$

