PCCDB-ID:  62410
public computational chemistry database (PCCDB) project, http://pccdb.org

 27 27  0  0  0  0  0  0  0  0999 V2000
    6.5196   -5.9954   -0.8426 C   0  0  0  0  0  0  0  0  0  0  0  0
    4.1127   -4.9655   -5.4148 C   0  0  0  0  0  0  0  0  0  0  0  0
    5.6717   -5.4305   -1.9872 C   0  0  0  0  0  0  0  0  0  0  0  0
    5.0000   -4.0993   -1.6293 C   0  0  0  0  0  0  0  0  0  0  0  0
    6.5382   -2.1078   -6.1187 C   0  0  0  0  0  0  0  0  0  0  0  0
    6.5410   -1.4148   -4.9089 C   0  0  0  0  0  0  0  0  0  0  0  0
    5.7489   -3.2489   -6.2523 C   0  0  0  0  0  0  0  0  0  0  0  0
    4.1564   -3.4754   -2.7642 C   0  0  0  0  0  0  0  0  0  0  0  0
    5.7576   -1.8789   -3.8539 C   0  0  0  0  0  0  0  0  0  0  0  0
    4.9573   -3.7273   -5.1986 C   0  0  0  0  0  0  0  0  0  0  0  0
    4.9663   -3.0308   -3.9705 C   0  0  0  0  0  0  0  0  0  0  0  0
    6.9844   -6.9482   -1.1209 H   0  0  0  0  0  0  0  0  0  0  0  0
    5.9119   -6.1701    0.0541 H   0  0  0  0  0  0  0  0  0  0  0  0
    7.3228   -5.3012   -0.5664 H   0  0  0  0  0  0  0  0  0  0  0  0
    4.2471   -5.3518   -6.4300 H   0  0  0  0  0  0  0  0  0  0  0  0
    3.0429   -4.7605   -5.2809 H   0  0  0  0  0  0  0  0  0  0  0  0
    4.3734   -5.7706   -4.7180 H   0  0  0  0  0  0  0  0  0  0  0  0
    4.8991   -6.1626   -2.2636 H   0  0  0  0  0  0  0  0  0  0  0  0
    6.3012   -5.2933   -2.8761 H   0  0  0  0  0  0  0  0  0  0  0  0
    5.7710   -3.3793   -1.3204 H   0  0  0  0  0  0  0  0  0  0  0  0
    4.3505   -4.2476   -0.7547 H   0  0  0  0  0  0  0  0  0  0  0  0
    7.1411   -1.7625   -6.9544 H   0  0  0  0  0  0  0  0  0  0  0  0
    7.1426   -0.5178   -4.7875 H   0  0  0  0  0  0  0  0  0  0  0  0
    5.7418   -3.7861   -7.1983 H   0  0  0  0  0  0  0  0  0  0  0  0
    3.6308   -2.6021   -2.3553 H   0  0  0  0  0  0  0  0  0  0  0  0
    3.3773   -4.1856   -3.0617 H   0  0  0  0  0  0  0  0  0  0  0  0
    5.7530   -1.3336   -2.9119 H   0  0  0  0  0  0  0  0  0  0  0  0
  1 14  1  0  0  0  0
  1 13  1  0  0  0  0
  2 16  1  0  0  0  0
  2 10  1  0  0  0  0
  2 17  1  0  0  0  0
  3  4  1  0  0  0  0
  3  1  1  0  0  0  0
  4 20  1  0  0  0  0
  4 21  1  0  0  0  0
  5  6  1  0  0  0  0
  6 23  1  0  0  0  0
  6  9  2  0  0  0  0
  7  5  2  0  0  0  0
  7 10  1  0  0  0  0
  8 25  1  0  0  0  0
  8  4  1  0  0  0  0
  9 27  1  0  0  0  0
 10 11  2  0  0  0  0
 11  9  1  0  0  0  0
 11  8  1  0  0  0  0
 12  1  1  0  0  0  0
 15  2  1  0  0  0  0
 18  3  1  0  0  0  0
 19  3  1  0  0  0  0
 22  5  1  0  0  0  0
 24  7  1  0  0  0  0
 26  8  1  0  0  0  0
M  END
>  <HBA>
0

>  <HBD>
0

>  <TPSA>
0.0

>  <cid>
62410

>  <dipole>
0.46

>  <excitation_energy_1>
5.189

>  <excitation_energy_2>
5.72

>  <excitation_energy_3>
5.904

>  <excitation_energy_4>
6.074

>  <homo_energy>
-6.234

>  <homo_lumo_gap>
6.365

>  <logP>
3.338

>  <lumo_energy>
0.131

>  <melting_point>
10.0

>  <molecular_refractivity>
50.8

>  <oscillator_strength_1>
0.0031

>  <oscillator_strength_2>
0.0427

>  <oscillator_strength_3>
0.0071

>  <oscillator_strength_4>
0.0098

>  <open_babel_can_smiles>
CCCCc1ccccc1C

>  <mulliken_charges>
27
1   -0.442567
2   -0.541705
3   -0.251265
4   -0.242735
5   -0.127514
6   -0.12986
7   -0.184651
8   -0.3514
9   -0.182507
10   0.127403
11   0.120998
12   0.142017
13   0.140134
14   0.143094
15   0.15275
16   0.160523
17   0.164654
18   0.128049
19   0.14615
20   0.133193
21   0.127817
22   0.124281
23   0.124243
24   0.118375
25   0.142668
26   0.137799
27   0.120053

>  <lowdin_charges>
27
1   -0.444986
2   -0.445005
3   -0.278016
4   -0.272129
5   -0.162612
6   -0.161121
7   -0.168542
8   -0.27957
9   -0.165712
10   -0.009404
11   -0.011648
12   0.149432
13   0.145659
14   0.147942
15   0.155165
16   0.156511
17   0.160183
18   0.137402
19   0.147255
20   0.141125
21   0.139982
22   0.156355
23   0.155272
24   0.152124
25   0.152681
26   0.149498
27   0.152158

$$$$

