PCCDB-ID:  11696
public computational chemistry database (PCCDB) project, http://pccdb.org

 21 20  0  0  0  0  0  0  0  0999 V2000
    3.8841   -1.4548    0.2358 C   0  0  0  0  0  0  0  0  0  0  0  0
    3.4346   -0.0026    0.0437 C   0  0  0  0  0  0  0  0  0  0  0  0
    3.3120    2.4005    0.9005 C   0  0  0  0  0  0  0  0  0  0  0  0
    3.0689    0.4680    2.5498 C   0  0  0  0  0  0  0  0  0  0  0  0
    3.7235    0.9384    1.2290 C   0  0  0  0  0  0  0  0  0  0  0  0
    5.2417    0.9995    1.4162 N   0  0  0  0  0  0  0  0  0  0  0  0
    1.8954    2.5490    0.8100 O   0  0  0  0  0  0  0  0  0  0  0  0
    1.6834    0.2357    2.3785 O   0  0  0  0  0  0  0  0  0  0  0  0
    5.9016    1.3940    0.4558 O   0  0  0  0  0  0  0  0  0  0  0  0
    5.7130    0.6690    2.5002 O   0  0  0  0  0  0  0  0  0  0  0  0
    3.6776   -2.0300   -0.6727 H   0  0  0  0  0  0  0  0  0  0  0  0
    3.3486   -1.9345    1.0603 H   0  0  0  0  0  0  0  0  0  0  0  0
    4.9598   -1.5262    0.4321 H   0  0  0  0  0  0  0  0  0  0  0  0
    2.3502    0.0129   -0.1095 H   0  0  0  0  0  0  0  0  0  0  0  0
    3.9083    0.4216   -0.8485 H   0  0  0  0  0  0  0  0  0  0  0  0
    3.8102    2.7295   -0.0177 H   0  0  0  0  0  0  0  0  0  0  0  0
    3.6271    3.0578    1.7171 H   0  0  0  0  0  0  0  0  0  0  0  0
    3.2679    1.2103    3.3363 H   0  0  0  0  0  0  0  0  0  0  0  0
    3.5142   -0.4726    2.8761 H   0  0  0  0  0  0  0  0  0  0  0  0
    1.6117    2.2287   -0.0603 H   0  0  0  0  0  0  0  0  0  0  0  0
    1.3058    1.0770    2.0636 H   0  0  0  0  0  0  0  0  0  0  0  0
  1 13  1  0  0  0  0
  1 12  1  0  0  0  0
  2  1  1  0  0  0  0
  2  5  1  0  0  0  0
  3  5  1  0  0  0  0
  3 17  1  0  0  0  0
  4 19  1  0  0  0  0
  4 18  1  0  0  0  0
  5  6  1  0  0  0  0
  5  4  1  0  0  0  0
  6 10  2  0  0  0  0
  7  3  1  0  0  0  0
  8  4  1  0  0  0  0
  9  6  2  0  0  0  0
 11  1  1  0  0  0  0
 14  2  1  0  0  0  0
 15  2  1  0  0  0  0
 16  3  1  0  0  0  0
 20  7  1  0  0  0  0
 21  8  1  0  0  0  0
M  END
>  <HBA>
2

>  <HBD>
2

>  <TPSA>
86.28

>  <cid>
11696

>  <dipole>
3.21

>  <excitation_energy_1>
4.095

>  <excitation_energy_2>
4.269

>  <excitation_energy_3>
4.662

>  <excitation_energy_4>
5.284

>  <homo_energy>
-7.434

>  <homo_lumo_gap>
5.437

>  <logP>
-0.08

>  <lumo_energy>
-1.997

>  <melting_point>
53.12

>  <molecular_refractivity>
36.62

>  <oscillator_strength_1>
0.0001

>  <oscillator_strength_2>
0.0001

>  <oscillator_strength_3>
0.0028

>  <oscillator_strength_4>
0.0215

>  <open_babel_can_smiles>
CCC(N(=O)=O)(CO)CO

>  <mulliken_charges>
21
1   -0.465623
2   -0.269586
3   -0.060746
4   -0.033187
5   0.07546
6   0.456494
7   -0.614052
8   -0.631334
9   -0.375491
10   -0.370599
11   0.156378
12   0.172786
13   0.163571
14   0.150156
15   0.16217
16   0.173296
17   0.173084
18   0.140774
19   0.173377
20   0.412188
21   0.410884

>  <lowdin_charges>
21
1   -0.447393
2   -0.281341
3   -0.142308
4   -0.143517
5   0.007089
6   0.295089
7   -0.447545
8   -0.470291
9   -0.248322
10   -0.230221
11   0.1602
12   0.163198
13   0.154938
14   0.153521
15   0.157779
16   0.156861
17   0.161898
18   0.141313
19   0.162925
20   0.354147
21   0.34198

$$$$

