PCCDB-ID:  11532
public computational chemistry database (PCCDB) project, http://pccdb.org

 23 22  0  0  0  0  0  0  0  0999 V2000
    0.6513   -0.6845    0.2131 C   0  0  0  0  0  0  0  0  0  0  0  0
    2.1581   -0.4208    0.1310 C   0  0  0  0  0  0  0  0  0  0  0  0
    3.0049   -1.6419    0.5136 C   0  0  0  0  0  0  0  0  0  0  0  0
    4.5136   -1.3731    0.4385 C   0  0  0  0  0  0  0  0  0  0  0  0
    5.3351   -2.5964    0.8145 C   0  0  0  0  0  0  0  0  0  0  0  0
    7.6637   -3.1241    0.9991 C   0  0  0  0  0  0  0  0  0  0  0  0
    8.9285   -2.9300    0.9535 N   0  0  0  0  0  0  0  0  0  0  0  0
    7.2040   -4.3488    1.3606 O   0  0  0  0  0  0  0  0  0  0  0  0
    9.2325   -1.5974    0.5581 O   0  0  0  0  0  0  0  0  0  0  0  0
    6.7268   -2.2186    0.7187 O   0  0  0  0  0  0  0  0  0  0  0  0
    0.0749    0.2040   -0.0682 H   0  0  0  0  0  0  0  0  0  0  0  0
    0.3530   -0.9670    1.2303 H   0  0  0  0  0  0  0  0  0  0  0  0
    0.3540   -1.5005   -0.4571 H   0  0  0  0  0  0  0  0  0  0  0  0
    2.4206    0.4202    0.7879 H   0  0  0  0  0  0  0  0  0  0  0  0
    2.4213   -0.1046   -0.8880 H   0  0  0  0  0  0  0  0  0  0  0  0
    2.7459   -2.4819   -0.1479 H   0  0  0  0  0  0  0  0  0  0  0  0
    2.7376   -1.9623    1.5315 H   0  0  0  0  0  0  0  0  0  0  0  0
    4.7844   -0.5472    1.1085 H   0  0  0  0  0  0  0  0  0  0  0  0
    4.7915   -1.0589   -0.5757 H   0  0  0  0  0  0  0  0  0  0  0  0
    5.1386   -3.4349    0.1371 H   0  0  0  0  0  0  0  0  0  0  0  0
    5.1175   -2.9264    1.8365 H   0  0  0  0  0  0  0  0  0  0  0  0
    7.9966   -4.8871    1.5334 H   0  0  0  0  0  0  0  0  0  0  0  0
   10.2010   -1.6167    0.5797 H   0  0  0  0  0  0  0  0  0  0  0  0
  1 12  1  0  0  0  0
  2  1  1  0  0  0  0
  2  3  1  0  0  0  0
  2 14  1  0  0  0  0
  3 17  1  0  0  0  0
  4  3  1  0  0  0  0
  4  5  1  0  0  0  0
  4 18  1  0  0  0  0
  5 21  1  0  0  0  0
  6  8  1  0  0  0  0
  7  6  2  0  0  0  0
  8 22  1  0  0  0  0
  9 23  1  0  0  0  0
  9  7  1  0  0  0  0
 10  5  1  0  0  0  0
 10  6  1  0  0  0  0
 11  1  1  0  0  0  0
 13  1  1  0  0  0  0
 15  2  1  0  0  0  0
 16  3  1  0  0  0  0
 19  4  1  0  0  0  0
 20  5  1  0  0  0  0
M  END
>  <HBA>
4

>  <HBD>
2

>  <TPSA>
58.56

>  <cid>
11532

>  <dipole>
1.62

>  <excitation_energy_1>
5.161

>  <excitation_energy_2>
5.486

>  <excitation_energy_3>
6.018

>  <excitation_energy_4>
6.27

>  <homo_energy>
-5.644

>  <homo_lumo_gap>
7.287

>  <logP>
1.683

>  <lumo_energy>
1.644

>  <melting_point>
77.3

>  <molecular_refractivity>
36.16

>  <oscillator_strength_1>
0.0013

>  <oscillator_strength_2>
0.0006

>  <oscillator_strength_3>
0.0

>  <oscillator_strength_4>
0.0

>  <open_babel_can_smiles>
CCCCCO/C(=N\O)/O

>  <mulliken_charges>
23
1   -0.442715
2   -0.246713
3   -0.259277
4   -0.27855
5   -0.027919
6   0.782032
7   -0.354518
8   -0.609024
9   -0.513294
10   -0.465212
11   0.1451
12   0.142663
13   0.142626
14   0.13522
15   0.135169
16   0.131915
17   0.131979
18   0.153008
19   0.152665
20   0.154484
21   0.154317
22   0.425319
23   0.410723

>  <lowdin_charges>
23
1   -0.445131
2   -0.270263
3   -0.274629
4   -0.280824
5   -0.116714
6   0.170153
7   -0.180016
8   -0.369087
9   -0.389045
10   -0.175485
11   0.151742
12   0.146268
13   0.147726
14   0.142096
15   0.140639
16   0.140216
17   0.138861
18   0.153279
19   0.151615
20   0.148781
21   0.147206
22   0.373136
23   0.349475

$$$$

