PCCDB-ID:  47475
public computational chemistry database (PCCDB) project, http://pccdb.org

 28 27  0  0  0  0  0  0  0  0999 V2000
    3.8266    0.4548   -1.3614 C   0  0  0  0  0  0  0  0  0  0  0  0
    8.3852    0.4626    4.5131 C   0  0  0  0  0  0  0  0  0  0  0  0
    3.7509    1.1674   -0.0058 C   0  0  0  0  0  0  0  0  0  0  0  0
    7.1180    0.5475    3.6565 C   0  0  0  0  0  0  0  0  0  0  0  0
    2.8633    0.4557    1.0314 C   0  0  0  0  0  0  0  0  0  0  0  0
    3.3388   -0.9221    1.5321 C   0  0  0  0  0  0  0  0  0  0  0  0
    6.9701   -0.6525    2.7142 C   0  0  0  0  0  0  0  0  0  0  0  0
    4.5327   -0.9207    2.4965 C   0  0  0  0  0  0  0  0  0  0  0  0
    5.7933   -0.5555    1.8461 N   0  0  0  0  0  0  0  0  0  0  0  0
    4.4234    1.0329   -2.0766 H   0  0  0  0  0  0  0  0  0  0  0  0
    2.8289    0.3153   -1.7977 H   0  0  0  0  0  0  0  0  0  0  0  0
    4.2900   -0.5355   -1.2781 H   0  0  0  0  0  0  0  0  0  0  0  0
    8.4729    1.3270    5.1807 H   0  0  0  0  0  0  0  0  0  0  0  0
    9.2870    0.4330    3.8887 H   0  0  0  0  0  0  0  0  0  0  0  0
    8.3858   -0.4398    5.1370 H   0  0  0  0  0  0  0  0  0  0  0  0
    3.3477    2.1776   -0.1626 H   0  0  0  0  0  0  0  0  0  0  0  0
    4.7589    1.2834    0.4052 H   0  0  0  0  0  0  0  0  0  0  0  0
    7.1260    1.4623    3.0508 H   0  0  0  0  0  0  0  0  0  0  0  0
    6.2406    0.6173    4.3127 H   0  0  0  0  0  0  0  0  0  0  0  0
    1.8566    0.3342    0.6046 H   0  0  0  0  0  0  0  0  0  0  0  0
    2.7432    1.1139    1.9041 H   0  0  0  0  0  0  0  0  0  0  0  0
    3.5627   -1.5831    0.6817 H   0  0  0  0  0  0  0  0  0  0  0  0
    2.5021   -1.3994    2.0603 H   0  0  0  0  0  0  0  0  0  0  0  0
    6.9690   -1.5853    3.3141 H   0  0  0  0  0  0  0  0  0  0  0  0
    7.8549   -0.6971    2.0659 H   0  0  0  0  0  0  0  0  0  0  0  0
    4.5990   -1.9154    2.9830 H   0  0  0  0  0  0  0  0  0  0  0  0
    4.3363   -0.2010    3.3016 H   0  0  0  0  0  0  0  0  0  0  0  0
    5.9265   -1.1755    1.0488 H   0  0  0  0  0  0  0  0  0  0  0  0
  1 12  1  0  0  0  0
  1  3  1  0  0  0  0
  2 15  1  0  0  0  0
  2 13  1  0  0  0  0
  3 17  1  0  0  0  0
  3  5  1  0  0  0  0
  4 19  1  0  0  0  0
  4  2  1  0  0  0  0
  5  6  1  0  0  0  0
  5 21  1  0  0  0  0
  6 23  1  0  0  0  0
  6  8  1  0  0  0  0
  7 24  1  0  0  0  0
  7  4  1  0  0  0  0
  8 26  1  0  0  0  0
  8 27  1  0  0  0  0
  9  8  1  0  0  0  0
  9  7  1  0  0  0  0
 10  1  1  0  0  0  0
 11  1  1  0  0  0  0
 14  2  1  0  0  0  0
 16  3  1  0  0  0  0
 18  4  1  0  0  0  0
 20  5  1  0  0  0  0
 22  6  1  0  0  0  0
 25  7  1  0  0  0  0
 28  9  1  0  0  0  0
M  END
>  <HBA>
1

>  <HBD>
1

>  <TPSA>
12.03

>  <cid>
47475

>  <dipole>
0.93

>  <excitation_energy_1>
5.286

>  <excitation_energy_2>
5.698

>  <excitation_energy_3>
5.862

>  <excitation_energy_4>
5.952

>  <homo_energy>
-5.853

>  <homo_lumo_gap>
7.959

>  <logP>
2.567

>  <lumo_energy>
2.106

>  <melting_point>
-0.71

>  <molecular_refractivity>
43.37

>  <oscillator_strength_1>
0.0034

>  <oscillator_strength_2>
0.0073

>  <oscillator_strength_3>
0.008

>  <oscillator_strength_4>
0.0656

>  <open_babel_can_smiles>
CCCCCNCCC

>  <mulliken_charges>
28
1   -0.442611
2   -0.446864
3   -0.25056
4   -0.243165
5   -0.243686
6   -0.274731
7   -0.116473
8   -0.118321
9   -0.543991
10   0.13972
11   0.135804
12   0.133944
13   0.144798
14   0.14111
15   0.14178
16   0.120783
17   0.165056
18   0.143932
19   0.13458
20   0.122668
21   0.124907
22   0.127096
23   0.13139
24   0.106031
25   0.128678
26   0.105749
27   0.140167
28   0.292207

>  <lowdin_charges>
28
1   -0.446964
2   -0.445868
3   -0.281882
4   -0.278834
5   -0.272711
6   -0.283589
7   -0.204537
8   -0.202763
9   -0.360473
10   0.149808
11   0.142191
12   0.139718
13   0.151752
14   0.146071
15   0.146432
16   0.136331
17   0.154499
18   0.146866
19   0.140805
20   0.13618
21   0.139983
22   0.137903
23   0.147422
24   0.114552
25   0.140934
26   0.113797
27   0.140518
28   0.251858

$$$$

