PCCDB-ID:  3779
public computational chemistry database (PCCDB) project, http://pccdb.org

 32 32  0  0  1  0  0  0  0  0999 V2000
    2.8129   -0.4162    0.4742 C   0  0  0  0  0  0  0  0  0  0  0  0
    5.0550   -0.2897    1.6243 C   0  0  0  0  0  0  0  0  0  0  0  0
    4.3037   -1.8565   -5.1529 C   0  0  0  0  0  0  0  0  0  0  0  0
    4.1534   -1.6240   -6.5226 C   0  0  0  0  0  0  0  0  0  0  0  0
    2.4325   -0.4058   -4.7284 C   0  0  0  0  0  0  0  0  0  0  0  0
    4.5054   -0.3165   -2.1420 C   0  0  0  0  0  0  0  0  0  0  0  0
    4.2767    0.0144    0.3411 C   0  0  0  0  0  0  0  0  0  0  0  0
    3.4428   -1.2471   -4.2406 C   0  0  0  0  0  0  0  0  0  0  0  0
    3.1540   -0.7820   -7.0061 C   0  0  0  0  0  0  0  0  0  0  0  0
    2.2795   -0.1640   -6.0915 C   0  0  0  0  0  0  0  0  0  0  0  0
    3.6170   -1.4365   -2.7488 C   0  0  1  0  0  0  0  0  0  0  0  0
    4.9393   -0.6748   -0.7816 N   0  0  0  0  0  0  0  0  0  0  0  0
    2.9588   -0.5209   -8.3351 O   0  0  0  0  0  0  0  0  0  0  0  0
    1.3057    0.6472   -6.6077 O   0  0  0  0  0  0  0  0  0  0  0  0
    4.2289   -2.6839   -2.4775 O   0  0  0  0  0  0  0  0  0  0  0  0
    2.3499    0.0790    1.3353 H   0  0  0  0  0  0  0  0  0  0  0  0
    2.7435   -1.5007    0.6176 H   0  0  0  0  0  0  0  0  0  0  0  0
    2.2273   -0.1517   -0.4119 H   0  0  0  0  0  0  0  0  0  0  0  0
    4.6046    0.2218    2.4814 H   0  0  0  0  0  0  0  0  0  0  0  0
    6.0978    0.0440    1.5485 H   0  0  0  0  0  0  0  0  0  0  0  0
    5.0564   -1.3671    1.8256 H   0  0  0  0  0  0  0  0  0  0  0  0
    5.0725   -2.5287   -4.7894 H   0  0  0  0  0  0  0  0  0  0  0  0
    4.8221   -2.1096   -7.2323 H   0  0  0  0  0  0  0  0  0  0  0  0
    1.7375    0.0651   -4.0324 H   0  0  0  0  0  0  0  0  0  0  0  0
    3.9819    0.6513   -2.1747 H   0  0  0  0  0  0  0  0  0  0  0  0
    5.3934   -0.2283   -2.7775 H   0  0  0  0  0  0  0  0  0  0  0  0
    4.2931    1.1088    0.1779 H   0  0  0  0  0  0  0  0  0  0  0  0
    2.6222   -1.3937   -2.2732 H   0  0  0  0  0  0  0  0  0  0  0  0
    5.9398   -0.5157   -0.7020 H   0  0  0  0  0  0  0  0  0  0  0  0
    3.6149   -1.0239   -8.8418 H   0  0  0  0  0  0  0  0  0  0  0  0
    0.7741    0.9891   -5.8724 H   0  0  0  0  0  0  0  0  0  0  0  0
    4.6120   -2.5550   -1.5846 H   0  0  0  0  0  0  0  0  0  0  0  0
  1 17  1  0  0  0  0
  1 16  1  0  0  0  0
  2 21  1  0  0  0  0
  2 19  1  0  0  0  0
  3 22  1  0  0  0  0
  3  8  2  0  0  0  0
  4  3  1  0  0  0  0
  5  8  1  0  0  0  0
  5 24  1  0  0  0  0
  6 12  1  0  0  0  0
  7  1  1  0  0  0  0
  7  2  1  0  0  0  0
  8 11  1  0  0  0  0
  9  4  2  0  0  0  0
  9 10  1  0  0  0  0
 10  5  2  0  0  0  0
 11 15  1  0  0  0  0
 11 28  1  1  0  0  0
 11  6  1  0  0  0  0
 12 29  1  0  0  0  0
 12  7  1  0  0  0  0
 13  9  1  0  0  0  0
 14 10  1  0  0  0  0
 14 31  1  0  0  0  0
 15 32  1  0  0  0  0
 18  1  1  0  0  0  0
 20  2  1  0  0  0  0
 23  4  1  0  0  0  0
 25  6  1  0  0  0  0
 26  6  1  0  0  0  0
 27  7  1  0  0  0  0
 30 13  1  0  0  0  0
M  END
>  <HBA>
4

>  <HBD>
4

>  <TPSA>
72.72

>  <cid>
3779

>  <dipole>
3.5

>  <excitation_energy_1>
4.713

>  <excitation_energy_2>
4.78

>  <excitation_energy_3>
4.933

>  <excitation_energy_4>
5.13

>  <homo_energy>
-5.336

>  <homo_lumo_gap>
5.655

>  <logP>
1.52

>  <lumo_energy>
0.318

>  <melting_point>
132.24

>  <molecular_refractivity>
58.65

>  <oscillator_strength_1>
0.0012

>  <oscillator_strength_2>
0.068

>  <oscillator_strength_3>
0.0013

>  <oscillator_strength_4>
0.0034

>  <open_babel_can_smiles>
CC(NC[C@@H](c1ccc(c(c1)O)O)O)C

>  <mulliken_charges>
32
1   -0.440663
2   -0.457888
3   -0.185176
4   -0.200601
5   -0.260973
6   -0.159694
7   0.060922
8   0.13749
9   0.318384
10   0.324944
11   0.094808
12   -0.586685
13   -0.635081
14   -0.636535
15   -0.652919
16   0.143621
17   0.154802
18   0.147572
19   0.150179
20   0.138525
21   0.156681
22   0.145005
23   0.115963
24   0.106044
25   0.130377
26   0.146319
27   0.113425
28   0.114451
29   0.30715
30   0.405736
31   0.405169
32   0.398648

>  <lowdin_charges>
32
1   -0.450726
2   -0.446881
3   -0.170545
4   -0.206953
5   -0.219936
6   -0.226435
7   -0.05094
8   -0.020776
9   0.074679
10   0.07834
11   -0.005571
12   -0.362506
13   -0.375519
14   -0.373224
15   -0.469427
16   0.153371
17   0.153099
18   0.150443
19   0.15643
20   0.14543
21   0.153552
22   0.169648
23   0.153756
24   0.149345
25   0.136442
26   0.152143
27   0.117388
28   0.125073
29   0.259094
30   0.358731
31   0.357491
32   0.334986

$$$$

