PCCDB-ID:  8091
public computational chemistry database (PCCDB) project, http://pccdb.org

 29 28  0  0  0  0  0  0  0  0999 V2000
    1.2072   -0.0581    1.4362 C   0  0  0  0  0  0  0  0  0  0  0  0
    9.8008   -5.1623   -3.8900 C   0  0  0  0  0  0  0  0  0  0  0  0
    2.6078    0.0001    0.8182 C   0  0  0  0  0  0  0  0  0  0  0  0
    3.0752   -1.3461    0.2500 C   0  0  0  0  0  0  0  0  0  0  0  0
    4.4748   -1.2955   -0.3753 C   0  0  0  0  0  0  0  0  0  0  0  0
    4.9379   -2.6406   -0.9497 C   0  0  0  0  0  0  0  0  0  0  0  0
    6.3380   -2.5829   -1.5725 C   0  0  0  0  0  0  0  0  0  0  0  0
    6.7837   -3.9294   -2.1466 C   0  0  0  0  0  0  0  0  0  0  0  0
    8.1678   -3.8864   -2.7641 C   0  0  0  0  0  0  0  0  0  0  0  0
    8.8992   -2.9208   -2.8008 O   0  0  0  0  0  0  0  0  0  0  0  0
    8.5010   -5.0923   -3.2834 O   0  0  0  0  0  0  0  0  0  0  0  0
    0.9021    0.9176    1.8314 H   0  0  0  0  0  0  0  0  0  0  0  0
    1.1676   -0.7790    2.2623 H   0  0  0  0  0  0  0  0  0  0  0  0
    0.4594   -0.3658    0.6948 H   0  0  0  0  0  0  0  0  0  0  0  0
    9.9045   -6.1886   -4.2439 H   0  0  0  0  0  0  0  0  0  0  0  0
   10.5805   -4.9271   -3.1604 H   0  0  0  0  0  0  0  0  0  0  0  0
    9.8757   -4.4595   -4.7244 H   0  0  0  0  0  0  0  0  0  0  0  0
    3.3282    0.3434    1.5743 H   0  0  0  0  0  0  0  0  0  0  0  0
    2.6242    0.7549    0.0190 H   0  0  0  0  0  0  0  0  0  0  0  0
    2.3520   -1.6907   -0.5045 H   0  0  0  0  0  0  0  0  0  0  0  0
    3.0604   -2.1017    1.0498 H   0  0  0  0  0  0  0  0  0  0  0  0
    5.1991   -0.9550    0.3794 H   0  0  0  0  0  0  0  0  0  0  0  0
    4.4903   -0.5376   -1.1724 H   0  0  0  0  0  0  0  0  0  0  0  0
    4.2142   -2.9790   -1.7064 H   0  0  0  0  0  0  0  0  0  0  0  0
    4.9209   -3.4010   -0.1545 H   0  0  0  0  0  0  0  0  0  0  0  0
    7.0685   -2.2517   -0.8239 H   0  0  0  0  0  0  0  0  0  0  0  0
    6.3623   -1.8271   -2.3675 H   0  0  0  0  0  0  0  0  0  0  0  0
    6.0828   -4.2854   -2.9137 H   0  0  0  0  0  0  0  0  0  0  0  0
    6.7865   -4.7078   -1.3712 H   0  0  0  0  0  0  0  0  0  0  0  0
  1 12  1  0  0  0  0
  1 13  1  0  0  0  0
  2 11  1  0  0  0  0
  2 16  1  0  0  0  0
  3  1  1  0  0  0  0
  3 18  1  0  0  0  0
  4  3  1  0  0  0  0
  4 21  1  0  0  0  0
  5  4  1  0  0  0  0
  5 22  1  0  0  0  0
  6  5  1  0  0  0  0
  6 25  1  0  0  0  0
  7  6  1  0  0  0  0
  7 26  1  0  0  0  0
  8  7  1  0  0  0  0
  8 29  1  0  0  0  0
  9  8  1  0  0  0  0
 10  9  2  0  0  0  0
 11  9  1  0  0  0  0
 14  1  1  0  0  0  0
 15  2  1  0  0  0  0
 17  2  1  0  0  0  0
 19  3  1  0  0  0  0
 20  4  1  0  0  0  0
 23  5  1  0  0  0  0
 24  6  1  0  0  0  0
 27  7  1  0  0  0  0
 28  8  1  0  0  0  0
M  END
>  <HBA>
2

>  <HBD>
0

>  <TPSA>
26.3

>  <cid>
8091

>  <dipole>
1.53

>  <excitation_energy_1>
5.85

>  <excitation_energy_2>
6.997

>  <excitation_energy_3>
7.497

>  <excitation_energy_4>
7.693

>  <homo_energy>
-7.293

>  <homo_lumo_gap>
7.75

>  <logP>
2.52

>  <lumo_energy>
0.457

>  <melting_point>
-16.11

>  <molecular_refractivity>
46.66

>  <oscillator_strength_1>
0.0006

>  <oscillator_strength_2>
0.0185

>  <oscillator_strength_3>
0.0069

>  <oscillator_strength_4>
0.0032

>  <open_babel_can_smiles>
CCCCCCCC(=O)OC

>  <mulliken_charges>
29
1   -0.441521
2   -0.216977
3   -0.24674
4   -0.245934
5   -0.253353
6   -0.257353
7   -0.248526
8   -0.362459
9   0.620665
10   -0.478538
11   -0.45472
12   0.141754
13   0.140914
14   0.140865
15   0.162694
16   0.168786
17   0.168682
18   0.130651
19   0.130588
20   0.125939
21   0.126096
22   0.129822
23   0.129703
24   0.126782
25   0.126869
26   0.148716
27   0.147544
28   0.16928
29   0.169769

>  <lowdin_charges>
29
1   -0.44572
2   -0.278827
3   -0.273616
4   -0.276084
5   -0.275453
6   -0.276236
7   -0.271936
8   -0.303433
9   0.19775
10   -0.264756
11   -0.19906
12   0.149094
13   0.146426
14   0.146863
15   0.158512
16   0.159233
17   0.158651
18   0.14009
19   0.139539
20   0.137954
21   0.137532
22   0.140183
23   0.139633
24   0.138211
25   0.137769
26   0.151475
27   0.15039
28   0.167954
29   0.167861

$$$$

