PCCDB-ID:  29827
public computational chemistry database (PCCDB) project, http://pccdb.org

 40 42  0  0  1  0  0  0  0  0999 V2000
    4.1977    0.7330   -0.4874 C   0  0  0  0  0  0  0  0  0  0  0  0
    5.9792    1.2643   -2.8931 C   0  0  0  0  0  0  0  0  0  0  0  0
    0.6828   -2.2897   -5.3071 C   0  0  0  0  0  0  0  0  0  0  0  0
    3.0643   -2.3808   -6.1156 C   0  0  0  0  0  0  0  0  0  0  0  0
    1.5928   -0.4443   -6.7606 C   0  0  0  0  0  0  0  0  0  0  0  0
    2.9446    0.3858   -2.6578 C   0  0  0  0  0  0  0  0  0  0  0  0
    2.5851   -1.9475   -3.6828 C   0  0  0  0  0  0  0  0  0  0  0  0
    1.1160   -0.0172   -4.3263 C   0  0  0  0  0  0  0  0  0  0  0  0
    3.4882   -0.1021   -5.1311 C   0  0  0  0  0  0  0  0  0  0  0  0
    4.1550   -0.0605   -1.8108 C   0  0  1  0  0  0  0  0  0  0  0  0
    2.1198   -2.7113   -4.9414 C   0  0  1  0  0  0  0  0  0  0  0  0
    0.6490   -0.7730   -5.5864 C   0  0  2  0  0  0  0  0  0  0  0  0
    3.0299   -0.8636   -6.3925 C   0  0  1  0  0  0  0  0  0  0  0  0
    2.5623   -0.4178   -3.9273 C   0  0  1  0  0  0  0  0  0  0  0  0
    5.4230   -0.0476   -2.5650 N   0  0  0  0  0  0  0  0  0  0  0  0
    3.2964    0.5472    0.1083 H   0  0  0  0  0  0  0  0  0  0  0  0
    4.2619    1.8140   -0.6583 H   0  0  0  0  0  0  0  0  0  0  0  0
    5.0645    0.4365    0.1170 H   0  0  0  0  0  0  0  0  0  0  0  0
    6.9280    1.1183   -3.4204 H   0  0  0  0  0  0  0  0  0  0  0  0
    6.1705    1.9240   -2.0296 H   0  0  0  0  0  0  0  0  0  0  0  0
    5.3073    1.7940   -3.5757 H   0  0  0  0  0  0  0  0  0  0  0  0
   -0.0052   -2.5379   -4.4865 H   0  0  0  0  0  0  0  0  0  0  0  0
    0.3388   -2.8461   -6.1903 H   0  0  0  0  0  0  0  0  0  0  0  0
    2.7575   -2.9360   -7.0132 H   0  0  0  0  0  0  0  0  0  0  0  0
    4.0887   -2.6981   -5.8766 H   0  0  0  0  0  0  0  0  0  0  0  0
    1.5585    0.6317   -6.9825 H   0  0  0  0  0  0  0  0  0  0  0  0
    1.2641   -0.9681   -7.6693 H   0  0  0  0  0  0  0  0  0  0  0  0
    3.0650    1.4432   -2.9372 H   0  0  0  0  0  0  0  0  0  0  0  0
    2.0798    0.3641   -1.9787 H   0  0  0  0  0  0  0  0  0  0  0  0
    3.6011   -2.2668   -3.4196 H   0  0  0  0  0  0  0  0  0  0  0  0
    1.9355   -2.1992   -2.8308 H   0  0  0  0  0  0  0  0  0  0  0  0
    0.4313   -0.2299   -3.4920 H   0  0  0  0  0  0  0  0  0  0  0  0
    1.0711    1.0681   -4.5005 H   0  0  0  0  0  0  0  0  0  0  0  0
    3.4707    0.9807   -5.3279 H   0  0  0  0  0  0  0  0  0  0  0  0
    4.5187   -0.3690   -4.8755 H   0  0  0  0  0  0  0  0  0  0  0  0
    4.0000   -1.1137   -1.5446 H   0  0  0  0  0  0  0  0  0  0  0  0
    2.1475   -3.7908   -4.7395 H   0  0  0  0  0  0  0  0  0  0  0  0
   -0.3757   -0.4657   -5.8363 H   0  0  0  0  0  0  0  0  0  0  0  0
    3.7072   -0.6261   -7.2242 H   0  0  0  0  0  0  0  0  0  0  0  0
    6.1155   -0.5662   -2.0277 H   0  0  0  0  0  0  0  0  0  0  0  0
  1 16  1  0  0  0  0
  1 18  1  0  0  0  0
  2 15  1  0  0  0  0
  2 20  1  0  0  0  0
  3 11  1  0  0  0  0
  3 22  1  0  0  0  0
  4 25  1  0  0  0  0
  4 11  1  0  0  0  0
  5 13  1  0  0  0  0
  5 12  1  0  0  0  0
  6 29  1  0  0  0  0
  6 10  1  0  0  0  0
  7 30  1  0  0  0  0
  7 31  1  0  0  0  0
  8 14  1  0  0  0  0
  8 32  1  0  0  0  0
  9 35  1  0  0  0  0
  9 14  1  0  0  0  0
 10 36  1  1  0  0  0
 10  1  1  0  0  0  0
 11 37  1  1  0  0  0
 11  7  1  0  0  0  0
 12 38  1  6  0  0  0
 12  3  1  0  0  0  0
 12  8  1  0  0  0  0
 13 39  1  6  0  0  0
 13  4  1  0  0  0  0
 13  9  1  0  0  0  0
 14  7  1  0  0  0  0
 14  6  1  1  0  0  0
 15 40  1  0  0  0  0
 15 10  1  0  0  0  0
 17  1  1  0  0  0  0
 19  2  1  0  0  0  0
 21  2  1  0  0  0  0
 23  3  1  0  0  0  0
 24  4  1  0  0  0  0
 26  5  1  0  0  0  0
 27  5  1  0  0  0  0
 28  6  1  0  0  0  0
 33  8  1  0  0  0  0
 34  9  1  0  0  0  0
M  END
>  <HBA>
1

>  <HBD>
1

>  <TPSA>
12.03

>  <cid>
29827

>  <dipole>
1.23

>  <excitation_energy_1>
5.068

>  <excitation_energy_2>
5.513

>  <excitation_energy_3>
5.599

>  <excitation_energy_4>
5.829

>  <homo_energy>
-5.747

>  <homo_lumo_gap>
7.671

>  <logP>
3.592

>  <lumo_energy>
1.924

>  <melting_point>
81.72

>  <molecular_refractivity>
65.61

>  <oscillator_strength_1>
0.0104

>  <oscillator_strength_2>
0.0032

>  <oscillator_strength_3>
0.0092

>  <oscillator_strength_4>
0.0053

>  <open_babel_can_smiles>
CN[C@H](C[C@]12C[C@H]3C[C@@H](C2)C[C@@H](C1)C3)C

>  <mulliken_charges>
40
1   -0.453441
2   -0.31223
3   -0.262597
4   -0.263588
5   -0.26246
6   -0.274915
7   -0.283097
8   -0.27458
9   -0.282726
10   0.032939
11   -0.09178
12   -0.088693
13   -0.090897
14   0.107024
15   -0.538203
16   0.141674
17   0.145493
18   0.131899
19   0.146678
20   0.125524
21   0.156387
22   0.121327
23   0.121979
24   0.120339
25   0.126043
26   0.121309
27   0.120911
28   0.122133
29   0.122852
30   0.138966
31   0.114621
32   0.117911
33   0.119581
34   0.10903
35   0.163975
36   0.128591
37   0.110343
38   0.11068
39   0.110083
40   0.290917

>  <lowdin_charges>
40
1   -0.461191
2   -0.368849
3   -0.282696
4   -0.280518
5   -0.2799
6   -0.278466
7   -0.282348
8   -0.278537
9   -0.284366
10   -0.064842
11   -0.128392
12   -0.130328
13   -0.132286
14   0.005373
15   -0.364999
16   0.151292
17   0.146426
18   0.144732
19   0.150481
20   0.12508
21   0.150779
22   0.13819
23   0.138601
24   0.137609
25   0.139086
26   0.135744
27   0.137568
28   0.137572
29   0.143431
30   0.144937
31   0.134751
32   0.13587
33   0.134661
34   0.129729
35   0.156627
36   0.13868
37   0.134442
38   0.135657
39   0.137187
40   0.25321

$$$$

