PCCDB-ID:  69715
public computational chemistry database (PCCDB) project, http://pccdb.org

 21 21  0  0  0  0  0  0  0  0999 V2000
    1.2167    1.8039    0.2891 C   0  0  0  0  0  0  0  0  0  0  0  0
    2.0403   -1.1516   -0.1568 C   0  0  0  0  0  0  0  0  0  0  0  0
    1.6807   -1.4635   -1.6115 C   0  0  0  0  0  0  0  0  0  0  0  0
    4.3200   -0.0829   -0.1465 C   0  0  0  0  0  0  0  0  0  0  0  0
    2.6195    1.3161    0.1260 C   0  0  0  0  0  0  0  0  0  0  0  0
    4.7342    1.2215   -0.0303 C   0  0  0  0  0  0  0  0  0  0  0  0
    3.6908    2.0810    0.1378 N   0  0  0  0  0  0  0  0  0  0  0  0
    2.9539   -0.0198   -0.0417 N   0  0  0  0  0  0  0  0  0  0  0  0
    6.1074    1.6566   -0.0741 N   0  0  0  0  0  0  0  0  0  0  0  0
    0.7887   -2.5633   -1.5645 O   0  0  0  0  0  0  0  0  0  0  0  0
    6.9554    0.7677   -0.2288 O   0  0  0  0  0  0  0  0  0  0  0  0
    6.3464    2.8541    0.0402 O   0  0  0  0  0  0  0  0  0  0  0  0
    1.2459    2.8908    0.3822 H   0  0  0  0  0  0  0  0  0  0  0  0
    0.7410    1.3937    1.1887 H   0  0  0  0  0  0  0  0  0  0  0  0
    0.5843    1.5461   -0.5690 H   0  0  0  0  0  0  0  0  0  0  0  0
    2.5050   -2.0290    0.3011 H   0  0  0  0  0  0  0  0  0  0  0  0
    1.1294   -0.9306    0.4045 H   0  0  0  0  0  0  0  0  0  0  0  0
    2.5982   -1.6967   -2.1739 H   0  0  0  0  0  0  0  0  0  0  0  0
    1.2215   -0.5770   -2.0771 H   0  0  0  0  0  0  0  0  0  0  0  0
    4.8651   -1.0040   -0.2755 H   0  0  0  0  0  0  0  0  0  0  0  0
    0.5529   -2.8054   -2.4724 H   0  0  0  0  0  0  0  0  0  0  0  0
  1 13  1  0  0  0  0
  1 14  1  0  0  0  0
  2  8  1  0  0  0  0
  2 16  1  0  0  0  0
  2 17  1  0  0  0  0
  3 10  1  0  0  0  0
  3  2  1  0  0  0  0
  4  8  1  0  0  0  0
  4  6  2  0  0  0  0
  5  7  2  0  0  0  0
  5  1  1  0  0  0  0
  6  7  1  0  0  0  0
  8  5  1  0  0  0  0
  9  6  1  0  0  0  0
  9 12  2  0  0  0  0
 11  9  2  0  0  0  0
 15  1  1  0  0  0  0
 18  3  1  0  0  0  0
 19  3  1  0  0  0  0
 20  4  1  0  0  0  0
 21 10  1  0  0  0  0
M  END
>  <HBA>
3

>  <HBD>
1

>  <TPSA>
83.87

>  <cid>
69715

>  <dipole>
7.91

>  <excitation_energy_1>
3.816

>  <excitation_energy_2>
4.33

>  <excitation_energy_3>
4.344

>  <excitation_energy_4>
5.03

>  <homo_energy>
-6.836

>  <homo_lumo_gap>
5.015

>  <logP>
0.615

>  <lumo_energy>
-1.82

>  <melting_point>
83.58

>  <molecular_refractivity>
43.25

>  <oscillator_strength_1>
0.0

>  <oscillator_strength_2>
0.1565

>  <oscillator_strength_3>
0.0006

>  <oscillator_strength_4>
0.0007

>  <open_babel_can_smiles>
OCCn1cc(nc1C)N(=O)=O

>  <mulliken_charges>
21
1   -0.54045
2   -0.173671
3   -0.02903
4   0.044779
5   0.492647
6   0.385761
7   -0.476212
8   -0.436221
9   0.347148
10   -0.612332
11   -0.421102
12   -0.384824
13   0.205787
14   0.17521
15   0.169708
16   0.18802
17   0.185574
18   0.141648
19   0.138911
20   0.19293
21   0.40572

>  <lowdin_charges>
21
1   -0.44851
2   -0.201529
3   -0.139219
4   -0.134279
5   0.065135
6   -0.002314
7   -0.163101
8   -0.003804
9   0.307402
10   -0.462842
11   -0.275835
12   -0.227247
13   0.188992
14   0.168995
15   0.165693
16   0.172385
17   0.171804
18   0.137062
19   0.135174
20   0.192674
21   0.353368

$$$$

