PCCDB-ID:  25054
public computational chemistry database (PCCDB) project, http://pccdb.org

 36 35  0  0  1  0  0  0  0  0999 V2000
    3.4075   -3.0223   -2.0508 C   0  0  0  0  0  0  0  0  0  0  0  0
    9.0972   -0.3380    2.3000 C   0  0  0  0  0  0  0  0  0  0  0  0
    8.5587   -1.2629   -3.2337 C   0  0  0  0  0  0  0  0  0  0  0  0
   11.1740   -1.6071    0.3674 C   0  0  0  0  0  0  0  0  0  0  0  0
    3.6528   -1.9459    0.2274 C   0  0  0  0  0  0  0  0  0  0  0  0
    7.7232   -0.4091    0.1819 C   0  0  0  0  0  0  0  0  0  0  0  0
    6.2431   -1.7965   -2.3761 C   0  0  0  0  0  0  0  0  0  0  0  0
    4.1305   -1.9520   -1.2263 C   0  0  1  0  0  0  0  0  0  0  0  0
    9.1331   -0.4256    0.7710 C   0  0  2  0  0  0  0  0  0  0  0  0
    7.6893   -1.4770   -1.9976 C   0  0  2  0  0  0  0  0  0  0  0  0
    4.2410   -0.9287    1.0222 O   0  0  0  0  0  0  0  0  0  0  0  0
    9.7631   -1.6307    0.3277 O   0  0  0  0  0  0  0  0  0  0  0  0
    5.5341   -2.1526   -1.1995 O   0  0  0  0  0  0  0  0  0  0  0  0
    7.7318   -0.2694   -1.2332 O   0  0  0  0  0  0  0  0  0  0  0  0
    3.7569   -3.0210   -3.0884 H   0  0  0  0  0  0  0  0  0  0  0  0
    2.3255   -2.8475   -2.0624 H   0  0  0  0  0  0  0  0  0  0  0  0
    3.5956   -4.0168   -1.6306 H   0  0  0  0  0  0  0  0  0  0  0  0
    8.5149   -1.1679    2.7156 H   0  0  0  0  0  0  0  0  0  0  0  0
    8.6385    0.6031    2.6245 H   0  0  0  0  0  0  0  0  0  0  0  0
   10.1038   -0.3803    2.7285 H   0  0  0  0  0  0  0  0  0  0  0  0
    9.5847   -1.0438   -2.9254 H   0  0  0  0  0  0  0  0  0  0  0  0
    8.1917   -0.4142   -3.8227 H   0  0  0  0  0  0  0  0  0  0  0  0
    8.5684   -2.1524   -3.8740 H   0  0  0  0  0  0  0  0  0  0  0  0
   11.5205   -2.5534   -0.0576 H   0  0  0  0  0  0  0  0  0  0  0  0
   11.5683   -1.5213    1.3913 H   0  0  0  0  0  0  0  0  0  0  0  0
   11.5832   -0.7769   -0.2306 H   0  0  0  0  0  0  0  0  0  0  0  0
    3.9344   -2.8924    0.7000 H   0  0  0  0  0  0  0  0  0  0  0  0
    2.5520   -1.8787    0.2368 H   0  0  0  0  0  0  0  0  0  0  0  0
    7.1893    0.4634    0.5779 H   0  0  0  0  0  0  0  0  0  0  0  0
    7.1668   -1.2991    0.4911 H   0  0  0  0  0  0  0  0  0  0  0  0
    6.2156   -2.6156   -3.1133 H   0  0  0  0  0  0  0  0  0  0  0  0
    5.7944   -0.9043   -2.8417 H   0  0  0  0  0  0  0  0  0  0  0  0
    3.9177   -0.9583   -1.6656 H   0  0  0  0  0  0  0  0  0  0  0  0
    9.6842    0.4357    0.3583 H   0  0  0  0  0  0  0  0  0  0  0  0
    8.0920   -2.3055   -1.4046 H   0  0  0  0  0  0  0  0  0  0  0  0
    4.0694   -0.0788    0.5874 H   0  0  0  0  0  0  0  0  0  0  0  0
  1 17  1  0  0  0  0
  1  8  1  0  0  0  0
  2 19  1  0  0  0  0
  2 18  1  0  0  0  0
  2 20  1  0  0  0  0
  3 21  1  0  0  0  0
  3 10  1  0  0  0  0
  4 25  1  0  0  0  0
  5 28  1  0  0  0  0
  5 27  1  0  0  0  0
  5 11  1  0  0  0  0
  6 30  1  0  0  0  0
  6 29  1  0  0  0  0
  6  9  1  0  0  0  0
  7 10  1  0  0  0  0
  7 13  1  0  0  0  0
  8 33  1  6  0  0  0
  8 13  1  0  0  0  0
  8  5  1  0  0  0  0
  9 34  1  6  0  0  0
  9  2  1  0  0  0  0
 10 35  1  1  0  0  0
 10 14  1  0  0  0  0
 12  4  1  0  0  0  0
 12  9  1  0  0  0  0
 14  6  1  0  0  0  0
 15  1  1  0  0  0  0
 16  1  1  0  0  0  0
 22  3  1  0  0  0  0
 23  3  1  0  0  0  0
 24  4  1  0  0  0  0
 26  4  1  0  0  0  0
 31  7  1  0  0  0  0
 32  7  1  0  0  0  0
 36 11  1  0  0  0  0
M  END
>  <HBA>
4

>  <HBD>
1

>  <TPSA>
47.92

>  <cid>
25054

>  <dipole>
1.35

>  <excitation_energy_1>
5.881

>  <excitation_energy_2>
6.124

>  <excitation_energy_3>
6.192

>  <excitation_energy_4>
6.413

>  <homo_energy>
-6.215

>  <homo_lumo_gap>
8.172

>  <logP>
0.824

>  <lumo_energy>
1.957

>  <melting_point>
-37.45

>  <molecular_refractivity>
54.6

>  <oscillator_strength_1>
0.0041

>  <oscillator_strength_2>
0.0059

>  <oscillator_strength_3>
0.002

>  <oscillator_strength_4>
0.0071

>  <open_babel_can_smiles>
OC[C@@H](OC[C@H](OC[C@H](OC)C)C)C

>  <mulliken_charges>
36
1   -0.467446
2   -0.465998
3   -0.458401
4   -0.193684
5   -0.026236
6   -0.038184
7   -0.00652
8   0.131575
9   0.143206
10   0.125726
11   -0.608712
12   -0.471331
13   -0.478118
14   -0.501139
15   0.154083
16   0.142948
17   0.156615
18   0.158916
19   0.143534
20   0.145916
21   0.158615
22   0.146894
23   0.13608
24   0.154528
25   0.129986
26   0.130634
27   0.154223
28   0.115947
29   0.125763
30   0.172197
31   0.113875
32   0.119402
33   0.100415
34   0.112743
35   0.154576
36   0.387373

>  <lowdin_charges>
36
1   -0.457377
2   -0.460929
3   -0.449527
4   -0.27995
5   -0.140709
6   -0.14395
7   -0.146099
8   -0.011728
9   -0.011742
10   -0.005118
11   -0.457203
12   -0.274322
13   -0.264393
14   -0.277521
15   0.155268
16   0.151566
17   0.156122
18   0.158391
19   0.153939
20   0.151702
21   0.159258
22   0.152105
23   0.149227
24   0.153403
25   0.129661
26   0.132602
27   0.153921
28   0.125009
29   0.143712
30   0.158407
31   0.127665
32   0.131725
33   0.117135
34   0.127823
35   0.150931
36   0.340997

$$$$

