PCCDB-ID:  54680
public computational chemistry database (PCCDB) project, http://pccdb.org

 34 34  0  0  1  0  0  0  0  0999 V2000
    1.3111    0.2434   -2.1543 C   0  0  0  0  0  0  0  0  0  0  0  0
    0.0109    8.1466   -3.5739 C   0  0  0  0  0  0  0  0  0  0  0  0
    3.7584   -1.4066    0.2886 C   0  0  0  0  0  0  0  0  0  0  0  0
    4.2706   -0.2956    0.9503 C   0  0  0  0  0  0  0  0  0  0  0  0
    2.8012   -1.2251   -0.7151 C   0  0  0  0  0  0  0  0  0  0  0  0
    3.8344    0.9901    0.6141 C   0  0  0  0  0  0  0  0  0  0  0  0
    2.8297    3.5443   -0.1216 C   0  0  0  0  0  0  0  0  0  0  0  0
    2.1893    4.8050   -2.2207 C   0  0  0  0  0  0  0  0  0  0  0  0
    2.3441    0.0425   -1.0745 C   0  0  0  0  0  0  0  0  0  0  0  0
    2.0956    4.7481   -0.6958 C   0  0  1  0  0  0  0  0  0  0  0  0
    2.8787    1.1556   -0.3920 C   0  0  0  0  0  0  0  0  0  0  0  0
    1.9984    7.1645   -2.7969 C   0  0  0  0  0  0  0  0  0  0  0  0
    1.4079    8.2159   -3.1758 N   0  0  0  0  0  0  0  0  0  0  0  0
    0.7417    4.6853   -0.2779 O   0  0  0  0  0  0  0  0  0  0  0  0
    3.3052    7.1863   -2.4271 O   0  0  0  0  0  0  0  0  0  0  0  0
    2.3926    2.3726   -0.7950 O   0  0  0  0  0  0  0  0  0  0  0  0
    1.4345    5.9374   -2.7176 O   0  0  0  0  0  0  0  0  0  0  0  0
    0.9468   -0.7187   -2.5274 H   0  0  0  0  0  0  0  0  0  0  0  0
    1.7214    0.8035   -3.0041 H   0  0  0  0  0  0  0  0  0  0  0  0
    0.4550    0.8192   -1.7844 H   0  0  0  0  0  0  0  0  0  0  0  0
   -0.4407    9.1357   -3.4511 H   0  0  0  0  0  0  0  0  0  0  0  0
   -0.5758    7.4212   -2.9940 H   0  0  0  0  0  0  0  0  0  0  0  0
   -0.0789    7.8715   -4.6337 H   0  0  0  0  0  0  0  0  0  0  0  0
    4.0938   -2.4066    0.5479 H   0  0  0  0  0  0  0  0  0  0  0  0
    5.0122   -0.4162    1.7355 H   0  0  0  0  0  0  0  0  0  0  0  0
    2.3948   -2.0902   -1.2344 H   0  0  0  0  0  0  0  0  0  0  0  0
    4.2423    1.8464    1.1390 H   0  0  0  0  0  0  0  0  0  0  0  0
    2.6109    3.4766    0.9520 H   0  0  0  0  0  0  0  0  0  0  0  0
    3.9139    3.6795   -0.2492 H   0  0  0  0  0  0  0  0  0  0  0  0
    1.6945    3.9362   -2.6549 H   0  0  0  0  0  0  0  0  0  0  0  0
    3.2233    4.8573   -2.5666 H   0  0  0  0  0  0  0  0  0  0  0  0
    2.5878    5.6451   -0.2837 H   0  0  0  0  0  0  0  0  0  0  0  0
    0.2602    5.3509   -0.7962 H   0  0  0  0  0  0  0  0  0  0  0  0
    3.5785    8.1126   -2.5511 H   0  0  0  0  0  0  0  0  0  0  0  0
  1 20  1  0  0  0  0
  1  9  1  0  0  0  0
  2 21  1  0  0  0  0
  2 13  1  0  0  0  0
  2 22  1  0  0  0  0
  3 24  1  0  0  0  0
  3  4  2  0  0  0  0
  4 25  1  0  0  0  0
  5  3  1  0  0  0  0
  6  4  1  0  0  0  0
  6 27  1  0  0  0  0
  7 28  1  0  0  0  0
  8 10  1  0  0  0  0
  9  5  2  0  0  0  0
  9 11  1  0  0  0  0
 10 32  1  1  0  0  0
 10 14  1  0  0  0  0
 10  7  1  0  0  0  0
 11  6  2  0  0  0  0
 12 17  1  0  0  0  0
 12 15  1  0  0  0  0
 13 12  2  0  0  0  0
 16 11  1  0  0  0  0
 16  7  1  0  0  0  0
 17  8  1  0  0  0  0
 18  1  1  0  0  0  0
 19  1  1  0  0  0  0
 23  2  1  0  0  0  0
 26  5  1  0  0  0  0
 29  7  1  0  0  0  0
 30  8  1  0  0  0  0
 31  8  1  0  0  0  0
 33 14  1  0  0  0  0
 34 15  1  0  0  0  0
M  END
>  <HBA>
5

>  <HBD>
2

>  <TPSA>
67.79

>  <cid>
54680

>  <dipole>
1.54

>  <excitation_energy_1>
5.053

>  <excitation_energy_2>
5.352

>  <excitation_energy_3>
5.553

>  <excitation_energy_4>
5.695

>  <homo_energy>
-5.826

>  <homo_lumo_gap>
5.989

>  <logP>
1.482

>  <lumo_energy>
0.163

>  <melting_point>
79.18

>  <molecular_refractivity>
62.77

>  <oscillator_strength_1>
0.0339

>  <oscillator_strength_2>
0.0053

>  <oscillator_strength_3>
0.0077

>  <oscillator_strength_4>
0.0286

>  <open_babel_can_smiles>
C/N=C(\OC[C@H](COc1ccccc1C)O)/O

>  <mulliken_charges>
34
1   -0.517159
2   -0.317353
3   -0.127181
4   -0.141988
5   -0.190209
6   -0.192888
7   -0.043286
8   -0.064489
9   0.124134
10   0.101901
11   0.32954
12   0.721829
13   -0.486204
14   -0.627804
15   -0.607822
16   -0.525514
17   -0.49896
18   0.147601
19   0.158794
20   0.17259
21   0.155243
22   0.139838
23   0.155012
24   0.123702
25   0.126995
26   0.121518
27   0.13185
28   0.163601
29   0.141401
30   0.188215
31   0.170702
32   0.137295
33   0.403334
34   0.42576

>  <lowdin_charges>
34
1   -0.439612
2   -0.351368
3   -0.176283
4   -0.152178
5   -0.160905
6   -0.214947
7   -0.127906
8   -0.147045
9   -0.022565
10   -0.021566
11   0.095407
12   0.186307
13   -0.268507
14   -0.46027
15   -0.374134
16   -0.200256
17   -0.204417
18   0.154335
19   0.159381
20   0.166802
21   0.152289
22   0.139554
23   0.149222
24   0.15569
25   0.156919
26   0.155702
27   0.161757
28   0.153718
29   0.14026
30   0.172086
31   0.161602
32   0.140386
33   0.348238
34   0.372304

$$$$

