PCCDB-ID:  10721
public computational chemistry database (PCCDB) project, http://pccdb.org

 16 16  0  0  0  0  0  0  0  0999 V2000
    0.9200   -0.1347    0.0334 C   0  0  0  0  0  0  0  0  0  0  0  0
    4.5437   -1.3426   -0.1450 C   0  0  0  0  0  0  0  0  0  0  0  0
    5.2518   -0.1420   -0.2156 C   0  0  0  0  0  0  0  0  0  0  0  0
    3.1500   -1.3348   -0.0654 C   0  0  0  0  0  0  0  0  0  0  0  0
    4.5586    1.0645   -0.2064 C   0  0  0  0  0  0  0  0  0  0  0  0
    2.4612    2.3239   -0.1187 C   0  0  0  0  0  0  0  0  0  0  0  0
    2.4258   -0.1394   -0.0542 C   0  0  0  0  0  0  0  0  0  0  0  0
    3.1564    1.0691   -0.1265 C   0  0  0  0  0  0  0  0  0  0  0  0
    1.8919    3.3389   -0.1119 N   0  0  0  0  0  0  0  0  0  0  0  0
    0.5283   -1.1544    0.0835 H   0  0  0  0  0  0  0  0  0  0  0  0
    0.4709    0.3621   -0.8348 H   0  0  0  0  0  0  0  0  0  0  0  0
    0.5736    0.4088    0.9204 H   0  0  0  0  0  0  0  0  0  0  0  0
    5.0765   -2.2896   -0.1517 H   0  0  0  0  0  0  0  0  0  0  0  0
    6.3359   -0.1443   -0.2770 H   0  0  0  0  0  0  0  0  0  0  0  0
    2.6094   -2.2762   -0.0110 H   0  0  0  0  0  0  0  0  0  0  0  0
    5.0897    2.0096   -0.2611 H   0  0  0  0  0  0  0  0  0  0  0  0
  1 10  1  0  0  0  0
  1 12  1  0  0  0  0
  2  4  2  0  0  0  0
  3  5  2  0  0  0  0
  3  2  1  0  0  0  0
  4  7  1  0  0  0  0
  4 15  1  0  0  0  0
  5  8  1  0  0  0  0
  6  9  3  0  0  0  0
  7  1  1  0  0  0  0
  8  6  1  0  0  0  0
  8  7  2  0  0  0  0
 11  1  1  0  0  0  0
 13  2  1  0  0  0  0
 14  3  1  0  0  0  0
 16  5  1  0  0  0  0
M  END
>  <HBA>
1

>  <HBD>
0

>  <TPSA>
23.79

>  <cid>
10721

>  <dipole>
4.27

>  <excitation_energy_1>
4.933

>  <excitation_energy_2>
5.429

>  <excitation_energy_3>
6.232

>  <excitation_energy_4>
6.358

>  <homo_energy>
-7.053

>  <homo_lumo_gap>
5.704

>  <logP>
1.867

>  <lumo_energy>
-1.35

>  <melting_point>
45.89

>  <molecular_refractivity>
36.12

>  <oscillator_strength_1>
0.0272

>  <oscillator_strength_2>
0.1784

>  <oscillator_strength_3>
0.0

>  <oscillator_strength_4>
0.4328

>  <open_babel_can_smiles>
N#Cc1ccccc1C

>  <mulliken_charges>
16
1   -0.53384
2   -0.108681
3   -0.139219
4   -0.194661
5   -0.132964
6   0.231102
7   0.176865
8   0.078446
9   -0.484849
10   0.15983
11   0.182392
12   0.182392
13   0.142761
14   0.144269
15   0.137534
16   0.158621

>  <lowdin_charges>
16
1   -0.442662
2   -0.136843
3   -0.154035
4   -0.163109
5   -0.129836
6   -0.013064
7   0.024521
8   -0.033729
9   -0.123503
10   0.160464
11   0.173641
12   0.173462
13   0.164806
14   0.163717
15   0.162456
16   0.173714

$$$$

