PCCDB-ID:  8748
public computational chemistry database (PCCDB) project, http://pccdb.org

 29 29  0  0  1  0  0  0  0  0999 V2000
    1.0976   -0.5010    0.5140 C   0  0  0  0  0  0  0  0  0  0  0  0
    2.9530    1.1067    0.8557 C   0  0  0  0  0  0  0  0  0  0  0  0
    1.6587   -1.0434   -4.8125 C   0  0  0  0  0  0  0  0  0  0  0  0
    2.7030    0.7175   -2.3426 C   0  0  0  0  0  0  0  0  0  0  0  0
    2.4674   -1.7333   -1.8017 C   0  0  0  0  0  0  0  0  0  0  0  0
    3.4456    0.3506   -3.6370 C   0  0  0  0  0  0  0  0  0  0  0  0
    3.2201   -2.0928   -3.0914 C   0  0  0  0  0  0  0  0  0  0  0  0
    2.2354    0.0386    0.0620 C   0  0  0  0  0  0  0  0  0  0  0  0
    2.8986   -0.3632   -1.2490 C   0  0  2  0  0  0  0  0  0  0  0  0
    3.0667   -1.0360   -4.1981 C   0  0  1  0  0  0  0  0  0  0  0  0
    4.0139   -1.4204   -5.2098 O   0  0  0  0  0  0  0  0  0  0  0  0
    0.6535   -0.1741    1.4513 H   0  0  0  0  0  0  0  0  0  0  0  0
    0.5655   -1.2834   -0.0176 H   0  0  0  0  0  0  0  0  0  0  0  0
    2.3998    1.3759    1.7605 H   0  0  0  0  0  0  0  0  0  0  0  0
    3.1035    2.0220    0.2686 H   0  0  0  0  0  0  0  0  0  0  0  0
    3.9524    0.7635    1.1578 H   0  0  0  0  0  0  0  0  0  0  0  0
    0.8781   -0.7997   -4.0846 H   0  0  0  0  0  0  0  0  0  0  0  0
    1.4412   -2.0305   -5.2337 H   0  0  0  0  0  0  0  0  0  0  0  0
    1.5917   -0.3047   -5.6226 H   0  0  0  0  0  0  0  0  0  0  0  0
    1.6279    0.8340   -2.5339 H   0  0  0  0  0  0  0  0  0  0  0  0
    3.0591    1.6918   -1.9877 H   0  0  0  0  0  0  0  0  0  0  0  0
    2.6390   -2.5092   -1.0459 H   0  0  0  0  0  0  0  0  0  0  0  0
    1.3867   -1.7287   -1.9960 H   0  0  0  0  0  0  0  0  0  0  0  0
    4.5269    0.3366   -3.4455 H   0  0  0  0  0  0  0  0  0  0  0  0
    3.2707    1.1201   -4.4037 H   0  0  0  0  0  0  0  0  0  0  0  0
    2.8871   -3.0659   -3.4725 H   0  0  0  0  0  0  0  0  0  0  0  0
    4.2931   -2.1896   -2.8802 H   0  0  0  0  0  0  0  0  0  0  0  0
    3.9832   -0.4193   -1.0541 H   0  0  0  0  0  0  0  0  0  0  0  0
    3.9393   -0.7771   -5.9335 H   0  0  0  0  0  0  0  0  0  0  0  0
  1 12  1  0  0  0  0
  2 16  1  0  0  0  0
  2 14  1  0  0  0  0
  3 10  1  0  0  0  0
  3 17  1  0  0  0  0
  4 21  1  0  0  0  0
  4  9  1  0  0  0  0
  5  9  1  0  0  0  0
  5 22  1  0  0  0  0
  6 24  1  0  0  0  0
  6  4  1  0  0  0  0
  7 27  1  0  0  0  0
  7  5  1  0  0  0  0
  8  1  2  0  0  0  0
  8  2  1  0  0  0  0
  9 28  1  1  0  0  0
  9  8  1  0  0  0  0
 10 11  1  6  0  0  0
 10  6  1  0  0  0  0
 10  7  1  0  0  0  0
 13  1  1  0  0  0  0
 15  2  1  0  0  0  0
 18  3  1  0  0  0  0
 19  3  1  0  0  0  0
 20  4  1  0  0  0  0
 23  5  1  0  0  0  0
 25  6  1  0  0  0  0
 26  7  1  0  0  0  0
 29 11  1  0  0  0  0
M  END
>  <HBA>
1

>  <HBD>
1

>  <TPSA>
20.23

>  <cid>
8748

>  <dipole>
1.45

>  <excitation_energy_1>
6.036

>  <excitation_energy_2>
6.316

>  <excitation_energy_3>
6.383

>  <excitation_energy_4>
6.476

>  <homo_energy>
-6.534

>  <homo_lumo_gap>
7.298

>  <logP>
2.504

>  <lumo_energy>
0.765

>  <melting_point>
5.82

>  <molecular_refractivity>
48.8

>  <oscillator_strength_1>
0.0079

>  <oscillator_strength_2>
0.0806

>  <oscillator_strength_3>
0.009

>  <oscillator_strength_4>
0.0302

>  <open_babel_can_smiles>
CC(=C)[C@@H]1CC[C@@](CC1)(C)O

>  <mulliken_charges>
29
1   -0.407217
2   -0.515495
3   -0.466856
4   -0.270438
5   -0.282046
6   -0.284763
7   -0.271556
8   0.225915
9   -0.141464
10   0.320692
11   -0.648624
12   0.128567
13   0.135268
14   0.152035
15   0.154014
16   0.153375
17   0.148238
18   0.155202
19   0.127982
20   0.137816
21   0.134389
22   0.141256
23   0.134627
24   0.14136
25   0.116184
26   0.137286
27   0.142512
28   0.121307
29   0.380435

>  <lowdin_charges>
29
1   -0.370564
2   -0.441668
3   -0.461785
4   -0.274762
5   -0.277263
6   -0.293013
7   -0.277573
8   0.008458
9   -0.125057
10   0.11754
11   -0.462935
12   0.153445
13   0.156288
14   0.156517
15   0.153995
16   0.154585
17   0.152941
18   0.15664
19   0.143782
20   0.140994
21   0.145225
22   0.150788
23   0.138307
24   0.145786
25   0.137942
26   0.148828
27   0.147876
28   0.137117
29   0.337569

$$$$

