PCCDB-ID:  20038
public computational chemistry database (PCCDB) project, http://pccdb.org

 27 28  0  0  0  0  0  0  0  0999 V2000
   -1.3845    0.1175   -0.8673 C   0  0  0  0  0  0  0  0  0  0  0  0
    5.6143    0.2882    0.5885 C   0  0  0  0  0  0  0  0  0  0  0  0
   -0.6031    1.2239   -1.1917 C   0  0  0  0  0  0  0  0  0  0  0  0
   -0.7897   -0.9524   -0.1913 C   0  0  0  0  0  0  0  0  0  0  0  0
    4.8254   -1.0270    0.6208 C   0  0  0  0  0  0  0  0  0  0  0  0
    4.7051    1.4562    0.9888 C   0  0  0  0  0  0  0  0  0  0  0  0
    0.7534    1.2652   -0.8604 C   0  0  0  0  0  0  0  0  0  0  0  0
    0.5561   -0.9128    0.1561 C   0  0  0  0  0  0  0  0  0  0  0  0
    3.5493   -0.9158   -0.2179 C   0  0  0  0  0  0  0  0  0  0  0  0
    3.4297    1.4908    0.1375 C   0  0  0  0  0  0  0  0  0  0  0  0
    1.3602    0.1971   -0.1758 C   0  0  0  0  0  0  0  0  0  0  0  0
    2.7188    0.2169    0.2195 N   0  0  0  0  0  0  0  0  0  0  0  0
   -2.4381    0.0876   -1.1302 H   0  0  0  0  0  0  0  0  0  0  0  0
    5.9973    0.4563   -0.4290 H   0  0  0  0  0  0  0  0  0  0  0  0
    6.4880    0.2347    1.2494 H   0  0  0  0  0  0  0  0  0  0  0  0
   -1.0433    2.0657   -1.7207 H   0  0  0  0  0  0  0  0  0  0  0  0
   -1.3839   -1.8203    0.0842 H   0  0  0  0  0  0  0  0  0  0  0  0
    4.5503   -1.2694    1.6557 H   0  0  0  0  0  0  0  0  0  0  0  0
    5.4355   -1.8561    0.2408 H   0  0  0  0  0  0  0  0  0  0  0  0
    5.2317    2.4134    0.8860 H   0  0  0  0  0  0  0  0  0  0  0  0
    4.4177    1.3534    2.0433 H   0  0  0  0  0  0  0  0  0  0  0  0
    1.3391    2.1297   -1.1527 H   0  0  0  0  0  0  0  0  0  0  0  0
    0.9890   -1.7347    0.7186 H   0  0  0  0  0  0  0  0  0  0  0  0
    2.9657   -1.8351   -0.1409 H   0  0  0  0  0  0  0  0  0  0  0  0
    3.8213   -0.7988   -1.2854 H   0  0  0  0  0  0  0  0  0  0  0  0
    3.6934    1.7434   -0.9092 H   0  0  0  0  0  0  0  0  0  0  0  0
    2.7668    2.2803    0.5036 H   0  0  0  0  0  0  0  0  0  0  0  0
  1  4  1  0  0  0  0
  2  5  1  0  0  0  0
  2  6  1  0  0  0  0
  2 15  1  0  0  0  0
  3  1  2  0  0  0  0
  3  7  1  0  0  0  0
  4 17  1  0  0  0  0
  4  8  2  0  0  0  0
  5 18  1  0  0  0  0
  6 21  1  0  0  0  0
  7 11  2  0  0  0  0
  8 23  1  0  0  0  0
  9 24  1  0  0  0  0
  9 12  1  0  0  0  0
  9  5  1  0  0  0  0
 10 12  1  0  0  0  0
 10 27  1  0  0  0  0
 10  6  1  0  0  0  0
 11  8  1  0  0  0  0
 11 12  1  0  0  0  0
 13  1  1  0  0  0  0
 14  2  1  0  0  0  0
 16  3  1  0  0  0  0
 19  5  1  0  0  0  0
 20  6  1  0  0  0  0
 22  7  1  0  0  0  0
 25  9  1  0  0  0  0
 26 10  1  0  0  0  0
M  END
>  <HBA>
1

>  <HBD>
0

>  <TPSA>
3.24

>  <cid>
20038

>  <dipole>
1.25

>  <excitation_energy_1>
4.512

>  <excitation_energy_2>
4.78

>  <excitation_energy_3>
5.027

>  <excitation_energy_4>
5.195

>  <homo_energy>
-5.216

>  <homo_lumo_gap>
5.456

>  <logP>
2.742

>  <lumo_energy>
0.239

>  <melting_point>
33.25

>  <molecular_refractivity>
55.89

>  <oscillator_strength_1>
0.0266

>  <oscillator_strength_2>
0.1269

>  <oscillator_strength_3>
0.1165

>  <oscillator_strength_4>
0.0054

>  <open_babel_can_smiles>
C1CCN(CC1)c1ccccc1

>  <mulliken_charges>
27
1   -0.132731
2   -0.265257
3   -0.141092
4   -0.137253
5   -0.258357
6   -0.261515
7   -0.186665
8   -0.168099
9   -0.132786
10   -0.126422
11   0.322942
12   -0.489385
13   0.121075
14   0.1296
15   0.136194
16   0.123862
17   0.124045
18   0.140351
19   0.133206
20   0.132598
21   0.142572
22   0.12634
23   0.125892
24   0.149635
25   0.122217
26   0.117466
27   0.151567

>  <lowdin_charges>
27
1   -0.177793
2   -0.279023
3   -0.151604
4   -0.152926
5   -0.28222
6   -0.279128
7   -0.203548
8   -0.185901
9   -0.192362
10   -0.200111
11   0.054605
12   -0.147936
13   0.15306
14   0.137535
15   0.146384
16   0.155637
17   0.155865
18   0.144056
19   0.147516
20   0.146193
21   0.144893
22   0.159296
23   0.157371
24   0.153802
25   0.121996
26   0.119105
27   0.155237

$$$$

