PCCDB-ID:  60258
public computational chemistry database (PCCDB) project, http://pccdb.org

 41 41  0  0  1  0  0  0  0  0999 V2000
    0.6799   -0.5697   -0.0292 C   0  0  0  0  0  0  0  0  0  0  0  0
    6.3118    0.4878    3.8271 C   0  0  0  0  0  0  0  0  0  0  0  0
    2.1495   -0.7446    0.3674 C   0  0  0  0  0  0  0  0  0  0  0  0
    2.7208    0.4615    1.1242 C   0  0  0  0  0  0  0  0  0  0  0  0
    4.1920    0.2954    1.5263 C   0  0  0  0  0  0  0  0  0  0  0  0
   10.9383    3.4590    0.1911 C   0  0  0  0  0  0  0  0  0  0  0  0
    9.6825    3.4359    0.7984 C   0  0  0  0  0  0  0  0  0  0  0  0
   11.1658    2.7828   -1.0051 C   0  0  0  0  0  0  0  0  0  0  0  0
    4.7224    1.5240    2.2904 C   0  0  0  0  0  0  0  0  0  0  0  0
    8.8630    2.0446   -1.0012 C   0  0  0  0  0  0  0  0  0  0  0  0
    7.1532    1.3973    1.7564 C   0  0  0  0  0  0  0  0  0  0  0  0
    8.6379    2.7195    0.2009 C   0  0  0  0  0  0  0  0  0  0  0  0
   10.1248    2.0655   -1.6184 C   0  0  0  0  0  0  0  0  0  0  0  0
    7.2729    2.6485    0.8699 C   0  0  1  0  0  0  0  0  0  0  0  0
   10.3546    1.3348   -2.7887 N   0  0  0  0  0  0  0  0  0  0  0  0
    6.1087    1.4735    2.7741 N   0  0  0  0  0  0  0  0  0  0  0  0
    6.2168    2.6019   -0.0984 O   0  0  0  0  0  0  0  0  0  0  0  0
    0.3022   -1.4462   -0.5685 H   0  0  0  0  0  0  0  0  0  0  0  0
    0.5460    0.3042   -0.6789 H   0  0  0  0  0  0  0  0  0  0  0  0
    0.0455   -0.4235    0.8540 H   0  0  0  0  0  0  0  0  0  0  0  0
    5.5474    0.6212    4.6011 H   0  0  0  0  0  0  0  0  0  0  0  0
    7.2923    0.6433    4.2930 H   0  0  0  0  0  0  0  0  0  0  0  0
    6.2684   -0.5647    3.4888 H   0  0  0  0  0  0  0  0  0  0  0  0
    2.7531   -0.9242   -0.5337 H   0  0  0  0  0  0  0  0  0  0  0  0
    2.2561   -1.6453    0.9888 H   0  0  0  0  0  0  0  0  0  0  0  0
    2.1127    0.6422    2.0241 H   0  0  0  0  0  0  0  0  0  0  0  0
    2.6154    1.3618    0.5008 H   0  0  0  0  0  0  0  0  0  0  0  0
    4.7950    0.1400    0.6226 H   0  0  0  0  0  0  0  0  0  0  0  0
    4.2991   -0.6098    2.1404 H   0  0  0  0  0  0  0  0  0  0  0  0
   11.7496    4.0204    0.6480 H   0  0  0  0  0  0  0  0  0  0  0  0
    9.5114    3.9748    1.7271 H   0  0  0  0  0  0  0  0  0  0  0  0
   12.1486    2.8077   -1.4708 H   0  0  0  0  0  0  0  0  0  0  0  0
    4.0897    1.6965    3.1726 H   0  0  0  0  0  0  0  0  0  0  0  0
    4.6217    2.4031    1.6485 H   0  0  0  0  0  0  0  0  0  0  0  0
    8.0426    1.5020   -1.4642 H   0  0  0  0  0  0  0  0  0  0  0  0
    8.1045    1.2916    2.2896 H   0  0  0  0  0  0  0  0  0  0  0  0
    7.0699    0.5175    1.0901 H   0  0  0  0  0  0  0  0  0  0  0  0
    7.1484    3.5243    1.5250 H   0  0  0  0  0  0  0  0  0  0  0  0
   11.1164    1.6762   -3.3619 H   0  0  0  0  0  0  0  0  0  0  0  0
    9.5281    1.1517   -3.3443 H   0  0  0  0  0  0  0  0  0  0  0  0
    6.3268    3.3718   -0.6790 H   0  0  0  0  0  0  0  0  0  0  0  0
  1  3  1  0  0  0  0
  1 20  1  0  0  0  0
  2 22  1  0  0  0  0
  2 21  1  0  0  0  0
  3 25  1  0  0  0  0
  3  4  1  0  0  0  0
  4  5  1  0  0  0  0
  4 26  1  0  0  0  0
  5 29  1  0  0  0  0
  5  9  1  0  0  0  0
  6 30  1  0  0  0  0
  6  7  2  0  0  0  0
  7 31  1  0  0  0  0
  8  6  1  0  0  0  0
  9 16  1  0  0  0  0
  9 33  1  0  0  0  0
 10 12  2  0  0  0  0
 11 36  1  0  0  0  0
 11 16  1  0  0  0  0
 12  7  1  0  0  0  0
 12 14  1  0  0  0  0
 13  8  2  0  0  0  0
 13 10  1  0  0  0  0
 14 38  1  1  0  0  0
 14 11  1  0  0  0  0
 15 13  1  0  0  0  0
 16  2  1  0  0  0  0
 17 14  1  0  0  0  0
 18  1  1  0  0  0  0
 19  1  1  0  0  0  0
 23  2  1  0  0  0  0
 24  3  1  0  0  0  0
 27  4  1  0  0  0  0
 28  5  1  0  0  0  0
 32  8  1  0  0  0  0
 34  9  1  0  0  0  0
 35 10  1  0  0  0  0
 37 11  1  0  0  0  0
 39 15  1  0  0  0  0
 40 15  1  0  0  0  0
 41 17  1  0  0  0  0
M  END
>  <HBA>
3

>  <HBD>
2

>  <TPSA>
49.49

>  <cid>
60258

>  <dipole>
2.59

>  <excitation_energy_1>
4.485

>  <excitation_energy_2>
4.683

>  <excitation_energy_3>
4.697

>  <excitation_energy_4>
4.812

>  <homo_energy>
-5.222

>  <homo_lumo_gap>
5.295

>  <logP>
3.005

>  <lumo_energy>
0.073

>  <melting_point>
73.91

>  <molecular_refractivity>
73.52

>  <oscillator_strength_1>
0.0292

>  <oscillator_strength_2>
0.0244

>  <oscillator_strength_3>
0.0067

>  <oscillator_strength_4>
0.0015

>  <open_babel_can_smiles>
CCCCCN(C[C@@H](c1cccc(c1)N)O)C

>  <mulliken_charges>
41
1   -0.441273
2   -0.296138
3   -0.245129
4   -0.247556
5   -0.270571
6   -0.136126
7   -0.193007
8   -0.171864
9   -0.129437
10   -0.23281
11   -0.111089
12   0.097858
13   0.31538
14   0.065523
15   -0.787526
16   -0.392609
17   -0.628974
18   0.139134
19   0.139915
20   0.139795
21   0.143302
22   0.143572
23   0.12181
24   0.129875
25   0.127954
26   0.122125
27   0.129928
28   0.144283
29   0.124881
30   0.12609
31   0.120349
32   0.11508
33   0.121905
34   0.157884
35   0.128576
36   0.143711
37   0.127761
38   0.128981
39   0.318593
40   0.319653
41   0.390192

>  <lowdin_charges>
41
1   -0.446495
2   -0.353964
3   -0.272063
4   -0.272857
5   -0.294208
6   -0.145574
7   -0.198681
8   -0.203825
9   -0.210628
10   -0.213898
11   -0.203889
12   -0.018524
13   0.064252
14   -0.003947
15   -0.491768
16   -0.188282
17   -0.460902
18   0.148456
19   0.145802
20   0.145763
21   0.148148
22   0.145619
23   0.119363
24   0.139036
25   0.137785
26   0.134945
27   0.139005
28   0.146061
29   0.136303
30   0.157563
31   0.154029
32   0.151647
33   0.135829
34   0.153381
35   0.159732
36   0.153781
37   0.129402
38   0.138024
39   0.275828
40   0.27571
41   0.344043

$$$$

