PCCDB-ID:  34303
public computational chemistry database (PCCDB) project, http://pccdb.org

 43 43  0  0  0  0  0  0  0  0999 V2000
    2.6494    1.3415    0.1265 C   0  0  0  0  0  0  0  0  0  0  0  0
   15.4501    1.7623   -0.5677 C   0  0  0  0  0  0  0  0  0  0  0  0
    4.0649    1.6957   -0.3412 C   0  0  0  0  0  0  0  0  0  0  0  0
   14.2550    2.4449   -1.2416 C   0  0  0  0  0  0  0  0  0  0  0  0
    4.2369    3.1914   -0.6434 C   0  0  0  0  0  0  0  0  0  0  0  0
   13.0199    2.5185   -0.3320 C   0  0  0  0  0  0  0  0  0  0  0  0
    5.6586    3.6114   -1.0505 C   0  0  0  0  0  0  0  0  0  0  0  0
   11.8194    3.2711   -0.9285 C   0  0  0  0  0  0  0  0  0  0  0  0
    6.1319    3.0378   -2.4032 C   0  0  0  0  0  0  0  0  0  0  0  0
   11.1816    2.5788   -2.1519 C   0  0  0  0  0  0  0  0  0  0  0  0
    7.6757    4.6596   -3.6007 C   0  0  0  0  0  0  0  0  0  0  0  0
    8.9497    5.1196   -3.9343 C   0  0  0  0  0  0  0  0  0  0  0  0
    8.6647    2.8676   -2.3553 C   0  0  0  0  0  0  0  0  0  0  0  0
    7.5091    3.5237   -2.8031 C   0  0  0  0  0  0  0  0  0  0  0  0
    9.9560    3.2997   -2.6677 C   0  0  0  0  0  0  0  0  0  0  0  0
   10.0816    4.4481   -3.4698 C   0  0  0  0  0  0  0  0  0  0  0  0
   11.3549    4.8647   -3.7784 O   0  0  0  0  0  0  0  0  0  0  0  0
    2.5517    0.2701    0.3355 H   0  0  0  0  0  0  0  0  0  0  0  0
    1.9042    1.6014   -0.6357 H   0  0  0  0  0  0  0  0  0  0  0  0
    2.3866    1.8858    1.0421 H   0  0  0  0  0  0  0  0  0  0  0  0
   16.3194    1.7242   -1.2342 H   0  0  0  0  0  0  0  0  0  0  0  0
   15.2070    0.7320   -0.2789 H   0  0  0  0  0  0  0  0  0  0  0  0
   15.7499    2.2965    0.3425 H   0  0  0  0  0  0  0  0  0  0  0  0
    4.3082    1.1024   -1.2325 H   0  0  0  0  0  0  0  0  0  0  0  0
    4.7905    1.3998    0.4303 H   0  0  0  0  0  0  0  0  0  0  0  0
   14.0085    1.9084   -2.1671 H   0  0  0  0  0  0  0  0  0  0  0  0
   14.5369    3.4630   -1.5458 H   0  0  0  0  0  0  0  0  0  0  0  0
    3.9451    3.7642    0.2486 H   0  0  0  0  0  0  0  0  0  0  0  0
    3.5304    3.4843   -1.4349 H   0  0  0  0  0  0  0  0  0  0  0  0
   13.3073    3.0113    0.6081 H   0  0  0  0  0  0  0  0  0  0  0  0
   12.7118    1.4984   -0.0556 H   0  0  0  0  0  0  0  0  0  0  0  0
    6.3694    3.3143   -0.2662 H   0  0  0  0  0  0  0  0  0  0  0  0
    5.7076    4.7072   -1.1040 H   0  0  0  0  0  0  0  0  0  0  0  0
   12.1264    4.2854   -1.2144 H   0  0  0  0  0  0  0  0  0  0  0  0
   11.0493    3.3858   -0.1541 H   0  0  0  0  0  0  0  0  0  0  0  0
    5.4036    3.3154   -3.1777 H   0  0  0  0  0  0  0  0  0  0  0  0
    6.1316    1.9416   -2.3581 H   0  0  0  0  0  0  0  0  0  0  0  0
   10.9027    1.5530   -1.8764 H   0  0  0  0  0  0  0  0  0  0  0  0
   11.9224    2.5038   -2.9558 H   0  0  0  0  0  0  0  0  0  0  0  0
    6.8031    5.1919   -3.9731 H   0  0  0  0  0  0  0  0  0  0  0  0
    9.0651    6.0031   -4.5609 H   0  0  0  0  0  0  0  0  0  0  0  0
    8.5577    1.9742   -1.7413 H   0  0  0  0  0  0  0  0  0  0  0  0
   11.2950    5.6505   -4.3432 H   0  0  0  0  0  0  0  0  0  0  0  0
  1 18  1  0  0  0  0
  1 20  1  0  0  0  0
  2 22  1  0  0  0  0
  2 23  1  0  0  0  0
  3  1  1  0  0  0  0
  3 25  1  0  0  0  0
  4  2  1  0  0  0  0
  4  6  1  0  0  0  0
  5  3  1  0  0  0  0
  5 28  1  0  0  0  0
  6 31  1  0  0  0  0
  6 30  1  0  0  0  0
  7  5  1  0  0  0  0
  7 32  1  0  0  0  0
  8  6  1  0  0  0  0
  8 35  1  0  0  0  0
  9 37  1  0  0  0  0
  9  7  1  0  0  0  0
 10 38  1  0  0  0  0
 10  8  1  0  0  0  0
 11 14  1  0  0  0  0
 12 11  2  0  0  0  0
 12 16  1  0  0  0  0
 13 42  1  0  0  0  0
 14  9  1  0  0  0  0
 14 13  2  0  0  0  0
 15 13  1  0  0  0  0
 15 10  1  0  0  0  0
 16 15  2  0  0  0  0
 17 16  1  0  0  0  0
 19  1  1  0  0  0  0
 21  2  1  0  0  0  0
 24  3  1  0  0  0  0
 26  4  1  0  0  0  0
 27  4  1  0  0  0  0
 29  5  1  0  0  0  0
 33  7  1  0  0  0  0
 34  8  1  0  0  0  0
 36  9  1  0  0  0  0
 39 10  1  0  0  0  0
 40 11  1  0  0  0  0
 41 12  1  0  0  0  0
 43 17  1  0  0  0  0
M  END
>  <HBA>
1

>  <HBD>
1

>  <TPSA>
20.23

>  <cid>
34303

>  <dipole>
1.23

>  <excitation_energy_1>
4.888

>  <excitation_energy_2>
4.939

>  <excitation_energy_3>
5.438

>  <excitation_energy_4>
5.546

>  <homo_energy>
-5.625

>  <homo_lumo_gap>
5.791

>  <logP>
4.858

>  <lumo_energy>
0.166

>  <melting_point>
47.65

>  <molecular_refractivity>
76.85

>  <oscillator_strength_1>
0.0522

>  <oscillator_strength_2>
0.0016

>  <oscillator_strength_3>
0.0235

>  <oscillator_strength_4>
0.0226

>  <open_babel_can_smiles>
CCCCCc1ccc(c(c1)CCCCC)O

>  <mulliken_charges>
43
1   -0.441366
2   -0.441446
3   -0.249486
4   -0.247277
5   -0.247074
6   -0.247292
7   -0.248437
8   -0.254448
9   -0.351754
10   -0.338398
11   -0.195658
12   -0.186357
13   -0.259046
14   0.183968
15   0.147151
16   0.28973
17   -0.650782
18   0.14135
19   0.141192
20   0.141136
21   0.14004
22   0.139864
23   0.139637
24   0.135753
25   0.129534
26   0.136035
27   0.132295
28   0.12806
29   0.125104
30   0.125886
31   0.122896
32   0.132283
33   0.132607
34   0.147111
35   0.128402
36   0.134073
37   0.142807
38   0.131082
39   0.157726
40   0.119827
41   0.112564
42   0.114771
43   0.405937

>  <lowdin_charges>
43
1   -0.443593
2   -0.443899
3   -0.27628
4   -0.273672
5   -0.278054
6   -0.275093
7   -0.272284
8   -0.273854
9   -0.272735
10   -0.271856
11   -0.16449
12   -0.211611
13   -0.16676
14   -0.018442
15   -0.027323
16   0.089444
17   -0.386795
18   0.147397
19   0.146962
20   0.146217
21   0.148587
22   0.144421
23   0.145432
24   0.140381
25   0.139281
26   0.14062
27   0.139253
28   0.141537
29   0.137494
30   0.139857
31   0.134403
32   0.141538
33   0.141371
34   0.146605
35   0.142023
36   0.145357
37   0.145206
38   0.143016
39   0.15701
40   0.154637
41   0.150371
42   0.151421
43   0.356903

$$$$

