PCCDB-ID:  30584
public computational chemistry database (PCCDB) project, http://pccdb.org

 25 26  0  0  0  0  0  0  0  0999 V2000
    0.9471    0.0099    0.1064 C   0  0  0  0  0  0  0  0  0  0  0  0
    5.2269    3.7973    0.0782 C   0  0  0  0  0  0  0  0  0  0  0  0
    8.1469    2.3024    0.0257 C   0  0  0  0  0  0  0  0  0  0  0  0
    3.1954   -1.1678    0.0599 C   0  0  0  0  0  0  0  0  0  0  0  0
    4.5875   -1.1886    0.0386 C   0  0  0  0  0  0  0  0  0  0  0  0
    3.1464    1.2540    0.0849 C   0  0  0  0  0  0  0  0  0  0  0  0
    2.4608    0.0381    0.0829 C   0  0  0  0  0  0  0  0  0  0  0  0
    5.5322    2.3293    0.0606 C   0  0  0  0  0  0  0  0  0  0  0  0
    6.7686    1.7229    0.0364 C   0  0  0  0  0  0  0  0  0  0  0  0
    4.5490    1.2720    0.0631 C   0  0  0  0  0  0  0  0  0  0  0  0
    5.2523    0.0380    0.0403 C   0  0  0  0  0  0  0  0  0  0  0  0
    6.5981    0.3423    0.0244 N   0  0  0  0  0  0  0  0  0  0  0  0
    0.5675   -1.0170    0.0933 H   0  0  0  0  0  0  0  0  0  0  0  0
    0.5185    0.5311   -0.7591 H   0  0  0  0  0  0  0  0  0  0  0  0
    0.5464    0.4981    1.0041 H   0  0  0  0  0  0  0  0  0  0  0  0
    6.1375    4.4048    0.0852 H   0  0  0  0  0  0  0  0  0  0  0  0
    4.6414    4.0772    0.9643 H   0  0  0  0  0  0  0  0  0  0  0  0
    4.6395    4.0991   -0.7994 H   0  0  0  0  0  0  0  0  0  0  0  0
    8.1085    3.3943    0.0245 H   0  0  0  0  0  0  0  0  0  0  0  0
    8.7118    1.9914   -0.8638 H   0  0  0  0  0  0  0  0  0  0  0  0
    8.7261    1.9925    0.9062 H   0  0  0  0  0  0  0  0  0  0  0  0
    2.6547   -2.1112    0.0598 H   0  0  0  0  0  0  0  0  0  0  0  0
    5.1307   -2.1303    0.0224 H   0  0  0  0  0  0  0  0  0  0  0  0
    2.5886    2.1885    0.1025 H   0  0  0  0  0  0  0  0  0  0  0  0
    7.3496   -0.3294    0.0086 H   0  0  0  0  0  0  0  0  0  0  0  0
  1 15  1  0  0  0  0
  2 16  1  0  0  0  0
  2 17  1  0  0  0  0
  3  9  1  0  0  0  0
  3 21  1  0  0  0  0
  4  7  2  0  0  0  0
  5 11  2  0  0  0  0
  5  4  1  0  0  0  0
  6 24  1  0  0  0  0
  7  6  1  0  0  0  0
  7  1  1  0  0  0  0
  8 10  1  0  0  0  0
  8  2  1  0  0  0  0
  9  8  2  0  0  0  0
 10  6  2  0  0  0  0
 11 10  1  0  0  0  0
 12  9  1  0  0  0  0
 12 11  1  0  0  0  0
 13  1  1  0  0  0  0
 14  1  1  0  0  0  0
 18  2  1  0  0  0  0
 19  3  1  0  0  0  0
 20  3  1  0  0  0  0
 22  4  1  0  0  0  0
 23  5  1  0  0  0  0
 25 12  1  0  0  0  0
M  END
>  <HBA>
0

>  <HBD>
1

>  <TPSA>
15.79

>  <cid>
30584

>  <dipole>
2.18

>  <excitation_energy_1>
4.478

>  <excitation_energy_2>
4.514

>  <excitation_energy_3>
4.661

>  <excitation_energy_4>
4.943

>  <homo_energy>
-5.072

>  <homo_lumo_gap>
5.119

>  <logP>
3.093

>  <lumo_energy>
0.046

>  <melting_point>
109.44

>  <molecular_refractivity>
53.2

>  <oscillator_strength_1>
0.0756

>  <oscillator_strength_2>
0.0004

>  <oscillator_strength_3>
0.0425

>  <oscillator_strength_4>
0.0003

>  <open_babel_can_smiles>
Cc1ccc2c(c1)c(C)c([nH]2)C

>  <mulliken_charges>
25
1   -0.529358
2   -0.534191
3   -0.5394
4   -0.20718
5   -0.168509
6   -0.270589
7   0.175205
8   0.044866
9   0.298339
10   0.087988
11   0.323556
12   -0.746263
13   0.14819
14   0.155176
15   0.155313
16   0.146443
17   0.155807
18   0.155907
19   0.171714
20   0.160597
21   0.161143
22   0.111794
23   0.115432
24   0.111044
25   0.316974

>  <lowdin_charges>
25
1   -0.44258
2   -0.439095
3   -0.445583
4   -0.177377
5   -0.191547
6   -0.176718
7   -0.016575
8   -0.073707
9   0.021862
10   -0.031193
11   0.033018
12   -0.21896
13   0.151989
14   0.156436
15   0.15624
16   0.153264
17   0.156056
18   0.156068
19   0.166395
20   0.159574
21   0.159805
22   0.150897
23   0.15299
24   0.151321
25   0.28742

$$$$

