PCCDB-ID:  6809
public computational chemistry database (PCCDB) project, http://pccdb.org

 16 17  0  0  0  0  0  0  0  0999 V2000
    2.1540    0.7277   -0.0003 C   0  0  0  0  0  0  0  0  0  0  0  0
    2.1642   -0.6698   -0.0009 C   0  0  0  0  0  0  0  0  0  0  0  0
    0.9452    1.4429    0.0012 C   0  0  0  0  0  0  0  0  0  0  0  0
    0.9652   -1.4019   -0.0002 C   0  0  0  0  0  0  0  0  0  0  0  0
   -0.2317    0.7079    0.0020 C   0  0  0  0  0  0  0  0  0  0  0  0
   -0.2192   -0.6882    0.0012 C   0  0  0  0  0  0  0  0  0  0  0  0
   -1.6835    1.0554    0.0039 C   0  0  0  0  0  0  0  0  0  0  0  0
   -1.6696   -1.1203    0.0020 C   0  0  0  0  0  0  0  0  0  0  0  0
   -2.4916    0.0481    0.0039 N   0  0  0  0  0  0  0  0  0  0  0  0
   -2.1421    2.3098    0.0056 O   0  0  0  0  0  0  0  0  0  0  0  0
   -2.0770   -2.2590    0.0010 O   0  0  0  0  0  0  0  0  0  0  0  0
    3.0949    1.2704   -0.0009 H   0  0  0  0  0  0  0  0  0  0  0  0
    3.1151   -1.1950   -0.0019 H   0  0  0  0  0  0  0  0  0  0  0  0
    0.9590    2.5311    0.0014 H   0  0  0  0  0  0  0  0  0  0  0  0
    0.9612   -2.4877   -0.0008 H   0  0  0  0  0  0  0  0  0  0  0  0
   -1.3965    2.9319    0.0057 H   0  0  0  0  0  0  0  0  0  0  0  0
  1  3  1  0  0  0  0
  2  1  2  0  0  0  0
  2  4  1  0  0  0  0
  3 14  1  0  0  0  0
  3  5  2  0  0  0  0
  4  6  2  0  0  0  0
  5  7  1  0  0  0  0
  6  5  1  0  0  0  0
  6  8  1  0  0  0  0
  7  9  2  0  0  0  0
  7 10  1  0  0  0  0
  8  9  1  0  0  0  0
 10 16  1  0  0  0  0
 11  8  2  0  0  0  0
 12  1  1  0  0  0  0
 13  2  1  0  0  0  0
 15  4  1  0  0  0  0
M  END
>  <HBA>
3

>  <HBD>
1

>  <TPSA>
46.17

>  <cid>
6809

>  <dipole>
7.04

>  <excitation_energy_1>
3.269

>  <excitation_energy_2>
3.87

>  <excitation_energy_3>
4.35

>  <excitation_energy_4>
4.461

>  <homo_energy>
-7.04

>  <homo_lumo_gap>
4.593

>  <logP>
0.899

>  <lumo_energy>
-2.446

>  <melting_point>
125.2

>  <molecular_refractivity>
41.82

>  <oscillator_strength_1>
0.0001

>  <oscillator_strength_2>
0.0071

>  <oscillator_strength_3>
0.0003

>  <oscillator_strength_4>
0.0401

>  <open_babel_can_smiles>
O=C1N=C(c2c1cccc2)O

>  <mulliken_charges>
16
1   -0.125104
2   -0.128364
3   -0.203551
4   -0.181824
5   0.063782
6   0.054715
7   0.484761
8   0.513755
9   -0.494717
10   -0.5693
11   -0.438974
12   0.147744
13   0.149918
14   0.132451
15   0.168728
16   0.42598

>  <lowdin_charges>
16
1   -0.141266
2   -0.139008
3   -0.154538
4   -0.12281
5   -0.056743
6   -0.036043
7   0.156794
8   0.169259
9   -0.207357
10   -0.306832
11   -0.198747
12   0.167254
13   0.168041
14   0.154972
15   0.176905
16   0.370117

$$$$

