PCCDB-ID:  68262
public computational chemistry database (PCCDB) project, http://pccdb.org

 20 20  0  0  0  0  0  0  0  0999 V2000
    2.5240   -1.2503    1.2457 C   0  0  0  0  0  0  0  0  0  0  0  0
    7.2910    1.4356    2.0530 C   0  0  0  0  0  0  0  0  0  0  0  0
    2.4576    2.2602    0.4254 C   0  0  0  0  0  0  0  0  0  0  0  0
    4.4629    3.5385    1.2723 C   0  0  0  0  0  0  0  0  0  0  0  0
    3.1230    3.5524    0.6622 C   0  0  0  0  0  0  0  0  0  0  0  0
    3.0377    1.0858    0.7579 C   0  0  0  0  0  0  0  0  0  0  0  0
    5.0877    2.3857    1.6000 C   0  0  0  0  0  0  0  0  0  0  0  0
    4.4100    1.0609    1.3748 C   0  0  0  0  0  0  0  0  0  0  0  0
    2.5757    4.6114    0.3590 O   0  0  0  0  0  0  0  0  0  0  0  0
    4.9522    0.0069    1.6811 O   0  0  0  0  0  0  0  0  0  0  0  0
    2.4134   -0.0661    0.4366 O   0  0  0  0  0  0  0  0  0  0  0  0
    6.2810    2.4449    2.2258 O   0  0  0  0  0  0  0  0  0  0  0  0
    1.6392   -1.8398    0.9960 H   0  0  0  0  0  0  0  0  0  0  0  0
    2.5132   -1.0076    2.3122 H   0  0  0  0  0  0  0  0  0  0  0  0
    3.4305   -1.8083    1.0092 H   0  0  0  0  0  0  0  0  0  0  0  0
    8.2268    1.9326    2.3177 H   0  0  0  0  0  0  0  0  0  0  0  0
    7.3392    1.0918    1.0159 H   0  0  0  0  0  0  0  0  0  0  0  0
    7.1154    0.5833    2.7102 H   0  0  0  0  0  0  0  0  0  0  0  0
    1.4750    2.2829   -0.0331 H   0  0  0  0  0  0  0  0  0  0  0  0
    4.9392    4.4968    1.4489 H   0  0  0  0  0  0  0  0  0  0  0  0
  1 14  1  0  0  0  0
  2 12  1  0  0  0  0
  2 16  1  0  0  0  0
  2 18  1  0  0  0  0
  3  5  1  0  0  0  0
  3  6  2  0  0  0  0
  4 20  1  0  0  0  0
  4  7  2  0  0  0  0
  5  4  1  0  0  0  0
  6  8  1  0  0  0  0
  7 12  1  0  0  0  0
  8  7  1  0  0  0  0
  8 10  2  0  0  0  0
  9  5  2  0  0  0  0
 11  6  1  0  0  0  0
 11  1  1  0  0  0  0
 13  1  1  0  0  0  0
 15  1  1  0  0  0  0
 17  2  1  0  0  0  0
 19  3  1  0  0  0  0
M  END
>  <HBA>
4

>  <HBD>
0

>  <TPSA>
52.6

>  <cid>
68262

>  <dipole>
3.79

>  <excitation_energy_1>
2.511

>  <excitation_energy_2>
2.593

>  <excitation_energy_3>
2.786

>  <excitation_energy_4>
3.832

>  <homo_energy>
-6.735

>  <homo_lumo_gap>
3.469

>  <logP>
0.199

>  <lumo_energy>
-3.265

>  <melting_point>
45.99

>  <molecular_refractivity>
40.08

>  <oscillator_strength_1>
0.0009

>  <oscillator_strength_2>
0.0032

>  <oscillator_strength_3>
0.006

>  <oscillator_strength_4>
0.1746

>  <open_babel_can_smiles>
COC1=CC(=O)C=C(C1=O)OC

>  <mulliken_charges>
20
1   -0.207994
2   -0.207711
3   -0.258514
4   -0.259171
5   0.455759
6   0.354123
7   0.354995
8   0.377447
9   -0.487473
10   -0.464535
11   -0.502959
12   -0.502906
13   0.166126
14   0.15882
15   0.181413
16   0.166172
17   0.159035
18   0.181323
19   0.16805
20   0.168002

>  <lowdin_charges>
20
1   -0.269369
2   -0.270038
3   -0.19849
4   -0.200835
5   0.145158
6   0.078575
7   0.079873
8   0.131658
9   -0.232433
10   -0.211903
11   -0.186336
12   -0.185525
13   0.159784
14   0.151425
15   0.16319
16   0.159305
17   0.152232
18   0.163231
19   0.184919
20   0.18558

$$$$

