PCCDB-ID:  69560
public computational chemistry database (PCCDB) project, http://pccdb.org

 20 20  0  0  0  0  0  0  0  0999 V2000
    0.9053   -0.0253   -0.0773 C   0  0  0  0  0  0  0  0  0  0  0  0
    5.2870   -2.5291   -0.0867 C   0  0  0  0  0  0  0  0  0  0  0  0
    3.1239    1.2015   -0.0844 C   0  0  0  0  0  0  0  0  0  0  0  0
    5.2204    0.0050   -0.0889 C   0  0  0  0  0  0  0  0  0  0  0  0
    2.4167   -0.0081   -0.0820 C   0  0  0  0  0  0  0  0  0  0  0  0
    4.5466   -1.2154   -0.0866 C   0  0  0  0  0  0  0  0  0  0  0  0
    4.5178    1.2129   -0.0876 C   0  0  0  0  0  0  0  0  0  0  0  0
    3.1410   -1.2074   -0.0831 C   0  0  0  0  0  0  0  0  0  0  0  0
    5.2533    2.3736   -0.0899 O   0  0  0  0  0  0  0  0  0  0  0  0
    2.5241   -2.4399   -0.0813 O   0  0  0  0  0  0  0  0  0  0  0  0
    0.5009    0.9908   -0.0766 H   0  0  0  0  0  0  0  0  0  0  0  0
    0.4993   -0.5317    0.8106 H   0  0  0  0  0  0  0  0  0  0  0  0
    0.4937   -0.5329   -0.9620 H   0  0  0  0  0  0  0  0  0  0  0  0
    6.3691   -2.3683   -0.0891 H   0  0  0  0  0  0  0  0  0  0  0  0
    5.0250   -3.1324   -0.9641 H   0  0  0  0  0  0  0  0  0  0  0  0
    5.0286   -3.1304    0.7930 H   0  0  0  0  0  0  0  0  0  0  0  0
    2.5707    2.1398   -0.0839 H   0  0  0  0  0  0  0  0  0  0  0  0
    6.3061    0.0314   -0.0914 H   0  0  0  0  0  0  0  0  0  0  0  0
    4.6430    3.1267   -0.0821 H   0  0  0  0  0  0  0  0  0  0  0  0
    1.5641   -2.3137   -0.0752 H   0  0  0  0  0  0  0  0  0  0  0  0
  1 11  1  0  0  0  0
  1 12  1  0  0  0  0
  2  6  1  0  0  0  0
  2 16  1  0  0  0  0
  3 17  1  0  0  0  0
  3  5  2  0  0  0  0
  4  7  2  0  0  0  0
  4  6  1  0  0  0  0
  5  1  1  0  0  0  0
  6  8  2  0  0  0  0
  7  3  1  0  0  0  0
  8  5  1  0  0  0  0
  8 10  1  0  0  0  0
  9  7  1  0  0  0  0
  9 19  1  0  0  0  0
 10 20  1  0  0  0  0
 13  1  1  0  0  0  0
 14  2  1  0  0  0  0
 15  2  1  0  0  0  0
 18  4  1  0  0  0  0
M  END
>  <HBA>
2

>  <HBD>
2

>  <TPSA>
40.46

>  <cid>
69560

>  <dipole>
2.77

>  <excitation_energy_1>
4.563

>  <excitation_energy_2>
4.657

>  <excitation_energy_3>
4.709

>  <excitation_energy_4>
5.463

>  <homo_energy>
-5.219

>  <homo_lumo_gap>
5.418

>  <logP>
1.715

>  <lumo_energy>
0.199

>  <melting_point>
93.94

>  <molecular_refractivity>
40.42

>  <oscillator_strength_1>
0.0025

>  <oscillator_strength_2>
0.0794

>  <oscillator_strength_3>
0.0001

>  <oscillator_strength_4>
0.0003

>  <open_babel_can_smiles>
Oc1cc(C)c(c(c1)C)O

>  <mulliken_charges>
20
1   -0.579143
2   -0.513416
3   -0.277706
4   -0.236614
5   0.170727
6   0.149151
7   0.370272
8   0.201491
9   -0.655549
10   -0.653731
11   0.16804
12   0.161912
13   0.162087
14   0.148198
15   0.166161
16   0.166127
17   0.106751
18   0.130513
19   0.403321
20   0.411405

>  <lowdin_charges>
20
1   -0.45276
2   -0.434555
3   -0.224014
4   -0.189358
5   -0.040085
6   -0.013217
7   0.08781
8   0.066384
9   -0.389997
10   -0.390457
11   0.165056
12   0.156528
13   0.156644
14   0.152579
15   0.164183
16   0.164159
17   0.148709
18   0.162408
19   0.355487
20   0.354495

$$$$

