PCCDB-ID:  28301
public computational chemistry database (PCCDB) project, http://pccdb.org

 28 28  0  0  1  0  0  0  0  0999 V2000
    1.8513    1.8476   -0.3454 C   0  0  0  0  0  0  0  0  0  0  0  0
    1.9871   -1.7938   -0.1995 C   0  0  0  0  0  0  0  0  0  0  0  0
    3.1057   -0.2916   -1.7236 C   0  0  0  0  0  0  0  0  0  0  0  0
    2.5731   -2.8885   -0.8313 C   0  0  0  0  0  0  0  0  0  0  0  0
    3.6914   -1.3873   -2.3563 C   0  0  0  0  0  0  0  0  0  0  0  0
    4.3374   -7.4030   -3.0584 C   0  0  0  0  0  0  0  0  0  0  0  0
    3.7998   -5.0489   -2.2471 C   0  0  0  0  0  0  0  0  0  0  0  0
    4.5668   -5.9057   -3.2453 C   0  0  2  0  0  0  0  0  0  0  0  0
    2.2452   -0.4903   -0.6359 C   0  0  0  0  0  0  0  0  0  0  0  0
    3.4321   -2.6879   -1.9188 C   0  0  0  0  0  0  0  0  0  0  0  0
    5.0381   -8.1442   -4.0388 O   0  0  0  0  0  0  0  0  0  0  0  0
    4.1420   -5.6151   -4.5757 O   0  0  0  0  0  0  0  0  0  0  0  0
    1.6172    0.5095    0.0574 O   0  0  0  0  0  0  0  0  0  0  0  0
    4.0673   -3.6956   -2.6066 O   0  0  0  0  0  0  0  0  0  0  0  0
    1.2628    2.4719    0.3295 H   0  0  0  0  0  0  0  0  0  0  0  0
    1.5226    2.0239   -1.3788 H   0  0  0  0  0  0  0  0  0  0  0  0
    2.9121    2.1191   -0.2555 H   0  0  0  0  0  0  0  0  0  0  0  0
    1.3195   -1.9358    0.6446 H   0  0  0  0  0  0  0  0  0  0  0  0
    3.3268    0.7053   -2.0873 H   0  0  0  0  0  0  0  0  0  0  0  0
    2.3549   -3.8860   -0.4671 H   0  0  0  0  0  0  0  0  0  0  0  0
    4.3607   -1.2430   -3.1989 H   0  0  0  0  0  0  0  0  0  0  0  0
    3.2542   -7.6081   -3.0968 H   0  0  0  0  0  0  0  0  0  0  0  0
    4.7120   -7.7270   -2.0816 H   0  0  0  0  0  0  0  0  0  0  0  0
    4.1339   -5.2488   -1.2187 H   0  0  0  0  0  0  0  0  0  0  0  0
    2.7227   -5.2549   -2.3186 H   0  0  0  0  0  0  0  0  0  0  0  0
    5.6427   -5.6963   -3.1384 H   0  0  0  0  0  0  0  0  0  0  0  0
    4.8258   -7.7166   -4.8858 H   0  0  0  0  0  0  0  0  0  0  0  0
    4.2214   -4.6539   -4.6883 H   0  0  0  0  0  0  0  0  0  0  0  0
  1 17  1  0  0  0  0
  1 13  1  0  0  0  0
  1 15  1  0  0  0  0
  2 18  1  0  0  0  0
  3  9  2  0  0  0  0
  4 20  1  0  0  0  0
  4  2  2  0  0  0  0
  5 10  2  0  0  0  0
  5  3  1  0  0  0  0
  6 23  1  0  0  0  0
  7 24  1  0  0  0  0
  8 26  1  1  0  0  0
  8  6  1  0  0  0  0
  8  7  1  0  0  0  0
  9  2  1  0  0  0  0
  9 13  1  0  0  0  0
 10  4  1  0  0  0  0
 11  6  1  0  0  0  0
 12  8  1  0  0  0  0
 14  7  1  0  0  0  0
 14 10  1  0  0  0  0
 16  1  1  0  0  0  0
 19  3  1  0  0  0  0
 21  5  1  0  0  0  0
 22  6  1  0  0  0  0
 25  7  1  0  0  0  0
 27 11  1  0  0  0  0
 28 12  1  0  0  0  0
M  END
>  <HBA>
4

>  <HBD>
2

>  <TPSA>
58.92

>  <cid>
28301

>  <dipole>
3.26

>  <excitation_energy_1>
4.635

>  <excitation_energy_2>
5.097

>  <excitation_energy_3>
5.324

>  <excitation_energy_4>
5.388

>  <homo_energy>
-5.551

>  <homo_lumo_gap>
5.374

>  <logP>
0.427

>  <lumo_energy>
-0.177

>  <melting_point>
50.44

>  <molecular_refractivity>
51.36

>  <oscillator_strength_1>
0.0589

>  <oscillator_strength_2>
0.0006

>  <oscillator_strength_3>
0.003

>  <oscillator_strength_4>
0.0125

>  <open_babel_can_smiles>
OC[C@H](COc1ccc(cc1)OC)O

>  <mulliken_charges>
28
1   -0.213828
2   -0.183206
3   -0.196105
4   -0.191984
5   -0.186376
6   -0.01815
7   -0.042966
8   0.088111
9   0.375182
10   0.378608
11   -0.625113
12   -0.649936
13   -0.510996
14   -0.553042
15   0.169487
16   0.14982
17   0.149957
18   0.1415
19   0.134631
20   0.137712
21   0.134654
22   0.124556
23   0.141615
24   0.140708
25   0.147155
26   0.138733
27   0.408318
28   0.410959

>  <lowdin_charges>
28
1   -0.275392
2   -0.171169
3   -0.201019
4   -0.198427
5   -0.174007
6   -0.13609
7   -0.141061
8   -0.025045
9   0.087411
10   0.084388
11   -0.462923
12   -0.470524
13   -0.204144
14   -0.219133
15   0.164234
16   0.142406
17   0.14217
18   0.168423
19   0.163645
20   0.163908
21   0.16484
22   0.127977
23   0.148062
24   0.142466
25   0.14249
26   0.137135
27   0.349435
28   0.349946

$$$$

