PCCDB-ID:  11496
public computational chemistry database (PCCDB) project, http://pccdb.org

 20 20  0  0  0  0  0  0  0  0999 V2000
   -0.6744    1.2420    0.2861 C   0  0  0  0  0  0  0  0  0  0  0  0
   -1.3188    0.0203    0.1115 C   0  0  0  0  0  0  0  0  0  0  0  0
    0.7115    1.3341    0.1667 C   0  0  0  0  0  0  0  0  0  0  0  0
   -1.3015   -2.3990   -0.3569 C   0  0  0  0  0  0  0  0  0  0  0  0
   -0.7983   -3.6170   -0.6277 C   0  0  0  0  0  0  0  0  0  0  0  0
    0.8180   -1.0407   -0.3062 C   0  0  0  0  0  0  0  0  0  0  0  0
   -0.5776   -1.1391   -0.1853 C   0  0  0  0  0  0  0  0  0  0  0  0
    1.4572    0.1854   -0.1318 C   0  0  0  0  0  0  0  0  0  0  0  0
   -1.7124   -4.7795   -0.7619 C   0  0  0  0  0  0  0  0  0  0  0  0
    2.8174    0.2050   -0.2646 O   0  0  0  0  0  0  0  0  0  0  0  0
   -2.9159   -4.7281   -0.6453 O   0  0  0  0  0  0  0  0  0  0  0  0
   -1.1125   -5.9744   -1.0360 O   0  0  0  0  0  0  0  0  0  0  0  0
   -1.2517    2.1326    0.5171 H   0  0  0  0  0  0  0  0  0  0  0  0
   -2.3987   -0.0460    0.2061 H   0  0  0  0  0  0  0  0  0  0  0  0
    1.2140    2.2901    0.3018 H   0  0  0  0  0  0  0  0  0  0  0  0
   -2.3841   -2.3460   -0.2507 H   0  0  0  0  0  0  0  0  0  0  0  0
    0.2715   -3.7768   -0.7498 H   0  0  0  0  0  0  0  0  0  0  0  0
    1.4300   -1.9064   -0.5361 H   0  0  0  0  0  0  0  0  0  0  0  0
    3.1383    1.1084   -0.1186 H   0  0  0  0  0  0  0  0  0  0  0  0
   -0.1506   -5.8595   -1.1025 H   0  0  0  0  0  0  0  0  0  0  0  0
  1 13  1  0  0  0  0
  2 14  1  0  0  0  0
  2  1  2  0  0  0  0
  3  1  1  0  0  0  0
  3 15  1  0  0  0  0
  4 16  1  0  0  0  0
  4  7  1  0  0  0  0
  5  4  2  0  0  0  0
  6  7  2  0  0  0  0
  6  8  1  0  0  0  0
  7  2  1  0  0  0  0
  8  3  2  0  0  0  0
  9 11  2  0  0  0  0
  9  5  1  0  0  0  0
 10  8  1  0  0  0  0
 10 19  1  0  0  0  0
 12  9  1  0  0  0  0
 17  5  1  0  0  0  0
 18  6  1  0  0  0  0
 20 12  1  0  0  0  0
M  END
>  <HBA>
3

>  <HBD>
2

>  <TPSA>
57.53

>  <cid>
11496

>  <dipole>
6.16

>  <excitation_energy_1>
3.911

>  <excitation_energy_2>
4.239

>  <excitation_energy_3>
4.407

>  <excitation_energy_4>
5.404

>  <homo_energy>
-6.381

>  <homo_lumo_gap>
4.449

>  <logP>
1.49

>  <lumo_energy>
-1.932

>  <melting_point>
144.31

>  <molecular_refractivity>
45.13

>  <oscillator_strength_1>
0.0993

>  <oscillator_strength_2>
0.0001

>  <oscillator_strength_3>
0.5166

>  <oscillator_strength_4>
0.0003

>  <open_babel_can_smiles>
OC(=O)/C=C/c1cccc(c1)O

>  <mulliken_charges>
20
1   -0.134849
2   -0.190837
3   -0.188442
4   -0.149976
5   -0.241579
6   -0.214421
7   0.166167
8   0.35888
9   0.60928
10   -0.641092
11   -0.460763
12   -0.584375
13   0.141894
14   0.142022
15   0.127456
16   0.175173
17   0.127828
18   0.140564
19   0.410593
20   0.406479

>  <lowdin_charges>
20
1   -0.142102
2   -0.166474
3   -0.201784
4   -0.089995
5   -0.228726
6   -0.180402
7   0.001545
8   0.107851
9   0.190512
10   -0.376034
11   -0.252074
12   -0.357014
13   0.165005
14   0.162435
15   0.157862
16   0.178632
17   0.150715
18   0.168187
19   0.358776
20   0.353087

$$$$

