PCCDB-ID:  8942
public computational chemistry database (PCCDB) project, http://pccdb.org

 37 37  0  0  1  0  0  0  0  0999 V2000
    5.3845   -0.6176    0.4492 C   0  0  0  0  0  0  0  0  0  0  0  0
    7.4543    8.6546    0.3092 C   0  0  0  0  0  0  0  0  0  0  0  0
    4.4819    0.1509    1.4219 C   0  0  0  0  0  0  0  0  0  0  0  0
    7.5415    7.1546    0.6061 C   0  0  0  0  0  0  0  0  0  0  0  0
    4.2318    1.6188    1.0375 C   0  0  0  0  0  0  0  0  0  0  0  0
    5.4797    2.5118    1.0833 C   0  0  0  0  0  0  0  0  0  0  0  0
    5.1744    3.9789    0.7494 C   0  0  0  0  0  0  0  0  0  0  0  0
    6.4240    4.8668    0.8118 C   0  0  0  0  0  0  0  0  0  0  0  0
    5.2094    6.9512    1.5147 C   0  0  0  0  0  0  0  0  0  0  0  0
    5.5592    6.5665   -0.8657 C   0  0  0  0  0  0  0  0  0  0  0  0
    3.6174    7.5629   -0.0675 C   0  0  0  0  0  0  0  0  0  0  0  0
    6.1867    6.3812    0.5113 C   0  0  1  0  0  0  0  0  0  0  0  0
    4.0704    7.4756    1.2807 N   0  0  0  0  0  0  0  0  0  0  0  0
    4.4269    7.0893   -1.1286 N   0  0  0  0  0  0  0  0  0  0  0  0
    5.6490    6.8642    2.7851 O   0  0  0  0  0  0  0  0  0  0  0  0
    6.2849    6.1302   -1.9189 O   0  0  0  0  0  0  0  0  0  0  0  0
    2.5335    8.0480   -0.2990 O   0  0  0  0  0  0  0  0  0  0  0  0
    5.4798   -1.6675    0.7482 H   0  0  0  0  0  0  0  0  0  0  0  0
    6.3958   -0.1970    0.4074 H   0  0  0  0  0  0  0  0  0  0  0  0
    4.9745   -0.5978   -0.5684 H   0  0  0  0  0  0  0  0  0  0  0  0
    8.4421    9.1156    0.4116 H   0  0  0  0  0  0  0  0  0  0  0  0
    6.7778    9.1628    1.0047 H   0  0  0  0  0  0  0  0  0  0  0  0
    7.0985    8.8488   -0.7083 H   0  0  0  0  0  0  0  0  0  0  0  0
    4.9141    0.1106    2.4322 H   0  0  0  0  0  0  0  0  0  0  0  0
    3.5126   -0.3609    1.4865 H   0  0  0  0  0  0  0  0  0  0  0  0
    7.9362    6.9926    1.6141 H   0  0  0  0  0  0  0  0  0  0  0  0
    8.2599    6.6838   -0.0795 H   0  0  0  0  0  0  0  0  0  0  0  0
    3.4741    2.0373    1.7146 H   0  0  0  0  0  0  0  0  0  0  0  0
    3.7943    1.6600    0.0292 H   0  0  0  0  0  0  0  0  0  0  0  0
    6.2371    2.1338    0.3829 H   0  0  0  0  0  0  0  0  0  0  0  0
    5.9320    2.4536    2.0846 H   0  0  0  0  0  0  0  0  0  0  0  0
    4.4178    4.3587    1.4491 H   0  0  0  0  0  0  0  0  0  0  0  0
    4.7243    4.0382   -0.2508 H   0  0  0  0  0  0  0  0  0  0  0  0
    7.1781    4.4848    0.1081 H   0  0  0  0  0  0  0  0  0  0  0  0
    6.8801    4.7996    1.8057 H   0  0  0  0  0  0  0  0  0  0  0  0
    4.9440    7.2586    3.3357 H   0  0  0  0  0  0  0  0  0  0  0  0
    7.1230    5.7515   -1.6098 H   0  0  0  0  0  0  0  0  0  0  0  0
  1 18  1  0  0  0  0
  1  3  1  0  0  0  0
  2 21  1  0  0  0  0
  2  4  1  0  0  0  0
  2 22  1  0  0  0  0
  3 25  1  0  0  0  0
  3 24  1  0  0  0  0
  4 26  1  0  0  0  0
  5  6  1  0  0  0  0
  5  3  1  0  0  0  0
  5 28  1  0  0  0  0
  6 31  1  0  0  0  0
  7  8  1  0  0  0  0
  7  6  1  0  0  0  0
  7 32  1  0  0  0  0
  8 35  1  0  0  0  0
  9 15  1  0  0  0  0
 10 12  1  0  0  0  0
 11 13  2  0  0  0  0
 12  4  1  1  0  0  0
 12  8  1  0  0  0  0
 12  9  1  0  0  0  0
 13  9  2  0  0  0  0
 14 10  2  0  0  0  0
 14 11  1  0  0  0  0
 15 36  1  0  0  0  0
 16 37  1  0  0  0  0
 16 10  1  0  0  0  0
 17 11  2  0  0  0  0
 19  1  1  0  0  0  0
 20  1  1  0  0  0  0
 23  2  1  0  0  0  0
 27  4  1  0  0  0  0
 29  5  1  0  0  0  0
 30  6  1  0  0  0  0
 33  7  1  0  0  0  0
 34  8  1  0  0  0  0
M  END
>  <HBA>
5

>  <HBD>
2

>  <TPSA>
75.27

>  <cid>
8942

>  <dipole>
7.79

>  <excitation_energy_1>
4.062

>  <excitation_energy_2>
4.295

>  <excitation_energy_3>
5.367

>  <excitation_energy_4>
5.586

>  <homo_energy>
-6.914

>  <homo_lumo_gap>
5.453

>  <logP>
2.377

>  <lumo_energy>
-1.461

>  <melting_point>
139.58

>  <molecular_refractivity>
71.85

>  <oscillator_strength_1>
0.0

>  <oscillator_strength_2>
0.0

>  <oscillator_strength_3>
0.0001

>  <oscillator_strength_4>
0.034

>  <open_babel_can_smiles>
CCCCCC[C@@]1(CC)C(=N[C](=[N]=C1O)=O)O

>  <mulliken_charges>
37
1   -0.444218
2   -0.468761
3   -0.250512
4   -0.271567
5   -0.252613
6   -0.257282
7   -0.281093
8   -0.277643
9   0.569513
10   0.555174
11   0.624411
12   -0.116331
13   -0.523325
14   -0.476549
15   -0.602712
16   -0.580428
17   -0.437123
18   0.14538
19   0.142518
20   0.143879
21   0.159954
22   0.16911
23   0.174351
24   0.130055
25   0.13633
26   0.177073
27   0.128446
28   0.133818
29   0.134703
30   0.133765
31   0.13137
32   0.153376
33   0.158999
34   0.124261
35   0.171975
36   0.422813
37   0.418882

>  <lowdin_charges>
37
1   -0.444381
2   -0.452526
3   -0.271776
4   -0.26793
5   -0.275768
6   -0.275099
7   -0.284226
8   -0.268711
9   0.149871
10   0.149745
11   0.171861
12   -0.050358
13   -0.221245
14   -0.188115
15   -0.343951
16   -0.327564
17   -0.213026
18   0.150263
19   0.144422
20   0.146565
21   0.161091
22   0.1619
23   0.16186
24   0.137959
25   0.144619
26   0.164242
27   0.140709
28   0.144422
29   0.140766
30   0.140811
31   0.138706
32   0.151579
33   0.15221
34   0.138747
35   0.162064
36   0.371035
37   0.35923

$$$$

