PCCDB-ID:  25323
public computational chemistry database (PCCDB) project, http://pccdb.org

 20 20  0  0  0  0  0  0  0  0999 V2000
    3.1013    1.3343    0.2992 C   0  0  0  0  0  0  0  0  0  0  0  0
    2.6614   -2.5123    0.3159 C   0  0  0  0  0  0  0  0  0  0  0  0
    4.5199   -1.1886    1.0938 C   0  0  0  0  0  0  0  0  0  0  0  0
    3.3211   -3.6697    0.6925 C   0  0  0  0  0  0  0  0  0  0  0  0
    5.1974   -2.3434    1.4727 C   0  0  0  0  0  0  0  0  0  0  0  0
    2.4819   -0.0394    0.0845 C   0  0  0  0  0  0  0  0  0  0  0  0
    3.2459   -1.2476    0.5087 C   0  0  0  0  0  0  0  0  0  0  0  0
    4.6015   -3.5957    1.2728 C   0  0  0  0  0  0  0  0  0  0  0  0
    5.2775   -4.7965    1.5567 N   0  0  0  0  0  0  0  0  0  0  0  0
    1.3760   -0.1431   -0.4296 O   0  0  0  0  0  0  0  0  0  0  0  0
    6.2781   -4.6599    2.5619 O   0  0  0  0  0  0  0  0  0  0  0  0
    4.0442    1.4318   -0.2526 H   0  0  0  0  0  0  0  0  0  0  0  0
    3.3237    1.5089    1.3586 H   0  0  0  0  0  0  0  0  0  0  0  0
    2.3991    2.0920   -0.0524 H   0  0  0  0  0  0  0  0  0  0  0  0
    1.6739   -2.5572   -0.1317 H   0  0  0  0  0  0  0  0  0  0  0  0
    4.9986   -0.2288    1.2635 H   0  0  0  0  0  0  0  0  0  0  0  0
    2.8558   -4.6404    0.5346 H   0  0  0  0  0  0  0  0  0  0  0  0
    6.1743   -2.2883    1.9371 H   0  0  0  0  0  0  0  0  0  0  0  0
    4.6439   -5.5231    1.8832 H   0  0  0  0  0  0  0  0  0  0  0  0
    7.0897   -4.9192    2.0951 H   0  0  0  0  0  0  0  0  0  0  0  0
  1 13  1  0  0  0  0
  2  7  2  0  0  0  0
  2  4  1  0  0  0  0
  3 16  1  0  0  0  0
  3  5  2  0  0  0  0
  4  8  2  0  0  0  0
  5 18  1  0  0  0  0
  6  1  1  0  0  0  0
  6  7  1  0  0  0  0
  7  3  1  0  0  0  0
  8  5  1  0  0  0  0
  8  9  1  0  0  0  0
  9 19  1  0  0  0  0
  9 11  1  0  0  0  0
 10  6  2  0  0  0  0
 12  1  1  0  0  0  0
 14  1  1  0  0  0  0
 15  2  1  0  0  0  0
 17  4  1  0  0  0  0
 20 11  1  0  0  0  0
M  END
>  <HBA>
3

>  <HBD>
2

>  <TPSA>
49.33

>  <cid>
25323

>  <dipole>
4.0

>  <excitation_energy_1>
3.815

>  <excitation_energy_2>
4.482

>  <excitation_energy_3>
4.682

>  <excitation_energy_4>
5.217

>  <homo_energy>
-5.997

>  <homo_lumo_gap>
4.811

>  <logP>
1.763

>  <lumo_energy>
-1.186

>  <melting_point>
128.34

>  <molecular_refractivity>
41.86

>  <oscillator_strength_1>
0.0001

>  <oscillator_strength_2>
0.4031

>  <oscillator_strength_3>
0.0003

>  <oscillator_strength_4>
0.0149

>  <open_babel_can_smiles>
ONc1ccc(cc1)C(=O)C

>  <mulliken_charges>
20
1   -0.542411
2   -0.168861
3   -0.194675
4   -0.180982
5   -0.15967
6   0.403173
7   0.080242
8   0.323145
9   -0.428467
10   -0.463807
11   -0.508071
12   0.16782
13   0.167557
14   0.178948
15   0.164328
16   0.134186
17   0.1295
18   0.141288
19   0.335604
20   0.421152

>  <lowdin_charges>
20
1   -0.475244
2   -0.116737
3   -0.138029
4   -0.190819
5   -0.189305
6   0.15625
7   -0.071483
8   0.055336
9   -0.186571
10   -0.254007
11   -0.397239
12   0.167947
13   0.166321
14   0.174594
15   0.176706
16   0.161764
17   0.157898
18   0.166821
19   0.277654
20   0.358144

$$$$

