PCCDB-ID:  11724
public computational chemistry database (PCCDB) project, http://pccdb.org

  8  7  0  0  0  0  0  0  0  0999 V2000
    1.0039   -0.1336   -0.1151 C   0  0  0  0  0  0  0  0  0  0  0  0
    3.0761   -1.3108   -0.1228 N   0  0  0  0  0  0  0  0  0  0  0  0
    4.2708   -1.2428    0.0303 O   0  0  0  0  0  0  0  0  0  0  0  0
    2.3798   -2.2656   -0.4048 O   0  0  0  0  0  0  0  0  0  0  0  0
    2.4288   -0.0651    0.0645 O   0  0  0  0  0  0  0  0  0  0  0  0
    0.6814    0.8939    0.0605 H   0  0  0  0  0  0  0  0  0  0  0  0
    0.5478   -0.8097    0.6118 H   0  0  0  0  0  0  0  0  0  0  0  0
    0.7497   -0.4487   -1.1298 H   0  0  0  0  0  0  0  0  0  0  0  0
  1  6  1  0  0  0  0
  1  5  1  0  0  0  0
  1  7  1  0  0  0  0
  2  3  2  0  0  0  0
  2  5  1  0  0  0  0
  4  2  2  0  0  0  0
  8  1  1  0  0  0  0
M  END
>  <HBA>
0

>  <HBD>
0

>  <TPSA>
55.05

>  <cid>
11724

>  <dipole>
3.11

>  <excitation_energy_1>
4.734

>  <excitation_energy_2>
5.671

>  <excitation_energy_3>
6.274

>  <excitation_energy_4>
7.257

>  <homo_energy>
-8.612

>  <homo_lumo_gap>
6.822

>  <logP>
0.348

>  <lumo_energy>
-1.791

>  <melting_point>
0.91

>  <molecular_refractivity>
16.11

>  <oscillator_strength_1>
0.0

>  <oscillator_strength_2>
0.0003

>  <oscillator_strength_3>
0.0637

>  <oscillator_strength_4>
0.1029

>  <open_babel_can_smiles>
CON(=O)=O

>  <mulliken_charges>
8
1   -0.219583
2   0.741885
3   -0.350472
4   -0.369782
5   -0.355903
6   0.186948
7   0.183388
8   0.183518

>  <lowdin_charges>
8
1   -0.285938
2   0.370097
3   -0.189663
4   -0.219636
5   -0.180845
6   0.174815
7   0.166592
8   0.164578

$$$$

