PCCDB-ID:  65065
public computational chemistry database (PCCDB) project, http://pccdb.org

 21 20  0  0  1  0  0  0  0  0999 V2000
    1.3722   -0.9403   -0.3274 C   0  0  0  0  0  0  0  0  0  0  0  0
    1.2272    3.0386   -0.7149 C   0  0  0  0  0  0  0  0  0  0  0  0
    2.5352   -0.0253   -0.0302 C   0  0  0  0  0  0  0  0  0  0  0  0
    1.9556    1.8655   -1.3948 C   0  0  1  0  0  0  0  0  0  0  0  0
    0.0836    2.5977    0.1869 C   0  0  0  0  0  0  0  0  0  0  0  0
    2.8600    2.4664   -2.4991 C   0  0  0  0  0  0  0  0  0  0  0  0
    2.7890    1.1481   -0.4533 N   0  0  0  0  0  0  0  0  0  0  0  0
    3.4651   -0.5479    0.8146 O   0  0  0  0  0  0  0  0  0  0  0  0
   -0.4116    1.4967    0.1836 O   0  0  0  0  0  0  0  0  0  0  0  0
   -0.4046    3.5546    1.0160 O   0  0  0  0  0  0  0  0  0  0  0  0
    2.4032    3.0491   -3.4547 O   0  0  0  0  0  0  0  0  0  0  0  0
    4.1733    2.3149   -2.2874 O   0  0  0  0  0  0  0  0  0  0  0  0
    0.6643   -0.5062   -1.0291 H   0  0  0  0  0  0  0  0  0  0  0  0
    0.8202   -1.1462    0.5967 H   0  0  0  0  0  0  0  0  0  0  0  0
    1.7470   -1.8910   -0.7269 H   0  0  0  0  0  0  0  0  0  0  0  0
    0.8202    3.6914   -1.4983 H   0  0  0  0  0  0  0  0  0  0  0  0
    1.9520    3.6289   -0.1392 H   0  0  0  0  0  0  0  0  0  0  0  0
    1.2064    1.2488   -1.9051 H   0  0  0  0  0  0  0  0  0  0  0  0
    3.1824   -1.4313    1.0984 H   0  0  0  0  0  0  0  0  0  0  0  0
    0.0941    4.3816    0.9071 H   0  0  0  0  0  0  0  0  0  0  0  0
    4.2507    1.8317   -1.4280 H   0  0  0  0  0  0  0  0  0  0  0  0
  1  3  1  0  0  0  0
  1 14  1  0  0  0  0
  2 17  1  0  0  0  0
  2  5  1  0  0  0  0
  3  8  1  0  0  0  0
  4 18  1  6  0  0  0
  4  2  1  0  0  0  0
  4  7  1  0  0  0  0
  5 10  1  0  0  0  0
  6 12  1  0  0  0  0
  6  4  1  0  0  0  0
  7  3  2  0  0  0  0
  8 19  1  0  0  0  0
  9  5  2  0  0  0  0
 11  6  2  0  0  0  0
 12 21  1  0  0  0  0
 13  1  1  0  0  0  0
 15  1  1  0  0  0  0
 16  2  1  0  0  0  0
 20 10  1  0  0  0  0
M  END
>  <HBA>
6

>  <HBD>
3

>  <TPSA>
103.7

>  <cid>
65065

>  <dipole>
3.95

>  <excitation_energy_1>
5.574

>  <excitation_energy_2>
5.767

>  <excitation_energy_3>
5.94

>  <excitation_energy_4>
6.143

>  <homo_energy>
-7.002

>  <homo_lumo_gap>
6.781

>  <logP>
-0.559

>  <lumo_energy>
-0.22

>  <melting_point>
176.32

>  <molecular_refractivity>
37.5

>  <oscillator_strength_1>
0.0027

>  <oscillator_strength_2>
0.0003

>  <oscillator_strength_3>
0.0132

>  <oscillator_strength_4>
0.0243

>  <open_babel_can_smiles>
OC(=O)C[C@@H](C(=O)O)/N=C(/O)\C

>  <mulliken_charges>
21
1   -0.545112
2   -0.411081
3   0.515788
4   -0.070467
5   0.620804
6   0.596977
7   -0.489303
8   -0.567163
9   -0.450514
10   -0.562616
11   -0.466835
12   -0.572555
13   0.210414
14   0.196351
15   0.170382
16   0.214042
17   0.173787
18   0.17308
19   0.416006
20   0.41592
21   0.432095

>  <lowdin_charges>
21
1   -0.479769
2   -0.326929
3   0.159232
4   -0.093511
5   0.200872
6   0.17844
7   -0.238813
8   -0.35238
9   -0.247425
10   -0.347245
11   -0.259505
12   -0.345295
13   0.188972
14   0.18387
15   0.167885
16   0.192247
17   0.169181
18   0.164936
19   0.361324
20   0.363098
21   0.360815

$$$$

