PCCDB-ID:  19968
public computational chemistry database (PCCDB) project, http://pccdb.org

 21 22  0  0  0  0  0  0  0  0999 V2000
    0.9409   -0.1266    0.1085 C   0  0  0  0  0  0  0  0  0  0  0  0
    3.3151    3.5562    0.0572 C   0  0  0  0  0  0  0  0  0  0  0  0
    4.7260    3.4976    0.0367 C   0  0  0  0  0  0  0  0  0  0  0  0
    2.5661    2.3985    0.0725 C   0  0  0  0  0  0  0  0  0  0  0  0
    5.3687    2.2773    0.0321 C   0  0  0  0  0  0  0  0  0  0  0  0
    3.1826   -1.2750    0.0786 C   0  0  0  0  0  0  0  0  0  0  0  0
    4.5831   -1.2774    0.0577 C   0  0  0  0  0  0  0  0  0  0  0  0
    2.4469   -0.1075    0.0838 C   0  0  0  0  0  0  0  0  0  0  0  0
    3.1843    1.1189    0.0678 C   0  0  0  0  0  0  0  0  0  0  0  0
    4.6081    1.0938    0.0472 C   0  0  0  0  0  0  0  0  0  0  0  0
    5.3005   -0.1351    0.0420 N   0  3  0  0  0  0  0  0  0  0  0  0
    6.5782   -0.1509    0.0227 O   0  5  0  0  0  0  0  0  0  0  0  0
    0.5679   -1.1548    0.0976 H   0  0  0  0  0  0  0  0  0  0  0  0
    0.5117    0.3920   -0.7582 H   0  0  0  0  0  0  0  0  0  0  0  0
    0.5417    0.3627    1.0064 H   0  0  0  0  0  0  0  0  0  0  0  0
    2.8158    4.5212    0.0604 H   0  0  0  0  0  0  0  0  0  0  0  0
    5.3063    4.4156    0.0248 H   0  0  0  0  0  0  0  0  0  0  0  0
    1.4828    2.4581    0.0874 H   0  0  0  0  0  0  0  0  0  0  0  0
    6.4470    2.1817    0.0163 H   0  0  0  0  0  0  0  0  0  0  0  0
    2.6821   -2.2389    0.0901 H   0  0  0  0  0  0  0  0  0  0  0  0
    5.1868   -2.1750    0.0524 H   0  0  0  0  0  0  0  0  0  0  0  0
  1 15  1  0  0  0  0
  2 16  1  0  0  0  0
  2  4  2  0  0  0  0
  3  2  1  0  0  0  0
  4 18  1  0  0  0  0
  5  3  2  0  0  0  0
  5 10  1  0  0  0  0
  6  8  1  0  0  0  0
  6 20  1  0  0  0  0
  7  6  2  0  0  0  0
  8  1  1  0  0  0  0
  9  4  1  0  0  0  0
  9  8  2  0  0  0  0
 10  9  1  0  0  0  0
 11 10  2  0  0  0  0
 11  7  1  0  0  0  0
 12 11  1  0  0  0  0
 13  1  1  0  0  0  0
 14  1  1  0  0  0  0
 17  3  1  0  0  0  0
 19  5  1  0  0  0  0
 21  7  1  0  0  0  0
M  CHG  2  11   1  12  -1
M  END
>  <HBA>
1

>  <HBD>
0

>  <TPSA>
25.46

>  <cid>
19968

>  <dipole>
4.08

>  <excitation_energy_1>
3.517

>  <excitation_energy_2>
3.702

>  <excitation_energy_3>
3.932

>  <excitation_energy_4>
4.718

>  <homo_energy>
-5.399

>  <homo_lumo_gap>
3.78

>  <logP>
2.577

>  <lumo_energy>
-1.619

>  <melting_point>
67.99

>  <molecular_refractivity>
50.08

>  <oscillator_strength_1>
0.1296

>  <oscillator_strength_2>
0.0

>  <oscillator_strength_3>
0.0251

>  <oscillator_strength_4>
0.0091

>  <open_babel_can_smiles>
[O-][n+]1ccc(c2c1cccc2)C

>  <mulliken_charges>
21
1   -0.535323
2   -0.117665
3   -0.140228
4   -0.211661
5   -0.135673
6   -0.24948
7   0.064764
8   0.177703
9   0.071042
10   0.270652
11   -0.086569
12   -0.522309
13   0.1615
14   0.167775
15   0.168277
16   0.137691
17   0.14159
18   0.136756
19   0.182461
20   0.142938
21   0.175758

>  <lowdin_charges>
21
1   -0.441628
2   -0.147219
3   -0.149628
4   -0.157315
5   -0.143163
6   -0.171149
7   -0.132903
8   -0.008176
9   -0.008236
10   0.021129
11   0.210607
12   -0.387622
13   0.16111
14   0.163433
15   0.163512
16   0.162324
17   0.164687
18   0.161896
19   0.187302
20   0.168164
21   0.182875

$$$$

