PCCDB-ID:  66924
public computational chemistry database (PCCDB) project, http://pccdb.org

 24 23  0  0  0  0  0  0  0  0999 V2000
    5.4102    3.0482   -2.0668 C   0  0  0  0  0  0  0  0  0  0  0  0
    7.6331   -0.5128    4.1044 C   0  0  0  0  0  0  0  0  0  0  0  0
    4.7626    1.2983    1.1322 C   0  0  0  0  0  0  0  0  0  0  0  0
    4.6937    1.7049    3.6396 C   0  0  0  0  0  0  0  0  0  0  0  0
    5.7172    2.4515   -0.7163 C   0  0  0  0  0  0  0  0  0  0  0  0
    6.2105   -0.1439    3.7586 C   0  0  0  0  0  0  0  0  0  0  0  0
    4.5563    2.3294    2.2467 C   0  0  0  0  0  0  0  0  0  0  0  0
    6.8105    2.4557   -0.1837 O   0  0  0  0  0  0  0  0  0  0  0  0
    5.3431   -0.9217    3.4242 O   0  0  0  0  0  0  0  0  0  0  0  0
    5.3978    3.4594    2.1002 O   0  0  0  0  0  0  0  0  0  0  0  0
    4.6093    1.9069   -0.1668 O   0  0  0  0  0  0  0  0  0  0  0  0
    6.0259    1.1959    3.8708 O   0  0  0  0  0  0  0  0  0  0  0  0
    4.8625    2.3342   -2.6887 H   0  0  0  0  0  0  0  0  0  0  0  0
    6.3400    3.3433   -2.5541 H   0  0  0  0  0  0  0  0  0  0  0  0
    4.7720    3.9292   -1.9361 H   0  0  0  0  0  0  0  0  0  0  0  0
    7.8543   -0.2235    5.1370 H   0  0  0  0  0  0  0  0  0  0  0  0
    8.3304    0.0299    3.4580 H   0  0  0  0  0  0  0  0  0  0  0  0
    7.7701   -1.5875    3.9820 H   0  0  0  0  0  0  0  0  0  0  0  0
    4.0066    0.5128    1.1842 H   0  0  0  0  0  0  0  0  0  0  0  0
    5.7538    0.8444    1.1930 H   0  0  0  0  0  0  0  0  0  0  0  0
    3.9671    0.9031    3.7936 H   0  0  0  0  0  0  0  0  0  0  0  0
    4.5548    2.4902    4.3855 H   0  0  0  0  0  0  0  0  0  0  0  0
    3.5284    2.7113    2.1776 H   0  0  0  0  0  0  0  0  0  0  0  0
    6.2609    3.1496    1.7754 H   0  0  0  0  0  0  0  0  0  0  0  0
  1 15  1  0  0  0  0
  1  5  1  0  0  0  0
  2 16  1  0  0  0  0
  3 19  1  0  0  0  0
  3 20  1  0  0  0  0
  3  7  1  0  0  0  0
  4 21  1  0  0  0  0
  4 12  1  0  0  0  0
  4 22  1  0  0  0  0
  5  8  2  0  0  0  0
  5 11  1  0  0  0  0
  6 12  1  0  0  0  0
  6  2  1  0  0  0  0
  7  4  1  0  0  0  0
  9  6  2  0  0  0  0
 10  7  1  0  0  0  0
 11  3  1  0  0  0  0
 13  1  1  0  0  0  0
 14  1  1  0  0  0  0
 17  2  1  0  0  0  0
 18  2  1  0  0  0  0
 23  7  1  0  0  0  0
 24 10  1  0  0  0  0
M  END
>  <HBA>
5

>  <HBD>
1

>  <TPSA>
72.83

>  <cid>
66924

>  <dipole>
0.51

>  <excitation_energy_1>
5.825

>  <excitation_energy_2>
5.84

>  <excitation_energy_3>
6.447

>  <excitation_energy_4>
6.633

>  <homo_energy>
-7.249

>  <homo_lumo_gap>
7.298

>  <logP>
-0.526

>  <lumo_energy>
0.049

>  <melting_point>
16.27

>  <molecular_refractivity>
39.49

>  <oscillator_strength_1>
0.001

>  <oscillator_strength_2>
0.0009

>  <oscillator_strength_3>
0.0138

>  <oscillator_strength_4>
0.0229

>  <open_babel_can_smiles>
OC(COC(=O)C)COC(=O)C

>  <mulliken_charges>
24
1   -0.525281
2   -0.523814
3   -0.095267
4   -0.068521
5   0.623544
6   0.604119
7   0.121938
8   -0.491922
9   -0.47249
10   -0.633947
11   -0.445231
12   -0.454916
13   0.183141
14   0.184888
15   0.192263
16   0.185828
17   0.188025
18   0.184214
19   0.174681
20   0.171647
21   0.168948
22   0.168251
23   0.145597
24   0.414302

>  <lowdin_charges>
24
1   -0.464404
2   -0.46313
3   -0.153935
4   -0.151309
5   0.211001
6   0.203557
7   -0.019928
8   -0.282258
9   -0.269689
10   -0.461043
11   -0.185041
12   -0.201194
13   0.179514
14   0.177619
15   0.184619
16   0.179456
17   0.182311
18   0.175112
19   0.169593
20   0.160201
21   0.163296
22   0.165898
23   0.149809
24   0.349944

$$$$

