PCCDB-ID:  336
public computational chemistry database (PCCDB) project, http://pccdb.org

 15 14  0  0  1  0  0  0  0  0999 V2000
    1.4129    0.2281    0.1575 C   0  0  1  0  0  0  0  0  0  0  0  0
    0.7463    0.9351    1.3607 C   0  0  0  0  0  0  0  0  0  0  0  0
    1.6021    0.6619   -2.2325 C   0  0  0  0  0  0  0  0  0  0  0  0
    2.0714   -0.4512   -2.6351 N   0  0  0  0  0  0  0  0  0  0  0  0
    1.4792    1.1489   -0.9322 N   0  0  0  0  0  0  0  0  0  0  0  0
    2.6958   -0.2869    0.5345 O   0  0  0  0  0  0  0  0  0  0  0  0
   -0.1000    1.7864    1.2341 O   0  0  0  0  0  0  0  0  0  0  0  0
    1.1827    0.4898    2.5446 O   0  0  0  0  0  0  0  0  0  0  0  0
    1.1506    1.5885   -3.1111 O   0  0  0  0  0  0  0  0  0  0  0  0
    0.8273   -0.6712   -0.0847 H   0  0  0  0  0  0  0  0  0  0  0  0
    2.4306   -1.0180   -1.8680 H   0  0  0  0  0  0  0  0  0  0  0  0
    0.8632    1.9502   -0.8250 H   0  0  0  0  0  0  0  0  0  0  0  0
    3.3284    0.4466    0.4268 H   0  0  0  0  0  0  0  0  0  0  0  0
    1.9300   -0.1185    2.3590 H   0  0  0  0  0  0  0  0  0  0  0  0
    1.3209    1.2115   -3.9925 H   0  0  0  0  0  0  0  0  0  0  0  0
  1 10  1  6  0  0  0
  1  6  1  0  0  0  0
  1  2  1  0  0  0  0
  2  8  1  0  0  0  0
  3  5  1  0  0  0  0
  4  3  2  0  0  0  0
  4 11  1  0  0  0  0
  5 12  1  0  0  0  0
  5  1  1  0  0  0  0
  7  2  2  0  0  0  0
  9  3  1  0  0  0  0
 13  6  1  0  0  0  0
 14  8  1  0  0  0  0
 15  9  1  0  0  0  0
M  END
>  <HBA>
6

>  <HBD>
4

>  <TPSA>
112.65

>  <cid>
336

>  <dipole>
2.14

>  <excitation_energy_1>
5.407

>  <excitation_energy_2>
5.657

>  <excitation_energy_3>
6.25

>  <excitation_energy_4>
6.307

>  <homo_energy>
-7.053

>  <homo_lumo_gap>
6.544

>  <logP>
-0.851

>  <lumo_energy>
-0.509

>  <melting_point>
184.36

>  <molecular_refractivity>
25.57

>  <oscillator_strength_1>
0.0067

>  <oscillator_strength_2>
0.017

>  <oscillator_strength_3>
0.0297

>  <oscillator_strength_4>
0.0136

>  <open_babel_can_smiles>
OC(=N)N[C@H](C(=O)O)O

>  <mulliken_charges>
15
1   0.154616
2   0.574048
3   0.638416
4   -0.646748
5   -0.622759
6   -0.626456
7   -0.442081
8   -0.562709
9   -0.59756
10   0.194863
11   0.302045
12   0.366477
13   0.409435
14   0.432709
15   0.425705

>  <lowdin_charges>
15
1   0.008712
2   0.16654
3   0.158154
4   -0.472025
5   -0.304322
6   -0.457043
7   -0.235434
8   -0.329389
9   -0.368309
10   0.165562
11   0.267432
12   0.304412
13   0.355703
14   0.368155
15   0.371853

$$$$

