PCCDB-ID:  69665
public computational chemistry database (PCCDB) project, http://pccdb.org

 14 14  0  0  0  0  0  0  0  0999 V2000
    1.0553    0.8730   -0.3443 C   0  0  0  0  0  0  0  0  0  0  0  0
   -0.3511    1.4322   -0.3879 C   0  0  0  0  0  0  0  0  0  0  0  0
    1.2271   -0.3887    0.0653 C   0  0  0  0  0  0  0  0  0  0  0  0
   -1.3438    0.3506    0.1055 C   0  0  0  0  0  0  0  0  0  0  0  0
   -0.3869   -1.3334    2.0787 O   0  0  0  0  0  0  0  0  0  0  0  0
   -0.7110   -2.4364   -0.2575 O   0  0  0  0  0  0  0  0  0  0  0  0
   -0.3513   -1.1676    0.4438 P   0  0  2  0  0  0  0  0  0  0  0  0
    1.8816    1.5134   -0.6500 H   0  0  0  0  0  0  0  0  0  0  0  0
   -0.5877    1.7515   -1.4113 H   0  0  0  0  0  0  0  0  0  0  0  0
   -0.4093    2.3377    0.2296 H   0  0  0  0  0  0  0  0  0  0  0  0
    2.1850   -0.8941    0.1279 H   0  0  0  0  0  0  0  0  0  0  0  0
   -2.0985    0.1068   -0.6469 H   0  0  0  0  0  0  0  0  0  0  0  0
   -1.8624    0.6529    1.0190 H   0  0  0  0  0  0  0  0  0  0  0  0
   -0.5673   -2.2653    2.2893 H   0  0  0  0  0  0  0  0  0  0  0  0
  1  3  2  0  0  0  0
  2  1  1  0  0  0  0
  2  4  1  0  0  0  0
  2 10  1  0  0  0  0
  3 11  1  0  0  0  0
  3  7  1  0  0  0  0
  4  7  1  0  0  0  0
  4 13  1  0  0  0  0
  5 14  1  0  0  0  0
  7  6  2  6  0  0  0
  7  5  1  0  0  0  0
  8  1  1  0  0  0  0
  9  2  1  0  0  0  0
 12  4  1  0  0  0  0
M  END
>  <HBA>
2

>  <HBD>
1

>  <TPSA>
47.11

>  <cid>
69665

>  <dipole>
3.25

>  <excitation_energy_1>
5.678

>  <excitation_energy_2>
6.159

>  <excitation_energy_3>
6.57

>  <excitation_energy_4>
6.663

>  <homo_energy>
-7.181

>  <homo_lumo_gap>
6.746

>  <logP>
1.174

>  <lumo_energy>
-0.435

>  <melting_point>
55.67

>  <molecular_refractivity>
28.58

>  <oscillator_strength_1>
0.0043

>  <oscillator_strength_2>
0.0593

>  <oscillator_strength_3>
0.021

>  <oscillator_strength_4>
0.0076

>  <open_babel_can_smiles>
O[P@@]1(=O)CCC=C1

>  <mulliken_charges>
14
1   -0.093478
2   -0.30352
3   -0.313059
4   -0.526603
5   -0.668639
6   -0.549676
7   0.96956
8   0.150607
9   0.170178
10   0.167912
11   0.170757
12   0.196358
13   0.194806
14   0.434797

>  <lowdin_charges>
14
1   -0.122273
2   -0.271079
3   -0.353447
4   -0.467312
5   -0.59903
6   -0.606962
7   0.995692
8   0.163888
9   0.162749
10   0.16295
11   0.184216
12   0.187375
13   0.185527
14   0.377706

$$$$

