PCCDB-ID:  6663
public computational chemistry database (PCCDB) project, http://pccdb.org

 40 41  0  0  0  0  0  0  0  0999 V2000
    1.4604    0.6828    0.6692 C   0  0  0  0  0  0  0  0  0  0  0  0
    4.2612   -6.2163    1.5670 C   0  0  0  0  0  0  0  0  0  0  0  0
    2.8440   -5.5443    3.5267 C   0  0  0  0  0  0  0  0  0  0  0  0
    5.0275   -1.2717    4.4368 C   0  0  0  0  0  0  0  0  0  0  0  0
    6.7389   -2.2049    2.8542 C   0  0  0  0  0  0  0  0  0  0  0  0
    2.6132   -0.0480   -0.0426 C   0  0  0  0  0  0  0  0  0  0  0  0
    2.3929   -2.5584    0.2805 C   0  0  0  0  0  0  0  0  0  0  0  0
    2.7429   -3.7329    0.9352 C   0  0  0  0  0  0  0  0  0  0  0  0
    5.3192   -5.0001    3.4669 C   0  0  0  0  0  0  0  0  0  0  0  0
    5.3531   -3.7378    4.3219 C   0  0  0  0  0  0  0  0  0  0  0  0
    3.9358   -1.3726    1.6664 C   0  0  0  0  0  0  0  0  0  0  0  0
    2.9958   -1.3470    0.6354 C   0  0  0  0  0  0  0  0  0  0  0  0
    3.6989   -3.7646    1.9648 C   0  0  0  0  0  0  0  0  0  0  0  0
    4.2942   -2.5438    2.3552 C   0  0  0  0  0  0  0  0  0  0  0  0
    4.0283   -5.1151    2.6263 C   0  0  0  0  0  0  0  0  0  0  0  0
    5.3426   -2.4434    3.4790 C   0  0  0  0  0  0  0  0  0  0  0  0
    1.2083    1.6165    0.1528 H   0  0  0  0  0  0  0  0  0  0  0  0
    1.7304    0.9275    1.7028 H   0  0  0  0  0  0  0  0  0  0  0  0
    0.5607    0.0579    0.7012 H   0  0  0  0  0  0  0  0  0  0  0  0
    4.5929   -7.1396    2.0583 H   0  0  0  0  0  0  0  0  0  0  0  0
    5.0342   -5.9175    0.8501 H   0  0  0  0  0  0  0  0  0  0  0  0
    3.3539   -6.4569    1.0035 H   0  0  0  0  0  0  0  0  0  0  0  0
    3.0462   -6.5182    3.9906 H   0  0  0  0  0  0  0  0  0  0  0  0
    1.9216   -5.6342    2.9423 H   0  0  0  0  0  0  0  0  0  0  0  0
    2.6549   -4.8192    4.3251 H   0  0  0  0  0  0  0  0  0  0  0  0
    5.7241   -1.2876    5.2844 H   0  0  0  0  0  0  0  0  0  0  0  0
    4.0092   -1.3499    4.8342 H   0  0  0  0  0  0  0  0  0  0  0  0
    5.1269   -0.2942    3.9542 H   0  0  0  0  0  0  0  0  0  0  0  0
    7.5006   -2.1125    3.6390 H   0  0  0  0  0  0  0  0  0  0  0  0
    6.7508   -1.2831    2.2624 H   0  0  0  0  0  0  0  0  0  0  0  0
    7.0329   -3.0234    2.1890 H   0  0  0  0  0  0  0  0  0  0  0  0
    3.4865    0.6155   -0.0862 H   0  0  0  0  0  0  0  0  0  0  0  0
    2.3231   -0.2490   -1.0818 H   0  0  0  0  0  0  0  0  0  0  0  0
    1.6525   -2.5843   -0.5167 H   0  0  0  0  0  0  0  0  0  0  0  0
    2.2608   -4.6574    0.6307 H   0  0  0  0  0  0  0  0  0  0  0  0
    5.4131   -5.8924    4.1000 H   0  0  0  0  0  0  0  0  0  0  0  0
    6.1870   -5.0111    2.7939 H   0  0  0  0  0  0  0  0  0  0  0  0
    6.2431   -3.7360    4.9649 H   0  0  0  0  0  0  0  0  0  0  0  0
    4.4883   -3.7306    4.9987 H   0  0  0  0  0  0  0  0  0  0  0  0
    4.4109   -0.4347    1.9442 H   0  0  0  0  0  0  0  0  0  0  0  0
  1 19  1  0  0  0  0
  1 18  1  0  0  0  0
  2 20  1  0  0  0  0
  2 15  1  0  0  0  0
  3 23  1  0  0  0  0
  3 25  1  0  0  0  0
  4 27  1  0  0  0  0
  4 26  1  0  0  0  0
  5 16  1  0  0  0  0
  5 29  1  0  0  0  0
  6 12  1  0  0  0  0
  6  1  1  0  0  0  0
  7 12  2  0  0  0  0
  7  8  1  0  0  0  0
  8 13  2  0  0  0  0
  9 36  1  0  0  0  0
  9 10  1  0  0  0  0
 10 38  1  0  0  0  0
 10 39  1  0  0  0  0
 11 40  1  0  0  0  0
 11 14  2  0  0  0  0
 12 11  1  0  0  0  0
 13 14  1  0  0  0  0
 13 15  1  0  0  0  0
 14 16  1  0  0  0  0
 15  9  1  0  0  0  0
 15  3  1  0  0  0  0
 16 10  1  0  0  0  0
 16  4  1  0  0  0  0
 17  1  1  0  0  0  0
 21  2  1  0  0  0  0
 22  2  1  0  0  0  0
 24  3  1  0  0  0  0
 28  4  1  0  0  0  0
 30  5  1  0  0  0  0
 31  5  1  0  0  0  0
 32  6  1  0  0  0  0
 33  6  1  0  0  0  0
 34  7  1  0  0  0  0
 35  8  1  0  0  0  0
 37  9  1  0  0  0  0
M  END
>  <HBA>
0

>  <HBD>
0

>  <TPSA>
0.0

>  <cid>
6663

>  <dipole>
0.21

>  <excitation_energy_1>
5.111

>  <excitation_energy_2>
5.593

>  <excitation_energy_3>
5.663

>  <excitation_energy_4>
5.858

>  <homo_energy>
-6.06

>  <homo_lumo_gap>
6.237

>  <logP>
4.598

>  <lumo_energy>
0.177

>  <melting_point>
48.65

>  <molecular_refractivity>
72.64

>  <oscillator_strength_1>
0.0055

>  <oscillator_strength_2>
0.0446

>  <oscillator_strength_3>
0.0384

>  <oscillator_strength_4>
0.0037

>  <open_babel_can_smiles>
CCc1ccc2c(c1)C(C)(C)CCC2(C)C

>  <mulliken_charges>
40
1   -0.432262
2   -0.451098
3   -0.442994
4   -0.451136
5   -0.442962
6   -0.340307
7   -0.189329
8   -0.189416
9   -0.280718
10   -0.280901
11   -0.256016
12   0.186363
13   0.10731
14   0.1159
15   0.028238
16   0.028101
17   0.141107
18   0.148049
19   0.148279
20   0.137664
21   0.146253
22   0.140873
23   0.136117
24   0.143097
25   0.147077
26   0.137837
27   0.146176
28   0.141165
29   0.136259
30   0.143252
31   0.147474
32   0.140499
33   0.140392
34   0.116046
35   0.118978
36   0.126655
37   0.134244
38   0.126618
39   0.134265
40   0.11285

>  <lowdin_charges>
40
1   -0.439726
2   -0.441441
3   -0.441155
4   -0.439306
5   -0.442181
6   -0.269906
7   -0.171075
8   -0.164394
9   -0.277286
10   -0.276886
11   -0.176222
12   -0.004554
13   -0.01787
14   -0.010035
15   0.012012
16   0.011374
17   0.148055
18   0.148825
19   0.150284
20   0.147441
21   0.151665
22   0.146743
23   0.14458
24   0.149847
25   0.150294
26   0.14772
27   0.150001
28   0.145925
29   0.145619
30   0.14984
31   0.150648
32   0.147792
33   0.146272
34   0.151695
35   0.153418
36   0.143427
37   0.14244
38   0.143386
39   0.142443
40   0.150293

$$$$

