PCCDB-ID:  41013
public computational chemistry database (PCCDB) project, http://pccdb.org

 19 20  0  0  0  0  0  0  0  0999 V2000
    0.9792   -0.0292   -0.0346 C   0  0  0  0  0  0  0  0  0  0  0  0
    3.2601   -1.1371   -0.0376 C   0  0  0  0  0  0  0  0  0  0  0  0
    4.6535   -1.0986   -0.0438 C   0  0  0  0  0  0  0  0  0  0  0  0
    3.1346    1.2884   -0.0466 C   0  0  0  0  0  0  0  0  0  0  0  0
    5.4936    2.4792   -0.0655 C   0  0  0  0  0  0  0  0  0  0  0  0
    2.4888    0.0407   -0.0394 C   0  0  0  0  0  0  0  0  0  0  0  0
    4.5232    1.3258   -0.0536 C   0  0  0  0  0  0  0  0  0  0  0  0
    5.2675    0.1504   -0.0527 C   0  0  0  0  0  0  0  0  0  0  0  0
    6.7059    0.4957   -0.0611 C   0  0  0  0  0  0  0  0  0  0  0  0
    7.6767   -0.2181   -0.0625 O   0  0  0  0  0  0  0  0  0  0  0  0
    6.7982    1.8726   -0.0673 O   0  0  0  0  0  0  0  0  0  0  0  0
    0.6257   -1.0644   -0.0266 H   0  0  0  0  0  0  0  0  0  0  0  0
    0.5556    0.4627   -0.9188 H   0  0  0  0  0  0  0  0  0  0  0  0
    0.5603    0.4749    0.8449 H   0  0  0  0  0  0  0  0  0  0  0  0
    2.7501   -2.0970   -0.0310 H   0  0  0  0  0  0  0  0  0  0  0  0
    5.2498   -2.0062   -0.0419 H   0  0  0  0  0  0  0  0  0  0  0  0
    2.5455    2.2033   -0.0459 H   0  0  0  0  0  0  0  0  0  0  0  0
    5.4118    3.1224    0.8188 H   0  0  0  0  0  0  0  0  0  0  0  0
    5.4036    3.1094   -0.9584 H   0  0  0  0  0  0  0  0  0  0  0  0
  1 12  1  0  0  0  0
  1 14  1  0  0  0  0
  2 15  1  0  0  0  0
  3 16  1  0  0  0  0
  3  2  2  0  0  0  0
  4 17  1  0  0  0  0
  4  6  2  0  0  0  0
  5  7  1  0  0  0  0
  5 18  1  0  0  0  0
  6  2  1  0  0  0  0
  6  1  1  0  0  0  0
  7  8  2  0  0  0  0
  7  4  1  0  0  0  0
  8  3  1  0  0  0  0
  9  8  1  0  0  0  0
 10  9  2  0  0  0  0
 11  5  1  0  0  0  0
 11  9  1  0  0  0  0
 13  1  1  0  0  0  0
 19  5  1  0  0  0  0
M  END
>  <HBA>
2

>  <HBD>
0

>  <TPSA>
26.3

>  <cid>
41013

>  <dipole>
5.56

>  <excitation_energy_1>
4.77

>  <excitation_energy_2>
4.957

>  <excitation_energy_3>
5.391

>  <excitation_energy_4>
5.815

>  <homo_energy>
-7.053

>  <homo_lumo_gap>
5.791

>  <logP>
1.665

>  <lumo_energy>
-1.263

>  <melting_point>
62.18

>  <molecular_refractivity>
40.73

>  <oscillator_strength_1>
0.0

>  <oscillator_strength_2>
0.0262

>  <oscillator_strength_3>
0.1917

>  <oscillator_strength_4>
0.0004

>  <open_babel_can_smiles>
Cc1ccc2c(c1)COC2=O

>  <mulliken_charges>
19
1   -0.532865
2   -0.188066
3   -0.170585
4   -0.244678
5   -0.088345
6   0.180874
7   0.087663
8   0.0391
9   0.571872
10   -0.462445
11   -0.475449
12   0.16269
13   0.170042
14   0.169895
15   0.135193
16   0.163181
17   0.131179
18   0.175319
19   0.175425

>  <lowdin_charges>
19
1   -0.443244
2   -0.164442
3   -0.125057
4   -0.172325
5   -0.121534
6   0.022368
7   -0.009841
8   -0.060641
9   0.195951
10   -0.239265
11   -0.200745
12   0.160009
13   0.166085
14   0.166039
15   0.161139
16   0.176924
17   0.159887
18   0.164353
19   0.16434

$$$$

