PCCDB-ID:  7604
public computational chemistry database (PCCDB) project, http://pccdb.org

 21 21  0  0  0  0  0  0  0  0999 V2000
    3.2584    0.4640   -2.4050 C   0  0  0  0  0  0  0  0  0  0  0  0
    2.2761    4.5086   -0.8585 C   0  0  0  0  0  0  0  0  0  0  0  0
    0.9403    4.8708   -1.0046 C   0  0  0  0  0  0  0  0  0  0  0  0
    2.6476    3.1804   -0.6478 C   0  0  0  0  0  0  0  0  0  0  0  0
    0.3055    2.5546   -0.7010 C   0  0  0  0  0  0  0  0  0  0  0  0
    2.6752    0.1304   -1.0487 C   0  0  0  0  0  0  0  0  0  0  0  0
   -0.0632    3.8883   -0.9234 C   0  0  0  0  0  0  0  0  0  0  0  0
    1.6524    2.1898   -0.5755 C   0  0  0  0  0  0  0  0  0  0  0  0
   -1.4141    4.2464   -0.9994 N   0  0  0  0  0  0  0  0  0  0  0  0
    1.9562    0.8485   -0.2910 N   0  0  0  0  0  0  0  0  0  0  0  0
    2.9422   -1.1345   -0.6064 O   0  0  0  0  0  0  0  0  0  0  0  0
    2.9100   -0.2626   -3.1506 H   0  0  0  0  0  0  0  0  0  0  0  0
    4.3542    0.4150   -2.3789 H   0  0  0  0  0  0  0  0  0  0  0  0
    2.9656    1.4647   -2.7241 H   0  0  0  0  0  0  0  0  0  0  0  0
    3.0438    5.2770   -0.9087 H   0  0  0  0  0  0  0  0  0  0  0  0
    0.6657    5.9110   -1.1631 H   0  0  0  0  0  0  0  0  0  0  0  0
    3.6889    2.9078   -0.5061 H   0  0  0  0  0  0  0  0  0  0  0  0
   -0.4543    1.7823   -0.6132 H   0  0  0  0  0  0  0  0  0  0  0  0
   -1.5986    5.0951   -1.5200 H   0  0  0  0  0  0  0  0  0  0  0  0
   -2.0357    3.4987   -1.2823 H   0  0  0  0  0  0  0  0  0  0  0  0
    3.4657   -1.6013   -1.2756 H   0  0  0  0  0  0  0  0  0  0  0  0
  1 13  1  0  0  0  0
  1  6  1  0  0  0  0
  2  4  2  0  0  0  0
  3  7  2  0  0  0  0
  3  2  1  0  0  0  0
  4  8  1  0  0  0  0
  4 17  1  0  0  0  0
  5 18  1  0  0  0  0
  5  8  2  0  0  0  0
  6 11  1  0  0  0  0
  6 10  2  0  0  0  0
  7  5  1  0  0  0  0
  8 10  1  0  0  0  0
  9  7  1  0  0  0  0
 12  1  1  0  0  0  0
 14  1  1  0  0  0  0
 15  2  1  0  0  0  0
 16  3  1  0  0  0  0
 19  9  1  0  0  0  0
 20  9  1  0  0  0  0
 21 11  1  0  0  0  0
M  END
>  <HBA>
3

>  <HBD>
2

>  <TPSA>
55.12

>  <cid>
7604

>  <dipole>
4.48

>  <excitation_energy_1>
4.42

>  <excitation_energy_2>
4.637

>  <excitation_energy_3>
4.766

>  <excitation_energy_4>
4.85

>  <homo_energy>
-5.236

>  <homo_lumo_gap>
5.268

>  <logP>
1.881

>  <lumo_energy>
0.033

>  <melting_point>
108.75

>  <molecular_refractivity>
45.16

>  <oscillator_strength_1>
0.066

>  <oscillator_strength_2>
0.0038

>  <oscillator_strength_3>
0.0042

>  <oscillator_strength_4>
0.0478

>  <open_babel_can_smiles>
Nc1cccc(c1)/N=C(/O)\C

>  <mulliken_charges>
21
1   -0.554944
2   -0.143042
3   -0.175876
4   -0.170424
5   -0.207379
6   0.481508
7   0.309874
8   0.236708
9   -0.788732
10   -0.466506
11   -0.57149
12   0.167964
13   0.173702
14   0.199781
15   0.122839
16   0.110628
17   0.115708
18   0.118264
19   0.316906
20   0.318152
21   0.406358

>  <lowdin_charges>
21
1   -0.482942
2   -0.145161
3   -0.215344
4   -0.218737
5   -0.222205
6   0.147031
7   0.065627
8   0.05813
9   -0.491915
10   -0.170121
11   -0.365413
12   0.167082
13   0.167024
14   0.184615
15   0.15599
16   0.149449
17   0.152779
18   0.158355
19   0.273918
20   0.275321
21   0.356516

$$$$

