PCCDB-ID:  17616
public computational chemistry database (PCCDB) project, http://pccdb.org

 28 28  0  0  1  0  0  0  0  0999 V2000
    0.8775    0.0607    0.1535 C   0  0  0  0  0  0  0  0  0  0  0  0
    2.4814    3.2514    1.0280 C   0  0  0  0  0  0  0  0  0  0  0  0
    2.8214    3.3295   -1.4572 C   0  0  0  0  0  0  0  0  0  0  0  0
    5.7892    3.2086   -0.8172 C   0  0  0  0  0  0  0  0  0  0  0  0
    5.8594    4.7171   -0.7574 C   0  0  0  0  0  0  0  0  0  0  0  0
    4.7265    1.0176    0.1145 C   0  0  0  0  0  0  0  0  0  0  0  0
    2.2775    0.3331    0.6788 C   0  0  0  0  0  0  0  0  0  0  0  0
    4.7958    2.5688    0.1472 C   0  0  2  0  0  0  0  0  0  0  0  0
    3.2270    1.0577   -0.2567 C   0  0  1  0  0  0  0  0  0  0  0  0
    3.2489    2.6518   -0.1539 C   0  0  0  0  0  0  0  0  0  0  0  0
    5.1632    5.4202   -0.0564 O   0  0  0  0  0  0  0  0  0  0  0  0
    2.6091   -0.0031    1.8026 O   0  0  0  0  0  0  0  0  0  0  0  0
    0.4498    0.9539   -0.3175 H   0  0  0  0  0  0  0  0  0  0  0  0
    0.2319   -0.2793    0.9661 H   0  0  0  0  0  0  0  0  0  0  0  0
    0.9201   -0.7173   -0.6204 H   0  0  0  0  0  0  0  0  0  0  0  0
    2.7602    4.3052    1.1377 H   0  0  0  0  0  0  0  0  0  0  0  0
    2.7174    2.7381    1.9659 H   0  0  0  0  0  0  0  0  0  0  0  0
    1.3953    3.1992    0.8785 H   0  0  0  0  0  0  0  0  0  0  0  0
    2.9978    4.4097   -1.4149 H   0  0  0  0  0  0  0  0  0  0  0  0
    1.7486    3.1744   -1.6295 H   0  0  0  0  0  0  0  0  0  0  0  0
    3.3495    2.9272   -2.3299 H   0  0  0  0  0  0  0  0  0  0  0  0
    6.8062    2.8352   -0.6105 H   0  0  0  0  0  0  0  0  0  0  0  0
    5.6043    2.9274   -1.8656 H   0  0  0  0  0  0  0  0  0  0  0  0
    6.6290    5.1743   -1.4210 H   0  0  0  0  0  0  0  0  0  0  0  0
    4.9006    0.5420    1.0826 H   0  0  0  0  0  0  0  0  0  0  0  0
    5.3658    0.5394   -0.6355 H   0  0  0  0  0  0  0  0  0  0  0  0
    5.0099    2.9551    1.1492 H   0  0  0  0  0  0  0  0  0  0  0  0
    3.0195    0.7460   -1.2872 H   0  0  0  0  0  0  0  0  0  0  0  0
  1  7  1  0  0  0  0
  1 14  1  0  0  0  0
  2 16  1  0  0  0  0
  2 17  1  0  0  0  0
  3 19  1  0  0  0  0
  3 10  1  0  0  0  0
  4  5  1  0  0  0  0
  4 22  1  0  0  0  0
  4  8  1  0  0  0  0
  5 11  2  0  0  0  0
  6  8  1  0  0  0  0
  6 25  1  0  0  0  0
  7 12  2  0  0  0  0
  8 27  1  1  0  0  0
  9 28  1  6  0  0  0
  9 10  1  0  0  0  0
  9  6  1  0  0  0  0
  9  7  1  0  0  0  0
 10  8  1  0  0  0  0
 10  2  1  0  0  0  0
 13  1  1  0  0  0  0
 15  1  1  0  0  0  0
 18  2  1  0  0  0  0
 20  3  1  0  0  0  0
 21  3  1  0  0  0  0
 23  4  1  0  0  0  0
 24  5  1  0  0  0  0
 26  6  1  0  0  0  0
M  END
>  <HBA>
2

>  <HBD>
0

>  <TPSA>
34.14

>  <cid>
17616

>  <dipole>
3.6

>  <excitation_energy_1>
4.293

>  <excitation_energy_2>
4.309

>  <excitation_energy_3>
5.204

>  <excitation_energy_4>
6.002

>  <homo_energy>
-6.531

>  <homo_lumo_gap>
5.821

>  <logP>
1.827

>  <lumo_energy>
-0.71

>  <melting_point>
65.16

>  <molecular_refractivity>
48.21

>  <oscillator_strength_1>
0.0002

>  <oscillator_strength_2>
0.0004

>  <oscillator_strength_3>
0.0005

>  <oscillator_strength_4>
0.0196

>  <open_babel_can_smiles>
O=CC[C@@H]1C[C@H](C1(C)C)C(=O)C

>  <mulliken_charges>
28
1   -0.533129
2   -0.486584
3   -0.47787
4   -0.36892
5   0.257385
6   -0.299142
7   0.4592
8   -0.085907
9   -0.200989
10   0.131747
11   -0.383699
12   -0.449494
13   0.166889
14   0.178282
15   0.170531
16   0.172611
17   0.162772
18   0.134026
19   0.165379
20   0.14273
21   0.133667
22   0.167143
23   0.161303
24   0.106846
25   0.171566
26   0.131734
27   0.144983
28   0.126941

>  <lowdin_charges>
28
1   -0.476463
2   -0.44912
3   -0.446079
4   -0.313385
5   0.058833
6   -0.285141
7   0.164606
8   -0.127549
9   -0.171441
10   0.026557
11   -0.222397
12   -0.242537
13   0.166157
14   0.172806
15   0.172068
16   0.163781
17   0.158724
18   0.142385
19   0.158863
20   0.148534
21   0.142641
22   0.168227
23   0.161662
24   0.118225
25   0.164789
26   0.145068
27   0.152695
28   0.147491

$$$$

