PCCDB-ID:  1029
public computational chemistry database (PCCDB) project, http://pccdb.org

 25 24  0  0  1  0  0  0  0  0999 V2000
    1.4887   -0.0780    0.1121 C   0  0  0  0  0  0  0  0  0  0  0  0
    2.1567   -1.2653   -0.5944 C   0  0  0  0  0  0  0  0  0  0  0  0
    1.8377    2.0005    1.5393 C   0  0  0  0  0  0  0  0  0  0  0  0
    2.4976    0.7998    0.8464 C   0  0  1  0  0  0  0  0  0  0  0  0
    1.1818   -2.2572   -1.2520 C   0  0  1  0  0  0  0  0  0  0  0  0
    0.4976   -1.6945   -2.5213 C   0  0  0  0  0  0  0  0  0  0  0  0
    2.8534    2.6731    2.3673 N   0  0  0  0  0  0  0  0  0  0  0  0
    1.7796   -3.5653   -1.6025 N   0  0  0  0  0  0  0  0  0  0  0  0
    3.1728    0.0168    1.8202 O   0  0  0  0  0  0  0  0  0  0  0  0
    0.1810   -0.5347   -2.6612 O   0  0  0  0  0  0  0  0  0  0  0  0
    0.2541   -2.6278   -3.4542 O   0  0  0  0  0  0  0  0  0  0  0  0
    0.7641   -0.4549    0.8486 H   0  0  0  0  0  0  0  0  0  0  0  0
    0.9364    0.5196   -0.6190 H   0  0  0  0  0  0  0  0  0  0  0  0
    2.7503   -1.8156    0.1449 H   0  0  0  0  0  0  0  0  0  0  0  0
    2.8580   -0.8955   -1.3563 H   0  0  0  0  0  0  0  0  0  0  0  0
    1.0563    1.6280    2.2121 H   0  0  0  0  0  0  0  0  0  0  0  0
    1.3565    2.6539    0.7944 H   0  0  0  0  0  0  0  0  0  0  0  0
    3.2269    1.1920    0.1093 H   0  0  0  0  0  0  0  0  0  0  0  0
    0.3634   -2.4685   -0.5494 H   0  0  0  0  0  0  0  0  0  0  0  0
    2.4144    3.2773    3.0577 H   0  0  0  0  0  0  0  0  0  0  0  0
    3.4401    3.2718    1.7878 H   0  0  0  0  0  0  0  0  0  0  0  0
    1.8454   -4.1633   -0.7820 H   0  0  0  0  0  0  0  0  0  0  0  0
    2.7329   -3.4311   -1.9402 H   0  0  0  0  0  0  0  0  0  0  0  0
    3.5322    0.6790    2.4447 H   0  0  0  0  0  0  0  0  0  0  0  0
    0.6606   -3.4564   -3.0915 H   0  0  0  0  0  0  0  0  0  0  0  0
  1  4  1  0  0  0  0
  1 12  1  0  0  0  0
  2  1  1  0  0  0  0
  2 14  1  0  0  0  0
  3 16  1  0  0  0  0
  3  7  1  0  0  0  0
  4 18  1  6  0  0  0
  4  3  1  0  0  0  0
  4  9  1  0  0  0  0
  5  2  1  0  0  0  0
  5 19  1  1  0  0  0
  6  5  1  0  0  0  0
  7 20  1  0  0  0  0
  8  5  1  0  0  0  0
  8 22  1  0  0  0  0
  9 24  1  0  0  0  0
 10  6  2  0  0  0  0
 11 25  1  0  0  0  0
 11  6  1  0  0  0  0
 13  1  1  0  0  0  0
 15  2  1  0  0  0  0
 17  3  1  0  0  0  0
 21  7  1  0  0  0  0
 23  8  1  0  0  0  0
M  END
>  <HBA>
5

>  <HBD>
4

>  <TPSA>
109.57

>  <cid>
1029

>  <dipole>
3.63

>  <excitation_energy_1>
5.398

>  <excitation_energy_2>
5.934

>  <excitation_energy_3>
6.117

>  <excitation_energy_4>
6.179

>  <homo_energy>
-6.702

>  <homo_lumo_gap>
7.176

>  <logP>
-0.101

>  <lumo_energy>
0.473

>  <melting_point>
177.71

>  <molecular_refractivity>
39.3

>  <oscillator_strength_1>
0.0017

>  <oscillator_strength_2>
0.0059

>  <oscillator_strength_3>
0.0065

>  <oscillator_strength_4>
0.0113

>  <open_babel_can_smiles>
NC[C@H](CC[C@@H](C(=O)O)N)O

>  <mulliken_charges>
25
1   -0.27612
2   -0.266885
3   -0.16825
4   0.161169
5   -0.094108
6   0.606584
7   -0.747721
8   -0.772557
9   -0.654878
10   -0.463458
11   -0.580322
12   0.127114
13   0.176105
14   0.159669
15   0.136362
16   0.147679
17   0.130709
18   0.098092
19   0.173776
20   0.312282
21   0.306816
22   0.325101
23   0.322001
24   0.408907
25   0.431933

>  <lowdin_charges>
25
1   -0.28938
2   -0.283174
3   -0.229455
4   -0.008273
5   -0.110191
6   0.17365
7   -0.55863
8   -0.543829
9   -0.483881
10   -0.259007
11   -0.356811
12   0.142316
13   0.167702
14   0.157356
15   0.146235
16   0.149161
17   0.134386
18   0.116258
19   0.165856
20   0.265934
21   0.261143
22   0.272671
23   0.266317
24   0.344207
25   0.359437

$$$$

