PCCDB-ID:  57770
public computational chemistry database (PCCDB) project, http://pccdb.org

 35 35  0  0  0  0  0  0  0  0999 V2000
    3.7950    1.3228   -0.2246 C   0  0  0  0  0  0  0  0  0  0  0  0
    5.3583    2.7943   -1.5895 C   0  0  0  0  0  0  0  0  0  0  0  0
    1.7386   -5.5683   -5.5197 C   0  0  0  0  0  0  0  0  0  0  0  0
    2.3058    0.6132   -7.0088 C   0  0  0  0  0  0  0  0  0  0  0  0
    3.8247   -3.0543   -3.8966 C   0  0  0  0  0  0  0  0  0  0  0  0
    3.5487   -0.8830   -4.9603 C   0  0  0  0  0  0  0  0  0  0  0  0
    2.3198   -2.8188   -5.7856 C   0  0  0  0  0  0  0  0  0  0  0  0
    4.0877    1.9415   -1.5994 C   0  0  0  0  0  0  0  0  0  0  0  0
    4.1394   -1.6955   -3.9705 C   0  0  0  0  0  0  0  0  0  0  0  0
    2.9089   -3.6121   -4.8031 C   0  0  0  0  0  0  0  0  0  0  0  0
    2.6487   -1.4548   -5.8600 C   0  0  0  0  0  0  0  0  0  0  0  0
    5.1446   -1.1314   -3.0283 C   0  0  0  0  0  0  0  0  0  0  0  0
    4.1637    0.9391   -2.6830 N   0  0  0  0  0  0  0  0  0  0  0  0
    5.1756    0.0166   -2.4690 N   0  0  0  0  0  0  0  0  0  0  0  0
    6.1707   -1.9802   -2.6731 O   0  0  0  0  0  0  0  0  0  0  0  0
    2.6602   -4.9421   -4.6395 O   0  0  0  0  0  0  0  0  0  0  0  0
    2.0278   -0.7727   -6.8642 O   0  0  0  0  0  0  0  0  0  0  0  0
    3.7043    2.0993    0.5442 H   0  0  0  0  0  0  0  0  0  0  0  0
    4.6026    0.6420    0.0630 H   0  0  0  0  0  0  0  0  0  0  0  0
    2.8571    0.7534   -0.2391 H   0  0  0  0  0  0  0  0  0  0  0  0
    5.2722    3.5998   -0.8515 H   0  0  0  0  0  0  0  0  0  0  0  0
    5.5291    3.2395   -2.5751 H   0  0  0  0  0  0  0  0  0  0  0  0
    6.2283    2.1814   -1.3366 H   0  0  0  0  0  0  0  0  0  0  0  0
    1.6925   -6.6134   -5.2087 H   0  0  0  0  0  0  0  0  0  0  0  0
    2.0771   -5.5139   -6.5625 H   0  0  0  0  0  0  0  0  0  0  0  0
    0.7393   -5.1210   -5.4406 H   0  0  0  0  0  0  0  0  0  0  0  0
    1.7028    0.9504   -7.8537 H   0  0  0  0  0  0  0  0  0  0  0  0
    3.3670    0.7906   -7.2249 H   0  0  0  0  0  0  0  0  0  0  0  0
    2.0222    1.1769   -6.1109 H   0  0  0  0  0  0  0  0  0  0  0  0
    4.2502   -3.6906   -3.1282 H   0  0  0  0  0  0  0  0  0  0  0  0
    3.8226    0.1619   -5.0190 H   0  0  0  0  0  0  0  0  0  0  0  0
    1.6111   -3.2106   -6.5041 H   0  0  0  0  0  0  0  0  0  0  0  0
    3.2420    2.5812   -1.8871 H   0  0  0  0  0  0  0  0  0  0  0  0
    3.2527    0.4956   -2.8246 H   0  0  0  0  0  0  0  0  0  0  0  0
    6.2711   -2.6346   -3.3825 H   0  0  0  0  0  0  0  0  0  0  0  0
  1 19  1  0  0  0  0
  1 18  1  0  0  0  0
  2 23  1  0  0  0  0
  2 21  1  0  0  0  0
  3 26  1  0  0  0  0
  3 24  1  0  0  0  0
  3 16  1  0  0  0  0
  4 17  1  0  0  0  0
  4 29  1  0  0  0  0
  5 30  1  0  0  0  0
  6  9  2  0  0  0  0
  7 10  1  0  0  0  0
  8  2  1  0  0  0  0
  8  1  1  0  0  0  0
  9  5  1  0  0  0  0
  9 12  1  0  0  0  0
 10 16  1  0  0  0  0
 10  5  2  0  0  0  0
 11  7  2  0  0  0  0
 11  6  1  0  0  0  0
 12 15  1  0  0  0  0
 12 14  2  0  0  0  0
 13 14  1  0  0  0  0
 13  8  1  0  0  0  0
 17 11  1  0  0  0  0
 20  1  1  0  0  0  0
 22  2  1  0  0  0  0
 25  3  1  0  0  0  0
 27  4  1  0  0  0  0
 28  4  1  0  0  0  0
 31  6  1  0  0  0  0
 32  7  1  0  0  0  0
 33  8  1  0  0  0  0
 34 13  1  0  0  0  0
 35 15  1  0  0  0  0
M  END
>  <HBA>
5

>  <HBD>
2

>  <TPSA>
59.59

>  <cid>
57770

>  <dipole>
4.18

>  <excitation_energy_1>
3.763

>  <excitation_energy_2>
4.421

>  <excitation_energy_3>
4.662

>  <excitation_energy_4>
4.759

>  <homo_energy>
-5.192

>  <homo_lumo_gap>
4.43

>  <logP>
2.128

>  <lumo_energy>
-0.762

>  <melting_point>
103.46

>  <molecular_refractivity>
64.84

>  <oscillator_strength_1>
0.1461

>  <oscillator_strength_2>
0.0195

>  <oscillator_strength_3>
0.0212

>  <oscillator_strength_4>
0.0464

>  <open_babel_can_smiles>
COc1cc(OC)cc(c1)/C(=N\NC(C)C)/O

>  <mulliken_charges>
35
1   -0.44676
2   -0.435088
3   -0.216642
4   -0.217555
5   -0.254561
6   -0.268435
7   -0.25356
8   0.052778
9   0.04628
10   0.392133
11   0.387044
12   0.417541
13   -0.433801
14   -0.299427
15   -0.598101
16   -0.510558
17   -0.511697
18   0.138019
19   0.17211
20   0.130011
21   0.133149
22   0.144591
23   0.172677
24   0.172916
25   0.155327
26   0.155899
27   0.170766
28   0.159216
29   0.156602
30   0.150342
31   0.173176
32   0.143891
33   0.120833
34   0.299014
35   0.401865

>  <lowdin_charges>
35
1   -0.461921
2   -0.449282
3   -0.27451
4   -0.276071
5   -0.215562
6   -0.239216
7   -0.23687
8   -0.05821
9   -0.029608
10   0.112431
11   0.112563
12   0.085731
13   -0.265834
14   -0.128411
15   -0.382713
16   -0.195127
17   -0.198012
18   0.150064
19   0.163548
20   0.143292
21   0.147366
22   0.15197
23   0.164235
24   0.163161
25   0.145783
26   0.146733
27   0.164366
28   0.147832
29   0.148663
30   0.173744
31   0.178053
32   0.17429
33   0.136831
34   0.246908
35   0.353781

$$$$

