PCCDB-ID:  18731
public computational chemistry database (PCCDB) project, http://pccdb.org

 15 15  0  0  0  0  0  0  0  0999 V2000
   -1.2668    0.0736    0.2618 C   0  0  0  0  0  0  0  0  0  0  0  0
   -0.5092   -1.1067   -0.0104 C   0  0  0  0  0  0  0  0  0  0  0  0
   -0.3931    1.1165    0.1694 C   0  0  0  0  0  0  0  0  0  0  0  0
    0.7716   -0.6972   -0.2502 C   0  0  0  0  0  0  0  0  0  0  0  0
    1.9832   -1.4686   -0.5794 C   0  0  0  0  0  0  0  0  0  0  0  0
    4.3705   -1.3459   -0.9528 N   0  0  0  0  0  0  0  0  0  0  0  0
    3.1157   -0.7278   -0.7865 N   0  0  0  0  0  0  0  0  0  0  0  0
    1.9667   -2.6943   -0.6647 O   0  0  0  0  0  0  0  0  0  0  0  0
    0.8544    0.6705   -0.1421 O   0  0  0  0  0  0  0  0  0  0  0  0
   -2.3204    0.1380    0.4948 H   0  0  0  0  0  0  0  0  0  0  0  0
   -0.8511   -2.1310   -0.0299 H   0  0  0  0  0  0  0  0  0  0  0  0
   -0.4922    2.1848    0.2890 H   0  0  0  0  0  0  0  0  0  0  0  0
    4.3850   -1.7518   -1.8898 H   0  0  0  0  0  0  0  0  0  0  0  0
    4.3924   -2.1474   -0.3186 H   0  0  0  0  0  0  0  0  0  0  0  0
    3.1457    0.2505   -0.5366 H   0  0  0  0  0  0  0  0  0  0  0  0
  1 10  1  0  0  0  0
  2  1  1  0  0  0  0
  3  1  2  0  0  0  0
  3 12  1  0  0  0  0
  4  9  1  0  0  0  0
  4  2  2  0  0  0  0
  5  4  1  0  0  0  0
  6  7  1  0  0  0  0
  6 14  1  0  0  0  0
  7  5  1  0  0  0  0
  7 15  1  0  0  0  0
  8  5  2  0  0  0  0
  9  3  1  0  0  0  0
 11  2  1  0  0  0  0
 13  6  1  0  0  0  0
M  END
>  <HBA>
4

>  <HBD>
2

>  <TPSA>
68.26

>  <cid>
18731

>  <dipole>
2.67

>  <excitation_energy_1>
4.817

>  <excitation_energy_2>
5.143

>  <excitation_energy_3>
5.473

>  <excitation_energy_4>
5.931

>  <homo_energy>
-6.52

>  <homo_lumo_gap>
5.584

>  <logP>
0.974

>  <lumo_energy>
-0.936

>  <melting_point>
119.53

>  <molecular_refractivity>
29.6

>  <oscillator_strength_1>
0.0007

>  <oscillator_strength_2>
0.3297

>  <oscillator_strength_3>
0.069

>  <oscillator_strength_4>
0.0093

>  <open_babel_can_smiles>
NNC(=O)c1ccco1

>  <mulliken_charges>
15
1   -0.188961
2   -0.167818
3   0.098347
4   0.286578
5   0.544324
6   -0.557027
7   -0.511036
8   -0.531488
9   -0.465372
10   0.15247
11   0.170389
12   0.165228
13   0.327211
14   0.326357
15   0.350798

>  <lowdin_charges>
15
1   -0.19698
2   -0.164538
3   -0.062013
4   0.03214
5   0.13638
6   -0.451648
7   -0.228335
8   -0.314318
9   -0.10637
10   0.173287
11   0.185582
12   0.173644
13   0.266407
14   0.266882
15   0.289881

$$$$

