PCCDB-ID:  14046
public computational chemistry database (PCCDB) project, http://pccdb.org

 22 21  0  0  0  0  0  0  0  0999 V2000
    0.5952    0.0815    0.2059 C   0  0  0  0  0  0  0  0  0  0  0  0
    2.3105   -1.5918    1.0498 C   0  0  0  0  0  0  0  0  0  0  0  0
    7.2281    1.7826    0.8893 C   0  0  0  0  0  0  0  0  0  0  0  0
    6.9569   -0.4913    0.0929 C   0  0  0  0  0  0  0  0  0  0  0  0
    2.9396    0.1837   -0.6498 C   0  0  0  0  0  0  0  0  0  0  0  0
    2.0702   -0.1567    0.5629 C   0  0  0  0  0  0  0  0  0  0  0  0
    6.4421    0.8138    0.3937 C   0  0  0  0  0  0  0  0  0  0  0  0
    4.9852    1.1077    0.1482 C   0  0  0  0  0  0  0  0  0  0  0  0
    7.3909   -1.5438   -0.1431 N   0  0  0  0  0  0  0  0  0  0  0  0
    4.4754    2.1823    0.3840 O   0  0  0  0  0  0  0  0  0  0  0  0
    4.3556    0.0393   -0.3611 O   0  0  0  0  0  0  0  0  0  0  0  0
   -0.0479   -0.1325    1.0664 H   0  0  0  0  0  0  0  0  0  0  0  0
    0.2755   -0.5724   -0.6158 H   0  0  0  0  0  0  0  0  0  0  0  0
    0.4142    1.1193   -0.0973 H   0  0  0  0  0  0  0  0  0  0  0  0
    1.7188   -1.8006    1.9481 H   0  0  0  0  0  0  0  0  0  0  0  0
    3.3644   -1.7640    1.2894 H   0  0  0  0  0  0  0  0  0  0  0  0
    2.0185   -2.3195    0.2814 H   0  0  0  0  0  0  0  0  0  0  0  0
    8.2831    1.6212    1.0816 H   0  0  0  0  0  0  0  0  0  0  0  0
    6.7982    2.7555    1.1037 H   0  0  0  0  0  0  0  0  0  0  0  0
    2.7590    1.2058   -0.9914 H   0  0  0  0  0  0  0  0  0  0  0  0
    2.7628   -0.5162   -1.4714 H   0  0  0  0  0  0  0  0  0  0  0  0
    2.3459    0.5427    1.3636 H   0  0  0  0  0  0  0  0  0  0  0  0
  1  6  1  0  0  0  0
  1 12  1  0  0  0  0
  2 16  1  0  0  0  0
  2 15  1  0  0  0  0
  3 18  1  0  0  0  0
  3 19  1  0  0  0  0
  4  7  1  0  0  0  0
  5 11  1  0  0  0  0
  5  6  1  0  0  0  0
  6  2  1  0  0  0  0
  6 22  1  0  0  0  0
  7  3  2  0  0  0  0
  8 10  2  0  0  0  0
  8  7  1  0  0  0  0
  9  4  3  0  0  0  0
 11  8  1  0  0  0  0
 13  1  1  0  0  0  0
 14  1  1  0  0  0  0
 17  2  1  0  0  0  0
 20  5  1  0  0  0  0
 21  5  1  0  0  0  0
M  END
>  <HBA>
3

>  <HBD>
0

>  <TPSA>
50.09

>  <cid>
14046

>  <dipole>
2.5

>  <excitation_energy_1>
4.494

>  <excitation_energy_2>
5.383

>  <excitation_energy_3>
5.608

>  <excitation_energy_4>
5.842

>  <homo_energy>
-7.981

>  <homo_lumo_gap>
5.75

>  <logP>
1.265

>  <lumo_energy>
-2.231

>  <melting_point>
1.27

>  <molecular_refractivity>
41.13

>  <oscillator_strength_1>
0.0003

>  <oscillator_strength_2>
0.0063

>  <oscillator_strength_3>
0.2593

>  <oscillator_strength_4>
0.0011

>  <open_babel_can_smiles>
CC(COC(=O)C(=C)C#N)C

>  <mulliken_charges>
22
1   -0.452906
2   -0.445761
3   -0.319036
4   0.286653
5   -0.046605
6   -0.101032
7   0.091466
8   0.632764
9   -0.4724
10   -0.480299
11   -0.469173
12   0.15392
13   0.144246
14   0.151319
15   0.146968
16   0.16252
17   0.142366
18   0.190858
19   0.203085
20   0.171885
21   0.157827
22   0.151334

>  <lowdin_charges>
22
1   -0.444161
2   -0.447352
3   -0.224282
4   -0.010675
5   -0.128863
6   -0.133324
7   -0.045675
8   0.199512
9   -0.102721
10   -0.259641
11   -0.16812
12   0.157423
13   0.149149
14   0.152104
15   0.152834
16   0.15706
17   0.148909
18   0.184574
19   0.193404
20   0.160891
21   0.157343
22   0.15161

$$$$

