PCCDB-ID:  14310
public computational chemistry database (PCCDB) project, http://pccdb.org

 26 26  0  0  0  0  0  0  0  0999 V2000
    0.4827   -2.2800   -2.5543 C   0  0  0  0  0  0  0  0  0  0  0  0
    2.0018   -2.1261   -2.4325 C   0  0  0  0  0  0  0  0  0  0  0  0
    2.4173   -0.8095   -1.7625 C   0  0  0  0  0  0  0  0  0  0  0  0
    8.7065    0.0684   -3.4819 C   0  0  0  0  0  0  0  0  0  0  0  0
    7.8031    0.2862   -4.5270 C   0  0  0  0  0  0  0  0  0  0  0  0
    8.2125   -0.3317   -2.2413 C   0  0  0  0  0  0  0  0  0  0  0  0
    6.4388    0.1028   -4.3356 C   0  0  0  0  0  0  0  0  0  0  0  0
    6.8440   -0.5134   -2.0335 C   0  0  0  0  0  0  0  0  0  0  0  0
    3.9315   -0.6180   -1.6323 C   0  0  0  0  0  0  0  0  0  0  0  0
    5.9322   -0.3039   -3.0843 C   0  0  0  0  0  0  0  0  0  0  0  0
    4.5613   -0.5177   -2.9412 N   0  0  0  0  0  0  0  0  0  0  0  0
    0.2159   -3.2297   -3.0315 H   0  0  0  0  0  0  0  0  0  0  0  0
    0.0476   -1.4723   -3.1561 H   0  0  0  0  0  0  0  0  0  0  0  0
   -0.0012   -2.2548   -1.5699 H   0  0  0  0  0  0  0  0  0  0  0  0
    2.4646   -2.1930   -3.4246 H   0  0  0  0  0  0  0  0  0  0  0  0
    2.4115   -2.9646   -1.8519 H   0  0  0  0  0  0  0  0  0  0  0  0
    1.9799   -0.7542   -0.7565 H   0  0  0  0  0  0  0  0  0  0  0  0
    1.9927    0.0407   -2.3195 H   0  0  0  0  0  0  0  0  0  0  0  0
    9.7723    0.2113   -3.6338 H   0  0  0  0  0  0  0  0  0  0  0  0
    8.1641    0.6021   -5.5028 H   0  0  0  0  0  0  0  0  0  0  0  0
    8.8966   -0.5012   -1.4133 H   0  0  0  0  0  0  0  0  0  0  0  0
    5.7464    0.2681   -5.1591 H   0  0  0  0  0  0  0  0  0  0  0  0
    6.4899   -0.8158   -1.0539 H   0  0  0  0  0  0  0  0  0  0  0  0
    4.3574   -1.4815   -1.1052 H   0  0  0  0  0  0  0  0  0  0  0  0
    4.1419    0.2689   -1.0084 H   0  0  0  0  0  0  0  0  0  0  0  0
    4.0048   -0.0032   -3.6140 H   0  0  0  0  0  0  0  0  0  0  0  0
  1  2  1  0  0  0  0
  1 14  1  0  0  0  0
  2 16  1  0  0  0  0
  2  3  1  0  0  0  0
  3  9  1  0  0  0  0
  3 17  1  0  0  0  0
  4  6  2  0  0  0  0
  5  7  2  0  0  0  0
  5  4  1  0  0  0  0
  6  8  1  0  0  0  0
  6 21  1  0  0  0  0
  7 10  1  0  0  0  0
  8 23  1  0  0  0  0
  9 24  1  0  0  0  0
  9 25  1  0  0  0  0
 10 11  1  0  0  0  0
 10  8  2  0  0  0  0
 11  9  1  0  0  0  0
 12  1  1  0  0  0  0
 13  1  1  0  0  0  0
 15  2  1  0  0  0  0
 18  3  1  0  0  0  0
 19  4  1  0  0  0  0
 20  5  1  0  0  0  0
 22  7  1  0  0  0  0
 26 11  1  0  0  0  0
M  END
>  <HBA>
1

>  <HBD>
1

>  <TPSA>
12.03

>  <cid>
14310

>  <dipole>
1.78

>  <excitation_energy_1>
4.556

>  <excitation_energy_2>
4.782

>  <excitation_energy_3>
4.982

>  <excitation_energy_4>
5.207

>  <homo_energy>
-5.159

>  <homo_lumo_gap>
5.478

>  <logP>
2.972

>  <lumo_energy>
0.318

>  <melting_point>
35.88

>  <molecular_refractivity>
50.17

>  <oscillator_strength_1>
0.035

>  <oscillator_strength_2>
0.0068

>  <oscillator_strength_3>
0.0244

>  <oscillator_strength_4>
0.0333

>  <open_babel_can_smiles>
CCCCNc1ccccc1

>  <mulliken_charges>
26
1   -0.442584
2   -0.242251
3   -0.283936
4   -0.138425
5   -0.133935
6   -0.138526
7   -0.189344
8   -0.18343
9   -0.106679
10   0.356967
11   -0.66009
12   0.145825
13   0.140185
14   0.141553
15   0.147505
16   0.134277
17   0.139269
18   0.127634
19   0.118253
20   0.122533
21   0.12224
22   0.11163
23   0.121827
24   0.148736
25   0.132187
26   0.308576

>  <lowdin_charges>
26
1   -0.44548
2   -0.274495
3   -0.279997
4   -0.188321
5   -0.147515
6   -0.147588
7   -0.202356
8   -0.210574
9   -0.196431
10   0.06095
11   -0.30323
12   0.151532
13   0.146646
14   0.145787
15   0.146366
16   0.142753
17   0.147384
18   0.137671
19   0.151944
20   0.154333
21   0.155136
22   0.150459
23   0.156098
24   0.146642
25   0.13145
26   0.270834

$$$$

