PCCDB-ID:  33937
public computational chemistry database (PCCDB) project, http://pccdb.org

 22 22  0  0  0  0  0  0  0  0999 V2000
    1.8426   -0.2296    1.3476 C   0  0  0  0  0  0  0  0  0  0  0  0
    4.2710   -3.7347   -3.8862 C   0  0  0  0  0  0  0  0  0  0  0  0
    2.8336   -4.7338   -1.4963 C   0  0  0  0  0  0  0  0  0  0  0  0
    2.5048    0.0070    0.2078 C   0  0  0  0  0  0  0  0  0  0  0  0
    4.0394   -1.4129   -2.9240 C   0  0  0  0  0  0  0  0  0  0  0  0
    3.6169   -0.5175   -1.9436 C   0  0  0  0  0  0  0  0  0  0  0  0
    2.6984   -2.3512   -0.6961 C   0  0  0  0  0  0  0  0  0  0  0  0
    3.8016   -2.7851   -2.8105 C   0  0  0  0  0  0  0  0  0  0  0  0
    3.1146   -3.2591   -1.6686 C   0  0  0  0  0  0  0  0  0  0  0  0
    2.9344   -0.9691   -0.8057 C   0  0  0  0  0  0  0  0  0  0  0  0
    1.5794    0.5827    2.0181 H   0  0  0  0  0  0  0  0  0  0  0  0
    1.5371   -1.2253    1.6577 H   0  0  0  0  0  0  0  0  0  0  0  0
    4.7819   -3.1967   -4.6905 H   0  0  0  0  0  0  0  0  0  0  0  0
    3.4355   -4.2888   -4.3341 H   0  0  0  0  0  0  0  0  0  0  0  0
    4.9687   -4.4852   -3.4917 H   0  0  0  0  0  0  0  0  0  0  0  0
    2.3014   -4.9276   -0.5601 H   0  0  0  0  0  0  0  0  0  0  0  0
    3.7585   -5.3249   -1.4825 H   0  0  0  0  0  0  0  0  0  0  0  0
    2.2201   -5.1294   -2.3163 H   0  0  0  0  0  0  0  0  0  0  0  0
    2.7709    1.0390   -0.0227 H   0  0  0  0  0  0  0  0  0  0  0  0
    4.5664   -1.0379   -3.7986 H   0  0  0  0  0  0  0  0  0  0  0  0
    3.8171    0.5451   -2.0614 H   0  0  0  0  0  0  0  0  0  0  0  0
    2.1731   -2.7342    0.1752 H   0  0  0  0  0  0  0  0  0  0  0  0
  1 12  1  0  0  0  0
  1 11  1  0  0  0  0
  2 15  1  0  0  0  0
  2  8  1  0  0  0  0
  3 17  1  0  0  0  0
  3 16  1  0  0  0  0
  4  1  2  0  0  0  0
  5  8  2  0  0  0  0
  5  6  1  0  0  0  0
  6 10  2  0  0  0  0
  7 22  1  0  0  0  0
  8  9  1  0  0  0  0
  9  3  1  0  0  0  0
  9  7  2  0  0  0  0
 10  7  1  0  0  0  0
 10  4  1  0  0  0  0
 13  2  1  0  0  0  0
 14  2  1  0  0  0  0
 18  3  1  0  0  0  0
 19  4  1  0  0  0  0
 20  5  1  0  0  0  0
 21  6  1  0  0  0  0
M  END
>  <HBA>
0

>  <HBD>
0

>  <TPSA>
0.0

>  <cid>
33937

>  <dipole>
0.84

>  <excitation_energy_1>
4.621

>  <excitation_energy_2>
4.81

>  <excitation_energy_3>
5.502

>  <excitation_energy_4>
5.618

>  <homo_energy>
-5.777

>  <homo_lumo_gap>
5.086

>  <logP>
2.946

>  <lumo_energy>
-0.691

>  <melting_point>
6.13

>  <molecular_refractivity>
46.47

>  <oscillator_strength_1>
0.1903

>  <oscillator_strength_2>
0.2502

>  <oscillator_strength_3>
0.0008

>  <oscillator_strength_4>
0.1993

>  <open_babel_can_smiles>
C=Cc1ccc(c(c1)C)C

>  <mulliken_charges>
22
1   -0.35204
2   -0.53283
3   -0.533069
4   -0.119638
5   -0.184635
6   -0.199922
7   -0.252186
8   0.131162
9   0.139139
10   0.185465
11   0.141709
12   0.140022
13   0.154998
14   0.159621
15   0.159591
16   0.155402
17   0.15918
18   0.15921
19   0.124983
20   0.120768
21   0.124494
22   0.118575

>  <lowdin_charges>
22
1   -0.33806
2   -0.443931
3   -0.442505
4   -0.143875
5   -0.167151
6   -0.162315
7   -0.164368
8   -0.00761
9   -0.005647
10   -0.007855
11   0.162784
12   0.155063
13   0.158319
14   0.159467
15   0.159488
16   0.157174
17   0.158397
18   0.159161
19   0.152193
20   0.154214
21   0.153256
22   0.153801

$$$$

