PCCDB-ID:  31260
public computational chemistry database (PCCDB) project, http://pccdb.org

 18 17  0  0  0  0  0  0  0  0999 V2000
    0.8148    0.0969    0.0620 C   0  0  0  0  0  0  0  0  0  0  0  0
    2.7318   -1.0511    1.2386 C   0  0  0  0  0  0  0  0  0  0  0  0
    2.8925   -0.6166   -1.2472 C   0  0  0  0  0  0  0  0  0  0  0  0
    2.7362    0.3502   -2.4241 C   0  0  0  0  0  0  0  0  0  0  0  0
    2.3386   -0.1026    0.0961 C   0  0  0  0  0  0  0  0  0  0  0  0
    3.2887   -0.1639   -3.6318 O   0  0  0  0  0  0  0  0  0  0  0  0
    0.4451    0.4450    1.0336 H   0  0  0  0  0  0  0  0  0  0  0  0
    0.3038   -0.8468   -0.1695 H   0  0  0  0  0  0  0  0  0  0  0  0
    0.5093    0.8341   -0.6885 H   0  0  0  0  0  0  0  0  0  0  0  0
    2.3693   -0.6796    2.2045 H   0  0  0  0  0  0  0  0  0  0  0  0
    3.8203   -1.1640    1.3092 H   0  0  0  0  0  0  0  0  0  0  0  0
    2.3025   -2.0495    1.0843 H   0  0  0  0  0  0  0  0  0  0  0  0
    3.9653   -0.8352   -1.1255 H   0  0  0  0  0  0  0  0  0  0  0  0
    2.4115   -1.5690   -1.5104 H   0  0  0  0  0  0  0  0  0  0  0  0
    3.1809    1.3276   -2.1685 H   0  0  0  0  0  0  0  0  0  0  0  0
    1.6799    0.5257   -2.6486 H   0  0  0  0  0  0  0  0  0  0  0  0
    2.8030    0.8754    0.2988 H   0  0  0  0  0  0  0  0  0  0  0  0
    4.2327   -0.3215   -3.4738 H   0  0  0  0  0  0  0  0  0  0  0  0
  1  5  1  0  0  0  0
  1  7  1  0  0  0  0
  2 11  1  0  0  0  0
  2 10  1  0  0  0  0
  3 13  1  0  0  0  0
  3  5  1  0  0  0  0
  4 15  1  0  0  0  0
  4  3  1  0  0  0  0
  5 17  1  0  0  0  0
  5  2  1  0  0  0  0
  6 18  1  0  0  0  0
  6  4  1  0  0  0  0
  8  1  1  0  0  0  0
  9  1  1  0  0  0  0
 12  2  1  0  0  0  0
 14  3  1  0  0  0  0
 16  4  1  0  0  0  0
M  END
>  <HBA>
1

>  <HBD>
1

>  <TPSA>
20.23

>  <cid>
31260

>  <dipole>
1.74

>  <excitation_energy_1>
6.428

>  <excitation_energy_2>
7.081

>  <excitation_energy_3>
7.348

>  <excitation_energy_4>
7.47

>  <homo_energy>
-7.064

>  <homo_lumo_gap>
9.162

>  <logP>
1.025

>  <lumo_energy>
2.098

>  <melting_point>
-7.28

>  <molecular_refractivity>
27.31

>  <oscillator_strength_1>
0.0078

>  <oscillator_strength_2>
0.0152

>  <oscillator_strength_3>
0.0142

>  <oscillator_strength_4>
0.017

>  <open_babel_can_smiles>
OCCC(C)C

>  <mulliken_charges>
18
1   -0.446327
2   -0.440809
3   -0.270657
4   -0.029391
5   -0.071998
6   -0.617244
7   0.141993
8   0.142199
9   0.145782
10   0.140879
11   0.139273
12   0.141245
13   0.114897
14   0.140956
15   0.115559
16   0.148501
17   0.120857
18   0.384286

>  <lowdin_charges>
18
1   -0.447995
2   -0.440503
3   -0.29274
4   -0.135109
5   -0.120084
6   -0.46603
7   0.149412
8   0.147482
9   0.149786
10   0.148118
11   0.145141
12   0.14616
13   0.132425
14   0.145784
15   0.122039
16   0.145251
17   0.133997
18   0.336866

$$$$

