PCCDB-ID:  35858
public computational chemistry database (PCCDB) project, http://pccdb.org

 43 44  0  0  1  0  0  0  0  0999 V2000
    3.2582    1.2924    0.0252 C   0  0  0  0  0  0  0  0  0  0  0  0
    0.9559    0.4730   -0.5341 C   0  0  0  0  0  0  0  0  0  0  0  0
    8.4680   -3.4442   -1.1282 C   0  0  0  0  0  0  0  0  0  0  0  0
    7.8729   -2.0822   -0.7370 C   0  0  0  0  0  0  0  0  0  0  0  0
    7.4330   -4.5731   -0.9985 C   0  0  0  0  0  0  0  0  0  0  0  0
    2.4878   -3.7267   -0.6616 C   0  0  0  0  0  0  0  0  0  0  0  0
    7.2148   -2.1350    0.6524 C   0  0  0  0  0  0  0  0  0  0  0  0
    6.7881   -4.5825    0.3979 C   0  0  0  0  0  0  0  0  0  0  0  0
    1.8757   -2.3981   -0.2029 C   0  0  0  0  0  0  0  0  0  0  0  0
    3.7866   -4.0556    0.0832 C   0  0  0  0  0  0  0  0  0  0  0  0
    4.1883   -1.5851    0.4022 C   0  0  0  0  0  0  0  0  0  0  0  0
    2.2755    0.1168    0.1733 C   0  0  0  0  0  0  0  0  0  0  0  0
    6.1260   -3.2311    0.7654 C   0  0  0  0  0  0  0  0  0  0  0  0
    2.8726   -1.2296   -0.3253 C   0  0  2  0  0  0  0  0  0  0  0  0
    4.8260   -2.9236   -0.0367 C   0  0  1  0  0  0  0  0  0  0  0  0
    2.7855    2.2302    0.3401 H   0  0  0  0  0  0  0  0  0  0  0  0
    3.5684    1.4155   -1.0213 H   0  0  0  0  0  0  0  0  0  0  0  0
    4.1617    1.1652    0.6290 H   0  0  0  0  0  0  0  0  0  0  0  0
    0.5867    1.4469   -0.1914 H   0  0  0  0  0  0  0  0  0  0  0  0
    0.1663   -0.2599   -0.3445 H   0  0  0  0  0  0  0  0  0  0  0  0
    1.0983    0.5391   -1.6212 H   0  0  0  0  0  0  0  0  0  0  0  0
    9.3189   -3.6645   -0.4660 H   0  0  0  0  0  0  0  0  0  0  0  0
    8.8693   -3.4075   -2.1493 H   0  0  0  0  0  0  0  0  0  0  0  0
    7.1331   -1.7758   -1.4899 H   0  0  0  0  0  0  0  0  0  0  0  0
    8.6556   -1.3125   -0.7469 H   0  0  0  0  0  0  0  0  0  0  0  0
    7.9078   -5.5433   -1.1946 H   0  0  0  0  0  0  0  0  0  0  0  0
    6.6576   -4.4501   -1.7678 H   0  0  0  0  0  0  0  0  0  0  0  0
    2.6958   -3.6736   -1.7409 H   0  0  0  0  0  0  0  0  0  0  0  0
    1.7623   -4.5397   -0.5272 H   0  0  0  0  0  0  0  0  0  0  0  0
    6.8178   -1.1502    0.9213 H   0  0  0  0  0  0  0  0  0  0  0  0
    7.9933   -2.3575    1.3971 H   0  0  0  0  0  0  0  0  0  0  0  0
    7.5726   -4.7854    1.1419 H   0  0  0  0  0  0  0  0  0  0  0  0
    6.0755   -5.4097    0.4821 H   0  0  0  0  0  0  0  0  0  0  0  0
    1.5557   -2.4873    0.8474 H   0  0  0  0  0  0  0  0  0  0  0  0
    0.9719   -2.1968   -0.7883 H   0  0  0  0  0  0  0  0  0  0  0  0
    4.1915   -4.9966   -0.3051 H   0  0  0  0  0  0  0  0  0  0  0  0
    3.5640   -4.2269    1.1484 H   0  0  0  0  0  0  0  0  0  0  0  0
    3.9935   -1.6246    1.4869 H   0  0  0  0  0  0  0  0  0  0  0  0
    4.9076   -0.7769    0.2483 H   0  0  0  0  0  0  0  0  0  0  0  0
    2.0566   -0.0017    1.2469 H   0  0  0  0  0  0  0  0  0  0  0  0
    5.8259   -3.2892    1.8236 H   0  0  0  0  0  0  0  0  0  0  0  0
    3.1076   -1.1050   -1.3968 H   0  0  0  0  0  0  0  0  0  0  0  0
    5.0800   -2.8291   -1.1038 H   0  0  0  0  0  0  0  0  0  0  0  0
  1 12  1  0  0  0  0
  1 16  1  0  0  0  0
  1 18  1  0  0  0  0
  2 20  1  0  0  0  0
  2 19  1  0  0  0  0
  2 12  1  0  0  0  0
  3  5  1  0  0  0  0
  3  4  1  0  0  0  0
  3 22  1  0  0  0  0
  4  7  1  0  0  0  0
  5  8  1  0  0  0  0
  6 29  1  0  0  0  0
  6  9  1  0  0  0  0
  6 10  1  0  0  0  0
  7 13  1  0  0  0  0
  7 30  1  0  0  0  0
  7 31  1  0  0  0  0
  8 33  1  0  0  0  0
  8 13  1  0  0  0  0
  8 32  1  0  0  0  0
  9 34  1  0  0  0  0
 10 37  1  0  0  0  0
 11 38  1  0  0  0  0
 12 40  1  0  0  0  0
 13 41  1  0  0  0  0
 14 42  1  6  0  0  0
 14  9  1  0  0  0  0
 14 12  1  0  0  0  0
 14 11  1  0  0  0  0
 15 43  1  6  0  0  0
 15 10  1  0  0  0  0
 15 11  1  0  0  0  0
 15 13  1  0  0  0  0
 17  1  1  0  0  0  0
 21  2  1  0  0  0  0
 23  3  1  0  0  0  0
 24  4  1  0  0  0  0
 25  4  1  0  0  0  0
 26  5  1  0  0  0  0
 27  5  1  0  0  0  0
 28  6  1  0  0  0  0
 35  9  1  0  0  0  0
 36 10  1  0  0  0  0
 39 11  1  0  0  0  0
M  END
>  <HBA>
0

>  <HBD>
0

>  <TPSA>
0.0

>  <cid>
35858

>  <dipole>
0.03

>  <excitation_energy_1>
6.848

>  <excitation_energy_2>
7.004

>  <excitation_energy_3>
7.081

>  <excitation_energy_4>
7.208

>  <homo_energy>
-7.402

>  <homo_lumo_gap>
9.44

>  <logP>
5.029

>  <lumo_energy>
2.038

>  <melting_point>
12.62

>  <molecular_refractivity>
69.99

>  <oscillator_strength_1>
0.0004

>  <oscillator_strength_2>
0.0031

>  <oscillator_strength_3>
0.0002

>  <oscillator_strength_4>
0.0095

>  <open_babel_can_smiles>
CC([C@@H]1CCC[C@@H](C1)C1CCCCC1)C

>  <mulliken_charges>
43
1   -0.452045
2   -0.451426
3   -0.253786
4   -0.260905
5   -0.260489
6   -0.26549
7   -0.274104
8   -0.274228
9   -0.265402
10   -0.265451
11   -0.284609
12   -0.061951
13   -0.072567
14   -0.06752
15   -0.08202
16   0.138068
17   0.136998
18   0.14596
19   0.137747
20   0.146226
21   0.136911
22   0.125622
23   0.127061
24   0.13159
25   0.128148
26   0.128005
27   0.131434
28   0.125178
29   0.127396
30   0.132538
31   0.123948
32   0.123649
33   0.133121
34   0.121623
35   0.132385
36   0.133038
37   0.121791
38   0.118102
39   0.139923
40   0.115468
41   0.109171
42   0.106048
43   0.114846

>  <lowdin_charges>
43
1   -0.446761
2   -0.445869
3   -0.276959
4   -0.282017
5   -0.280767
6   -0.275825
7   -0.28283
8   -0.283787
9   -0.279348
10   -0.2784
11   -0.281009
12   -0.119005
13   -0.127874
14   -0.127285
15   -0.131771
16   0.147789
17   0.143607
18   0.148962
19   0.14722
20   0.149902
21   0.142758
22   0.136794
23   0.140507
24   0.138601
25   0.143152
26   0.142246
27   0.138299
28   0.13455
29   0.142908
30   0.142035
31   0.13931
32   0.139112
33   0.143654
34   0.134043
35   0.144405
36   0.143576
37   0.133827
38   0.132622
39   0.146961
40   0.131282
41   0.133319
42   0.127709
43   0.130359

$$$$

