PCCDB-ID:  20150
public computational chemistry database (PCCDB) project, http://pccdb.org

 24 23  0  0  0  0  0  0  0  0999 V2000
    3.2706   -2.1899    2.3498 C   0  0  0  0  0  0  0  0  0  0  0  0
    4.8524   -2.8917    0.4318 C   0  0  0  0  0  0  0  0  0  0  0  0
    2.0725   -1.3091    1.9649 C   0  0  0  0  0  0  0  0  0  0  0  0
    4.5420   -2.3942   -0.9771 C   0  0  0  0  0  0  0  0  0  0  0  0
    4.4327   -1.9796    1.4902 N   0  0  0  0  0  0  0  0  0  0  0  0
    5.2513   -0.9042    1.7552 N   0  0  0  0  0  0  0  0  0  0  0  0
    0.7383   -1.2557    3.9832 N   0  0  0  0  0  0  0  0  0  0  0  0
    2.6060   -1.8056   -2.2825 N   0  0  0  0  0  0  0  0  0  0  0  0
    4.9164   -0.1575    2.6733 O   0  0  0  0  0  0  0  0  0  0  0  0
    6.2488   -0.7787    1.0402 O   0  0  0  0  0  0  0  0  0  0  0  0
   -0.2710   -1.6526    4.5073 O   0  0  0  0  0  0  0  0  0  0  0  0
    1.6069   -0.5264    4.4129 O   0  0  0  0  0  0  0  0  0  0  0  0
    1.4070   -1.6827   -2.2779 O   0  0  0  0  0  0  0  0  0  0  0  0
    3.4182   -1.5639   -3.1486 O   0  0  0  0  0  0  0  0  0  0  0  0
    0.8837   -1.7511    2.6510 O   0  0  0  0  0  0  0  0  0  0  0  0
    3.1015   -2.3278   -1.0533 O   0  0  0  0  0  0  0  0  0  0  0  0
    2.9882   -3.2406    2.2467 H   0  0  0  0  0  0  0  0  0  0  0  0
    3.5570   -1.9998    3.3858 H   0  0  0  0  0  0  0  0  0  0  0  0
    5.9310   -3.0535    0.5044 H   0  0  0  0  0  0  0  0  0  0  0  0
    4.3462   -3.8430    0.6123 H   0  0  0  0  0  0  0  0  0  0  0  0
    1.8129   -1.4415    0.9128 H   0  0  0  0  0  0  0  0  0  0  0  0
    2.2694   -0.2579    2.1784 H   0  0  0  0  0  0  0  0  0  0  0  0
    4.9244   -3.0971   -1.7234 H   0  0  0  0  0  0  0  0  0  0  0  0
    4.9764   -1.4085   -1.1532 H   0  0  0  0  0  0  0  0  0  0  0  0
  1 18  1  0  0  0  0
  2 19  1  0  0  0  0
  2 20  1  0  0  0  0
  2  5  1  0  0  0  0
  3 22  1  0  0  0  0
  3  1  1  0  0  0  0
  3 15  1  0  0  0  0
  4  2  1  0  0  0  0
  5  6  1  0  0  0  0
  5  1  1  0  0  0  0
  6  9  2  0  0  0  0
  7 12  2  0  0  0  0
  7 11  2  0  0  0  0
  8 13  2  0  0  0  0
  8 16  1  0  0  0  0
 10  6  2  0  0  0  0
 14  8  2  0  0  0  0
 15  7  1  0  0  0  0
 16  4  1  0  0  0  0
 17  1  1  0  0  0  0
 21  3  1  0  0  0  0
 23  4  1  0  0  0  0
 24  4  1  0  0  0  0
M  END
>  <HBA>
1

>  <HBD>
0

>  <TPSA>
159.16

>  <cid>
20150

>  <dipole>
4.64

>  <excitation_energy_1>
4.635

>  <excitation_energy_2>
4.678

>  <excitation_energy_3>
4.711

>  <excitation_energy_4>
4.949

>  <homo_energy>
-7.987

>  <homo_lumo_gap>
5.663

>  <logP>
0.466

>  <lumo_energy>
-2.324

>  <melting_point>
56.46

>  <molecular_refractivity>
50.72

>  <oscillator_strength_1>
0.0

>  <oscillator_strength_2>
0.0009

>  <oscillator_strength_3>
0.0009

>  <oscillator_strength_4>
0.0015

>  <open_babel_can_smiles>
O=N(=O)N(CCON(=O)=O)CCON(=O)=O

>  <mulliken_charges>
24
1   -0.162459
2   -0.174249
3   -0.068548
4   -0.038217
5   -0.273346
6   0.651171
7   0.741366
8   0.757326
9   -0.416788
10   -0.43115
11   -0.342362
12   -0.357053
13   -0.345012
14   -0.353637
15   -0.373949
16   -0.392909
17   0.177563
18   0.212728
19   0.210328
20   0.183945
21   0.200909
22   0.207535
23   0.181001
24   0.20581

>  <lowdin_charges>
24
1   -0.211109
2   -0.202591
3   -0.156776
4   -0.146128
5   -0.068752
6   0.339272
7   0.377146
8   0.374031
9   -0.262682
10   -0.279462
11   -0.183602
12   -0.209819
13   -0.181669
14   -0.203155
15   -0.184393
16   -0.199878
17   0.167703
18   0.180998
19   0.184575
20   0.172404
21   0.17633
22   0.175161
23   0.167744
24   0.174652

$$$$

