PCCDB-ID:  17520
public computational chemistry database (PCCDB) project, http://pccdb.org

 15 16  0  0  0  0  0  0  0  0999 V2000
   -2.1316   -0.7565   -0.0003 C   0  0  0  0  0  0  0  0  0  0  0  0
   -2.1789    0.6515    0.0001 C   0  0  0  0  0  0  0  0  0  0  0  0
   -0.9133   -1.4199   -0.0003 C   0  0  0  0  0  0  0  0  0  0  0  0
   -1.0160    1.4116    0.0005 C   0  0  0  0  0  0  0  0  0  0  0  0
    0.2735   -0.6683    0.0000 C   0  0  0  0  0  0  0  0  0  0  0  0
    0.2138    0.7408    0.0005 C   0  0  0  0  0  0  0  0  0  0  0  0
    1.6636   -1.0920   -0.0005 C   0  0  0  0  0  0  0  0  0  0  0  0
    2.5760   -0.1665   -0.0008 N   0  0  0  0  0  0  0  0  0  0  0  0
    2.0625   -2.3875    0.0000 O   0  0  0  0  0  0  0  0  0  0  0  0
    1.8476    1.3682    0.0003 S   0  0  0  0  0  0  0  0  0  0  0  0
   -3.0569   -1.3246   -0.0005 H   0  0  0  0  0  0  0  0  0  0  0  0
   -3.1432    1.1520    0.0000 H   0  0  0  0  0  0  0  0  0  0  0  0
   -0.8902   -2.5083   -0.0005 H   0  0  0  0  0  0  0  0  0  0  0  0
   -1.0617    2.4966    0.0005 H   0  0  0  0  0  0  0  0  0  0  0  0
    1.2805   -2.9602   -0.0032 H   0  0  0  0  0  0  0  0  0  0  0  0
  1  2  1  0  0  0  0
  2  4  2  0  0  0  0
  3  1  2  0  0  0  0
  3  5  1  0  0  0  0
  4 14  1  0  0  0  0
  5  6  2  0  0  0  0
  6  4  1  0  0  0  0
  7  5  1  0  0  0  0
  7  9  1  0  0  0  0
  8  7  2  0  0  0  0
  8 10  1  0  0  0  0
 10  6  1  0  0  0  0
 11  1  1  0  0  0  0
 12  2  1  0  0  0  0
 13  3  1  0  0  0  0
 15  9  1  0  0  0  0
M  END
>  <HBA>
2

>  <HBD>
1

>  <TPSA>
61.1

>  <cid>
17520

>  <dipole>
4.55

>  <excitation_energy_1>
4.184

>  <excitation_energy_2>
4.715

>  <excitation_energy_3>
4.721

>  <excitation_energy_4>
5.091

>  <homo_energy>
-6.036

>  <homo_lumo_gap>
4.825

>  <logP>
1.59

>  <lumo_energy>
-1.211

>  <melting_point>
129.6

>  <molecular_refractivity>
42.45

>  <oscillator_strength_1>
0.0581

>  <oscillator_strength_2>
0.0002

>  <oscillator_strength_3>
0.0339

>  <oscillator_strength_4>
0.0033

>  <open_babel_can_smiles>
Oc1nsc2c1cccc2

>  <mulliken_charges>
15
1   -0.141773
2   -0.115026
3   -0.184103
4   -0.165921
5   0.128417
6   -0.155746
7   0.424874
8   -0.531388
9   -0.596174
10   0.359156
11   0.140384
12   0.142684
13   0.125173
14   0.150612
15   0.41883

>  <lowdin_charges>
15
1   -0.159821
2   -0.142746
3   -0.152912
4   -0.154416
5   -0.069136
6   -0.138798
7   0.105735
8   -0.33288
9   -0.35106
10   0.384548
11   0.164311
12   0.165051
13   0.152136
14   0.166924
15   0.363066

$$$$

