PCCDB-ID:  7852
public computational chemistry database (PCCDB) project, http://pccdb.org

 13 12  0  0  0  0  0  0  0  0999 V2000
    1.0223    0.1073   -0.0834 C   0  0  0  0  0  0  0  0  0  0  0  0
    2.5521    0.0618   -0.0254 C   0  0  0  0  0  0  0  0  0  0  0  0
    3.0830   -0.5495    1.2730 C   0  0  0  0  0  0  0  0  0  0  0  0
    4.5505   -0.5201    1.2980 N   0  0  0  0  0  0  0  0  0  0  0  0
    0.6729    0.5436   -1.0257 H   0  0  0  0  0  0  0  0  0  0  0  0
    0.6123    0.7126    0.7345 H   0  0  0  0  0  0  0  0  0  0  0  0
    0.5884   -0.8970   -0.0012 H   0  0  0  0  0  0  0  0  0  0  0  0
    2.9710    1.0700   -0.1294 H   0  0  0  0  0  0  0  0  0  0  0  0
    2.9335   -0.5211   -0.8773 H   0  0  0  0  0  0  0  0  0  0  0  0
    2.6512   -1.5611    1.3966 H   0  0  0  0  0  0  0  0  0  0  0  0
    2.7249    0.0461    2.1233 H   0  0  0  0  0  0  0  0  0  0  0  0
    4.9132   -1.1390    0.5731 H   0  0  0  0  0  0  0  0  0  0  0  0
    4.8883   -0.8992    2.1815 H   0  0  0  0  0  0  0  0  0  0  0  0
  1  2  1  0  0  0  0
  1  7  1  0  0  0  0
  1  6  1  0  0  0  0
  2  3  1  0  0  0  0
  3  4  1  0  0  0  0
  3 10  1  0  0  0  0
  3 11  1  0  0  0  0
  4 13  1  0  0  0  0
  5  1  1  0  0  0  0
  8  2  1  0  0  0  0
  9  2  1  0  0  0  0
 12  4  1  0  0  0  0
M  END
>  <HBA>
1

>  <HBD>
1

>  <TPSA>
26.02

>  <cid>
7852

>  <dipole>
1.35

>  <excitation_energy_1>
5.599

>  <excitation_energy_2>
6.448

>  <excitation_energy_3>
6.512

>  <excitation_energy_4>
6.915

>  <homo_energy>
-6.221

>  <homo_lumo_gap>
8.539

>  <logP>
1.055

>  <lumo_energy>
2.318

>  <melting_point>
29.68

>  <molecular_refractivity>
19.24

>  <oscillator_strength_1>
0.0131

>  <oscillator_strength_2>
0.0058

>  <oscillator_strength_3>
0.0147

>  <oscillator_strength_4>
0.045

>  <open_babel_can_smiles>
CCCN

>  <mulliken_charges>
13
1   -0.44578
2   -0.241122
3   -0.126384
4   -0.715367
5   0.144733
6   0.142873
7   0.140275
8   0.149226
9   0.123752
10   0.107856
11   0.136312
12   0.289908
13   0.293719

>  <lowdin_charges>
13
1   -0.445769
2   -0.27652
3   -0.204287
4   -0.561433
5   0.151383
6   0.147916
7   0.144976
8   0.148607
9   0.136448
10   0.11321
11   0.140505
12   0.251227
13   0.253737

$$$$

