PCCDB-ID:  15091
public computational chemistry database (PCCDB) project, http://pccdb.org

 24 24  0  0  0  0  0  0  0  0999 V2000
   -1.5438    0.7964    0.1179 C   0  0  0  0  0  0  0  0  0  0  0  0
   -0.3412    1.5229   -0.5096 C   0  0  0  0  0  0  0  0  0  0  0  0
   -1.5371   -0.7370    0.0310 C   0  0  0  0  0  0  0  0  0  0  0  0
    0.9749    1.3150    0.2635 C   0  0  0  0  0  0  0  0  0  0  0  0
   -0.2778   -1.4485    0.5600 C   0  0  0  0  0  0  0  0  0  0  0  0
    1.7796    0.0438   -0.0742 C   0  0  0  0  0  0  0  0  0  0  0  0
    0.9592   -1.2473   -0.3492 C   0  0  0  0  0  0  0  0  0  0  0  0
    1.9255   -2.4314   -0.3094 C   0  0  0  0  0  0  0  0  0  0  0  0
    2.4434   -2.9195   -1.2822 O   0  0  0  0  0  0  0  0  0  0  0  0
    2.2285   -2.9148    0.9320 O   0  0  0  0  0  0  0  0  0  0  0  0
   -2.4673    1.1564   -0.3550 H   0  0  0  0  0  0  0  0  0  0  0  0
   -1.6094    1.0956    1.1746 H   0  0  0  0  0  0  0  0  0  0  0  0
   -0.5682    2.5965   -0.5236 H   0  0  0  0  0  0  0  0  0  0  0  0
   -0.2209    1.2282   -1.5622 H   0  0  0  0  0  0  0  0  0  0  0  0
   -1.6827   -1.0427   -1.0149 H   0  0  0  0  0  0  0  0  0  0  0  0
   -2.4090   -1.1162    0.5800 H   0  0  0  0  0  0  0  0  0  0  0  0
    0.7433    1.3296    1.3376 H   0  0  0  0  0  0  0  0  0  0  0  0
    1.6384    2.1727    0.0960 H   0  0  0  0  0  0  0  0  0  0  0  0
   -0.5039   -2.5208    0.6229 H   0  0  0  0  0  0  0  0  0  0  0  0
   -0.0688   -1.1147    1.5892 H   0  0  0  0  0  0  0  0  0  0  0  0
    2.4817   -0.1431    0.7505 H   0  0  0  0  0  0  0  0  0  0  0  0
    2.4020    0.2235   -0.9588 H   0  0  0  0  0  0  0  0  0  0  0  0
    0.6102   -1.2187   -1.3862 H   0  0  0  0  0  0  0  0  0  0  0  0
    1.7247   -2.4309    1.6073 H   0  0  0  0  0  0  0  0  0  0  0  0
  1 12  1  0  0  0  0
  2  1  1  0  0  0  0
  2  4  1  0  0  0  0
  3  1  1  0  0  0  0
  3  5  1  0  0  0  0
  3 16  1  0  0  0  0
  4 17  1  0  0  0  0
  5 19  1  0  0  0  0
  5 20  1  0  0  0  0
  6  4  1  0  0  0  0
  6 21  1  0  0  0  0
  7  8  1  0  0  0  0
  7  6  1  0  0  0  0
  7  5  1  0  0  0  0
  8 10  1  0  0  0  0
  9  8  2  0  0  0  0
 10 24  1  0  0  0  0
 11  1  1  0  0  0  0
 13  2  1  0  0  0  0
 14  2  1  0  0  0  0
 15  3  1  0  0  0  0
 18  4  1  0  0  0  0
 22  6  1  0  0  0  0
 23  7  1  0  0  0  0
M  END
>  <HBA>
2

>  <HBD>
1

>  <TPSA>
37.3

>  <cid>
15091

>  <dipole>
4.71

>  <excitation_energy_1>
5.61

>  <excitation_energy_2>
6.359

>  <excitation_energy_3>
6.89

>  <excitation_energy_4>
7.115

>  <homo_energy>
-7.051

>  <homo_lumo_gap>
7.491

>  <logP>
2.041

>  <lumo_energy>
0.441

>  <melting_point>
71.85

>  <molecular_refractivity>
40.23

>  <oscillator_strength_1>
0.0025

>  <oscillator_strength_2>
0.0098

>  <oscillator_strength_3>
0.0011

>  <oscillator_strength_4>
0.0067

>  <open_babel_can_smiles>
OC(=O)C1CCCCCC1

>  <mulliken_charges>
24
1   -0.258986
2   -0.258476
3   -0.263191
4   -0.265686
5   -0.304875
6   -0.279794
7   -0.1781
8   0.577885
9   -0.442893
10   -0.573112
11   0.136491
12   0.130057
13   0.137472
14   0.135867
15   0.141189
16   0.138451
17   0.131344
18   0.142594
19   0.154913
20   0.126295
21   0.135462
22   0.161437
23   0.163951
24   0.411707

>  <lowdin_charges>
24
1   -0.276174
2   -0.277905
3   -0.27398
4   -0.280163
5   -0.288606
6   -0.279264
7   -0.170115
8   0.195721
9   -0.241426
10   -0.367486
11   0.14704
12   0.136564
13   0.146839
14   0.140569
15   0.142717
16   0.148598
17   0.136821
18   0.151709
19   0.151709
20   0.134762
21   0.143944
22   0.157281
23   0.16291
24   0.357932

$$$$

