PCCDB-ID:  68797
public computational chemistry database (PCCDB) project, http://pccdb.org

 18 18  0  0  1  0  0  0  0  0999 V2000
    0.7430    1.2854   -0.0604 C   0  0  0  0  0  0  0  0  0  0  0  0
    1.5394    0.0787    0.4583 C   0  0  0  0  0  0  0  0  0  0  0  0
   -0.8398   -1.2467    0.2608 C   0  0  0  0  0  0  0  0  0  0  0  0
   -0.7514    1.1825    0.3088 C   0  0  1  0  0  0  0  0  0  0  0  0
   -1.6216    2.3788   -0.1108 C   0  0  0  0  0  0  0  0  0  0  0  0
   -1.3295   -0.0050   -0.2930 N   0  0  0  0  0  0  0  0  0  0  0  0
   -2.7797    2.2538   -0.4249 O   0  0  0  0  0  0  0  0  0  0  0  0
   -1.0610    3.6083   -0.0468 O   0  0  0  0  0  0  0  0  0  0  0  0
    0.9231   -1.5216   -0.1943 S   0  0  0  0  0  0  0  0  0  0  0  0
    0.8422    1.3625   -1.1481 H   0  0  0  0  0  0  0  0  0  0  0  0
    1.1942    2.1820    0.3946 H   0  0  0  0  0  0  0  0  0  0  0  0
    1.5182    0.0568    1.5554 H   0  0  0  0  0  0  0  0  0  0  0  0
    2.5862    0.1496    0.1493 H   0  0  0  0  0  0  0  0  0  0  0  0
   -1.3997   -2.0822   -0.1669 H   0  0  0  0  0  0  0  0  0  0  0  0
   -0.9160   -1.3023    1.3618 H   0  0  0  0  0  0  0  0  0  0  0  0
   -0.8108    1.1634    1.4218 H   0  0  0  0  0  0  0  0  0  0  0  0
   -2.3446    0.0626   -0.2746 H   0  0  0  0  0  0  0  0  0  0  0  0
   -0.1196    3.5397    0.1818 H   0  0  0  0  0  0  0  0  0  0  0  0
  1  4  1  0  0  0  0
  1 11  1  0  0  0  0
  1  2  1  0  0  0  0
  2 12  1  0  0  0  0
  3 15  1  0  0  0  0
  4 16  1  1  0  0  0
  5  8  1  0  0  0  0
  5  4  1  0  0  0  0
  6 17  1  0  0  0  0
  6  3  1  0  0  0  0
  6  4  1  0  0  0  0
  7  5  2  0  0  0  0
  8 18  1  0  0  0  0
  9  3  1  0  0  0  0
  9  2  1  0  0  0  0
 10  1  1  0  0  0  0
 13  2  1  0  0  0  0
 14  3  1  0  0  0  0
M  END
>  <HBA>
4

>  <HBD>
2

>  <TPSA>
74.63

>  <cid>
68797

>  <dipole>
3.54

>  <excitation_energy_1>
5.065

>  <excitation_energy_2>
5.19

>  <excitation_energy_3>
5.236

>  <excitation_energy_4>
5.426

>  <homo_energy>
-6.223

>  <homo_lumo_gap>
6.191

>  <logP>
0.452

>  <lumo_energy>
-0.033

>  <melting_point>
109.99

>  <molecular_refractivity>
40.11

>  <oscillator_strength_1>
0.0167

>  <oscillator_strength_2>
0.0009

>  <oscillator_strength_3>
0.0095

>  <oscillator_strength_4>
0.0045

>  <open_babel_can_smiles>
OC(=O)[C@@H]1CCSCN1

>  <mulliken_charges>
18
1   -0.275677
2   -0.429061
3   -0.280264
4   -0.061854
5   0.611415
6   -0.54394
7   -0.446907
8   -0.568062
9   0.1107
10   0.185191
11   0.12033
12   0.168753
13   0.183605
14   0.18573
15   0.150966
16   0.139658
17   0.332903
18   0.416513

>  <lowdin_charges>
18
1   -0.289029
2   -0.374319
3   -0.298536
4   -0.099011
5   0.192197
6   -0.349011
7   -0.235102
8   -0.341016
9   0.096833
10   0.166081
11   0.137418
12   0.151797
13   0.171816
14   0.174641
15   0.131106
16   0.132478
17   0.275385
18   0.356272

$$$$

