PCCDB-ID:  31713
public computational chemistry database (PCCDB) project, http://pccdb.org

 33 34  0  0  0  0  0  0  0  0999 V2000
    2.7655   -0.2418   -0.5791 C   0  0  0  0  0  0  0  0  0  0  0  0
    2.4776    0.7316    4.2069 C   0  0  0  0  0  0  0  0  0  0  0  0
    7.9963   -3.4207    3.8600 C   0  0  0  0  0  0  0  0  0  0  0  0
    5.5161    0.4433    2.4446 C   0  0  0  0  0  0  0  0  0  0  0  0
    4.3951   -1.6779    2.4805 C   0  0  0  0  0  0  0  0  0  0  0  0
    6.6864   -0.1544    2.8976 C   0  0  0  0  0  0  0  0  0  0  0  0
    5.5600   -2.2975    2.9379 C   0  0  0  0  0  0  0  0  0  0  0  0
    0.9130   -0.2596    1.0424 C   0  0  0  0  0  0  0  0  0  0  0  0
    0.8859   -0.1786    2.5627 C   0  0  0  0  0  0  0  0  0  0  0  0
    4.3486   -0.3033    2.2322 C   0  0  0  0  0  0  0  0  0  0  0  0
    6.7140   -1.5325    3.1520 C   0  0  0  0  0  0  0  0  0  0  0  0
    3.0668    0.3868    1.7764 C   0  0  0  0  0  0  0  0  0  0  0  0
    2.3403   -0.4286    0.7939 N   0  0  0  0  0  0  0  0  0  0  0  0
    2.0512    0.6557    2.8247 N   0  0  0  0  0  0  0  0  0  0  0  0
    7.9074   -2.0311    3.5932 O   0  0  0  0  0  0  0  0  0  0  0  0
    2.2421   -0.9545   -1.2260 H   0  0  0  0  0  0  0  0  0  0  0  0
    3.8398   -0.4365   -0.6621 H   0  0  0  0  0  0  0  0  0  0  0  0
    2.5678    0.7793   -0.9597 H   0  0  0  0  0  0  0  0  0  0  0  0
    1.6443    1.1107    4.8105 H   0  0  0  0  0  0  0  0  0  0  0  0
    3.3094    1.4361    4.3075 H   0  0  0  0  0  0  0  0  0  0  0  0
    2.7997   -0.2348    4.6355 H   0  0  0  0  0  0  0  0  0  0  0  0
    9.0186   -3.5957    4.2007 H   0  0  0  0  0  0  0  0  0  0  0  0
    7.8082   -4.0193    2.9586 H   0  0  0  0  0  0  0  0  0  0  0  0
    7.2951   -3.7278    4.6475 H   0  0  0  0  0  0  0  0  0  0  0  0
    5.5084    1.5134    2.2458 H   0  0  0  0  0  0  0  0  0  0  0  0
    3.5088   -2.2746    2.2878 H   0  0  0  0  0  0  0  0  0  0  0  0
    7.5929    0.4217    3.0562 H   0  0  0  0  0  0  0  0  0  0  0  0
    5.5594   -3.3671    3.1161 H   0  0  0  0  0  0  0  0  0  0  0  0
    0.5073    0.6708    0.6017 H   0  0  0  0  0  0  0  0  0  0  0  0
    0.3475   -1.1079    0.6392 H   0  0  0  0  0  0  0  0  0  0  0  0
    0.9602   -1.1896    3.0075 H   0  0  0  0  0  0  0  0  0  0  0  0
   -0.0236    0.2957    2.9518 H   0  0  0  0  0  0  0  0  0  0  0  0
    3.3613    1.3654    1.3454 H   0  0  0  0  0  0  0  0  0  0  0  0
  1 13  1  0  0  0  0
  2 20  1  0  0  0  0
  2 21  1  0  0  0  0
  2 19  1  0  0  0  0
  3 22  1  0  0  0  0
  3 24  1  0  0  0  0
  4  6  1  0  0  0  0
  5  7  2  0  0  0  0
  6 27  1  0  0  0  0
  6 11  2  0  0  0  0
  7 28  1  0  0  0  0
  7 11  1  0  0  0  0
  8  9  1  0  0  0  0
  9 14  1  0  0  0  0
  9 32  1  0  0  0  0
  9 31  1  0  0  0  0
 10  4  2  0  0  0  0
 10  5  1  0  0  0  0
 11 15  1  0  0  0  0
 12 10  1  0  0  0  0
 12 14  1  0  0  0  0
 13  8  1  0  0  0  0
 13 12  1  0  0  0  0
 14  2  1  0  0  0  0
 15  3  1  0  0  0  0
 16  1  1  0  0  0  0
 17  1  1  0  0  0  0
 18  1  1  0  0  0  0
 23  3  1  0  0  0  0
 25  4  1  0  0  0  0
 26  5  1  0  0  0  0
 29  8  1  0  0  0  0
 30  8  1  0  0  0  0
 33 12  1  0  0  0  0
M  END
>  <HBA>
3

>  <HBD>
0

>  <TPSA>
15.71

>  <cid>
31713

>  <dipole>
1.49

>  <excitation_energy_1>
4.432

>  <excitation_energy_2>
4.708

>  <excitation_energy_3>
4.81

>  <excitation_energy_4>
4.968

>  <homo_energy>
-5.287

>  <homo_lumo_gap>
5.363

>  <logP>
1.447

>  <lumo_energy>
0.076

>  <melting_point>
38.45

>  <molecular_refractivity>
68.64

>  <oscillator_strength_1>
0.0077

>  <oscillator_strength_2>
0.0156

>  <oscillator_strength_3>
0.0128

>  <oscillator_strength_4>
0.0124

>  <open_babel_can_smiles>
COc1ccc(cc1)C1N(C)CCN1C

>  <mulliken_charges>
33
1   -0.299906
2   -0.29688
3   -0.213735
4   -0.196687
5   -0.180286
6   -0.174719
7   -0.197195
8   -0.119508
9   -0.115351
10   0.156079
11   0.376077
12   0.144314
13   -0.42215
14   -0.427027
15   -0.507552
16   0.148638
17   0.158769
18   0.121756
19   0.144078
20   0.151988
21   0.129809
22   0.168433
23   0.15131
24   0.151184
25   0.125886
26   0.139497
27   0.135158
28   0.128892
29   0.119899
30   0.138469
31   0.117514
32   0.137516
33   0.105729

>  <lowdin_charges>
33
1   -0.354983
2   -0.357856
3   -0.277403
4   -0.155985
5   -0.145731
6   -0.185518
7   -0.212376
8   -0.202288
9   -0.197832
10   -0.044744
11   0.100886
12   0.010297
13   -0.183708
14   -0.195711
15   -0.200573
16   0.151856
17   0.154065
18   0.122276
19   0.14914
20   0.153191
21   0.128085
22   0.161167
23   0.145247
24   0.145523
25   0.153412
26   0.164146
27   0.165645
28   0.158925
29   0.123295
30   0.145875
31   0.119088
32   0.144139
33   0.11845

$$$$

