PCCDB-ID:  35172
public computational chemistry database (PCCDB) project, http://pccdb.org

 29 29  0  0  1  0  0  0  0  0999 V2000
    4.3087    3.7062    1.8538 C   0  0  0  0  0  0  0  0  0  0  0  0
    7.1825   -5.3990   -3.0842 C   0  0  0  0  0  0  0  0  0  0  0  0
    4.4811    3.6959    0.3435 C   0  0  0  0  0  0  0  0  0  0  0  0
    7.6371   -5.0774   -1.6696 C   0  0  0  0  0  0  0  0  0  0  0  0
    6.5423    0.7450   -0.6051 C   0  0  2  0  0  0  0  0  0  0  0  0
    7.3243   -1.4118   -1.1087 C   0  0  1  0  0  0  0  0  0  0  0  0
    5.3267    1.5515   -0.2030 C   0  0  0  0  0  0  0  0  0  0  0  0
    6.9173   -2.8629   -1.2362 C   0  0  0  0  0  0  0  0  0  0  0  0
    8.7728    0.3879   -1.1403 C   0  0  0  0  0  0  0  0  0  0  0  0
    9.9552    0.8177   -1.3611 N   0  0  0  0  0  0  0  0  0  0  0  0
    6.2671   -0.5882   -0.7855 N   0  0  0  0  0  0  0  0  0  0  0  0
    7.7093    1.2578   -0.7546 N   0  0  0  0  0  0  0  0  0  0  0  0
    8.5253   -1.0014   -1.2834 N   0  0  0  0  0  0  0  0  0  0  0  0
    4.2456    1.0119   -0.0571 O   0  0  0  0  0  0  0  0  0  0  0  0
    5.7579   -3.1970   -1.0705 O   0  0  0  0  0  0  0  0  0  0  0  0
    5.5921    2.8423   -0.0502 O   0  0  0  0  0  0  0  0  0  0  0  0
    7.9351   -3.6608   -1.5262 O   0  0  0  0  0  0  0  0  0  0  0  0
    3.5228    4.4193    2.1269 H   0  0  0  0  0  0  0  0  0  0  0  0
    5.2364    4.0093    2.3489 H   0  0  0  0  0  0  0  0  0  0  0  0
    4.0153    2.7180    2.2194 H   0  0  0  0  0  0  0  0  0  0  0  0
    7.0478   -6.4816   -3.1876 H   0  0  0  0  0  0  0  0  0  0  0  0
    7.9289   -5.0730   -3.8151 H   0  0  0  0  0  0  0  0  0  0  0  0
    6.2284   -4.9130   -3.3073 H   0  0  0  0  0  0  0  0  0  0  0  0
    4.7611    4.6790   -0.0398 H   0  0  0  0  0  0  0  0  0  0  0  0
    3.5782    3.3478   -0.1635 H   0  0  0  0  0  0  0  0  0  0  0  0
    8.5820   -5.5667   -1.4263 H   0  0  0  0  0  0  0  0  0  0  0  0
    6.8805   -5.3509   -0.9303 H   0  0  0  0  0  0  0  0  0  0  0  0
    9.9563    1.8310   -1.2121 H   0  0  0  0  0  0  0  0  0  0  0  0
    5.3341   -0.9605   -0.6421 H   0  0  0  0  0  0  0  0  0  0  0  0
  1 18  1  0  0  0  0
  1 20  1  0  0  0  0
  1 19  1  0  0  0  0
  2  4  1  0  0  0  0
  3  1  1  0  0  0  0
  4 17  1  0  0  0  0
  4 26  1  0  0  0  0
  4 27  1  0  0  0  0
  5  7  1  1  0  0  0
  6  8  1  1  0  0  0
  6 11  1  0  0  0  0
  7 14  2  0  0  0  0
  7 16  1  0  0  0  0
  8 15  2  0  0  0  0
  9 12  2  0  0  0  0
 10 28  1  0  0  0  0
 10  9  1  0  0  0  0
 11 29  1  0  0  0  0
 11  5  1  0  0  0  0
 12  5  1  0  0  0  0
 13  9  2  0  0  0  0
 13  6  1  0  0  0  0
 16  3  1  0  0  0  0
 17  8  1  0  0  0  0
 21  2  1  0  0  0  0
 22  2  1  0  0  0  0
 23  2  1  0  0  0  0
 24  3  1  0  0  0  0
 25  3  1  0  0  0  0
M  RAD  3   5   2   6   2  10   2
M  END
>  <HBA>
8

>  <HBD>
1

>  <TPSA>
117.29

>  <cid>
35172

>  <dipole>
3.94

>  <excitation_energy_1>
3.292

>  <excitation_energy_2>
3.574

>  <excitation_energy_3>
3.997

>  <excitation_energy_4>
4.169

>  <homo_energy>
-6.479

>  <homo_lumo_gap>
4.128

>  <logP>
0.388

>  <lumo_energy>
-2.351

>  <melting_point>
151.56

>  <molecular_refractivity>
56.4

>  <oscillator_strength_1>
0.0001

>  <oscillator_strength_2>
0.0025

>  <oscillator_strength_3>
0.0004

>  <oscillator_strength_4>
0.0002

>  <open_babel_can_smiles>
CCOC(=O)[C]1N[C](N=[C](=N1)[NH])C(=O)OCC

>  <mulliken_charges>
29
1   -0.466221
2   -0.466207
3   -0.054139
4   -0.053469
5   0.494269
6   0.488432
7   0.626824
8   0.62649
9   0.503853
10   -0.594463
11   -0.693998
12   -0.487166
13   -0.449671
14   -0.492357
15   -0.495774
16   -0.437445
17   -0.432911
18   0.15982
19   0.170063
20   0.177432
21   0.158533
22   0.171769
23   0.17608
24   0.16952
25   0.177644
26   0.170638
27   0.175953
28   0.293597
29   0.382904

>  <lowdin_charges>
29
1   -0.454161
2   -0.45268
3   -0.123375
4   -0.121676
5   0.080289
6   0.074584
7   0.187932
8   0.185122
9   0.092835
10   -0.361976
11   -0.204439
12   -0.170303
13   -0.13035
14   -0.263723
15   -0.26675
16   -0.144562
17   -0.140645
18   0.165156
19   0.163156
20   0.165817
21   0.161965
22   0.164667
23   0.165391
24   0.161214
25   0.162922
26   0.162474
27   0.162525
28   0.257294
29   0.321296

$$$$

