PCCDB-ID:  31451
public computational chemistry database (PCCDB) project, http://pccdb.org

 39 39  0  0  1  0  0  0  0  0999 V2000
    3.6996   -0.8864    0.7089 C   0  0  0  0  0  0  0  0  0  0  0  0
    1.9730    0.8397    1.4175 C   0  0  0  0  0  0  0  0  0  0  0  0
    7.5843   -0.0511   -4.6269 C   0  0  0  0  0  0  0  0  0  0  0  0
    7.6815    2.2645   -3.5926 C   0  0  0  0  0  0  0  0  0  0  0  0
    2.9419    1.2398   -5.0179 C   0  0  0  0  0  0  0  0  0  0  0  0
    4.6949    0.1322   -3.5784 C   0  0  0  0  0  0  0  0  0  0  0  0
    3.0829    1.7836   -2.5552 C   0  0  0  0  0  0  0  0  0  0  0  0
    2.2700   -0.4395   -3.2646 C   0  0  0  0  0  0  0  0  0  0  0  0
    2.3212   -0.2753    0.4218 C   0  0  0  0  0  0  0  0  0  0  0  0
    6.9749    0.9126   -3.6035 C   0  0  0  0  0  0  0  0  0  0  0  0
    2.2069    0.2357   -1.0154 C   0  0  1  0  0  0  0  0  0  0  0  0
    3.2603    0.6854   -3.6225 C   0  0  1  0  0  0  0  0  0  0  0  0
    5.5992    1.1816   -3.8845 O   0  0  0  0  0  0  0  0  0  0  0  0
    3.1644    1.2496   -1.2342 O   0  0  0  0  0  0  0  0  0  0  0  0
    2.3917   -0.8498   -1.9055 O   0  0  0  0  0  0  0  0  0  0  0  0
    3.7259   -1.3063    1.7210 H   0  0  0  0  0  0  0  0  0  0  0  0
    4.4836   -0.1255    0.6350 H   0  0  0  0  0  0  0  0  0  0  0  0
    3.9297   -1.6866   -0.0005 H   0  0  0  0  0  0  0  0  0  0  0  0
    2.0002    0.4595    2.4448 H   0  0  0  0  0  0  0  0  0  0  0  0
    0.9690    1.2428    1.2363 H   0  0  0  0  0  0  0  0  0  0  0  0
    2.6868    1.6662    1.3393 H   0  0  0  0  0  0  0  0  0  0  0  0
    8.6433   -0.2275   -4.4064 H   0  0  0  0  0  0  0  0  0  0  0  0
    7.5066    0.3697   -5.6361 H   0  0  0  0  0  0  0  0  0  0  0  0
    7.0777   -1.0221   -4.6205 H   0  0  0  0  0  0  0  0  0  0  0  0
    8.7434    2.1452   -3.3517 H   0  0  0  0  0  0  0  0  0  0  0  0
    7.2270    2.9278   -2.8501 H   0  0  0  0  0  0  0  0  0  0  0  0
    7.6008    2.7420   -4.5756 H   0  0  0  0  0  0  0  0  0  0  0  0
    3.6495    2.0279   -5.2902 H   0  0  0  0  0  0  0  0  0  0  0  0
    1.9270    1.6533   -5.0615 H   0  0  0  0  0  0  0  0  0  0  0  0
    3.0149    0.4498   -5.7759 H   0  0  0  0  0  0  0  0  0  0  0  0
    4.7858   -0.6903   -4.3068 H   0  0  0  0  0  0  0  0  0  0  0  0
    4.9043   -0.2757   -2.5804 H   0  0  0  0  0  0  0  0  0  0  0  0
    2.1064    2.2788   -2.6927 H   0  0  0  0  0  0  0  0  0  0  0  0
    3.8722    2.5334   -2.6366 H   0  0  0  0  0  0  0  0  0  0  0  0
    2.4410   -1.3347   -3.8726 H   0  0  0  0  0  0  0  0  0  0  0  0
    1.2402   -0.0909   -3.4555 H   0  0  0  0  0  0  0  0  0  0  0  0
    1.5657   -1.0687    0.5052 H   0  0  0  0  0  0  0  0  0  0  0  0
    7.0448    0.4601   -2.5998 H   0  0  0  0  0  0  0  0  0  0  0  0
    1.1984    0.6614   -1.1936 H   0  0  0  0  0  0  0  0  0  0  0  0
  1 16  1  0  0  0  0
  2 19  1  0  0  0  0
  3 24  1  0  0  0  0
  3 22  1  0  0  0  0
  3 10  1  0  0  0  0
  4 25  1  0  0  0  0
  4 26  1  0  0  0  0
  6 32  1  0  0  0  0
  7 14  1  0  0  0  0
  8 15  1  0  0  0  0
  9 37  1  0  0  0  0
  9  1  1  0  0  0  0
  9  2  1  0  0  0  0
 10  4  1  0  0  0  0
 10 38  1  0  0  0  0
 11 39  1  6  0  0  0
 11  9  1  0  0  0  0
 12  5  1  6  0  0  0
 12  6  1  0  0  0  0
 12  8  1  0  0  0  0
 12  7  1  0  0  0  0
 13 10  1  0  0  0  0
 13  6  1  0  0  0  0
 14 11  1  0  0  0  0
 15 11  1  0  0  0  0
 17  1  1  0  0  0  0
 18  1  1  0  0  0  0
 20  2  1  0  0  0  0
 21  2  1  0  0  0  0
 23  3  1  0  0  0  0
 27  4  1  0  0  0  0
 28  5  1  0  0  0  0
 29  5  1  0  0  0  0
 30  5  1  0  0  0  0
 31  6  1  0  0  0  0
 33  7  1  0  0  0  0
 34  7  1  0  0  0  0
 35  8  1  0  0  0  0
 36  8  1  0  0  0  0
M  END
>  <HBA>
3

>  <HBD>
0

>  <TPSA>
27.69

>  <cid>
31451

>  <dipole>
1.0

>  <excitation_energy_1>
6.354

>  <excitation_energy_2>
6.502

>  <excitation_energy_3>
6.669

>  <excitation_energy_4>
6.765

>  <homo_energy>
-6.751

>  <homo_lumo_gap>
8.934

>  <logP>
2.447

>  <lumo_energy>
2.182

>  <melting_point>
-16.13

>  <molecular_refractivity>
60.68

>  <oscillator_strength_1>
0.0083

>  <oscillator_strength_2>
0.0058

>  <oscillator_strength_3>
0.0032

>  <oscillator_strength_4>
0.0181

>  <open_babel_can_smiles>
CC(OC[C@]1(C)CO[C@@H](OC1)C(C)C)C

>  <mulliken_charges>
39
1   -0.451617
2   -0.45042
3   -0.457274
4   -0.450073
5   -0.464655
6   -0.004033
7   -0.040516
8   -0.044106
9   -0.107716
10   0.165081
11   0.380893
12   0.01606
13   -0.497752
14   -0.488333
15   -0.49209
16   0.134794
17   0.155715
18   0.158283
19   0.141438
20   0.13557
21   0.162502
22   0.14254
23   0.150241
24   0.148135
25   0.140564
26   0.154842
27   0.150422
28   0.172856
29   0.139179
30   0.14209
31   0.113536
32   0.148205
33   0.117145
34   0.166592
35   0.144137
36   0.122539
37   0.135487
38   0.11564
39   0.094101

>  <lowdin_charges>
39
1   -0.44751
2   -0.443781
3   -0.457434
4   -0.447388
5   -0.445316
6   -0.134454
7   -0.138005
8   -0.135135
9   -0.130041
10   0.013171
11   0.095006
12   -0.0325
13   -0.277938
14   -0.263301
15   -0.265662
16   0.145695
17   0.154372
18   0.157214
19   0.148729
20   0.145142
21   0.157619
22   0.152109
23   0.152555
24   0.151449
25   0.150614
26   0.158078
27   0.153283
28   0.166028
29   0.146449
30   0.151345
31   0.12578
32   0.142074
33   0.127415
34   0.16129
35   0.150133
36   0.129535
37   0.148274
38   0.12535
39   0.109758

$$$$

