PCCDB-ID:  22441
public computational chemistry database (PCCDB) project, http://pccdb.org

 26 25  0  0  0  0  0  0  0  0999 V2000
    7.0990    0.5421    1.1610 C   0  0  0  0  0  0  0  0  0  0  0  0
    0.3140    0.7908    1.1893 C   0  0  0  0  0  0  0  0  0  0  0  0
    5.9621   -0.4120    1.5407 C   0  0  0  0  0  0  0  0  0  0  0  0
    0.5955   -0.7229    1.1716 C   0  0  0  0  0  0  0  0  0  0  0  0
    4.8352   -0.4420    0.5005 C   0  0  0  0  0  0  0  0  0  0  0  0
    3.6975   -1.4151    0.8792 C   0  0  0  0  0  0  0  0  0  0  0  0
    2.6410   -1.4852   -0.1807 C   0  0  0  0  0  0  0  0  0  0  0  0
    1.3417   -1.1860   -0.0488 C   0  0  0  0  0  0  0  0  0  0  0  0
    0.5109   -1.3165   -1.2759 N   0  0  0  0  0  0  0  0  0  0  0  0
   -0.6905   -1.0610   -1.1625 O   0  0  0  0  0  0  0  0  0  0  0  0
    1.0416   -1.6672   -2.3298 O   0  0  0  0  0  0  0  0  0  0  0  0
    7.8876    0.5432    1.9217 H   0  0  0  0  0  0  0  0  0  0  0  0
    6.7351    1.5713    1.0559 H   0  0  0  0  0  0  0  0  0  0  0  0
    7.5565    0.2536    0.2069 H   0  0  0  0  0  0  0  0  0  0  0  0
   -0.2297    1.0637    2.1002 H   0  0  0  0  0  0  0  0  0  0  0  0
   -0.2955    1.0816    0.3296 H   0  0  0  0  0  0  0  0  0  0  0  0
    1.2462    1.3660    1.1644 H   0  0  0  0  0  0  0  0  0  0  0  0
    5.5483   -0.1204    2.5163 H   0  0  0  0  0  0  0  0  0  0  0  0
    6.3622   -1.4276    1.6696 H   0  0  0  0  0  0  0  0  0  0  0  0
   -0.3511   -1.2673    1.2348 H   0  0  0  0  0  0  0  0  0  0  0  0
    1.1815   -0.9973    2.0543 H   0  0  0  0  0  0  0  0  0  0  0  0
    5.2468   -0.7286   -0.4774 H   0  0  0  0  0  0  0  0  0  0  0  0
    4.4195    0.5670    0.3754 H   0  0  0  0  0  0  0  0  0  0  0  0
    3.2785   -1.1307    1.8502 H   0  0  0  0  0  0  0  0  0  0  0  0
    4.1288   -2.4203    1.0023 H   0  0  0  0  0  0  0  0  0  0  0  0
    2.9687   -1.7979   -1.1691 H   0  0  0  0  0  0  0  0  0  0  0  0
  1  3  1  0  0  0  0
  1 12  1  0  0  0  0
  2 15  1  0  0  0  0
  3 19  1  0  0  0  0
  3 18  1  0  0  0  0
  4  2  1  0  0  0  0
  4 20  1  0  0  0  0
  4 21  1  0  0  0  0
  5  6  1  0  0  0  0
  5  3  1  0  0  0  0
  6 25  1  0  0  0  0
  6 24  1  0  0  0  0
  7  8  2  0  0  0  0
  7  6  1  0  0  0  0
  8  4  1  0  0  0  0
  9 10  2  0  0  0  0
  9  8  1  0  0  0  0
 11  9  2  0  0  0  0
 13  1  1  0  0  0  0
 14  1  1  0  0  0  0
 16  2  1  0  0  0  0
 17  2  1  0  0  0  0
 22  5  1  0  0  0  0
 23  5  1  0  0  0  0
 26  7  1  0  0  0  0
M  END
>  <HBA>
0

>  <HBD>
0

>  <TPSA>
45.82

>  <cid>
22441

>  <dipole>
4.71

>  <excitation_energy_1>
3.71

>  <excitation_energy_2>
4.244

>  <excitation_energy_3>
4.695

>  <excitation_energy_4>
5.96

>  <homo_energy>
-7.472

>  <homo_lumo_gap>
5.328

>  <logP>
3.27

>  <lumo_energy>
-2.144

>  <melting_point>
16.08

>  <molecular_refractivity>
48.2

>  <oscillator_strength_1>
0.0002

>  <oscillator_strength_2>
0.0025

>  <oscillator_strength_3>
0.2224

>  <oscillator_strength_4>
0.0764

>  <open_babel_can_smiles>
CCCC/C=C(/N(=O)=O)\CC

>  <mulliken_charges>
26
1   -0.443442
2   -0.446493
3   -0.24964
4   -0.330575
5   -0.254694
6   -0.312694
7   -0.146556
8   0.277238
9   0.412344
10   -0.39303
11   -0.405498
12   0.147598
13   0.145826
14   0.146207
15   0.151436
16   0.175235
17   0.144695
18   0.134995
19   0.135403
20   0.178652
21   0.149633
22   0.141993
23   0.144126
24   0.150856
25   0.159862
26   0.186525

>  <lowdin_charges>
26
1   -0.44325
2   -0.443549
3   -0.271008
4   -0.278807
5   -0.269717
6   -0.271425
7   -0.119186
8   -0.006887
9   0.300733
10   -0.250274
11   -0.256093
12   0.153252
13   0.147797
14   0.148877
15   0.155204
16   0.163515
17   0.148121
18   0.140733
19   0.140516
20   0.171159
21   0.15621
22   0.144477
23   0.144739
24   0.150969
25   0.159607
26   0.184286

$$$$

