PCCDB-ID:  10694
public computational chemistry database (PCCDB) project, http://pccdb.org

 25 25  0  0  0  0  0  0  0  0999 V2000
    0.9054   -0.0049    0.0846 C   0  0  0  0  0  0  0  0  0  0  0  0
    5.2504    2.5103    0.0665 C   0  0  0  0  0  0  0  0  0  0  0  0
    2.4237   -2.6205    0.0784 C   0  0  0  0  0  0  0  0  0  0  0  0
    6.7632   -0.1186    0.0602 C   0  0  0  0  0  0  0  0  0  0  0  0
    3.1427    1.1395    0.0722 C   0  0  0  0  0  0  0  0  0  0  0  0
    2.4181   -0.0550    0.0762 C   0  0  0  0  0  0  0  0  0  0  0  0
    4.5422    1.1727    0.0676 C   0  0  0  0  0  0  0  0  0  0  0  0
    3.1177   -1.2754    0.0742 C   0  0  0  0  0  0  0  0  0  0  0  0
    5.2553   -0.0366    0.0656 C   0  0  0  0  0  0  0  0  0  0  0  0
    4.5215   -1.2335    0.0681 C   0  0  0  0  0  0  0  0  0  0  0  0
    5.2694   -2.3880    0.0644 O   0  0  0  0  0  0  0  0  0  0  0  0
    0.5555    1.0318    0.0759 H   0  0  0  0  0  0  0  0  0  0  0  0
    0.4805   -0.4861    0.9749 H   0  0  0  0  0  0  0  0  0  0  0  0
    0.4692   -0.5048   -0.7896 H   0  0  0  0  0  0  0  0  0  0  0  0
    4.5264    3.3308    0.0737 H   0  0  0  0  0  0  0  0  0  0  0  0
    5.8853    2.6389   -0.8191 H   0  0  0  0  0  0  0  0  0  0  0  0
    5.8972    2.6338    0.9440 H   0  0  0  0  0  0  0  0  0  0  0  0
    1.3374   -2.5188    0.0856 H   0  0  0  0  0  0  0  0  0  0  0  0
    2.6887   -3.2193    0.9629 H   0  0  0  0  0  0  0  0  0  0  0  0
    2.6772   -3.2191   -0.8096 H   0  0  0  0  0  0  0  0  0  0  0  0
    7.2272    0.8698    0.0630 H   0  0  0  0  0  0  0  0  0  0  0  0
    7.1260   -0.6617   -0.8210 H   0  0  0  0  0  0  0  0  0  0  0  0
    7.1318   -0.6697    0.9340 H   0  0  0  0  0  0  0  0  0  0  0  0
    2.5973    2.0806    0.0718 H   0  0  0  0  0  0  0  0  0  0  0  0
    4.6743   -3.1520    0.0677 H   0  0  0  0  0  0  0  0  0  0  0  0
  1 13  1  0  0  0  0
  2  7  1  0  0  0  0
  2 15  1  0  0  0  0
  2 17  1  0  0  0  0
  3 18  1  0  0  0  0
  3 19  1  0  0  0  0
  4 21  1  0  0  0  0
  4  9  1  0  0  0  0
  4 23  1  0  0  0  0
  5  6  2  0  0  0  0
  6  1  1  0  0  0  0
  7  5  1  0  0  0  0
  8  6  1  0  0  0  0
  8  3  1  0  0  0  0
  9  7  2  0  0  0  0
  9 10  1  0  0  0  0
 10  8  2  0  0  0  0
 11 25  1  0  0  0  0
 11 10  1  0  0  0  0
 12  1  1  0  0  0  0
 14  1  1  0  0  0  0
 16  2  1  0  0  0  0
 20  3  1  0  0  0  0
 22  4  1  0  0  0  0
 24  5  1  0  0  0  0
M  END
>  <HBA>
1

>  <HBD>
1

>  <TPSA>
20.23

>  <cid>
10694

>  <dipole>
1.41

>  <excitation_energy_1>
4.919

>  <excitation_energy_2>
4.956

>  <excitation_energy_3>
5.304

>  <excitation_energy_4>
5.548

>  <homo_energy>
-5.557

>  <homo_lumo_gap>
5.84

>  <logP>
2.626

>  <lumo_energy>
0.283

>  <melting_point>
62.64

>  <molecular_refractivity>
48.33

>  <oscillator_strength_1>
0.0021

>  <oscillator_strength_2>
0.031

>  <oscillator_strength_3>
0.0005

>  <oscillator_strength_4>
0.001

>  <open_babel_can_smiles>
Cc1cc(C)c(c(c1C)O)C

>  <mulliken_charges>
25
1   -0.542852
2   -0.539886
3   -0.589437
4   -0.514834
5   -0.257088
6   0.133462
7   0.134681
8   0.108724
9   0.082706
10   0.21391
11   -0.651953
12   0.156365
13   0.157068
14   0.156817
15   0.152406
16   0.159368
17   0.159418
18   0.171097
19   0.159202
20   0.159313
21   0.145621
22   0.16369
23   0.163745
24   0.105469
25   0.412989

>  <lowdin_charges>
25
1   -0.444155
2   -0.443818
3   -0.456929
4   -0.441843
5   -0.202272
6   -0.004692
7   -0.004198
8   -0.066515
9   -0.041468
10   0.088884
11   -0.388083
12   0.156696
13   0.15673
14   0.156684
15   0.15593
16   0.158186
17   0.158242
18   0.167653
19   0.154599
20   0.15462
21   0.154542
22   0.162867
23   0.162957
24   0.14828
25   0.357103

$$$$

