PCCDB-ID:  6501
public computational chemistry database (PCCDB) project, http://pccdb.org

 29 30  0  0  1  0  0  0  0  0999 V2000
    0.8068    1.4048    0.5729 C   0  0  0  0  0  0  0  0  0  0  0  0
    3.8625    0.5783   -2.5253 C   0  0  0  0  0  0  0  0  0  0  0  0
    1.5412    0.2023    1.1458 C   0  0  0  0  0  0  0  0  0  0  0  0
    8.9597    0.8168   -3.4613 C   0  0  0  0  0  0  0  0  0  0  0  0
    7.9811    1.8093   -3.5411 C   0  0  0  0  0  0  0  0  0  0  0  0
    8.6699   -0.3854   -2.8143 C   0  0  0  0  0  0  0  0  0  0  0  0
    6.7210    1.5999   -2.9810 C   0  0  0  0  0  0  0  0  0  0  0  0
    7.4119   -0.5943   -2.2487 C   0  0  0  0  0  0  0  0  0  0  0  0
    6.4243    0.3958   -2.3269 C   0  0  0  0  0  0  0  0  0  0  0  0
    5.0103    0.0897   -0.2115 C   0  0  2  0  0  0  0  0  0  0  0  0
    3.8364    0.5211    0.6228 C   0  0  0  0  0  0  0  0  0  0  0  0
    5.0696    0.1630   -1.7067 C   0  0  1  0  0  0  0  0  0  0  0  0
    3.9468    1.3875    1.4665 O   0  0  0  0  0  0  0  0  0  0  0  0
    2.7013   -0.1465    0.3477 O   0  0  0  0  0  0  0  0  0  0  0  0
    4.9315   -1.0863   -1.0127 O   0  0  0  0  0  0  0  0  0  0  0  0
   -0.0977    1.5991    1.1607 H   0  0  0  0  0  0  0  0  0  0  0  0
    0.5067    1.2236   -0.4646 H   0  0  0  0  0  0  0  0  0  0  0  0
    1.4384    2.2966    0.6112 H   0  0  0  0  0  0  0  0  0  0  0  0
    3.9000    0.0917   -3.5058 H   0  0  0  0  0  0  0  0  0  0  0  0
    3.8447    1.6611   -2.6875 H   0  0  0  0  0  0  0  0  0  0  0  0
    2.9418    0.2829   -2.0213 H   0  0  0  0  0  0  0  0  0  0  0  0
    0.9222   -0.6974    1.1212 H   0  0  0  0  0  0  0  0  0  0  0  0
    1.8687    0.3915    2.1708 H   0  0  0  0  0  0  0  0  0  0  0  0
    9.9401    0.9799   -3.9006 H   0  0  0  0  0  0  0  0  0  0  0  0
    8.1978    2.7505   -4.0394 H   0  0  0  0  0  0  0  0  0  0  0  0
    9.4239   -1.1655   -2.7506 H   0  0  0  0  0  0  0  0  0  0  0  0
    5.9721    2.3839   -3.0481 H   0  0  0  0  0  0  0  0  0  0  0  0
    7.1780   -1.5282   -1.7483 H   0  0  0  0  0  0  0  0  0  0  0  0
    5.9490    0.2339    0.3224 H   0  0  0  0  0  0  0  0  0  0  0  0
  1 18  1  0  0  0  0
  1  3  1  0  0  0  0
  1 16  1  0  0  0  0
  2 21  1  0  0  0  0
  3 23  1  0  0  0  0
  4  6  1  0  0  0  0
  5  4  2  0  0  0  0
  5  7  1  0  0  0  0
  6 26  1  0  0  0  0
  6  8  2  0  0  0  0
  7  9  2  0  0  0  0
  8 28  1  0  0  0  0
  9  8  1  0  0  0  0
  9 12  1  0  0  0  0
 10 29  1  1  0  0  0
 10 11  1  0  0  0  0
 11 13  2  0  0  0  0
 12  2  1  6  0  0  0
 12 15  1  0  0  0  0
 12 10  1  0  0  0  0
 14 11  1  0  0  0  0
 14  3  1  0  0  0  0
 15 10  1  0  0  0  0
 17  1  1  0  0  0  0
 19  2  1  0  0  0  0
 20  2  1  0  0  0  0
 22  3  1  0  0  0  0
 24  4  1  0  0  0  0
 25  5  1  0  0  0  0
 27  7  1  0  0  0  0
M  END
>  <HBA>
3

>  <HBD>
0

>  <TPSA>
38.83

>  <cid>
6501

>  <dipole>
1.68

>  <excitation_energy_1>
5.206

>  <excitation_energy_2>
5.278

>  <excitation_energy_3>
5.549

>  <excitation_energy_4>
5.968

>  <homo_energy>
-6.631

>  <homo_lumo_gap>
6.071

>  <logP>
1.864

>  <lumo_energy>
-0.561

>  <melting_point>
36.85

>  <molecular_refractivity>
55.58

>  <oscillator_strength_1>
0.0012

>  <oscillator_strength_2>
0.0609

>  <oscillator_strength_3>
0.1743

>  <oscillator_strength_4>
0.0467

>  <open_babel_can_smiles>
CCOC(=O)[C@H]1O[C@]1(C)c1ccccc1

>  <mulliken_charges>
29
1   -0.465487
2   -0.496012
3   -0.04659
4   -0.124933
5   -0.136323
6   -0.12807
7   -0.174867
8   -0.182314
9   0.120467
10   -0.004601
11   0.617178
12   0.239805
13   -0.48532
14   -0.44949
15   -0.466941
16   0.153901
17   0.158149
18   0.177896
19   0.167834
20   0.157179
21   0.181925
22   0.159069
23   0.173464
24   0.131591
25   0.13241
26   0.133283
27   0.129067
28   0.15634
29   0.171388

>  <lowdin_charges>
29
1   -0.454932
2   -0.449291
3   -0.125187
4   -0.154733
5   -0.153203
6   -0.153396
7   -0.164291
8   -0.159764
9   -0.016355
10   -0.050953
11   0.183427
12   0.12197
13   -0.264132
14   -0.178094
15   -0.255296
16   0.161225
17   0.154834
18   0.166413
19   0.165446
20   0.157657
21   0.172616
22   0.15627
23   0.159362
24   0.158304
25   0.158797
26   0.16014
27   0.158647
28   0.170884
29   0.173633

$$$$

