PCCDB-ID:  20713
public computational chemistry database (PCCDB) project, http://pccdb.org

 23 23  0  0  1  0  0  0  0  0999 V2000
    0.9382   -0.0343   -0.1574 C   0  0  0  0  0  0  0  0  0  0  0  0
    2.9596   -0.9753   -1.3169 C   0  0  0  0  0  0  0  0  0  0  0  0
    2.9501    1.4286   -0.5688 C   0  0  0  0  0  0  0  0  0  0  0  0
    4.5691   -0.5080    1.4526 C   0  0  0  0  0  0  0  0  0  0  0  0
    4.3359   -1.8430    2.2210 C   0  0  0  0  0  0  0  0  0  0  0  0
    3.0343   -0.3886    1.1633 C   0  0  2  0  0  0  0  0  0  0  0  0
    2.9036   -1.8402    1.6660 C   0  0  0  0  0  0  0  0  0  0  0  0
    2.4786    0.0023   -0.2259 C   0  0  0  0  0  0  0  0  0  0  0  0
    2.0499   -2.6870    1.5661 O   0  0  0  0  0  0  0  0  0  0  0  0
    0.5022    0.2256   -1.1298 H   0  0  0  0  0  0  0  0  0  0  0  0
    0.5584    0.6837    0.5806 H   0  0  0  0  0  0  0  0  0  0  0  0
    0.5835   -1.0301    0.1260 H   0  0  0  0  0  0  0  0  0  0  0  0
    2.5479   -0.6873   -2.2914 H   0  0  0  0  0  0  0  0  0  0  0  0
    2.6334   -1.9996   -1.1067 H   0  0  0  0  0  0  0  0  0  0  0  0
    4.0519   -0.9755   -1.4137 H   0  0  0  0  0  0  0  0  0  0  0  0
    2.5354    1.7512   -1.5317 H   0  0  0  0  0  0  0  0  0  0  0  0
    4.0429    1.4853   -0.6410 H   0  0  0  0  0  0  0  0  0  0  0  0
    2.6251    2.1488    0.1924 H   0  0  0  0  0  0  0  0  0  0  0  0
    5.1619   -0.6535    0.5456 H   0  0  0  0  0  0  0  0  0  0  0  0
    5.0076    0.3091    2.0301 H   0  0  0  0  0  0  0  0  0  0  0  0
    4.3533   -1.7361    3.3121 H   0  0  0  0  0  0  0  0  0  0  0  0
    4.9476   -2.7092    1.9485 H   0  0  0  0  0  0  0  0  0  0  0  0
    2.5755    0.2705    1.9167 H   0  0  0  0  0  0  0  0  0  0  0  0
  1 12  1  0  0  0  0
  1 11  1  0  0  0  0
  2 14  1  0  0  0  0
  2  8  1  0  0  0  0
  3  8  1  0  0  0  0
  3 18  1  0  0  0  0
  4 20  1  0  0  0  0
  4  5  1  0  0  0  0
  5 21  1  0  0  0  0
  6  4  1  0  0  0  0
  6  7  1  0  0  0  0
  6 23  1  1  0  0  0
  7  5  1  0  0  0  0
  8  1  1  0  0  0  0
  8  6  1  0  0  0  0
  9  7  2  0  0  0  0
 10  1  1  0  0  0  0
 13  2  1  0  0  0  0
 15  2  1  0  0  0  0
 16  3  1  0  0  0  0
 17  3  1  0  0  0  0
 19  4  1  0  0  0  0
 22  5  1  0  0  0  0
M  END
>  <HBA>
1

>  <HBD>
0

>  <TPSA>
17.07

>  <cid>
20713

>  <dipole>
2.6

>  <excitation_energy_1>
4.14

>  <excitation_energy_2>
6.043

>  <excitation_energy_3>
6.473

>  <excitation_energy_4>
6.541

>  <homo_energy>
-6.449

>  <homo_lumo_gap>
5.905

>  <logP>
2.012

>  <lumo_energy>
-0.544

>  <melting_point>
34.76

>  <molecular_refractivity>
38.4

>  <oscillator_strength_1>
0.0004

>  <oscillator_strength_2>
0.0449

>  <oscillator_strength_3>
0.0007

>  <oscillator_strength_4>
0.0088

>  <open_babel_can_smiles>
CC([C@@H]1CCC1=O)(C)C

>  <mulliken_charges>
23
1   -0.456461
2   -0.467979
3   -0.443498
4   -0.309278
5   -0.359571
6   -0.161412
7   0.430251
8   0.103809
9   -0.438142
10   0.136794
11   0.132841
12   0.175222
13   0.142861
14   0.162162
15   0.136599
16   0.142797
17   0.141734
18   0.136789
19   0.153898
20   0.146426
21   0.172496
22   0.17036
23   0.1513

>  <lowdin_charges>
23
1   -0.446969
2   -0.446709
3   -0.441053
4   -0.290999
5   -0.319217
6   -0.168945
7   0.155407
8   0.020482
9   -0.215888
10   0.146914
11   0.145325
12   0.164067
13   0.150683
14   0.157018
15   0.142385
16   0.149606
17   0.145846
18   0.147076
19   0.153034
20   0.151852
21   0.168791
22   0.167529
23   0.163764

$$$$

