PCCDB-ID:  65245
public computational chemistry database (PCCDB) project, http://pccdb.org

 17 17  0  0  0  0  0  0  0  0999 V2000
    1.0129   -0.0055    0.1899 C   0  0  0  0  0  0  0  0  0  0  0  0
    2.5193    0.0230    0.1103 C   0  0  0  0  0  0  0  0  0  0  0  0
    3.2903   -1.1565    0.1097 C   0  0  0  0  0  0  0  0  0  0  0  0
    3.2769    1.2044    0.0459 C   0  0  0  0  0  0  0  0  0  0  0  0
    5.2031    0.0608    0.0891 C   0  0  0  0  0  0  0  0  0  0  0  0
    2.7038   -2.4022    0.1663 N   0  0  0  0  0  0  0  0  0  0  0  0
    4.6348   -1.1469    0.1032 N   0  0  0  0  0  0  0  0  0  0  0  0
    4.6082    1.2456    0.0432 N   0  0  0  0  0  0  0  0  0  0  0  0
    2.6996    2.4282   -0.0097 O   0  0  0  0  0  0  0  0  0  0  0  0
    6.5500    0.0890    0.1055 O   0  0  0  0  0  0  0  0  0  0  0  0
    0.6737   -0.8485    0.8027 H   0  0  0  0  0  0  0  0  0  0  0  0
    0.5231   -0.0899   -0.7914 H   0  0  0  0  0  0  0  0  0  0  0  0
    0.6082    0.8900    0.6793 H   0  0  0  0  0  0  0  0  0  0  0  0
    1.7896   -2.5137   -0.2475 H   0  0  0  0  0  0  0  0  0  0  0  0
    3.3442   -3.1639   -0.0168 H   0  0  0  0  0  0  0  0  0  0  0  0
    1.7376    2.3264   -0.0682 H   0  0  0  0  0  0  0  0  0  0  0  0
    6.8327   -0.8415    0.1358 H   0  0  0  0  0  0  0  0  0  0  0  0
  1 13  1  0  0  0  0
  1 11  1  0  0  0  0
  2  1  1  0  0  0  0
  3  2  2  0  0  0  0
  3  6  1  0  0  0  0
  4  2  1  0  0  0  0
  5  7  2  0  0  0  0
  5 10  1  0  0  0  0
  7  3  1  0  0  0  0
  8  4  2  0  0  0  0
  8  5  2  0  0  0  0
  9  4  1  0  0  0  0
 10 17  1  0  0  0  0
 12  1  1  0  0  0  0
 14  6  1  0  0  0  0
 15  6  1  0  0  0  0
 16  9  1  0  0  0  0
M  END
>  <HBA>
3

>  <HBD>
3

>  <TPSA>
91.74

>  <cid>
65245

>  <dipole>
5.69

>  <excitation_energy_1>
5.068

>  <excitation_energy_2>
5.271

>  <excitation_energy_3>
5.555

>  <excitation_energy_4>
5.707

>  <homo_energy>
-6.093

>  <homo_lumo_gap>
6.125

>  <logP>
-0.465

>  <lumo_energy>
0.033

>  <melting_point>
222.75

>  <molecular_refractivity>
37.05

>  <oscillator_strength_1>
0.0058

>  <oscillator_strength_2>
0.0709

>  <oscillator_strength_3>
0.0043

>  <oscillator_strength_4>
0.0025

>  <open_babel_can_smiles>
CC1=C(N)N=[C](=[N]=C1O)O

>  <mulliken_charges>
17
1   -0.579645
2   0.090835
3   0.446508
4   0.44199
5   0.639089
6   -0.777166
7   -0.576105
8   -0.489915
9   -0.595598
10   -0.589979
11   0.175136
12   0.166534
13   0.15276
14   0.331408
15   0.339626
16   0.412338
17   0.412183

>  <lowdin_charges>
17
1   -0.452526
2   -0.146546
3   0.120048
4   0.151529
5   0.165313
6   -0.465683
7   -0.261712
8   -0.196453
9   -0.34194
10   -0.341167
11   0.168089
12   0.156243
13   0.155428
14   0.283651
15   0.290317
16   0.355414
17   0.359996

$$$$

