PCCDB-ID:  21346
public computational chemistry database (PCCDB) project, http://pccdb.org

 34 36  0  0  1  0  0  0  0  0999 V2000
    0.8692   -0.2831   -3.5854 C   0  0  0  0  0  0  0  0  0  0  0  0
    1.1012    1.0902   -3.3650 C   0  0  0  0  0  0  0  0  0  0  0  0
    1.3560   -4.0810    2.0515 C   0  0  0  0  0  0  0  0  0  0  0  0
    0.7580   -5.4943    1.9839 C   0  0  0  0  0  0  0  0  0  0  0  0
    0.3086   -3.0204    1.6757 C   0  0  0  0  0  0  0  0  0  0  0  0
    0.1950   -1.0562   -2.6482 C   0  0  0  0  0  0  0  0  0  0  0  0
    0.6605    1.7177   -2.2055 C   0  0  0  0  0  0  0  0  0  0  0  0
    0.0832   -5.7277    0.6213 C   0  0  0  0  0  0  0  0  0  0  0  0
   -1.4591   -2.3373   -0.0633 C   0  0  0  0  0  0  0  0  0  0  0  0
   -1.1522    0.1523    0.5154 C   0  0  0  0  0  0  0  0  0  0  0  0
   -0.9878   -0.9326   -0.3092 C   0  0  0  0  0  0  0  0  0  0  0  0
   -0.3480   -3.3385    0.3187 C   0  0  2  0  0  0  0  0  0  0  0  0
   -0.2616   -0.4526   -1.4629 C   0  0  0  0  0  0  0  0  0  0  0  0
   -0.0186    0.9353   -1.2657 C   0  0  0  0  0  0  0  0  0  0  0  0
   -0.9011   -4.7023    0.2555 N   0  0  0  0  0  0  0  0  0  0  0  0
   -0.5703    1.2747   -0.0478 N   0  0  0  0  0  0  0  0  0  0  0  0
    1.2244   -0.7406   -4.5048 H   0  0  0  0  0  0  0  0  0  0  0  0
    1.6319    1.6696   -4.1157 H   0  0  0  0  0  0  0  0  0  0  0  0
    2.2030   -4.0146    1.3526 H   0  0  0  0  0  0  0  0  0  0  0  0
    1.7625   -3.8802    3.0509 H   0  0  0  0  0  0  0  0  0  0  0  0
    0.0092   -5.6150    2.7815 H   0  0  0  0  0  0  0  0  0  0  0  0
    1.5312   -6.2544    2.1600 H   0  0  0  0  0  0  0  0  0  0  0  0
    0.7614   -2.0220    1.6506 H   0  0  0  0  0  0  0  0  0  0  0  0
   -0.4780   -2.9920    2.4473 H   0  0  0  0  0  0  0  0  0  0  0  0
    0.0186   -2.1131   -2.8310 H   0  0  0  0  0  0  0  0  0  0  0  0
    0.8376    2.7770   -2.0371 H   0  0  0  0  0  0  0  0  0  0  0  0
   -0.4136   -6.7051    0.5926 H   0  0  0  0  0  0  0  0  0  0  0  0
    0.8510   -5.7406   -0.1661 H   0  0  0  0  0  0  0  0  0  0  0  0
   -1.9545   -2.7322   -0.9598 H   0  0  0  0  0  0  0  0  0  0  0  0
   -2.2169   -2.3332    0.7343 H   0  0  0  0  0  0  0  0  0  0  0  0
   -1.6483    0.2170    1.4747 H   0  0  0  0  0  0  0  0  0  0  0  0
    0.4344   -3.2908   -0.4541 H   0  0  0  0  0  0  0  0  0  0  0  0
   -1.6876   -4.7593    0.9057 H   0  0  0  0  0  0  0  0  0  0  0  0
   -0.5795    2.1990    0.3533 H   0  0  0  0  0  0  0  0  0  0  0  0
  1  2  2  0  0  0  0
  1  6  1  0  0  0  0
  2  7  1  0  0  0  0
  3 20  1  0  0  0  0
  4  3  1  0  0  0  0
  4 22  1  0  0  0  0
  4 21  1  0  0  0  0
  5  3  1  0  0  0  0
  5 24  1  0  0  0  0
  6 13  2  0  0  0  0
  7 26  1  0  0  0  0
  7 14  2  0  0  0  0
  8  4  1  0  0  0  0
  9 12  1  0  0  0  0
  9 30  1  0  0  0  0
 10 31  1  0  0  0  0
 11  9  1  0  0  0  0
 11 10  2  0  0  0  0
 12 32  1  6  0  0  0
 12  5  1  0  0  0  0
 13 14  1  0  0  0  0
 13 11  1  0  0  0  0
 14 16  1  0  0  0  0
 15 12  1  0  0  0  0
 15  8  1  0  0  0  0
 15 33  1  0  0  0  0
 16 34  1  0  0  0  0
 16 10  1  0  0  0  0
 17  1  1  0  0  0  0
 18  2  1  0  0  0  0
 19  3  1  0  0  0  0
 23  5  1  0  0  0  0
 25  6  1  0  0  0  0
 27  8  1  0  0  0  0
 28  8  1  0  0  0  0
 29  9  1  0  0  0  0
M  END
>  <HBA>
1

>  <HBD>
2

>  <TPSA>
27.82

>  <cid>
21346

>  <dipole>
2.88

>  <excitation_energy_1>
4.537

>  <excitation_energy_2>
4.672

>  <excitation_energy_3>
4.819

>  <excitation_energy_4>
4.901

>  <homo_energy>
-5.276

>  <homo_lumo_gap>
5.216

>  <logP>
3.181

>  <lumo_energy>
-0.06

>  <melting_point>
146.2

>  <molecular_refractivity>
71.9

>  <oscillator_strength_1>
0.0618

>  <oscillator_strength_2>
0.0009

>  <oscillator_strength_3>
0.0217

>  <oscillator_strength_4>
0.0032

>  <open_babel_can_smiles>
C1CC[C@@H](NC1)Cc1c[nH]c2c1cccc2

>  <mulliken_charges>
34
1   -0.141133
2   -0.151159
3   -0.262088
4   -0.259998
5   -0.258906
6   -0.212024
7   -0.163678
8   -0.141322
9   -0.35574
10   -0.007089
11   0.080854
12   0.032449
13   0.07566
14   0.313093
15   -0.53986
16   -0.69183
17   0.119382
18   0.121031
19   0.130717
20   0.130105
21   0.121021
22   0.127598
23   0.140247
24   0.1101
25   0.131754
26   0.118607
27   0.134811
28   0.136453
29   0.156414
30   0.123421
31   0.144123
32   0.132139
33   0.280039
34   0.324807

>  <lowdin_charges>
34
1   -0.177441
2   -0.166367
3   -0.278822
4   -0.296697
5   -0.294896
6   -0.161996
7   -0.187226
8   -0.209743
9   -0.273141
10   -0.138902
11   -0.058906
12   -0.06922
13   -0.035992
14   0.030939
15   -0.361375
16   -0.201769
17   0.15434
18   0.156136
19   0.139453
20   0.142256
21   0.134568
22   0.14424
23   0.149486
24   0.130635
25   0.156915
26   0.152489
27   0.143195
28   0.140036
29   0.159268
30   0.142687
31   0.161773
32   0.139601
33   0.244914
34   0.289562

$$$$

