PCCDB-ID:  12191
public computational chemistry database (PCCDB) project, http://pccdb.org

 18 17  0  0  0  0  0  0  0  0999 V2000
    0.5673    1.2054   -0.2756 C   0  0  0  0  0  0  0  0  0  0  0  0
    6.9868    0.7468    1.9776 C   0  0  0  0  0  0  0  0  0  0  0  0
    2.0297    0.8928   -0.3136 C   0  0  0  0  0  0  0  0  0  0  0  0
    6.6120    1.7617    0.9073 C   0  0  0  0  0  0  0  0  0  0  0  0
    2.9863    1.5885    0.3134 C   0  0  0  0  0  0  0  0  0  0  0  0
    4.4076    1.1895    0.2061 C   0  0  0  0  0  0  0  0  0  0  0  0
    4.8339    0.2416   -0.4273 O   0  0  0  0  0  0  0  0  0  0  0  0
    5.1932    2.0378    0.9167 O   0  0  0  0  0  0  0  0  0  0  0  0
   -0.0016    0.3552    0.1241 H   0  0  0  0  0  0  0  0  0  0  0  0
    0.1823    1.3867   -1.2881 H   0  0  0  0  0  0  0  0  0  0  0  0
    0.3513    2.0851    0.3386 H   0  0  0  0  0  0  0  0  0  0  0  0
    8.0745    0.6117    1.9987 H   0  0  0  0  0  0  0  0  0  0  0  0
    6.5247   -0.2215    1.7661 H   0  0  0  0  0  0  0  0  0  0  0  0
    6.6629    1.0866    2.9669 H   0  0  0  0  0  0  0  0  0  0  0  0
    2.3417    0.0289   -0.8998 H   0  0  0  0  0  0  0  0  0  0  0  0
    6.8966    1.4094   -0.0872 H   0  0  0  0  0  0  0  0  0  0  0  0
    7.0780    2.7324    1.0959 H   0  0  0  0  0  0  0  0  0  0  0  0
    2.7623    2.4628    0.9186 H   0  0  0  0  0  0  0  0  0  0  0  0
  1  9  1  0  0  0  0
  1 11  1  0  0  0  0
  2 12  1  0  0  0  0
  2 14  1  0  0  0  0
  3  1  1  0  0  0  0
  3  5  2  0  0  0  0
  4  8  1  0  0  0  0
  4 17  1  0  0  0  0
  4  2  1  0  0  0  0
  5 18  1  0  0  0  0
  6  5  1  0  0  0  0
  6  8  1  0  0  0  0
  7  6  2  0  0  0  0
 10  1  1  0  0  0  0
 13  2  1  0  0  0  0
 15  3  1  0  0  0  0
 16  4  1  0  0  0  0
M  END
>  <HBA>
2

>  <HBD>
0

>  <TPSA>
26.3

>  <cid>
12191

>  <dipole>
1.56

>  <excitation_energy_1>
4.868

>  <excitation_energy_2>
6.004

>  <excitation_energy_3>
6.353

>  <excitation_energy_4>
6.841

>  <homo_energy>
-7.211

>  <homo_lumo_gap>
6.275

>  <logP>
1.126

>  <lumo_energy>
-0.936

>  <melting_point>
-4.33

>  <molecular_refractivity>
31.77

>  <oscillator_strength_1>
0.0002

>  <oscillator_strength_2>
0.4417

>  <oscillator_strength_3>
0.1362

>  <oscillator_strength_4>
0.0047

>  <open_babel_can_smiles>
CCOC(=O)/C=C/C

>  <mulliken_charges>
18
1   -0.498217
2   -0.461208
3   -0.05435
4   -0.04189
5   -0.185909
6   0.612528
7   -0.501621
8   -0.476651
9   0.168726
10   0.169009
11   0.161631
12   0.147965
13   0.176635
14   0.155474
15   0.166134
16   0.169499
17   0.149701
18   0.142545

>  <lowdin_charges>
18
1   -0.439824
2   -0.45238
3   -0.095564
4   -0.126432
5   -0.213094
6   0.194573
7   -0.283782
8   -0.198107
9   0.167193
10   0.165949
11   0.159838
12   0.155685
13   0.165285
14   0.154708
15   0.172018
16   0.157823
17   0.150666
18   0.165446

$$$$

