PCCDB-ID:  178
public computational chemistry database (PCCDB) project, http://pccdb.org

  9  8  0  0  0  0  0  0  0  0999 V2000
    0.9892    0.1036    0.1067 C   0  0  0  0  0  0  0  0  0  0  0  0
    2.5007    0.0344    0.0191 C   0  0  0  0  0  0  0  0  0  0  0  0
    3.2120   -0.6125   -0.8081 N   0  0  0  0  0  0  0  0  0  0  0  0
    3.1594    0.7716    0.9622 O   0  0  0  0  0  0  0  0  0  0  0  0
    0.5190   -0.5088   -0.6659 H   0  0  0  0  0  0  0  0  0  0  0  0
    0.6412    1.1374   -0.0156 H   0  0  0  0  0  0  0  0  0  0  0  0
    0.6412   -0.2516    1.0854 H   0  0  0  0  0  0  0  0  0  0  0  0
    2.6124   -1.1212   -1.4583 H   0  0  0  0  0  0  0  0  0  0  0  0
    2.5152    1.2214    1.5290 H   0  0  0  0  0  0  0  0  0  0  0  0
  1  7  1  0  0  0  0
  2  1  1  0  0  0  0
  2  4  1  0  0  0  0
  3  2  2  0  0  0  0
  4  9  1  0  0  0  0
  5  1  1  0  0  0  0
  6  1  1  0  0  0  0
  8  3  1  0  0  0  0
M  END
>  <HBA>
2

>  <HBD>
1

>  <TPSA>
43.09

>  <cid>
178

>  <dipole>
4.24

>  <excitation_energy_1>
6.256

>  <excitation_energy_2>
6.308

>  <excitation_energy_3>
6.333

>  <excitation_energy_4>
7.213

>  <homo_energy>
-7.135

>  <homo_lumo_gap>
7.919

>  <logP>
0.192

>  <lumo_energy>
0.784

>  <melting_point>
51.73

>  <molecular_refractivity>
14.64

>  <oscillator_strength_1>
0.0018

>  <oscillator_strength_2>
0.001

>  <oscillator_strength_3>
0.0255

>  <oscillator_strength_4>
0.0118

>  <open_babel_can_smiles>
CC(=N)O

>  <mulliken_charges>
9
1   -0.54588
2   0.476014
3   -0.571973
4   -0.565555
5   0.171963
6   0.174134
7   0.17387
8   0.281808
9   0.405619

>  <lowdin_charges>
9
1   -0.48226
2   0.128859
3   -0.397437
4   -0.369196
5   0.170876
6   0.167006
7   0.167533
8   0.258117
9   0.356501

$$$$

