PCCDB-ID:  27971
public computational chemistry database (PCCDB) project, http://pccdb.org

 21 20  0  0  0  0  0  0  0  0999 V2000
    0.5542   -0.0419    0.5380 C   0  0  0  0  0  0  0  0  0  0  0  0
    1.9808   -0.4759   -1.5161 C   0  0  0  0  0  0  0  0  0  0  0  0
    7.9253    0.9416    1.5089 C   0  0  0  0  0  0  0  0  0  0  0  0
    4.3965    0.2464    0.2529 C   0  0  0  0  0  0  0  0  0  0  0  0
    3.0183    0.2349    0.6850 C   0  0  0  0  0  0  0  0  0  0  0  0
    5.4436    0.5736    1.0431 C   0  0  0  0  0  0  0  0  0  0  0  0
    1.9344   -0.0777   -0.0646 C   0  0  0  0  0  0  0  0  0  0  0  0
    6.8308    0.5597    0.5248 C   0  0  0  0  0  0  0  0  0  0  0  0
    7.0950    0.2533   -0.6318 O   0  0  0  0  0  0  0  0  0  0  0  0
    0.0664   -1.0236    0.4589 H   0  0  0  0  0  0  0  0  0  0  0  0
   -0.0905    0.6670   -0.0005 H   0  0  0  0  0  0  0  0  0  0  0  0
    0.5729    0.2469    1.5930 H   0  0  0  0  0  0  0  0  0  0  0  0
    1.3771    0.2147   -2.1208 H   0  0  0  0  0  0  0  0  0  0  0  0
    1.5396   -1.4728   -1.6531 H   0  0  0  0  0  0  0  0  0  0  0  0
    2.9892   -0.4944   -1.9329 H   0  0  0  0  0  0  0  0  0  0  0  0
    7.7339    1.9336    1.9374 H   0  0  0  0  0  0  0  0  0  0  0  0
    8.8933    0.9399    1.0043 H   0  0  0  0  0  0  0  0  0  0  0  0
    7.9497    0.2318    2.3461 H   0  0  0  0  0  0  0  0  0  0  0  0
    4.6369   -0.0210   -0.7738 H   0  0  0  0  0  0  0  0  0  0  0  0
    2.8479    0.5085    1.7266 H   0  0  0  0  0  0  0  0  0  0  0  0
    5.2885    0.8536    2.0841 H   0  0  0  0  0  0  0  0  0  0  0  0
  1 12  1  0  0  0  0
  2  7  1  0  0  0  0
  3 16  1  0  0  0  0
  3 18  1  0  0  0  0
  4  5  1  0  0  0  0
  4  6  2  0  0  0  0
  5 20  1  0  0  0  0
  6 21  1  0  0  0  0
  7  1  1  0  0  0  0
  7  5  2  0  0  0  0
  8  6  1  0  0  0  0
  8  3  1  0  0  0  0
  9  8  2  0  0  0  0
 10  1  1  0  0  0  0
 11  1  1  0  0  0  0
 13  2  1  0  0  0  0
 14  2  1  0  0  0  0
 15  2  1  0  0  0  0
 17  3  1  0  0  0  0
 19  4  1  0  0  0  0
M  END
>  <HBA>
1

>  <HBD>
0

>  <TPSA>
17.07

>  <cid>
27971

>  <dipole>
3.39

>  <excitation_energy_1>
3.453

>  <excitation_energy_2>
4.394

>  <excitation_energy_3>
5.673

>  <excitation_energy_4>
5.986

>  <homo_energy>
-6.106

>  <homo_lumo_gap>
4.465

>  <logP>
2.098

>  <lumo_energy>
-1.641

>  <melting_point>
16.5

>  <molecular_refractivity>
39.82

>  <oscillator_strength_1>
0.0

>  <oscillator_strength_2>
0.7683

>  <oscillator_strength_3>
0.002

>  <oscillator_strength_4>
0.0

>  <open_babel_can_smiles>
CC(=C/C=C/C(=O)C)C

>  <mulliken_charges>
21
1   -0.512305
2   -0.516515
3   -0.537274
4   -0.077352
5   -0.177805
6   -0.209549
7   0.17956
8   0.432118
9   -0.469953
10   0.160591
11   0.160802
12   0.159614
13   0.162473
14   0.162446
15   0.171986
16   0.163828
17   0.175435
18   0.166517
19   0.164003
20   0.120082
21   0.1213

>  <lowdin_charges>
21
1   -0.439658
2   -0.444515
3   -0.473112
4   -0.094958
5   -0.188556
6   -0.223272
7   0.028074
8   0.152883
9   -0.26248
10   0.159893
11   0.161588
12   0.157239
13   0.163777
14   0.161903
15   0.163583
16   0.165595
17   0.170311
18   0.168338
19   0.171063
20   0.151096
21   0.151208

$$$$

