PCCDB-ID:  70615
public computational chemistry database (PCCDB) project, http://pccdb.org

 17 16  0  0  0  0  0  0  0  0999 V2000
    2.1652    2.8410    0.7056 C   0  0  0  0  0  0  0  0  0  0  0  0
    2.3470    1.6017    1.5662 C   0  0  0  0  0  0  0  0  0  0  0  0
    4.5515   -0.7784   -0.2662 C   0  0  0  0  0  0  0  0  0  0  0  0
    5.9420   -1.3961   -0.0206 C   0  0  0  0  0  0  0  0  0  0  0  0
    4.1676    0.3980    0.6057 C   0  0  0  0  0  0  0  0  0  0  0  0
    6.1707   -2.5362   -0.3413 O   0  0  0  0  0  0  0  0  0  0  0  0
    6.8768   -0.5927    0.5031 O   0  0  0  0  0  0  0  0  0  0  0  0
    4.9717    1.1922    1.0766 O   0  0  0  0  0  0  0  0  0  0  0  0
    2.8488    0.4821    0.7789 O   0  0  0  0  0  0  0  0  0  0  0  0
    1.7138    3.6393    1.3052 H   0  0  0  0  0  0  0  0  0  0  0  0
    1.5052    2.6344   -0.1429 H   0  0  0  0  0  0  0  0  0  0  0  0
    3.1276    3.1998    0.3300 H   0  0  0  0  0  0  0  0  0  0  0  0
    1.3956    1.2367    1.9580 H   0  0  0  0  0  0  0  0  0  0  0  0
    3.0380    1.7810    2.3925 H   0  0  0  0  0  0  0  0  0  0  0  0
    3.8047   -1.5708   -0.2001 H   0  0  0  0  0  0  0  0  0  0  0  0
    4.5416   -0.4267   -1.3081 H   0  0  0  0  0  0  0  0  0  0  0  0
    6.4609    0.2653    0.7592 H   0  0  0  0  0  0  0  0  0  0  0  0
  1 10  1  0  0  0  0
  1  2  1  0  0  0  0
  2 13  1  0  0  0  0
  2 14  1  0  0  0  0
  3 15  1  0  0  0  0
  3  4  1  0  0  0  0
  3  5  1  0  0  0  0
  4  7  1  0  0  0  0
  5  9  1  0  0  0  0
  5  8  2  0  0  0  0
  6  4  2  0  0  0  0
  7 17  1  0  0  0  0
  9  2  1  0  0  0  0
 11  1  1  0  0  0  0
 12  1  1  0  0  0  0
 16  3  1  0  0  0  0
M  END
>  <HBA>
4

>  <HBD>
1

>  <TPSA>
63.6

>  <cid>
70615

>  <dipole>
5.97

>  <excitation_energy_1>
5.66

>  <excitation_energy_2>
5.916

>  <excitation_energy_3>
6.047

>  <excitation_energy_4>
6.85

>  <homo_energy>
-7.298

>  <homo_lumo_gap>
6.664

>  <logP>
0.024

>  <lumo_energy>
-0.634

>  <melting_point>
63.7

>  <molecular_refractivity>
29.21

>  <oscillator_strength_1>
0.006

>  <oscillator_strength_2>
0.015

>  <oscillator_strength_3>
0.0049

>  <oscillator_strength_4>
0.0006

>  <open_babel_can_smiles>
CCOC(=O)CC(=O)O

>  <mulliken_charges>
17
1   -0.466087
2   -0.055178
3   -0.489
4   0.605571
5   0.649802
6   -0.448698
7   -0.57752
8   -0.50701
9   -0.444669
10   0.162151
11   0.16546
12   0.178283
13   0.167979
14   0.181365
15   0.21536
16   0.221381
17   0.44081

>  <lowdin_charges>
17
1   -0.455792
2   -0.126182
3   -0.343255
4   0.187751
5   0.209329
6   -0.245697
7   -0.352213
8   -0.288466
9   -0.168967
10   0.166666
11   0.161117
12   0.166475
13   0.160746
14   0.164892
15   0.197121
16   0.202137
17   0.364337

$$$$

