PCCDB-ID:  43601
public computational chemistry database (PCCDB) project, http://pccdb.org

 14 13  0  0  0  0  0  0  0  0999 V2000
    0.5168    0.1467    0.0497 C   0  0  0  0  0  0  0  0  0  0  0  0
    2.0073   -0.0727   -0.1283 C   0  0  0  0  0  0  0  0  0  0  0  0
    4.8410   -0.2021    0.2077 C   0  0  0  0  0  0  0  0  0  0  0  0
    6.2418   -0.2321    0.4515 C   0  0  0  0  0  0  0  0  0  0  0  0
    3.9911    0.2568    1.1534 C   0  0  0  0  0  0  0  0  0  0  0  0
    7.3920   -0.2633    0.6355 N   0  0  0  0  0  0  0  0  0  0  0  0
    2.6590    0.3504    1.0822 O   0  0  0  0  0  0  0  0  0  0  0  0
   -0.0156   -0.1712   -0.8527 H   0  0  0  0  0  0  0  0  0  0  0  0
    0.2993    1.2043    0.2267 H   0  0  0  0  0  0  0  0  0  0  0  0
    0.1390   -0.4326    0.8976 H   0  0  0  0  0  0  0  0  0  0  0  0
    2.4036    0.5129   -0.9682 H   0  0  0  0  0  0  0  0  0  0  0  0
    2.2409   -1.1307   -0.3060 H   0  0  0  0  0  0  0  0  0  0  0  0
    4.5009   -0.5606   -0.7573 H   0  0  0  0  0  0  0  0  0  0  0  0
    4.3535    0.6101    2.1145 H   0  0  0  0  0  0  0  0  0  0  0  0
  1  9  1  0  0  0  0
  1 10  1  0  0  0  0
  2  1  1  0  0  0  0
  2  7  1  0  0  0  0
  3  4  1  0  0  0  0
  3  5  2  0  0  0  0
  4  6  3  0  0  0  0
  5 14  1  0  0  0  0
  7  5  1  0  0  0  0
  8  1  1  0  0  0  0
 11  2  1  0  0  0  0
 12  2  1  0  0  0  0
 13  3  1  0  0  0  0
M  END
>  <HBA>
2

>  <HBD>
0

>  <TPSA>
33.02

>  <cid>
43601

>  <dipole>
5.56

>  <excitation_energy_1>
5.903

>  <excitation_energy_2>
6.005

>  <excitation_energy_3>
6.255

>  <excitation_energy_4>
6.509

>  <homo_energy>
-6.757

>  <homo_lumo_gap>
6.065

>  <logP>
1.06

>  <lumo_energy>
-0.691

>  <melting_point>
8.84

>  <molecular_refractivity>
26.51

>  <oscillator_strength_1>
0.4491

>  <oscillator_strength_2>
0.0084

>  <oscillator_strength_3>
0.0068

>  <oscillator_strength_4>
0.0002

>  <open_babel_can_smiles>
CCO/C=C/C#N

>  <mulliken_charges>
14
1   -0.459632
2   -0.044036
3   -0.221917
4   0.301407
5   0.168139
6   -0.487851
7   -0.427158
8   0.158814
9   0.170728
10   0.17087
11   0.156755
12   0.156798
13   0.176825
14   0.180258

>  <lowdin_charges>
14
1   -0.446366
2   -0.123892
3   -0.261272
4   -0.016556
5   0.005301
6   -0.138017
7   -0.168069
8   0.163708
9   0.162687
10   0.164911
11   0.148818
12   0.146303
13   0.184543
14   0.1779

$$$$

