PCCDB-ID:  8068
public computational chemistry database (PCCDB) project, http://pccdb.org

 19 18  0  0  0  0  0  0  0  0999 V2000
    0.9750    0.0538   -0.1953 C   0  0  0  0  0  0  0  0  0  0  0  0
    6.5201   -0.6831    2.7386 C   0  0  0  0  0  0  0  0  0  0  0  0
    2.5061    0.0555   -0.1392 C   0  0  0  0  0  0  0  0  0  0  0  0
    3.0574   -0.3104    1.2444 C   0  0  0  0  0  0  0  0  0  0  0  0
    4.5859   -0.3039    1.3083 C   0  0  0  0  0  0  0  0  0  0  0  0
    5.0670   -0.7135    2.6250 N   0  0  0  0  0  0  0  0  0  0  0  0
    0.6110    0.3155   -1.1953 H   0  0  0  0  0  0  0  0  0  0  0  0
    0.5515    0.7764    0.5131 H   0  0  0  0  0  0  0  0  0  0  0  0
    0.5707   -0.9336    0.0592 H   0  0  0  0  0  0  0  0  0  0  0  0
    6.8140   -0.9382    3.7623 H   0  0  0  0  0  0  0  0  0  0  0  0
    6.9796    0.2901    2.4785 H   0  0  0  0  0  0  0  0  0  0  0  0
    6.9522   -1.4382    2.0708 H   0  0  0  0  0  0  0  0  0  0  0  0
    2.8813    1.0465   -0.4319 H   0  0  0  0  0  0  0  0  0  0  0  0
    2.8994   -0.6513   -0.8834 H   0  0  0  0  0  0  0  0  0  0  0  0
    2.6994   -1.3047    1.5419 H   0  0  0  0  0  0  0  0  0  0  0  0
    2.6612    0.3975    1.9892 H   0  0  0  0  0  0  0  0  0  0  0  0
    4.9652    0.6940    1.0049 H   0  0  0  0  0  0  0  0  0  0  0  0
    4.9852   -1.0164    0.5723 H   0  0  0  0  0  0  0  0  0  0  0  0
    4.6661   -0.0935    3.3277 H   0  0  0  0  0  0  0  0  0  0  0  0
  1  3  1  0  0  0  0
  1  9  1  0  0  0  0
  1  8  1  0  0  0  0
  2 10  1  0  0  0  0
  3  4  1  0  0  0  0
  4  5  1  0  0  0  0
  4 15  1  0  0  0  0
  4 16  1  0  0  0  0
  5  6  1  0  0  0  0
  6  2  1  0  0  0  0
  6 19  1  0  0  0  0
  7  1  1  0  0  0  0
 11  2  1  0  0  0  0
 12  2  1  0  0  0  0
 13  3  1  0  0  0  0
 14  3  1  0  0  0  0
 17  5  1  0  0  0  0
 18  5  1  0  0  0  0
M  END
>  <HBA>
1

>  <HBD>
1

>  <TPSA>
12.03

>  <cid>
8068

>  <dipole>
0.94

>  <excitation_energy_1>
5.378

>  <excitation_energy_2>
5.881

>  <excitation_energy_3>
6.067

>  <excitation_energy_4>
6.271

>  <homo_energy>
-5.834

>  <homo_lumo_gap>
8.256

>  <logP>
1.397

>  <lumo_energy>
2.422

>  <melting_point>
1.28

>  <molecular_refractivity>
28.95

>  <oscillator_strength_1>
0.0012

>  <oscillator_strength_2>
0.0264

>  <oscillator_strength_3>
0.0067

>  <oscillator_strength_4>
0.0525

>  <open_babel_can_smiles>
CCCCNC

>  <mulliken_charges>
19
1   -0.440553
2   -0.297902
3   -0.250347
4   -0.257284
5   -0.110645
6   -0.540658
7   0.141798
8   0.14091
9   0.143422
10   0.146293
11   0.11688
12   0.150074
13   0.13077
14   0.132581
15   0.145268
16   0.121033
17   0.103849
18   0.134918
19   0.289593

>  <lowdin_charges>
19
1   -0.444134
2   -0.359943
3   -0.272336
4   -0.279521
5   -0.202075
6   -0.364985
7   0.148789
8   0.147164
9   0.147013
10   0.148663
11   0.118869
12   0.148515
13   0.13843
14   0.141063
15   0.147031
16   0.135534
17   0.111187
18   0.140042
19   0.250696

$$$$

