PCCDB-ID:  14103
public computational chemistry database (PCCDB) project, http://pccdb.org

 24 24  0  0  0  0  0  0  0  0999 V2000
    0.9375    0.1624   -0.2050 C   0  0  0  0  0  0  0  0  0  0  0  0
    2.4163   -2.3745    0.3116 C   0  0  0  0  0  0  0  0  0  0  0  0
    5.2961   -2.3860    0.3316 C   0  0  0  0  0  0  0  0  0  0  0  0
    3.1653    1.3069   -0.3702 C   0  0  0  0  0  0  0  0  0  0  0  0
    4.5505    1.3223   -0.3273 C   0  0  0  0  0  0  0  0  0  0  0  0
    2.4491    0.1239   -0.1491 C   0  0  0  0  0  0  0  0  0  0  0  0
    3.1565   -1.0694    0.1033 C   0  0  0  0  0  0  0  0  0  0  0  0
    4.5698   -1.0655    0.1463 C   0  0  0  0  0  0  0  0  0  0  0  0
    5.2618    0.1503   -0.0424 C   0  0  0  0  0  0  0  0  0  0  0  0
    6.7552    0.3104    0.0201 C   0  0  0  0  0  0  0  0  0  0  0  0
    7.3824    1.0291   -0.7203 O   0  0  0  0  0  0  0  0  0  0  0  0
    7.4091   -0.3632    1.0121 O   0  0  0  0  0  0  0  0  0  0  0  0
    0.5870    1.1701   -0.4464 H   0  0  0  0  0  0  0  0  0  0  0  0
    0.4836   -0.1228    0.7524 H   0  0  0  0  0  0  0  0  0  0  0  0
    0.5368   -0.5179   -0.9662 H   0  0  0  0  0  0  0  0  0  0  0  0
    1.3452   -2.2218    0.4515 H   0  0  0  0  0  0  0  0  0  0  0  0
    2.7874   -2.9139    1.1905 H   0  0  0  0  0  0  0  0  0  0  0  0
    2.5384   -3.0496   -0.5468 H   0  0  0  0  0  0  0  0  0  0  0  0
    5.2163   -2.7622    1.3623 H   0  0  0  0  0  0  0  0  0  0  0  0
    6.3557   -2.3204    0.0803 H   0  0  0  0  0  0  0  0  0  0  0  0
    4.8594   -3.1595   -0.3083 H   0  0  0  0  0  0  0  0  0  0  0  0
    2.6236    2.2254   -0.5806 H   0  0  0  0  0  0  0  0  0  0  0  0
    5.1053    2.2374   -0.5063 H   0  0  0  0  0  0  0  0  0  0  0  0
    6.7604   -0.7895    1.5954 H   0  0  0  0  0  0  0  0  0  0  0  0
  1  6  1  0  0  0  0
  1 14  1  0  0  0  0
  2 16  1  0  0  0  0
  2 17  1  0  0  0  0
  3 19  1  0  0  0  0
  4  5  2  0  0  0  0
  4  6  1  0  0  0  0
  5  9  1  0  0  0  0
  6  7  2  0  0  0  0
  7  8  1  0  0  0  0
  7  2  1  0  0  0  0
  8  3  1  0  0  0  0
  9 10  1  0  0  0  0
  9  8  2  0  0  0  0
 10 12  1  0  0  0  0
 11 10  2  0  0  0  0
 12 24  1  0  0  0  0
 13  1  1  0  0  0  0
 15  1  1  0  0  0  0
 18  2  1  0  0  0  0
 20  3  1  0  0  0  0
 21  3  1  0  0  0  0
 22  4  1  0  0  0  0
 23  5  1  0  0  0  0
M  END
>  <HBA>
2

>  <HBD>
1

>  <TPSA>
37.3

>  <cid>
14103

>  <dipole>
5.39

>  <excitation_energy_1>
4.794

>  <excitation_energy_2>
4.947

>  <excitation_energy_3>
5.411

>  <excitation_energy_4>
5.882

>  <homo_energy>
-6.64

>  <homo_lumo_gap>
5.698

>  <logP>
2.31

>  <lumo_energy>
-0.942

>  <melting_point>
109.16

>  <molecular_refractivity>
48.3

>  <oscillator_strength_1>
0.0287

>  <oscillator_strength_2>
0.0397

>  <oscillator_strength_3>
0.0924

>  <oscillator_strength_4>
0.1478

>  <open_babel_can_smiles>
OC(=O)c1ccc(c(c1C)C)C

>  <mulliken_charges>
24
1   -0.542237
2   -0.539174
3   -0.57426
4   -0.191396
5   -0.149465
6   0.147192
7   0.064988
8   0.085175
9   -0.01241
10   0.518384
11   -0.439893
12   -0.56989
13   0.160671
14   0.165927
15   0.16676
16   0.16167
17   0.160473
18   0.16755
19   0.158853
20   0.183167
21   0.173231
22   0.130393
23   0.160571
24   0.413721

>  <lowdin_charges>
24
1   -0.445041
2   -0.446238
3   -0.460048
4   -0.168318
5   -0.136533
6   0.004798
7   -0.016087
8   -0.011933
9   -0.072221
10   0.193604
11   -0.239351
12   -0.359468
13   0.159457
14   0.161547
15   0.163357
16   0.161352
17   0.160473
18   0.162825
19   0.155786
20   0.167721
21   0.169309
22   0.159158
23   0.175758
24   0.360092

$$$$

