PCCDB-ID:  53738
public computational chemistry database (PCCDB) project, http://pccdb.org

 31 32  0  0  0  0  0  0  0  0999 V2000
    0.9930    0.3436    0.0290 C   0  0  0  0  0  0  0  0  0  0  0  0
    5.1884   -2.5701   -0.0205 C   0  0  0  0  0  0  0  0  0  0  0  0
    4.6792    1.1688    0.4818 C   0  0  0  0  0  0  0  0  0  0  0  0
    3.2963    1.2870    0.3759 C   0  0  0  0  0  0  0  0  0  0  0  0
    5.2772   -0.0827    0.3536 C   0  0  0  0  0  0  0  0  0  0  0  0
    0.2462   -6.0613    0.5077 C   0  0  0  0  0  0  0  0  0  0  0  0
    0.2308   -5.8818    2.0535 C   0  0  0  0  0  0  0  0  0  0  0  0
    2.2591   -2.3358   -0.2318 C   0  0  0  0  0  0  0  0  0  0  0  0
    2.4937    0.1636    0.1401 C   0  0  0  0  0  0  0  0  0  0  0  0
    4.5070   -1.2264    0.1166 C   0  0  0  0  0  0  0  0  0  0  0  0
    3.1051   -1.1007    0.0051 C   0  0  0  0  0  0  0  0  0  0  0  0
    1.3021   -4.2065    1.0190 C   0  0  0  0  0  0  0  0  0  0  0  0
    0.9527   -4.8857   -0.0087 N   0  0  0  0  0  0  0  0  0  0  0  0
    2.0398   -3.0589    1.0267 N   0  0  0  0  0  0  0  0  0  0  0  0
    0.9573   -4.6497    2.2696 O   0  0  0  0  0  0  0  0  0  0  0  0
    0.7097    1.3704    0.2789 H   0  0  0  0  0  0  0  0  0  0  0  0
    0.4418   -0.3237    0.7020 H   0  0  0  0  0  0  0  0  0  0  0  0
    0.6303    0.1420   -0.9870 H   0  0  0  0  0  0  0  0  0  0  0  0
    6.2592   -2.4854    0.1883 H   0  0  0  0  0  0  0  0  0  0  0  0
    5.0823   -2.9771   -1.0347 H   0  0  0  0  0  0  0  0  0  0  0  0
    4.7629   -3.3094    0.6664 H   0  0  0  0  0  0  0  0  0  0  0  0
    5.2894    2.0492    0.6660 H   0  0  0  0  0  0  0  0  0  0  0  0
    2.8269    2.2623    0.4794 H   0  0  0  0  0  0  0  0  0  0  0  0
    6.3572   -0.1785    0.4369 H   0  0  0  0  0  0  0  0  0  0  0  0
   -0.7681   -6.1122    0.0920 H   0  0  0  0  0  0  0  0  0  0  0  0
    0.7617   -6.9836    0.2096 H   0  0  0  0  0  0  0  0  0  0  0  0
    0.7486   -6.6801    2.5937 H   0  0  0  0  0  0  0  0  0  0  0  0
   -0.7741   -5.7631    2.4711 H   0  0  0  0  0  0  0  0  0  0  0  0
    2.7539   -3.0279   -0.9186 H   0  0  0  0  0  0  0  0  0  0  0  0
    1.3005   -2.0786   -0.6974 H   0  0  0  0  0  0  0  0  0  0  0  0
    1.9621   -2.5013    1.8669 H   0  0  0  0  0  0  0  0  0  0  0  0
  1  9  1  0  0  0  0
  1 16  1  0  0  0  0
  1 17  1  0  0  0  0
  2 10  1  0  0  0  0
  2 19  1  0  0  0  0
  2 21  1  0  0  0  0
  3 22  1  0  0  0  0
  4 23  1  0  0  0  0
  4  3  1  0  0  0  0
  5 24  1  0  0  0  0
  5  3  2  0  0  0  0
  6  7  1  0  0  0  0
  7 15  1  0  0  0  0
  7 28  1  0  0  0  0
  7 27  1  0  0  0  0
  8 11  1  0  0  0  0
  8 14  1  0  0  0  0
  9  4  2  0  0  0  0
 10  5  1  0  0  0  0
 11 10  2  0  0  0  0
 11  9  1  0  0  0  0
 12 14  1  0  0  0  0
 12 15  1  0  0  0  0
 13  6  1  0  0  0  0
 13 12  2  0  0  0  0
 14 31  1  0  0  0  0
 18  1  1  0  0  0  0
 20  2  1  0  0  0  0
 25  6  1  0  0  0  0
 26  6  1  0  0  0  0
 29  8  1  0  0  0  0
 30  8  1  0  0  0  0
M  END
>  <HBA>
3

>  <HBD>
1

>  <TPSA>
33.62

>  <cid>
53738

>  <dipole>
1.27

>  <excitation_energy_1>
4.953

>  <excitation_energy_2>
5.138

>  <excitation_energy_3>
5.356

>  <excitation_energy_4>
5.422

>  <homo_energy>
-5.823

>  <homo_lumo_gap>
5.66

>  <logP>
1.606

>  <lumo_energy>
-0.163

>  <melting_point>
73.51

>  <molecular_refractivity>
64.54

>  <oscillator_strength_1>
0.0

>  <oscillator_strength_2>
0.0076

>  <oscillator_strength_3>
0.0051

>  <oscillator_strength_4>
0.0003

>  <open_babel_can_smiles>
Cc1cccc(c1CNC1=NCCO1)C

>  <mulliken_charges>
31
1   -0.537601
2   -0.541223
3   -0.116954
4   -0.190782
5   -0.190561
6   -0.166088
7   -0.05639
8   -0.179748
9   0.139786
10   0.151972
11   -0.004443
12   0.727882
13   -0.49982
14   -0.640869
15   -0.508225
16   0.156591
17   0.157053
18   0.168942
19   0.151837
20   0.16407
21   0.1798
22   0.127494
23   0.120512
24   0.121515
25   0.146225
26   0.146495
27   0.153667
28   0.151491
29   0.175874
30   0.156776
31   0.334723

>  <lowdin_charges>
31
1   -0.445507
2   -0.445601
3   -0.153656
4   -0.174223
5   -0.170132
6   -0.208155
7   -0.139274
8   -0.186233
9   -0.004407
10   0.004935
11   -0.040869
12   0.151897
13   -0.288607
14   -0.287484
15   -0.230503
16   0.157167
17   0.158145
18   0.16164
19   0.154363
20   0.160189
21   0.169616
22   0.157964
23   0.15345
24   0.15222
25   0.144004
26   0.144546
27   0.150444
28   0.14673
29   0.168235
30   0.150689
31   0.288419

$$$$

