PCCDB-ID:  68237
public computational chemistry database (PCCDB) project, http://pccdb.org

 22 22  0  0  0  0  0  0  0  0999 V2000
    0.8931    0.1383    0.1154 C   0  0  0  0  0  0  0  0  0  0  0  0
    2.3580   -2.4659    0.1847 C   0  0  0  0  0  0  0  0  0  0  0  0
    5.3431   -2.4248    0.2498 C   0  0  0  0  0  0  0  0  0  0  0  0
    3.1304    1.2710    0.1708 C   0  0  0  0  0  0  0  0  0  0  0  0
    4.5221    1.2786    0.2119 C   0  0  0  0  0  0  0  0  0  0  0  0
    2.4060    0.0766    0.1601 C   0  0  0  0  0  0  0  0  0  0  0  0
    3.1111   -1.1494    0.1917 C   0  0  0  0  0  0  0  0  0  0  0  0
    4.5186   -1.1582    0.2259 C   0  0  0  0  0  0  0  0  0  0  0  0
    5.2070    0.0669    0.2400 C   0  0  0  0  0  0  0  0  0  0  0  0
    6.5794    0.0035    0.2801 O   0  0  0  0  0  0  0  0  0  0  0  0
    0.5545    1.1790    0.0925 H   0  0  0  0  0  0  0  0  0  0  0  0
    0.4291   -0.3350    0.9903 H   0  0  0  0  0  0  0  0  0  0  0  0
    0.4811   -0.3574   -0.7729 H   0  0  0  0  0  0  0  0  0  0  0  0
    1.2777   -2.3194    0.2264 H   0  0  0  0  0  0  0  0  0  0  0  0
    2.6339   -3.0936    1.0405 H   0  0  0  0  0  0  0  0  0  0  0  0
    2.5715   -3.0495   -0.7201 H   0  0  0  0  0  0  0  0  0  0  0  0
    4.7331   -3.3219    0.1360 H   0  0  0  0  0  0  0  0  0  0  0  0
    5.9038   -2.5125    1.1892 H   0  0  0  0  0  0  0  0  0  0  0  0
    6.0902   -2.4160   -0.5521 H   0  0  0  0  0  0  0  0  0  0  0  0
    2.5964    2.2180    0.1472 H   0  0  0  0  0  0  0  0  0  0  0  0
    5.0701    2.2195    0.2205 H   0  0  0  0  0  0  0  0  0  0  0  0
    6.9293    0.9076    0.2764 H   0  0  0  0  0  0  0  0  0  0  0  0
  1  6  1  0  0  0  0
  1 12  1  0  0  0  0
  2  7  1  0  0  0  0
  2 14  1  0  0  0  0
  2 15  1  0  0  0  0
  3 18  1  0  0  0  0
  4  5  1  0  0  0  0
  5 21  1  0  0  0  0
  5  9  2  0  0  0  0
  6  4  2  0  0  0  0
  6  7  1  0  0  0  0
  7  8  2  0  0  0  0
  8  9  1  0  0  0  0
  8  3  1  0  0  0  0
  9 10  1  0  0  0  0
 11  1  1  0  0  0  0
 13  1  1  0  0  0  0
 16  2  1  0  0  0  0
 17  3  1  0  0  0  0
 19  3  1  0  0  0  0
 20  4  1  0  0  0  0
 22 10  1  0  0  0  0
M  END
>  <HBA>
1

>  <HBD>
1

>  <TPSA>
20.23

>  <cid>
68237

>  <dipole>
0.83

>  <excitation_energy_1>
4.889

>  <excitation_energy_2>
4.92

>  <excitation_energy_3>
5.453

>  <excitation_energy_4>
5.57

>  <homo_energy>
-5.562

>  <homo_lumo_gap>
5.777

>  <logP>
2.317

>  <lumo_energy>
0.215

>  <melting_point>
57.8

>  <molecular_refractivity>
43.36

>  <oscillator_strength_1>
0.0396

>  <oscillator_strength_2>
0.0008

>  <oscillator_strength_3>
0.0001

>  <oscillator_strength_4>
0.0005

>  <open_babel_can_smiles>
Cc1ccc(c(c1C)C)O

>  <mulliken_charges>
22
1   -0.540057
2   -0.542434
3   -0.516248
4   -0.199001
5   -0.187447
6   0.139941
7   0.059971
8   0.081146
9   0.296316
10   -0.648271
11   0.150821
12   0.157126
13   0.156858
14   0.155482
15   0.161467
16   0.161777
17   0.147244
18   0.164288
19   0.167148
20   0.117679
21   0.110908
22   0.405286

>  <lowdin_charges>
22
1   -0.443938
2   -0.446982
3   -0.442939
4   -0.163583
5   -0.219334
6   -0.028538
7   -0.009661
8   -0.03696
9   0.093026
10   -0.386503
11   0.15369
12   0.155962
13   0.155944
14   0.157866
15   0.160111
16   0.159732
17   0.156361
18   0.162655
19   0.164979
20   0.152893
21   0.150349
22   0.354873

$$$$

