PCCDB-ID:  11140
public computational chemistry database (PCCDB) project, http://pccdb.org

 18 18  0  0  0  0  0  0  0  0999 V2000
    1.4404    0.6989    0.7020 C   0  0  0  0  0  0  0  0  0  0  0  0
    4.1560    0.0917   -3.2245 C   0  0  0  0  0  0  0  0  0  0  0  0
    4.1081    1.4532   -3.5357 C   0  0  0  0  0  0  0  0  0  0  0  0
    3.5028   -0.4054   -2.1028 C   0  0  0  0  0  0  0  0  0  0  0  0
    2.7212    1.8222   -1.5505 C   0  0  0  0  0  0  0  0  0  0  0  0
    3.3889    2.2843   -2.6860 C   0  0  0  0  0  0  0  0  0  0  0  0
    2.7815    0.4575   -1.2589 C   0  0  0  0  0  0  0  0  0  0  0  0
    3.3213    3.7253   -2.9890 N   0  0  0  0  0  0  0  0  0  0  0  0
    3.9046    4.1269   -3.9950 O   0  0  0  0  0  0  0  0  0  0  0  0
    2.6848    4.4445   -2.2180 O   0  0  0  0  0  0  0  0  0  0  0  0
    2.1802   -0.1268   -0.1895 O   0  0  0  0  0  0  0  0  0  0  0  0
    1.0486    0.0299    1.4695 H   0  0  0  0  0  0  0  0  0  0  0  0
    0.6063    1.1949    0.1899 H   0  0  0  0  0  0  0  0  0  0  0  0
    2.0813    1.4566    1.1702 H   0  0  0  0  0  0  0  0  0  0  0  0
    4.7101   -0.5864   -3.8665 H   0  0  0  0  0  0  0  0  0  0  0  0
    4.6061    1.8657   -4.4033 H   0  0  0  0  0  0  0  0  0  0  0  0
    3.5339   -1.4612   -1.8533 H   0  0  0  0  0  0  0  0  0  0  0  0
    2.1828    2.5310   -0.9376 H   0  0  0  0  0  0  0  0  0  0  0  0
  1 14  1  0  0  0  0
  1 12  1  0  0  0  0
  2  4  1  0  0  0  0
  3  2  2  0  0  0  0
  3  6  1  0  0  0  0
  4 17  1  0  0  0  0
  4  7  2  0  0  0  0
  5  7  1  0  0  0  0
  5 18  1  0  0  0  0
  6  5  2  0  0  0  0
  7 11  1  0  0  0  0
  8  6  1  0  0  0  0
  8 10  2  0  0  0  0
  9  8  2  0  0  0  0
 11  1  1  0  0  0  0
 13  1  1  0  0  0  0
 15  2  1  0  0  0  0
 16  3  1  0  0  0  0
M  END
>  <HBA>
1

>  <HBD>
0

>  <TPSA>
55.05

>  <cid>
11140

>  <dipole>
4.08

>  <excitation_energy_1>
3.53

>  <excitation_energy_2>
3.737

>  <excitation_energy_3>
4.268

>  <excitation_energy_4>
4.537

>  <homo_energy>
-6.642

>  <homo_lumo_gap>
4.264

>  <logP>
2.127

>  <lumo_energy>
-2.378

>  <melting_point>
48.22

>  <molecular_refractivity>
41.76

>  <oscillator_strength_1>
0.0401

>  <oscillator_strength_2>
0.0

>  <oscillator_strength_3>
0.0003

>  <oscillator_strength_4>
0.1423

>  <open_babel_can_smiles>
COc1cccc(c1)N(=O)=O

>  <mulliken_charges>
18
1   -0.222305
2   -0.14257
3   -0.15994
4   -0.150228
5   -0.232786
6   0.271325
7   0.38154
8   0.383334
9   -0.392725
10   -0.399278
11   -0.505755
12   0.178067
13   0.161942
14   0.162004
15   0.150201
16   0.179694
17   0.154597
18   0.182884

>  <lowdin_charges>
18
1   -0.281552
2   -0.141282
3   -0.159066
4   -0.156736
5   -0.20221
6   0.012697
7   0.107368
8   0.311513
9   -0.245339
10   -0.251978
11   -0.190383
12   0.168922
13   0.152011
14   0.15247
15   0.170507
16   0.187773
17   0.173562
18   0.191721

$$$$

