PCCDB-ID:  31114
public computational chemistry database (PCCDB) project, http://pccdb.org

 23 22  0  0  0  0  0  0  0  0999 V2000
    2.6136    0.9755    0.3948 C   0  0  0  0  0  0  0  0  0  0  0  0
    2.2493   -3.0072    2.8623 C   0  0  0  0  0  0  0  0  0  0  0  0
    0.6348   -2.0699    1.1722 C   0  0  0  0  0  0  0  0  0  0  0  0
    5.2510   -2.8251    1.4576 C   0  0  0  0  0  0  0  0  0  0  0  0
    2.9068   -0.4569   -0.0858 C   0  0  0  0  0  0  0  0  0  0  0  0
    2.0712   -2.1369    1.6367 C   0  0  0  0  0  0  0  0  0  0  0  0
    4.4962   -1.5078    1.5702 C   0  0  0  0  0  0  0  0  0  0  0  0
    3.0764   -1.4463    1.0602 C   0  0  0  0  0  0  0  0  0  0  0  0
    5.0720   -0.4955    1.9375 O   0  0  0  0  0  0  0  0  0  0  0  0
    2.5448    1.6641   -0.4559 H   0  0  0  0  0  0  0  0  0  0  0  0
    3.4094    1.3195    1.0605 H   0  0  0  0  0  0  0  0  0  0  0  0
    1.6668    1.0172    0.9451 H   0  0  0  0  0  0  0  0  0  0  0  0
    1.5378   -2.7017    3.6412 H   0  0  0  0  0  0  0  0  0  0  0  0
    3.2476   -2.9527    3.3009 H   0  0  0  0  0  0  0  0  0  0  0  0
    2.0260   -4.0599    2.6373 H   0  0  0  0  0  0  0  0  0  0  0  0
    0.2341   -3.0831    1.0298 H   0  0  0  0  0  0  0  0  0  0  0  0
    0.4992   -1.5195    0.2397 H   0  0  0  0  0  0  0  0  0  0  0  0
    0.0045   -1.5938    1.9361 H   0  0  0  0  0  0  0  0  0  0  0  0
    5.5723   -2.9358    0.4122 H   0  0  0  0  0  0  0  0  0  0  0  0
    4.6359   -3.6968    1.6928 H   0  0  0  0  0  0  0  0  0  0  0  0
    6.1436   -2.7983    2.0880 H   0  0  0  0  0  0  0  0  0  0  0  0
    3.8259   -0.4437   -0.6854 H   0  0  0  0  0  0  0  0  0  0  0  0
    2.1119   -0.7931   -0.7604 H   0  0  0  0  0  0  0  0  0  0  0  0
  1 12  1  0  0  0  0
  1 11  1  0  0  0  0
  2 14  1  0  0  0  0
  2 13  1  0  0  0  0
  3  6  1  0  0  0  0
  3 18  1  0  0  0  0
  4  7  1  0  0  0  0
  4 20  1  0  0  0  0
  4 21  1  0  0  0  0
  5  1  1  0  0  0  0
  5  8  1  0  0  0  0
  6  2  1  0  0  0  0
  7  9  2  0  0  0  0
  8  7  1  0  0  0  0
  8  6  2  0  0  0  0
 10  1  1  0  0  0  0
 15  2  1  0  0  0  0
 16  3  1  0  0  0  0
 17  3  1  0  0  0  0
 19  4  1  0  0  0  0
 22  5  1  0  0  0  0
 23  5  1  0  0  0  0
M  END
>  <HBA>
1

>  <HBD>
0

>  <TPSA>
17.07

>  <cid>
31114

>  <dipole>
2.92

>  <excitation_energy_1>
4.062

>  <excitation_energy_2>
4.92

>  <excitation_energy_3>
5.842

>  <excitation_energy_4>
5.963

>  <homo_energy>
-6.359

>  <homo_lumo_gap>
5.685

>  <logP>
2.322

>  <lumo_energy>
-0.675

>  <melting_point>
10.13

>  <molecular_refractivity>
40.3

>  <oscillator_strength_1>
0.0044

>  <oscillator_strength_2>
0.0867

>  <oscillator_strength_3>
0.0132

>  <oscillator_strength_4>
0.0045

>  <open_babel_can_smiles>
CCC(=C(C)C)C(=O)C

>  <mulliken_charges>
23
1   -0.438715
2   -0.515094
3   -0.510535
4   -0.52425
5   -0.31961
6   0.137549
7   0.368488
8   0.028391
9   -0.435215
10   0.137172
11   0.180775
12   0.140703
13   0.160257
14   0.161926
15   0.154321
16   0.153697
17   0.160364
18   0.160662
19   0.175083
20   0.1654
21   0.174866
22   0.141867
23   0.141897

>  <lowdin_charges>
23
1   -0.445081
2   -0.445255
3   -0.444981
4   -0.475076
5   -0.266997
6   -0.002018
7   0.166268
8   -0.066993
9   -0.24079
10   0.147101
11   0.167176
12   0.146102
13   0.161547
14   0.159802
15   0.154623
16   0.156272
17   0.159379
18   0.16119
19   0.174225
20   0.16624
21   0.170219
22   0.148614
23   0.148434

$$$$

