PCCDB-ID:  16304
public computational chemistry database (PCCDB) project, http://pccdb.org

 25 25  0  0  0  0  0  0  0  0999 V2000
    1.4587   -0.0798    0.9804 C   0  0  0  0  0  0  0  0  0  0  0  0
    6.7667    0.7088   -1.3787 C   0  0  0  0  0  0  0  0  0  0  0  0
    6.1718   -2.4115    1.8984 C   0  0  0  0  0  0  0  0  0  0  0  0
    3.2553    1.4036   -0.0198 C   0  0  0  0  0  0  0  0  0  0  0  0
    4.5158    1.5783   -0.5931 C   0  0  0  0  0  0  0  0  0  0  0  0
    3.7294   -0.9320    0.2580 C   0  0  0  0  0  0  0  0  0  0  0  0
    2.8404    0.1382    0.4069 C   0  0  0  0  0  0  0  0  0  0  0  0
    5.4067    0.5154   -0.7568 C   0  0  0  0  0  0  0  0  0  0  0  0
    6.3168   -2.5807    0.4012 C   0  0  0  0  0  0  0  0  0  0  0  0
    5.0036   -0.7611   -0.3052 C   0  0  0  0  0  0  0  0  0  0  0  0
    5.8572   -1.8534   -0.5299 N   0  0  0  0  0  0  0  0  0  0  0  0
    7.0739   -3.6500    0.0150 O   0  0  0  0  0  0  0  0  0  0  0  0
    1.1004    0.8098    1.5101 H   0  0  0  0  0  0  0  0  0  0  0  0
    1.4414   -0.9205    1.6826 H   0  0  0  0  0  0  0  0  0  0  0  0
    0.7286   -0.3027    0.1906 H   0  0  0  0  0  0  0  0  0  0  0  0
    6.8478    1.6943   -1.8485 H   0  0  0  0  0  0  0  0  0  0  0  0
    6.9635   -0.0611   -2.1329 H   0  0  0  0  0  0  0  0  0  0  0  0
    7.5707    0.6273   -0.6348 H   0  0  0  0  0  0  0  0  0  0  0  0
    5.6406   -3.2654    2.3373 H   0  0  0  0  0  0  0  0  0  0  0  0
    5.6211   -1.5019    2.1400 H   0  0  0  0  0  0  0  0  0  0  0  0
    7.1635   -2.3597    2.3662 H   0  0  0  0  0  0  0  0  0  0  0  0
    2.5869    2.2551    0.0855 H   0  0  0  0  0  0  0  0  0  0  0  0
    4.8180    2.5695   -0.9253 H   0  0  0  0  0  0  0  0  0  0  0  0
    3.4242   -1.9324    0.5574 H   0  0  0  0  0  0  0  0  0  0  0  0
    7.3918   -4.1163    0.8033 H   0  0  0  0  0  0  0  0  0  0  0  0
  1 13  1  0  0  0  0
  1 14  1  0  0  0  0
  2  8  1  0  0  0  0
  2 18  1  0  0  0  0
  3 20  1  0  0  0  0
  3 19  1  0  0  0  0
  3 21  1  0  0  0  0
  4 22  1  0  0  0  0
  4  7  2  0  0  0  0
  5  4  1  0  0  0  0
  6  7  1  0  0  0  0
  6 24  1  0  0  0  0
  7  1  1  0  0  0  0
  8  5  2  0  0  0  0
  8 10  1  0  0  0  0
  9  3  1  0  0  0  0
 10  6  2  0  0  0  0
 11 10  1  0  0  0  0
 11  9  2  0  0  0  0
 12  9  1  0  0  0  0
 12 25  1  0  0  0  0
 15  1  1  0  0  0  0
 16  2  1  0  0  0  0
 17  2  1  0  0  0  0
 23  5  1  0  0  0  0
M  END
>  <HBA>
2

>  <HBD>
1

>  <TPSA>
29.1

>  <cid>
16304

>  <dipole>
3.66

>  <excitation_energy_1>
4.707

>  <excitation_energy_2>
4.782

>  <excitation_energy_3>
4.841

>  <excitation_energy_4>
5.449

>  <homo_energy>
-5.554

>  <homo_lumo_gap>
5.565

>  <logP>
2.335

>  <lumo_energy>
0.011

>  <melting_point>
68.27

>  <molecular_refractivity>
50.69

>  <oscillator_strength_1>
0.1096

>  <oscillator_strength_2>
0.0026

>  <oscillator_strength_3>
0.0134

>  <oscillator_strength_4>
0.0028

>  <open_babel_can_smiles>
Cc1ccc(c(c1)/N=C(/O)\C)C

>  <mulliken_charges>
25
1   -0.528576
2   -0.521808
3   -0.554582
4   -0.178337
5   -0.19876
6   -0.212406
7   0.171943
8   0.156463
9   0.480585
10   0.189001
11   -0.46877
12   -0.571512
13   0.153859
14   0.150045
15   0.165003
16   0.144139
17   0.178263
18   0.150385
19   0.174676
20   0.199714
21   0.169191
22   0.113617
23   0.117929
24   0.112805
25   0.407134

>  <lowdin_charges>
25
1   -0.443382
2   -0.441541
3   -0.484377
4   -0.184466
5   -0.162258
6   -0.19875
7   -0.001221
8   -0.019419
9   0.146274
10   0.037597
11   -0.168548
12   -0.363453
13   0.156979
14   0.154629
15   0.161803
16   0.151423
17   0.170032
18   0.15531
19   0.170172
20   0.185193
21   0.166341
22   0.152354
23   0.152227
24   0.150941
25   0.356141

$$$$

