PCCDB-ID:  31056
public computational chemistry database (PCCDB) project, http://pccdb.org

 41 42  0  0  1  0  0  0  0  0999 V2000
    6.1070    1.0162    2.2163 C   0  0  0  0  0  0  0  0  0  0  0  0
    3.7626    1.0344    1.7214 C   0  0  0  0  0  0  0  0  0  0  0  0
    3.0294   -2.7110   -6.1346 C   0  0  0  0  0  0  0  0  0  0  0  0
    1.8776   -1.8072   -5.6671 C   0  0  0  0  0  0  0  0  0  0  0  0
    4.0899   -2.8880   -5.0367 C   0  0  0  0  0  0  0  0  0  0  0  0
    2.3962   -0.4561   -5.1480 C   0  0  0  0  0  0  0  0  0  0  0  0
    5.6755   -1.6659   -3.4286 C   0  0  0  0  0  0  0  0  0  0  0  0
    6.1330   -0.2792   -2.9385 C   0  0  0  0  0  0  0  0  0  0  0  0
    5.3885    0.9986   -0.0853 C   0  0  0  0  0  0  0  0  0  0  0  0
    4.5394    0.2822   -1.1476 C   0  0  0  0  0  0  0  0  0  0  0  0
    4.0091    0.7043   -3.5311 C   0  0  0  0  0  0  0  0  0  0  0  0
    4.6113   -1.5348   -4.5287 C   0  0  2  0  0  0  0  0  0  0  0  0
    3.4504   -0.6385   -4.0450 C   0  0  2  0  0  0  0  0  0  0  0  0
    5.0766    0.5826    1.2823 N   0  0  0  0  0  0  0  0  0  0  0  0
    5.0351    0.5863   -2.4932 N   0  0  0  0  0  0  0  0  0  0  0  0
    5.8797    0.6356    3.2186 H   0  0  0  0  0  0  0  0  0  0  0  0
    6.2029    2.1186    2.2855 H   0  0  0  0  0  0  0  0  0  0  0  0
    7.0783    0.6111    1.9120 H   0  0  0  0  0  0  0  0  0  0  0  0
    3.5705    0.6674    2.7357 H   0  0  0  0  0  0  0  0  0  0  0  0
    2.9802    0.6321    1.0713 H   0  0  0  0  0  0  0  0  0  0  0  0
    3.6644    2.1391    1.7333 H   0  0  0  0  0  0  0  0  0  0  0  0
    3.5016   -2.2627   -7.0214 H   0  0  0  0  0  0  0  0  0  0  0  0
    2.6413   -3.6881   -6.4497 H   0  0  0  0  0  0  0  0  0  0  0  0
    1.3257   -2.3136   -4.8614 H   0  0  0  0  0  0  0  0  0  0  0  0
    1.1615   -1.6505   -6.4842 H   0  0  0  0  0  0  0  0  0  0  0  0
    4.9258   -3.4948   -5.4112 H   0  0  0  0  0  0  0  0  0  0  0  0
    3.6543   -3.4458   -4.1935 H   0  0  0  0  0  0  0  0  0  0  0  0
    1.5609    0.1513   -4.7728 H   0  0  0  0  0  0  0  0  0  0  0  0
    2.8402    0.1082   -5.9827 H   0  0  0  0  0  0  0  0  0  0  0  0
    5.2650   -2.2431   -2.5875 H   0  0  0  0  0  0  0  0  0  0  0  0
    6.5416   -2.2308   -3.8012 H   0  0  0  0  0  0  0  0  0  0  0  0
    6.6539    0.2357   -3.7595 H   0  0  0  0  0  0  0  0  0  0  0  0
    6.8584   -0.3795   -2.1235 H   0  0  0  0  0  0  0  0  0  0  0  0
    5.2894    2.0930   -0.2268 H   0  0  0  0  0  0  0  0  0  0  0  0
    6.4426    0.7577   -0.2663 H   0  0  0  0  0  0  0  0  0  0  0  0
    3.5012    0.6261   -1.0871 H   0  0  0  0  0  0  0  0  0  0  0  0
    4.5262   -0.7958   -0.9138 H   0  0  0  0  0  0  0  0  0  0  0  0
    3.1979    1.3360   -3.1483 H   0  0  0  0  0  0  0  0  0  0  0  0
    4.4543    1.2459   -4.3809 H   0  0  0  0  0  0  0  0  0  0  0  0
    5.0827   -1.0180   -5.3842 H   0  0  0  0  0  0  0  0  0  0  0  0
    2.9638   -1.1500   -3.1971 H   0  0  0  0  0  0  0  0  0  0  0  0
  1 17  1  0  0  0  0
  1 16  1  0  0  0  0
  2 21  1  0  0  0  0
  2 19  1  0  0  0  0
  3  4  1  0  0  0  0
  3  5  1  0  0  0  0
  4  6  1  0  0  0  0
  4 24  1  0  0  0  0
  5 12  1  0  0  0  0
  5 27  1  0  0  0  0
  6 28  1  0  0  0  0
  6 13  1  0  0  0  0
  7  8  1  0  0  0  0
  7 30  1  0  0  0  0
  8 15  1  0  0  0  0
  8 33  1  0  0  0  0
  9 14  1  0  0  0  0
 10 36  1  0  0  0  0
 10 37  1  0  0  0  0
 10  9  1  0  0  0  0
 11 38  1  0  0  0  0
 11 15  1  0  0  0  0
 12 40  1  6  0  0  0
 12 13  1  0  0  0  0
 12  7  1  0  0  0  0
 13 11  1  0  0  0  0
 13 41  1  1  0  0  0
 14  2  1  0  0  0  0
 14  1  1  0  0  0  0
 15 10  1  0  0  0  0
 18  1  1  0  0  0  0
 20  2  1  0  0  0  0
 22  3  1  0  0  0  0
 23  3  1  0  0  0  0
 25  4  1  0  0  0  0
 26  5  1  0  0  0  0
 29  6  1  0  0  0  0
 31  7  1  0  0  0  0
 32  8  1  0  0  0  0
 34  9  1  0  0  0  0
 35  9  1  0  0  0  0
 39 11  1  0  0  0  0
M  END
>  <HBA>
2

>  <HBD>
0

>  <TPSA>
6.48

>  <cid>
31056

>  <dipole>
0.42

>  <excitation_energy_1>
4.872

>  <excitation_energy_2>
5.046

>  <excitation_energy_3>
5.189

>  <excitation_energy_4>
5.236

>  <homo_energy>
-5.268

>  <homo_lumo_gap>
7.502

>  <logP>
1.998

>  <lumo_energy>
2.234

>  <melting_point>
19.22

>  <molecular_refractivity>
70.08

>  <oscillator_strength_1>
0.0139

>  <oscillator_strength_2>
0.006

>  <oscillator_strength_3>
0.0069

>  <oscillator_strength_4>
0.0066

>  <open_babel_can_smiles>
CN(CCN1CC[C@@H]2[C@@H](C1)CCCC2)C

>  <mulliken_charges>
41
1   -0.291669
2   -0.300113
3   -0.259823
4   -0.258681
5   -0.259183
6   -0.262224
7   -0.269578
8   -0.151532
9   -0.107642
10   -0.13783
11   -0.149086
12   -0.077156
13   -0.085393
14   -0.371022
15   -0.381431
16   0.144889
17   0.116501
18   0.14704
19   0.146706
20   0.151273
21   0.115911
22   0.127151
23   0.129249
24   0.127449
25   0.12919
26   0.125928
27   0.124197
28   0.126017
29   0.124549
30   0.132507
31   0.125423
32   0.133572
33   0.137259
34   0.114712
35   0.135059
36   0.133053
37   0.132662
38   0.131763
39   0.128285
40   0.1073
41   0.114719

>  <lowdin_charges>
41
1   -0.352215
2   -0.356061
3   -0.278035
4   -0.278595
5   -0.279389
6   -0.279367
7   -0.29524
8   -0.205887
9   -0.202604
10   -0.204065
11   -0.207869
12   -0.132637
13   -0.148697
14   -0.186043
15   -0.185783
16   0.14698
17   0.117157
18   0.148104
19   0.148654
20   0.150366
21   0.11695
22   0.137787
23   0.142852
24   0.138516
25   0.143456
26   0.14222
27   0.137496
28   0.141978
29   0.137543
30   0.140923
31   0.143797
32   0.140388
33   0.145232
34   0.117798
35   0.141891
36   0.140996
37   0.127356
38   0.142941
39   0.137606
40   0.129932
41   0.133565

$$$$

