PCCDB-ID:  64961
public computational chemistry database (PCCDB) project, http://pccdb.org

 21 23  0  0  0  0  0  0  0  0999 V2000
   -3.0561    1.1330   -0.0018 C   0  0  0  0  0  0  0  0  0  0  0  0
   -3.4319   -0.2229    0.0296 C   0  0  0  0  0  0  0  0  0  0  0  0
   -1.7139    1.4975   -0.0094 C   0  0  0  0  0  0  0  0  0  0  0  0
   -2.4824   -1.2405    0.0531 C   0  0  0  0  0  0  0  0  0  0  0  0
    1.7081    1.4824   -0.0109 C   0  0  0  0  0  0  0  0  0  0  0  0
    3.0349    1.0595   -0.0031 C   0  0  0  0  0  0  0  0  0  0  0  0
    2.4849   -1.1780    0.0501 C   0  0  0  0  0  0  0  0  0  0  0  0
   -0.7358    0.4949    0.0145 C   0  0  0  0  0  0  0  0  0  0  0  0
    0.7126    0.5007    0.0131 C   0  0  0  0  0  0  0  0  0  0  0  0
   -1.1349   -0.8690    0.0457 C   0  0  0  0  0  0  0  0  0  0  0  0
    1.1262   -0.8553    0.0440 C   0  0  0  0  0  0  0  0  0  0  0  0
    3.4233   -0.2309    0.0266 N   0  0  0  0  0  0  0  0  0  0  0  0
    0.0007   -1.6633    0.0630 N   0  0  0  0  0  0  0  0  0  0  0  0
   -3.8245    1.9002   -0.0206 H   0  0  0  0  0  0  0  0  0  0  0  0
   -4.4868   -0.4834    0.0339 H   0  0  0  0  0  0  0  0  0  0  0  0
   -1.4266    2.5453   -0.0330 H   0  0  0  0  0  0  0  0  0  0  0  0
   -2.7803   -2.2851    0.0786 H   0  0  0  0  0  0  0  0  0  0  0  0
    1.4661    2.5412   -0.0349 H   0  0  0  0  0  0  0  0  0  0  0  0
    3.8397    1.7914   -0.0212 H   0  0  0  0  0  0  0  0  0  0  0  0
    2.8258   -2.2129    0.0725 H   0  0  0  0  0  0  0  0  0  0  0  0
    0.0058   -2.6711    0.0862 H   0  0  0  0  0  0  0  0  0  0  0  0
  1  2  1  0  0  0  0
  2 15  1  0  0  0  0
  2  4  2  0  0  0  0
  3  1  2  0  0  0  0
  3  8  1  0  0  0  0
  4 17  1  0  0  0  0
  5  6  2  0  0  0  0
  5  9  1  0  0  0  0
  6 12  1  0  0  0  0
  7 20  1  0  0  0  0
  8 10  2  0  0  0  0
  9  8  1  0  0  0  0
  9 11  2  0  0  0  0
 10  4  1  0  0  0  0
 10 13  1  0  0  0  0
 11  7  1  0  0  0  0
 11 13  1  0  0  0  0
 12  7  2  0  0  0  0
 13 21  1  0  0  0  0
 14  1  1  0  0  0  0
 16  3  1  0  0  0  0
 18  5  1  0  0  0  0
 19  6  1  0  0  0  0
M  END
>  <HBA>
1

>  <HBD>
1

>  <TPSA>
28.68

>  <cid>
64961

>  <dipole>
2.99

>  <excitation_energy_1>
3.952

>  <excitation_energy_2>
4.563

>  <excitation_energy_3>
4.567

>  <excitation_energy_4>
5.033

>  <homo_energy>
-5.733

>  <homo_lumo_gap>
4.645

>  <logP>
2.716

>  <lumo_energy>
-1.088

>  <melting_point>
155.77

>  <molecular_refractivity>
53.6

>  <oscillator_strength_1>
0.0477

>  <oscillator_strength_2>
0.0958

>  <oscillator_strength_3>
0.0022

>  <oscillator_strength_4>
0.0

>  <open_babel_can_smiles>
c1ccc2c(c1)[nH]c1c2ccnc1

>  <mulliken_charges>
21
1   -0.147534
2   -0.137478
3   -0.188439
4   -0.177366
5   -0.202923
6   0.021287
7   0.000758
8   0.068601
9   0.088712
10   0.341316
11   0.319137
12   -0.424952
13   -0.815631
14   0.128896
15   0.131571
16   0.134938
17   0.128818
18   0.134241
19   0.135505
20   0.132662
21   0.327881

>  <lowdin_charges>
21
1   -0.177079
2   -0.145138
3   -0.144426
4   -0.188583
5   -0.171006
6   -0.113032
7   -0.11801
8   -0.038042
9   -0.015089
10   0.051207
11   0.023554
12   -0.152259
13   -0.210543
14   0.159803
15   0.158497
16   0.159726
17   0.1578
18   0.161912
19   0.156073
20   0.152249
21   0.292384

$$$$

