PCCDB-ID:  44666
public computational chemistry database (PCCDB) project, http://pccdb.org

 27 29  0  0  0  0  0  0  0  0999 V2000
    1.0219    0.0456    0.0944 C   0  0  0  0  0  0  0  0  0  0  0  0
    5.2770   -3.0364   -0.0562 C   0  0  0  0  0  0  0  0  0  0  0  0
    3.9241   -3.4144   -0.0015 C   0  0  0  0  0  0  0  0  0  0  0  0
    5.6344   -1.6911   -0.0708 C   0  0  0  0  0  0  0  0  0  0  0  0
    2.9050   -2.4653    0.0420 C   0  0  0  0  0  0  0  0  0  0  0  0
    3.9772    3.4348   -0.0350 C   0  0  0  0  0  0  0  0  0  0  0  0
    2.9490    2.4980    0.0185 C   0  0  0  0  0  0  0  0  0  0  0  0
    5.6622    1.6887   -0.0854 C   0  0  0  0  0  0  0  0  0  0  0  0
    5.3354    3.0487   -0.0856 C   0  0  0  0  0  0  0  0  0  0  0  0
    4.6321   -0.7154   -0.0282 C   0  0  0  0  0  0  0  0  0  0  0  0
    4.6427    0.7325   -0.0367 C   0  0  0  0  0  0  0  0  0  0  0  0
    3.2675   -1.1141    0.0357 C   0  0  0  0  0  0  0  0  0  0  0  0
    3.2877    1.1439    0.0232 C   0  0  0  0  0  0  0  0  0  0  0  0
    6.3376    4.0323   -0.2046 N   0  0  0  0  0  0  0  0  0  0  0  0
    2.4664    0.0181    0.0855 N   0  0  0  0  0  0  0  0  0  0  0  0
    0.6405   -0.8950    0.4982 H   0  0  0  0  0  0  0  0  0  0  0  0
    0.6020    0.1924   -0.9105 H   0  0  0  0  0  0  0  0  0  0  0  0
    0.6697    0.8559    0.7410 H   0  0  0  0  0  0  0  0  0  0  0  0
    6.0472   -3.8017   -0.0907 H   0  0  0  0  0  0  0  0  0  0  0  0
    3.6637   -4.4695    0.0019 H   0  0  0  0  0  0  0  0  0  0  0  0
    6.6809   -1.4003   -0.1185 H   0  0  0  0  0  0  0  0  0  0  0  0
    1.8647   -2.7758    0.0728 H   0  0  0  0  0  0  0  0  0  0  0  0
    3.7310    4.4941   -0.0520 H   0  0  0  0  0  0  0  0  0  0  0  0
    1.9147    2.8278    0.0508 H   0  0  0  0  0  0  0  0  0  0  0  0
    6.7048    1.3811   -0.1331 H   0  0  0  0  0  0  0  0  0  0  0  0
    6.0912    4.9168    0.2252 H   0  0  0  0  0  0  0  0  0  0  0  0
    7.2450    3.7270    0.1288 H   0  0  0  0  0  0  0  0  0  0  0  0
  1 16  1  0  0  0  0
  1 18  1  0  0  0  0
  2  3  1  0  0  0  0
  3 20  1  0  0  0  0
  3  5  2  0  0  0  0
  4  2  2  0  0  0  0
  4 10  1  0  0  0  0
  5 22  1  0  0  0  0
  6  7  2  0  0  0  0
  7 13  1  0  0  0  0
  7 24  1  0  0  0  0
  8 11  1  0  0  0  0
  9  8  2  0  0  0  0
  9  6  1  0  0  0  0
 10 12  2  0  0  0  0
 11 10  1  0  0  0  0
 11 13  2  0  0  0  0
 12  5  1  0  0  0  0
 12 15  1  0  0  0  0
 13 15  1  0  0  0  0
 14  9  1  0  0  0  0
 14 27  1  0  0  0  0
 14 26  1  0  0  0  0
 15  1  1  0  0  0  0
 17  1  1  0  0  0  0
 19  2  1  0  0  0  0
 21  4  1  0  0  0  0
 23  6  1  0  0  0  0
 25  8  1  0  0  0  0
M  END
>  <HBA>
2

>  <HBD>
1

>  <TPSA>
30.95

>  <cid>
44666

>  <dipole>
1.93

>  <excitation_energy_1>
3.512

>  <excitation_energy_2>
4.235

>  <excitation_energy_3>
4.28

>  <excitation_energy_4>
4.465

>  <homo_energy>
-4.74

>  <homo_lumo_gap>
4.191

>  <logP>
3.495

>  <lumo_energy>
-0.55

>  <melting_point>
146.31

>  <molecular_refractivity>
65.11

>  <oscillator_strength_1>
0.0467

>  <oscillator_strength_2>
0.0379

>  <oscillator_strength_3>
0.0223

>  <oscillator_strength_4>
0.0081

>  <open_babel_can_smiles>
Nc1ccc2c(c1)c1ccccc1n2C

>  <mulliken_charges>
27
1   -0.324858
2   -0.148819
3   -0.140123
4   -0.195382
5   -0.182604
6   -0.185416
7   -0.187946
8   -0.254685
9   0.296684
10   0.049708
11   0.06863
12   0.326844
13   0.315244
14   -0.788883
15   -0.626904
16   0.171001
17   0.166209
18   0.167997
19   0.119984
20   0.122434
21   0.125078
22   0.122771
23   0.114746
24   0.124317
25   0.117244
26   0.31276
27   0.313969

>  <lowdin_charges>
27
1   -0.3452
2   -0.183165
3   -0.153422
4   -0.151176
5   -0.196112
6   -0.18993
7   -0.182841
8   -0.197874
9   0.043717
10   -0.037477
11   -0.02259
12   0.043033
13   0.022689
14   -0.498181
15   -0.050147
16   0.16528
17   0.152863
18   0.161703
19   0.155492
20   0.154047
21   0.15478
22   0.154098
23   0.151282
24   0.156151
25   0.151801
26   0.270594
27   0.270588

$$$$

