PCCDB-ID:  46295
public computational chemistry database (PCCDB) project, http://pccdb.org

 44 44  0  0  0  0  0  0  0  0999 V2000
    6.8894   -3.5343    7.3304 C   0  0  0  0  0  0  0  0  0  0  0  0
    8.1436    5.1113    0.0633 C   0  0  0  0  0  0  0  0  0  0  0  0
    6.8961   -2.9782    5.9028 C   0  0  0  0  0  0  0  0  0  0  0  0
    7.3371   -1.5108    5.8266 C   0  0  0  0  0  0  0  0  0  0  0  0
    7.3463   -0.9449    4.4009 C   0  0  0  0  0  0  0  0  0  0  0  0
    7.7959    0.5200    4.3263 C   0  0  0  0  0  0  0  0  0  0  0  0
    7.8024    1.0881    2.9013 C   0  0  0  0  0  0  0  0  0  0  0  0
   11.0513    8.8820    2.4029 C   0  0  0  0  0  0  0  0  0  0  0  0
    9.9457    8.2795    3.0095 C   0  0  0  0  0  0  0  0  0  0  0  0
   11.8149    8.1561    1.4887 C   0  0  0  0  0  0  0  0  0  0  0  0
    8.2674    2.5492    2.8325 C   0  0  0  0  0  0  0  0  0  0  0  0
    9.6111    6.9601    2.7077 C   0  0  0  0  0  0  0  0  0  0  0  0
   11.4736    6.8362    1.1847 C   0  0  0  0  0  0  0  0  0  0  0  0
    8.2653    3.1008    1.4021 C   0  0  0  0  0  0  0  0  0  0  0  0
   10.0422    4.7672    1.5078 C   0  0  0  0  0  0  0  0  0  0  0  0
   10.3738    6.2213    1.7926 C   0  0  0  0  0  0  0  0  0  0  0  0
    8.6110    4.5236    1.3150 N   0  0  0  0  0  0  0  0  0  0  0  0
    6.5706   -4.5828    7.3509 H   0  0  0  0  0  0  0  0  0  0  0  0
    6.2067   -2.9658    7.9740 H   0  0  0  0  0  0  0  0  0  0  0  0
    7.8882   -3.4807    7.7812 H   0  0  0  0  0  0  0  0  0  0  0  0
    8.5979    4.6423   -0.8320 H   0  0  0  0  0  0  0  0  0  0  0  0
    8.3847    6.1778    0.0446 H   0  0  0  0  0  0  0  0  0  0  0  0
    7.0560    5.0063   -0.0108 H   0  0  0  0  0  0  0  0  0  0  0  0
    5.8918   -3.0779    5.4667 H   0  0  0  0  0  0  0  0  0  0  0  0
    7.5609   -3.5889    5.2753 H   0  0  0  0  0  0  0  0  0  0  0  0
    8.3422   -1.4120    6.2635 H   0  0  0  0  0  0  0  0  0  0  0  0
    6.6724   -0.9001    6.4558 H   0  0  0  0  0  0  0  0  0  0  0  0
    6.3395   -1.0389    3.9670 H   0  0  0  0  0  0  0  0  0  0  0  0
    8.0064   -1.5593    3.7705 H   0  0  0  0  0  0  0  0  0  0  0  0
    8.8034    0.6124    4.7584 H   0  0  0  0  0  0  0  0  0  0  0  0
    7.1380    1.1350    4.9580 H   0  0  0  0  0  0  0  0  0  0  0  0
    6.7919    1.0053    2.4740 H   0  0  0  0  0  0  0  0  0  0  0  0
    8.4520    0.4673    2.2664 H   0  0  0  0  0  0  0  0  0  0  0  0
   11.3115    9.9107    2.6384 H   0  0  0  0  0  0  0  0  0  0  0  0
    9.3433    8.8398    3.7202 H   0  0  0  0  0  0  0  0  0  0  0  0
   12.6723    8.6176    1.0053 H   0  0  0  0  0  0  0  0  0  0  0  0
    9.2716    2.6207    3.2717 H   0  0  0  0  0  0  0  0  0  0  0  0
    7.6146    3.1825    3.4473 H   0  0  0  0  0  0  0  0  0  0  0  0
    8.7457    6.4902    3.1660 H   0  0  0  0  0  0  0  0  0  0  0  0
   12.0687    6.2764    0.4659 H   0  0  0  0  0  0  0  0  0  0  0  0
    7.2529    2.9896    0.9942 H   0  0  0  0  0  0  0  0  0  0  0  0
    8.9238    2.4825    0.7578 H   0  0  0  0  0  0  0  0  0  0  0  0
   10.3710    4.1637    2.3617 H   0  0  0  0  0  0  0  0  0  0  0  0
   10.6347    4.4189    0.6373 H   0  0  0  0  0  0  0  0  0  0  0  0
  1 18  1  0  0  0  0
  1 20  1  0  0  0  0
  1 19  1  0  0  0  0
  2 17  1  0  0  0  0
  3  1  1  0  0  0  0
  4  3  1  0  0  0  0
  4 26  1  0  0  0  0
  4 27  1  0  0  0  0
  5  4  1  0  0  0  0
  6  5  1  0  0  0  0
  6 30  1  0  0  0  0
  6 31  1  0  0  0  0
  7  6  1  0  0  0  0
  8 34  1  0  0  0  0
  8  9  2  0  0  0  0
  9 35  1  0  0  0  0
 10  8  1  0  0  0  0
 11  7  1  0  0  0  0
 11 37  1  0  0  0  0
 11 38  1  0  0  0  0
 12  9  1  0  0  0  0
 12 39  1  0  0  0  0
 13 10  2  0  0  0  0
 13 16  1  0  0  0  0
 14 11  1  0  0  0  0
 15 16  1  0  0  0  0
 15 43  1  0  0  0  0
 16 12  2  0  0  0  0
 17 14  1  0  0  0  0
 17 15  1  0  0  0  0
 21  2  1  0  0  0  0
 22  2  1  0  0  0  0
 23  2  1  0  0  0  0
 24  3  1  0  0  0  0
 25  3  1  0  0  0  0
 28  5  1  0  0  0  0
 29  5  1  0  0  0  0
 32  7  1  0  0  0  0
 33  7  1  0  0  0  0
 36 10  1  0  0  0  0
 40 13  1  0  0  0  0
 41 14  1  0  0  0  0
 42 14  1  0  0  0  0
 44 15  1  0  0  0  0
M  END
>  <HBA>
1

>  <HBD>
0

>  <TPSA>
3.24

>  <cid>
46295

>  <dipole>
0.71

>  <excitation_energy_1>
4.853

>  <excitation_energy_2>
4.967

>  <excitation_energy_3>
5.315

>  <excitation_energy_4>
5.446

>  <homo_energy>
-5.728

>  <homo_lumo_gap>
5.842

>  <logP>
4.479

>  <lumo_energy>
0.114

>  <melting_point>
3.81

>  <molecular_refractivity>
77.57

>  <oscillator_strength_1>
0.0008

>  <oscillator_strength_2>
0.0044

>  <oscillator_strength_3>
0.0007

>  <oscillator_strength_4>
0.0338

>  <open_babel_can_smiles>
CCCCCCCCN(Cc1ccccc1)C

>  <mulliken_charges>
44
1   -0.441304
2   -0.304471
3   -0.246745
4   -0.245648
5   -0.252795
6   -0.252466
7   -0.258105
8   -0.129936
9   -0.131382
10   -0.128589
11   -0.261746
12   -0.162794
13   -0.186581
14   -0.109669
15   -0.200506
16   0.141931
17   -0.381696
18   0.141237
19   0.141098
20   0.141035
21   0.115341
22   0.163545
23   0.147519
24   0.129726
25   0.129637
26   0.126282
27   0.126534
28   0.12674
29   0.126465
30   0.127528
31   0.12874
32   0.127991
33   0.128677
34   0.125783
35   0.126757
36   0.126145
37   0.133169
38   0.141372
39   0.138767
40   0.121103
41   0.132692
42   0.107444
43   0.156899
44   0.114278

>  <lowdin_charges>
44
1   -0.444066
2   -0.356904
3   -0.272996
4   -0.275319
5   -0.27524
6   -0.274151
7   -0.274743
8   -0.160348
9   -0.157588
10   -0.157968
11   -0.281696
12   -0.159827
13   -0.170981
14   -0.199867
15   -0.200248
16   -0.012159
17   -0.183791
18   0.147699
19   0.147431
20   0.145538
21   0.120234
22   0.156377
23   0.146787
24   0.137879
25   0.139926
26   0.136489
27   0.138737
28   0.136747
29   0.138711
30   0.136985
31   0.139943
32   0.137013
33   0.139466
34   0.154668
35   0.157228
36   0.15658
37   0.138434
38   0.147159
39   0.163953
40   0.15452
41   0.142985
42   0.11794
43   0.156385
44   0.122077

$$$$

