PCCDB-ID:  57246
public computational chemistry database (PCCDB) project, http://pccdb.org

 18 18  0  0  0  0  0  0  0  0999 V2000
    0.4479    1.4645    0.1669 C   0  0  0  0  0  0  0  0  0  0  0  0
    1.3659    0.3707   -0.3881 C   0  0  0  0  0  0  0  0  0  0  0  0
   -1.0114    1.1184   -0.1584 C   0  0  0  0  0  0  0  0  0  0  0  0
    0.9907   -0.9896    0.2165 C   0  0  0  0  0  0  0  0  0  0  0  0
   -3.1334   -1.9177    0.2873 C   0  0  0  0  0  0  0  0  0  0  0  0
   -1.2792   -0.3546    0.0937 C   0  0  0  0  0  0  0  0  0  0  0  0
   -3.6003   -2.9770    0.4211 N   0  0  0  0  0  0  0  0  0  0  0  0
   -0.4379   -1.2885    0.2581 N   0  0  0  0  0  0  0  0  0  0  0  0
   -2.6569   -0.6733    0.1275 N   0  0  0  0  0  0  0  0  0  0  0  0
    0.7004    2.4477   -0.2445 H   0  0  0  0  0  0  0  0  0  0  0  0
    0.5735    1.5306    1.2559 H   0  0  0  0  0  0  0  0  0  0  0  0
    2.4175    0.5944   -0.1732 H   0  0  0  0  0  0  0  0  0  0  0  0
    1.2642    0.3290   -1.4815 H   0  0  0  0  0  0  0  0  0  0  0  0
   -1.2315    1.3376   -1.2134 H   0  0  0  0  0  0  0  0  0  0  0  0
   -1.7028    1.7300    0.4369 H   0  0  0  0  0  0  0  0  0  0  0  0
    1.3671   -1.0606    1.2477 H   0  0  0  0  0  0  0  0  0  0  0  0
    1.4782   -1.8018   -0.3358 H   0  0  0  0  0  0  0  0  0  0  0  0
   -3.3320    0.0729    0.0302 H   0  0  0  0  0  0  0  0  0  0  0  0
  1 11  1  0  0  0  0
  2 12  1  0  0  0  0
  2  1  1  0  0  0  0
  2  4  1  0  0  0  0
  3  6  1  0  0  0  0
  3  1  1  0  0  0  0
  3 15  1  0  0  0  0
  4  8  1  0  0  0  0
  4 16  1  0  0  0  0
  5  7  3  0  0  0  0
  6  9  1  0  0  0  0
  6  8  2  0  0  0  0
  9  5  1  0  0  0  0
 10  1  1  0  0  0  0
 13  2  1  0  0  0  0
 14  3  1  0  0  0  0
 17  4  1  0  0  0  0
 18  9  1  0  0  0  0
M  END
>  <HBA>
3

>  <HBD>
1

>  <TPSA>
48.18

>  <cid>
57246

>  <dipole>
6.37

>  <excitation_energy_1>
5.377

>  <excitation_energy_2>
5.476

>  <excitation_energy_3>
5.838

>  <excitation_energy_4>
5.976

>  <homo_energy>
-6.661

>  <homo_lumo_gap>
6.678

>  <logP>
0.466

>  <lumo_energy>
0.016

>  <melting_point>
74.96

>  <molecular_refractivity>
38.4

>  <oscillator_strength_1>
0.0017

>  <oscillator_strength_2>
0.0011

>  <oscillator_strength_3>
0.0155

>  <oscillator_strength_4>
0.1508

>  <open_babel_can_smiles>
N#CNC1=NCCCC1

>  <mulliken_charges>
18
1   -0.264981
2   -0.285349
3   -0.358155
4   -0.142042
5   0.546823
6   0.512312
7   -0.439265
8   -0.445657
9   -0.702226
10   0.145534
11   0.149882
12   0.143601
13   0.143179
14   0.173226
15   0.155568
16   0.152497
17   0.157478
18   0.357573

>  <lowdin_charges>
18
1   -0.270468
2   -0.287777
3   -0.302711
4   -0.200429
5   0.021666
6   0.097562
7   -0.146762
8   -0.199188
9   -0.237285
10   0.151457
11   0.14639
12   0.151807
13   0.142791
14   0.1626
15   0.158999
16   0.148666
17   0.156072
18   0.306608

$$$$

