PCCDB-ID:  12700
public computational chemistry database (PCCDB) project, http://pccdb.org

 20 19  0  0  0  0  0  0  0  0999 V2000
    0.8470    0.0962   -0.1308 C   0  0  0  0  0  0  0  0  0  0  0  0
    2.7233   -1.0257   -1.3613 C   0  0  0  0  0  0  0  0  0  0  0  0
    2.6761    0.8169    2.1329 C   0  0  0  0  0  0  0  0  0  0  0  0
    5.4725    0.0252   -0.4357 C   0  0  0  0  0  0  0  0  0  0  0  0
    2.3300   -0.2080   -0.1506 C   0  0  0  0  0  0  0  0  0  0  0  0
    3.1609    0.1701    0.8500 C   0  0  0  0  0  0  0  0  0  0  0  0
    4.6520   -0.0432    0.8503 C   0  0  0  0  0  0  0  0  0  0  0  0
    5.2474   -0.1855    1.9101 O   0  0  0  0  0  0  0  0  0  0  0  0
    0.4974    0.3164   -1.1475 H   0  0  0  0  0  0  0  0  0  0  0  0
    0.5853    0.9449    0.5033 H   0  0  0  0  0  0  0  0  0  0  0  0
    0.2708   -0.7750    0.2131 H   0  0  0  0  0  0  0  0  0  0  0  0
    1.9675   -1.8043   -1.5289 H   0  0  0  0  0  0  0  0  0  0  0  0
    3.6876   -1.5240   -1.2714 H   0  0  0  0  0  0  0  0  0  0  0  0
    2.7354   -0.4099   -2.2720 H   0  0  0  0  0  0  0  0  0  0  0  0
    1.6110    0.6626    2.3125 H   0  0  0  0  0  0  0  0  0  0  0  0
    2.8706    1.8985    2.1375 H   0  0  0  0  0  0  0  0  0  0  0  0
    3.2359    0.3932    2.9705 H   0  0  0  0  0  0  0  0  0  0  0  0
    4.9530    0.5135   -1.2628 H   0  0  0  0  0  0  0  0  0  0  0  0
    5.7675   -0.9826   -0.7522 H   0  0  0  0  0  0  0  0  0  0  0  0
    6.3936    0.5688   -0.2065 H   0  0  0  0  0  0  0  0  0  0  0  0
  1 11  1  0  0  0  0
  1 10  1  0  0  0  0
  2 13  1  0  0  0  0
  2  5  1  0  0  0  0
  3 16  1  0  0  0  0
  3 15  1  0  0  0  0
  3 17  1  0  0  0  0
  4 20  1  0  0  0  0
  4  7  1  0  0  0  0
  5  1  1  0  0  0  0
  5  6  2  0  0  0  0
  6  7  1  0  0  0  0
  6  3  1  0  0  0  0
  7  8  2  0  0  0  0
  9  1  1  0  0  0  0
 12  2  1  0  0  0  0
 14  2  1  0  0  0  0
 18  4  1  0  0  0  0
 19  4  1  0  0  0  0
M  END
>  <HBA>
1

>  <HBD>
0

>  <TPSA>
17.07

>  <cid>
12700

>  <dipole>
3.29

>  <excitation_energy_1>
3.824

>  <excitation_energy_2>
5.031

>  <excitation_energy_3>
5.999

>  <excitation_energy_4>
6.149

>  <homo_energy>
-6.465

>  <homo_lumo_gap>
5.399

>  <logP>
1.932

>  <lumo_energy>
-1.067

>  <melting_point>
10.79

>  <molecular_refractivity>
35.49

>  <oscillator_strength_1>
0.0006

>  <oscillator_strength_2>
0.2506

>  <oscillator_strength_3>
0.0046

>  <oscillator_strength_4>
0.0164

>  <open_babel_can_smiles>
CC(=C(C)C)C(=O)C

>  <mulliken_charges>
20
1   -0.515735
2   -0.519343
3   -0.517363
4   -0.532339
5   0.128369
6   0.032092
7   0.398748
8   -0.453074
9   0.15558
10   0.165231
11   0.165487
12   0.160253
13   0.162945
14   0.160201
15   0.14698
16   0.155059
17   0.191113
18   0.160125
19   0.176072
20   0.1796

>  <lowdin_charges>
20
1   -0.446586
2   -0.447891
3   -0.443537
4   -0.476356
5   0.009614
6   -0.068176
7   0.160907
8   -0.250261
9   0.157368
10   0.162691
11   0.16387
12   0.161617
13   0.161714
14   0.160064
15   0.152254
16   0.155252
17   0.17845
18   0.160993
19   0.172113
20   0.175901

$$$$

