PCCDB-ID:  8761
public computational chemistry database (PCCDB) project, http://pccdb.org

 24 23  0  0  0  0  0  0  0  0999 V2000
    1.0259    0.3697    0.0156 C   0  0  0  0  0  0  0  0  0  0  0  0
    2.8254    0.6513   -1.6279 C   0  0  0  0  0  0  0  0  0  0  0  0
    0.6710   -0.4246    1.2793 C   0  0  0  0  0  0  0  0  0  0  0  0
    4.3141    0.4860   -1.9592 C   0  0  0  0  0  0  0  0  0  0  0  0
    3.1450    1.4359    0.6773 C   0  0  0  0  0  0  0  0  0  0  0  0
    4.4249    0.8434    1.2923 C   0  0  0  0  0  0  0  0  0  0  0  0
    2.4773    0.4706   -0.2047 N   0  0  0  0  0  0  0  0  0  0  0  0
   -0.7347   -0.5431    1.4359 O   0  0  0  0  0  0  0  0  0  0  0  0
    4.7901   -0.8340   -1.7635 O   0  0  0  0  0  0  0  0  0  0  0  0
    5.2553    1.4949    1.8733 O   0  0  0  0  0  0  0  0  0  0  0  0
    4.5110   -0.4957    1.1226 O   0  0  0  0  0  0  0  0  0  0  0  0
    0.5526    1.3681    0.0568 H   0  0  0  0  0  0  0  0  0  0  0  0
    0.5831   -0.1535   -0.8366 H   0  0  0  0  0  0  0  0  0  0  0  0
    2.2760   -0.1055   -2.1963 H   0  0  0  0  0  0  0  0  0  0  0  0
    2.4978    1.6448   -1.9873 H   0  0  0  0  0  0  0  0  0  0  0  0
    1.1388    0.0159    2.1740 H   0  0  0  0  0  0  0  0  0  0  0  0
    1.0545   -1.4450    1.1832 H   0  0  0  0  0  0  0  0  0  0  0  0
    4.9266    1.2225   -1.4182 H   0  0  0  0  0  0  0  0  0  0  0  0
    4.4278    0.7138   -3.0259 H   0  0  0  0  0  0  0  0  0  0  0  0
    3.4063    2.3762    0.1735 H   0  0  0  0  0  0  0  0  0  0  0  0
    2.4886    1.7031    1.5122 H   0  0  0  0  0  0  0  0  0  0  0  0
   -1.0838    0.3262    1.6862 H   0  0  0  0  0  0  0  0  0  0  0  0
    5.1484   -0.8955   -0.8634 H   0  0  0  0  0  0  0  0  0  0  0  0
    3.6906   -0.7237    0.6043 H   0  0  0  0  0  0  0  0  0  0  0  0
  1 12  1  0  0  0  0
  1  3  1  0  0  0  0
  2  7  1  0  0  0  0
  3  8  1  0  0  0  0
  3 16  1  0  0  0  0
  4  9  1  0  0  0  0
  4  2  1  0  0  0  0
  4 18  1  0  0  0  0
  5  6  1  0  0  0  0
  5 21  1  0  0  0  0
  6 10  2  0  0  0  0
  7  1  1  0  0  0  0
  7  5  1  0  0  0  0
  8 22  1  0  0  0  0
  9 23  1  0  0  0  0
 11  6  1  0  0  0  0
 13  1  1  0  0  0  0
 14  2  1  0  0  0  0
 15  2  1  0  0  0  0
 17  3  1  0  0  0  0
 19  4  1  0  0  0  0
 20  5  1  0  0  0  0
 24 11  1  0  0  0  0
M  END
>  <HBA>
5

>  <HBD>
3

>  <TPSA>
81.0

>  <cid>
8761

>  <dipole>
4.62

>  <excitation_energy_1>
5.426

>  <excitation_energy_2>
5.97

>  <excitation_energy_3>
6.257

>  <excitation_energy_4>
6.368

>  <homo_energy>
-6.885

>  <homo_lumo_gap>
6.955

>  <logP>
-1.642

>  <lumo_energy>
0.071

>  <melting_point>
90.47

>  <molecular_refractivity>
37.95

>  <oscillator_strength_1>
0.0015

>  <oscillator_strength_2>
0.0381

>  <oscillator_strength_3>
0.0167

>  <oscillator_strength_4>
0.0103

>  <open_babel_can_smiles>
OCCN(CC(=O)O)CCO

>  <mulliken_charges>
24
1   -0.141435
2   -0.124559
3   -0.044529
4   -0.073737
5   -0.250661
6   0.593401
7   -0.457361
8   -0.605694
9   -0.626171
10   -0.448131
11   -0.591333
12   0.121853
13   0.167112
14   0.165282
15   0.124819
16   0.129652
17   0.162718
18   0.143954
19   0.156437
20   0.181262
21   0.186453
22   0.392827
23   0.41309
24   0.424751

>  <lowdin_charges>
24
1   -0.217945
2   -0.218028
3   -0.143766
4   -0.147417
5   -0.250215
6   0.175371
7   -0.193486
8   -0.457433
9   -0.471281
10   -0.242618
11   -0.370263
12   0.125039
13   0.161866
14   0.160807
15   0.13025
16   0.129806
17   0.153934
18   0.140299
19   0.153142
20   0.166493
21   0.177205
22   0.344092
23   0.344815
24   0.34933

$$$$

