PCCDB-ID:  38087
public computational chemistry database (PCCDB) project, http://pccdb.org

 22 23  0  0  0  0  0  0  0  0999 V2000
    2.0004   -0.6857   -0.0967 C   0  0  0  0  0  0  0  0  0  0  0  0
    0.8566   -1.4619   -0.0654 C   0  0  0  0  0  0  0  0  0  0  0  0
   -1.8736    0.9438    0.1441 C   0  0  0  0  0  0  0  0  0  0  0  0
   -2.5562   -0.2414    0.1402 C   0  0  0  0  0  0  0  0  0  0  0  0
    0.7023    1.3820    0.0315 C   0  0  0  0  0  0  0  0  0  0  0  0
    3.2140    3.0166   -0.0377 C   0  0  0  0  0  0  0  0  0  0  0  0
   -0.4739    0.6231    0.0652 C   0  0  0  0  0  0  0  0  0  0  0  0
    1.9383    0.7318   -0.0488 C   0  0  0  0  0  0  0  0  0  0  0  0
   -0.3759   -0.7982    0.0159 C   0  0  0  0  0  0  0  0  0  0  0  0
    3.2124    1.4839   -0.0858 C   0  0  0  0  0  0  0  0  0  0  0  0
   -1.6567   -1.2936    0.0612 N   0  0  0  0  0  0  0  0  0  0  0  0
    4.5233    3.5100   -0.0876 O   0  0  0  0  0  0  0  0  0  0  0  0
    4.3036    0.9232   -0.1541 O   0  0  0  0  0  0  0  0  0  0  0  0
    2.9805   -1.1458   -0.1591 H   0  0  0  0  0  0  0  0  0  0  0  0
    0.9132   -2.5465   -0.1013 H   0  0  0  0  0  0  0  0  0  0  0  0
   -2.3122    1.9305    0.1958 H   0  0  0  0  0  0  0  0  0  0  0  0
   -3.6188   -0.4348    0.1849 H   0  0  0  0  0  0  0  0  0  0  0  0
    0.6425    2.4658    0.0682 H   0  0  0  0  0  0  0  0  0  0  0  0
    2.7056    3.3444    0.8840 H   0  0  0  0  0  0  0  0  0  0  0  0
    2.6181    3.4004   -0.8820 H   0  0  0  0  0  0  0  0  0  0  0  0
   -1.9043   -2.2711    0.0570 H   0  0  0  0  0  0  0  0  0  0  0  0
    5.0837    2.7083   -0.1365 H   0  0  0  0  0  0  0  0  0  0  0  0
  1  2  2  0  0  0  0
  1  8  1  0  0  0  0
  2  9  1  0  0  0  0
  3 16  1  0  0  0  0
  4  3  2  0  0  0  0
  4 17  1  0  0  0  0
  5  7  1  0  0  0  0
  5 18  1  0  0  0  0
  6 19  1  0  0  0  0
  7  3  1  0  0  0  0
  8  5  2  0  0  0  0
  9 11  1  0  0  0  0
  9  7  2  0  0  0  0
 10  8  1  0  0  0  0
 10  6  1  0  0  0  0
 11  4  1  0  0  0  0
 12  6  1  0  0  0  0
 13 10  2  0  0  0  0
 14  1  1  0  0  0  0
 15  2  1  0  0  0  0
 20  6  1  0  0  0  0
 21 11  1  0  0  0  0
 22 12  1  0  0  0  0
M  END
>  <HBA>
2

>  <HBD>
2

>  <TPSA>
53.09

>  <cid>
38087

>  <dipole>
6.85

>  <excitation_energy_1>
3.914

>  <excitation_energy_2>
4.199

>  <excitation_energy_3>
4.421

>  <excitation_energy_4>
4.854

>  <homo_energy>
-6.016

>  <homo_lumo_gap>
4.607

>  <logP>
1.343

>  <lumo_energy>
-1.41

>  <melting_point>
149.44

>  <molecular_refractivity>
49.66

>  <oscillator_strength_1>
0.0168

>  <oscillator_strength_2>
0.0001

>  <oscillator_strength_3>
0.1145

>  <oscillator_strength_4>
0.0595

>  <open_babel_can_smiles>
OCC(=O)c1ccc2c(c1)cc[nH]2

>  <mulliken_charges>
22
1   -0.185169
2   -0.158916
3   -0.217761
4   0.051884
5   -0.268757
6   -0.069291
7   0.114799
8   0.089496
9   0.32845
10   0.344711
11   -0.680583
12   -0.634783
13   -0.493059
14   0.161986
15   0.133549
16   0.139703
17   0.159619
18   0.143489
19   0.148602
20   0.148687
21   0.334673
22   0.408674

>  <lowdin_charges>
22
1   -0.136695
2   -0.178674
3   -0.215128
4   -0.113897
5   -0.140911
6   -0.167405
7   -0.02847
8   -0.065789
9   0.042083
10   0.146957
11   -0.188282
12   -0.467505
13   -0.263063
14   0.176925
15   0.159203
16   0.168479
17   0.168396
18   0.163314
19   0.149218
20   0.149854
21   0.293879
22   0.347512

$$$$

