PCCDB-ID:  73539
public computational chemistry database (PCCDB) project, http://pccdb.org

 20 20  0  0  1  0  0  0  0  0999 V2000
    1.1055    0.0945   -0.2624 C   0  0  0  0  0  0  0  0  0  0  0  0
    5.4247    1.6374    1.5030 C   0  0  0  0  0  0  0  0  0  0  0  0
    3.2080   -1.1714    0.3693 C   0  0  2  0  0  0  0  0  0  0  0  0
    4.5826   -0.6804    0.9195 C   0  0  2  0  0  0  0  0  0  0  0  0
    3.1581    1.1677    0.6188 C   0  0  0  0  0  0  0  0  0  0  0  0
    2.4007    0.0255    0.3871 N   0  0  0  0  0  0  0  0  0  0  0  0
    4.4630    0.7576    0.8661 N   0  0  0  0  0  0  0  0  0  0  0  0
    2.6386   -2.2389    1.0900 O   0  0  0  0  0  0  0  0  0  0  0  0
    5.7010   -1.1733    0.2200 O   0  0  0  0  0  0  0  0  0  0  0  0
    2.7525    2.3176    0.6078 O   0  0  0  0  0  0  0  0  0  0  0  0
    0.4426   -0.6716    0.1489 H   0  0  0  0  0  0  0  0  0  0  0  0
    1.1850   -0.0560   -1.3493 H   0  0  0  0  0  0  0  0  0  0  0  0
    0.6874    1.0842   -0.0715 H   0  0  0  0  0  0  0  0  0  0  0  0
    6.4243    1.4455    1.1037 H   0  0  0  0  0  0  0  0  0  0  0  0
    5.4485    1.4958    2.5937 H   0  0  0  0  0  0  0  0  0  0  0  0
    5.1325    2.6661    1.2859 H   0  0  0  0  0  0  0  0  0  0  0  0
    3.3376   -1.5709   -0.6467 H   0  0  0  0  0  0  0  0  0  0  0  0
    4.7231   -1.0484    1.9460 H   0  0  0  0  0  0  0  0  0  0  0  0
    2.4323   -1.9061    1.9801 H   0  0  0  0  0  0  0  0  0  0  0  0
    5.6615   -0.8057   -0.6795 H   0  0  0  0  0  0  0  0  0  0  0  0
  1 13  1  0  0  0  0
  1 11  1  0  0  0  0
  1  6  1  0  0  0  0
  2 15  1  0  0  0  0
  3 17  1  6  0  0  0
  3  6  1  0  0  0  0
  3  4  1  0  0  0  0
  3  8  1  0  0  0  0
  4 18  1  1  0  0  0
  5  7  1  0  0  0  0
  6  5  1  0  0  0  0
  7  4  1  0  0  0  0
  7  2  1  0  0  0  0
  8 19  1  0  0  0  0
  9  4  1  0  0  0  0
 10  5  2  0  0  0  0
 12  1  1  0  0  0  0
 14  2  1  0  0  0  0
 16  2  1  0  0  0  0
 20  9  1  0  0  0  0
M  END
>  <HBA>
5

>  <HBD>
2

>  <TPSA>
64.01

>  <cid>
73539

>  <dipole>
0.89

>  <excitation_energy_1>
5.984

>  <excitation_energy_2>
6.108

>  <excitation_energy_3>
6.352

>  <excitation_energy_4>
6.417

>  <homo_energy>
-6.68

>  <homo_lumo_gap>
7.921

>  <logP>
-1.504

>  <lumo_energy>
1.241

>  <melting_point>
70.91

>  <molecular_refractivity>
40.57

>  <oscillator_strength_1>
0.0456

>  <oscillator_strength_2>
0.0153

>  <oscillator_strength_3>
0.0799

>  <oscillator_strength_4>
0.0055

>  <open_babel_can_smiles>
O[C@@H]1[C@@H](O)N(C(=O)N1C)C

>  <mulliken_charges>
20
1   -0.317542
2   -0.317238
3   0.241821
4   0.242118
5   0.767452
6   -0.486461
7   -0.48664
8   -0.601702
9   -0.601882
10   -0.535806
11   0.166683
12   0.150646
13   0.196883
14   0.166604
15   0.150605
16   0.196764
17   0.145341
18   0.145265
19   0.388531
20   0.388558

>  <lowdin_charges>
20
1   -0.349332
2   -0.348223
3   0.033507
4   0.035661
5   0.170638
6   -0.1415
7   -0.142954
8   -0.435266
9   -0.435579
10   -0.317171
11   0.160202
12   0.142964
13   0.180574
14   0.158462
15   0.142852
16   0.179939
17   0.141175
18   0.140831
19   0.341737
20   0.341483

$$$$

