PCCDB-ID:  72855
public computational chemistry database (PCCDB) project, http://pccdb.org

 25 25  0  0  0  0  0  0  0  0999 V2000
    0.9242    0.6161   -0.0721 C   0  0  0  0  0  0  0  0  0  0  0  0
    3.2889    0.9469   -0.9366 C   0  0  0  0  0  0  0  0  0  0  0  0
    4.1093   -2.6753    3.8409 C   0  0  0  0  0  0  0  0  0  0  0  0
    3.2484   -1.2233    1.9515 C   0  0  0  0  0  0  0  0  0  0  0  0
    3.8766   -0.1680    4.0227 C   0  0  0  0  0  0  0  0  0  0  0  0
    3.0537    1.1687    2.1735 C   0  0  0  0  0  0  0  0  0  0  0  0
    2.3751    0.1005   -0.0307 C   0  0  0  0  0  0  0  0  0  0  0  0
    3.7350   -1.3319    3.2577 C   0  0  0  0  0  0  0  0  0  0  0  0
    2.9050    0.0177    1.3956 C   0  0  0  0  0  0  0  0  0  0  0  0
    3.5377    1.0736    3.4809 C   0  0  0  0  0  0  0  0  0  0  0  0
    3.6577    2.2402    4.1898 O   0  0  0  0  0  0  0  0  0  0  0  0
    0.5424    0.6153   -1.1002 H   0  0  0  0  0  0  0  0  0  0  0  0
    0.8564    1.6420    0.3088 H   0  0  0  0  0  0  0  0  0  0  0  0
    0.2641   -0.0102    0.5379 H   0  0  0  0  0  0  0  0  0  0  0  0
    2.9195    0.9430   -1.9692 H   0  0  0  0  0  0  0  0  0  0  0  0
    4.3134    0.5591   -0.9387 H   0  0  0  0  0  0  0  0  0  0  0  0
    3.3277    1.9899   -0.6009 H   0  0  0  0  0  0  0  0  0  0  0  0
    3.8686   -3.4899    3.1509 H   0  0  0  0  0  0  0  0  0  0  0  0
    3.5800   -2.8662    4.7826 H   0  0  0  0  0  0  0  0  0  0  0  0
    5.1834   -2.7315    4.0597 H   0  0  0  0  0  0  0  0  0  0  0  0
    3.1330   -2.1237    1.3518 H   0  0  0  0  0  0  0  0  0  0  0  0
    4.2517   -0.2294    5.0442 H   0  0  0  0  0  0  0  0  0  0  0  0
    2.8005    2.1519    1.7886 H   0  0  0  0  0  0  0  0  0  0  0  0
    2.3721   -0.9222   -0.4316 H   0  0  0  0  0  0  0  0  0  0  0  0
    4.0068    2.0344    5.0707 H   0  0  0  0  0  0  0  0  0  0  0  0
  1  7  1  0  0  0  0
  1 13  1  0  0  0  0
  1 14  1  0  0  0  0
  2 17  1  0  0  0  0
  2  7  1  0  0  0  0
  3 20  1  0  0  0  0
  3 19  1  0  0  0  0
  4  8  1  0  0  0  0
  5 22  1  0  0  0  0
  6 10  2  0  0  0  0
  7  9  1  0  0  0  0
  8  3  1  0  0  0  0
  8  5  2  0  0  0  0
  9  4  2  0  0  0  0
  9  6  1  0  0  0  0
 10  5  1  0  0  0  0
 10 11  1  0  0  0  0
 11 25  1  0  0  0  0
 12  1  1  0  0  0  0
 15  2  1  0  0  0  0
 16  2  1  0  0  0  0
 18  3  1  0  0  0  0
 21  4  1  0  0  0  0
 23  6  1  0  0  0  0
 24  7  1  0  0  0  0
M  END
>  <HBA>
1

>  <HBD>
1

>  <TPSA>
20.23

>  <cid>
72855

>  <dipole>
1.42

>  <excitation_energy_1>
4.946

>  <excitation_energy_2>
5.134

>  <excitation_energy_3>
5.669

>  <excitation_energy_4>
5.672

>  <homo_energy>
-5.799

>  <homo_lumo_gap>
5.889

>  <logP>
2.824

>  <lumo_energy>
0.09

>  <melting_point>
51.64

>  <molecular_refractivity>
48.01

>  <oscillator_strength_1>
0.0461

>  <oscillator_strength_2>
0.0

>  <oscillator_strength_3>
0.0015

>  <oscillator_strength_4>
0.0013

>  <open_babel_can_smiles>
Cc1cc(O)cc(c1)C(C)C

>  <mulliken_charges>
25
1   -0.437794
2   -0.438587
3   -0.532038
4   -0.26439
5   -0.252645
6   -0.226455
7   -0.160483
8   0.185697
9   0.190949
10   0.358985
11   -0.647454
12   0.139246
13   0.145707
14   0.148601
15   0.139307
16   0.148795
17   0.145593
18   0.156268
19   0.159027
20   0.161331
21   0.111075
22   0.105522
23   0.130963
24   0.127536
25   0.405243

>  <lowdin_charges>
25
1   -0.440987
2   -0.438115
3   -0.440716
4   -0.206548
5   -0.228814
6   -0.202218
7   -0.116217
8   0.012798
9   0.013845
10   0.104988
11   -0.381629
12   0.146439
13   0.14771
14   0.153753
15   0.146379
16   0.151451
17   0.147262
18   0.158002
19   0.158857
20   0.158308
21   0.150585
22   0.146752
23   0.162384
24   0.140288
25   0.355442

$$$$

