PCCDB-ID:  20064
public computational chemistry database (PCCDB) project, http://pccdb.org

 15 14  0  0  0  0  0  0  0  0999 V2000
    1.6020    1.1455   -0.8691 C   0  0  0  0  0  0  0  0  0  0  0  0
    2.5440    0.3069   -0.0254 C   0  0  0  0  0  0  0  0  0  0  0  0
    4.5709   -0.9414   -0.3989 C   0  0  0  0  0  0  0  0  0  0  0  0
    5.5275   -1.1283   -2.4696 N   0  0  0  0  0  0  0  0  0  0  0  0
    5.5403   -1.3999   -1.0804 N   0  0  0  0  0  0  0  0  0  0  0  0
    4.4467   -1.2289    0.9242 O   0  0  0  0  0  0  0  0  0  0  0  0
    3.6067   -0.1397   -0.8938 O   0  0  0  0  0  0  0  0  0  0  0  0
    0.7720    1.5064   -0.2520 H   0  0  0  0  0  0  0  0  0  0  0  0
    1.1904    0.5555   -1.6939 H   0  0  0  0  0  0  0  0  0  0  0  0
    2.1220    2.0121   -1.2899 H   0  0  0  0  0  0  0  0  0  0  0  0
    2.0350   -0.5643    0.3997 H   0  0  0  0  0  0  0  0  0  0  0  0
    2.9692    0.8873    0.8006 H   0  0  0  0  0  0  0  0  0  0  0  0
    6.5017   -1.1186   -2.7592 H   0  0  0  0  0  0  0  0  0  0  0  0
    5.1368   -0.2019   -2.6553 H   0  0  0  0  0  0  0  0  0  0  0  0
    5.1867   -1.8281    1.1243 H   0  0  0  0  0  0  0  0  0  0  0  0
  1  8  1  0  0  0  0
  1  2  1  0  0  0  0
  2 11  1  0  0  0  0
  2 12  1  0  0  0  0
  3  6  1  0  0  0  0
  4  5  1  0  0  0  0
  5  3  2  0  0  0  0
  6 15  1  0  0  0  0
  7  3  1  0  0  0  0
  7  2  1  0  0  0  0
  9  1  1  0  0  0  0
 10  1  1  0  0  0  0
 13  4  1  0  0  0  0
 14  4  1  0  0  0  0
M  END
>  <HBA>
4

>  <HBD>
2

>  <TPSA>
64.35

>  <cid>
20064

>  <dipole>
2.23

>  <excitation_energy_1>
4.802

>  <excitation_energy_2>
5.154

>  <excitation_energy_3>
5.463

>  <excitation_energy_4>
5.975

>  <homo_energy>
-5.216

>  <homo_lumo_gap>
6.985

>  <logP>
0.697

>  <lumo_energy>
1.769

>  <melting_point>
79.63

>  <molecular_refractivity>
23.72

>  <oscillator_strength_1>
0.0011

>  <oscillator_strength_2>
0.0108

>  <oscillator_strength_3>
0.001

>  <oscillator_strength_4>
0.041

>  <open_babel_can_smiles>
CCO/C(=N\N)/O

>  <mulliken_charges>
15
1   -0.460848
2   -0.022468
3   0.741299
4   -0.578905
5   -0.414133
6   -0.613588
7   -0.490474
8   0.152379
9   0.167335
10   0.160886
11   0.159891
12   0.156085
13   0.314169
14   0.30445
15   0.423923

>  <lowdin_charges>
15
1   -0.451161
2   -0.117978
3   0.160132
4   -0.45358
5   -0.220687
6   -0.377805
7   -0.205941
8   0.16037
9   0.162618
10   0.159136
11   0.151928
12   0.149397
13   0.261298
14   0.249242
15   0.37303

$$$$

