PCCDB-ID:  31591
public computational chemistry database (PCCDB) project, http://pccdb.org

 30 30  0  0  0  0  0  0  0  0999 V2000
    2.9896    1.3768    0.2313 C   0  0  0  0  0  0  0  0  0  0  0  0
    3.1670   -3.6898    1.1661 C   0  0  0  0  0  0  0  0  0  0  0  0
    9.0562   -1.1629   -0.4536 C   0  0  0  0  0  0  0  0  0  0  0  0
    2.5296   -0.0363   -0.1396 C   0  0  0  0  0  0  0  0  0  0  0  0
    2.6199   -2.5371    0.3189 C   0  0  0  0  0  0  0  0  0  0  0  0
    6.6415   -1.3752   -1.2109 C   0  0  0  0  0  0  0  0  0  0  0  0
    7.0701   -0.9458    1.1066 C   0  0  0  0  0  0  0  0  0  0  0  0
    5.2695   -1.3766   -0.9588 C   0  0  0  0  0  0  0  0  0  0  0  0
    5.6985   -0.9472    1.3580 C   0  0  0  0  0  0  0  0  0  0  0  0
    7.5690   -1.1609   -0.1844 C   0  0  0  0  0  0  0  0  0  0  0  0
    3.2705   -1.1651    0.6158 C   0  0  0  0  0  0  0  0  0  0  0  0
    4.7678   -1.1637    0.3328 C   0  0  0  0  0  0  0  0  0  0  0  0
    2.4248    2.1325   -0.3265 H   0  0  0  0  0  0  0  0  0  0  0  0
    4.0527    1.5216    0.0122 H   0  0  0  0  0  0  0  0  0  0  0  0
    2.8408    1.5726    1.3007 H   0  0  0  0  0  0  0  0  0  0  0  0
    2.6643   -4.6318    0.9187 H   0  0  0  0  0  0  0  0  0  0  0  0
    3.0128   -3.5014    2.2360 H   0  0  0  0  0  0  0  0  0  0  0  0
    4.2412   -3.8296    1.0054 H   0  0  0  0  0  0  0  0  0  0  0  0
    9.2696   -1.3272   -1.5147 H   0  0  0  0  0  0  0  0  0  0  0  0
    9.5664   -1.9516    0.1137 H   0  0  0  0  0  0  0  0  0  0  0  0
    9.5188   -0.2108   -0.1644 H   0  0  0  0  0  0  0  0  0  0  0  0
    2.6446   -0.1887   -1.2218 H   0  0  0  0  0  0  0  0  0  0  0  0
    1.4550   -0.1342    0.0675 H   0  0  0  0  0  0  0  0  0  0  0  0
    1.5378   -2.4458    0.4859 H   0  0  0  0  0  0  0  0  0  0  0  0
    2.7432   -2.7729   -0.7473 H   0  0  0  0  0  0  0  0  0  0  0  0
    6.9982   -1.5441   -2.2248 H   0  0  0  0  0  0  0  0  0  0  0  0
    7.7633   -0.7741    1.9279 H   0  0  0  0  0  0  0  0  0  0  0  0
    4.5827   -1.5444   -1.7852 H   0  0  0  0  0  0  0  0  0  0  0  0
    5.3421   -0.7763    2.3717 H   0  0  0  0  0  0  0  0  0  0  0  0
    3.1418   -0.9722    1.6919 H   0  0  0  0  0  0  0  0  0  0  0  0
  1 15  1  0  0  0  0
  2 17  1  0  0  0  0
  3 10  1  0  0  0  0
  3 21  1  0  0  0  0
  3 20  1  0  0  0  0
  4 23  1  0  0  0  0
  4  1  1  0  0  0  0
  4 11  1  0  0  0  0
  5 24  1  0  0  0  0
  5 11  1  0  0  0  0
  5  2  1  0  0  0  0
  6  8  2  0  0  0  0
  6 10  1  0  0  0  0
  7  9  1  0  0  0  0
  7 27  1  0  0  0  0
  8 12  1  0  0  0  0
  9 29  1  0  0  0  0
 10  7  2  0  0  0  0
 11 30  1  0  0  0  0
 12 11  1  0  0  0  0
 12  9  2  0  0  0  0
 13  1  1  0  0  0  0
 14  1  1  0  0  0  0
 16  2  1  0  0  0  0
 18  2  1  0  0  0  0
 19  3  1  0  0  0  0
 22  4  1  0  0  0  0
 25  5  1  0  0  0  0
 26  6  1  0  0  0  0
 28  8  1  0  0  0  0
M  END
>  <HBA>
0

>  <HBD>
0

>  <TPSA>
0.0

>  <cid>
31591

>  <dipole>
0.17

>  <excitation_energy_1>
5.169

>  <excitation_energy_2>
5.72

>  <excitation_energy_3>
5.774

>  <excitation_energy_4>
6.098

>  <homo_energy>
-6.163

>  <homo_lumo_gap>
6.234

>  <logP>
3.899

>  <lumo_energy>
0.071

>  <melting_point>
9.33

>  <molecular_refractivity>
55.6

>  <oscillator_strength_1>
0.0069

>  <oscillator_strength_2>
0.0726

>  <oscillator_strength_3>
0.0005

>  <oscillator_strength_4>
0.0008

>  <open_babel_can_smiles>
CCC(c1ccc(cc1)C)CC

>  <mulliken_charges>
30
1   -0.446837
2   -0.446629
3   -0.530409
4   -0.250799
5   -0.25072
6   -0.18447
7   -0.174596
8   -0.185468
9   -0.193718
10   0.177046
11   -0.158453
12   0.179933
13   0.139849
14   0.156916
15   0.13776
16   0.139852
17   0.13767
18   0.156826
19   0.15345
20   0.161046
21   0.160578
22   0.130935
23   0.128899
24   0.128824
25   0.131022
26   0.118948
27   0.118821
28   0.124018
29   0.121101
30   0.118607

>  <lowdin_charges>
30
1   -0.445897
2   -0.444209
3   -0.442481
4   -0.266911
5   -0.267108
6   -0.166673
7   -0.167441
8   -0.168633
9   -0.16706
10   -0.003
11   -0.123207
12   -0.003776
13   0.150152
14   0.153156
15   0.14324
16   0.148934
17   0.143116
18   0.152913
19   0.154398
20   0.160792
21   0.159565
22   0.137521
23   0.138414
24   0.138211
25   0.137898
26   0.151759
27   0.153914
28   0.154338
29   0.152207
30   0.135867

$$$$

