PCCDB-ID:  12296
public computational chemistry database (PCCDB) project, http://pccdb.org

 21 20  0  0  0  0  0  0  0  0999 V2000
    2.9842    1.3578   -0.8446 C   0  0  0  0  0  0  0  0  0  0  0  0
    1.0943    0.0981    0.2574 C   0  0  0  0  0  0  0  0  0  0  0  0
    4.6913   -1.2738   -0.5210 C   0  0  0  0  0  0  0  0  0  0  0  0
    3.1613   -1.1674   -0.4601 C   0  0  0  0  0  0  0  0  0  0  0  0
    5.1713   -2.6606   -0.9548 C   0  0  0  0  0  0  0  0  0  0  0  0
    2.6164    0.1761    0.0656 C   0  0  0  0  0  0  0  0  0  0  0  0
    6.5898   -2.7815   -0.9645 O   0  0  0  0  0  0  0  0  0  0  0  0
    2.5701    2.2951   -0.4546 H   0  0  0  0  0  0  0  0  0  0  0  0
    2.5802    1.2125   -1.8554 H   0  0  0  0  0  0  0  0  0  0  0  0
    4.0680    1.4894   -0.9332 H   0  0  0  0  0  0  0  0  0  0  0  0
    0.6961    1.0355    0.6634 H   0  0  0  0  0  0  0  0  0  0  0  0
    0.8182   -0.7100    0.9453 H   0  0  0  0  0  0  0  0  0  0  0  0
    0.5879   -0.0908   -0.6984 H   0  0  0  0  0  0  0  0  0  0  0  0
    5.1270   -1.0484    0.4616 H   0  0  0  0  0  0  0  0  0  0  0  0
    5.0957   -0.5284   -1.2215 H   0  0  0  0  0  0  0  0  0  0  0  0
    2.7800   -1.9724    0.1854 H   0  0  0  0  0  0  0  0  0  0  0  0
    2.7394   -1.3557   -1.4595 H   0  0  0  0  0  0  0  0  0  0  0  0
    4.7441   -2.9163   -1.9395 H   0  0  0  0  0  0  0  0  0  0  0  0
    4.8209   -3.4194   -0.2464 H   0  0  0  0  0  0  0  0  0  0  0  0
    3.0712    0.3550    1.0522 H   0  0  0  0  0  0  0  0  0  0  0  0
    6.9305   -2.1391   -1.6063 H   0  0  0  0  0  0  0  0  0  0  0  0
  1  8  1  0  0  0  0
  1  6  1  0  0  0  0
  2 11  1  0  0  0  0
  2 12  1  0  0  0  0
  3  4  1  0  0  0  0
  3 14  1  0  0  0  0
  4  6  1  0  0  0  0
  4 16  1  0  0  0  0
  5  3  1  0  0  0  0
  5 19  1  0  0  0  0
  6  2  1  0  0  0  0
  6 20  1  0  0  0  0
  7  5  1  0  0  0  0
  9  1  1  0  0  0  0
 10  1  1  0  0  0  0
 13  2  1  0  0  0  0
 15  3  1  0  0  0  0
 17  4  1  0  0  0  0
 18  5  1  0  0  0  0
 21  7  1  0  0  0  0
M  END
>  <HBA>
1

>  <HBD>
1

>  <TPSA>
20.23

>  <cid>
12296

>  <dipole>
1.7

>  <excitation_energy_1>
6.411

>  <excitation_energy_2>
7.068

>  <excitation_energy_3>
7.28

>  <excitation_energy_4>
7.471

>  <homo_energy>
-7.056

>  <homo_lumo_gap>
9.146

>  <logP>
1.415

>  <lumo_energy>
2.09

>  <melting_point>
-7.94

>  <molecular_refractivity>
32.12

>  <oscillator_strength_1>
0.0087

>  <oscillator_strength_2>
0.0042

>  <oscillator_strength_3>
0.0198

>  <oscillator_strength_4>
0.013

>  <open_babel_can_smiles>
OCCCC(C)C

>  <mulliken_charges>
21
1   -0.445271
2   -0.442735
3   -0.282247
4   -0.253968
5   -0.026752
6   -0.063967
7   -0.615844
8   0.141546
9   0.137258
10   0.144091
11   0.140359
12   0.140308
13   0.13848
14   0.144072
15   0.122616
16   0.129154
17   0.12498
18   0.116475
19   0.144472
20   0.122363
21   0.384611

>  <lowdin_charges>
21
1   -0.444469
2   -0.445515
3   -0.296301
4   -0.276473
5   -0.135025
6   -0.118357
7   -0.470749
8   0.149354
9   0.143979
10   0.146283
11   0.148339
12   0.148323
13   0.145322
14   0.146533
15   0.136142
16   0.141831
17   0.136527
18   0.122784
19   0.14625
20   0.135096
21   0.340124

$$$$

