PCCDB-ID:  53420
public computational chemistry database (PCCDB) project, http://pccdb.org

 22 23  0  0  0  0  0  0  0  0999 V2000
    4.6987   -2.0893   -0.8499 C   0  0  0  0  0  0  0  0  0  0  0  0
    1.2540   -5.7409   -4.8324 C   0  0  0  0  0  0  0  0  0  0  0  0
    1.7683   -4.7804   -3.9050 C   0  0  0  0  0  0  0  0  0  0  0  0
    0.6938   -5.0271   -5.8477 C   0  0  0  0  0  0  0  0  0  0  0  0
    1.3662   -1.0419   -4.6000 C   0  0  0  0  0  0  0  0  0  0  0  0
    4.0244   -0.7541   -0.6563 C   0  0  0  0  0  0  0  0  0  0  0  0
    1.7393   -2.1981   -3.9596 C   0  0  0  0  0  0  0  0  0  0  0  0
    1.4824   -3.5469   -4.4256 C   0  0  0  0  0  0  0  0  0  0  0  0
    2.5690   -0.7622   -2.4817 C   0  0  0  0  0  0  0  0  0  0  0  0
    3.1386   -0.1800   -1.3789 N   0  0  0  0  0  0  0  0  0  0  0  0
    2.4141   -2.0307   -2.7650 N   0  0  0  0  0  0  0  0  0  0  0  0
    4.4092   -0.0558    0.4404 O   0  0  0  0  0  0  0  0  0  0  0  0
    0.8229   -3.6884   -5.6185 O   0  0  0  0  0  0  0  0  0  0  0  0
    1.8592    0.3355   -3.6761 S   0  0  0  0  0  0  0  0  0  0  0  0
    4.5814   -2.4422   -1.8737 H   0  0  0  0  0  0  0  0  0  0  0  0
    4.2356   -2.8384   -0.1955 H   0  0  0  0  0  0  0  0  0  0  0  0
    5.7634   -2.0211   -0.5937 H   0  0  0  0  0  0  0  0  0  0  0  0
    1.2952   -6.8182   -4.7506 H   0  0  0  0  0  0  0  0  0  0  0  0
    2.2792   -4.9664   -2.9720 H   0  0  0  0  0  0  0  0  0  0  0  0
    0.1875   -5.2977   -6.7616 H   0  0  0  0  0  0  0  0  0  0  0  0
    0.8382   -0.9471   -5.5375 H   0  0  0  0  0  0  0  0  0  0  0  0
    5.0916   -0.5553    0.9156 H   0  0  0  0  0  0  0  0  0  0  0  0
  1  6  1  0  0  0  0
  1 17  1  0  0  0  0
  1 16  1  0  0  0  0
  2 18  1  0  0  0  0
  2  3  1  0  0  0  0
  3 19  1  0  0  0  0
  4 13  1  0  0  0  0
  4  2  2  0  0  0  0
  5  7  2  0  0  0  0
  5 14  1  0  0  0  0
  6 12  1  0  0  0  0
  7 11  1  0  0  0  0
  8  7  1  0  0  0  0
  8  3  2  0  0  0  0
  9 10  1  0  0  0  0
 10  6  2  0  0  0  0
 11  9  2  0  0  0  0
 12 22  1  0  0  0  0
 13  8  1  0  0  0  0
 14  9  1  0  0  0  0
 15  1  1  0  0  0  0
 20  4  1  0  0  0  0
 21  5  1  0  0  0  0
M  END
>  <HBA>
5

>  <HBD>
1

>  <TPSA>
83.37

>  <cid>
53420

>  <dipole>
3.73

>  <excitation_energy_1>
3.747

>  <excitation_energy_2>
4.467

>  <excitation_energy_3>
4.583

>  <excitation_energy_4>
4.814

>  <homo_energy>
-5.306

>  <homo_lumo_gap>
4.188

>  <logP>
2.434

>  <lumo_energy>
-1.118

>  <melting_point>
110.84

>  <molecular_refractivity>
54.13

>  <oscillator_strength_1>
0.0934

>  <oscillator_strength_2>
0.4321

>  <oscillator_strength_3>
0.007

>  <oscillator_strength_4>
0.0455

>  <open_babel_can_smiles>
C/C(=N\c1scc(n1)c1ccco1)/O

>  <mulliken_charges>
22
1   -0.537753
2   -0.187189
3   -0.189356
4   0.09135
5   -0.396725
6   0.492296
7   0.27649
8   0.302944
9   0.265048
10   -0.464714
11   -0.499642
12   -0.552788
13   -0.457386
14   0.253531
15   0.217237
16   0.193422
17   0.153495
18   0.14087
19   0.146231
20   0.154061
21   0.184734
22   0.413843

>  <lowdin_charges>
22
1   -0.478576
2   -0.20026
3   -0.200806
4   -0.0771
5   -0.346801
6   0.173944
7   0.010939
8   0.06662
9   -0.037591
10   -0.182511
11   -0.195182
12   -0.340093
13   -0.102715
14   0.30751
15   0.193897
16   0.183742
17   0.157914
18   0.16741
19   0.174346
20   0.171047
21   0.192504
22   0.361761

$$$$

