PCCDB-ID:  12799
public computational chemistry database (PCCDB) project, http://pccdb.org

 24 25  0  0  0  0  0  0  0  0999 V2000
    2.6508   -0.0004    0.0346 C   0  0  0  0  0  0  0  0  0  0  0  0
    1.8240    1.2668    0.2980 C   0  0  0  0  0  0  0  0  0  0  0  0
    1.8233   -1.2675    0.2963 C   0  0  0  0  0  0  0  0  0  0  0  0
    0.5230    1.2717   -0.5160 C   0  0  0  0  0  0  0  0  0  0  0  0
    0.5223   -1.2706   -0.5176 C   0  0  0  0  0  0  0  0  0  0  0  0
   -1.6123    0.0012   -1.0579 C   0  0  0  0  0  0  0  0  0  0  0  0
   -2.1110   -0.0003    0.9829 C   0  0  0  0  0  0  0  0  0  0  0  0
   -0.3214    0.0006   -0.2426 C   0  0  0  0  0  0  0  0  0  0  0  0
   -2.6695    0.0005   -0.3209 N   0  0  0  0  0  0  0  0  0  0  0  0
   -0.8333   -0.0002    1.1297 N   0  0  0  0  0  0  0  0  0  0  0  0
   -1.6763    0.0020   -2.3930 O   0  0  0  0  0  0  0  0  0  0  0  0
   -2.9718   -0.0010    2.0093 O   0  0  0  0  0  0  0  0  0  0  0  0
    3.5507   -0.0010    0.6617 H   0  0  0  0  0  0  0  0  0  0  0  0
    2.9985    0.0003   -1.0103 H   0  0  0  0  0  0  0  0  0  0  0  0
    2.4085    2.1635    0.0569 H   0  0  0  0  0  0  0  0  0  0  0  0
    1.5659    1.3229    1.3618 H   0  0  0  0  0  0  0  0  0  0  0  0
    1.5653   -1.3249    1.3600 H   0  0  0  0  0  0  0  0  0  0  0  0
    2.4074   -2.1640    0.0539 H   0  0  0  0  0  0  0  0  0  0  0  0
    0.7623    1.3206   -1.5909 H   0  0  0  0  0  0  0  0  0  0  0  0
   -0.0790    2.1566   -0.2805 H   0  0  0  0  0  0  0  0  0  0  0  0
   -0.0801   -2.1554   -0.2832 H   0  0  0  0  0  0  0  0  0  0  0  0
    0.7615   -1.3183   -1.5926 H   0  0  0  0  0  0  0  0  0  0  0  0
   -0.7747    0.0030   -2.7543 H   0  0  0  0  0  0  0  0  0  0  0  0
   -3.8633   -0.0012    1.6217 H   0  0  0  0  0  0  0  0  0  0  0  0
  1  3  1  0  0  0  0
  1  2  1  0  0  0  0
  1 13  1  0  0  0  0
  2 16  1  0  0  0  0
  3 17  1  0  0  0  0
  4 20  1  0  0  0  0
  4  8  1  0  0  0  0
  4  2  1  0  0  0  0
  5 21  1  0  0  0  0
  5  8  1  0  0  0  0
  5  3  1  0  0  0  0
  6  9  2  0  0  0  0
  6  8  1  0  0  0  0
  7 10  2  0  0  0  0
  7 12  1  0  0  0  0
  8 10  1  0  0  0  0
  9  7  2  0  0  0  0
 11  6  1  0  0  0  0
 14  1  1  0  0  0  0
 15  2  1  0  0  0  0
 18  3  1  0  0  0  0
 19  4  1  0  0  0  0
 22  5  1  0  0  0  0
 23 11  1  0  0  0  0
 24 12  1  0  0  0  0
M  END
>  <HBA>
4

>  <HBD>
2

>  <TPSA>
58.2

>  <cid>
12799

>  <dipole>
3.21

>  <excitation_energy_1>
5.241

>  <excitation_energy_2>
5.296

>  <excitation_energy_3>
5.553

>  <excitation_energy_4>
5.999

>  <homo_energy>
-6.542

>  <homo_lumo_gap>
6.011

>  <logP>
1.186

>  <lumo_energy>
-0.531

>  <melting_point>
135.76

>  <molecular_refractivity>
50.6

>  <oscillator_strength_1>
0.0018

>  <oscillator_strength_2>
0.0417

>  <oscillator_strength_3>
0.0025

>  <oscillator_strength_4>
0.0021

>  <open_babel_can_smiles>
OC1=[N]=[C](=NC21CCCCC2)O

>  <mulliken_charges>
24
1   -0.26534
2   -0.259925
3   -0.259932
4   -0.253529
5   -0.253483
6   0.539151
7   0.631096
8   0.060584
9   -0.516712
10   -0.468766
11   -0.590167
12   -0.601209
13   0.138832
14   0.120677
15   0.133204
16   0.16955
17   0.169538
18   0.133209
19   0.106061
20   0.155377
21   0.155372
22   0.106099
23   0.427142
24   0.423174

>  <lowdin_charges>
24
1   -0.27649
2   -0.275885
3   -0.275892
4   -0.270105
5   -0.270091
6   0.143168
7   0.141363
8   0.026787
9   -0.234687
10   -0.253176
11   -0.316109
12   -0.334209
13   0.148691
14   0.131655
15   0.14651
16   0.158226
17   0.158221
18   0.146514
19   0.126291
20   0.157911
21   0.157911
22   0.126313
23   0.367558
24   0.369525

$$$$

