PCCDB-ID:  34708
public computational chemistry database (PCCDB) project, http://pccdb.org

 29 29  0  0  1  0  0  0  0  0999 V2000
    2.0750    1.5375   -0.5847 C   0  0  0  0  0  0  0  0  0  0  0  0
    3.4611    3.0882    0.8450 C   0  0  0  0  0  0  0  0  0  0  0  0
    6.2112    0.4493    0.6883 C   0  0  0  0  0  0  0  0  0  0  0  0
    3.6819    0.5353    1.0711 C   0  0  0  0  0  0  0  0  0  0  0  0
    5.1377   -0.9210    2.5758 C   0  0  0  0  0  0  0  0  0  0  0  0
    5.0286    0.9692    3.9801 C   0  0  0  0  0  0  0  0  0  0  0  0
    3.4239    1.7296    0.1284 C   0  0  0  0  0  0  0  0  0  0  0  0
    5.6144   -0.4409    3.9595 C   0  0  2  0  0  0  0  0  0  0  0  0
    5.0776    0.3811    1.7149 C   0  0  1  0  0  0  0  0  0  0  0  0
    7.0341   -0.4085    4.0701 O   0  0  0  0  0  0  0  0  0  0  0  0
    5.3213    1.4584    2.6707 O   0  0  0  0  0  0  0  0  0  0  0  0
    1.8825    2.3555   -1.2886 H   0  0  0  0  0  0  0  0  0  0  0  0
    1.2485    1.5218    0.1385 H   0  0  0  0  0  0  0  0  0  0  0  0
    2.0438    0.5958   -1.1459 H   0  0  0  0  0  0  0  0  0  0  0  0
    3.2656    3.9030    0.1371 H   0  0  0  0  0  0  0  0  0  0  0  0
    4.4234    3.2683    1.3296 H   0  0  0  0  0  0  0  0  0  0  0  0
    2.6884    3.1342    1.6243 H   0  0  0  0  0  0  0  0  0  0  0  0
    6.0429   -0.2660   -0.1249 H   0  0  0  0  0  0  0  0  0  0  0  0
    7.1690    0.2047    1.1592 H   0  0  0  0  0  0  0  0  0  0  0  0
    6.2914    1.4509    0.2559 H   0  0  0  0  0  0  0  0  0  0  0  0
    3.4885   -0.3922    0.5116 H   0  0  0  0  0  0  0  0  0  0  0  0
    2.9368    0.5568    1.8807 H   0  0  0  0  0  0  0  0  0  0  0  0
    4.1443   -1.3783    2.6570 H   0  0  0  0  0  0  0  0  0  0  0  0
    5.8212   -1.6690    2.1653 H   0  0  0  0  0  0  0  0  0  0  0  0
    5.5119    1.6294    4.7056 H   0  0  0  0  0  0  0  0  0  0  0  0
    3.9440    0.9540    4.1752 H   0  0  0  0  0  0  0  0  0  0  0  0
    4.2031    1.7331   -0.6479 H   0  0  0  0  0  0  0  0  0  0  0  0
    5.2606   -1.0758    4.7765 H   0  0  0  0  0  0  0  0  0  0  0  0
    7.3358    0.3311    3.5166 H   0  0  0  0  0  0  0  0  0  0  0  0
  1  7  1  0  0  0  0
  1 13  1  0  0  0  0
  2 16  1  0  0  0  0
  2 17  1  0  0  0  0
  3 19  1  0  0  0  0
  4  9  1  0  0  0  0
  4 22  1  0  0  0  0
  5 23  1  0  0  0  0
  5  8  1  0  0  0  0
  6 26  1  0  0  0  0
  6 25  1  0  0  0  0
  7  2  1  0  0  0  0
  7  4  1  0  0  0  0
  8  6  1  0  0  0  0
  8 10  1  0  0  0  0
  8 28  1  1  0  0  0
  9  3  1  6  0  0  0
  9  5  1  0  0  0  0
  9 11  1  0  0  0  0
 11  6  1  0  0  0  0
 12  1  1  0  0  0  0
 14  1  1  0  0  0  0
 15  2  1  0  0  0  0
 18  3  1  0  0  0  0
 20  3  1  0  0  0  0
 21  4  1  0  0  0  0
 24  5  1  0  0  0  0
 27  7  1  0  0  0  0
 29 10  1  0  0  0  0
M  END
>  <HBA>
2

>  <HBD>
1

>  <TPSA>
29.46

>  <cid>
34708

>  <dipole>
1.37

>  <excitation_energy_1>
6.193

>  <excitation_energy_2>
6.501

>  <excitation_energy_3>
6.737

>  <excitation_energy_4>
6.852

>  <homo_energy>
-6.67

>  <homo_lumo_gap>
8.485

>  <logP>
1.572

>  <lumo_energy>
1.815

>  <melting_point>
14.71

>  <molecular_refractivity>
45.55

>  <oscillator_strength_1>
0.0119

>  <oscillator_strength_2>
0.0133

>  <oscillator_strength_3>
0.003

>  <oscillator_strength_4>
0.0019

>  <open_babel_can_smiles>
CC(C[C@@]1(C)OC[C@@H](C1)O)C

>  <mulliken_charges>
29
1   -0.441855
2   -0.441902
3   -0.469938
4   -0.272742
5   -0.339253
6   -0.061019
7   -0.07744
8   0.121707
9   0.337767
10   -0.63223
11   -0.51322
12   0.140975
13   0.137813
14   0.136373
15   0.130244
16   0.170224
17   0.130672
18   0.145398
19   0.140363
20   0.162621
21   0.127324
22   0.126213
23   0.141431
24   0.159823
25   0.155507
26   0.126337
27   0.123914
28   0.137971
29   0.39692

>  <lowdin_charges>
29
1   -0.444799
2   -0.451374
3   -0.44956
4   -0.286314
5   -0.311694
6   -0.152307
7   -0.122631
8   -0.014922
9   0.122469
10   -0.46502
11   -0.287974
12   0.149164
13   0.145076
14   0.144961
15   0.143524
16   0.160778
17   0.143131
18   0.154222
19   0.149439
20   0.15883
21   0.144072
22   0.142007
23   0.151216
24   0.162663
25   0.156009
26   0.129827
27   0.137077
28   0.149462
29   0.342667

$$$$

