PCCDB-ID:  510
public computational chemistry database (PCCDB) project, http://pccdb.org

 15 15  0  0  0  0  0  0  0  0999 V2000
    1.0195   -0.3774    1.0622 O   0  0  0  0  0  0  0  0  0  0  0  0
    3.5143    0.4565    1.0275 O   0  0  0  0  0  0  0  0  0  0  0  0
    2.1877    1.9951   -2.7781 O   0  0  0  0  0  0  0  0  0  0  0  0
   -0.1205    2.8518   -1.8482 O   0  0  0  0  0  0  0  0  0  0  0  0
    2.3474   -0.7945   -3.5569 O   0  0  0  0  0  0  0  0  0  0  0  0
    0.7181   -2.2904   -2.2064 O   0  0  0  0  0  0  0  0  0  0  0  0
    1.5702    1.5826   -0.3341 O   0  0  0  0  0  0  0  0  0  0  0  0
    2.4713   -0.6794   -1.0442 O   0  0  0  0  0  0  0  0  0  0  0  0
    0.4650    0.3103   -2.2053 O   0  0  0  0  0  0  0  0  0  0  0  0
    2.2703    0.2461    0.2832 P   0  0  2  0  0  0  0  0  0  0  0  0
    0.9045    1.8103   -1.7999 P   0  0  2  0  0  0  0  0  0  0  0  0
    1.4368   -1.0215   -2.2751 P   0  0  1  0  0  0  0  0  0  0  0  0
    1.2964   -0.9632    1.7882 H   0  0  0  0  0  0  0  0  0  0  0  0
    2.3630    2.9298   -2.9848 H   0  0  0  0  0  0  0  0  0  0  0  0
    2.7144    0.1108   -3.6019 H   0  0  0  0  0  0  0  0  0  0  0  0
  1 13  1  0  0  0  0
  3 11  1  0  0  0  0
  5 12  1  0  0  0  0
  7 10  1  0  0  0  0
  8 10  1  0  0  0  0
  9 11  1  0  0  0  0
 10  2  2  1  0  0  0
 10  1  1  0  0  0  0
 11  4  2  6  0  0  0
 11  7  1  0  0  0  0
 12  6  2  1  0  0  0
 12  9  1  0  0  0  0
 12  8  1  0  0  0  0
 14  3  1  0  0  0  0
 15  5  1  0  0  0  0
M  END
>  <HBA>
9

>  <HBD>
3

>  <TPSA>
169.02

>  <cid>
510

>  <dipole>
2.96

>  <excitation_energy_1>
6.912

>  <excitation_energy_2>
7.014

>  <excitation_energy_3>
7.162

>  <excitation_energy_4>
7.313

>  <homo_energy>
-9.094

>  <homo_lumo_gap>
8.24

>  <logP>
0.351

>  <lumo_energy>
-0.854

>  <melting_point>
145.61

>  <molecular_refractivity>
32.73

>  <oscillator_strength_1>
0.0149

>  <oscillator_strength_2>
0.0293

>  <oscillator_strength_3>
0.0184

>  <oscillator_strength_4>
0.0036

>  <open_babel_can_smiles>
O[P@]1(=O)O[P@@](=O)(O)O[P@@](=O)(O1)O

>  <mulliken_charges>
15
1   -0.624359
2   -0.466728
3   -0.690746
4   -0.45532
5   -0.622174
6   -0.45794
7   -0.584499
8   -0.61657
9   -0.611573
10   1.223933
11   1.247305
12   1.268262
13   0.462029
14   0.465605
15   0.462776

>  <lowdin_charges>
15
1   -0.532887
2   -0.523246
3   -0.570537
4   -0.511293
5   -0.526554
6   -0.50599
7   -0.502658
8   -0.524713
9   -0.51295
10   1.163614
11   1.175795
12   1.177942
13   0.403044
14   0.401607
15   0.388825

$$$$

