PCCDB-ID:  29464
public computational chemistry database (PCCDB) project, http://pccdb.org

 34 36  0  0  1  0  0  0  0  0999 V2000
    2.0404   -0.1211   -0.9656 C   0  0  0  0  0  0  0  0  0  0  0  0
    3.7065    1.4075    3.5098 C   0  0  0  0  0  0  0  0  0  0  0  0
    7.2255   -1.6566    1.8055 C   0  0  0  0  0  0  0  0  0  0  0  0
    8.3671   -1.0318    1.2647 C   0  0  0  0  0  0  0  0  0  0  0  0
    5.9700   -1.0695    1.7074 C   0  0  0  0  0  0  0  0  0  0  0  0
    8.2726    0.1938    0.6169 C   0  0  0  0  0  0  0  0  0  0  0  0
    1.6207   -0.8742    1.4768 C   0  0  0  0  0  0  0  0  0  0  0  0
    2.3021   -0.4970    2.7927 C   0  0  0  0  0  0  0  0  0  0  0  0
    5.2596    2.1322    0.1036 C   0  0  0  0  0  0  0  0  0  0  0  0
    2.6251   -0.3720    0.4233 C   0  0  2  0  0  0  0  0  0  0  0  0
    5.8349    0.1704    1.0549 C   0  0  0  0  0  0  0  0  0  0  0  0
    4.7246    1.0580    0.7722 C   0  0  0  0  0  0  0  0  0  0  0  0
    7.0060    0.7793    0.5199 C   0  0  0  0  0  0  0  0  0  0  0  0
    3.2526    0.9020    1.0729 C   0  0  2  0  0  0  0  0  0  0  0  0
    6.6216    1.9720   -0.0574 N   0  0  0  0  0  0  0  0  0  0  0  0
    2.8610    0.8127    2.4993 N   0  0  0  0  0  0  0  0  0  0  0  0
    1.6352   -1.0435   -1.3983 H   0  0  0  0  0  0  0  0  0  0  0  0
    2.8064    0.2606   -1.6513 H   0  0  0  0  0  0  0  0  0  0  0  0
    1.2276    0.6152   -0.9235 H   0  0  0  0  0  0  0  0  0  0  0  0
    3.1517    1.4604    4.4551 H   0  0  0  0  0  0  0  0  0  0  0  0
    3.9714    2.4303    3.2212 H   0  0  0  0  0  0  0  0  0  0  0  0
    4.6469    0.8580    3.6993 H   0  0  0  0  0  0  0  0  0  0  0  0
    7.3315   -2.6145    2.3076 H   0  0  0  0  0  0  0  0  0  0  0  0
    9.3363   -1.5142    1.3573 H   0  0  0  0  0  0  0  0  0  0  0  0
    5.1040   -1.5647    2.1365 H   0  0  0  0  0  0  0  0  0  0  0  0
    9.1517    0.6804    0.2016 H   0  0  0  0  0  0  0  0  0  0  0  0
    0.6690   -0.3355    1.3843 H   0  0  0  0  0  0  0  0  0  0  0  0
    1.4152   -1.9465    1.3874 H   0  0  0  0  0  0  0  0  0  0  0  0
    3.0674   -1.2533    3.0672 H   0  0  0  0  0  0  0  0  0  0  0  0
    1.6038   -0.4328    3.6383 H   0  0  0  0  0  0  0  0  0  0  0  0
    4.7608    3.0127   -0.2794 H   0  0  0  0  0  0  0  0  0  0  0  0
    3.4194   -1.1236    0.3301 H   0  0  0  0  0  0  0  0  0  0  0  0
    2.7627    1.7934    0.6454 H   0  0  0  0  0  0  0  0  0  0  0  0
    7.2390    2.6312   -0.5045 H   0  0  0  0  0  0  0  0  0  0  0  0
  1 19  1  0  0  0  0
  1 10  1  0  0  0  0
  2 22  1  0  0  0  0
  2 20  1  0  0  0  0
  3 23  1  0  0  0  0
  4 24  1  0  0  0  0
  4  3  2  0  0  0  0
  5  3  1  0  0  0  0
  5 25  1  0  0  0  0
  6  4  1  0  0  0  0
  7  8  1  0  0  0  0
  8 29  1  0  0  0  0
  8 30  1  0  0  0  0
  9 12  2  0  0  0  0
 10 32  1  6  0  0  0
 10 14  1  0  0  0  0
 10  7  1  0  0  0  0
 11  5  2  0  0  0  0
 12 11  1  0  0  0  0
 12 14  1  0  0  0  0
 13  6  2  0  0  0  0
 13 11  1  0  0  0  0
 14 33  1  6  0  0  0
 14 16  1  0  0  0  0
 15  9  1  0  0  0  0
 15 13  1  0  0  0  0
 16  8  1  0  0  0  0
 16  2  1  0  0  0  0
 17  1  1  0  0  0  0
 18  1  1  0  0  0  0
 21  2  1  0  0  0  0
 26  6  1  0  0  0  0
 27  7  1  0  0  0  0
 28  7  1  0  0  0  0
 31  9  1  0  0  0  0
 34 15  1  0  0  0  0
M  END
>  <HBA>
1

>  <HBD>
1

>  <TPSA>
19.03

>  <cid>
29464

>  <dipole>
2.14

>  <excitation_energy_1>
4.021

>  <excitation_energy_2>
4.483

>  <excitation_energy_3>
4.67

>  <excitation_energy_4>
4.756

>  <homo_energy>
-4.953

>  <homo_lumo_gap>
4.827

>  <logP>
3.119

>  <lumo_energy>
-0.125

>  <melting_point>
121.66

>  <molecular_refractivity>
72.0

>  <oscillator_strength_1>
0.0185

>  <oscillator_strength_2>
0.002

>  <oscillator_strength_3>
0.0403

>  <oscillator_strength_4>
0.0095

>  <open_babel_can_smiles>
C[C@@H]1CCN([C@H]1c1c[nH]c2c1cccc2)C

>  <mulliken_charges>
34
1   -0.453396
2   -0.295221
3   -0.144219
4   -0.15045
5   -0.211071
6   -0.163963
7   -0.283031
8   -0.109829
9   -0.008393
10   -0.109358
11   0.066989
12   0.065913
13   0.315894
14   0.00618
15   -0.692241
16   -0.410112
17   0.141777
18   0.146009
19   0.140154
20   0.13901
21   0.144844
22   0.130905
23   0.119855
24   0.12213
25   0.135018
26   0.119653
27   0.138705
28   0.131775
29   0.109022
30   0.131991
31   0.148049
32   0.139515
33   0.112437
34   0.325456

>  <lowdin_charges>
34
1   -0.445106
2   -0.355324
3   -0.176088
4   -0.164007
5   -0.168342
6   -0.189687
7   -0.281374
8   -0.197813
9   -0.13658
10   -0.128773
11   -0.034347
12   -0.072701
13   0.033886
14   -0.051973
15   -0.204468
16   -0.196507
17   0.149741
18   0.152103
19   0.145799
20   0.145162
21   0.14853
22   0.128405
23   0.153894
24   0.155151
25   0.157979
26   0.155433
27   0.144643
28   0.143801
29   0.111121
30   0.139719
31   0.164545
32   0.147205
33   0.133712
34   0.292262

$$$$

