PCCDB-ID:  35841
public computational chemistry database (PCCDB) project, http://pccdb.org

 16 15  0  0  0  0  0  0  0  0999 V2000
    1.5714    1.1569    1.2031 C   0  0  0  0  0  0  0  0  0  0  0  0
    5.3516    0.1866   -0.6192 C   0  0  0  0  0  0  0  0  0  0  0  0
    2.2612    0.2692    0.1503 C   0  0  0  0  0  0  0  0  0  0  0  0
    2.9650    1.0801   -0.8981 C   0  0  0  0  0  0  0  0  0  0  0  0
    4.7218    1.9406   -2.2684 C   0  0  0  0  0  0  0  0  0  0  0  0
    4.2729    1.0565   -1.2255 C   0  0  0  0  0  0  0  0  0  0  0  0
    5.1190    2.6420   -3.1084 N   0  0  0  0  0  0  0  0  0  0  0  0
    1.0214    0.5433    1.9245 H   0  0  0  0  0  0  0  0  0  0  0  0
    0.8590    1.8457    0.7349 H   0  0  0  0  0  0  0  0  0  0  0  0
    2.3044    1.7569    1.7529 H   0  0  0  0  0  0  0  0  0  0  0  0
    4.9638   -0.4420    0.1844 H   0  0  0  0  0  0  0  0  0  0  0  0
    6.1616    0.8038   -0.2136 H   0  0  0  0  0  0  0  0  0  0  0  0
    5.7955   -0.4649   -1.3811 H   0  0  0  0  0  0  0  0  0  0  0  0
    1.4972   -0.3475   -0.3460 H   0  0  0  0  0  0  0  0  0  0  0  0
    2.9464   -0.4267    0.6439 H   0  0  0  0  0  0  0  0  0  0  0  0
    2.3294    1.7774   -1.4435 H   0  0  0  0  0  0  0  0  0  0  0  0
  1 10  1  0  0  0  0
  1  8  1  0  0  0  0
  2 12  1  0  0  0  0
  2 11  1  0  0  0  0
  3 15  1  0  0  0  0
  3  1  1  0  0  0  0
  4  3  1  0  0  0  0
  5  6  1  0  0  0  0
  6  4  2  0  0  0  0
  6  2  1  0  0  0  0
  7  5  3  0  0  0  0
  9  1  1  0  0  0  0
 13  2  1  0  0  0  0
 14  3  1  0  0  0  0
 16  4  1  0  0  0  0
M  END
>  <HBA>
1

>  <HBD>
0

>  <TPSA>
23.79

>  <cid>
35841

>  <dipole>
4.55

>  <excitation_energy_1>
5.954

>  <excitation_energy_2>
6.306

>  <excitation_energy_3>
6.392

>  <excitation_energy_4>
6.565

>  <homo_energy>
-7.078

>  <homo_lumo_gap>
6.144

>  <logP>
1.866

>  <lumo_energy>
-0.933

>  <melting_point>
20.55

>  <molecular_refractivity>
30.23

>  <oscillator_strength_1>
0.4641

>  <oscillator_strength_2>
0.0088

>  <oscillator_strength_3>
0.0009

>  <oscillator_strength_4>
0.0009

>  <open_babel_can_smiles>
C/C(=C\CC)/C#N

>  <mulliken_charges>
16
1   -0.444317
2   -0.50557
3   -0.306754
4   -0.112239
5   0.267735
6   0.126235
7   -0.479879
8   0.153687
9   0.15376
10   0.158163
11   0.163805
12   0.178941
13   0.179532
14   0.160913
15   0.150867
16   0.155119

>  <lowdin_charges>
16
1   -0.443888
2   -0.436695
3   -0.275734
4   -0.123973
5   -0.015867
6   -0.031389
7   -0.130007
8   0.157064
9   0.154141
10   0.156287
11   0.163089
12   0.171532
13   0.171962
14   0.161129
15   0.152911
16   0.169439

$$$$

