PCCDB-ID:  48198
public computational chemistry database (PCCDB) project, http://pccdb.org

 34 33  0  0  0  0  0  0  0  0999 V2000
    0.7682   -0.7808   -1.7134 C   0  0  0  0  0  0  0  0  0  0  0  0
    9.1778   -0.4020   -2.4767 C   0  0  0  0  0  0  0  0  0  0  0  0
    7.2741   -4.2297   -0.7567 C   0  0  0  0  0  0  0  0  0  0  0  0
    2.2696   -0.4987   -1.5949 C   0  0  0  0  0  0  0  0  0  0  0  0
    7.7024   -0.7778   -2.6793 C   0  0  0  0  0  0  0  0  0  0  0  0
    7.6237   -2.7712   -1.0784 C   0  0  0  0  0  0  0  0  0  0  0  0
    3.1301   -1.5722   -2.2780 C   0  0  0  0  0  0  0  0  0  0  0  0
    4.6300   -1.2840   -2.1433 C   0  0  0  0  0  0  0  0  0  0  0  0
    8.2246   -3.0619   -3.5697 C   0  0  0  0  0  0  0  0  0  0  0  0
    7.3745   -2.2946   -2.5264 C   0  0  0  0  0  0  0  0  0  0  0  0
    9.2998   -3.7065   -3.3613 N   0  0  0  0  0  0  0  0  0  0  0  0
    7.8226   -2.9294   -4.8588 O   0  0  0  0  0  0  0  0  0  0  0  0
    5.5746   -2.6030   -3.0128 S   0  0  0  0  0  0  0  0  0  0  0  0
    0.1782   -0.0015   -1.2184 H   0  0  0  0  0  0  0  0  0  0  0  0
    0.5080   -1.7408   -1.2518 H   0  0  0  0  0  0  0  0  0  0  0  0
    0.4537   -0.8214   -2.7632 H   0  0  0  0  0  0  0  0  0  0  0  0
    9.3078    0.6723   -2.6472 H   0  0  0  0  0  0  0  0  0  0  0  0
    9.8314   -0.9350   -3.1737 H   0  0  0  0  0  0  0  0  0  0  0  0
    9.5209   -0.6136   -1.4583 H   0  0  0  0  0  0  0  0  0  0  0  0
    7.5769   -4.4694    0.2688 H   0  0  0  0  0  0  0  0  0  0  0  0
    7.7812   -4.9268   -1.4308 H   0  0  0  0  0  0  0  0  0  0  0  0
    6.1990   -4.4081   -0.8437 H   0  0  0  0  0  0  0  0  0  0  0  0
    2.5476   -0.4312   -0.5338 H   0  0  0  0  0  0  0  0  0  0  0  0
    2.4945    0.4830   -2.0345 H   0  0  0  0  0  0  0  0  0  0  0  0
    7.3869   -0.4536   -3.6776 H   0  0  0  0  0  0  0  0  0  0  0  0
    7.0926   -0.2188   -1.9605 H   0  0  0  0  0  0  0  0  0  0  0  0
    8.6780   -2.5862   -0.8344 H   0  0  0  0  0  0  0  0  0  0  0  0
    7.0572   -2.1081   -0.4117 H   0  0  0  0  0  0  0  0  0  0  0  0
    2.8623   -1.6325   -3.3415 H   0  0  0  0  0  0  0  0  0  0  0  0
    2.9076   -2.5555   -1.8440 H   0  0  0  0  0  0  0  0  0  0  0  0
    4.9180   -1.2737   -1.0864 H   0  0  0  0  0  0  0  0  0  0  0  0
    4.8672   -0.3064   -2.5734 H   0  0  0  0  0  0  0  0  0  0  0  0
    9.5254   -3.7215   -2.3683 H   0  0  0  0  0  0  0  0  0  0  0  0
    6.9364   -2.5196   -4.8692 H   0  0  0  0  0  0  0  0  0  0  0  0
  1  4  1  0  0  0  0
  1 15  1  0  0  0  0
  1 14  1  0  0  0  0
  2 19  1  0  0  0  0
  3 20  1  0  0  0  0
  4 23  1  0  0  0  0
  5 10  1  0  0  0  0
  5  2  1  0  0  0  0
  5 26  1  0  0  0  0
  6 27  1  0  0  0  0
  6  3  1  0  0  0  0
  6 28  1  0  0  0  0
  7  8  1  0  0  0  0
  7 30  1  0  0  0  0
  7  4  1  0  0  0  0
  8 31  1  0  0  0  0
  9 11  2  0  0  0  0
  9 10  1  0  0  0  0
 10  6  1  0  0  0  0
 11 33  1  0  0  0  0
 12  9  1  0  0  0  0
 13 10  1  0  0  0  0
 13  8  1  0  0  0  0
 16  1  1  0  0  0  0
 17  2  1  0  0  0  0
 18  2  1  0  0  0  0
 21  3  1  0  0  0  0
 22  3  1  0  0  0  0
 24  4  1  0  0  0  0
 25  5  1  0  0  0  0
 29  7  1  0  0  0  0
 32  8  1  0  0  0  0
 34 12  1  0  0  0  0
M  END
>  <HBA>
3

>  <HBD>
1

>  <TPSA>
68.39

>  <cid>
48198

>  <dipole>
5.69

>  <excitation_energy_1>
5.463

>  <excitation_energy_2>
5.546

>  <excitation_energy_3>
5.874

>  <excitation_energy_4>
5.9

>  <homo_energy>
-6.504

>  <homo_lumo_gap>
6.822

>  <logP>
3.264

>  <lumo_energy>
0.318

>  <melting_point>
66.41

>  <molecular_refractivity>
60.72

>  <oscillator_strength_1>
0.0009

>  <oscillator_strength_2>
0.0001

>  <oscillator_strength_3>
0.0055

>  <oscillator_strength_4>
0.0104

>  <open_babel_can_smiles>
CCCCSC(C(=N)O)(CC)CC

>  <mulliken_charges>
34
1   -0.442254
2   -0.465602
3   -0.454929
4   -0.252935
5   -0.255773
6   -0.280284
7   -0.264503
8   -0.414845
9   0.500619
10   -0.171451
11   -0.594775
12   -0.584808
13   0.058759
14   0.147863
15   0.147043
16   0.147111
17   0.151508
18   0.181083
19   0.148895
20   0.143792
21   0.163558
22   0.171492
23   0.135341
24   0.136073
25   0.149066
26   0.146372
27   0.148827
28   0.140395
29   0.152957
30   0.154776
31   0.171316
32   0.173852
33   0.291282
34   0.420177

>  <lowdin_charges>
34
1   -0.443136
2   -0.451891
3   -0.453221
4   -0.269875
5   -0.276176
6   -0.281392
7   -0.274073
8   -0.370087
9   0.123618
10   -0.111655
11   -0.39519
12   -0.360761
13   0.075715
14   0.154
15   0.149351
16   0.148288
17   0.155041
18   0.167292
19   0.148502
20   0.151465
21   0.159663
22   0.160068
23   0.139592
24   0.141099
25   0.150999
26   0.149789
27   0.14666
28   0.149318
29   0.149501
30   0.151748
31   0.154585
32   0.156678
33   0.255656
34   0.348833

$$$$

