PCCDB-ID:  31262
public computational chemistry database (PCCDB) project, http://pccdb.org

 16 16  0  0  0  0  0  0  0  0999 V2000
   -1.0622    1.5112    0.0780 C   0  0  0  0  0  0  0  0  0  0  0  0
   -1.5604    0.2102    0.0325 C   0  0  0  0  0  0  0  0  0  0  0  0
    0.2988    1.7638   -0.0739 C   0  0  0  0  0  0  0  0  0  0  0  0
    0.6940   -0.6200   -0.3232 C   0  0  0  0  0  0  0  0  0  0  0  0
   -0.8413   -3.2959   -0.3493 C   0  0  0  0  0  0  0  0  0  0  0  0
    3.3630    1.7778   -0.4672 C   0  0  0  0  0  0  0  0  0  0  0  0
   -0.6776   -0.8572   -0.1688 C   0  0  0  0  0  0  0  0  0  0  0  0
    1.1789    0.6895   -0.2759 C   0  0  0  0  0  0  0  0  0  0  0  0
   -1.2041   -2.1499   -0.2088 N   0  0  0  0  0  0  0  0  0  0  0  0
    2.5536    0.8783   -0.4370 N   0  0  0  0  0  0  0  0  0  0  0  0
   -0.6279   -4.4471   -0.4714 O   0  0  0  0  0  0  0  0  0  0  0  0
    4.2500    2.5499   -0.5180 O   0  0  0  0  0  0  0  0  0  0  0  0
   -1.7450    2.3411    0.2346 H   0  0  0  0  0  0  0  0  0  0  0  0
   -2.6191    0.0073    0.1503 H   0  0  0  0  0  0  0  0  0  0  0  0
    0.6838    2.7783   -0.0377 H   0  0  0  0  0  0  0  0  0  0  0  0
    1.3860   -1.4405   -0.4796 H   0  0  0  0  0  0  0  0  0  0  0  0
  1 13  1  0  0  0  0
  2  1  1  0  0  0  0
  2 14  1  0  0  0  0
  3 15  1  0  0  0  0
  3  1  2  0  0  0  0
  4  8  2  0  0  0  0
  4  7  1  0  0  0  0
  5  9  2  0  0  0  0
  6 10  2  0  0  0  0
  7  2  2  0  0  0  0
  8  3  1  0  0  0  0
  9  7  1  0  0  0  0
 10  8  1  0  0  0  0
 11  5  2  0  0  0  0
 12  6  2  0  0  0  0
 16  4  1  0  0  0  0
M  END
>  <HBA>
4

>  <HBD>
0

>  <TPSA>
58.86

>  <cid>
31262

>  <dipole>
2.31

>  <excitation_energy_1>
4.717

>  <excitation_energy_2>
5.183

>  <excitation_energy_3>
5.19

>  <excitation_energy_4>
5.344

>  <homo_energy>
-6.599

>  <homo_lumo_gap>
5.551

>  <logP>
1.621

>  <lumo_energy>
-1.048

>  <melting_point>
120.62

>  <molecular_refractivity>
42.01

>  <oscillator_strength_1>
0.009

>  <oscillator_strength_2>
0.0001

>  <oscillator_strength_3>
0.1396

>  <oscillator_strength_4>
0.0001

>  <open_babel_can_smiles>
O=C=Nc1cccc(c1)N=C=O

>  <mulliken_charges>
16
1   -0.148017
2   -0.137698
3   -0.143891
4   -0.172459
5   0.606518
6   0.606704
7   0.290675
8   0.283194
9   -0.504649
10   -0.502068
11   -0.389728
12   -0.389718
13   0.147973
14   0.152144
15   0.144824
16   0.156194

>  <lowdin_charges>
16
1   -0.139331
2   -0.1658
3   -0.177646
4   -0.182015
5   0.190647
6   0.194886
7   0.074598
8   0.075358
9   -0.141317
10   -0.144338
11   -0.133691
12   -0.135595
13   0.16899
14   0.171819
15   0.166791
16   0.176643

$$$$

