PCCDB-ID:  27397
public computational chemistry database (PCCDB) project, http://pccdb.org

 27 26  0  0  0  0  0  0  0  0999 V2000
    1.6210    1.1194   -1.7017 C   0  0  0  0  0  0  0  0  0  0  0  0
    5.4432    0.3060    0.6896 C   0  0  0  0  0  0  0  0  0  0  0  0
    2.2276   -1.3126    5.5369 C   0  0  0  0  0  0  0  0  0  0  0  0
    2.1305   -0.2231   -1.1709 C   0  0  0  0  0  0  0  0  0  0  0  0
    2.6199   -0.0744    1.2840 C   0  0  0  0  0  0  0  0  0  0  0  0
    2.5089   -1.4974    1.8491 C   0  0  0  0  0  0  0  0  0  0  0  0
    4.4348    0.0986   -0.4341 C   0  0  0  0  0  0  0  0  0  0  0  0
    2.8924   -1.2591    4.1828 C   0  0  0  0  0  0  0  0  0  0  0  0
    3.1102   -0.0742   -0.0871 N   0  0  0  0  0  0  0  0  0  0  0  0
    4.7842    0.1066   -1.6103 O   0  0  0  0  0  0  0  0  0  0  0  0
    4.0717   -1.0599    3.9853 O   0  0  0  0  0  0  0  0  0  0  0  0
    1.9887   -1.4793    3.1943 O   0  0  0  0  0  0  0  0  0  0  0  0
    0.8789    0.9607   -2.4928 H   0  0  0  0  0  0  0  0  0  0  0  0
    2.4518    1.6951   -2.1194 H   0  0  0  0  0  0  0  0  0  0  0  0
    1.1486    1.7121   -0.9092 H   0  0  0  0  0  0  0  0  0  0  0  0
    5.3350   -0.3980    1.5200 H   0  0  0  0  0  0  0  0  0  0  0  0
    5.3493    1.3179    1.1036 H   0  0  0  0  0  0  0  0  0  0  0  0
    6.4378    0.2073    0.2529 H   0  0  0  0  0  0  0  0  0  0  0  0
    2.9483   -1.0364    6.3070 H   0  0  0  0  0  0  0  0  0  0  0  0
    1.8550   -2.3249    5.7272 H   0  0  0  0  0  0  0  0  0  0  0  0
    1.3662   -0.6381    5.5657 H   0  0  0  0  0  0  0  0  0  0  0  0
    2.6114   -0.7823   -1.9760 H   0  0  0  0  0  0  0  0  0  0  0  0
    1.2977   -0.8261   -0.7909 H   0  0  0  0  0  0  0  0  0  0  0  0
    3.2807    0.5127    1.9233 H   0  0  0  0  0  0  0  0  0  0  0  0
    1.6352    0.4065    1.3121 H   0  0  0  0  0  0  0  0  0  0  0  0
    3.4845   -1.9885    1.8403 H   0  0  0  0  0  0  0  0  0  0  0  0
    1.7965   -2.0953    1.2762 H   0  0  0  0  0  0  0  0  0  0  0  0
  1  4  1  0  0  0  0
  1 15  1  0  0  0  0
  2 17  1  0  0  0  0
  2 16  1  0  0  0  0
  3 21  1  0  0  0  0
  3 20  1  0  0  0  0
  3 19  1  0  0  0  0
  4 23  1  0  0  0  0
  4  9  1  0  0  0  0
  5 25  1  0  0  0  0
  5  6  1  0  0  0  0
  5 24  1  0  0  0  0
  6 12  1  0  0  0  0
  7  9  1  0  0  0  0
  7  2  1  0  0  0  0
  8  3  1  0  0  0  0
  9  5  1  0  0  0  0
 10  7  2  0  0  0  0
 11  8  2  0  0  0  0
 12  8  1  0  0  0  0
 13  1  1  0  0  0  0
 14  1  1  0  0  0  0
 18  2  1  0  0  0  0
 22  4  1  0  0  0  0
 26  6  1  0  0  0  0
 27  6  1  0  0  0  0
M  END
>  <HBA>
4

>  <HBD>
0

>  <TPSA>
46.61

>  <cid>
27397

>  <dipole>
4.56

>  <excitation_energy_1>
5.55

>  <excitation_energy_2>
5.674

>  <excitation_energy_3>
5.806

>  <excitation_energy_4>
5.9

>  <homo_energy>
-6.387

>  <homo_lumo_gap>
6.403

>  <logP>
0.418

>  <lumo_energy>
0.016

>  <melting_point>
8.58

>  <molecular_refractivity>
44.95

>  <oscillator_strength_1>
0.0017

>  <oscillator_strength_2>
0.0101

>  <oscillator_strength_3>
0.001

>  <oscillator_strength_4>
0.0124

>  <open_babel_can_smiles>
CCN(C(=O)C)CCOC(=O)C

>  <mulliken_charges>
27
1   -0.444442
2   -0.560411
3   -0.524215
4   -0.143013
5   -0.18145
6   -0.045479
7   0.574758
8   0.600483
9   -0.406329
10   -0.513195
11   -0.465537
12   -0.452161
13   0.145677
14   0.178068
15   0.139441
16   0.188221
17   0.171804
18   0.184741
19   0.186365
20   0.187397
21   0.183067
22   0.183207
23   0.133661
24   0.183011
25   0.160696
26   0.175356
27   0.160278

>  <lowdin_charges>
27
1   -0.454156
2   -0.478324
3   -0.463311
4   -0.198062
5   -0.213254
6   -0.144293
7   0.160431
8   0.200084
9   -0.112144
10   -0.315482
11   -0.265826
12   -0.196702
13   0.154271
14   0.166857
15   0.146364
16   0.173783
17   0.169399
18   0.177791
19   0.17874
20   0.180708
21   0.178807
22   0.17088
23   0.14181
24   0.169837
25   0.153802
26   0.159913
27   0.158078

$$$$

