PCCDB-ID:  643
public computational chemistry database (PCCDB) project, http://pccdb.org

 33 33  0  0  1  0  0  0  0  0999 V2000
    1.1143   -0.2589    3.9226 C   0  0  0  0  0  0  0  0  0  0  0  0
    2.0255   -3.7635    0.7022 C   0  0  0  0  0  0  0  0  0  0  0  0
    2.5597   -2.5435   -0.0623 C   0  0  0  0  0  0  0  0  0  0  0  0
    1.6700   -4.9262   -0.2356 C   0  0  0  0  0  0  0  0  0  0  0  0
    3.0717   -1.3674    0.7916 C   0  0  0  0  0  0  0  0  0  0  0  0
    1.1248   -6.1526    0.5043 C   0  0  0  0  0  0  0  0  0  0  0  0
    1.2187   -1.1504    2.6810 C   0  0  2  0  0  0  0  0  0  0  0  0
    2.0470   -0.4761    1.5261 C   0  0  2  0  0  0  0  0  0  0  0  0
    2.1920   -6.8991    1.3003 C   0  0  0  0  0  0  0  0  0  0  0  0
   -0.1605   -0.7321    1.0251 C   0  0  0  0  0  0  0  0  0  0  0  0
   -0.1224   -1.4059    2.1147 N   0  0  0  0  0  0  0  0  0  0  0  0
    0.9494    0.0072    0.6698 N   0  0  0  0  0  0  0  0  0  0  0  0
    3.3783   -6.7011    1.2204 O   0  0  0  0  0  0  0  0  0  0  0  0
    1.7242   -7.8736    2.1307 O   0  0  0  0  0  0  0  0  0  0  0  0
   -1.2215   -0.6545    0.1986 O   0  0  0  0  0  0  0  0  0  0  0  0
    2.0994   -0.1106    4.3825 H   0  0  0  0  0  0  0  0  0  0  0  0
    0.4518   -0.7186    4.6628 H   0  0  0  0  0  0  0  0  0  0  0  0
    0.7033    0.7228    3.6606 H   0  0  0  0  0  0  0  0  0  0  0  0
    1.1344   -3.4841    1.2763 H   0  0  0  0  0  0  0  0  0  0  0  0
    2.7855   -4.1071    1.4150 H   0  0  0  0  0  0  0  0  0  0  0  0
    1.7899   -2.1844   -0.7607 H   0  0  0  0  0  0  0  0  0  0  0  0
    3.3979   -2.8734   -0.6917 H   0  0  0  0  0  0  0  0  0  0  0  0
    2.5560   -5.2284   -0.8061 H   0  0  0  0  0  0  0  0  0  0  0  0
    0.9171   -4.5945   -0.9628 H   0  0  0  0  0  0  0  0  0  0  0  0
    3.6601   -0.7097    0.1348 H   0  0  0  0  0  0  0  0  0  0  0  0
    3.7809   -1.7422    1.5434 H   0  0  0  0  0  0  0  0  0  0  0  0
    0.6905   -6.8712   -0.2066 H   0  0  0  0  0  0  0  0  0  0  0  0
    0.3080   -5.8623    1.1814 H   0  0  0  0  0  0  0  0  0  0  0  0
    1.6781   -2.1017    2.9747 H   0  0  0  0  0  0  0  0  0  0  0  0
    2.5988    0.3846    1.9245 H   0  0  0  0  0  0  0  0  0  0  0  0
    1.1145    0.1718   -0.3162 H   0  0  0  0  0  0  0  0  0  0  0  0
    0.7541   -7.9078    2.0880 H   0  0  0  0  0  0  0  0  0  0  0  0
   -1.9208   -1.1839    0.6199 H   0  0  0  0  0  0  0  0  0  0  0  0
  1 16  1  0  0  0  0
  1 17  1  0  0  0  0
  2 19  1  0  0  0  0
  2 20  1  0  0  0  0
  3  2  1  0  0  0  0
  3  5  1  0  0  0  0
  4  6  1  0  0  0  0
  4  2  1  0  0  0  0
  5  8  1  0  0  0  0
  5 26  1  0  0  0  0
  6 28  1  0  0  0  0
  6  9  1  0  0  0  0
  7 29  1  1  0  0  0
  7  1  1  0  0  0  0
  8 30  1  1  0  0  0
  8  7  1  0  0  0  0
  9 14  1  0  0  0  0
 10 11  2  0  0  0  0
 11  7  1  0  0  0  0
 12 10  1  0  0  0  0
 12  8  1  0  0  0  0
 13  9  2  0  0  0  0
 15 33  1  0  0  0  0
 15 10  1  0  0  0  0
 18  1  1  0  0  0  0
 21  3  1  0  0  0  0
 22  3  1  0  0  0  0
 23  4  1  0  0  0  0
 24  4  1  0  0  0  0
 25  5  1  0  0  0  0
 27  6  1  0  0  0  0
 31 12  1  0  0  0  0
 32 14  1  0  0  0  0
M  END
>  <HBA>
5

>  <HBD>
3

>  <TPSA>
78.43

>  <cid>
643

>  <dipole>
3.22

>  <excitation_energy_1>
5.198

>  <excitation_energy_2>
5.396

>  <excitation_energy_3>
5.616

>  <excitation_energy_4>
5.659

>  <homo_energy>
-5.921

>  <homo_lumo_gap>
6.231

>  <logP>
1.749

>  <lumo_energy>
0.31

>  <melting_point>
156.6

>  <molecular_refractivity>
63.86

>  <oscillator_strength_1>
0.0001

>  <oscillator_strength_2>
0.0011

>  <oscillator_strength_3>
0.0008

>  <oscillator_strength_4>
0.0099

>  <open_babel_can_smiles>
OC(=O)CCCCC[C@H]1NC(=N[C@@H]1C)O

>  <mulliken_charges>
33
1   -0.439544
2   -0.277809
3   -0.262124
4   -0.249623
5   -0.285056
6   -0.406891
7   0.005672
8   0.027279
9   0.609003
10   0.669451
11   -0.498892
12   -0.603131
13   -0.440145
14   -0.566851
15   -0.614978
16   0.135267
17   0.155514
18   0.150154
19   0.160507
20   0.15369
21   0.121883
22   0.139257
23   0.157943
24   0.129952
25   0.130731
26   0.144522
27   0.171068
28   0.159608
29   0.133531
30   0.137768
31   0.322905
32   0.408488
33   0.420852

>  <lowdin_charges>
33
1   -0.448132
2   -0.292151
3   -0.279359
4   -0.271888
5   -0.292345
6   -0.325288
7   -0.062797
8   -0.068744
9   0.193943
10   0.145548
11   -0.303883
12   -0.302352
13   -0.238829
14   -0.356541
15   -0.361901
16   0.145538
17   0.158708
18   0.151926
19   0.153484
20   0.15159
21   0.135836
22   0.147757
23   0.156151
24   0.144408
25   0.145121
26   0.152057
27   0.168701
28   0.158981
29   0.141228
30   0.146317
31   0.279043
32   0.355127
33   0.372745

$$$$

