PCCDB-ID:  6234
public computational chemistry database (PCCDB) project, http://pccdb.org

 13 13  0  0  1  0  0  0  0  0999 V2000
   -1.1680   -0.2553    0.1188 C   0  0  0  0  0  0  0  0  0  0  0  0
   -0.4206    1.0825    0.0869 C   0  0  2  0  0  0  0  0  0  0  0  0
    0.9775    0.5245   -0.0984 C   0  0  0  0  0  0  0  0  0  0  0  0
   -0.4383    1.9880    1.2318 N   0  0  0  0  0  0  0  0  0  0  0  0
    1.0443   -0.6964   -0.4729 N   0  0  0  0  0  0  0  0  0  0  0  0
    2.0415    1.3065    0.1318 O   0  0  0  0  0  0  0  0  0  0  0  0
   -0.3130   -1.1574   -0.6039 O   0  0  0  0  0  0  0  0  0  0  0  0
   -2.1436   -0.2562   -0.3730 H   0  0  0  0  0  0  0  0  0  0  0  0
   -1.2817   -0.5962    1.1623 H   0  0  0  0  0  0  0  0  0  0  0  0
   -0.6811    1.6733   -0.8022 H   0  0  0  0  0  0  0  0  0  0  0  0
   -0.4611    1.4646    2.1067 H   0  0  0  0  0  0  0  0  0  0  0  0
   -1.2518    2.5973    1.2180 H   0  0  0  0  0  0  0  0  0  0  0  0
    1.6785    2.0809    0.6124 H   0  0  0  0  0  0  0  0  0  0  0  0
  1  9  1  0  0  0  0
  2 10  1  6  0  0  0
  2  1  1  0  0  0  0
  2  4  1  0  0  0  0
  3  2  1  0  0  0  0
  3  6  1  0  0  0  0
  4 11  1  0  0  0  0
  5  3  2  0  0  0  0
  6 13  1  0  0  0  0
  7  5  1  0  0  0  0
  7  1  1  0  0  0  0
  8  1  1  0  0  0  0
 12  4  1  0  0  0  0
M  END
>  <HBA>
4

>  <HBD>
2

>  <TPSA>
64.35

>  <cid>
6234

>  <dipole>
5.92

>  <excitation_energy_1>
5.01

>  <excitation_energy_2>
5.655

>  <excitation_energy_3>
6.012

>  <excitation_energy_4>
6.083

>  <homo_energy>
-6.068

>  <homo_lumo_gap>
6.416

>  <logP>
-0.596

>  <lumo_energy>
0.348

>  <melting_point>
94.22

>  <molecular_refractivity>
25.13

>  <oscillator_strength_1>
0.0207

>  <oscillator_strength_2>
0.0286

>  <oscillator_strength_3>
0.0141

>  <oscillator_strength_4>
0.018

>  <open_babel_can_smiles>
N[C@@H]1CON=C1O

>  <mulliken_charges>
13
1   -0.017607
2   -0.107337
3   0.534147
4   -0.743551
5   -0.203926
6   -0.601544
7   -0.394083
8   0.156792
9   0.130235
10   0.1775
11   0.31653
12   0.323693
13   0.429151

>  <lowdin_charges>
13
1   -0.149213
2   -0.112423
3   0.070702
4   -0.54045
5   -0.071633
6   -0.343064
7   -0.214539
8   0.158202
9   0.132958
10   0.164802
11   0.265449
12   0.272361
13   0.366846

$$$$

