PCCDB-ID:  67150
public computational chemistry database (PCCDB) project, http://pccdb.org

 26 26  0  0  0  0  0  0  0  0999 V2000
    0.7174    0.5926    0.8574 C   0  0  0  0  0  0  0  0  0  0  0  0
   10.6222    2.6135    1.3068 C   0  0  0  0  0  0  0  0  0  0  0  0
    2.2052    0.3276    0.7015 C   0  0  0  0  0  0  0  0  0  0  0  0
    9.1343    2.8799    1.4590 C   0  0  0  0  0  0  0  0  0  0  0  0
    5.0559    0.4258    0.6438 C   0  0  0  0  0  0  0  0  0  0  0  0
    4.8945    2.6681    1.5214 C   0  0  0  0  0  0  0  0  0  0  0  0
    6.4450    0.5398    0.6380 C   0  0  0  0  0  0  0  0  0  0  0  0
    6.2836    2.7819    1.5161 C   0  0  0  0  0  0  0  0  0  0  0  0
    4.2674    1.4960    1.0881 C   0  0  0  0  0  0  0  0  0  0  0  0
    7.0721    1.7119    1.0713 C   0  0  0  0  0  0  0  0  0  0  0  0
    2.8976    1.4934    1.1356 O   0  0  0  0  0  0  0  0  0  0  0  0
    8.4418    1.7150    1.0226 O   0  0  0  0  0  0  0  0  0  0  0  0
    0.1414   -0.2751    0.5179 H   0  0  0  0  0  0  0  0  0  0  0  0
    0.4178    1.4627    0.2648 H   0  0  0  0  0  0  0  0  0  0  0  0
    0.4679    0.7872    1.9052 H   0  0  0  0  0  0  0  0  0  0  0  0
   11.1973    3.4907    1.6230 H   0  0  0  0  0  0  0  0  0  0  0  0
   10.8686    2.3933    0.2634 H   0  0  0  0  0  0  0  0  0  0  0  0
   10.9258    1.7592    1.9200 H   0  0  0  0  0  0  0  0  0  0  0  0
    2.4553    0.1091   -0.3474 H   0  0  0  0  0  0  0  0  0  0  0  0
    2.5123   -0.5391    1.3056 H   0  0  0  0  0  0  0  0  0  0  0  0
    8.8298    3.7478    0.8553 H   0  0  0  0  0  0  0  0  0  0  0  0
    8.8818    3.0970    2.5076 H   0  0  0  0  0  0  0  0  0  0  0  0
    4.6027   -0.4975    0.3014 H   0  0  0  0  0  0  0  0  0  0  0  0
    4.2750    3.4912    1.8642 H   0  0  0  0  0  0  0  0  0  0  0  0
    7.0645   -0.2836    0.2960 H   0  0  0  0  0  0  0  0  0  0  0  0
    6.7368    3.7049    1.8593 H   0  0  0  0  0  0  0  0  0  0  0  0
  1 15  1  0  0  0  0
  2  4  1  0  0  0  0
  2 16  1  0  0  0  0
  2 18  1  0  0  0  0
  3  1  1  0  0  0  0
  3 11  1  0  0  0  0
  3 20  1  0  0  0  0
  4 22  1  0  0  0  0
  5  9  1  0  0  0  0
  6 24  1  0  0  0  0
  7  5  2  0  0  0  0
  7 10  1  0  0  0  0
  8  6  1  0  0  0  0
  8 26  1  0  0  0  0
  9 11  1  0  0  0  0
  9  6  2  0  0  0  0
 10  8  2  0  0  0  0
 12 10  1  0  0  0  0
 12  4  1  0  0  0  0
 13  1  1  0  0  0  0
 14  1  1  0  0  0  0
 17  2  1  0  0  0  0
 19  3  1  0  0  0  0
 21  4  1  0  0  0  0
 23  5  1  0  0  0  0
 25  7  1  0  0  0  0
M  END
>  <HBA>
2

>  <HBD>
0

>  <TPSA>
18.46

>  <cid>
67150

>  <dipole>
0.0

>  <excitation_energy_1>
4.604

>  <excitation_energy_2>
4.98

>  <excitation_energy_3>
5.185

>  <excitation_energy_4>
5.487

>  <homo_energy>
-5.222

>  <homo_lumo_gap>
5.333

>  <logP>
2.484

>  <lumo_energy>
0.112

>  <melting_point>
13.2

>  <molecular_refractivity>
49.04

>  <oscillator_strength_1>
0.0617

>  <oscillator_strength_2>
0.0

>  <oscillator_strength_3>
0.0094

>  <oscillator_strength_4>
0.0015

>  <open_babel_can_smiles>
CCOc1ccc(cc1)OCC

>  <mulliken_charges>
26
1   -0.456068
2   -0.456031
3   -0.025476
4   -0.025494
5   -0.19645
6   -0.18729
7   -0.187467
8   -0.19663
9   0.377557
10   0.377717
11   -0.52421
12   -0.524209
13   0.146224
14   0.162397
15   0.161995
16   0.14621
17   0.162319
18   0.162047
19   0.137045
20   0.137018
21   0.136995
22   0.137084
23   0.132161
24   0.135182
25   0.1352
26   0.132174

>  <lowdin_charges>
26
1   -0.447622
2   -0.447686
3   -0.12304
4   -0.123047
5   -0.203266
6   -0.17636
7   -0.176361
8   -0.203275
9   0.087406
10   0.087408
11   -0.211
12   -0.211006
13   0.156569
14   0.159943
15   0.157869
16   0.156492
17   0.158189
18   0.159752
19   0.13423
20   0.136313
21   0.136255
22   0.134311
23   0.16276
24   0.1662
25   0.1662
26   0.162767

$$$$

