PCCDB-ID:  12095
public computational chemistry database (PCCDB) project, http://pccdb.org

 22 22  0  0  0  0  0  0  0  0999 V2000
   -0.9385    0.6315   -0.1191 C   0  0  0  0  0  0  0  0  0  0  0  0
    1.1114   -0.6013    0.3029 C   0  0  0  0  0  0  0  0  0  0  0  0
   -1.6493   -0.5561   -0.1805 C   0  0  0  0  0  0  0  0  0  0  0  0
    0.3993   -1.7932    0.2442 C   0  0  0  0  0  0  0  0  0  0  0  0
    2.4237    1.9750    0.8296 C   0  0  0  0  0  0  0  0  0  0  0  0
    0.4494    0.6281    0.1248 C   0  0  0  0  0  0  0  0  0  0  0  0
   -0.9730   -1.7635    0.0044 C   0  0  0  0  0  0  0  0  0  0  0  0
    3.6318    1.6333   -0.0613 C   0  0  0  0  0  0  0  0  0  0  0  0
    1.1435    1.8452    0.1380 N   0  0  0  0  0  0  0  0  0  0  0  0
   -1.7203   -3.0191   -0.0539 N   0  0  0  0  0  0  0  0  0  0  0  0
    4.7265    1.4205    0.3950 O   0  0  0  0  0  0  0  0  0  0  0  0
    3.3718    1.6282   -1.3809 O   0  0  0  0  0  0  0  0  0  0  0  0
   -2.9327   -2.9547   -0.2674 O   0  0  0  0  0  0  0  0  0  0  0  0
   -1.0955   -4.0676    0.1139 O   0  0  0  0  0  0  0  0  0  0  0  0
   -1.4571    1.5768   -0.2601 H   0  0  0  0  0  0  0  0  0  0  0  0
    2.1805   -0.6350    0.4811 H   0  0  0  0  0  0  0  0  0  0  0  0
   -2.7167   -0.5659   -0.3628 H   0  0  0  0  0  0  0  0  0  0  0  0
    0.8946   -2.7468    0.3802 H   0  0  0  0  0  0  0  0  0  0  0  0
    2.5439    3.0182    1.1392 H   0  0  0  0  0  0  0  0  0  0  0  0
    2.4835    1.3596    1.7342 H   0  0  0  0  0  0  0  0  0  0  0  0
    0.5346    2.6473    0.2442 H   0  0  0  0  0  0  0  0  0  0  0  0
    2.4115    1.7987   -1.4840 H   0  0  0  0  0  0  0  0  0  0  0  0
  1  6  1  0  0  0  0
  2 16  1  0  0  0  0
  3  1  2  0  0  0  0
  3  7  1  0  0  0  0
  4  2  1  0  0  0  0
  4 18  1  0  0  0  0
  5 19  1  0  0  0  0
  5 20  1  0  0  0  0
  6  9  1  0  0  0  0
  6  2  2  0  0  0  0
  7  4  2  0  0  0  0
  8 11  2  0  0  0  0
  8  5  1  0  0  0  0
  9 21  1  0  0  0  0
  9  5  1  0  0  0  0
 10  7  1  0  0  0  0
 10 14  2  0  0  0  0
 12  8  1  0  0  0  0
 13 10  2  0  0  0  0
 15  1  1  0  0  0  0
 17  3  1  0  0  0  0
 22 12  1  0  0  0  0
M  END
>  <HBA>
3

>  <HBD>
2

>  <TPSA>
95.15

>  <cid>
12095

>  <dipole>
6.27

>  <excitation_energy_1>
3.763

>  <excitation_energy_2>
3.969

>  <excitation_energy_3>
4.304

>  <excitation_energy_4>
4.486

>  <homo_energy>
-6.814

>  <homo_lumo_gap>
4.435

>  <logP>
1.688

>  <lumo_energy>
-2.378

>  <melting_point>
154.16

>  <molecular_refractivity>
51.15

>  <oscillator_strength_1>
0.0002

>  <oscillator_strength_2>
0.3407

>  <oscillator_strength_3>
0.0004

>  <oscillator_strength_4>
0.0028

>  <open_babel_can_smiles>
OC(=O)CNc1ccc(cc1)N(=O)=O

>  <mulliken_charges>
22
1   -0.196868
2   -0.188272
3   -0.15309
4   -0.161246
5   -0.258379
6   0.357284
7   0.277988
8   0.59884
9   -0.69655
10   0.373882
11   -0.444417
12   -0.559694
13   -0.401625
14   -0.399767
15   0.140976
16   0.167365
17   0.187107
18   0.19116
19   0.198357
20   0.199939
21   0.337747
22   0.429263

>  <lowdin_charges>
22
1   -0.187951
2   -0.191776
3   -0.12268
4   -0.119696
5   -0.2427
6   0.068311
7   -0.016537
8   0.173013
9   -0.303285
10   0.306604
11   -0.239075
12   -0.343578
13   -0.252481
14   -0.251897
15   0.1634
16   0.17509
17   0.188593
18   0.192018
19   0.183233
20   0.175919
21   0.286044
22   0.359433

$$$$

