PCCDB-ID:  1295
public computational chemistry database (PCCDB) project, http://pccdb.org

 37 39  0  0  1  0  0  0  0  0999 V2000
   -1.2488   -1.6815    0.6887 C   0  0  0  0  0  0  0  0  0  0  0  0
    4.3189    0.6703    4.7139 C   0  0  0  0  0  0  0  0  0  0  0  0
   -0.4056   -2.1682    1.6894 C   0  0  0  0  0  0  0  0  0  0  0  0
   -0.7382   -0.8073   -0.2716 C   0  0  0  0  0  0  0  0  0  0  0  0
    3.7482    1.6011    3.8437 C   0  0  0  0  0  0  0  0  0  0  0  0
    4.4584   -0.6546    4.3014 C   0  0  0  0  0  0  0  0  0  0  0  0
    5.6970   -1.7420   -1.5212 C   0  0  0  0  0  0  0  0  0  0  0  0
    0.9351   -1.7836    1.7298 C   0  0  0  0  0  0  0  0  0  0  0  0
    0.6042   -0.4264   -0.2297 C   0  0  0  0  0  0  0  0  0  0  0  0
    3.3224    1.2045    2.5767 C   0  0  0  0  0  0  0  0  0  0  0  0
    4.0289   -1.0470    3.0313 C   0  0  0  0  0  0  0  0  0  0  0  0
    5.2954   -1.1935   -0.1232 C   0  0  0  0  0  0  0  0  0  0  0  0
    4.4439   -2.4968   -2.0025 C   0  0  0  0  0  0  0  0  0  0  0  0
    1.4624   -0.9080    0.7698 C   0  0  0  0  0  0  0  0  0  0  0  0
    3.4517   -0.1244    2.1463 C   0  0  0  0  0  0  0  0  0  0  0  0
    3.8018   -1.5754    0.0464 C   0  0  1  0  0  0  0  0  0  0  0  0
    2.9397   -0.5049    0.7598 C   0  0  0  0  0  0  0  0  0  0  0  0
    3.3617   -1.7668   -1.3409 N   0  0  0  0  0  0  0  0  0  0  0  0
   -2.2941   -1.9776    0.6606 H   0  0  0  0  0  0  0  0  0  0  0  0
    4.6545    0.9756    5.7014 H   0  0  0  0  0  0  0  0  0  0  0  0
   -0.7933   -2.8453    2.4464 H   0  0  0  0  0  0  0  0  0  0  0  0
   -1.3846   -0.4178   -1.0541 H   0  0  0  0  0  0  0  0  0  0  0  0
    3.6372    2.6382    4.1496 H   0  0  0  0  0  0  0  0  0  0  0  0
    4.9052   -1.3886    4.9671 H   0  0  0  0  0  0  0  0  0  0  0  0
    6.5771   -2.3914   -1.4851 H   0  0  0  0  0  0  0  0  0  0  0  0
    5.9235   -0.9171   -2.2035 H   0  0  0  0  0  0  0  0  0  0  0  0
    1.5725   -2.1536    2.5277 H   0  0  0  0  0  0  0  0  0  0  0  0
    0.9980    0.2491   -0.9847 H   0  0  0  0  0  0  0  0  0  0  0  0
    2.8767    1.9360    1.9063 H   0  0  0  0  0  0  0  0  0  0  0  0
    4.1552   -2.0831    2.7303 H   0  0  0  0  0  0  0  0  0  0  0  0
    5.4152   -0.1059   -0.0809 H   0  0  0  0  0  0  0  0  0  0  0  0
    5.9039   -1.6132    0.6822 H   0  0  0  0  0  0  0  0  0  0  0  0
    4.5011   -3.5578   -1.6928 H   0  0  0  0  0  0  0  0  0  0  0  0
    4.3176   -2.4745   -3.0907 H   0  0  0  0  0  0  0  0  0  0  0  0
    3.7382   -2.5214    0.6174 H   0  0  0  0  0  0  0  0  0  0  0  0
    3.0182    0.3890    0.1284 H   0  0  0  0  0  0  0  0  0  0  0  0
    2.4728   -2.2595   -1.3886 H   0  0  0  0  0  0  0  0  0  0  0  0
  1  3  2  0  0  0  0
  2 20  1  0  0  0  0
  3  8  1  0  0  0  0
  3 21  1  0  0  0  0
  4  9  2  0  0  0  0
  4  1  1  0  0  0  0
  5 23  1  0  0  0  0
  5  2  2  0  0  0  0
  6  2  1  0  0  0  0
  6 24  1  0  0  0  0
  7 25  1  0  0  0  0
  7 12  1  0  0  0  0
  8 27  1  0  0  0  0
  9 14  1  0  0  0  0
 10  5  1  0  0  0  0
 11  6  2  0  0  0  0
 12 31  1  0  0  0  0
 12 16  1  0  0  0  0
 12 32  1  0  0  0  0
 13 33  1  0  0  0  0
 13  7  1  0  0  0  0
 13 18  1  0  0  0  0
 14  8  2  0  0  0  0
 15 10  2  0  0  0  0
 15 11  1  0  0  0  0
 16 35  1  1  0  0  0
 16 17  1  0  0  0  0
 17 14  1  0  0  0  0
 17 15  1  0  0  0  0
 18 16  1  0  0  0  0
 19  1  1  0  0  0  0
 22  4  1  0  0  0  0
 26  7  1  0  0  0  0
 28  9  1  0  0  0  0
 29 10  1  0  0  0  0
 30 11  1  0  0  0  0
 34 13  1  0  0  0  0
 36 17  1  0  0  0  0
 37 18  1  0  0  0  0
M  END
>  <HBA>
1

>  <HBD>
1

>  <TPSA>
12.03

>  <cid>
1295

>  <dipole>
0.78

>  <excitation_energy_1>
5.003

>  <excitation_energy_2>
5.125

>  <excitation_energy_3>
5.208

>  <excitation_energy_4>
5.253

>  <homo_energy>
-5.889

>  <homo_lumo_gap>
5.753

>  <logP>
3.899

>  <lumo_energy>
-0.136

>  <melting_point>
84.64

>  <molecular_refractivity>
79.73

>  <oscillator_strength_1>
0.0162

>  <oscillator_strength_2>
0.0041

>  <oscillator_strength_3>
0.0069

>  <oscillator_strength_4>
0.0142

>  <open_babel_can_smiles>
C1CN[C@@H](C1)C(c1ccccc1)c1ccccc1

>  <mulliken_charges>
37
1   -0.130755
2   -0.129515
3   -0.13139
4   -0.130458
5   -0.127131
6   -0.133952
7   -0.275328
8   -0.178841
9   -0.18482
10   -0.178249
11   -0.189334
12   -0.276681
13   -0.121087
14   0.152144
15   0.173953
16   0.050434
17   -0.266967
18   -0.575213
19   0.126642
20   0.127575
21   0.127365
22   0.127671
23   0.128696
24   0.127548
25   0.134696
26   0.14644
27   0.131081
28   0.134901
29   0.127111
30   0.126981
31   0.146716
32   0.140138
33   0.110629
34   0.137471
35   0.107422
36   0.140604
37   0.303505

>  <lowdin_charges>
37
1   -0.160544
2   -0.159787
3   -0.156747
4   -0.159642
5   -0.152798
6   -0.157783
7   -0.285773
8   -0.168455
9   -0.169236
10   -0.163481
11   -0.174173
12   -0.286443
13   -0.200194
14   -0.003609
15   0.003937
16   -0.062969
17   -0.127347
18   -0.367745
19   0.154902
20   0.15632
21   0.157236
22   0.157747
23   0.156132
24   0.157835
25   0.145779
26   0.15036
27   0.161184
28   0.160601
29   0.157517
30   0.153645
31   0.149035
32   0.150061
33   0.113676
34   0.141804
35   0.114939
36   0.15568
37   0.258336

$$$$

