PCCDB-ID:  6557
public computational chemistry database (PCCDB) project, http://pccdb.org

 13 12  0  0  0  0  0  0  0  0999 V2000
    2.5965   -0.4640    1.0107 C   0  0  0  0  0  0  0  0  0  0  0  0
    2.4769    2.0578   -1.6811 C   0  0  0  0  0  0  0  0  0  0  0  0
    4.5209    1.2540   -0.5049 C   0  0  0  0  0  0  0  0  0  0  0  0
    2.1796    0.3778    0.0546 C   0  0  0  0  0  0  0  0  0  0  0  0
    3.0313    1.2628   -0.7498 C   0  0  0  0  0  0  0  0  0  0  0  0
    1.8939   -1.0849    1.5586 H   0  0  0  0  0  0  0  0  0  0  0  0
    3.6434   -0.5660    1.2821 H   0  0  0  0  0  0  0  0  0  0  0  0
    3.0750    2.7252   -2.2952 H   0  0  0  0  0  0  0  0  0  0  0  0
    1.4041    2.0646   -1.8577 H   0  0  0  0  0  0  0  0  0  0  0  0
    5.0350    1.9554   -1.1681 H   0  0  0  0  0  0  0  0  0  0  0  0
    4.9443    0.2554   -0.6714 H   0  0  0  0  0  0  0  0  0  0  0  0
    4.7540    1.5312    0.5310 H   0  0  0  0  0  0  0  0  0  0  0  0
    1.1137    0.4309   -0.1675 H   0  0  0  0  0  0  0  0  0  0  0  0
  1  7  1  0  0  0  0
  1  6  1  0  0  0  0
  2  5  2  0  0  0  0
  3 12  1  0  0  0  0
  4  1  2  0  0  0  0
  5  3  1  0  0  0  0
  5  4  1  0  0  0  0
  8  2  1  0  0  0  0
  9  2  1  0  0  0  0
 10  3  1  0  0  0  0
 11  3  1  0  0  0  0
 13  4  1  0  0  0  0
M  END
>  <HBA>
0

>  <HBD>
0

>  <TPSA>
0.0

>  <cid>
6557

>  <dipole>
0.23

>  <excitation_energy_1>
5.503

>  <excitation_energy_2>
5.873

>  <excitation_energy_3>
6.286

>  <excitation_energy_4>
6.346

>  <homo_energy>
-6.153

>  <homo_lumo_gap>
5.63

>  <logP>
1.748

>  <lumo_energy>
-0.522

>  <melting_point>
-63.68

>  <molecular_refractivity>
25.2

>  <oscillator_strength_1>
0.5577

>  <oscillator_strength_2>
0.001

>  <oscillator_strength_3>
0.0165

>  <oscillator_strength_4>
0.0222

>  <open_babel_can_smiles>
C=CC(=C)C

>  <mulliken_charges>
13
1   -0.35438
2   -0.409313
3   -0.52831
4   -0.100202
5   0.233815
6   0.142688
7   0.140493
8   0.138065
9   0.139543
10   0.152856
11   0.160246
12   0.160262
13   0.124236

>  <lowdin_charges>
13
1   -0.340209
2   -0.345665
3   -0.441879
4   -0.145101
5   0.010209
6   0.162959
7   0.156975
8   0.158707
9   0.155023
10   0.159341
11   0.158959
12   0.158484
13   0.152196

$$$$

