PCCDB-ID:  19188
public computational chemistry database (PCCDB) project, http://pccdb.org

 19 19  0  0  0  0  0  0  0  0999 V2000
   -2.8432    0.4482    0.2358 C   0  0  0  0  0  0  0  0  0  0  0  0
   -2.0102    1.5257   -0.0560 C   0  0  0  0  0  0  0  0  0  0  0  0
   -2.3085   -0.8440    0.2634 C   0  0  0  0  0  0  0  0  0  0  0  0
   -0.6505    1.3312   -0.3209 C   0  0  0  0  0  0  0  0  0  0  0  0
   -0.9588   -1.0552    0.0018 C   0  0  0  0  0  0  0  0  0  0  0  0
    2.0918    0.7714   -0.8937 C   0  0  0  0  0  0  0  0  0  0  0  0
   -0.1311    0.0349   -0.2909 C   0  0  0  0  0  0  0  0  0  0  0  0
    3.4676    0.1598   -1.1701 C   0  0  0  0  0  0  0  0  0  0  0  0
    4.4089    0.8483   -1.4727 O   0  0  0  0  0  0  0  0  0  0  0  0
    3.5408   -1.1767   -1.0554 O   0  0  0  0  0  0  0  0  0  0  0  0
    1.1915   -0.2671   -0.5322 O   0  0  0  0  0  0  0  0  0  0  0  0
   -3.8974    0.6097    0.4396 H   0  0  0  0  0  0  0  0  0  0  0  0
   -2.4117    2.5350   -0.0796 H   0  0  0  0  0  0  0  0  0  0  0  0
   -2.9463   -1.6940    0.4898 H   0  0  0  0  0  0  0  0  0  0  0  0
   -0.0196    2.1841   -0.5439 H   0  0  0  0  0  0  0  0  0  0  0  0
   -0.5291   -2.0521    0.0198 H   0  0  0  0  0  0  0  0  0  0  0  0
    1.7578    1.2930   -1.7996 H   0  0  0  0  0  0  0  0  0  0  0  0
    2.1982    1.5092   -0.0889 H   0  0  0  0  0  0  0  0  0  0  0  0
    2.6545   -1.5029   -0.8024 H   0  0  0  0  0  0  0  0  0  0  0  0
  1  3  1  0  0  0  0
  1 12  1  0  0  0  0
  2  1  2  0  0  0  0
  3 14  1  0  0  0  0
  4  7  2  0  0  0  0
  4  2  1  0  0  0  0
  5 16  1  0  0  0  0
  5  3  2  0  0  0  0
  6 11  1  0  0  0  0
  6 18  1  0  0  0  0
  7  5  1  0  0  0  0
  8 10  1  0  0  0  0
  8  6  1  0  0  0  0
  9  8  2  0  0  0  0
 10 19  1  0  0  0  0
 11  7  1  0  0  0  0
 13  2  1  0  0  0  0
 15  4  1  0  0  0  0
 17  6  1  0  0  0  0
M  END
>  <HBA>
3

>  <HBD>
1

>  <TPSA>
46.53

>  <cid>
19188

>  <dipole>
4.51

>  <excitation_energy_1>
5.139

>  <excitation_energy_2>
5.771

>  <excitation_energy_3>
5.797

>  <excitation_energy_4>
5.826

>  <homo_energy>
-6.534

>  <homo_lumo_gap>
6.085

>  <logP>
1.15

>  <lumo_energy>
-0.449

>  <melting_point>
84.91

>  <molecular_refractivity>
39.51

>  <oscillator_strength_1>
0.0256

>  <oscillator_strength_2>
0.0423

>  <oscillator_strength_3>
0.0147

>  <oscillator_strength_4>
0.0022

>  <open_babel_can_smiles>
OC(=O)COc1ccccc1

>  <mulliken_charges>
19
1   -0.128506
2   -0.138196
3   -0.132764
4   -0.190773
5   -0.174473
6   -0.132676
7   0.385977
8   0.576995
9   -0.443672
10   -0.56416
11   -0.564284
12   0.134654
13   0.139258
14   0.139012
15   0.143223
16   0.137786
17   0.188978
18   0.18928
19   0.434342

>  <lowdin_charges>
19
1   -0.168173
2   -0.14081
3   -0.142946
4   -0.209393
5   -0.181344
6   -0.170237
7   0.105453
8   0.186768
9   -0.241496
10   -0.341941
11   -0.221424
12   0.159813
13   0.161773
14   0.163729
15   0.167017
16   0.165344
17   0.171542
18   0.171918
19   0.364405

$$$$

