PCCDB-ID:  1979
public computational chemistry database (PCCDB) project, http://pccdb.org

 27 28  0  0  1  0  0  0  0  0999 V2000
    1.1193    0.6300    0.8444 C   0  0  0  0  0  0  0  0  0  0  0  0
    6.7980   -0.7716   -0.8566 C   0  0  0  0  0  0  0  0  0  0  0  0
    5.7183   -1.4242    1.3164 C   0  0  0  0  0  0  0  0  0  0  0  0
    7.5563    0.3586   -0.0879 C   0  0  0  0  0  0  0  0  0  0  0  0
    6.5442   -0.2851    1.9931 C   0  0  0  0  0  0  0  0  0  0  0  0
    5.5000    1.3755    0.6065 C   0  0  0  0  0  0  0  0  0  0  0  0
    2.4274    1.0097    0.1888 C   0  0  0  0  0  0  0  0  0  0  0  0
    5.4495   -1.0144   -0.1460 C   0  0  1  0  0  0  0  0  0  0  0  0
    4.6754    0.3092   -0.1764 C   0  0  1  0  0  0  0  0  0  0  0  0
    6.7855    0.8384    1.0709 N   0  0  2  0  0  0  0  0  0  0  0  0
    2.6178    2.0095   -0.4699 O   0  0  0  0  0  0  0  0  0  0  0  0
    3.3763    0.0756    0.4307 O   0  0  0  0  0  0  0  0  0  0  0  0
    1.2561    0.5257    1.9259 H   0  0  0  0  0  0  0  0  0  0  0  0
    0.7735   -0.3373    0.4653 H   0  0  0  0  0  0  0  0  0  0  0  0
    0.3732    1.3979    0.6378 H   0  0  0  0  0  0  0  0  0  0  0  0
    7.3764   -1.7032   -0.8639 H   0  0  0  0  0  0  0  0  0  0  0  0
    6.6316   -0.4932   -1.9049 H   0  0  0  0  0  0  0  0  0  0  0  0
    4.7687   -1.5865    1.8358 H   0  0  0  0  0  0  0  0  0  0  0  0
    6.2640   -2.3753    1.3360 H   0  0  0  0  0  0  0  0  0  0  0  0
    7.7491    1.2172   -0.7411 H   0  0  0  0  0  0  0  0  0  0  0  0
    8.5278    0.0057    0.2758 H   0  0  0  0  0  0  0  0  0  0  0  0
    7.5195   -0.6509    2.3336 H   0  0  0  0  0  0  0  0  0  0  0  0
    6.0231    0.1094    2.8728 H   0  0  0  0  0  0  0  0  0  0  0  0
    4.9282    1.7131    1.4778 H   0  0  0  0  0  0  0  0  0  0  0  0
    5.6888    2.2513   -0.0224 H   0  0  0  0  0  0  0  0  0  0  0  0
    4.8732   -1.7883   -0.6646 H   0  0  0  0  0  0  0  0  0  0  0  0
    4.4985    0.6333   -1.2059 H   0  0  0  0  0  0  0  0  0  0  0  0
  1 13  1  0  0  0  0
  2  8  1  0  0  0  0
  2  4  1  0  0  0  0
  3 19  1  0  0  0  0
  3 18  1  0  0  0  0
  3  5  1  0  0  0  0
  4 21  1  0  0  0  0
  5 22  1  0  0  0  0
  5 23  1  0  0  0  0
  6 10  1  0  0  0  0
  6 24  1  0  0  0  0
  7 12  1  0  0  0  0
  7  1  1  0  0  0  0
  8 26  1  6  0  0  0
  8  3  1  0  0  0  0
  9 27  1  6  0  0  0
  9  8  1  0  0  0  0
  9 12  1  0  0  0  0
  9  6  1  0  0  0  0
 10  4  1  6  0  0  0
 10  5  1  0  0  0  0
 11  7  2  0  0  0  0
 14  1  1  0  0  0  0
 15  1  1  0  0  0  0
 16  2  1  0  0  0  0
 17  2  1  0  0  0  0
 20  4  1  0  0  0  0
 25  6  1  0  0  0  0
M  END
>  <HBA>
3

>  <HBD>
0

>  <TPSA>
29.54

>  <cid>
1979

>  <dipole>
2.41

>  <excitation_energy_1>
5.048

>  <excitation_energy_2>
5.225

>  <excitation_energy_3>
5.545

>  <excitation_energy_4>
5.645

>  <homo_energy>
-5.657

>  <homo_lumo_gap>
6.041

>  <logP>
0.582

>  <lumo_energy>
0.384

>  <melting_point>
31.68

>  <molecular_refractivity>
49.24

>  <oscillator_strength_1>
0.0096

>  <oscillator_strength_2>
0.0119

>  <oscillator_strength_3>
0.0138

>  <oscillator_strength_4>
0.0276

>  <open_babel_can_smiles>
CC(=O)O[C@H]1CN2CC[C@H]1CC2

>  <mulliken_charges>
27
1   -0.524909
2   -0.291124
3   -0.288054
4   -0.148567
5   -0.147437
6   -0.167029
7   0.602318
8   -0.12353
9   0.134902
10   -0.372775
11   -0.471239
12   -0.478389
13   0.179623
14   0.180649
15   0.182523
16   0.139194
17   0.138104
18   0.152016
19   0.133926
20   0.144625
21   0.143088
22   0.140803
23   0.143479
24   0.151627
25   0.159635
26   0.133632
27   0.152909

>  <lowdin_charges>
27
1   -0.463958
2   -0.299957
3   -0.303768
4   -0.213338
5   -0.211898
6   -0.221411
7   0.197133
8   -0.137008
9   -0.014991
10   -0.181268
11   -0.266662
12   -0.198705
13   0.174938
14   0.176891
15   0.176313
16   0.147603
17   0.144149
18   0.15199
19   0.144506
20   0.147716
21   0.146041
22   0.145
23   0.14684
24   0.15527
25   0.157312
26   0.150379
27   0.150883

$$$$

