PCCDB-ID:  26312
public computational chemistry database (PCCDB) project, http://pccdb.org

 18 18  0  0  0  0  0  0  0  0999 V2000
    0.8729    0.1025   -0.2621 C   0  0  0  0  0  0  0  0  0  0  0  0
    3.1194    0.0656   -1.4061 C   0  0  0  0  0  0  0  0  0  0  0  0
    2.8120   -1.1622    0.8071 C   0  0  0  0  0  0  0  0  0  0  0  0
    2.8621    1.2621    0.8274 C   0  0  0  0  0  0  0  0  0  0  0  0
    3.4617   -0.6082    2.0683 C   0  0  0  0  0  0  0  0  0  0  0  0
    2.3952    0.0547   -0.0492 C   0  0  0  0  0  0  0  0  0  0  0  0
    3.9202   -1.2240    2.9946 O   0  0  0  0  0  0  0  0  0  0  0  0
    3.4665    0.7524    2.0261 O   0  0  0  0  0  0  0  0  0  0  0  0
    0.5312   -0.7636   -0.8407 H   0  0  0  0  0  0  0  0  0  0  0  0
    0.5787    1.0064   -0.8094 H   0  0  0  0  0  0  0  0  0  0  0  0
    0.3377    0.1005    0.6949 H   0  0  0  0  0  0  0  0  0  0  0  0
    2.8316   -0.8023   -2.0107 H   0  0  0  0  0  0  0  0  0  0  0  0
    4.2078    0.0389   -1.2752 H   0  0  0  0  0  0  0  0  0  0  0  0
    2.8722    0.9679   -1.9787 H   0  0  0  0  0  0  0  0  0  0  0  0
    1.9668   -1.7938    1.1009 H   0  0  0  0  0  0  0  0  0  0  0  0
    3.5336   -1.8152    0.3046 H   0  0  0  0  0  0  0  0  0  0  0  0
    2.0274    1.9054    1.1257 H   0  0  0  0  0  0  0  0  0  0  0  0
    3.6087    1.8801    0.3175 H   0  0  0  0  0  0  0  0  0  0  0  0
  1  6  1  0  0  0  0
  1 11  1  0  0  0  0
  2 13  1  0  0  0  0
  2  6  1  0  0  0  0
  3 15  1  0  0  0  0
  3  5  1  0  0  0  0
  4 17  1  0  0  0  0
  4  8  1  0  0  0  0
  5  7  2  0  0  0  0
  6  3  1  0  0  0  0
  6  4  1  0  0  0  0
  8  5  1  0  0  0  0
  9  1  1  0  0  0  0
 10  1  1  0  0  0  0
 12  2  1  0  0  0  0
 14  2  1  0  0  0  0
 16  3  1  0  0  0  0
 18  4  1  0  0  0  0
M  END
>  <HBA>
2

>  <HBD>
0

>  <TPSA>
26.3

>  <cid>
26312

>  <dipole>
4.62

>  <excitation_energy_1>
5.698

>  <excitation_energy_2>
6.636

>  <excitation_energy_3>
7.204

>  <excitation_energy_4>
7.279

>  <homo_energy>
-7.154

>  <homo_lumo_gap>
7.581

>  <logP>
0.96

>  <lumo_energy>
0.427

>  <melting_point>
27.14

>  <molecular_refractivity>
29.87

>  <oscillator_strength_1>
0.0001

>  <oscillator_strength_2>
0.0102

>  <oscillator_strength_3>
0.0157

>  <oscillator_strength_4>
0.0122

>  <open_babel_can_smiles>
O=C1OCC(C1)(C)C

>  <mulliken_charges>
18
1   -0.465461
2   -0.465658
3   -0.404099
4   -0.049703
5   0.605112
6   0.085677
7   -0.453726
8   -0.442229
9   0.152357
10   0.148578
11   0.152117
12   0.152344
13   0.152102
14   0.148543
15   0.185518
16   0.185584
17   0.156458
18   0.156488

>  <lowdin_charges>
18
1   -0.444649
2   -0.442527
3   -0.317184
4   -0.133442
5   0.192895
6   -0.002904
7   -0.241113
8   -0.187136
9   0.154256
10   0.151673
11   0.152644
12   0.154144
13   0.150761
14   0.151599
15   0.177902
16   0.17839
17   0.151919
18   0.152772

$$$$

