PCCDB-ID:  18357
public computational chemistry database (PCCDB) project, http://pccdb.org

 24 26  0  0  0  0  0  0  0  0999 V2000
   -3.0351   -1.1653    0.0304 C   0  0  0  0  0  0  0  0  0  0  0  0
   -3.4650    0.1646    0.0365 C   0  0  0  0  0  0  0  0  0  0  0  0
   -1.6704   -1.4928    0.0110 C   0  0  0  0  0  0  0  0  0  0  0  0
   -2.5276    1.2063    0.0232 C   0  0  0  0  0  0  0  0  0  0  0  0
    3.0394   -1.1849   -0.0524 C   0  0  0  0  0  0  0  0  0  0  0  0
    1.6763   -1.4982   -0.0344 C   0  0  0  0  0  0  0  0  0  0  0  0
    2.5408    1.1908   -0.0530 C   0  0  0  0  0  0  0  0  0  0  0  0
    3.4925    0.1484   -0.0626 C   0  0  0  0  0  0  0  0  0  0  0  0
   -0.7381   -0.4609   -0.0022 C   0  0  0  0  0  0  0  0  0  0  0  0
    0.7422   -0.4683   -0.0251 C   0  0  0  0  0  0  0  0  0  0  0  0
   -1.1804    0.8797    0.0041 C   0  0  0  0  0  0  0  0  0  0  0  0
    1.1984    0.8645   -0.0338 C   0  0  0  0  0  0  0  0  0  0  0  0
    0.0121    1.7851   -0.0133 C   0  0  0  0  0  0  0  0  0  0  0  0
    4.8541    0.4365   -0.1385 N   0  0  0  0  0  0  0  0  0  0  0  0
    0.0228    3.0039   -0.0089 O   0  0  0  0  0  0  0  0  0  0  0  0
   -3.7718   -1.9646    0.0406 H   0  0  0  0  0  0  0  0  0  0  0  0
   -4.5279    0.3885    0.0511 H   0  0  0  0  0  0  0  0  0  0  0  0
   -1.3597   -2.5343    0.0061 H   0  0  0  0  0  0  0  0  0  0  0  0
   -2.8357    2.2483    0.0274 H   0  0  0  0  0  0  0  0  0  0  0  0
    3.7722   -1.9888   -0.0629 H   0  0  0  0  0  0  0  0  0  0  0  0
    1.3685   -2.5407   -0.0253 H   0  0  0  0  0  0  0  0  0  0  0  0
    2.8505    2.2333   -0.0622 H   0  0  0  0  0  0  0  0  0  0  0  0
    5.4737   -0.2874    0.2026 H   0  0  0  0  0  0  0  0  0  0  0  0
    5.1225    1.3528    0.1974 H   0  0  0  0  0  0  0  0  0  0  0  0
  1  2  1  0  0  0  0
  1 16  1  0  0  0  0
  2 17  1  0  0  0  0
  3  1  2  0  0  0  0
  4 19  1  0  0  0  0
  4  2  2  0  0  0  0
  5  6  2  0  0  0  0
  6 21  1  0  0  0  0
  6 10  1  0  0  0  0
  7 12  1  0  0  0  0
  8  7  2  0  0  0  0
  8  5  1  0  0  0  0
  9 11  2  0  0  0  0
  9  3  1  0  0  0  0
 10  9  1  0  0  0  0
 11  4  1  0  0  0  0
 12 10  2  0  0  0  0
 12 13  1  0  0  0  0
 13 15  2  0  0  0  0
 13 11  1  0  0  0  0
 14  8  1  0  0  0  0
 14 24  1  0  0  0  0
 14 23  1  0  0  0  0
 18  3  1  0  0  0  0
 20  5  1  0  0  0  0
 22  7  1  0  0  0  0
M  END
>  <HBA>
2

>  <HBD>
1

>  <TPSA>
43.09

>  <cid>
18357

>  <dipole>
3.73

>  <excitation_energy_1>
2.586

>  <excitation_energy_2>
3.192

>  <excitation_energy_3>
3.902

>  <excitation_energy_4>
4.295

>  <homo_energy>
-5.407

>  <homo_lumo_gap>
3.358

>  <logP>
3.061

>  <lumo_energy>
-2.049

>  <melting_point>
149.87

>  <molecular_refractivity>
59.71

>  <oscillator_strength_1>
0.0116

>  <oscillator_strength_2>
0.0

>  <oscillator_strength_3>
0.0167

>  <oscillator_strength_4>
0.0059

>  <open_babel_can_smiles>
Nc1ccc2c(c1)C(=O)c1c2cccc1

>  <mulliken_charges>
24
1   -0.127148
2   -0.137702
3   -0.198427
4   -0.177724
5   -0.177967
6   -0.200265
7   -0.230975
8   0.325194
9   0.082653
10   0.07153
11   0.042127
12   0.040242
13   0.3379
14   -0.791544
15   -0.467555
16   0.134719
17   0.134257
18   0.132046
19   0.153534
20   0.123495
21   0.134209
22   0.145938
23   0.323839
24   0.327624

>  <lowdin_charges>
24
1   -0.138041
2   -0.16111
3   -0.165722
4   -0.124968
5   -0.187879
6   -0.145888
7   -0.167131
8   0.065377
9   0.009956
10   -0.026718
11   -0.0535
12   -0.037157
13   0.151662
14   -0.483245
15   -0.226524
16   0.161309
17   0.158976
18   0.157637
19   0.170194
20   0.157109
21   0.158893
22   0.167256
23   0.27958
24   0.279935

$$$$

