PCCDB-ID:  11142
public computational chemistry database (PCCDB) project, http://pccdb.org

 26 26  0  0  1  0  0  0  0  0999 V2000
    0.9634    0.3932   -0.0087 C   0  0  0  0  0  0  0  0  0  0  0  0
    2.5479   -0.6788    1.6463 C   0  0  0  0  0  0  0  0  0  0  0  0
    5.1081   -4.7430   -0.6261 C   0  0  0  0  0  0  0  0  0  0  0  0
    5.0895   -2.2945   -0.7719 C   0  0  0  0  0  0  0  0  0  0  0  0
    2.9556   -3.5143   -0.2298 C   0  0  0  0  0  0  0  0  0  0  0  0
    4.4163   -1.1375   -0.8963 C   0  0  0  0  0  0  0  0  0  0  0  0
    2.2381   -2.4033   -1.0190 C   0  0  0  0  0  0  0  0  0  0  0  0
    2.4033   -0.0830    0.2387 C   0  0  0  0  0  0  0  0  0  0  0  0
    4.4311   -3.5852   -0.5621 C   0  0  0  0  0  0  0  0  0  0  0  0
    2.9119   -1.0121   -0.9104 C   0  0  1  0  0  0  0  0  0  0  0  0
    0.6557    1.1134    0.7586 H   0  0  0  0  0  0  0  0  0  0  0  0
    0.2489   -0.4386    0.0213 H   0  0  0  0  0  0  0  0  0  0  0  0
    0.8652    0.8821   -0.9855 H   0  0  0  0  0  0  0  0  0  0  0  0
    2.3123    0.0758    2.4063 H   0  0  0  0  0  0  0  0  0  0  0  0
    3.5669   -1.0352    1.8308 H   0  0  0  0  0  0  0  0  0  0  0  0
    1.8596   -1.5187    1.8003 H   0  0  0  0  0  0  0  0  0  0  0  0
    6.1766   -4.7668   -0.8273 H   0  0  0  0  0  0  0  0  0  0  0  0
    4.6185   -5.7017   -0.4763 H   0  0  0  0  0  0  0  0  0  0  0  0
    6.1770   -2.2954   -0.8306 H   0  0  0  0  0  0  0  0  0  0  0  0
    2.4754   -4.4807   -0.4233 H   0  0  0  0  0  0  0  0  0  0  0  0
    2.8524   -3.3255    0.8466 H   0  0  0  0  0  0  0  0  0  0  0  0
    4.9759   -0.2111   -1.0262 H   0  0  0  0  0  0  0  0  0  0  0  0
    1.1891   -2.3481   -0.7059 H   0  0  0  0  0  0  0  0  0  0  0  0
    2.2268   -2.6921   -2.0778 H   0  0  0  0  0  0  0  0  0  0  0  0
    3.0471    0.8094    0.1991 H   0  0  0  0  0  0  0  0  0  0  0  0
    2.6588   -0.4656   -1.8334 H   0  0  0  0  0  0  0  0  0  0  0  0
  1 12  1  0  0  0  0
  1  8  1  0  0  0  0
  1 11  1  0  0  0  0
  2 16  1  0  0  0  0
  2 15  1  0  0  0  0
  2 14  1  0  0  0  0
  3  9  2  0  0  0  0
  3 18  1  0  0  0  0
  4  9  1  0  0  0  0
  5 21  1  0  0  0  0
  6  4  2  0  0  0  0
  7 10  1  0  0  0  0
  7 23  1  0  0  0  0
  7  5  1  0  0  0  0
  8  2  1  0  0  0  0
  9  5  1  0  0  0  0
 10 26  1  6  0  0  0
 10  6  1  0  0  0  0
 10  8  1  0  0  0  0
 13  1  1  0  0  0  0
 17  3  1  0  0  0  0
 19  4  1  0  0  0  0
 20  5  1  0  0  0  0
 22  6  1  0  0  0  0
 24  7  1  0  0  0  0
 25  8  1  0  0  0  0
M  END
>  <HBA>
0

>  <HBD>
0

>  <TPSA>
0.0

>  <cid>
11142

>  <dipole>
0.72

>  <excitation_energy_1>
5.268

>  <excitation_energy_2>
5.395

>  <excitation_energy_3>
5.786

>  <excitation_energy_4>
5.912

>  <homo_energy>
-5.831

>  <homo_lumo_gap>
5.478

>  <logP>
3.165

>  <lumo_energy>
-0.354

>  <melting_point>
-14.03

>  <molecular_refractivity>
47.12

>  <oscillator_strength_1>
0.4615

>  <oscillator_strength_2>
0.085

>  <oscillator_strength_3>
0.0083

>  <oscillator_strength_4>
0.0004

>  <open_babel_can_smiles>
CC([C@@H]1CCC(=C)C=C1)C

>  <mulliken_charges>
26
1   -0.449494
2   -0.44931
3   -0.428194
4   -0.147297
5   -0.346506
6   -0.132627
7   -0.291049
8   -0.072698
9   0.230343
10   -0.10576
11   0.142288
12   0.143426
13   0.139484
14   0.139229
15   0.15228
16   0.141952
17   0.135217
18   0.133693
19   0.120734
20   0.137818
21   0.15763
22   0.121897
23   0.13465
24   0.142407
25   0.120987
26   0.128898

>  <lowdin_charges>
26
1   -0.448268
2   -0.450385
3   -0.354928
4   -0.171238
5   -0.275071
6   -0.164057
7   -0.275786
8   -0.119725
9   0.005561
10   -0.129165
11   0.150653
12   0.146385
13   0.14649
14   0.149379
15   0.152921
16   0.14589
17   0.15342
18   0.155327
19   0.152223
20   0.149644
21   0.153787
22   0.151544
23   0.143776
24   0.146624
25   0.137354
26   0.147646

$$$$

