PCCDB-ID:  7676
public computational chemistry database (PCCDB) project, http://pccdb.org

 21 21  0  0  1  0  0  0  0  0999 V2000
    1.7284    0.7069    2.1473 C   0  0  0  0  0  0  0  0  0  0  0  0
    3.0165    0.6167    1.3471 C   0  0  0  0  0  0  0  0  0  0  0  0
    5.4679   -2.6628    2.4663 C   0  0  0  0  0  0  0  0  0  0  0  0
    6.4142   -1.5768    2.9051 C   0  0  0  0  0  0  0  0  0  0  0  0
    5.0684   -2.4302    1.0013 C   0  0  0  0  0  0  0  0  0  0  0  0
    6.5137   -0.4276    2.2325 C   0  0  0  0  0  0  0  0  0  0  0  0
    4.7047   -0.9654    0.7771 C   0  0  1  0  0  0  0  0  0  0  0  0
    3.5677   -0.6865    1.5436 O   0  0  0  0  0  0  0  0  0  0  0  0
    5.7936   -0.0933    1.1111 O   0  0  0  0  0  0  0  0  0  0  0  0
    1.2801    1.7003    2.0359 H   0  0  0  0  0  0  0  0  0  0  0  0
    1.9256    0.5334    3.2102 H   0  0  0  0  0  0  0  0  0  0  0  0
    1.0058   -0.0415    1.8060 H   0  0  0  0  0  0  0  0  0  0  0  0
    3.7355    1.3798    1.6702 H   0  0  0  0  0  0  0  0  0  0  0  0
    2.8239    0.7757    0.2733 H   0  0  0  0  0  0  0  0  0  0  0  0
    4.5704   -2.6723    3.1003 H   0  0  0  0  0  0  0  0  0  0  0  0
    5.9354   -3.6499    2.5722 H   0  0  0  0  0  0  0  0  0  0  0  0
    7.0327   -1.7174    3.7865 H   0  0  0  0  0  0  0  0  0  0  0  0
    4.2172   -3.0538    0.7103 H   0  0  0  0  0  0  0  0  0  0  0  0
    5.9082   -2.6728    0.3398 H   0  0  0  0  0  0  0  0  0  0  0  0
    7.1973    0.3732    2.4976 H   0  0  0  0  0  0  0  0  0  0  0  0
    4.5165   -0.7414   -0.2824 H   0  0  0  0  0  0  0  0  0  0  0  0
  1 11  1  0  0  0  0
  2  8  1  0  0  0  0
  2 13  1  0  0  0  0
  2  1  1  0  0  0  0
  3 16  1  0  0  0  0
  3  4  1  0  0  0  0
  3 15  1  0  0  0  0
  4 17  1  0  0  0  0
  5  3  1  0  0  0  0
  6 20  1  0  0  0  0
  6  4  2  0  0  0  0
  7 21  1  6  0  0  0
  7  5  1  0  0  0  0
  7  9  1  0  0  0  0
  7  8  1  0  0  0  0
  9  6  1  0  0  0  0
 10  1  1  0  0  0  0
 12  1  1  0  0  0  0
 14  2  1  0  0  0  0
 18  5  1  0  0  0  0
 19  5  1  0  0  0  0
M  END
>  <HBA>
2

>  <HBD>
0

>  <TPSA>
18.46

>  <cid>
7676

>  <dipole>
0.52

>  <excitation_energy_1>
5.443

>  <excitation_energy_2>
5.911

>  <excitation_energy_3>
6.002

>  <excitation_energy_4>
6.116

>  <homo_energy>
-5.802

>  <homo_lumo_gap>
7.056

>  <logP>
1.673

>  <lumo_energy>
1.254

>  <melting_point>
-12.76

>  <molecular_refractivity>
35.34

>  <oscillator_strength_1>
0.0066

>  <oscillator_strength_2>
0.0034

>  <oscillator_strength_3>
0.0038

>  <oscillator_strength_4>
0.0097

>  <open_babel_can_smiles>
CCO[C@@H]1CCC=CO1

>  <mulliken_charges>
21
1   -0.455583
2   -0.013773
3   -0.291129
4   -0.161752
5   -0.302652
6   0.113321
7   0.345473
8   -0.47235
9   -0.477382
10   0.144358
11   0.160855
12   0.155446
13   0.146348
14   0.119915
15   0.163532
16   0.141117
17   0.124791
18   0.149128
19   0.150772
20   0.136716
21   0.122848

>  <lowdin_charges>
21
1   -0.447315
2   -0.125012
3   -0.269923
4   -0.237422
5   -0.290955
6   -0.057456
7   0.103114
8   -0.260583
9   -0.220196
10   0.15418
11   0.156817
12   0.156195
13   0.141384
14   0.125944
15   0.156839
16   0.150398
17   0.160226
18   0.158671
19   0.155201
20   0.159039
21   0.130853

$$$$

