PCCDB-ID:  16835
public computational chemistry database (PCCDB) project, http://pccdb.org

 24 23  0  0  1  0  0  0  0  0999 V2000
    1.1840   -2.7715    0.2150 C   0  0  0  0  0  0  0  0  0  0  0  0
    5.4716   -1.1837    0.1696 C   0  0  0  0  0  0  0  0  0  0  0  0
    4.2350   -2.1156   -3.4401 C   0  0  0  0  0  0  0  0  0  0  0  0
    2.6687   -2.7056   -0.1608 C   0  0  0  0  0  0  0  0  0  0  0  0
    3.0729   -1.3268   -0.7067 C   0  0  0  0  0  0  0  0  0  0  0  0
    4.5650   -1.1400   -1.0710 C   0  0  2  0  0  0  0  0  0  0  0  0
    5.0731   -2.1159   -2.1587 C   0  0  2  0  0  0  0  0  0  0  0  0
    6.4469   -1.8520   -2.4742 O   0  0  0  0  0  0  0  0  0  0  0  0
    0.9125   -3.7608    0.6005 H   0  0  0  0  0  0  0  0  0  0  0  0
    0.5449   -2.5648   -0.6525 H   0  0  0  0  0  0  0  0  0  0  0  0
    0.9383   -2.0333    0.9884 H   0  0  0  0  0  0  0  0  0  0  0  0
    5.1613   -0.4334    0.9065 H   0  0  0  0  0  0  0  0  0  0  0  0
    6.5118   -0.9931   -0.1058 H   0  0  0  0  0  0  0  0  0  0  0  0
    5.4372   -2.1652    0.6573 H   0  0  0  0  0  0  0  0  0  0  0  0
    3.2183   -2.4853   -3.2717 H   0  0  0  0  0  0  0  0  0  0  0  0
    4.7125   -2.7546   -4.1896 H   0  0  0  0  0  0  0  0  0  0  0  0
    4.1563   -1.1013   -3.8559 H   0  0  0  0  0  0  0  0  0  0  0  0
    2.8847   -3.4839   -0.9053 H   0  0  0  0  0  0  0  0  0  0  0  0
    3.2739   -2.9526    0.7208 H   0  0  0  0  0  0  0  0  0  0  0  0
    2.8130   -0.5655    0.0432 H   0  0  0  0  0  0  0  0  0  0  0  0
    2.4512   -1.0997   -1.5835 H   0  0  0  0  0  0  0  0  0  0  0  0
    4.6504   -0.1292   -1.5070 H   0  0  0  0  0  0  0  0  0  0  0  0
    5.0933   -3.1317   -1.7459 H   0  0  0  0  0  0  0  0  0  0  0  0
    6.4828   -0.9616   -2.8615 H   0  0  0  0  0  0  0  0  0  0  0  0
  1  9  1  0  0  0  0
  1 11  1  0  0  0  0
  2 14  1  0  0  0  0
  2 12  1  0  0  0  0
  3 15  1  0  0  0  0
  3  7  1  0  0  0  0
  4  1  1  0  0  0  0
  4 19  1  0  0  0  0
  5  4  1  0  0  0  0
  5 20  1  0  0  0  0
  6 22  1  6  0  0  0
  6  5  1  0  0  0  0
  6  2  1  0  0  0  0
  7 23  1  1  0  0  0
  7  6  1  0  0  0  0
  8  7  1  0  0  0  0
 10  1  1  0  0  0  0
 13  2  1  0  0  0  0
 16  3  1  0  0  0  0
 17  3  1  0  0  0  0
 18  4  1  0  0  0  0
 21  5  1  0  0  0  0
 24  8  1  0  0  0  0
M  END
>  <HBA>
1

>  <HBD>
1

>  <TPSA>
20.23

>  <cid>
16835

>  <dipole>
1.56

>  <excitation_energy_1>
6.415

>  <excitation_energy_2>
7.032

>  <excitation_energy_3>
7.199

>  <excitation_energy_4>
7.241

>  <homo_energy>
-7.031

>  <homo_lumo_gap>
8.947

>  <logP>
1.803

>  <lumo_energy>
1.916

>  <melting_point>
-8.61

>  <molecular_refractivity>
36.92

>  <oscillator_strength_1>
0.0082

>  <oscillator_strength_2>
0.0042

>  <oscillator_strength_3>
0.01

>  <oscillator_strength_4>
0.0403

>  <open_babel_can_smiles>
CCC[C@H]([C@H](O)C)C

>  <mulliken_charges>
24
1   -0.442071
2   -0.447282
3   -0.468315
4   -0.258156
5   -0.260414
6   -0.090891
7   0.146391
8   -0.624669
9   0.142784
10   0.14065
11   0.142556
12   0.134172
13   0.158365
14   0.141923
15   0.149037
16   0.158742
17   0.130523
18   0.135449
19   0.138911
20   0.128002
21   0.129565
22   0.100696
23   0.134624
24   0.379406

>  <lowdin_charges>
24
1   -0.444397
2   -0.448494
3   -0.462397
4   -0.27903
5   -0.28082
6   -0.139544
7   -0.000928
8   -0.463249
9   0.149396
10   0.146231
11   0.147461
12   0.146269
13   0.15692
14   0.146426
15   0.153474
16   0.160367
17   0.142048
18   0.140151
19   0.143329
20   0.142334
21   0.14043
22   0.128169
23   0.140881
24   0.334976

$$$$

