PCCDB-ID:  14581
public computational chemistry database (PCCDB) project, http://pccdb.org

 28 29  0  0  0  0  0  0  0  0999 V2000
    1.7292   -0.8021    0.9820 C   0  0  0  0  0  0  0  0  0  0  0  0
    3.2268   -5.0855   -7.3863 C   0  0  0  0  0  0  0  0  0  0  0  0
    2.3368   -4.4243   -6.5383 C   0  0  0  0  0  0  0  0  0  0  0  0
    4.5921   -4.8131   -7.2735 C   0  0  0  0  0  0  0  0  0  0  0  0
    2.7895   -3.5079   -5.5905 C   0  0  0  0  0  0  0  0  0  0  0  0
    5.0592   -3.9112   -6.3223 C   0  0  0  0  0  0  0  0  0  0  0  0
    4.4850   -0.5194   -2.9459 C   0  0  0  0  0  0  0  0  0  0  0  0
    3.2110   -2.5309   -2.5881 C   0  0  0  0  0  0  0  0  0  0  0  0
    3.9917    0.0103   -1.7625 C   0  0  0  0  0  0  0  0  0  0  0  0
    2.6912   -1.9909   -1.4082 C   0  0  0  0  0  0  0  0  0  0  0  0
    4.1655   -3.2435   -5.4631 C   0  0  0  0  0  0  0  0  0  0  0  0
    4.1050   -1.8024   -3.3827 C   0  0  0  0  0  0  0  0  0  0  0  0
    3.0799   -0.7168   -0.9846 C   0  0  0  0  0  0  0  0  0  0  0  0
    4.6801   -2.3138   -4.5585 N   0  0  0  0  0  0  0  0  0  0  0  0
    2.6363   -0.0972    0.1533 O   0  0  0  0  0  0  0  0  0  0  0  0
    1.5162   -0.1421    1.8251 H   0  0  0  0  0  0  0  0  0  0  0  0
    2.1651   -1.7383    1.3571 H   0  0  0  0  0  0  0  0  0  0  0  0
    0.7920   -1.0299    0.4556 H   0  0  0  0  0  0  0  0  0  0  0  0
    2.8641   -5.7967   -8.1225 H   0  0  0  0  0  0  0  0  0  0  0  0
    1.2688   -4.6109   -6.6201 H   0  0  0  0  0  0  0  0  0  0  0  0
    5.3044   -5.3135   -7.9247 H   0  0  0  0  0  0  0  0  0  0  0  0
    2.0780   -2.9792   -4.9663 H   0  0  0  0  0  0  0  0  0  0  0  0
    6.1266   -3.7190   -6.2324 H   0  0  0  0  0  0  0  0  0  0  0  0
    5.1754    0.0661   -3.5489 H   0  0  0  0  0  0  0  0  0  0  0  0
    2.9278   -3.5370   -2.8774 H   0  0  0  0  0  0  0  0  0  0  0  0
    4.2905    0.9986   -1.4270 H   0  0  0  0  0  0  0  0  0  0  0  0
    1.9991   -2.5867   -0.8238 H   0  0  0  0  0  0  0  0  0  0  0  0
    5.6089   -1.9768   -4.7674 H   0  0  0  0  0  0  0  0  0  0  0  0
  1 17  1  0  0  0  0
  1 16  1  0  0  0  0
  2  4  2  0  0  0  0
  2  3  1  0  0  0  0
  3  5  2  0  0  0  0
  4  6  1  0  0  0  0
  5 11  1  0  0  0  0
  5 22  1  0  0  0  0
  6 23  1  0  0  0  0
  6 11  2  0  0  0  0
  7  9  1  0  0  0  0
  8 10  2  0  0  0  0
  9 26  1  0  0  0  0
  9 13  2  0  0  0  0
 10 13  1  0  0  0  0
 10 27  1  0  0  0  0
 11 14  1  0  0  0  0
 12  7  2  0  0  0  0
 12  8  1  0  0  0  0
 13 15  1  0  0  0  0
 14 12  1  0  0  0  0
 15  1  1  0  0  0  0
 18  1  1  0  0  0  0
 19  2  1  0  0  0  0
 20  3  1  0  0  0  0
 21  4  1  0  0  0  0
 24  7  1  0  0  0  0
 25  8  1  0  0  0  0
 28 14  1  0  0  0  0
M  END
>  <HBA>
1

>  <HBD>
1

>  <TPSA>
21.26

>  <cid>
14581

>  <dipole>
0.86

>  <excitation_energy_1>
3.976

>  <excitation_energy_2>
4.145

>  <excitation_energy_3>
4.171

>  <excitation_energy_4>
4.426

>  <homo_energy>
-4.819

>  <homo_lumo_gap>
4.778

>  <logP>
3.512

>  <lumo_energy>
-0.041

>  <melting_point>
83.55

>  <molecular_refractivity>
62.48

>  <oscillator_strength_1>
0.0259

>  <oscillator_strength_2>
0.308

>  <oscillator_strength_3>
0.0275

>  <oscillator_strength_4>
0.1432

>  <open_babel_can_smiles>
COc1ccc(cc1)Nc1ccccc1

>  <mulliken_charges>
28
1   -0.212831
2   -0.137033
3   -0.140134
4   -0.132022
5   -0.179518
6   -0.195905
7   -0.190593
8   -0.18096
9   -0.17658
10   -0.207071
11   0.372711
12   0.358347
13   0.373283
14   -0.799673
15   -0.511209
16   0.167785
17   0.149473
18   0.149104
19   0.121807
20   0.126243
21   0.1259
22   0.14067
23   0.116171
24   0.124048
25   0.146253
26   0.138151
27   0.131804
28   0.321776

>  <lowdin_charges>
28
1   -0.278828
2   -0.186174
3   -0.144948
4   -0.148603
5   -0.201951
6   -0.198507
7   -0.180797
8   -0.180164
9   -0.172471
10   -0.206823
11   0.062454
12   0.039948
13   0.087113
14   -0.256709
15   -0.203223
16   0.162402
17   0.143516
18   0.143167
19   0.156131
20   0.154455
21   0.157798
22   0.166058
23   0.149524
24   0.157221
25   0.166282
26   0.166586
27   0.163952
28   0.282592

$$$$

