PCCDB-ID:  29161
public computational chemistry database (PCCDB) project, http://pccdb.org

 30 29  0  0  0  0  0  0  0  0999 V2000
    1.7252    2.8935    2.9477 C   0  0  0  0  0  0  0  0  0  0  0  0
    5.3736    4.4314   -1.2566 C   0  0  0  0  0  0  0  0  0  0  0  0
    2.6197    1.9541    3.7632 C   0  0  0  0  0  0  0  0  0  0  0  0
    4.9846    3.0090   -0.8432 C   0  0  0  0  0  0  0  0  0  0  0  0
    2.2614    0.4635    3.6275 C   0  0  0  0  0  0  0  0  0  0  0  0
    5.9003    2.4304    0.2429 C   0  0  0  0  0  0  0  0  0  0  0  0
    2.3615   -0.1520    2.2200 C   0  0  0  0  0  0  0  0  0  0  0  0
    5.5238    1.0181    0.6758 C   0  0  0  0  0  0  0  0  0  0  0  0
    3.7667   -0.2494    1.6326 C   0  0  0  0  0  0  0  0  0  0  0  0
    4.2279    1.0367    1.2504 O   0  0  0  0  0  0  0  0  0  0  0  0
    1.9709    3.9424    3.1508 H   0  0  0  0  0  0  0  0  0  0  0  0
    0.6644    2.7485    3.1912 H   0  0  0  0  0  0  0  0  0  0  0  0
    1.8511    2.7299    1.8723 H   0  0  0  0  0  0  0  0  0  0  0  0
    4.7036    4.8191   -2.0325 H   0  0  0  0  0  0  0  0  0  0  0  0
    6.3965    4.4670   -1.6521 H   0  0  0  0  0  0  0  0  0  0  0  0
    5.3262    5.1190   -0.4030 H   0  0  0  0  0  0  0  0  0  0  0  0
    2.5464    2.2222    4.8266 H   0  0  0  0  0  0  0  0  0  0  0  0
    3.6636    2.1088    3.4705 H   0  0  0  0  0  0  0  0  0  0  0  0
    5.0100    2.3500   -1.7233 H   0  0  0  0  0  0  0  0  0  0  0  0
    3.9509    2.9955   -0.4790 H   0  0  0  0  0  0  0  0  0  0  0  0
    1.2327    0.3164    3.9881 H   0  0  0  0  0  0  0  0  0  0  0  0
    2.9034   -0.1181    4.3055 H   0  0  0  0  0  0  0  0  0  0  0  0
    5.8869    3.0828    1.1266 H   0  0  0  0  0  0  0  0  0  0  0  0
    6.9390    2.4102   -0.1168 H   0  0  0  0  0  0  0  0  0  0  0  0
    1.7288    0.3938    1.5090 H   0  0  0  0  0  0  0  0  0  0  0  0
    1.9604   -1.1741    2.2641 H   0  0  0  0  0  0  0  0  0  0  0  0
    6.2560    0.6330    1.4064 H   0  0  0  0  0  0  0  0  0  0  0  0
    5.5412    0.3342   -0.1919 H   0  0  0  0  0  0  0  0  0  0  0  0
    3.7572   -0.9137    0.7507 H   0  0  0  0  0  0  0  0  0  0  0  0
    4.4595   -0.6989    2.3668 H   0  0  0  0  0  0  0  0  0  0  0  0
  1 11  1  0  0  0  0
  1 12  1  0  0  0  0
  1  3  1  0  0  0  0
  2  4  1  0  0  0  0
  2 16  1  0  0  0  0
  3 17  1  0  0  0  0
  4 20  1  0  0  0  0
  4  6  1  0  0  0  0
  5  3  1  0  0  0  0
  5 21  1  0  0  0  0
  5 22  1  0  0  0  0
  6  8  1  0  0  0  0
  6 23  1  0  0  0  0
  7 26  1  0  0  0  0
  7  5  1  0  0  0  0
  8 10  1  0  0  0  0
  8 27  1  0  0  0  0
  9  7  1  0  0  0  0
  9 30  1  0  0  0  0
 10  9  1  0  0  0  0
 13  1  1  0  0  0  0
 14  2  1  0  0  0  0
 15  2  1  0  0  0  0
 18  3  1  0  0  0  0
 19  4  1  0  0  0  0
 24  6  1  0  0  0  0
 25  7  1  0  0  0  0
 28  8  1  0  0  0  0
 29  9  1  0  0  0  0
M  END
>  <HBA>
1

>  <HBD>
0

>  <TPSA>
9.23

>  <cid>
29161

>  <dipole>
1.11

>  <excitation_energy_1>
6.36

>  <excitation_energy_2>
6.7

>  <excitation_energy_3>
6.796

>  <excitation_energy_4>
6.851

>  <homo_energy>
-6.773

>  <homo_lumo_gap>
9.023

>  <logP>
2.993

>  <lumo_energy>
2.25

>  <melting_point>
-37.5

>  <molecular_refractivity>
46.46

>  <oscillator_strength_1>
0.0218

>  <oscillator_strength_2>
0.0107

>  <oscillator_strength_3>
0.0077

>  <oscillator_strength_4>
0.0134

>  <open_babel_can_smiles>
CCCCOCCCCC

>  <mulliken_charges>
30
1   -0.447166
2   -0.4424
3   -0.239088
4   -0.247489
5   -0.253065
6   -0.267992
7   -0.27657
8   -0.008112
9   -0.004148
10   -0.470497
11   0.136845
12   0.132211
13   0.156804
14   0.142042
15   0.13817
16   0.142635
17   0.120762
18   0.148531
19   0.125191
20   0.15564
21   0.126037
22   0.123126
23   0.142581
24   0.128261
25   0.148222
26   0.130124
27   0.116977
28   0.113132
29   0.116012
30   0.113226

>  <lowdin_charges>
30
1   -0.443327
2   -0.444911
3   -0.274364
4   -0.27336
5   -0.275447
6   -0.280231
7   -0.284989
8   -0.129278
9   -0.130408
10   -0.274574
11   0.146275
12   0.139687
13   0.149376
14   0.150481
15   0.143382
16   0.14733
17   0.134938
18   0.146574
19   0.137423
20   0.149324
21   0.138052
22   0.139147
23   0.147127
24   0.142575
25   0.15152
26   0.146675
27   0.12744
28   0.123005
29   0.126527
30   0.12403

$$$$

