PCCDB-ID:  6260
public computational chemistry database (PCCDB) project, http://pccdb.org

 28 29  0  0  1  0  0  0  0  0999 V2000
   -3.1245    0.9589    1.8891 C   0  0  0  0  0  0  0  0  0  0  0  0
   -7.8777   -4.2701   -2.7450 C   0  0  0  0  0  0  0  0  0  0  0  0
   -3.5401   -0.1712    1.1913 C   0  0  0  0  0  0  0  0  0  0  0  0
   -6.7891   -4.8479   -1.8292 C   0  0  0  0  0  0  0  0  0  0  0  0
   -3.1686    0.9354    3.2847 C   0  0  0  0  0  0  0  0  0  0  0  0
   -7.2734   -2.9129   -3.1149 C   0  0  0  0  0  0  0  0  0  0  0  0
   -3.9921   -1.1934    3.3209 C   0  0  0  0  0  0  0  0  0  0  0  0
   -4.7874   -3.6626   -0.7860 C   0  0  0  0  0  0  0  0  0  0  0  0
   -3.9853   -1.2790    1.9214 C   0  0  0  0  0  0  0  0  0  0  0  0
   -6.2764   -3.5935   -1.0975 C   0  0  1  0  0  0  0  0  0  0  0  0
   -4.4592   -2.5384    1.2838 C   0  0  0  0  0  0  0  0  0  0  0  0
   -3.5930   -0.1150    4.0009 N   0  0  0  0  0  0  0  0  0  0  0  0
   -4.8999   -3.4912    1.8976 O   0  0  0  0  0  0  0  0  0  0  0  0
   -6.5505   -2.4782   -1.9592 O   0  0  0  0  0  0  0  0  0  0  0  0
   -4.3355   -2.4999   -0.0625 O   0  0  0  0  0  0  0  0  0  0  0  0
   -2.7721    1.8428    1.3661 H   0  0  0  0  0  0  0  0  0  0  0  0
   -8.8109   -4.1322   -2.1867 H   0  0  0  0  0  0  0  0  0  0  0  0
   -8.0909   -4.8969   -3.6164 H   0  0  0  0  0  0  0  0  0  0  0  0
   -3.5273   -0.2035    0.1074 H   0  0  0  0  0  0  0  0  0  0  0  0
   -5.9863   -5.2964   -2.4302 H   0  0  0  0  0  0  0  0  0  0  0  0
   -7.1552   -5.6115   -1.1372 H   0  0  0  0  0  0  0  0  0  0  0  0
   -2.8494    1.8040    3.8586 H   0  0  0  0  0  0  0  0  0  0  0  0
   -8.0213   -2.1504   -3.3578 H   0  0  0  0  0  0  0  0  0  0  0  0
   -6.5908   -3.0069   -3.9745 H   0  0  0  0  0  0  0  0  0  0  0  0
   -4.3379   -2.0441    3.9026 H   0  0  0  0  0  0  0  0  0  0  0  0
   -4.2081   -3.6590   -1.7125 H   0  0  0  0  0  0  0  0  0  0  0  0
   -4.5624   -4.5588   -0.2014 H   0  0  0  0  0  0  0  0  0  0  0  0
   -6.8236   -3.4438   -0.1571 H   0  0  0  0  0  0  0  0  0  0  0  0
  1  5  1  0  0  0  0
  2 17  1  0  0  0  0
  2  4  1  0  0  0  0
  3  1  2  0  0  0  0
  3  9  1  0  0  0  0
  4 21  1  0  0  0  0
  4 10  1  0  0  0  0
  5 22  1  0  0  0  0
  5 12  2  0  0  0  0
  6  2  1  0  0  0  0
  6 14  1  0  0  0  0
  7 25  1  0  0  0  0
  7 12  1  0  0  0  0
  8 27  1  0  0  0  0
  8 15  1  0  0  0  0
  9  7  2  0  0  0  0
 10  8  1  0  0  0  0
 10 28  1  1  0  0  0
 11 13  2  0  0  0  0
 11  9  1  0  0  0  0
 14 10  1  0  0  0  0
 15 11  1  0  0  0  0
 16  1  1  0  0  0  0
 18  2  1  0  0  0  0
 19  3  1  0  0  0  0
 20  4  1  0  0  0  0
 23  6  1  0  0  0  0
 24  6  1  0  0  0  0
 26  8  1  0  0  0  0
M  END
>  <HBA>
4

>  <HBD>
0

>  <TPSA>
48.42

>  <cid>
6260

>  <dipole>
3.87

>  <excitation_energy_1>
4.282

>  <excitation_energy_2>
4.632

>  <excitation_energy_3>
4.925

>  <excitation_energy_4>
4.965

>  <homo_energy>
-6.743

>  <homo_lumo_gap>
5.287

>  <logP>
1.417

>  <lumo_energy>
-1.456

>  <melting_point>
55.74

>  <molecular_refractivity>
53.72

>  <oscillator_strength_1>
0.0008

>  <oscillator_strength_2>
0.0106

>  <oscillator_strength_3>
0.003

>  <oscillator_strength_4>
0.0005

>  <open_babel_can_smiles>
O=C(c1cccnc1)OC[C@@H]1CCCO1

>  <mulliken_charges>
28
1   -0.148005
2   -0.303074
3   -0.122211
4   -0.321648
5   0.050311
6   -0.010299
7   0.024951
8   -0.051423
9   0.024353
10   0.148619
11   0.600254
12   -0.414056
13   -0.492011
14   -0.501122
15   -0.476333
16   0.144755
17   0.153356
18   0.147244
19   0.175537
20   0.142769
21   0.159671
22   0.149125
23   0.145265
24   0.125445
25   0.175226
26   0.153738
27   0.168812
28   0.150754

>  <lowdin_charges>
28
1   -0.176289
2   -0.292735
3   -0.10778
4   -0.294026
5   -0.074674
6   -0.130618
7   -0.065495
8   -0.143974
9   -0.063216
10   -0.009018
11   0.201735
12   -0.145361
13   -0.271986
14   -0.287127
15   -0.18368
16   0.168348
17   0.151595
18   0.155179
19   0.178155
20   0.147612
21   0.161676
22   0.16108
23   0.148014
24   0.129136
25   0.175947
26   0.157669
27   0.16307
28   0.146764

$$$$

