PCCDB-ID:  12602
public computational chemistry database (PCCDB) project, http://pccdb.org

 27 28  0  0  1  0  0  0  0  0999 V2000
    0.8968    0.1158   -0.0589 C   0  0  0  0  0  0  0  0  0  0  0  0
    1.6696    2.4765   -0.2023 C   0  0  0  0  0  0  0  0  0  0  0  0
    8.6640    1.7302    1.4113 C   0  0  0  0  0  0  0  0  0  0  0  0
    7.6629    2.3011    0.6260 C   0  0  0  0  0  0  0  0  0  0  0  0
    8.3167    1.0231    2.5650 C   0  0  0  0  0  0  0  0  0  0  0  0
    6.3212    2.1712    0.9909 C   0  0  0  0  0  0  0  0  0  0  0  0
    6.9792    0.8912    2.9345 C   0  0  0  0  0  0  0  0  0  0  0  0
    5.9720    1.4658    2.1464 C   0  0  0  0  0  0  0  0  0  0  0  0
    4.5330    1.3122    2.5869 C   0  0  2  0  0  0  0  0  0  0  0  0
    4.0380   -0.1607    2.6975 C   0  0  0  0  0  0  0  0  0  0  0  0
    2.7760    0.8587    1.2797 C   0  0  0  0  0  0  0  0  0  0  0  0
    2.9622   -0.3123    1.8385 N   0  0  0  0  0  0  0  0  0  0  0  0
    1.8197    1.1532    0.3868 N   0  0  0  0  0  0  0  0  0  0  0  0
    4.5278   -0.9917    3.4335 O   0  0  0  0  0  0  0  0  0  0  0  0
    3.6045    1.8775    1.6324 O   0  0  0  0  0  0  0  0  0  0  0  0
   -0.1352    0.4132    0.1634 H   0  0  0  0  0  0  0  0  0  0  0  0
    1.1317   -0.8122    0.4599 H   0  0  0  0  0  0  0  0  0  0  0  0
    0.9930   -0.0327   -1.1415 H   0  0  0  0  0  0  0  0  0  0  0  0
    0.6432    2.8326   -0.0531 H   0  0  0  0  0  0  0  0  0  0  0  0
    1.8698    2.4395   -1.2808 H   0  0  0  0  0  0  0  0  0  0  0  0
    2.3597    3.1756    0.2660 H   0  0  0  0  0  0  0  0  0  0  0  0
    9.7079    1.8333    1.1274 H   0  0  0  0  0  0  0  0  0  0  0  0
    7.9229    2.8531   -0.2735 H   0  0  0  0  0  0  0  0  0  0  0  0
    9.0895    0.5683    3.1789 H   0  0  0  0  0  0  0  0  0  0  0  0
    5.5451    2.6188    0.3797 H   0  0  0  0  0  0  0  0  0  0  0  0
    6.7058    0.3197    3.8156 H   0  0  0  0  0  0  0  0  0  0  0  0
    4.3607    1.8202    3.5430 H   0  0  0  0  0  0  0  0  0  0  0  0
  1 16  1  0  0  0  0
  1 13  1  0  0  0  0
  1 17  1  0  0  0  0
  2 19  1  0  0  0  0
  2 21  1  0  0  0  0
  2 13  1  0  0  0  0
  3  5  2  0  0  0  0
  4  6  2  0  0  0  0
  4  3  1  0  0  0  0
  5  7  1  0  0  0  0
  5 24  1  0  0  0  0
  6  8  1  0  0  0  0
  7 26  1  0  0  0  0
  8  9  1  0  0  0  0
  8  7  2  0  0  0  0
  9 10  1  0  0  0  0
  9 27  1  1  0  0  0
 10 14  2  0  0  0  0
 11 15  1  0  0  0  0
 11 12  2  0  0  0  0
 12 10  1  0  0  0  0
 13 11  1  0  0  0  0
 15  9  1  0  0  0  0
 18  1  1  0  0  0  0
 20  2  1  0  0  0  0
 22  3  1  0  0  0  0
 23  4  1  0  0  0  0
 25  6  1  0  0  0  0
M  END
>  <HBA>
4

>  <HBD>
0

>  <TPSA>
41.9

>  <cid>
12602

>  <dipole>
5.75

>  <excitation_energy_1>
4.638

>  <excitation_energy_2>
5.212

>  <excitation_energy_3>
5.506

>  <excitation_energy_4>
5.558

>  <homo_energy>
-6.275

>  <homo_lumo_gap>
5.919

>  <logP>
0.638

>  <lumo_energy>
-0.356

>  <melting_point>
60.01

>  <molecular_refractivity>
59.71

>  <oscillator_strength_1>
0.0102

>  <oscillator_strength_2>
0.0035

>  <oscillator_strength_3>
0.0464

>  <oscillator_strength_4>
0.1406

>  <open_babel_can_smiles>
CN(C1=NC(=O)[C@H](O1)c1ccccc1)C

>  <mulliken_charges>
27
1   -0.326773
2   -0.327447
3   -0.124093
4   -0.131949
5   -0.135983
6   -0.169904
7   -0.162324
8   0.118963
9   -0.040796
10   0.547718
11   0.799817
12   -0.541388
13   -0.465516
14   -0.489431
15   -0.518789
16   0.162932
17   0.226138
18   0.163607
19   0.167635
20   0.168153
21   0.204685
22   0.129292
23   0.128162
24   0.134168
25   0.131174
26   0.161901
27   0.190048

>  <lowdin_charges>
27
1   -0.346113
2   -0.348581
3   -0.156513
4   -0.154862
5   -0.152713
6   -0.169771
7   -0.156373
8   -0.016342
9   -0.029594
10   0.145162
11   0.188275
12   -0.262902
13   -0.071961
14   -0.258262
15   -0.192555
16   0.154447
17   0.195238
18   0.153693
19   0.157152
20   0.154806
21   0.183338
22   0.156527
23   0.157068
24   0.161211
25   0.160659
26   0.174645
27   0.174323

$$$$

