PCCDB-ID:  2000
public computational chemistry database (PCCDB) project, http://pccdb.org

 28 28  0  0  1  0  0  0  0  0999 V2000
    1.0133   -0.0969    1.0352 C   0  0  0  0  0  0  0  0  0  0  0  0
   -2.2199    0.9019   -1.7300 C   0  0  0  0  0  0  0  0  0  0  0  0
   -2.2507   -0.4925   -1.6530 C   0  0  0  0  0  0  0  0  0  0  0  0
   -1.0367    1.5456   -2.0978 C   0  0  0  0  0  0  0  0  0  0  0  0
   -1.1034   -1.2344   -1.9360 C   0  0  0  0  0  0  0  0  0  0  0  0
    0.1097    0.7992   -2.3796 C   0  0  0  0  0  0  0  0  0  0  0  0
    1.3427   -1.4093   -2.5608 C   0  0  0  0  0  0  0  0  0  0  0  0
    2.2766    0.1476    0.2435 C   0  0  0  0  0  0  0  0  0  0  0  0
    0.0944   -0.6004   -2.2980 C   0  0  0  0  0  0  0  0  0  0  0  0
    2.1678   -1.7096   -1.2741 C   0  0  1  0  0  0  0  0  0  0  0  0
    3.3000   -2.6897   -1.6571 C   0  0  0  0  0  0  0  0  0  0  0  0
    2.7660   -0.5109   -0.7263 N   0  0  0  0  0  0  0  0  0  0  0  0
    2.9889    1.2425    0.6310 O   0  0  0  0  0  0  0  0  0  0  0  0
    3.0767   -3.8272   -2.0004 O   0  0  0  0  0  0  0  0  0  0  0  0
    4.5321   -2.1635   -1.6116 O   0  0  0  0  0  0  0  0  0  0  0  0
    0.5334   -1.0387    0.7722 H   0  0  0  0  0  0  0  0  0  0  0  0
    0.2934    0.7065    0.8402 H   0  0  0  0  0  0  0  0  0  0  0  0
    1.2383   -0.1075    2.1091 H   0  0  0  0  0  0  0  0  0  0  0  0
   -3.1142    1.4810   -1.5156 H   0  0  0  0  0  0  0  0  0  0  0  0
   -3.1705   -1.0032   -1.3800 H   0  0  0  0  0  0  0  0  0  0  0  0
   -1.0068    2.6297   -2.1738 H   0  0  0  0  0  0  0  0  0  0  0  0
   -1.1365   -2.3208   -1.8825 H   0  0  0  0  0  0  0  0  0  0  0  0
    1.0270    1.3050   -2.6703 H   0  0  0  0  0  0  0  0  0  0  0  0
    1.9975   -0.8830   -3.2648 H   0  0  0  0  0  0  0  0  0  0  0  0
    1.0910   -2.3783   -3.0037 H   0  0  0  0  0  0  0  0  0  0  0  0
    1.5221   -2.2512   -0.5699 H   0  0  0  0  0  0  0  0  0  0  0  0
    2.5406    1.6724    1.3757 H   0  0  0  0  0  0  0  0  0  0  0  0
    4.4102   -1.2349   -1.2952 H   0  0  0  0  0  0  0  0  0  0  0  0
  1 18  1  0  0  0  0
  2  3  1  0  0  0  0
  2 19  1  0  0  0  0
  3 20  1  0  0  0  0
  4  2  2  0  0  0  0
  5 22  1  0  0  0  0
  5  3  2  0  0  0  0
  6  9  2  0  0  0  0
  6  4  1  0  0  0  0
  7  9  1  0  0  0  0
  7 10  1  0  0  0  0
  8 13  1  0  0  0  0
  8  1  1  0  0  0  0
  9  5  1  0  0  0  0
 10 12  1  0  0  0  0
 10 26  1  1  0  0  0
 11 15  1  0  0  0  0
 11 10  1  0  0  0  0
 12  8  2  0  0  0  0
 13 27  1  0  0  0  0
 14 11  2  0  0  0  0
 15 28  1  0  0  0  0
 16  1  1  0  0  0  0
 17  1  1  0  0  0  0
 21  4  1  0  0  0  0
 23  6  1  0  0  0  0
 24  7  1  0  0  0  0
 25  7  1  0  0  0  0
M  END
>  <HBA>
4

>  <HBD>
2

>  <TPSA>
66.4

>  <cid>
2000

>  <dipole>
7.35

>  <excitation_energy_1>
5.255

>  <excitation_energy_2>
5.388

>  <excitation_energy_3>
5.694

>  <excitation_energy_4>
5.762

>  <homo_energy>
-6.637

>  <homo_lumo_gap>
6.188

>  <logP>
1.209

>  <lumo_energy>
-0.449

>  <melting_point>
130.22

>  <molecular_refractivity>
55.41

>  <oscillator_strength_1>
0.0013

>  <oscillator_strength_2>
0.03

>  <oscillator_strength_3>
0.0102

>  <oscillator_strength_4>
0.0229

>  <open_babel_can_smiles>
OC(=O)[C@H](Cc1ccccc1)/N=C(/O)\C

>  <mulliken_charges>
28
1   -0.556408
2   -0.133354
3   -0.129533
4   -0.136555
5   -0.189414
6   -0.186226
7   -0.353361
8   0.513066
9   0.16367
10   -0.080466
11   0.605384
12   -0.473856
13   -0.5705
14   -0.471733
15   -0.576895
16   0.194288
17   0.198745
18   0.170596
19   0.13202
20   0.133833
21   0.132648
22   0.135056
23   0.140236
24   0.15987
25   0.18131
26   0.153738
27   0.413426
28   0.430415

>  <lowdin_charges>
28
1   -0.479643
2   -0.162372
3   -0.156297
4   -0.157477
5   -0.166073
6   -0.168662
7   -0.273261
8   0.154174
9   -0.006525
10   -0.098556
11   0.176532
12   -0.228838
13   -0.357935
14   -0.260472
15   -0.347748
16   0.180576
17   0.184374
18   0.166467
19   0.159313
20   0.159816
21   0.156565
22   0.15696
23   0.16256
24   0.161729
25   0.172155
26   0.152731
27   0.361301
28   0.358608

$$$$

