PCCDB-ID:  9086
public computational chemistry database (PCCDB) project, http://pccdb.org

 14 13  0  0  0  0  0  0  0  0999 V2000
    1.2349   -0.1700    0.0084 C   0  0  0  0  0  0  0  0  0  0  0  0
    0.6520   -1.5865   -0.0598 C   0  0  0  0  0  0  0  0  0  0  0  0
    2.7673   -0.1401   -0.0789 C   0  0  0  0  0  0  0  0  0  0  0  0
    1.0400   -2.2581   -1.3183 N   0  0  0  0  0  0  0  0  0  0  0  0
    3.2564   -0.5415   -1.3444 O   0  0  0  0  0  0  0  0  0  0  0  0
    0.9103    0.2945    0.9499 H   0  0  0  0  0  0  0  0  0  0  0  0
    0.8241    0.4414   -0.8076 H   0  0  0  0  0  0  0  0  0  0  0  0
   -0.4404   -1.5493    0.0888 H   0  0  0  0  0  0  0  0  0  0  0  0
    1.0640   -2.1844    0.7633 H   0  0  0  0  0  0  0  0  0  0  0  0
    3.1835   -0.7649    0.7341 H   0  0  0  0  0  0  0  0  0  0  0  0
    3.1277    0.8815    0.0907 H   0  0  0  0  0  0  0  0  0  0  0  0
    0.5436   -1.8331   -2.1012 H   0  0  0  0  0  0  0  0  0  0  0  0
    0.7600   -3.2372   -1.2970 H   0  0  0  0  0  0  0  0  0  0  0  0
    2.7913   -1.3829   -1.5386 H   0  0  0  0  0  0  0  0  0  0  0  0
  1  6  1  0  0  0  0
  2  1  1  0  0  0  0
  2  8  1  0  0  0  0
  2  9  1  0  0  0  0
  3  1  1  0  0  0  0
  3 11  1  0  0  0  0
  3 10  1  0  0  0  0
  4 13  1  0  0  0  0
  4  2  1  0  0  0  0
  5  3  1  0  0  0  0
  7  1  1  0  0  0  0
 12  4  1  0  0  0  0
 14  5  1  0  0  0  0
M  END
>  <HBA>
2

>  <HBD>
2

>  <TPSA>
46.25

>  <cid>
9086

>  <dipole>
3.55

>  <excitation_energy_1>
5.807

>  <excitation_energy_2>
6.145

>  <excitation_energy_3>
6.563

>  <excitation_energy_4>
6.764

>  <homo_energy>
-6.4

>  <homo_lumo_gap>
8.232

>  <logP>
0.028

>  <lumo_energy>
1.831

>  <melting_point>
48.3

>  <molecular_refractivity>
20.4

>  <oscillator_strength_1>
0.0087

>  <oscillator_strength_2>
0.0031

>  <oscillator_strength_3>
0.014

>  <oscillator_strength_4>
0.0076

>  <open_babel_can_smiles>
NCCCO

>  <mulliken_charges>
14
1   -0.28096
2   -0.14046
3   -0.009046
4   -0.74125
5   -0.646893
6   0.131304
7   0.138537
8   0.126247
9   0.146259
10   0.103295
11   0.133201
12   0.311571
13   0.310727
14   0.417466

>  <lowdin_charges>
14
1   -0.303162
2   -0.205824
3   -0.129878
4   -0.546548
5   -0.496097
6   0.148844
7   0.145141
8   0.124752
9   0.145061
10   0.11698
11   0.139645
12   0.262503
13   0.261261
14   0.337323

$$$$

