PCCDB-ID:  35237
public computational chemistry database (PCCDB) project, http://pccdb.org

 41 41  0  0  1  0  0  0  0  0999 V2000
    2.2145    2.3806    3.8983 C   0  0  0  0  0  0  0  0  0  0  0  0
   13.2850    1.4445   -0.9862 C   0  0  0  0  0  0  0  0  0  0  0  0
    2.6008    1.2135    2.9819 C   0  0  0  0  0  0  0  0  0  0  0  0
   12.4461    0.3881   -0.2599 C   0  0  0  0  0  0  0  0  0  0  0  0
    3.7673    1.5115    2.0248 C   0  0  0  0  0  0  0  0  0  0  0  0
   11.9174    0.8659    1.0986 C   0  0  0  0  0  0  0  0  0  0  0  0
    5.1153    1.7348    2.7232 C   0  0  0  0  0  0  0  0  0  0  0  0
   11.0710   -0.1897    1.8206 C   0  0  0  0  0  0  0  0  0  0  0  0
    6.2580    1.9970    1.7181 C   0  0  0  0  0  0  0  0  0  0  0  0
   10.5660    0.2550    3.2092 C   0  0  0  0  0  0  0  0  0  0  0  0
    7.5930    2.1581    2.3957 C   0  0  2  0  0  0  0  0  0  0  0  0
    9.6103    1.4189    3.1511 C   0  0  0  0  0  0  0  0  0  0  0  0
    9.0805    3.6159    3.6771 C   0  0  0  0  0  0  0  0  0  0  0  0
    9.3717    4.7305    4.2330 N   0  0  0  0  0  0  0  0  0  0  0  0
    8.4275    1.1605    2.4611 N   0  0  0  0  0  0  0  0  0  0  0  0
    7.8697    3.3636    2.9648 N   0  0  0  0  0  0  0  0  0  0  0  0
    9.9516    2.5355    3.7249 N   0  0  0  0  0  0  0  0  0  0  0  0
    1.3416    2.1256    4.5094 H   0  0  0  0  0  0  0  0  0  0  0  0
    1.9603    3.2741    3.3141 H   0  0  0  0  0  0  0  0  0  0  0  0
    3.0243    2.6513    4.5854 H   0  0  0  0  0  0  0  0  0  0  0  0
   13.6487    1.0739   -1.9515 H   0  0  0  0  0  0  0  0  0  0  0  0
   14.1586    1.7352   -0.3900 H   0  0  0  0  0  0  0  0  0  0  0  0
   12.7000    2.3528   -1.1764 H   0  0  0  0  0  0  0  0  0  0  0  0
    1.7267    0.9285    2.3817 H   0  0  0  0  0  0  0  0  0  0  0  0
    2.8500    0.3337    3.5916 H   0  0  0  0  0  0  0  0  0  0  0  0
   13.0472   -0.5212   -0.1153 H   0  0  0  0  0  0  0  0  0  0  0  0
   11.5985    0.0926   -0.8951 H   0  0  0  0  0  0  0  0  0  0  0  0
    3.5205    2.3941    1.4157 H   0  0  0  0  0  0  0  0  0  0  0  0
    3.8725    0.6744    1.3208 H   0  0  0  0  0  0  0  0  0  0  0  0
   11.3246    1.7803    0.9543 H   0  0  0  0  0  0  0  0  0  0  0  0
   12.7637    1.1565    1.7379 H   0  0  0  0  0  0  0  0  0  0  0  0
    5.3717    0.8525    3.3240 H   0  0  0  0  0  0  0  0  0  0  0  0
    5.0448    2.5773    3.4234 H   0  0  0  0  0  0  0  0  0  0  0  0
   11.6647   -1.1045    1.9526 H   0  0  0  0  0  0  0  0  0  0  0  0
   10.2065   -0.4617    1.2020 H   0  0  0  0  0  0  0  0  0  0  0  0
    6.0317    2.8942    1.1252 H   0  0  0  0  0  0  0  0  0  0  0  0
    6.3476    1.1538    1.0277 H   0  0  0  0  0  0  0  0  0  0  0  0
   11.4025    0.5334    3.8564 H   0  0  0  0  0  0  0  0  0  0  0  0
   10.0369   -0.5879    3.6740 H   0  0  0  0  0  0  0  0  0  0  0  0
    8.6221    5.4159    4.1038 H   0  0  0  0  0  0  0  0  0  0  0  0
    7.1956    4.1157    2.8852 H   0  0  0  0  0  0  0  0  0  0  0  0
  1 18  1  0  0  0  0
  1 20  1  0  0  0  0
  2 22  1  0  0  0  0
  2  4  1  0  0  0  0
  3 25  1  0  0  0  0
  3  1  1  0  0  0  0
  4 26  1  0  0  0  0
  4  6  1  0  0  0  0
  5  7  1  0  0  0  0
  5  3  1  0  0  0  0
  6 31  1  0  0  0  0
  6  8  1  0  0  0  0
  7 32  1  0  0  0  0
  7 33  1  0  0  0  0
  8 34  1  0  0  0  0
  8 10  1  0  0  0  0
  9  7  1  0  0  0  0
 10 39  1  0  0  0  0
 10 38  1  0  0  0  0
 11  9  1  1  0  0  0
 11 15  1  0  0  0  0
 11 16  1  0  0  0  0
 12 10  1  0  0  0  0
 12 17  1  0  0  0  0
 13 17  2  0  0  0  0
 13 14  1  0  0  0  0
 15 12  2  0  0  0  0
 16 13  1  0  0  0  0
 19  1  1  0  0  0  0
 21  2  1  0  0  0  0
 23  2  1  0  0  0  0
 24  3  1  0  0  0  0
 27  4  1  0  0  0  0
 28  5  1  0  0  0  0
 29  5  1  0  0  0  0
 30  6  1  0  0  0  0
 35  8  1  0  0  0  0
 36  9  1  0  0  0  0
 37  9  1  0  0  0  0
 40 14  1  0  0  0  0
 41 16  1  0  0  0  0
M  RAD  2  11   2  14   2
M  END
>  <HBA>
4

>  <HBD>
1

>  <TPSA>
64.69

>  <cid>
35237

>  <dipole>
5.84

>  <excitation_energy_1>
4.153

>  <excitation_energy_2>
4.199

>  <excitation_energy_3>
5.091

>  <excitation_energy_4>
5.116

>  <homo_energy>
-6.15

>  <homo_lumo_gap>
4.974

>  <logP>
3.5

>  <lumo_energy>
-1.176

>  <melting_point>
103.35

>  <molecular_refractivity>
72.62

>  <oscillator_strength_1>
0.0314

>  <oscillator_strength_2>
0.0077

>  <oscillator_strength_3>
0.0007

>  <oscillator_strength_4>
0.0015

>  <open_babel_can_smiles>
CCCCC[C]1NC(=NC(=N1)CCCCC)[NH]

>  <mulliken_charges>
41
1   -0.446075
2   -0.441261
3   -0.251808
4   -0.247155
5   -0.250681
6   -0.245218
7   -0.264039
8   -0.266496
9   -0.34749
10   -0.31676
11   0.535933
12   0.420316
13   0.59368
14   -0.612377
15   -0.503948
16   -0.650606
17   -0.450689
18   0.149784
19   0.141435
20   0.14614
21   0.139286
22   0.143766
23   0.141019
24   0.138101
25   0.137054
26   0.128919
27   0.128148
28   0.129079
29   0.138658
30   0.134284
31   0.135059
32   0.159226
33   0.136232
34   0.132191
35   0.150727
36   0.147204
37   0.182903
38   0.163746
39   0.152267
40   0.258182
41   0.331266

>  <lowdin_charges>
41
1   -0.449346
2   -0.444697
3   -0.273806
4   -0.272878
5   -0.276093
6   -0.277227
7   -0.273259
8   -0.27241
9   -0.28504
10   -0.280123
11   0.135491
12   0.113656
13   0.118177
14   -0.418499
15   -0.232546
16   -0.234843
17   -0.178136
18   0.154519
19   0.14661
20   0.147641
21   0.147768
22   0.148049
23   0.146333
24   0.146653
25   0.143071
26   0.138061
27   0.138481
28   0.138839
29   0.146061
30   0.141052
31   0.142893
32   0.154555
33   0.140968
34   0.143069
35   0.149921
36   0.152902
37   0.175426
38   0.16333
39   0.162626
40   0.241838
41   0.290911

$$$$

