PCCDB-ID:  36143
public computational chemistry database (PCCDB) project, http://pccdb.org

 21 21  0  0  1  0  0  0  0  0999 V2000
   -1.0658    0.9393   -0.4861 C   0  0  0  0  0  0  0  0  0  0  0  0
    1.1554    0.0582   -0.2339 C   0  0  0  0  0  0  0  0  0  0  0  0
   -1.6053   -0.2972   -0.1331 C   0  0  0  0  0  0  0  0  0  0  0  0
    0.6334   -1.1797    0.1228 C   0  0  0  0  0  0  0  0  0  0  0  0
    0.3166    1.1420   -0.5391 C   0  0  0  0  0  0  0  0  0  0  0  0
   -0.7538   -1.3618    0.1756 C   0  0  0  0  0  0  0  0  0  0  0  0
    0.8713    2.5209   -0.8314 C   0  0  2  0  0  0  0  0  0  0  0  0
    2.1120    2.5171   -1.7636 C   0  0  0  0  0  0  0  0  0  0  0  0
    1.2031    3.3282    0.3720 N   0  0  0  0  0  0  0  0  0  0  0  0
   -1.2119   -2.5996    0.5284 O   0  0  0  0  0  0  0  0  0  0  0  0
    2.2645    1.7349   -2.6704 O   0  0  0  0  0  0  0  0  0  0  0  0
    2.9752    3.5089   -1.4946 O   0  0  0  0  0  0  0  0  0  0  0  0
   -1.7403    1.7579   -0.7293 H   0  0  0  0  0  0  0  0  0  0  0  0
    2.2335    0.1735   -0.3021 H   0  0  0  0  0  0  0  0  0  0  0  0
   -2.6848   -0.4351   -0.1059 H   0  0  0  0  0  0  0  0  0  0  0  0
    1.2820   -2.0202    0.3475 H   0  0  0  0  0  0  0  0  0  0  0  0
    0.1144    3.0930   -1.3836 H   0  0  0  0  0  0  0  0  0  0  0  0
    1.5925    2.7184    1.0910 H   0  0  0  0  0  0  0  0  0  0  0  0
    0.3604    3.7364    0.7709 H   0  0  0  0  0  0  0  0  0  0  0  0
   -2.1814   -2.5984    0.5026 H   0  0  0  0  0  0  0  0  0  0  0  0
    2.6096    3.9496   -0.6852 H   0  0  0  0  0  0  0  0  0  0  0  0
  1  3  1  0  0  0  0
  2  4  2  0  0  0  0
  3 15  1  0  0  0  0
  3  6  2  0  0  0  0
  4  6  1  0  0  0  0
  4 16  1  0  0  0  0
  5  1  2  0  0  0  0
  5  2  1  0  0  0  0
  6 10  1  0  0  0  0
  7 17  1  6  0  0  0
  7  5  1  0  0  0  0
  7  9  1  0  0  0  0
  8 12  1  0  0  0  0
  8  7  1  0  0  0  0
  9 19  1  0  0  0  0
  9 18  1  0  0  0  0
 11  8  2  0  0  0  0
 12 21  1  0  0  0  0
 13  1  1  0  0  0  0
 14  2  1  0  0  0  0
 20 10  1  0  0  0  0
M  END
>  <HBA>
4

>  <HBD>
3

>  <TPSA>
83.55

>  <cid>
36143

>  <dipole>
6.15

>  <excitation_energy_1>
4.927

>  <excitation_energy_2>
5.106

>  <excitation_energy_3>
5.306

>  <excitation_energy_4>
5.435

>  <homo_energy>
-6.15

>  <homo_lumo_gap>
5.831

>  <logP>
1.177

>  <lumo_energy>
-0.318

>  <melting_point>
178.87

>  <molecular_refractivity>
42.72

>  <oscillator_strength_1>
0.0254

>  <oscillator_strength_2>
0.0378

>  <oscillator_strength_3>
0.0059

>  <oscillator_strength_4>
0.0102

>  <open_babel_can_smiles>
OC(=O)[C@@H](c1ccc(cc1)O)N

>  <mulliken_charges>
21
1   -0.201666
2   -0.180945
3   -0.191833
4   -0.162456
5   0.204753
6   0.352846
7   -0.205852
8   0.60882
9   -0.756309
10   -0.638545
11   -0.4553
12   -0.58351
13   0.124804
14   0.146096
15   0.122485
16   0.147435
17   0.18264
18   0.322208
19   0.322396
20   0.409057
21   0.432876

>  <lowdin_charges>
21
1   -0.155339
2   -0.141004
3   -0.210958
4   -0.180783
5   -0.034189
6   0.106381
7   -0.107935
8   0.170246
9   -0.545034
10   -0.371658
11   -0.248312
12   -0.357402
13   0.156048
14   0.164014
15   0.153427
16   0.172063
17   0.17322
18   0.269366
19   0.271631
20   0.356564
21   0.359652

$$$$

