PCCDB-ID:  26655
public computational chemistry database (PCCDB) project, http://pccdb.org

 24 24  0  0  0  0  0  0  0  0999 V2000
    0.7165   -0.3447    0.5648 C   0  0  0  0  0  0  0  0  0  0  0  0
    4.4154   -4.2655    0.3848 C   0  0  0  0  0  0  0  0  0  0  0  0
    5.6779   -3.5218   -0.0806 C   0  0  0  0  0  0  0  0  0  0  0  0
    3.1396   -3.9290   -0.4047 C   0  0  0  0  0  0  0  0  0  0  0  0
    5.4645   -2.0288   -0.3854 C   0  0  0  0  0  0  0  0  0  0  0  0
    2.4993   -2.6018   -0.0729 C   0  0  0  0  0  0  0  0  0  0  0  0
    4.5705   -1.2859    0.6214 C   0  0  0  0  0  0  0  0  0  0  0  0
    2.2304   -0.2910    0.7436 C   0  0  0  0  0  0  0  0  0  0  0  0
    3.0795   -1.4822    0.4047 C   0  0  0  0  0  0  0  0  0  0  0  0
    2.7462    0.7314    1.1759 O   0  0  0  0  0  0  0  0  0  0  0  0
    0.2670   -1.1310    1.1816 H   0  0  0  0  0  0  0  0  0  0  0  0
    0.4401   -0.5438   -0.4768 H   0  0  0  0  0  0  0  0  0  0  0  0
    0.3078    0.6220    0.8638 H   0  0  0  0  0  0  0  0  0  0  0  0
    4.2271   -4.0522    1.4448 H   0  0  0  0  0  0  0  0  0  0  0  0
    4.5965   -5.3461    0.3221 H   0  0  0  0  0  0  0  0  0  0  0  0
    6.0821   -4.0098   -0.9782 H   0  0  0  0  0  0  0  0  0  0  0  0
    6.4471   -3.6307    0.6960 H   0  0  0  0  0  0  0  0  0  0  0  0
    2.3880   -4.7076   -0.2171 H   0  0  0  0  0  0  0  0  0  0  0  0
    3.3374   -3.9819   -1.4880 H   0  0  0  0  0  0  0  0  0  0  0  0
    5.0283   -1.9125   -1.3864 H   0  0  0  0  0  0  0  0  0  0  0  0
    6.4443   -1.5365   -0.4271 H   0  0  0  0  0  0  0  0  0  0  0  0
    1.4229   -2.5837   -0.2319 H   0  0  0  0  0  0  0  0  0  0  0  0
    4.7577   -0.2100    0.5642 H   0  0  0  0  0  0  0  0  0  0  0  0
    4.8417   -1.5656    1.6506 H   0  0  0  0  0  0  0  0  0  0  0  0
  1  8  1  0  0  0  0
  1 13  1  0  0  0  0
  1 11  1  0  0  0  0
  2 14  1  0  0  0  0
  3  2  1  0  0  0  0
  3 17  1  0  0  0  0
  4 18  1  0  0  0  0
  4  6  1  0  0  0  0
  4  2  1  0  0  0  0
  5  3  1  0  0  0  0
  5  7  1  0  0  0  0
  6  9  2  0  0  0  0
  7 24  1  0  0  0  0
  8 10  2  0  0  0  0
  9  7  1  0  0  0  0
  9  8  1  0  0  0  0
 12  1  1  0  0  0  0
 15  2  1  0  0  0  0
 16  3  1  0  0  0  0
 19  4  1  0  0  0  0
 20  5  1  0  0  0  0
 21  5  1  0  0  0  0
 22  6  1  0  0  0  0
 23  7  1  0  0  0  0
M  END
>  <HBA>
1

>  <HBD>
0

>  <TPSA>
17.07

>  <cid>
26655

>  <dipole>
3.27

>  <excitation_energy_1>
3.755

>  <excitation_energy_2>
5.329

>  <excitation_energy_3>
5.987

>  <excitation_energy_4>
6.165

>  <homo_energy>
-6.495

>  <homo_lumo_gap>
5.32

>  <logP>
2.466

>  <lumo_energy>
-1.176

>  <melting_point>
28.62

>  <molecular_refractivity>
42.99

>  <oscillator_strength_1>
0.0005

>  <oscillator_strength_2>
0.2607

>  <oscillator_strength_3>
0.0142

>  <oscillator_strength_4>
0.0028

>  <open_babel_can_smiles>
CC(=O)C1=CCCCCC1

>  <mulliken_charges>
24
1   -0.541867
2   -0.261594
3   -0.259173
4   -0.300997
5   -0.26545
6   -0.179881
7   -0.337303
8   0.409569
9   0.106296
10   -0.457408
11   0.167744
12   0.16692
13   0.179036
14   0.14295
15   0.134913
16   0.130635
17   0.13421
18   0.144973
19   0.156526
20   0.135988
21   0.136341
22   0.133067
23   0.174853
24   0.149652

>  <lowdin_charges>
24
1   -0.477833
2   -0.275045
3   -0.281143
4   -0.278122
5   -0.277267
6   -0.142517
7   -0.279446
8   0.156904
9   -0.055796
10   -0.247927
11   0.168617
12   0.165875
13   0.173522
14   0.144093
15   0.145381
16   0.141608
17   0.143748
18   0.154885
19   0.154929
20   0.141552
21   0.147238
22   0.155743
23   0.168841
24   0.152162

$$$$

