PCCDB-ID:  10948
public computational chemistry database (PCCDB) project, http://pccdb.org

 22 21  0  0  1  0  0  0  0  0999 V2000
    1.8696   -0.5714   -1.2947 C   0  0  0  0  0  0  0  0  0  0  0  0
    6.1750   -0.2558    0.3260 C   0  0  0  0  0  0  0  0  0  0  0  0
    3.1383   -0.8559   -0.4832 C   0  0  0  0  0  0  0  0  0  0  0  0
    3.6937    0.4032    0.1979 C   0  0  0  0  0  0  0  0  0  0  0  0
    4.9156    0.1420    1.0842 C   0  0  2  0  0  0  0  0  0  0  0  0
    4.6225    1.6440    2.9222 C   0  0  0  0  0  0  0  0  0  0  0  0
    3.7216    0.8982    3.4307 N   0  0  0  0  0  0  0  0  0  0  0  0
    5.1209    2.8235    3.3869 O   0  0  0  0  0  0  0  0  0  0  0  0
    5.2663    1.3706    1.7857 O   0  0  0  0  0  0  0  0  0  0  0  0
    1.4828   -1.4840   -1.7623 H   0  0  0  0  0  0  0  0  0  0  0  0
    2.0649    0.1557   -2.0924 H   0  0  0  0  0  0  0  0  0  0  0  0
    1.0773   -0.1599   -0.6581 H   0  0  0  0  0  0  0  0  0  0  0  0
    6.0187   -1.1962   -0.2115 H   0  0  0  0  0  0  0  0  0  0  0  0
    7.0124   -0.3910    1.0174 H   0  0  0  0  0  0  0  0  0  0  0  0
    6.4500    0.5172   -0.4005 H   0  0  0  0  0  0  0  0  0  0  0  0
    3.8964   -1.2967   -1.1436 H   0  0  0  0  0  0  0  0  0  0  0  0
    2.9178   -1.6124    0.2830 H   0  0  0  0  0  0  0  0  0  0  0  0
    2.9107    0.8379    0.8296 H   0  0  0  0  0  0  0  0  0  0  0  0
    3.9584    1.1554   -0.5587 H   0  0  0  0  0  0  0  0  0  0  0  0
    4.6640   -0.6064    1.8419 H   0  0  0  0  0  0  0  0  0  0  0  0
    3.3623    1.2689    4.3098 H   0  0  0  0  0  0  0  0  0  0  0  0
    4.6585    3.0440    4.2098 H   0  0  0  0  0  0  0  0  0  0  0  0
  1 12  1  0  0  0  0
  1  3  1  0  0  0  0
  2 14  1  0  0  0  0
  2  5  1  0  0  0  0
  3  4  1  0  0  0  0
  3 17  1  0  0  0  0
  4 18  1  0  0  0  0
  4  5  1  0  0  0  0
  5  9  1  0  0  0  0
  5 20  1  1  0  0  0
  6  8  1  0  0  0  0
  6  7  2  0  0  0  0
  7 21  1  0  0  0  0
  8 22  1  0  0  0  0
  9  6  1  0  0  0  0
 10  1  1  0  0  0  0
 11  1  1  0  0  0  0
 13  2  1  0  0  0  0
 15  2  1  0  0  0  0
 16  3  1  0  0  0  0
 19  4  1  0  0  0  0
M  END
>  <HBA>
3

>  <HBD>
1

>  <TPSA>
52.32

>  <cid>
10948

>  <dipole>
1.09

>  <excitation_energy_1>
5.827

>  <excitation_energy_2>
6.392

>  <excitation_energy_3>
7.062

>  <excitation_energy_4>
7.144

>  <homo_energy>
-6.912

>  <homo_lumo_gap>
8.229

>  <logP>
1.971

>  <lumo_energy>
1.317

>  <melting_point>
50.46

>  <molecular_refractivity>
35.34

>  <oscillator_strength_1>
0.004

>  <oscillator_strength_2>
0.0492

>  <oscillator_strength_3>
0.0018

>  <oscillator_strength_4>
0.0012

>  <open_babel_can_smiles>
C[C@@H](OC(=N)O)CCC

>  <mulliken_charges>
22
1   -0.441574
2   -0.457328
3   -0.2619
4   -0.264221
5   0.138009
6   0.645225
7   -0.631023
8   -0.570517
9   -0.461058
10   0.142221
11   0.142531
12   0.146174
13   0.151115
14   0.157762
15   0.155358
16   0.133915
17   0.140026
18   0.158518
19   0.1325
20   0.165036
21   0.273579
22   0.405652

>  <lowdin_charges>
22
1   -0.444749
2   -0.450215
3   -0.275554
4   -0.288717
5   0.012673
6   0.191219
7   -0.479492
8   -0.366818
9   -0.179337
10   0.150104
11   0.147524
12   0.149677
13   0.156725
14   0.159979
15   0.156931
16   0.140573
17   0.144331
18   0.159297
19   0.143334
20   0.157789
21   0.2552
22   0.359527

$$$$

