PCCDB-ID:  70726
public computational chemistry database (PCCDB) project, http://pccdb.org

 15 15  0  0  0  0  0  0  0  0999 V2000
    0.4262    1.3914   -0.2921 C   0  0  0  0  0  0  0  0  0  0  0  0
   -1.0239    1.0656    0.0823 C   0  0  0  0  0  0  0  0  0  0  0  0
    1.3563    0.3203    0.2905 C   0  0  0  0  0  0  0  0  0  0  0  0
   -1.3046   -0.4208   -0.0359 C   0  0  0  0  0  0  0  0  0  0  0  0
    0.9247   -1.0688   -0.1783 C   0  0  0  0  0  0  0  0  0  0  0  0
   -0.4557   -1.3677   -0.1672 N   0  0  0  0  0  0  0  0  0  0  0  0
   -2.6043   -0.7840    0.0430 O   0  0  0  0  0  0  0  0  0  0  0  0
    1.7297   -1.9063   -0.5298 O   0  0  0  0  0  0  0  0  0  0  0  0
    0.6954    2.3904    0.0662 H   0  0  0  0  0  0  0  0  0  0  0  0
    0.5267    1.4049   -1.3846 H   0  0  0  0  0  0  0  0  0  0  0  0
   -1.7333    1.6274   -0.5405 H   0  0  0  0  0  0  0  0  0  0  0  0
   -1.2260    1.3546    1.1251 H   0  0  0  0  0  0  0  0  0  0  0  0
    1.3179    0.3466    1.3896 H   0  0  0  0  0  0  0  0  0  0  0  0
    2.3964    0.4708   -0.0072 H   0  0  0  0  0  0  0  0  0  0  0  0
   -3.1628    0.0084    0.0969 H   0  0  0  0  0  0  0  0  0  0  0  0
  1  9  1  0  0  0  0
  1  2  1  0  0  0  0
  1  3  1  0  0  0  0
  2 12  1  0  0  0  0
  3 13  1  0  0  0  0
  4  7  1  0  0  0  0
  4  2  1  0  0  0  0
  5  6  1  0  0  0  0
  5  3  1  0  0  0  0
  6  4  2  0  0  0  0
  7 15  1  0  0  0  0
  8  5  2  0  0  0  0
 10  1  1  0  0  0  0
 11  2  1  0  0  0  0
 14  3  1  0  0  0  0
M  END
>  <HBA>
3

>  <HBD>
1

>  <TPSA>
46.17

>  <cid>
70726

>  <dipole>
6.91

>  <excitation_energy_1>
4.031

>  <excitation_energy_2>
4.905

>  <excitation_energy_3>
5.599

>  <excitation_energy_4>
6.027

>  <homo_energy>
-6.561

>  <homo_lumo_gap>
5.51

>  <logP>
0.142

>  <lumo_energy>
-1.05

>  <melting_point>
66.64

>  <molecular_refractivity>
31.15

>  <oscillator_strength_1>
0.0009

>  <oscillator_strength_2>
0.0004

>  <oscillator_strength_3>
0.0045

>  <oscillator_strength_4>
0.0198

>  <open_babel_can_smiles>
OC1=NC(=O)CCC1

>  <mulliken_charges>
15
1   -0.279162
2   -0.377888
3   -0.356329
4   0.513893
5   0.533185
6   -0.452526
7   -0.554917
8   -0.441841
9   0.153829
10   0.16437
11   0.163597
12   0.181356
13   0.163539
14   0.175092
15   0.413802

>  <lowdin_charges>
15
1   -0.269961
2   -0.316857
3   -0.309608
4   0.15796
5   0.164872
6   -0.194993
7   -0.332188
8   -0.230337
9   0.155346
10   0.152998
11   0.163378
12   0.168338
13   0.160251
14   0.170366
15   0.360434

$$$$

