PCCDB-ID:  31266
public computational chemistry database (PCCDB) project, http://pccdb.org

 27 26  0  0  0  0  0  0  0  0999 V2000
    3.3481   -3.1231    0.1843 C   0  0  0  0  0  0  0  0  0  0  0  0
    9.2308   -1.9986    2.4244 C   0  0  0  0  0  0  0  0  0  0  0  0
    3.7282   -1.6516   -0.0099 C   0  0  0  0  0  0  0  0  0  0  0  0
    8.2878   -1.3118    3.0691 C   0  0  0  0  0  0  0  0  0  0  0  0
    4.0659   -0.9365    1.3048 C   0  0  0  0  0  0  0  0  0  0  0  0
    4.4541    0.5342    1.1054 C   0  0  0  0  0  0  0  0  0  0  0  0
    4.7505    1.2864    2.4177 C   0  0  0  0  0  0  0  0  0  0  0  0
    8.2368    0.1864    3.1179 C   0  0  0  0  0  0  0  0  0  0  0  0
    5.9097    0.7067    3.2053 C   0  0  0  0  0  0  0  0  0  0  0  0
    5.8496    0.2933    4.3439 O   0  0  0  0  0  0  0  0  0  0  0  0
    7.0470    0.7090    2.4677 O   0  0  0  0  0  0  0  0  0  0  0  0
    3.1148   -3.6053   -0.7719 H   0  0  0  0  0  0  0  0  0  0  0  0
    2.4684   -3.2232    0.8317 H   0  0  0  0  0  0  0  0  0  0  0  0
    4.1664   -3.6855    0.6503 H   0  0  0  0  0  0  0  0  0  0  0  0
    9.2519   -3.0850    2.4294 H   0  0  0  0  0  0  0  0  0  0  0  0
   10.0252   -1.5009    1.8712 H   0  0  0  0  0  0  0  0  0  0  0  0
    2.9032   -1.1226   -0.5080 H   0  0  0  0  0  0  0  0  0  0  0  0
    4.5888   -1.5820   -0.6899 H   0  0  0  0  0  0  0  0  0  0  0  0
    7.5035   -1.8275    3.6196 H   0  0  0  0  0  0  0  0  0  0  0  0
    4.8878   -1.4702    1.8033 H   0  0  0  0  0  0  0  0  0  0  0  0
    3.2055   -0.9994    1.9867 H   0  0  0  0  0  0  0  0  0  0  0  0
    3.6385    1.0601    0.5913 H   0  0  0  0  0  0  0  0  0  0  0  0
    5.3312    0.5999    0.4508 H   0  0  0  0  0  0  0  0  0  0  0  0
    3.8802    1.2768    3.0801 H   0  0  0  0  0  0  0  0  0  0  0  0
    4.9902    2.3326    2.1882 H   0  0  0  0  0  0  0  0  0  0  0  0
    9.0688    0.6306    2.5668 H   0  0  0  0  0  0  0  0  0  0  0  0
    8.2451    0.5443    4.1522 H   0  0  0  0  0  0  0  0  0  0  0  0
  1 14  1  0  0  0  0
  1 13  1  0  0  0  0
  2 15  1  0  0  0  0
  2  4  2  0  0  0  0
  3  1  1  0  0  0  0
  3  5  1  0  0  0  0
  4  8  1  0  0  0  0
  4 19  1  0  0  0  0
  5 20  1  0  0  0  0
  5 21  1  0  0  0  0
  6  5  1  0  0  0  0
  6  7  1  0  0  0  0
  7 24  1  0  0  0  0
  7  9  1  0  0  0  0
  8 27  1  0  0  0  0
  9 10  2  0  0  0  0
 11  8  1  0  0  0  0
 11  9  1  0  0  0  0
 12  1  1  0  0  0  0
 16  2  1  0  0  0  0
 17  3  1  0  0  0  0
 18  3  1  0  0  0  0
 22  6  1  0  0  0  0
 23  6  1  0  0  0  0
 25  7  1  0  0  0  0
 26  8  1  0  0  0  0
M  END
>  <HBA>
2

>  <HBD>
0

>  <TPSA>
26.3

>  <cid>
31266

>  <dipole>
1.82

>  <excitation_energy_1>
5.691

>  <excitation_energy_2>
6.346

>  <excitation_energy_3>
6.688

>  <excitation_energy_4>
6.9

>  <homo_energy>
-7.151

>  <homo_lumo_gap>
7.244

>  <logP>
2.296

>  <lumo_energy>
0.093

>  <melting_point>
-36.71

>  <molecular_refractivity>
46.19

>  <oscillator_strength_1>
0.0022

>  <oscillator_strength_2>
0.0187

>  <oscillator_strength_3>
0.0082

>  <oscillator_strength_4>
0.0786

>  <open_babel_can_smiles>
CCCCCC(=O)OCC=C

>  <mulliken_charges>
27
1   -0.442123
2   -0.331197
3   -0.248382
4   -0.063071
5   -0.252544
6   -0.265811
7   -0.342225
8   -0.094705
9   0.609792
10   -0.481154
11   -0.454044
12   0.142183
13   0.142788
14   0.143285
15   0.149398
16   0.142383
17   0.130383
18   0.133306
19   0.159418
20   0.14023
21   0.132814
22   0.136509
23   0.154276
24   0.165436
25   0.163623
26   0.1545
27   0.174932

>  <lowdin_charges>
27
1   -0.445614
2   -0.320115
3   -0.272949
4   -0.160423
5   -0.279526
6   -0.273198
7   -0.295391
8   -0.127674
9   0.194047
10   -0.268871
11   -0.197676
12   0.149605
13   0.147367
14   0.148298
15   0.161369
16   0.15786
17   0.139735
18   0.140835
19   0.167442
20   0.144087
21   0.141175
22   0.146129
23   0.151611
24   0.164836
25   0.16674
26   0.157483
27   0.162816

$$$$

