PCCDB-ID:  31361
public computational chemistry database (PCCDB) project, http://pccdb.org

 25 24  0  0  0  0  0  0  0  0999 V2000
    2.9648    1.3604   -1.4397 C   0  0  0  0  0  0  0  0  0  0  0  0
    5.8746   -1.9101   -4.1108 C   0  0  0  0  0  0  0  0  0  0  0  0
    7.2460    0.8407   -0.5742 C   0  0  0  0  0  0  0  0  0  0  0  0
    6.3671   -1.3921    0.2296 C   0  0  0  0  0  0  0  0  0  0  0  0
    4.4833    1.2829   -1.4760 C   0  0  0  0  0  0  0  0  0  0  0  0
    5.7227   -1.8406   -2.5989 C   0  0  0  0  0  0  0  0  0  0  0  0
    6.2253   -0.2761   -0.8095 C   0  0  0  0  0  0  0  0  0  0  0  0
    4.8808    0.1719   -0.6729 O   0  0  0  0  0  0  0  0  0  0  0  0
    6.4853   -0.7264   -2.1351 O   0  0  0  0  0  0  0  0  0  0  0  0
    2.6122    2.2207   -2.0199 H   0  0  0  0  0  0  0  0  0  0  0  0
    2.6101    1.4690   -0.4094 H   0  0  0  0  0  0  0  0  0  0  0  0
    2.5190    0.4523   -1.8591 H   0  0  0  0  0  0  0  0  0  0  0  0
    6.9296   -2.0090   -4.3868 H   0  0  0  0  0  0  0  0  0  0  0  0
    5.4827   -1.0030   -4.5828 H   0  0  0  0  0  0  0  0  0  0  0  0
    5.3298   -2.7730   -4.5105 H   0  0  0  0  0  0  0  0  0  0  0  0
    7.0463    1.3389    0.3793 H   0  0  0  0  0  0  0  0  0  0  0  0
    7.2085    1.5786   -1.3800 H   0  0  0  0  0  0  0  0  0  0  0  0
    8.2564    0.4223   -0.5513 H   0  0  0  0  0  0  0  0  0  0  0  0
    6.2954   -0.9733    1.2377 H   0  0  0  0  0  0  0  0  0  0  0  0
    7.3360   -1.8890    0.1205 H   0  0  0  0  0  0  0  0  0  0  0  0
    5.5697   -2.1312    0.1168 H   0  0  0  0  0  0  0  0  0  0  0  0
    4.9182    2.2136   -1.0823 H   0  0  0  0  0  0  0  0  0  0  0  0
    4.8447    1.1532   -2.5043 H   0  0  0  0  0  0  0  0  0  0  0  0
    6.0894   -2.7709   -2.1399 H   0  0  0  0  0  0  0  0  0  0  0  0
    4.6690   -1.7200   -2.3165 H   0  0  0  0  0  0  0  0  0  0  0  0
  1 11  1  0  0  0  0
  2  6  1  0  0  0  0
  3 18  1  0  0  0  0
  3 16  1  0  0  0  0
  4 19  1  0  0  0  0
  5  1  1  0  0  0  0
  5 22  1  0  0  0  0
  5  8  1  0  0  0  0
  6 25  1  0  0  0  0
  6 24  1  0  0  0  0
  6  9  1  0  0  0  0
  7  8  1  0  0  0  0
  7  3  1  0  0  0  0
  7  4  1  0  0  0  0
  9  7  1  0  0  0  0
 10  1  1  0  0  0  0
 12  1  1  0  0  0  0
 13  2  1  0  0  0  0
 14  2  1  0  0  0  0
 15  2  1  0  0  0  0
 17  3  1  0  0  0  0
 20  4  1  0  0  0  0
 21  4  1  0  0  0  0
 23  5  1  0  0  0  0
M  END
>  <HBA>
2

>  <HBD>
0

>  <TPSA>
18.46

>  <cid>
31361

>  <dipole>
0.19

>  <excitation_energy_1>
6.708

>  <excitation_energy_2>
6.808

>  <excitation_energy_3>
7.065

>  <excitation_energy_4>
7.084

>  <homo_energy>
-6.944

>  <homo_lumo_gap>
9.306

>  <logP>
1.796

>  <lumo_energy>
2.362

>  <melting_point>
-34.1

>  <molecular_refractivity>
37.97

>  <oscillator_strength_1>
0.0037

>  <oscillator_strength_2>
0.0032

>  <oscillator_strength_3>
0.0019

>  <oscillator_strength_4>
0.0006

>  <open_babel_can_smiles>
CCOC(OCC)(C)C

>  <mulliken_charges>
25
1   -0.454067
2   -0.454031
3   -0.473707
4   -0.473318
5   -0.019054
6   -0.019574
7   0.540223
8   -0.499065
9   -0.499013
10   0.140769
11   0.156149
12   0.152928
13   0.156172
14   0.152864
15   0.140705
16   0.148822
17   0.157639
18   0.153989
19   0.153916
20   0.148803
21   0.157614
22   0.125123
23   0.140257
24   0.125176
25   0.14068

>  <lowdin_charges>
25
1   -0.448262
2   -0.448019
3   -0.45642
4   -0.456345
5   -0.129944
6   -0.129754
7   0.215506
8   -0.275568
9   -0.275647
10   0.153077
11   0.154691
12   0.153704
13   0.154326
14   0.153623
15   0.153079
16   0.155805
17   0.16042
18   0.160139
19   0.160099
20   0.155585
21   0.160527
22   0.129323
23   0.135452
24   0.1293
25   0.135302

$$$$

