PCCDB-ID:  70923
public computational chemistry database (PCCDB) project, http://pccdb.org

 26 25  0  0  1  0  0  0  0  0999 V2000
    1.2148   -0.0338   -0.1289 C   0  0  0  0  0  0  0  0  0  0  0  0
    0.6207    0.2693   -1.5097 C   0  0  0  0  0  0  0  0  0  0  0  0
    2.7240   -0.3136   -0.1947 C   0  0  0  0  0  0  0  0  0  0  0  0
   -0.8906    0.5286   -1.4635 C   0  0  0  0  0  0  0  0  0  0  0  0
   -2.2889    0.1854   -3.3010 C   0  0  0  0  0  0  0  0  0  0  0  0
    3.3914   -0.6448    1.1553 C   0  0  2  0  0  0  0  0  0  0  0  0
    2.7790   -1.9447    1.7196 C   0  0  0  0  0  0  0  0  0  0  0  0
    3.2086    0.4404    2.1397 N   0  0  0  0  0  0  0  0  0  0  0  0
   -1.3925    0.9065   -2.7766 N   0  0  0  0  0  0  0  0  0  0  0  0
   -2.8147    0.4442   -4.5171 O   0  0  0  0  0  0  0  0  0  0  0  0
    2.9927   -3.0306    1.2339 O   0  0  0  0  0  0  0  0  0  0  0  0
    1.9601   -1.7496    2.7659 O   0  0  0  0  0  0  0  0  0  0  0  0
    0.7019   -0.9007    0.3088 H   0  0  0  0  0  0  0  0  0  0  0  0
    1.0146    0.8108    0.5453 H   0  0  0  0  0  0  0  0  0  0  0  0
    0.8154   -0.5700   -2.1912 H   0  0  0  0  0  0  0  0  0  0  0  0
    1.1112    1.1470   -1.9513 H   0  0  0  0  0  0  0  0  0  0  0  0
    3.2440    0.5503   -0.6340 H   0  0  0  0  0  0  0  0  0  0  0  0
    2.9100   -1.1640   -0.8603 H   0  0  0  0  0  0  0  0  0  0  0  0
   -1.0902    1.3593   -0.7719 H   0  0  0  0  0  0  0  0  0  0  0  0
   -1.4063   -0.3586   -1.0550 H   0  0  0  0  0  0  0  0  0  0  0  0
   -2.7474   -0.7086   -2.8643 H   0  0  0  0  0  0  0  0  0  0  0  0
    4.4497   -0.8612    0.9607 H   0  0  0  0  0  0  0  0  0  0  0  0
    4.0094    0.5015    2.7651 H   0  0  0  0  0  0  0  0  0  0  0  0
    3.1180    1.3442    1.6814 H   0  0  0  0  0  0  0  0  0  0  0  0
   -2.3630    1.2461   -4.8418 H   0  0  0  0  0  0  0  0  0  0  0  0
    2.0060   -0.7748    2.9395 H   0  0  0  0  0  0  0  0  0  0  0  0
  1 13  1  0  0  0  0
  1 14  1  0  0  0  0
  2  4  1  0  0  0  0
  2  1  1  0  0  0  0
  3  1  1  0  0  0  0
  3  6  1  0  0  0  0
  4 20  1  0  0  0  0
  4 19  1  0  0  0  0
  5 21  1  0  0  0  0
  5  9  2  0  0  0  0
  6 22  1  6  0  0  0
  6  7  1  0  0  0  0
  6  8  1  0  0  0  0
  7 12  1  0  0  0  0
  8 23  1  0  0  0  0
  9  4  1  0  0  0  0
 10  5  1  0  0  0  0
 11  7  2  0  0  0  0
 12 26  1  0  0  0  0
 15  2  1  0  0  0  0
 16  2  1  0  0  0  0
 17  3  1  0  0  0  0
 18  3  1  0  0  0  0
 24  8  1  0  0  0  0
 25 10  1  0  0  0  0
M  END
>  <HBA>
5

>  <HBD>
3

>  <TPSA>
92.42

>  <cid>
70923

>  <dipole>
5.03

>  <excitation_energy_1>
5.55

>  <excitation_energy_2>
5.957

>  <excitation_energy_3>
6.095

>  <excitation_energy_4>
6.502

>  <homo_energy>
-6.838

>  <homo_lumo_gap>
7.369

>  <logP>
1.042

>  <lumo_energy>
0.531

>  <melting_point>
152.75

>  <molecular_refractivity>
43.63

>  <oscillator_strength_1>
0.0019

>  <oscillator_strength_2>
0.0128

>  <oscillator_strength_3>
0.0008

>  <oscillator_strength_4>
0.0001

>  <open_babel_can_smiles>
O/C=N/CCCC[C@H](C(=O)O)N

>  <mulliken_charges>
26
1   -0.278021
2   -0.251415
3   -0.285942
4   -0.146651
5   0.280192
6   -0.067398
7   0.604915
8   -0.776812
9   -0.406499
10   -0.558811
11   -0.47009
12   -0.58339
13   0.159561
14   0.132478
15   0.141018
16   0.14248
17   0.13525
18   0.174953
19   0.142515
20   0.12267
21   0.140805
22   0.159445
23   0.325566
24   0.322764
25   0.40659
26   0.433829

>  <lowdin_charges>
26
1   -0.285117
2   -0.278841
3   -0.277113
4   -0.195443
5   0.010913
6   -0.106695
7   0.172282
8   -0.551773
9   -0.231095
10   -0.360806
11   -0.259959
12   -0.356837
13   0.153577
14   0.13989
15   0.14598
16   0.147025
17   0.143201
18   0.167013
19   0.144907
20   0.127211
21   0.14018
22   0.155254
23   0.271661
24   0.26994
25   0.358148
26   0.356498

$$$$

