PCCDB-ID:  6562
public computational chemistry database (PCCDB) project, http://pccdb.org

 11 10  0  0  0  0  0  0  0  0999 V2000
    1.0282    0.0983    0.0044 C   0  0  0  0  0  0  0  0  0  0  0  0
    3.1688   -1.2287   -0.1902 C   0  0  0  0  0  0  0  0  0  0  0  0
    3.1231    1.3057    0.0668 C   0  0  0  0  0  0  0  0  0  0  0  0
    2.3672    0.0342   -0.0395 C   0  0  0  0  0  0  0  0  0  0  0  0
    4.3363    1.3819    0.0331 O   0  0  0  0  0  0  0  0  0  0  0  0
    0.4016   -0.7865   -0.0683 H   0  0  0  0  0  0  0  0  0  0  0  0
    0.5144    1.0509    0.1159 H   0  0  0  0  0  0  0  0  0  0  0  0
    2.5226   -2.1083   -0.2580 H   0  0  0  0  0  0  0  0  0  0  0  0
    3.8515   -1.3545    0.6578 H   0  0  0  0  0  0  0  0  0  0  0  0
    3.7978   -1.1804   -1.0864 H   0  0  0  0  0  0  0  0  0  0  0  0
    2.4941    2.2165    0.1828 H   0  0  0  0  0  0  0  0  0  0  0  0
  1  7  1  0  0  0  0
  2  4  1  0  0  0  0
  2  9  1  0  0  0  0
  3 11  1  0  0  0  0
  4  1  2  0  0  0  0
  4  3  1  0  0  0  0
  5  3  2  0  0  0  0
  6  1  1  0  0  0  0
  8  2  1  0  0  0  0
 10  2  1  0  0  0  0
M  END
>  <HBA>
1

>  <HBD>
0

>  <TPSA>
17.07

>  <cid>
6562

>  <dipole>
2.82

>  <excitation_energy_1>
3.706

>  <excitation_energy_2>
5.84

>  <excitation_energy_3>
6.612

>  <excitation_energy_4>
6.664

>  <homo_energy>
-6.95

>  <homo_lumo_gap>
5.361

>  <logP>
0.761

>  <lumo_energy>
-1.589

>  <melting_point>
-10.69

>  <molecular_refractivity>
21.07

>  <oscillator_strength_1>
0.0002

>  <oscillator_strength_2>
0.296

>  <oscillator_strength_3>
0.0008

>  <oscillator_strength_4>
0.0259

>  <open_babel_can_smiles>
CC(=C)C=O

>  <mulliken_charges>
11
1   -0.380253
2   -0.506479
3   0.20249
4   0.165673
5   -0.401951
6   0.158791
7   0.15767
8   0.150915
9   0.176156
10   0.176339
11   0.100649

>  <lowdin_charges>
11
1   -0.301299
2   -0.438509
3   0.038487
4   -0.028461
5   -0.223982
6   0.168371
7   0.165443
8   0.157706
9   0.171634
10   0.171479
11   0.119132

$$$$

