PCCDB-ID:  66182
public computational chemistry database (PCCDB) project, http://pccdb.org

 34 35  0  0  0  0  0  0  0  0999 V2000
    3.1170    3.9648   -1.8039 C   0  0  0  0  0  0  0  0  0  0  0  0
    2.0905   -4.2714    4.0965 C   0  0  0  0  0  0  0  0  0  0  0  0
    3.0910    3.9092   -0.4105 C   0  0  0  0  0  0  0  0  0  0  0  0
    2.5936    2.9014   -2.5435 C   0  0  0  0  0  0  0  0  0  0  0  0
    3.3610   -4.2660    3.5159 C   0  0  0  0  0  0  0  0  0  0  0  0
    1.3335   -3.0998    4.1012 C   0  0  0  0  0  0  0  0  0  0  0  0
    2.3043   -0.7699    0.0765 C   0  0  0  0  0  0  0  0  0  0  0  0
    3.6849   -0.6956    0.7469 C   0  0  0  0  0  0  0  0  0  0  0  0
    2.5471    2.7972    0.2367 C   0  0  0  0  0  0  0  0  0  0  0  0
    2.0526    1.7940   -1.8916 C   0  0  0  0  0  0  0  0  0  0  0  0
    3.8647   -3.0984    2.9439 C   0  0  0  0  0  0  0  0  0  0  0  0
    1.8438   -1.9333    3.5268 C   0  0  0  0  0  0  0  0  0  0  0  0
    1.4405    0.5062    0.2050 C   0  0  0  0  0  0  0  0  0  0  0  0
    3.6673   -0.6568    2.2930 C   0  0  0  0  0  0  0  0  0  0  0  0
    2.0218    1.7213   -0.4906 C   0  0  0  0  0  0  0  0  0  0  0  0
    3.1142   -1.9128    2.9365 C   0  0  0  0  0  0  0  0  0  0  0  0
    3.5376    4.8294   -2.3105 H   0  0  0  0  0  0  0  0  0  0  0  0
    1.6970   -5.1800    4.5445 H   0  0  0  0  0  0  0  0  0  0  0  0
    3.4922    4.7318    0.1762 H   0  0  0  0  0  0  0  0  0  0  0  0
    2.6012    2.9381   -3.6300 H   0  0  0  0  0  0  0  0  0  0  0  0
    3.9622   -5.1718    3.5128 H   0  0  0  0  0  0  0  0  0  0  0  0
    0.3457   -3.0903    4.5550 H   0  0  0  0  0  0  0  0  0  0  0  0
    1.7422   -1.6164    0.4909 H   0  0  0  0  0  0  0  0  0  0  0  0
    2.4470   -0.9858   -0.9906 H   0  0  0  0  0  0  0  0  0  0  0  0
    4.2217    0.1890    0.3810 H   0  0  0  0  0  0  0  0  0  0  0  0
    4.2738   -1.5666    0.4303 H   0  0  0  0  0  0  0  0  0  0  0  0
    2.5246    2.7665    1.3240 H   0  0  0  0  0  0  0  0  0  0  0  0
    1.6405    0.9747   -2.4774 H   0  0  0  0  0  0  0  0  0  0  0  0
    4.8589   -3.1031    2.5013 H   0  0  0  0  0  0  0  0  0  0  0  0
    1.2487   -1.0226    3.5414 H   0  0  0  0  0  0  0  0  0  0  0  0
    1.2749    0.7388    1.2642 H   0  0  0  0  0  0  0  0  0  0  0  0
    0.4495    0.2886   -0.2156 H   0  0  0  0  0  0  0  0  0  0  0  0
    3.0940    0.2126    2.6377 H   0  0  0  0  0  0  0  0  0  0  0  0
    4.6972   -0.4968    2.6390 H   0  0  0  0  0  0  0  0  0  0  0  0
  1  3  2  0  0  0  0
  2  6  1  0  0  0  0
  2 18  1  0  0  0  0
  3 19  1  0  0  0  0
  3  9  1  0  0  0  0
  4 10  2  0  0  0  0
  4  1  1  0  0  0  0
  5  2  2  0  0  0  0
  6 22  1  0  0  0  0
  7 13  1  0  0  0  0
  7 23  1  0  0  0  0
  7  8  1  0  0  0  0
  8 14  1  0  0  0  0
  9 27  1  0  0  0  0
 10 15  1  0  0  0  0
 11  5  1  0  0  0  0
 12 30  1  0  0  0  0
 12  6  2  0  0  0  0
 13 31  1  0  0  0  0
 14 33  1  0  0  0  0
 14 34  1  0  0  0  0
 14 16  1  0  0  0  0
 15 13  1  0  0  0  0
 15  9  2  0  0  0  0
 16 11  2  0  0  0  0
 16 12  1  0  0  0  0
 17  1  1  0  0  0  0
 20  4  1  0  0  0  0
 21  5  1  0  0  0  0
 24  7  1  0  0  0  0
 25  8  1  0  0  0  0
 26  8  1  0  0  0  0
 28 10  1  0  0  0  0
 29 11  1  0  0  0  0
 32 13  1  0  0  0  0
M  END
>  <HBA>
0

>  <HBD>
0

>  <TPSA>
0.0

>  <cid>
66182

>  <dipole>
0.17

>  <excitation_energy_1>
5.28

>  <excitation_energy_2>
5.283

>  <excitation_energy_3>
5.786

>  <excitation_energy_4>
5.829

>  <homo_energy>
-6.384

>  <homo_lumo_gap>
6.427

>  <logP>
4.252

>  <lumo_energy>
0.044

>  <melting_point>
35.55

>  <molecular_refractivity>
70.32

>  <oscillator_strength_1>
0.0011

>  <oscillator_strength_2>
0.002

>  <oscillator_strength_3>
0.0956

>  <oscillator_strength_4>
0.0

>  <open_babel_can_smiles>
C(Cc1ccccc1)CCc1ccccc1

>  <mulliken_charges>
34
1   -0.132707
2   -0.132569
3   -0.126088
4   -0.127503
5   -0.12741
6   -0.126434
7   -0.257858
8   -0.256996
9   -0.190297
10   -0.18158
11   -0.181596
12   -0.189658
13   -0.353408
14   -0.353091
15   0.18041
16   0.179849
17   0.126758
18   0.126712
19   0.127069
20   0.127226
21   0.12726
22   0.12708
23   0.145335
24   0.134315
25   0.145238
26   0.134259
27   0.121452
28   0.12307
29   0.122792
30   0.121832
31   0.138492
32   0.145103
33   0.138542
34   0.1444

>  <lowdin_charges>
34
1   -0.16332
2   -0.163129
3   -0.157203
4   -0.152643
5   -0.155806
6   -0.154641
7   -0.275938
8   -0.277529
9   -0.169192
10   -0.168352
11   -0.165654
12   -0.172408
13   -0.27518
14   -0.277228
15   -0.000181
16   2.1e-05
17   0.157162
18   0.156829
19   0.157416
20   0.15421
21   0.156681
22   0.155587
23   0.149945
24   0.142194
25   0.149583
26   0.144478
27   0.150582
28   0.154813
29   0.152874
30   0.153094
31   0.143151
32   0.152467
33   0.145523
34   0.151796

$$$$

