PCCDB-ID:  22873
public computational chemistry database (PCCDB) project, http://pccdb.org

 38 37  0  0  0  0  0  0  0  0999 V2000
    5.3393   -2.8431   -0.4761 C   0  0  0  0  0  0  0  0  0  0  0  0
   13.0914    5.0584   -2.7431 C   0  0  0  0  0  0  0  0  0  0  0  0
    6.8424   -2.5550   -0.5709 C   0  0  0  0  0  0  0  0  0  0  0  0
   12.2910    5.7982   -1.6666 C   0  0  0  0  0  0  0  0  0  0  0  0
    7.1919   -1.1372   -1.0521 C   0  0  0  0  0  0  0  0  0  0  0  0
   10.8288    5.3430   -1.5832 C   0  0  0  0  0  0  0  0  0  0  0  0
    6.7723   -0.0142   -0.0926 C   0  0  0  0  0  0  0  0  0  0  0  0
   10.0271    6.0822   -0.5040 C   0  0  0  0  0  0  0  0  0  0  0  0
    7.2083    1.3750   -0.5789 C   0  0  0  0  0  0  0  0  0  0  0  0
    8.5597    5.6486   -0.4198 C   0  0  0  0  0  0  0  0  0  0  0  0
    6.7913    2.4797    0.3865 C   0  0  0  0  0  0  0  0  0  0  0  0
    8.3743    4.2461    0.1328 C   0  0  0  0  0  0  0  0  0  0  0  0
    9.2080    3.6191    0.7528 O   0  0  0  0  0  0  0  0  0  0  0  0
    7.1267    3.7907   -0.1271 O   0  0  0  0  0  0  0  0  0  0  0  0
    5.1563   -3.8840   -0.1856 H   0  0  0  0  0  0  0  0  0  0  0  0
    4.8437   -2.6756   -1.4407 H   0  0  0  0  0  0  0  0  0  0  0  0
    4.8453   -2.2050    0.2652 H   0  0  0  0  0  0  0  0  0  0  0  0
   14.1317    5.4019   -2.7762 H   0  0  0  0  0  0  0  0  0  0  0  0
   12.6573    5.2150   -3.7385 H   0  0  0  0  0  0  0  0  0  0  0  0
   13.1030    3.9779   -2.5544 H   0  0  0  0  0  0  0  0  0  0  0  0
    7.2999   -3.2790   -1.2584 H   0  0  0  0  0  0  0  0  0  0  0  0
    7.3112   -2.7295    0.4082 H   0  0  0  0  0  0  0  0  0  0  0  0
   12.3254    6.8797   -1.8629 H   0  0  0  0  0  0  0  0  0  0  0  0
   12.7699    5.6508   -0.6884 H   0  0  0  0  0  0  0  0  0  0  0  0
    6.7312   -0.9643   -2.0363 H   0  0  0  0  0  0  0  0  0  0  0  0
    8.2778   -1.0754   -1.2097 H   0  0  0  0  0  0  0  0  0  0  0  0
   10.7971    4.2649   -1.3790 H   0  0  0  0  0  0  0  0  0  0  0  0
   10.3463    5.4916   -2.5616 H   0  0  0  0  0  0  0  0  0  0  0  0
    7.2090   -0.2068    0.8986 H   0  0  0  0  0  0  0  0  0  0  0  0
    5.6821   -0.0252    0.0446 H   0  0  0  0  0  0  0  0  0  0  0  0
   10.0583    7.1620   -0.7024 H   0  0  0  0  0  0  0  0  0  0  0  0
   10.4986    5.9245    0.4733 H   0  0  0  0  0  0  0  0  0  0  0  0
    6.7714    1.5820   -1.5649 H   0  0  0  0  0  0  0  0  0  0  0  0
    8.2983    1.4032   -0.6948 H   0  0  0  0  0  0  0  0  0  0  0  0
    8.0643    5.7054   -1.3964 H   0  0  0  0  0  0  0  0  0  0  0  0
    7.9962    6.3234    0.2400 H   0  0  0  0  0  0  0  0  0  0  0  0
    7.2673    2.3491    1.3622 H   0  0  0  0  0  0  0  0  0  0  0  0
    5.7052    2.5061    0.5137 H   0  0  0  0  0  0  0  0  0  0  0  0
  1 15  1  0  0  0  0
  1 17  1  0  0  0  0
  2 20  1  0  0  0  0
  2  4  1  0  0  0  0
  3  1  1  0  0  0  0
  3 22  1  0  0  0  0
  4  6  1  0  0  0  0
  4 24  1  0  0  0  0
  5  3  1  0  0  0  0
  5  7  1  0  0  0  0
  6 27  1  0  0  0  0
  6  8  1  0  0  0  0
  7 30  1  0  0  0  0
  7 29  1  0  0  0  0
  8 10  1  0  0  0  0
  8 32  1  0  0  0  0
  9  7  1  0  0  0  0
  9 11  1  0  0  0  0
 10 12  1  0  0  0  0
 10 36  1  0  0  0  0
 11 38  1  0  0  0  0
 11 37  1  0  0  0  0
 12 13  2  0  0  0  0
 14 12  1  0  0  0  0
 14 11  1  0  0  0  0
 16  1  1  0  0  0  0
 18  2  1  0  0  0  0
 19  2  1  0  0  0  0
 21  3  1  0  0  0  0
 23  4  1  0  0  0  0
 25  5  1  0  0  0  0
 26  5  1  0  0  0  0
 28  6  1  0  0  0  0
 31  8  1  0  0  0  0
 33  9  1  0  0  0  0
 34  9  1  0  0  0  0
 35 10  1  0  0  0  0
M  END
>  <HBA>
2

>  <HBD>
0

>  <TPSA>
26.3

>  <cid>
22873

>  <dipole>
1.48

>  <excitation_energy_1>
5.813

>  <excitation_energy_2>
6.965

>  <excitation_energy_3>
7.305

>  <excitation_energy_4>
7.409

>  <homo_energy>
-7.252

>  <homo_lumo_gap>
7.714

>  <logP>
3.69

>  <lumo_energy>
0.463

>  <melting_point>
-18.11

>  <molecular_refractivity>
61.08

>  <oscillator_strength_1>
0.0007

>  <oscillator_strength_2>
0.0195

>  <oscillator_strength_3>
0.0211

>  <oscillator_strength_4>
0.0675

>  <open_babel_can_smiles>
CCCCCCOC(=O)CCCCC

>  <mulliken_charges>
38
1   -0.443639
2   -0.442115
3   -0.249906
4   -0.247808
5   -0.248826
6   -0.252226
7   -0.264725
8   -0.251015
9   -0.278042
10   -0.362506
11   -0.04484
12   0.626574
13   -0.484229
14   -0.468029
15   0.143444
16   0.140818
17   0.145172
18   0.141005
19   0.139371
20   0.143791
21   0.132509
22   0.13152
23   0.127277
24   0.135668
25   0.12776
26   0.132541
27   0.148505
28   0.121168
29   0.135553
30   0.133256
31   0.128354
32   0.154085
33   0.140923
34   0.158971
35   0.165199
36   0.171832
37   0.165449
38   0.147161

>  <lowdin_charges>
38
1   -0.447664
2   -0.440525
3   -0.273825
4   -0.268911
5   -0.271577
6   -0.276247
7   -0.273381
8   -0.27026
9   -0.284118
10   -0.303995
11   -0.129306
12   0.20108
13   -0.273867
14   -0.196914
15   0.149423
16   0.145789
17   0.147826
18   0.147698
19   0.144567
20   0.145621
21   0.144039
22   0.139242
23   0.135014
24   0.141224
25   0.137456
26   0.14068
27   0.146064
28   0.133789
29   0.140857
30   0.137592
31   0.140687
32   0.153485
33   0.145204
34   0.152705
35   0.164287
36   0.172859
37   0.155784
38   0.147617

$$$$

