PCCDB-ID:  26292
public computational chemistry database (PCCDB) project, http://pccdb.org

 22 23  0  0  0  0  0  0  0  0999 V2000
    2.5828    1.4135   -0.2500 C   0  0  0  0  0  0  0  0  0  0  0  0
    1.8025    2.5640   -0.0097 C   0  0  0  0  0  0  0  0  0  0  0  0
    2.0071    0.1553   -0.3488 C   0  0  0  0  0  0  0  0  0  0  0  0
    0.4260    2.4758    0.1409 C   0  0  0  0  0  0  0  0  0  0  0  0
   -1.5934   -0.5292   -0.0199 C   0  0  0  0  0  0  0  0  0  0  0  0
    0.6104    0.0334   -0.2082 C   0  0  0  0  0  0  0  0  0  0  0  0
   -0.1589    1.2081    0.0406 C   0  0  0  0  0  0  0  0  0  0  0  0
   -0.3440   -1.0438   -0.2392 C   0  0  0  0  0  0  0  0  0  0  0  0
   -1.4819    0.8383    0.1465 N   0  0  0  0  0  0  0  0  0  0  0  0
    0.6282   -4.7031   -0.7658 O   0  0  0  0  0  0  0  0  0  0  0  0
    1.8297   -2.8463   -1.9884 O   0  0  0  0  0  0  0  0  0  0  0  0
    2.1689   -3.0520    0.5649 O   0  0  0  0  0  0  0  0  0  0  0  0
   -0.1790   -2.4022   -0.4852 O   0  0  0  0  0  0  0  0  0  0  0  0
    1.2171   -3.2164   -0.5460 P   0  0  0  0  0  0  0  0  0  0  0  0
    3.6592    1.5141   -0.3547 H   0  0  0  0  0  0  0  0  0  0  0  0
    2.2867    3.5337    0.0642 H   0  0  0  0  0  0  0  0  0  0  0  0
    2.6293   -0.7168   -0.5095 H   0  0  0  0  0  0  0  0  0  0  0  0
   -0.1800    3.3576    0.3323 H   0  0  0  0  0  0  0  0  0  0  0  0
   -2.5451   -1.0372    0.0216 H   0  0  0  0  0  0  0  0  0  0  0  0
   -2.2490    1.4619    0.3405 H   0  0  0  0  0  0  0  0  0  0  0  0
    0.7483   -5.2283    0.0425 H   0  0  0  0  0  0  0  0  0  0  0  0
    1.1592   -2.8242   -2.6912 H   0  0  0  0  0  0  0  0  0  0  0  0
  1  2  1  0  0  0  0
  2 16  1  0  0  0  0
  2  4  2  0  0  0  0
  3  1  2  0  0  0  0
  3  6  1  0  0  0  0
  4 18  1  0  0  0  0
  5 19  1  0  0  0  0
  5  9  1  0  0  0  0
  6  7  2  0  0  0  0
  7  4  1  0  0  0  0
  7  9  1  0  0  0  0
  8  6  1  0  0  0  0
  8  5  2  0  0  0  0
  9 20  1  0  0  0  0
 10 14  1  0  0  0  0
 10 21  1  0  0  0  0
 11 14  1  0  0  0  0
 13  8  1  0  0  0  0
 14 13  1  0  0  0  0
 14 12  2  0  0  0  0
 15  1  1  0  0  0  0
 17  3  1  0  0  0  0
 22 11  1  0  0  0  0
M  END
>  <HBA>
4

>  <HBD>
3

>  <TPSA>
92.36

>  <cid>
26292

>  <dipole>
4.48

>  <excitation_energy_1>
4.42

>  <excitation_energy_2>
4.529

>  <excitation_energy_3>
4.669

>  <excitation_energy_4>
4.834

>  <homo_energy>
-5.388

>  <homo_lumo_gap>
5.119

>  <logP>
1.639

>  <lumo_energy>
-0.269

>  <melting_point>
188.03

>  <molecular_refractivity>
50.97

>  <oscillator_strength_1>
0.0102

>  <oscillator_strength_2>
0.0733

>  <oscillator_strength_3>
0.0005

>  <oscillator_strength_4>
0.0149

>  <open_babel_can_smiles>
OP(=O)(Oc1c[nH]c2c1cccc2)O

>  <mulliken_charges>
22
1   -0.144719
2   -0.148199
3   -0.19828
4   -0.160779
5   0.025045
6   0.103015
7   0.303358
8   0.215859
9   -0.693218
10   -0.635904
11   -0.650983
12   -0.554284
13   -0.586492
14   1.198501
15   0.126974
16   0.125555
17   0.177228
18   0.122356
19   0.160326
20   0.331079
21   0.446014
22   0.437549

>  <lowdin_charges>
22
1   -0.171019
2   -0.159613
3   -0.155625
4   -0.189272
5   -0.1481
6   -0.051115
7   0.038236
8   0.046801
9   -0.199275
10   -0.564026
11   -0.558123
12   -0.571162
13   -0.344645
14   1.128512
15   0.15623
16   0.15696
17   0.181823
18   0.156961
19   0.174166
20   0.295126
21   0.390101
22   0.387059

$$$$

