PCCDB-ID:  61743
public computational chemistry database (PCCDB) project, http://pccdb.org

 30 29  0  0  0  0  0  0  0  0999 V2000
    9.3681   -1.2230    1.1476 C   0  0  0  0  0  0  0  0  0  0  0  0
    9.2515   -0.9310   -0.1491 C   0  0  0  0  0  0  0  0  0  0  0  0
    8.2620    0.0373   -0.7405 C   0  0  0  0  0  0  0  0  0  0  0  0
    7.4202   -0.4946   -1.9217 C   0  0  0  0  0  0  0  0  0  0  0  0
    6.3552   -1.5539   -1.5803 C   0  0  0  0  0  0  0  0  0  0  0  0
    6.8936   -2.9769   -1.3600 C   0  0  0  0  0  0  0  0  0  0  0  0
    5.8035   -4.0489   -1.1921 C   0  0  0  0  0  0  0  0  0  0  0  0
    4.9654   -3.9063    0.0877 C   0  0  0  0  0  0  0  0  0  0  0  0
    3.9004   -5.0109    0.2656 C   0  0  0  0  0  0  0  0  0  0  0  0
    4.5397   -6.3729    0.5095 C   0  0  0  0  0  0  0  0  0  0  0  0
    4.9471   -6.7367    1.5838 O   0  0  0  0  0  0  0  0  0  0  0  0
    4.6867   -7.1807   -0.5809 O   0  0  0  0  0  0  0  0  0  0  0  0
   10.1241   -1.9117    1.5152 H   0  0  0  0  0  0  0  0  0  0  0  0
    8.7123   -0.7787    1.8941 H   0  0  0  0  0  0  0  0  0  0  0  0
    9.9346   -1.4010   -0.8599 H   0  0  0  0  0  0  0  0  0  0  0  0
    8.8199    0.9130   -1.1078 H   0  0  0  0  0  0  0  0  0  0  0  0
    7.5947    0.4098    0.0486 H   0  0  0  0  0  0  0  0  0  0  0  0
    8.0918   -0.8888   -2.6988 H   0  0  0  0  0  0  0  0  0  0  0  0
    6.9133    0.3686   -2.3728 H   0  0  0  0  0  0  0  0  0  0  0  0
    5.6284   -1.5858   -2.4056 H   0  0  0  0  0  0  0  0  0  0  0  0
    5.7938   -1.2180   -0.6971 H   0  0  0  0  0  0  0  0  0  0  0  0
    7.5577   -2.9973   -0.4884 H   0  0  0  0  0  0  0  0  0  0  0  0
    7.5149   -3.2508   -2.2246 H   0  0  0  0  0  0  0  0  0  0  0  0
    6.2848   -5.0362   -1.1989 H   0  0  0  0  0  0  0  0  0  0  0  0
    5.1335   -4.0238   -2.0669 H   0  0  0  0  0  0  0  0  0  0  0  0
    4.4485   -2.9395    0.0932 H   0  0  0  0  0  0  0  0  0  0  0  0
    5.6239   -3.9179    0.9656 H   0  0  0  0  0  0  0  0  0  0  0  0
    3.2315   -5.0325   -0.6059 H   0  0  0  0  0  0  0  0  0  0  0  0
    3.2886   -4.7893    1.1450 H   0  0  0  0  0  0  0  0  0  0  0  0
    4.3188   -6.7441   -1.3658 H   0  0  0  0  0  0  0  0  0  0  0  0
  1 13  1  0  0  0  0
  1 14  1  0  0  0  0
  2  1  2  0  0  0  0
  3  2  1  0  0  0  0
  3 17  1  0  0  0  0
  4  5  1  0  0  0  0
  4  3  1  0  0  0  0
  5  6  1  0  0  0  0
  5 21  1  0  0  0  0
  6  7  1  0  0  0  0
  6 22  1  0  0  0  0
  7  8  1  0  0  0  0
  8 26  1  0  0  0  0
  8  9  1  0  0  0  0
  8 27  1  0  0  0  0
  9 10  1  0  0  0  0
  9 29  1  0  0  0  0
 10 11  2  0  0  0  0
 12 10  1  0  0  0  0
 15  2  1  0  0  0  0
 16  3  1  0  0  0  0
 18  4  1  0  0  0  0
 19  4  1  0  0  0  0
 20  5  1  0  0  0  0
 23  6  1  0  0  0  0
 24  7  1  0  0  0  0
 25  7  1  0  0  0  0
 28  9  1  0  0  0  0
 30 12  1  0  0  0  0
M  END
>  <HBA>
2

>  <HBD>
1

>  <TPSA>
37.3

>  <cid>
61743

>  <dipole>
4.6

>  <excitation_energy_1>
5.596

>  <excitation_energy_2>
6.144

>  <excitation_energy_3>
6.368

>  <excitation_energy_4>
6.464

>  <homo_energy>
-6.822

>  <homo_lumo_gap>
7.089

>  <logP>
2.988

>  <lumo_energy>
0.267

>  <melting_point>
27.34

>  <molecular_refractivity>
51.48

>  <oscillator_strength_1>
0.0016

>  <oscillator_strength_2>
0.0022

>  <oscillator_strength_3>
0.0534

>  <oscillator_strength_4>
0.0026

>  <open_babel_can_smiles>
C=CCCCCCCCC(=O)O

>  <mulliken_charges>
30
1   -0.345044
2   -0.03408
3   -0.300608
4   -0.265472
5   -0.25215
6   -0.260361
7   -0.279261
8   -0.260765
9   -0.365936
10   0.584419
11   -0.438361
12   -0.561718
13   0.141032
14   0.135115
15   0.124453
16   0.146131
17   0.13667
18   0.130708
19   0.132666
20   0.125506
21   0.132316
22   0.155084
23   0.126929
24   0.145095
25   0.117122
26   0.147596
27   0.164823
28   0.131769
29   0.17924
30   0.407083

>  <lowdin_charges>
30
1   -0.348706
2   -0.145092
3   -0.275216
4   -0.276628
5   -0.278605
6   -0.282494
7   -0.285217
8   -0.27005
9   -0.315087
10   0.194116
11   -0.241705
12   -0.362028
13   0.160012
14   0.154892
15   0.149941
16   0.153763
17   0.14637
18   0.140667
19   0.146092
20   0.139123
21   0.13984
22   0.15404
23   0.141349
24   0.146428
25   0.131438
26   0.148629
27   0.157364
28   0.143952
29   0.175754
30   0.357061

$$$$

