PCCDB-ID:  39801
public computational chemistry database (PCCDB) project, http://pccdb.org

 36 35  0  0  0  0  0  0  0  0999 V2000
    5.1337   -2.1356   -4.1457 C   0  0  0  0  0  0  0  0  0  0  0  0
   11.9878   -2.5858    7.3342 C   0  0  0  0  0  0  0  0  0  0  0  0
    4.6524   -2.8089   -3.1001 C   0  0  0  0  0  0  0  0  0  0  0  0
    5.3651   -3.0091   -1.7901 C   0  0  0  0  0  0  0  0  0  0  0  0
    4.5952   -2.4068   -0.5972 C   0  0  0  0  0  0  0  0  0  0  0  0
    5.2280   -2.6887    0.7758 C   0  0  0  0  0  0  0  0  0  0  0  0
    6.5885   -2.0155    1.0049 C   0  0  0  0  0  0  0  0  0  0  0  0
    7.1559   -2.2638    2.4089 C   0  0  0  0  0  0  0  0  0  0  0  0
    8.5197   -1.6014    2.6423 C   0  0  0  0  0  0  0  0  0  0  0  0
    9.0795   -1.8592    4.0482 C   0  0  0  0  0  0  0  0  0  0  0  0
   10.4456   -1.2128    4.2525 C   0  0  0  0  0  0  0  0  0  0  0  0
   11.5561   -2.5478    5.8859 C   0  0  0  0  0  0  0  0  0  0  0  0
   11.7524   -3.4250    5.0731 O   0  0  0  0  0  0  0  0  0  0  0  0
   10.9209   -1.3844    5.6088 O   0  0  0  0  0  0  0  0  0  0  0  0
    4.5655   -2.0191   -5.0648 H   0  0  0  0  0  0  0  0  0  0  0  0
    6.1203   -1.6762   -4.1238 H   0  0  0  0  0  0  0  0  0  0  0  0
   12.4588   -3.5458    7.5478 H   0  0  0  0  0  0  0  0  0  0  0  0
   11.1242   -2.4372    7.9903 H   0  0  0  0  0  0  0  0  0  0  0  0
   12.6938   -1.7733    7.5360 H   0  0  0  0  0  0  0  0  0  0  0  0
    3.6554   -3.2494   -3.1684 H   0  0  0  0  0  0  0  0  0  0  0  0
    6.3709   -2.5762   -1.8538 H   0  0  0  0  0  0  0  0  0  0  0  0
    5.4977   -4.0875   -1.6082 H   0  0  0  0  0  0  0  0  0  0  0  0
    3.5710   -2.8054   -0.6025 H   0  0  0  0  0  0  0  0  0  0  0  0
    4.5003   -1.3219   -0.7445 H   0  0  0  0  0  0  0  0  0  0  0  0
    5.3339   -3.7757    0.9098 H   0  0  0  0  0  0  0  0  0  0  0  0
    4.5319   -2.3533    1.5576 H   0  0  0  0  0  0  0  0  0  0  0  0
    6.4871   -0.9324    0.8390 H   0  0  0  0  0  0  0  0  0  0  0  0
    7.3129   -2.3719    0.2597 H   0  0  0  0  0  0  0  0  0  0  0  0
    7.2478   -3.3466    2.5783 H   0  0  0  0  0  0  0  0  0  0  0  0
    6.4408   -1.8977    3.1604 H   0  0  0  0  0  0  0  0  0  0  0  0
    8.4305   -0.5178    2.4738 H   0  0  0  0  0  0  0  0  0  0  0  0
    9.2341   -1.9705    1.8921 H   0  0  0  0  0  0  0  0  0  0  0  0
    9.1733   -2.9383    4.2186 H   0  0  0  0  0  0  0  0  0  0  0  0
    8.3857   -1.4700    4.8052 H   0  0  0  0  0  0  0  0  0  0  0  0
   10.3953   -0.1286    4.1175 H   0  0  0  0  0  0  0  0  0  0  0  0
   11.1848   -1.6297    3.5629 H   0  0  0  0  0  0  0  0  0  0  0  0
  1 16  1  0  0  0  0
  1  3  2  0  0  0  0
  2 19  1  0  0  0  0
  2 17  1  0  0  0  0
  2 18  1  0  0  0  0
  3  4  1  0  0  0  0
  4 22  1  0  0  0  0
  4  5  1  0  0  0  0
  5  6  1  0  0  0  0
  6 25  1  0  0  0  0
  6  7  1  0  0  0  0
  6 26  1  0  0  0  0
  7  8  1  0  0  0  0
  8 29  1  0  0  0  0
  8  9  1  0  0  0  0
  8 30  1  0  0  0  0
  9 10  1  0  0  0  0
 10 33  1  0  0  0  0
 10 11  1  0  0  0  0
 10 34  1  0  0  0  0
 11 14  1  0  0  0  0
 12  2  1  0  0  0  0
 13 12  2  0  0  0  0
 14 12  1  0  0  0  0
 15  1  1  0  0  0  0
 20  3  1  0  0  0  0
 21  4  1  0  0  0  0
 23  5  1  0  0  0  0
 24  5  1  0  0  0  0
 27  7  1  0  0  0  0
 28  7  1  0  0  0  0
 31  9  1  0  0  0  0
 32  9  1  0  0  0  0
 35 11  1  0  0  0  0
 36 11  1  0  0  0  0
M  END
>  <HBA>
2

>  <HBD>
0

>  <TPSA>
26.3

>  <cid>
39801

>  <dipole>
1.8

>  <excitation_energy_1>
5.809

>  <excitation_energy_2>
6.462

>  <excitation_energy_3>
6.737

>  <excitation_energy_4>
6.776

>  <homo_energy>
-6.784

>  <homo_lumo_gap>
7.222

>  <logP>
3.466

>  <lumo_energy>
0.438

>  <melting_point>
-38.7

>  <molecular_refractivity>
60.61

>  <oscillator_strength_1>
0.0011

>  <oscillator_strength_2>
0.0342

>  <oscillator_strength_3>
0.0039

>  <oscillator_strength_4>
0.001

>  <open_babel_can_smiles>
C=CCCCCCCCCOC(=O)C

>  <mulliken_charges>
36
1   -0.341924
2   -0.522567
3   -0.040878
4   -0.302481
5   -0.256394
6   -0.255652
7   -0.256103
8   -0.252564
9   -0.264876
10   -0.279194
11   -0.042534
12   0.600379
13   -0.47037
14   -0.456254
15   0.136683
16   0.132833
17   0.181355
18   0.180003
19   0.1815
20   0.122224
21   0.141074
22   0.139049
23   0.129506
24   0.136495
25   0.12815
26   0.129102
27   0.127647
28   0.134475
29   0.133327
30   0.128913
31   0.129015
32   0.136723
33   0.160754
34   0.140139
35   0.147149
36   0.165296

>  <lowdin_charges>
36
1   -0.344878
2   -0.466411
3   -0.142558
4   -0.271337
5   -0.270996
6   -0.274339
7   -0.275885
8   -0.271486
9   -0.272948
10   -0.28659
11   -0.1309
12   0.202111
13   -0.269604
14   -0.20063
15   0.157221
16   0.151992
17   0.174869
18   0.177072
19   0.178371
20   0.146713
21   0.145436
22   0.14515
23   0.140501
24   0.140514
25   0.136189
26   0.142302
27   0.135937
28   0.140869
29   0.138903
30   0.13942
31   0.136281
32   0.142975
33   0.153942
34   0.146332
35   0.147959
36   0.157501

$$$$

