PCCDB-ID:  21964
public computational chemistry database (PCCDB) project, http://pccdb.org

 22 21  0  0  0  0  0  0  0  0999 V2000
    3.4770    0.8096    0.8073 C   0  0  0  0  0  0  0  0  0  0  0  0
    1.5406    0.7916   -0.8345 C   0  0  0  0  0  0  0  0  0  0  0  0
    3.5747   -5.9267   -1.2041 C   0  0  0  0  0  0  0  0  0  0  0  0
    2.7065   -2.5110   -0.2203 C   0  0  0  0  0  0  0  0  0  0  0  0
    2.9538   -1.2308   -0.5147 C   0  0  0  0  0  0  0  0  0  0  0  0
    3.3714   -3.5900   -0.9845 C   0  0  0  0  0  0  0  0  0  0  0  0
    2.3519   -0.0385    0.1805 C   0  0  0  0  0  0  0  0  0  0  0  0
    4.1614   -3.4417   -1.8980 O   0  0  0  0  0  0  0  0  0  0  0  0
    1.4857   -0.5320    1.2069 O   0  0  0  0  0  0  0  0  0  0  0  0
    2.9836   -4.8078   -0.5299 O   0  0  0  0  0  0  0  0  0  0  0  0
    4.1865    1.1610    0.0501 H   0  0  0  0  0  0  0  0  0  0  0  0
    4.0214    0.2204    1.5510 H   0  0  0  0  0  0  0  0  0  0  0  0
    3.0531    1.6926    1.3034 H   0  0  0  0  0  0  0  0  0  0  0  0
    2.1679    1.1443   -1.6605 H   0  0  0  0  0  0  0  0  0  0  0  0
    1.1098    1.6734   -0.3422 H   0  0  0  0  0  0  0  0  0  0  0  0
    0.7251    0.1894   -1.2456 H   0  0  0  0  0  0  0  0  0  0  0  0
    3.1618   -6.8129   -0.7206 H   0  0  0  0  0  0  0  0  0  0  0  0
    4.6637   -5.9065   -1.1041 H   0  0  0  0  0  0  0  0  0  0  0  0
    3.3201   -5.9153   -2.2677 H   0  0  0  0  0  0  0  0  0  0  0  0
    2.0256   -2.7928    0.5742 H   0  0  0  0  0  0  0  0  0  0  0  0
    3.6491   -1.0108   -1.3234 H   0  0  0  0  0  0  0  0  0  0  0  0
    1.0987    0.2378    1.6522 H   0  0  0  0  0  0  0  0  0  0  0  0
  1 13  1  0  0  0  0
  1 12  1  0  0  0  0
  2 15  1  0  0  0  0
  2  7  1  0  0  0  0
  3 18  1  0  0  0  0
  3 17  1  0  0  0  0
  3 10  1  0  0  0  0
  4 20  1  0  0  0  0
  5  4  2  0  0  0  0
  5  7  1  0  0  0  0
  6 10  1  0  0  0  0
  6  4  1  0  0  0  0
  7  1  1  0  0  0  0
  7  9  1  0  0  0  0
  8  6  2  0  0  0  0
  9 22  1  0  0  0  0
 11  1  1  0  0  0  0
 14  2  1  0  0  0  0
 16  2  1  0  0  0  0
 19  3  1  0  0  0  0
 21  5  1  0  0  0  0
M  END
>  <HBA>
3

>  <HBD>
1

>  <TPSA>
46.53

>  <cid>
21964

>  <dipole>
2.22

>  <excitation_energy_1>
4.856

>  <excitation_energy_2>
5.632

>  <excitation_energy_3>
6.104

>  <excitation_energy_4>
6.371

>  <homo_energy>
-7.091

>  <homo_lumo_gap>
6.191

>  <logP>
0.486

>  <lumo_energy>
-0.901

>  <melting_point>
24.65

>  <molecular_refractivity>
37.77

>  <oscillator_strength_1>
0.0001

>  <oscillator_strength_2>
0.2089

>  <oscillator_strength_3>
0.2825

>  <oscillator_strength_4>
0.0222

>  <open_babel_can_smiles>
COC(=O)/C=C/C(O)(C)C

>  <mulliken_charges>
22
1   -0.457304
2   -0.456497
3   -0.215162
4   -0.187492
5   -0.101369
6   0.613626
7   0.28245
8   -0.502301
9   -0.638875
10   -0.464293
11   0.150162
12   0.168376
13   0.134727
14   0.150056
15   0.134669
16   0.168162
17   0.161354
18   0.167916
19   0.167894
20   0.172765
21   0.16131
22   0.389824

>  <lowdin_charges>
22
1   -0.455709
2   -0.454937
3   -0.275934
4   -0.201166
5   -0.111624
6   0.192787
7   0.124073
8   -0.280421
9   -0.454166
10   -0.192745
11   0.157607
12   0.164737
13   0.147113
14   0.157447
15   0.147088
16   0.164354
17   0.159267
18   0.155838
19   0.156288
20   0.181961
21   0.173354
22   0.344788

$$$$

