PCCDB-ID:  61175
public computational chemistry database (PCCDB) project, http://pccdb.org

 16 15  0  0  0  0  0  0  0  0999 V2000
    0.5375    0.5415    0.0075 C   0  0  0  0  0  0  0  0  0  0  0  0
    6.2868    1.1457   -0.7317 C   0  0  0  0  0  0  0  0  0  0  0  0
    1.9776    0.8016    0.4274 C   0  0  0  0  0  0  0  0  0  0  0  0
    4.8364    0.9599   -1.1557 C   0  0  0  0  0  0  0  0  0  0  0  0
    2.8005    0.0980   -0.4977 O   0  0  0  0  0  0  0  0  0  0  0  0
    4.1778    0.3166   -0.0692 O   0  0  0  0  0  0  0  0  0  0  0  0
   -0.1467    1.0564    0.6905 H   0  0  0  0  0  0  0  0  0  0  0  0
    0.3132   -0.5294    0.0341 H   0  0  0  0  0  0  0  0  0  0  0  0
    0.3545    0.9082   -1.0076 H   0  0  0  0  0  0  0  0  0  0  0  0
    6.8493    1.6311   -1.5364 H   0  0  0  0  0  0  0  0  0  0  0  0
    6.7538    0.1796   -0.5160 H   0  0  0  0  0  0  0  0  0  0  0  0
    6.3552    1.7707    0.1645 H   0  0  0  0  0  0  0  0  0  0  0  0
    2.1670    0.4342    1.4449 H   0  0  0  0  0  0  0  0  0  0  0  0
    2.2127    1.8753    0.4007 H   0  0  0  0  0  0  0  0  0  0  0  0
    4.7635    0.3336   -2.0548 H   0  0  0  0  0  0  0  0  0  0  0  0
    4.3566    1.9256   -1.3701 H   0  0  0  0  0  0  0  0  0  0  0  0
  1  8  1  0  0  0  0
  1  3  1  0  0  0  0
  1  7  1  0  0  0  0
  2 11  1  0  0  0  0
  2 12  1  0  0  0  0
  3 13  1  0  0  0  0
  4  2  1  0  0  0  0
  4  6  1  0  0  0  0
  5  6  1  0  0  0  0
  5  3  1  0  0  0  0
  9  1  1  0  0  0  0
 10  2  1  0  0  0  0
 14  3  1  0  0  0  0
 15  4  1  0  0  0  0
 16  4  1  0  0  0  0
M  END
>  <HBA>
2

>  <HBD>
0

>  <TPSA>
18.46

>  <cid>
61175

>  <dipole>
1.44

>  <excitation_energy_1>
5.467

>  <excitation_energy_2>
6.402

>  <excitation_energy_3>
6.678

>  <excitation_energy_4>
6.89

>  <homo_energy>
-6.569

>  <homo_lumo_gap>
7.491

>  <logP>
0.974

>  <lumo_energy>
0.922

>  <melting_point>
-38.44

>  <molecular_refractivity>
23.51

>  <oscillator_strength_1>
0.0001

>  <oscillator_strength_2>
0.0001

>  <oscillator_strength_3>
0.0005

>  <oscillator_strength_4>
0.0002

>  <open_babel_can_smiles>
CCOOCC

>  <mulliken_charges>
16
1   -0.471586
2   -0.471602
3   0.013699
4   0.013522
5   -0.288178
6   -0.28826
7   0.152781
8   0.165806
9   0.16078
10   0.152784
11   0.165886
12   0.160767
13   0.13964
14   0.127118
15   0.139722
16   0.127123

>  <lowdin_charges>
16
1   -0.45019
2   -0.452342
3   -0.129076
4   -0.132188
5   -0.163902
6   -0.164069
7   0.161265
8   0.158937
9   0.157068
10   0.161054
11   0.160438
12   0.158029
13   0.136795
14   0.129086
15   0.138252
16   0.130844

$$$$

