PCCDB-ID:  11400
public computational chemistry database (PCCDB) project, http://pccdb.org

 23 23  0  0  0  0  0  0  0  0999 V2000
    4.8801    2.2987   -3.6587 C   0  0  0  0  0  0  0  0  0  0  0  0
    4.2434    2.3425   -2.2773 C   0  0  0  0  0  0  0  0  0  0  0  0
    7.5718   -0.0043    1.5620 C   0  0  0  0  0  0  0  0  0  0  0  0
    6.7529    0.5998    0.6091 C   0  0  0  0  0  0  0  0  0  0  0  0
    7.5177   -1.3784    1.7853 C   0  0  0  0  0  0  0  0  0  0  0  0
    5.8114   -1.5806    0.0916 C   0  0  0  0  0  0  0  0  0  0  0  0
    5.8687   -0.2010   -0.1266 C   0  0  0  0  0  0  0  0  0  0  0  0
    6.6322   -2.1881    1.0512 C   0  0  0  0  0  0  0  0  0  0  0  0
    4.9616    0.3604   -1.1695 C   0  0  0  0  0  0  0  0  0  0  0  0
    6.5331   -3.5573    1.3118 N   0  0  0  0  0  0  0  0  0  0  0  0
    4.1942   -0.3046   -1.8405 O   0  0  0  0  0  0  0  0  0  0  0  0
    5.0819    1.7039   -1.2878 O   0  0  0  0  0  0  0  0  0  0  0  0
    4.2631    2.8591   -4.3707 H   0  0  0  0  0  0  0  0  0  0  0  0
    4.9610    1.2668   -4.0112 H   0  0  0  0  0  0  0  0  0  0  0  0
    5.8791    2.7469   -3.6414 H   0  0  0  0  0  0  0  0  0  0  0  0
    3.2658    1.8542   -2.2781 H   0  0  0  0  0  0  0  0  0  0  0  0
    4.1363    3.3693   -1.9182 H   0  0  0  0  0  0  0  0  0  0  0  0
    8.2645    0.6011    2.1406 H   0  0  0  0  0  0  0  0  0  0  0  0
    6.7946    1.6675    0.4326 H   0  0  0  0  0  0  0  0  0  0  0  0
    8.1587   -1.8333    2.5375 H   0  0  0  0  0  0  0  0  0  0  0  0
    5.1127   -2.1702   -0.4947 H   0  0  0  0  0  0  0  0  0  0  0  0
    7.3677   -3.9821    1.6966 H   0  0  0  0  0  0  0  0  0  0  0  0
    6.1537   -4.1083    0.5517 H   0  0  0  0  0  0  0  0  0  0  0  0
  1 15  1  0  0  0  0
  1  2  1  0  0  0  0
  2 17  1  0  0  0  0
  2 12  1  0  0  0  0
  3  5  1  0  0  0  0
  3 18  1  0  0  0  0
  4  3  2  0  0  0  0
  5 20  1  0  0  0  0
  6  8  1  0  0  0  0
  7  6  2  0  0  0  0
  7  4  1  0  0  0  0
  8 10  1  0  0  0  0
  8  5  2  0  0  0  0
  9  7  1  0  0  0  0
 10 22  1  0  0  0  0
 11  9  2  0  0  0  0
 12  9  1  0  0  0  0
 13  1  1  0  0  0  0
 14  1  1  0  0  0  0
 16  2  1  0  0  0  0
 19  4  1  0  0  0  0
 21  6  1  0  0  0  0
 23 10  1  0  0  0  0
M  END
>  <HBA>
3

>  <HBD>
1

>  <TPSA>
52.32

>  <cid>
11400

>  <dipole>
1.98

>  <excitation_energy_1>
3.986

>  <excitation_energy_2>
4.888

>  <excitation_energy_3>
4.928

>  <excitation_energy_4>
5.146

>  <homo_energy>
-5.633

>  <homo_lumo_gap>
4.648

>  <logP>
2.027

>  <lumo_energy>
-0.985

>  <melting_point>
78.76

>  <molecular_refractivity>
46.93

>  <oscillator_strength_1>
0.0524

>  <oscillator_strength_2>
0.0004

>  <oscillator_strength_3>
0.0049

>  <oscillator_strength_4>
0.0412

>  <open_babel_can_smiles>
CCOC(=O)c1cccc(c1)N

>  <mulliken_charges>
23
1   -0.461798
2   -0.04035
3   -0.142009
4   -0.170202
5   -0.160217
6   -0.208488
7   0.045932
8   0.310169
9   0.595704
10   -0.789045
11   -0.49825
12   -0.478265
13   0.148311
14   0.177293
15   0.156026
16   0.170062
17   0.150456
18   0.131195
19   0.147012
20   0.121765
21   0.150134
22   0.320306
23   0.32426

>  <lowdin_charges>
23
1   -0.455127
2   -0.125962
3   -0.148639
4   -0.169247
5   -0.186179
6   -0.178479
7   -0.036629
8   0.060744
9   0.202601
10   -0.489286
11   -0.279573
12   -0.193761
13   0.159071
14   0.164995
15   0.154855
16   0.158214
17   0.150116
18   0.160496
19   0.16772
20   0.156065
21   0.172956
22   0.276206
23   0.278841

$$$$

