PCCDB-ID:  4065
public computational chemistry database (PCCDB) project, http://pccdb.org

 38 38  0  0  0  0  0  0  0  0999 V2000
    1.5535   -0.3312    4.6097 C   0  0  0  0  0  0  0  0  0  0  0  0
    4.8339   -4.5462    3.7094 C   0  0  0  0  0  0  0  0  0  0  0  0
    4.6065   -4.5892    1.2099 C   0  0  0  0  0  0  0  0  0  0  0  0
    1.8812   -1.2625    3.4389 C   0  0  0  0  0  0  0  0  0  0  0  0
    5.8308    1.4592   -2.4541 C   0  0  0  0  0  0  0  0  0  0  0  0
    5.8754    0.0629   -2.4566 C   0  0  0  0  0  0  0  0  0  0  0  0
    5.8122    2.1568   -1.2434 C   0  0  0  0  0  0  0  0  0  0  0  0
    5.9006   -0.6386   -1.2525 C   0  0  0  0  0  0  0  0  0  0  0  0
    5.8379    1.4598   -0.0383 C   0  0  0  0  0  0  0  0  0  0  0  0
    3.2150   -1.9937    3.6182 C   0  0  0  0  0  0  0  0  0  0  0  0
    5.9580   -2.7868    2.3539 C   0  0  0  0  0  0  0  0  0  0  0  0
    5.8812    0.0586   -0.0363 C   0  0  0  0  0  0  0  0  0  0  0  0
    5.9104   -0.6330    1.2849 C   0  0  0  0  0  0  0  0  0  0  0  0
    4.6952   -3.6779    2.4469 C   0  0  0  0  0  0  0  0  0  0  0  0
    3.4396   -2.9109    2.4955 N   0  0  0  0  0  0  0  0  0  0  0  0
    5.9230   -0.0518    2.3535 O   0  0  0  0  0  0  0  0  0  0  0  0
    5.9222   -1.9819    1.1538 O   0  0  0  0  0  0  0  0  0  0  0  0
    2.3273    0.4349    4.7387 H   0  0  0  0  0  0  0  0  0  0  0  0
    1.4782   -0.8893    5.5512 H   0  0  0  0  0  0  0  0  0  0  0  0
    0.5987    0.1826    4.4518 H   0  0  0  0  0  0  0  0  0  0  0  0
    5.6869   -5.2276    3.6167 H   0  0  0  0  0  0  0  0  0  0  0  0
    3.9273   -5.1445    3.8450 H   0  0  0  0  0  0  0  0  0  0  0  0
    4.9853   -3.9452    4.6124 H   0  0  0  0  0  0  0  0  0  0  0  0
    5.5044   -5.2103    1.1114 H   0  0  0  0  0  0  0  0  0  0  0  0
    4.5065   -3.9975    0.2934 H   0  0  0  0  0  0  0  0  0  0  0  0
    3.7330   -5.2429    1.2920 H   0  0  0  0  0  0  0  0  0  0  0  0
    1.9147   -0.6780    2.5074 H   0  0  0  0  0  0  0  0  0  0  0  0
    1.0870   -2.0084    3.3102 H   0  0  0  0  0  0  0  0  0  0  0  0
    5.8114    2.0032   -3.3948 H   0  0  0  0  0  0  0  0  0  0  0  0
    5.8918   -0.4796   -3.3978 H   0  0  0  0  0  0  0  0  0  0  0  0
    5.7784    3.2427   -1.2405 H   0  0  0  0  0  0  0  0  0  0  0  0
    5.9383   -1.7220   -1.2479 H   0  0  0  0  0  0  0  0  0  0  0  0
    5.8259    1.9804    0.9135 H   0  0  0  0  0  0  0  0  0  0  0  0
    3.1712   -2.5818    4.5429 H   0  0  0  0  0  0  0  0  0  0  0  0
    4.0175   -1.2472    3.7480 H   0  0  0  0  0  0  0  0  0  0  0  0
    6.8597   -3.4036    2.2773 H   0  0  0  0  0  0  0  0  0  0  0  0
    6.0493   -2.1246    3.2158 H   0  0  0  0  0  0  0  0  0  0  0  0
    3.3554   -2.3876    1.6246 H   0  0  0  0  0  0  0  0  0  0  0  0
  1 18  1  0  0  0  0
  1 19  1  0  0  0  0
  2 22  1  0  0  0  0
  2 23  1  0  0  0  0
  3 26  1  0  0  0  0
  3 14  1  0  0  0  0
  4 10  1  0  0  0  0
  4  1  1  0  0  0  0
  5  7  1  0  0  0  0
  6  5  2  0  0  0  0
  6  8  1  0  0  0  0
  7 31  1  0  0  0  0
  7  9  2  0  0  0  0
  8 32  1  0  0  0  0
  8 12  2  0  0  0  0
  9 12  1  0  0  0  0
  9 33  1  0  0  0  0
 10 35  1  0  0  0  0
 10 34  1  0  0  0  0
 11 14  1  0  0  0  0
 11 37  1  0  0  0  0
 12 13  1  0  0  0  0
 13 16  2  0  0  0  0
 14 15  1  0  0  0  0
 14  2  1  0  0  0  0
 15 10  1  0  0  0  0
 17 13  1  0  0  0  0
 17 11  1  0  0  0  0
 20  1  1  0  0  0  0
 21  2  1  0  0  0  0
 24  3  1  0  0  0  0
 25  3  1  0  0  0  0
 27  4  1  0  0  0  0
 28  4  1  0  0  0  0
 29  5  1  0  0  0  0
 30  6  1  0  0  0  0
 36 11  1  0  0  0  0
 38 15  1  0  0  0  0
M  END
>  <HBA>
3

>  <HBD>
1

>  <TPSA>
38.33

>  <cid>
4065

>  <dipole>
1.8

>  <excitation_energy_1>
3.881

>  <excitation_energy_2>
4.89

>  <excitation_energy_3>
4.901

>  <excitation_energy_4>
4.993

>  <homo_energy>
-5.812

>  <homo_lumo_gap>
4.553

>  <logP>
3.013

>  <lumo_energy>
-1.26

>  <melting_point>
63.48

>  <molecular_refractivity>
69.4

>  <oscillator_strength_1>
0.0199

>  <oscillator_strength_2>
0.0065

>  <oscillator_strength_3>
0.0042

>  <oscillator_strength_4>
0.0081

>  <open_babel_can_smiles>
CCCNC(COC(=O)c1ccccc1)(C)C

>  <mulliken_charges>
38
1   -0.44671
2   -0.458769
3   -0.450822
4   -0.261068
5   -0.116926
6   -0.136408
7   -0.13812
8   -0.162101
9   -0.151937
10   -0.125201
11   -0.057237
12   0.046878
13   0.592542
14   0.192673
15   -0.573929
16   -0.489438
17   -0.489712
18   0.149453
19   0.141137
20   0.142987
21   0.141521
22   0.162054
23   0.149145
24   0.134922
25   0.14808
26   0.157244
27   0.127602
28   0.143763
29   0.137783
30   0.137176
31   0.138712
32   0.157987
33   0.163875
34   0.134064
35   0.142034
36   0.143534
37   0.181268
38   0.291947

>  <lowdin_charges>
38
1   -0.444831
2   -0.448182
3   -0.447428
4   -0.275369
5   -0.140112
6   -0.157318
7   -0.153027
8   -0.138176
9   -0.130821
10   -0.212963
11   -0.153944
12   -0.047194
13   0.199167
14   0.056675
15   -0.36155
16   -0.272993
17   -0.194799
18   0.150729
19   0.146067
20   0.150323
21   0.15194
22   0.162114
23   0.151956
24   0.147159
25   0.150861
26   0.158645
27   0.137
28   0.146468
29   0.161724
30   0.161471
31   0.159968
32   0.16965
33   0.177252
34   0.139298
35   0.131329
36   0.150569
37   0.166652
38   0.25169

$$$$

