PCCDB-ID:  15508
public computational chemistry database (PCCDB) project, http://pccdb.org

 30 30  0  0  0  0  0  0  0  0999 V2000
    2.2554    0.6481   -2.3581 C   0  0  0  0  0  0  0  0  0  0  0  0
    0.9882    0.6126   -0.1764 C   0  0  0  0  0  0  0  0  0  0  0  0
    6.3875   -1.4127    1.4544 C   0  0  0  0  0  0  0  0  0  0  0  0
    5.4110   -2.5040    0.9894 C   0  0  0  0  0  0  0  0  0  0  0  0
    5.8623   -0.0091    1.1147 C   0  0  0  0  0  0  0  0  0  0  0  0
    5.0830   -2.3613   -0.5068 C   0  0  0  0  0  0  0  0  0  0  0  0
    5.5341    0.1188   -0.3826 C   0  0  0  0  0  0  0  0  0  0  0  0
    3.0955   -0.7598   -0.3861 C   0  0  0  0  0  0  0  0  0  0  0  0
    2.3764    0.5321   -0.8308 C   0  0  0  0  0  0  0  0  0  0  0  0
    4.5448   -0.9601   -0.8823 C   0  0  0  0  0  0  0  0  0  0  0  0
    1.7020    1.5522   -2.6389 H   0  0  0  0  0  0  0  0  0  0  0  0
    1.7151   -0.2133   -2.7732 H   0  0  0  0  0  0  0  0  0  0  0  0
    3.2331    0.6961   -2.8496 H   0  0  0  0  0  0  0  0  0  0  0  0
    0.4743    1.5430   -0.4459 H   0  0  0  0  0  0  0  0  0  0  0  0
    1.0584    0.5721    0.9173 H   0  0  0  0  0  0  0  0  0  0  0  0
    0.3530   -0.2229   -0.4994 H   0  0  0  0  0  0  0  0  0  0  0  0
    7.3568   -1.5624    0.9550 H   0  0  0  0  0  0  0  0  0  0  0  0
    6.5755   -1.5012    2.5323 H   0  0  0  0  0  0  0  0  0  0  0  0
    4.4876   -2.4426    1.5819 H   0  0  0  0  0  0  0  0  0  0  0  0
    5.8323   -3.4989    1.1838 H   0  0  0  0  0  0  0  0  0  0  0  0
    6.6028    0.7505    1.3972 H   0  0  0  0  0  0  0  0  0  0  0  0
    4.9656    0.2004    1.7151 H   0  0  0  0  0  0  0  0  0  0  0  0
    4.3625   -3.1323   -0.8114 H   0  0  0  0  0  0  0  0  0  0  0  0
    6.0003   -2.5496   -1.0842 H   0  0  0  0  0  0  0  0  0  0  0  0
    6.4691    0.0172   -0.9533 H   0  0  0  0  0  0  0  0  0  0  0  0
    5.1532    1.1241   -0.6021 H   0  0  0  0  0  0  0  0  0  0  0  0
    2.4973   -1.6179   -0.7308 H   0  0  0  0  0  0  0  0  0  0  0  0
    3.0688   -0.8031    0.7109 H   0  0  0  0  0  0  0  0  0  0  0  0
    2.9572    1.3945   -0.4721 H   0  0  0  0  0  0  0  0  0  0  0  0
    4.5248   -0.9071   -1.9795 H   0  0  0  0  0  0  0  0  0  0  0  0
  1  9  1  0  0  0  0
  2 15  1  0  0  0  0
  3 18  1  0  0  0  0
  4 20  1  0  0  0  0
  4  3  1  0  0  0  0
  4 19  1  0  0  0  0
  5 21  1  0  0  0  0
  5  3  1  0  0  0  0
  5 22  1  0  0  0  0
  6  4  1  0  0  0  0
  7  5  1  0  0  0  0
  8 28  1  0  0  0  0
  9 29  1  0  0  0  0
  9  8  1  0  0  0  0
  9  2  1  0  0  0  0
 10  6  1  0  0  0  0
 10  8  1  0  0  0  0
 10  7  1  0  0  0  0
 11  1  1  0  0  0  0
 12  1  1  0  0  0  0
 13  1  1  0  0  0  0
 14  2  1  0  0  0  0
 16  2  1  0  0  0  0
 17  3  1  0  0  0  0
 23  6  1  0  0  0  0
 24  6  1  0  0  0  0
 25  7  1  0  0  0  0
 26  7  1  0  0  0  0
 27  8  1  0  0  0  0
 30 10  1  0  0  0  0
M  END
>  <HBA>
0

>  <HBD>
0

>  <TPSA>
0.0

>  <cid>
15508

>  <dipole>
0.08

>  <excitation_energy_1>
7.164

>  <excitation_energy_2>
7.243

>  <excitation_energy_3>
7.454

>  <excitation_energy_4>
7.466

>  <homo_energy>
-7.717

>  <homo_lumo_gap>
9.766

>  <logP>
3.613

>  <lumo_energy>
2.049

>  <melting_point>
-6.64

>  <molecular_refractivity>
48.07

>  <oscillator_strength_1>
0.0031

>  <oscillator_strength_2>
0.0039

>  <oscillator_strength_3>
0.0195

>  <oscillator_strength_4>
0.0066

>  <open_babel_can_smiles>
CC(CC1CCCCC1)C

>  <mulliken_charges>
30
1   -0.445628
2   -0.441828
3   -0.253825
4   -0.259769
5   -0.260096
6   -0.264442
7   -0.268333
8   -0.254875
9   -0.072101
10   -0.08134
11   0.138458
12   0.137131
13   0.145568
14   0.138058
15   0.138109
16   0.13764
17   0.125194
18   0.12734
19   0.131653
20   0.128202
21   0.128388
22   0.130414
23   0.125113
24   0.123787
25   0.124427
26   0.131482
27   0.120139
28   0.127934
29   0.124534
30   0.118665

>  <lowdin_charges>
30
1   -0.448525
2   -0.442608
3   -0.275304
4   -0.28002
5   -0.281456
6   -0.279886
7   -0.281288
8   -0.279129
9   -0.122886
10   -0.129562
11   0.148075
12   0.145586
13   0.148036
14   0.14692
15   0.144307
16   0.145379
17   0.135655
18   0.139862
19   0.138156
20   0.141985
21   0.143598
22   0.137866
23   0.141194
24   0.137844
25   0.138489
26   0.141012
27   0.138286
28   0.136472
29   0.136126
30   0.135813

$$$$

