PCCDB-ID:  17903
public computational chemistry database (PCCDB) project, http://pccdb.org

 31 31  0  0  0  0  0  0  0  0999 V2000
    1.1375   -0.3784   -0.1957 C   0  0  0  0  0  0  0  0  0  0  0  0
    4.9133    4.1091    2.2519 C   0  0  0  0  0  0  0  0  0  0  0  0
    8.5052   -1.8234    0.7010 C   0  0  0  0  0  0  0  0  0  0  0  0
    9.5126    2.3315    1.6155 C   0  0  0  0  0  0  0  0  0  0  0  0
    2.6253   -0.3380   -0.0035 C   0  0  0  0  0  0  0  0  0  0  0  0
    3.3110    0.7530    0.3722 C   0  0  0  0  0  0  0  0  0  0  0  0
    5.6675   -0.1177    0.1073 C   0  0  0  0  0  0  0  0  0  0  0  0
    6.7009    2.1208    1.3766 C   0  0  0  0  0  0  0  0  0  0  0  0
    4.7645    0.8599    0.5570 C   0  0  0  0  0  0  0  0  0  0  0  0
    5.3170    1.9897    1.1998 C   0  0  0  0  0  0  0  0  0  0  0  0
    7.0408   -0.0119    0.2751 C   0  0  0  0  0  0  0  0  0  0  0  0
    7.5695    1.1273    0.9143 C   0  0  0  0  0  0  0  0  0  0  0  0
    4.4236    2.9318    1.6385 O   0  0  0  0  0  0  0  0  0  0  0  0
    7.8625   -0.9821   -0.2562 O   0  0  0  0  0  0  0  0  0  0  0  0
    8.9297    1.1809    1.0280 O   0  0  0  0  0  0  0  0  0  0  0  0
    0.8736   -0.6517   -1.2273 H   0  0  0  0  0  0  0  0  0  0  0  0
    0.6775    0.5911    0.0245 H   0  0  0  0  0  0  0  0  0  0  0  0
    0.6695   -1.1316    0.4538 H   0  0  0  0  0  0  0  0  0  0  0  0
    4.0333    4.7064    2.4986 H   0  0  0  0  0  0  0  0  0  0  0  0
    5.5601    4.6825    1.5738 H   0  0  0  0  0  0  0  0  0  0  0  0
    5.4665    3.8866    3.1747 H   0  0  0  0  0  0  0  0  0  0  0  0
    9.0727   -2.5600    0.1266 H   0  0  0  0  0  0  0  0  0  0  0  0
    7.7666   -2.3432    1.3270 H   0  0  0  0  0  0  0  0  0  0  0  0
    9.1891   -1.2553    1.3408 H   0  0  0  0  0  0  0  0  0  0  0  0
   10.5918    2.1720    1.5781 H   0  0  0  0  0  0  0  0  0  0  0  0
    9.2014    2.4554    2.6618 H   0  0  0  0  0  0  0  0  0  0  0  0
    9.2615    3.2413    1.0544 H   0  0  0  0  0  0  0  0  0  0  0  0
    3.1511   -1.2758   -0.1850 H   0  0  0  0  0  0  0  0  0  0  0  0
    2.7537    1.6641    0.5758 H   0  0  0  0  0  0  0  0  0  0  0  0
    5.3028   -0.9925   -0.4211 H   0  0  0  0  0  0  0  0  0  0  0  0
    7.1013    2.9962    1.8683 H   0  0  0  0  0  0  0  0  0  0  0  0
  1  5  1  0  0  0  0
  1 17  1  0  0  0  0
  1 18  1  0  0  0  0
  2 19  1  0  0  0  0
  2 21  1  0  0  0  0
  3 23  1  0  0  0  0
  3 24  1  0  0  0  0
  4 26  1  0  0  0  0
  5  6  2  0  0  0  0
  6  9  1  0  0  0  0
  6 29  1  0  0  0  0
  7 11  2  0  0  0  0
  7  9  1  0  0  0  0
  8 31  1  0  0  0  0
  9 10  2  0  0  0  0
 10  8  1  0  0  0  0
 10 13  1  0  0  0  0
 11 12  1  0  0  0  0
 12 15  1  0  0  0  0
 12  8  2  0  0  0  0
 13  2  1  0  0  0  0
 14 11  1  0  0  0  0
 14  3  1  0  0  0  0
 15  4  1  0  0  0  0
 16  1  1  0  0  0  0
 20  2  1  0  0  0  0
 22  3  1  0  0  0  0
 25  4  1  0  0  0  0
 27  4  1  0  0  0  0
 28  5  1  0  0  0  0
 30  7  1  0  0  0  0
M  END
>  <HBA>
3

>  <HBD>
0

>  <TPSA>
27.69

>  <cid>
17903

>  <dipole>
3.32

>  <excitation_energy_1>
4.156

>  <excitation_energy_2>
4.584

>  <excitation_energy_3>
4.818

>  <excitation_energy_4>
5.028

>  <homo_energy>
-5.007

>  <homo_lumo_gap>
4.67

>  <logP>
2.745

>  <lumo_energy>
-0.337

>  <melting_point>
44.5

>  <molecular_refractivity>
60.82

>  <oscillator_strength_1>
0.2926

>  <oscillator_strength_2>
0.0005

>  <oscillator_strength_3>
0.2426

>  <oscillator_strength_4>
0.0282

>  <open_babel_can_smiles>
C/C=C/c1cc(OC)c(cc1OC)OC

>  <mulliken_charges>
31
1   -0.488113
2   -0.210244
3   -0.20637
4   -0.213462
5   -0.093655
6   -0.159565
7   -0.26377
8   -0.288164
9   0.114322
10   0.314402
11   0.318094
12   0.352222
13   -0.512912
14   -0.525304
15   -0.507879
16   0.152691
17   0.152533
18   0.151514
19   0.169806
20   0.14971
21   0.148704
22   0.15495
23   0.135649
24   0.155598
25   0.171529
26   0.149632
27   0.153047
28   0.120332
29   0.136142
30   0.135082
31   0.133479

>  <lowdin_charges>
31
1   -0.437064
2   -0.27935
3   -0.280038
4   -0.274288
5   -0.161518
6   -0.168931
7   -0.16326
8   -0.262635
9   -0.041284
10   0.098569
11   0.052994
12   0.0863
13   -0.199158
14   -0.226533
15   -0.191848
16   0.154076
17   0.153896
18   0.155438
19   0.163599
20   0.145253
21   0.143027
22   0.155289
23   0.138029
24   0.147338
25   0.161642
26   0.141965
27   0.146204
28   0.145935
29   0.161422
30   0.167627
31   0.167302

$$$$

