PCCDB-ID:  66335
public computational chemistry database (PCCDB) project, http://pccdb.org

 21 22  0  0  0  0  0  0  0  0999 V2000
   -2.4781    0.6587   -0.3569 C   0  0  0  0  0  0  0  0  0  0  0  0
   -2.4506   -0.7011    0.3516 C   0  0  0  0  0  0  0  0  0  0  0  0
    2.4561    0.6902    0.0215 C   0  0  0  0  0  0  0  0  0  0  0  0
   -1.2695    1.5054    0.0648 C   0  0  0  0  0  0  0  0  0  0  0  0
    1.2663    1.4106    0.0361 C   0  0  0  0  0  0  0  0  0  0  0  0
   -1.2007   -1.4917   -0.0536 C   0  0  0  0  0  0  0  0  0  0  0  0
    2.3752   -0.7027   -0.0078 C   0  0  0  0  0  0  0  0  0  0  0  0
    0.0399    0.7375    0.0237 C   0  0  0  0  0  0  0  0  0  0  0  0
    0.0731   -0.6696   -0.0065 C   0  0  0  0  0  0  0  0  0  0  0  0
    1.2200   -1.3712   -0.0225 N   0  0  0  0  0  0  0  0  0  0  0  0
   -3.4051    1.1991   -0.1312 H   0  0  0  0  0  0  0  0  0  0  0  0
   -2.4596    0.5020   -1.4447 H   0  0  0  0  0  0  0  0  0  0  0  0
   -3.3512   -1.2808    0.1172 H   0  0  0  0  0  0  0  0  0  0  0  0
   -2.4537   -0.5416    1.4395 H   0  0  0  0  0  0  0  0  0  0  0  0
    3.4205    1.1897    0.0297 H   0  0  0  0  0  0  0  0  0  0  0  0
   -1.4319    1.8722    1.0899 H   0  0  0  0  0  0  0  0  0  0  0  0
   -1.1901    2.4020   -0.5640 H   0  0  0  0  0  0  0  0  0  0  0  0
    1.2815    2.4989    0.0561 H   0  0  0  0  0  0  0  0  0  0  0  0
   -1.3228   -1.8705   -1.0796 H   0  0  0  0  0  0  0  0  0  0  0  0
   -1.0638   -2.3784    0.5757 H   0  0  0  0  0  0  0  0  0  0  0  0
    3.2797   -1.3098   -0.0202 H   0  0  0  0  0  0  0  0  0  0  0  0
  1 11  1  0  0  0  0
  1  4  1  0  0  0  0
  1  2  1  0  0  0  0
  2 14  1  0  0  0  0
  3 15  1  0  0  0  0
  3  5  2  0  0  0  0
  4 16  1  0  0  0  0
  5 18  1  0  0  0  0
  6  9  1  0  0  0  0
  6  2  1  0  0  0  0
  6 20  1  0  0  0  0
  7  3  1  0  0  0  0
  8  5  1  0  0  0  0
  8  4  1  0  0  0  0
  9  8  2  0  0  0  0
 10  7  2  0  0  0  0
 10  9  1  0  0  0  0
 12  1  1  0  0  0  0
 13  2  1  0  0  0  0
 17  4  1  0  0  0  0
 19  6  1  0  0  0  0
 21  7  1  0  0  0  0
M  END
>  <HBA>
1

>  <HBD>
0

>  <TPSA>
12.89

>  <cid>
66335

>  <dipole>
2.06

>  <excitation_energy_1>
4.767

>  <excitation_energy_2>
5.173

>  <excitation_energy_3>
5.206

>  <excitation_energy_4>
5.885

>  <homo_energy>
-6.52

>  <homo_lumo_gap>
6.052

>  <logP>
1.96

>  <lumo_energy>
-0.468

>  <melting_point>
48.75

>  <molecular_refractivity>
41.67

>  <oscillator_strength_1>
0.0045

>  <oscillator_strength_2>
0.0806

>  <oscillator_strength_3>
0.0014

>  <oscillator_strength_4>
0.0391

>  <open_babel_can_smiles>
C1CCc2c(C1)nccc2

>  <mulliken_charges>
21
1   -0.266931
2   -0.270079
3   -0.141086
4   -0.343903
5   -0.155994
6   -0.316601
7   0.033851
8   0.13536
9   0.242785
10   -0.476027
11   0.13498
12   0.138943
13   0.135951
14   0.137148
15   0.13162
16   0.153096
17   0.145844
18   0.130802
19   0.155146
20   0.159855
21   0.135241

>  <lowdin_charges>
21
1   -0.274606
2   -0.276448
3   -0.182001
4   -0.275446
5   -0.134758
6   -0.279626
7   -0.093024
8   -0.032123
9   0.039536
10   -0.158689
11   0.146675
12   0.14045
13   0.147491
14   0.139405
15   0.161494
16   0.151704
17   0.152331
18   0.155237
19   0.155412
20   0.162902
21   0.154085

$$$$

