PCCDB-ID:  16061
public computational chemistry database (PCCDB) project, http://pccdb.org

 16 16  0  0  0  0  0  0  0  0999 V2000
    1.1214    0.3968    0.6889 C   0  0  0  0  0  0  0  0  0  0  0  0
    4.9706    2.3269   -1.5706 C   0  0  0  0  0  0  0  0  0  0  0  0
    4.6331    1.1506   -0.8476 C   0  0  0  0  0  0  0  0  0  0  0  0
    3.9253    3.2037   -1.6865 C   0  0  0  0  0  0  0  0  0  0  0  0
    2.5727    0.1300    0.3556 C   0  0  0  0  0  0  0  0  0  0  0  0
    3.3215    1.1280   -0.4085 C   0  0  0  0  0  0  0  0  0  0  0  0
    3.0015   -1.0040    0.8058 N   0  0  0  0  0  0  0  0  0  0  0  0
    4.3469   -1.2643    0.5015 O   0  0  0  0  0  0  0  0  0  0  0  0
    2.5021    2.6068   -0.9117 S   0  0  0  0  0  0  0  0  0  0  0  0
    0.5224    0.5268   -0.2205 H   0  0  0  0  0  0  0  0  0  0  0  0
    1.0125    1.3073    1.2907 H   0  0  0  0  0  0  0  0  0  0  0  0
    0.7202   -0.4464    1.2543 H   0  0  0  0  0  0  0  0  0  0  0  0
    5.9539    2.5116   -1.9895 H   0  0  0  0  0  0  0  0  0  0  0  0
    5.3222    0.3434   -0.6527 H   0  0  0  0  0  0  0  0  0  0  0  0
    3.9078    4.1646   -2.1835 H   0  0  0  0  0  0  0  0  0  0  0  0
    4.4772   -2.1324    0.9133 H   0  0  0  0  0  0  0  0  0  0  0  0
  1 12  1  0  0  0  0
  1 11  1  0  0  0  0
  2  3  1  0  0  0  0
  3 14  1  0  0  0  0
  3  6  2  0  0  0  0
  4  2  2  0  0  0  0
  4  9  1  0  0  0  0
  5  1  1  0  0  0  0
  5  7  2  0  0  0  0
  6  5  1  0  0  0  0
  8  7  1  0  0  0  0
  8 16  1  0  0  0  0
  9  6  1  0  0  0  0
 10  1  1  0  0  0  0
 13  2  1  0  0  0  0
 15  4  1  0  0  0  0
M  END
>  <HBA>
3

>  <HBD>
1

>  <TPSA>
60.83

>  <cid>
16061

>  <dipole>
0.72

>  <excitation_energy_1>
4.572

>  <excitation_energy_2>
5.035

>  <excitation_energy_3>
5.062

>  <excitation_energy_4>
5.457

>  <homo_energy>
-5.938

>  <homo_lumo_gap>
4.754

>  <logP>
1.946

>  <lumo_energy>
-1.184

>  <melting_point>
77.49

>  <molecular_refractivity>
38.51

>  <oscillator_strength_1>
0.349

>  <oscillator_strength_2>
0.0422

>  <oscillator_strength_3>
0.0022

>  <oscillator_strength_4>
0.0014

>  <open_babel_can_smiles>
O/N=C(\c1cccs1)/C

>  <mulliken_charges>
16
1   -0.532204
2   -0.104528
3   -0.104688
4   -0.338782
5   0.327821
6   -0.187022
7   -0.247899
8   -0.507798
9   0.253098
10   0.172722
11   0.172693
12   0.180224
13   0.143923
14   0.176995
15   0.175606
16   0.419838

>  <lowdin_charges>
16
1   -0.445453
2   -0.181263
3   -0.168576
4   -0.312228
5   0.023387
6   -0.173683
7   -0.07868
8   -0.372938
9   0.31031
10   0.16605
11   0.165923
12   0.174652
13   0.166428
14   0.185507
15   0.183786
16   0.356779

$$$$

