PCCDB-ID:  41753
public computational chemistry database (PCCDB) project, http://pccdb.org

 34 33  0  0  1  0  0  0  0  0999 V2000
    7.3376   -0.4024   -2.6880 C   0  0  0  0  0  0  0  0  0  0  0  0
    5.1654    4.9000    2.8880 C   0  0  0  0  0  0  0  0  0  0  0  0
    3.9568    2.8189    3.6440 C   0  0  0  0  0  0  0  0  0  0  0  0
    3.7170    3.6046   -1.3050 C   0  0  0  0  0  0  0  0  0  0  0  0
    6.4833   -0.0345   -1.4706 C   0  0  0  0  0  0  0  0  0  0  0  0
    6.0085    1.4258   -1.4840 C   0  0  0  0  0  0  0  0  0  0  0  0
    5.1583    1.7883   -0.2584 C   0  0  0  0  0  0  0  0  0  0  0  0
    3.9114    3.4605    1.1842 C   0  0  0  0  0  0  0  0  0  0  0  0
    4.7410    3.4739    2.4955 C   0  0  0  0  0  0  0  0  0  0  0  0
    4.6793    3.2676   -0.1531 C   0  0  2  0  0  0  0  0  0  0  0  0
    5.7856    4.2470   -0.2174 N   0  0  0  0  0  0  0  0  0  0  0  0
    7.6608   -1.4488   -2.6491 H   0  0  0  0  0  0  0  0  0  0  0  0
    8.2377    0.2223   -2.7444 H   0  0  0  0  0  0  0  0  0  0  0  0
    6.7791   -0.2610   -3.6216 H   0  0  0  0  0  0  0  0  0  0  0  0
    5.8291    4.8900    3.7615 H   0  0  0  0  0  0  0  0  0  0  0  0
    4.2829    5.4988    3.1500 H   0  0  0  0  0  0  0  0  0  0  0  0
    5.6737    5.4090    2.0645 H   0  0  0  0  0  0  0  0  0  0  0  0
    4.5269    2.8434    4.5806 H   0  0  0  0  0  0  0  0  0  0  0  0
    3.7173    1.7721    3.4212 H   0  0  0  0  0  0  0  0  0  0  0  0
    3.0098    3.3463    3.8195 H   0  0  0  0  0  0  0  0  0  0  0  0
    2.8324    2.9582   -1.2802 H   0  0  0  0  0  0  0  0  0  0  0  0
    4.1951    3.4778   -2.2836 H   0  0  0  0  0  0  0  0  0  0  0  0
    3.3901    4.6464   -1.2269 H   0  0  0  0  0  0  0  0  0  0  0  0
    7.0563   -0.2200   -0.5509 H   0  0  0  0  0  0  0  0  0  0  0  0
    5.6092   -0.6991   -1.4219 H   0  0  0  0  0  0  0  0  0  0  0  0
    5.4418    1.6040   -2.4083 H   0  0  0  0  0  0  0  0  0  0  0  0
    6.8895    2.0823   -1.5321 H   0  0  0  0  0  0  0  0  0  0  0  0
    5.7380    1.5454    0.6441 H   0  0  0  0  0  0  0  0  0  0  0  0
    4.2754    1.1329   -0.2325 H   0  0  0  0  0  0  0  0  0  0  0  0
    3.3506    4.4024    1.1230 H   0  0  0  0  0  0  0  0  0  0  0  0
    3.1616    2.6593    1.2392 H   0  0  0  0  0  0  0  0  0  0  0  0
    5.6536    2.8758    2.3497 H   0  0  0  0  0  0  0  0  0  0  0  0
    6.2086    4.2220   -1.1447 H   0  0  0  0  0  0  0  0  0  0  0  0
    6.5250    3.9757    0.4304 H   0  0  0  0  0  0  0  0  0  0  0  0
  1 12  1  0  0  0  0
  1  5  1  0  0  0  0
  2 16  1  0  0  0  0
  2 15  1  0  0  0  0
  3 20  1  0  0  0  0
  3 18  1  0  0  0  0
  4 21  1  0  0  0  0
  4 23  1  0  0  0  0
  5 25  1  0  0  0  0
  5 24  1  0  0  0  0
  6  5  1  0  0  0  0
  6  7  1  0  0  0  0
  7 29  1  0  0  0  0
  7 10  1  0  0  0  0
  7 28  1  0  0  0  0
  8 31  1  0  0  0  0
  8  9  1  0  0  0  0
  9  2  1  0  0  0  0
  9  3  1  0  0  0  0
 10  4  1  6  0  0  0
 10  8  1  0  0  0  0
 11 10  1  0  0  0  0
 11 34  1  0  0  0  0
 13  1  1  0  0  0  0
 14  1  1  0  0  0  0
 17  2  1  0  0  0  0
 19  3  1  0  0  0  0
 22  4  1  0  0  0  0
 26  6  1  0  0  0  0
 27  6  1  0  0  0  0
 30  8  1  0  0  0  0
 32  9  1  0  0  0  0
 33 11  1  0  0  0  0
M  END
>  <HBA>
1

>  <HBD>
1

>  <TPSA>
26.02

>  <cid>
41753

>  <dipole>
1.34

>  <excitation_energy_1>
5.682

>  <excitation_energy_2>
6.179

>  <excitation_energy_3>
6.25

>  <excitation_energy_4>
6.477

>  <homo_energy>
-6.223

>  <homo_lumo_gap>
8.12

>  <logP>
3.64

>  <lumo_energy>
1.897

>  <melting_point>
36.05

>  <molecular_refractivity>
52.93

>  <oscillator_strength_1>
0.0307

>  <oscillator_strength_2>
0.0001

>  <oscillator_strength_3>
0.002

>  <oscillator_strength_4>
0.0103

>  <open_babel_can_smiles>
CCCC[C@@](CC(C)C)(N)C

>  <mulliken_charges>
34
1   -0.441938
2   -0.453438
3   -0.446239
4   -0.454756
5   -0.246775
6   -0.255555
7   -0.264513
8   -0.243011
9   -0.074116
10   0.180301
11   -0.720135
12   0.142767
13   0.140372
14   0.141661
15   0.129857
16   0.135606
17   0.168049
18   0.137343
19   0.137632
20   0.14011
21   0.139559
22   0.135335
23   0.156312
24   0.130063
25   0.132042
26   0.132105
27   0.113222
28   0.12482
29   0.124161
30   0.133473
31   0.121363
32   0.115053
33   0.2954
34   0.293869

>  <lowdin_charges>
34
1   -0.443652
2   -0.454245
3   -0.442341
4   -0.445941
5   -0.2714
6   -0.281743
7   -0.294197
8   -0.277609
9   -0.124422
10   0.061806
11   -0.547669
12   0.148626
13   0.145885
14   0.146339
15   0.142421
16   0.144544
17   0.160951
18   0.145892
19   0.14394
20   0.145518
21   0.149863
22   0.143971
23   0.155533
24   0.138587
25   0.139927
26   0.139177
27   0.131508
28   0.137776
29   0.140456
30   0.147128
31   0.140592
32   0.129317
33   0.251693
34   0.251769

$$$$

