PCCDB-ID:  69413
public computational chemistry database (PCCDB) project, http://pccdb.org

 12 11  0  0  0  0  0  0  0  0999 V2000
    1.1575   -0.1080    0.2818 C   0  0  0  0  0  0  0  0  0  0  0  0
   -2.8931    1.1542   -0.6526 C   0  0  0  0  0  0  0  0  0  0  0  0
   -0.2905   -0.1247    0.0368 C   0  0  0  0  0  0  0  0  0  0  0  0
   -2.4119    0.8807    0.7240 C   0  0  0  0  0  0  0  0  0  0  0  0
    2.3038   -0.0794    0.4566 N   0  0  0  0  0  0  0  0  0  0  0  0
   -3.1981    1.3688   -1.7523 N   0  0  0  0  0  0  0  0  0  0  0  0
   -0.9620    0.8734    0.8744 N   0  0  0  0  0  0  0  0  0  0  0  0
   -0.6761   -1.1168    0.3040 H   0  0  0  0  0  0  0  0  0  0  0  0
   -0.4624    0.0055   -1.0456 H   0  0  0  0  0  0  0  0  0  0  0  0
   -2.8099   -0.0895    1.0448 H   0  0  0  0  0  0  0  0  0  0  0  0
   -2.8284    1.6350    1.3994 H   0  0  0  0  0  0  0  0  0  0  0  0
   -0.5845    1.7980    0.6766 H   0  0  0  0  0  0  0  0  0  0  0  0
  1  5  3  0  0  0  0
  2  4  1  0  0  0  0
  3  1  1  0  0  0  0
  3  8  1  0  0  0  0
  3  7  1  0  0  0  0
  4  7  1  0  0  0  0
  4 10  1  0  0  0  0
  4 11  1  0  0  0  0
  6  2  3  0  0  0  0
  9  3  1  0  0  0  0
 12  7  1  0  0  0  0
M  END
>  <HBA>
3

>  <HBD>
1

>  <TPSA>
59.61

>  <cid>
69413

>  <dipole>
3.09

>  <excitation_energy_1>
5.924

>  <excitation_energy_2>
6.684

>  <excitation_energy_3>
6.912

>  <excitation_energy_4>
7.081

>  <homo_energy>
-7.668

>  <homo_lumo_gap>
7.369

>  <logP>
0.014

>  <lumo_energy>
-0.299

>  <melting_point>
69.75

>  <molecular_refractivity>
23.64

>  <oscillator_strength_1>
0.0148

>  <oscillator_strength_2>
0.0099

>  <oscillator_strength_3>
0.0012

>  <oscillator_strength_4>
0.0213

>  <open_babel_can_smiles>
N#CCNCC#N

>  <mulliken_charges>
12
1   0.354746
2   0.339215
3   -0.19461
4   -0.217184
5   -0.456367
6   -0.454005
7   -0.526499
8   0.203041
9   0.201584
10   0.206801
11   0.213299
12   0.32998

>  <lowdin_charges>
12
1   -0.018481
2   -0.044873
3   -0.19415
4   -0.200737
5   -0.102935
6   -0.110993
7   -0.329864
8   0.182665
9   0.169369
10   0.183545
11   0.192006
12   0.274448

$$$$

