PCCDB-ID:  23686
public computational chemistry database (PCCDB) project, http://pccdb.org

 19 20  0  0  0  0  0  0  0  0999 V2000
    0.9856    0.0350    0.1121 C   0  0  0  0  0  0  0  0  0  0  0  0
    7.2929   -1.0609   -0.0842 C   0  0  0  0  0  0  0  0  0  0  0  0
    6.5835   -2.2892   -0.1113 C   0  0  0  0  0  0  0  0  0  0  0  0
    6.6163    0.1372   -0.0293 C   0  0  0  0  0  0  0  0  0  0  0  0
    5.2068   -2.3072   -0.0819 C   0  0  0  0  0  0  0  0  0  0  0  0
    3.2205    1.2723    0.0860 C   0  0  0  0  0  0  0  0  0  0  0  0
    2.4921    0.0428    0.0630 C   0  0  0  0  0  0  0  0  0  0  0  0
    5.1987    0.1482    0.0031 C   0  0  0  0  0  0  0  0  0  0  0  0
    4.4828   -1.0886   -0.0229 C   0  0  0  0  0  0  0  0  0  0  0  0
    4.5329    1.3383    0.0575 N   0  0  0  0  0  0  0  0  0  0  0  0
    3.1197   -1.1174    0.0074 N   0  0  0  0  0  0  0  0  0  0  0  0
    0.5720    1.0396   -0.0188 H   0  0  0  0  0  0  0  0  0  0  0  0
    0.6350   -0.3556    1.0750 H   0  0  0  0  0  0  0  0  0  0  0  0
    0.5823   -0.6181   -0.6681 H   0  0  0  0  0  0  0  0  0  0  0  0
    8.3791   -1.0714   -0.1075 H   0  0  0  0  0  0  0  0  0  0  0  0
    7.1370   -3.2232   -0.1558 H   0  0  0  0  0  0  0  0  0  0  0  0
    7.1337    1.0914   -0.0088 H   0  0  0  0  0  0  0  0  0  0  0  0
    4.6422   -3.2343   -0.1020 H   0  0  0  0  0  0  0  0  0  0  0  0
    2.6787    2.2171    0.1280 H   0  0  0  0  0  0  0  0  0  0  0  0
  1 13  1  0  0  0  0
  2  4  1  0  0  0  0
  3  2  2  0  0  0  0
  3  5  1  0  0  0  0
  4 17  1  0  0  0  0
  4  8  2  0  0  0  0
  5  9  2  0  0  0  0
  6 19  1  0  0  0  0
  7  6  1  0  0  0  0
  7  1  1  0  0  0  0
  8 10  1  0  0  0  0
  9  8  1  0  0  0  0
  9 11  1  0  0  0  0
 10  6  2  0  0  0  0
 11  7  2  0  0  0  0
 12  1  1  0  0  0  0
 14  1  1  0  0  0  0
 15  2  1  0  0  0  0
 16  3  1  0  0  0  0
 18  5  1  0  0  0  0
M  END
>  <HBA>
2

>  <HBD>
0

>  <TPSA>
25.78

>  <cid>
23686

>  <dipole>
0.38

>  <excitation_energy_1>
3.56

>  <excitation_energy_2>
4.117

>  <excitation_energy_3>
4.376

>  <excitation_energy_4>
4.832

>  <homo_energy>
-6.555

>  <homo_lumo_gap>
4.732

>  <logP>
1.938

>  <lumo_energy>
-1.823

>  <melting_point>
83.5

>  <molecular_refractivity>
44.5

>  <oscillator_strength_1>
0.0025

>  <oscillator_strength_2>
0.0263

>  <oscillator_strength_3>
0.0965

>  <oscillator_strength_4>
0.0

>  <open_babel_can_smiles>
Cc1cnc2c(n1)cccc2

>  <mulliken_charges>
19
1   -0.514363
2   -0.136886
3   -0.133883
4   -0.150074
5   -0.156001
6   0.000244
7   0.300068
8   0.265672
9   0.278034
10   -0.458406
11   -0.5201
12   0.15589
13   0.177994
14   0.17932
15   0.13823
16   0.138277
17   0.147463
18   0.145892
19   0.14263

>  <lowdin_charges>
19
1   -0.446562
2   -0.149318
3   -0.149255
4   -0.151227
5   -0.154544
6   -0.115589
7   0.039687
8   0.023
9   0.029287
10   -0.118409
11   -0.135018
12   0.157358
13   0.172212
14   0.174519
15   0.160465
16   0.162845
17   0.170629
18   0.170243
19   0.159677

$$$$

