PCCDB-ID:  11927
public computational chemistry database (PCCDB) project, http://pccdb.org

 20 21  0  0  0  0  0  0  0  0999 V2000
    0.8464   -0.0867   -0.0146 C   0  0  0  0  0  0  0  0  0  0  0  0
    7.2529   -1.2060    0.3249 C   0  0  0  0  0  0  0  0  0  0  0  0
    6.6007    0.0047    0.2972 C   0  0  0  0  0  0  0  0  0  0  0  0
    3.0473    1.1703    0.1130 C   0  0  0  0  0  0  0  0  0  0  0  0
    4.4186    1.2225    0.1876 C   0  0  0  0  0  0  0  0  0  0  0  0
    6.4810   -2.3939    0.2766 C   0  0  0  0  0  0  0  0  0  0  0  0
    3.0862   -1.2425    0.0971 C   0  0  0  0  0  0  0  0  0  0  0  0
    2.3540   -0.0738    0.0656 C   0  0  0  0  0  0  0  0  0  0  0  0
    5.1861    0.0280    0.2208 C   0  0  0  0  0  0  0  0  0  0  0  0
    4.5042   -1.2289    0.1745 C   0  0  0  0  0  0  0  0  0  0  0  0
    5.1649   -2.4241    0.2036 N   0  0  0  0  0  0  0  0  0  0  0  0
    0.4913    0.4345   -0.9127 H   0  0  0  0  0  0  0  0  0  0  0  0
    0.3975    0.4211    0.8485 H   0  0  0  0  0  0  0  0  0  0  0  0
    0.4571   -1.1087   -0.0435 H   0  0  0  0  0  0  0  0  0  0  0  0
    8.3357   -1.2654    0.3826 H   0  0  0  0  0  0  0  0  0  0  0  0
    7.1514    0.9422    0.3331 H   0  0  0  0  0  0  0  0  0  0  0  0
    2.4726    2.0935    0.0888 H   0  0  0  0  0  0  0  0  0  0  0  0
    4.9328    2.1804    0.2242 H   0  0  0  0  0  0  0  0  0  0  0  0
    6.9840   -3.3606    0.2986 H   0  0  0  0  0  0  0  0  0  0  0  0
    2.6000   -2.2134    0.0629 H   0  0  0  0  0  0  0  0  0  0  0  0
  1  8  1  0  0  0  0
  1 13  1  0  0  0  0
  2 15  1  0  0  0  0
  3  2  1  0  0  0  0
  3 16  1  0  0  0  0
  4  5  2  0  0  0  0
  5  9  1  0  0  0  0
  5 18  1  0  0  0  0
  6 19  1  0  0  0  0
  6  2  2  0  0  0  0
  7 10  1  0  0  0  0
  8  7  2  0  0  0  0
  8  4  1  0  0  0  0
  9  3  2  0  0  0  0
 10 11  2  0  0  0  0
 10  9  1  0  0  0  0
 11  6  1  0  0  0  0
 12  1  1  0  0  0  0
 14  1  1  0  0  0  0
 17  4  1  0  0  0  0
 20  7  1  0  0  0  0
M  END
>  <HBA>
1

>  <HBD>
0

>  <TPSA>
12.89

>  <cid>
11927

>  <dipole>
2.0

>  <excitation_energy_1>
4.319

>  <excitation_energy_2>
4.331

>  <excitation_energy_3>
4.476

>  <excitation_energy_4>
5.213

>  <homo_energy>
-6.177

>  <homo_lumo_gap>
4.895

>  <logP>
2.543

>  <lumo_energy>
-1.282

>  <melting_point>
67.99

>  <molecular_refractivity>
46.71

>  <oscillator_strength_1>
0.0016

>  <oscillator_strength_2>
0.0399

>  <oscillator_strength_3>
0.0201

>  <oscillator_strength_4>
0.0

>  <open_babel_can_smiles>
Cc1ccc2c(c1)nccc2

>  <mulliken_charges>
20
1   -0.532554
2   -0.154767
3   -0.149181
4   -0.174495
5   -0.196468
6   0.043326
7   -0.208745
8   0.177133
9   0.15616
10   0.240591
11   -0.498228
12   0.163174
13   0.163295
14   0.162041
15   0.135904
16   0.139689
17   0.126494
18   0.131588
19   0.138755
20   0.136289

>  <lowdin_charges>
20
1   -0.441873
2   -0.181367
3   -0.128502
4   -0.162552
5   -0.155667
6   -0.087232
7   -0.166547
8   0.006034
9   -0.018698
10   0.042818
11   -0.151124
12   0.16185
13   0.1622
14   0.159581
15   0.161778
16   0.161741
17   0.1577
18   0.158171
19   0.155386
20   0.166303

$$$$

