PCCDB-ID:  4610
public computational chemistry database (PCCDB) project, http://pccdb.org

 22 22  0  0  1  0  0  0  0  0999 V2000
    0.7379    1.2889   -0.2661 C   0  0  0  0  0  0  0  0  0  0  0  0
    1.5052    0.0405    0.1961 C   0  0  0  0  0  0  0  0  0  0  0  0
   -0.7214    1.2739    0.2176 C   0  0  0  0  0  0  0  0  0  0  0  0
    0.7725   -1.2459   -0.2166 C   0  0  0  0  0  0  0  0  0  0  0  0
   -1.4569   -0.0118   -0.1990 C   0  0  1  0  0  0  0  0  0  0  0  0
   -0.6886   -1.2728    0.2866 C   0  0  2  0  0  0  0  0  0  0  0  0
   -2.8520    0.0470    0.2487 N   0  0  0  0  0  0  0  0  0  0  0  0
   -0.8397   -1.4028    1.7486 N   0  0  0  0  0  0  0  0  0  0  0  0
    0.7509    1.3291   -1.3655 H   0  0  0  0  0  0  0  0  0  0  0  0
    1.2447    2.1976    0.0830 H   0  0  0  0  0  0  0  0  0  0  0  0
    1.6228    0.0687    1.2901 H   0  0  0  0  0  0  0  0  0  0  0  0
    2.5224    0.0409   -0.2151 H   0  0  0  0  0  0  0  0  0  0  0  0
   -1.2742    2.1335   -0.1766 H   0  0  0  0  0  0  0  0  0  0  0  0
   -0.7521    1.3708    1.3137 H   0  0  0  0  0  0  0  0  0  0  0  0
    1.3092   -2.1318    0.1509 H   0  0  0  0  0  0  0  0  0  0  0  0
    0.7694   -1.3169   -1.3145 H   0  0  0  0  0  0  0  0  0  0  0  0
   -1.4679   -0.0428   -1.2985 H   0  0  0  0  0  0  0  0  0  0  0  0
   -1.1912   -2.1504   -0.1434 H   0  0  0  0  0  0  0  0  0  0  0  0
   -2.8528   -0.1997    1.2405 H   0  0  0  0  0  0  0  0  0  0  0  0
   -3.3769   -0.7009   -0.2064 H   0  0  0  0  0  0  0  0  0  0  0  0
   -0.2360   -0.7370    2.2283 H   0  0  0  0  0  0  0  0  0  0  0  0
   -0.5291   -2.3263    2.0459 H   0  0  0  0  0  0  0  0  0  0  0  0
  1 10  1  0  0  0  0
  1  2  1  0  0  0  0
  1  3  1  0  0  0  0
  2 11  1  0  0  0  0
  3 14  1  0  0  0  0
  4 15  1  0  0  0  0
  4  2  1  0  0  0  0
  4  6  1  0  0  0  0
  5 17  1  6  0  0  0
  5  3  1  0  0  0  0
  5  7  1  0  0  0  0
  5  6  1  0  0  0  0
  6 18  1  6  0  0  0
  6  8  1  0  0  0  0
  7 19  1  0  0  0  0
  8 22  1  0  0  0  0
  8 21  1  0  0  0  0
  9  1  1  0  0  0  0
 12  2  1  0  0  0  0
 13  3  1  0  0  0  0
 16  4  1  0  0  0  0
 20  7  1  0  0  0  0
M  END
>  <HBA>
2

>  <HBD>
2

>  <TPSA>
52.04

>  <cid>
4610

>  <dipole>
2.46

>  <excitation_energy_1>
5.424

>  <excitation_energy_2>
5.711

>  <excitation_energy_3>
5.804

>  <excitation_energy_4>
6.098

>  <homo_energy>
-5.962

>  <homo_lumo_gap>
7.747

>  <logP>
1.616

>  <lumo_energy>
1.785

>  <melting_point>
104.51

>  <molecular_refractivity>
34.26

>  <oscillator_strength_1>
0.0063

>  <oscillator_strength_2>
0.0309

>  <oscillator_strength_3>
0.0038

>  <oscillator_strength_4>
0.0125

>  <open_babel_can_smiles>
N[C@@H]1CCCC[C@@H]1N

>  <mulliken_charges>
22
1   -0.261578
2   -0.264595
3   -0.256256
4   -0.264127
5   0.023543
6   0.012024
7   -0.715188
8   -0.731615
9   0.128979
10   0.131415
11   0.118043
12   0.134535
13   0.148163
14   0.121974
15   0.12085
16   0.127779
17   0.118058
18   0.114964
19   0.309452
20   0.283981
21   0.300431
22   0.299167

>  <lowdin_charges>
22
1   -0.277372
2   -0.278343
3   -0.282465
4   -0.294033
5   -0.076372
6   -0.088293
7   -0.549412
8   -0.558317
9   0.136002
10   0.144631
11   0.129028
12   0.145277
13   0.155172
14   0.133564
15   0.13889
16   0.139073
17   0.132329
18   0.135646
19   0.255811
20   0.249604
21   0.25259
22   0.25699

$$$$

