PCCDB-ID:  56817
public computational chemistry database (PCCDB) project, http://pccdb.org

 36 35  0  0  1  0  0  0  0  0999 V2000
    5.6300   -0.4763    1.2958 C   0  0  0  0  0  0  0  0  0  0  0  0
    5.7745    1.0243   -5.2081 C   0  0  0  0  0  0  0  0  0  0  0  0
    3.7273   -1.9218   -0.6905 C   0  0  0  0  0  0  0  0  0  0  0  0
    6.0292   -0.9742   -0.0998 C   0  0  0  0  0  0  0  0  0  0  0  0
    4.9853    0.3829   -4.0631 C   0  0  0  0  0  0  0  0  0  0  0  0
    4.1648    3.6062   -2.9371 C   0  0  0  0  0  0  0  0  0  0  0  0
    3.6442    4.9744   -3.0001 C   0  0  0  0  0  0  0  0  0  0  0  0
    4.5968    2.4807   -2.8096 C   0  0  0  0  0  0  0  0  0  0  0  0
    3.4376    5.5680   -1.5917 C   0  0  0  0  0  0  0  0  0  0  0  0
    4.3637    0.3624   -1.5700 C   0  0  0  0  0  0  0  0  0  0  0  0
    4.8952   -1.0326   -1.1529 C   0  0  2  0  0  0  0  0  0  0  0  0
    5.1303    1.1044   -2.6959 C   0  0  1  0  0  0  0  0  0  0  0  0
    4.6398    5.6184   -0.8478 O   0  0  0  0  0  0  0  0  0  0  0  0
    6.5119    1.1575   -2.2985 O   0  0  0  0  0  0  0  0  0  0  0  0
    6.5079   -0.4418    1.9510 H   0  0  0  0  0  0  0  0  0  0  0  0
    4.8917   -1.1306    1.7735 H   0  0  0  0  0  0  0  0  0  0  0  0
    5.2081    0.5353    1.2689 H   0  0  0  0  0  0  0  0  0  0  0  0
    5.6180    0.4693   -6.1392 H   0  0  0  0  0  0  0  0  0  0  0  0
    6.8527    1.0151   -5.0070 H   0  0  0  0  0  0  0  0  0  0  0  0
    5.4640    2.0609   -5.3789 H   0  0  0  0  0  0  0  0  0  0  0  0
    4.0869   -2.9017   -0.3532 H   0  0  0  0  0  0  0  0  0  0  0  0
    3.0146   -2.0891   -1.5069 H   0  0  0  0  0  0  0  0  0  0  0  0
    3.1727   -1.4684    0.1399 H   0  0  0  0  0  0  0  0  0  0  0  0
    6.4466   -1.9866   -0.0014 H   0  0  0  0  0  0  0  0  0  0  0  0
    6.8299   -0.3420   -0.4945 H   0  0  0  0  0  0  0  0  0  0  0  0
    5.3134   -0.6541   -3.9340 H   0  0  0  0  0  0  0  0  0  0  0  0
    3.9192    0.3554   -4.3209 H   0  0  0  0  0  0  0  0  0  0  0  0
    2.6923    4.9905   -3.5492 H   0  0  0  0  0  0  0  0  0  0  0  0
    4.3447    5.6137   -3.5531 H   0  0  0  0  0  0  0  0  0  0  0  0
    2.6590    4.9931   -1.0658 H   0  0  0  0  0  0  0  0  0  0  0  0
    3.0894    6.6017   -1.6821 H   0  0  0  0  0  0  0  0  0  0  0  0
    4.3372    1.0220   -0.6957 H   0  0  0  0  0  0  0  0  0  0  0  0
    3.3252    0.2734   -1.9123 H   0  0  0  0  0  0  0  0  0  0  0  0
    5.3285   -1.5166   -2.0377 H   0  0  0  0  0  0  0  0  0  0  0  0
    4.9868    4.7107   -0.8154 H   0  0  0  0  0  0  0  0  0  0  0  0
    6.9628    1.7674   -2.9032 H   0  0  0  0  0  0  0  0  0  0  0  0
  1 16  1  0  0  0  0
  1 15  1  0  0  0  0
  2 19  1  0  0  0  0
  2  5  1  0  0  0  0
  3 21  1  0  0  0  0
  3 23  1  0  0  0  0
  4 24  1  0  0  0  0
  4  1  1  0  0  0  0
  5 26  1  0  0  0  0
  5 12  1  0  0  0  0
  6  8  3  0  0  0  0
  7  6  1  0  0  0  0
  7  9  1  0  0  0  0
  9 30  1  0  0  0  0
  9 13  1  0  0  0  0
 10 11  1  0  0  0  0
 10 32  1  0  0  0  0
 11 34  1  6  0  0  0
 11  3  1  0  0  0  0
 11  4  1  0  0  0  0
 12  8  1  6  0  0  0
 12 14  1  0  0  0  0
 12 10  1  0  0  0  0
 13 35  1  0  0  0  0
 17  1  1  0  0  0  0
 18  2  1  0  0  0  0
 20  2  1  0  0  0  0
 22  3  1  0  0  0  0
 25  4  1  0  0  0  0
 27  5  1  0  0  0  0
 28  7  1  0  0  0  0
 29  7  1  0  0  0  0
 31  9  1  0  0  0  0
 33 10  1  0  0  0  0
 36 14  1  0  0  0  0
M  END
>  <HBA>
2

>  <HBD>
2

>  <TPSA>
40.46

>  <cid>
56817

>  <dipole>
2.4

>  <excitation_energy_1>
6.086

>  <excitation_energy_2>
6.286

>  <excitation_energy_3>
6.323

>  <excitation_energy_4>
6.568

>  <homo_energy>
-6.879

>  <homo_lumo_gap>
7.785

>  <logP>
1.95

>  <lumo_energy>
0.906

>  <melting_point>
35.06

>  <molecular_refractivity>
60.32

>  <oscillator_strength_1>
0.0187

>  <oscillator_strength_2>
0.0155

>  <oscillator_strength_3>
0.011

>  <oscillator_strength_4>
0.0106

>  <open_babel_can_smiles>
OCCC#C[C@@](C[C@@H](CC)C)(CC)O

>  <mulliken_charges>
36
1   -0.451595
2   -0.469912
3   -0.456429
4   -0.260377
5   -0.253387
6   -0.069326
7   -0.401796
8   0.088698
9   -0.022884
10   -0.277033
11   -0.065028
12   0.187411
13   -0.612753
14   -0.635984
15   0.141985
16   0.141215
17   0.142712
18   0.151945
19   0.138333
20   0.157601
21   0.140031
22   0.136831
23   0.145012
24   0.120024
25   0.168032
26   0.149874
27   0.139017
28   0.166354
29   0.17845
30   0.13036
31   0.149968
32   0.14522
33   0.137711
34   0.127265
35   0.395864
36   0.396594

>  <lowdin_charges>
36
1   -0.4506
2   -0.450832
3   -0.447762
4   -0.28213
5   -0.27842
6   -0.090288
7   -0.282332
8   -0.099641
9   -0.126007
10   -0.274458
11   -0.125311
12   0.13466
13   -0.463622
14   -0.451434
15   0.151066
16   0.146047
17   0.143643
18   0.156788
19   0.142596
20   0.153853
21   0.1473
22   0.146319
23   0.148157
24   0.135933
25   0.159821
26   0.150123
27   0.14842
28   0.16886
29   0.17269
30   0.132338
31   0.148685
32   0.153666
33   0.149619
34   0.141308
35   0.343943
36   0.347004

$$$$

