PCCDB-ID:  24478
public computational chemistry database (PCCDB) project, http://pccdb.org

  7  6  0  0  0  0  0  0  0  0999 V2000
    1.0528   -0.0099   -0.0464 O   0  0  0  0  0  0  0  0  0  0  0  0
    3.1134    1.1164   -0.9709 O   0  0  0  0  0  0  0  0  0  0  0  0
    3.0102    0.4493    1.4312 O   0  0  0  0  0  0  0  0  0  0  0  0
    3.2995   -1.7361   -0.5863 S   0  0  0  0  0  0  0  0  0  0  0  0
    2.6885   -0.0604    0.0931 S   0  0  0  0  0  0  0  0  0  0  0  0
    0.7269    0.4985    0.7237 H   0  0  0  0  0  0  0  0  0  0  0  0
    3.3123    1.9116   -0.4361 H   0  0  0  0  0  0  0  0  0  0  0  0
  1  5  1  0  0  0  0
  1  6  1  0  0  0  0
  2  7  1  0  0  0  0
  2  5  1  0  0  0  0
  4  5  2  0  0  0  0
  5  3  2  0  0  0  0
M  END
>  <HBA>
4

>  <HBD>
2

>  <TPSA>
98.0

>  <cid>
24478

>  <dipole>
3.36

>  <excitation_energy_1>
5.001

>  <excitation_energy_2>
5.061

>  <excitation_energy_3>
5.811

>  <excitation_energy_4>
6.036

>  <homo_energy>
-7.434

>  <homo_lumo_gap>
6.452

>  <logP>
1.195

>  <lumo_energy>
-0.982

>  <melting_point>
108.39

>  <molecular_refractivity>
21.13

>  <oscillator_strength_1>
0.0036

>  <oscillator_strength_2>
0.0032

>  <oscillator_strength_3>
0.0

>  <oscillator_strength_4>
0.0049

>  <open_babel_can_smiles>
OS(=S)(=O)O

>  <mulliken_charges>
7
1   -0.59773
2   -0.597771
3   -0.505727
4   -0.190813
5   1.003645
6   0.444196
7   0.444201

>  <lowdin_charges>
7
1   -0.564636
2   -0.56108
3   -0.578241
4   -0.246425
5   1.182455
6   0.383804
7   0.384125

$$$$

