PCCDB-ID:  41470
public computational chemistry database (PCCDB) project, http://pccdb.org

 16 16  0  0  0  0  0  0  0  0999 V2000
   -1.3029   -0.3328    0.1858 C   0  0  0  0  0  0  0  0  0  0  0  0
   -0.4262   -1.3273    0.0240 C   0  0  0  0  0  0  0  0  0  0  0  0
   -0.9036    1.1230    0.1813 C   0  0  0  0  0  0  0  0  0  0  0  0
    1.0541   -1.1026   -0.1592 C   0  0  0  0  0  0  0  0  0  0  0  0
    0.4786    1.3192   -0.4609 C   0  0  0  0  0  0  0  0  0  0  0  0
    2.4708    0.5591    0.7944 N   0  0  0  0  0  0  0  0  0  0  0  0
    1.3992    0.2975    0.0281 N   0  0  0  0  0  0  0  0  0  0  0  0
    2.7078    1.7470    0.9907 O   0  0  0  0  0  0  0  0  0  0  0  0
   -2.3563   -0.5634    0.3324 H   0  0  0  0  0  0  0  0  0  0  0  0
   -0.7559   -2.3640    0.0104 H   0  0  0  0  0  0  0  0  0  0  0  0
   -0.8944    1.5136    1.2090 H   0  0  0  0  0  0  0  0  0  0  0  0
   -1.6453    1.7202   -0.3653 H   0  0  0  0  0  0  0  0  0  0  0  0
    1.3661   -1.4423   -1.1608 H   0  0  0  0  0  0  0  0  0  0  0  0
    1.6415   -1.6743    0.5678 H   0  0  0  0  0  0  0  0  0  0  0  0
    0.9216    2.2850   -0.2151 H   0  0  0  0  0  0  0  0  0  0  0  0
    0.4071    1.2268   -1.5520 H   0  0  0  0  0  0  0  0  0  0  0  0
  1  9  1  0  0  0  0
  2  1  2  0  0  0  0
  3  1  1  0  0  0  0
  3 11  1  0  0  0  0
  4  2  1  0  0  0  0
  4  7  1  0  0  0  0
  4 14  1  0  0  0  0
  5 15  1  0  0  0  0
  5  7  1  0  0  0  0
  5  3  1  0  0  0  0
  6  8  2  0  0  0  0
  7  6  1  0  0  0  0
 10  2  1  0  0  0  0
 12  3  1  0  0  0  0
 13  4  1  0  0  0  0
 16  5  1  0  0  0  0
M  END
>  <HBA>
3

>  <HBD>
0

>  <TPSA>
32.67

>  <cid>
41470

>  <dipole>
4.08

>  <excitation_energy_1>
3.385

>  <excitation_energy_2>
5.273

>  <excitation_energy_3>
5.418

>  <excitation_energy_4>
5.683

>  <homo_energy>
-6.019

>  <homo_lumo_gap>
5.23

>  <logP>
0.868

>  <lumo_energy>
-0.789

>  <melting_point>
28.16

>  <molecular_refractivity>
35.11

>  <oscillator_strength_1>
0.001

>  <oscillator_strength_2>
0.0028

>  <oscillator_strength_3>
0.0027

>  <oscillator_strength_4>
0.1269

>  <open_babel_can_smiles>
O=NN1CCC=CC1

>  <mulliken_charges>
16
1   -0.099974
2   -0.126009
3   -0.306709
4   -0.150597
5   -0.167419
6   0.151036
7   -0.229704
8   -0.379994
9   0.136029
10   0.138783
11   0.171687
12   0.152779
13   0.164355
14   0.185779
15   0.1978
16   0.162157

>  <lowdin_charges>
16
1   -0.165441
2   -0.181327
3   -0.279358
4   -0.19641
5   -0.214893
6   0.053383
7   -0.045546
8   -0.271883
9   0.158006
10   0.161042
11   0.162246
12   0.158969
13   0.153736
14   0.175088
15   0.179139
16   0.153249

$$$$

