PCCDB-ID:  27553
public computational chemistry database (PCCDB) project, http://pccdb.org

 31 33  0  0  0  0  0  0  0  0999 V2000
    1.0472    0.1025    0.0439 C   0  0  0  0  0  0  0  0  0  0  0  0
    3.2770    1.2732   -0.2247 C   0  0  0  0  0  0  0  0  0  0  0  0
    4.6638    1.2998   -0.3057 C   0  0  0  0  0  0  0  0  0  0  0  0
    5.4041   -3.6534    0.3037 C   0  0  0  0  0  0  0  0  0  0  0  0
    8.2602   -2.1625    0.0197 C   0  0  0  0  0  0  0  0  0  0  0  0
    6.4251   -4.5424   -0.4210 C   0  0  0  0  0  0  0  0  0  0  0  0
    8.2966   -3.4576    0.8655 C   0  0  0  0  0  0  0  0  0  0  0  0
    3.2563   -1.1269    0.1128 C   0  0  0  0  0  0  0  0  0  0  0  0
    2.5584    0.0710   -0.0195 C   0  0  0  0  0  0  0  0  0  0  0  0
    5.6577   -2.1775    0.1284 C   0  0  0  0  0  0  0  0  0  0  0  0
    4.6604   -1.1399    0.0361 C   0  0  0  0  0  0  0  0  0  0  0  0
    5.3446    0.0864   -0.1744 C   0  0  0  0  0  0  0  0  0  0  0  0
    6.8838   -1.5664   -0.0244 C   0  0  0  0  0  0  0  0  0  0  0  0
    7.7065   -4.6651    0.2889 N   0  0  0  0  0  0  0  0  0  0  0  0
    6.6934   -0.2035   -0.2062 N   0  0  0  0  0  0  0  0  0  0  0  0
    0.6882    0.8518    0.7605 H   0  0  0  0  0  0  0  0  0  0  0  0
    0.6411   -0.8682    0.3469 H   0  0  0  0  0  0  0  0  0  0  0  0
    0.6064    0.3545   -0.9300 H   0  0  0  0  0  0  0  0  0  0  0  0
    2.7246    2.2053   -0.3213 H   0  0  0  0  0  0  0  0  0  0  0  0
    5.1963    2.2350   -0.4618 H   0  0  0  0  0  0  0  0  0  0  0  0
    5.3678   -3.9421    1.3648 H   0  0  0  0  0  0  0  0  0  0  0  0
    4.4121   -3.8858   -0.1039 H   0  0  0  0  0  0  0  0  0  0  0  0
    8.6455   -2.3668   -0.9916 H   0  0  0  0  0  0  0  0  0  0  0  0
    8.9536   -1.4345    0.4669 H   0  0  0  0  0  0  0  0  0  0  0  0
    6.5379   -4.1484   -1.4468 H   0  0  0  0  0  0  0  0  0  0  0  0
    6.0165   -5.5570   -0.5154 H   0  0  0  0  0  0  0  0  0  0  0  0
    7.8028   -3.2437    1.8216 H   0  0  0  0  0  0  0  0  0  0  0  0
    9.3381   -3.7013    1.1043 H   0  0  0  0  0  0  0  0  0  0  0  0
    2.7097   -2.0531    0.2773 H   0  0  0  0  0  0  0  0  0  0  0  0
    8.3792   -5.1015   -0.3367 H   0  0  0  0  0  0  0  0  0  0  0  0
    7.4344    0.4684   -0.3327 H   0  0  0  0  0  0  0  0  0  0  0  0
  1 17  1  0  0  0  0
  1 16  1  0  0  0  0
  2  9  1  0  0  0  0
  3  2  2  0  0  0  0
  3 12  1  0  0  0  0
  4 21  1  0  0  0  0
  5 24  1  0  0  0  0
  5  7  1  0  0  0  0
  6 14  1  0  0  0  0
  6  4  1  0  0  0  0
  7 28  1  0  0  0  0
  7 27  1  0  0  0  0
  8 29  1  0  0  0  0
  9  1  1  0  0  0  0
  9  8  2  0  0  0  0
 10  4  1  0  0  0  0
 11  8  1  0  0  0  0
 11 10  1  0  0  0  0
 12 11  2  0  0  0  0
 13  5  1  0  0  0  0
 13 10  2  0  0  0  0
 14  7  1  0  0  0  0
 15 12  1  0  0  0  0
 15 13  1  0  0  0  0
 18  1  1  0  0  0  0
 19  2  1  0  0  0  0
 20  3  1  0  0  0  0
 22  4  1  0  0  0  0
 23  5  1  0  0  0  0
 25  6  1  0  0  0  0
 26  6  1  0  0  0  0
 30 14  1  0  0  0  0
 31 15  1  0  0  0  0
M  END
>  <HBA>
1

>  <HBD>
2

>  <TPSA>
27.82

>  <cid>
27553

>  <dipole>
2.62

>  <excitation_energy_1>
4.489

>  <excitation_energy_2>
4.53

>  <excitation_energy_3>
4.669

>  <excitation_energy_4>
4.865

>  <homo_energy>
-5.089

>  <homo_lumo_gap>
5.151

>  <logP>
2.493

>  <lumo_energy>
0.063

>  <melting_point>
157.87

>  <molecular_refractivity>
67.41

>  <oscillator_strength_1>
0.0194

>  <oscillator_strength_2>
0.0676

>  <oscillator_strength_3>
0.0302

>  <oscillator_strength_4>
0.0029

>  <open_babel_can_smiles>
Cc1ccc2c(c1)c1CCNCCc1[nH]2

>  <mulliken_charges>
31
1   -0.530603
2   -0.202109
3   -0.169555
4   -0.353129
5   -0.351875
6   -0.122243
7   -0.140242
8   -0.275958
9   0.177971
10   0.041978
11   0.070634
12   0.328574
13   0.299766
14   -0.547696
15   -0.764908
16   0.152966
17   0.149908
18   0.155608
19   0.112116
20   0.116312
21   0.156246
22   0.145917
23   0.148668
24   0.135344
25   0.119895
26   0.135168
27   0.154171
28   0.135701
29   0.113158
30   0.291395
31   0.316824

>  <lowdin_charges>
31
1   -0.442049
2   -0.176259
3   -0.188052
4   -0.273118
5   -0.297605
6   -0.199329
7   -0.202747
8   -0.179825
9   -0.01562
10   -0.080402
11   -0.032566
12   0.029819
13   0.014981
14   -0.371459
15   -0.212945
16   0.155771
17   0.153452
18   0.155332
19   0.151429
20   0.153228
21   0.152044
22   0.155402
23   0.149411
24   0.15139
25   0.121075
26   0.142642
27   0.147213
28   0.14597
29   0.150876
30   0.25452
31   0.287423

$$$$

