PCCDB-ID:  20200
public computational chemistry database (PCCDB) project, http://pccdb.org

 18 17  0  0  0  0  0  0  0  0999 V2000
    2.2237   -1.2746   -0.4912 C   0  0  0  0  0  0  0  0  0  0  0  0
    3.2620   -0.4519    0.2917 C   0  0  0  0  0  0  0  0  0  0  0  0
    3.2157    1.0114   -0.0541 C   0  0  0  0  0  0  0  0  0  0  0  0
    4.2119    1.7102   -0.6144 C   0  0  0  0  0  0  0  0  0  0  0  0
    4.1482    3.1766   -0.9515 C   0  0  0  0  0  0  0  0  0  0  0  0
    4.9980    4.0733   -0.0351 C   0  0  0  0  0  0  0  0  0  0  0  0
    5.5023    5.1069   -0.3940 O   0  0  0  0  0  0  0  0  0  0  0  0
    5.1121    3.6449    1.2458 O   0  0  0  0  0  0  0  0  0  0  0  0
    2.2606   -2.3289   -0.1964 H   0  0  0  0  0  0  0  0  0  0  0  0
    2.4079   -1.2146   -1.5692 H   0  0  0  0  0  0  0  0  0  0  0  0
    1.2065   -0.9102   -0.3048 H   0  0  0  0  0  0  0  0  0  0  0  0
    4.2690   -0.8444    0.1036 H   0  0  0  0  0  0  0  0  0  0  0  0
    3.0721   -0.5766    1.3679 H   0  0  0  0  0  0  0  0  0  0  0  0
    2.2675    1.5180    0.1439 H   0  0  0  0  0  0  0  0  0  0  0  0
    5.1566    1.2071   -0.8278 H   0  0  0  0  0  0  0  0  0  0  0  0
    3.1133    3.5376   -0.8748 H   0  0  0  0  0  0  0  0  0  0  0  0
    4.4807    3.3760   -1.9748 H   0  0  0  0  0  0  0  0  0  0  0  0
    4.6661    2.7800    1.3234 H   0  0  0  0  0  0  0  0  0  0  0  0
  1 11  1  0  0  0  0
  1  9  1  0  0  0  0
  1  2  1  0  0  0  0
  2 13  1  0  0  0  0
  3 14  1  0  0  0  0
  3  2  1  0  0  0  0
  4  3  2  0  0  0  0
  5 16  1  0  0  0  0
  5  4  1  0  0  0  0
  5  6  1  0  0  0  0
  6  8  1  0  0  0  0
  7  6  2  0  0  0  0
  8 18  1  0  0  0  0
 10  1  1  0  0  0  0
 12  2  1  0  0  0  0
 15  4  1  0  0  0  0
 17  5  1  0  0  0  0
M  END
>  <HBA>
2

>  <HBD>
1

>  <TPSA>
37.3

>  <cid>
20200

>  <dipole>
5.15

>  <excitation_energy_1>
5.516

>  <excitation_energy_2>
6.192

>  <excitation_energy_3>
6.275

>  <excitation_energy_4>
6.751

>  <homo_energy>
-6.928

>  <homo_lumo_gap>
6.697

>  <logP>
1.427

>  <lumo_energy>
-0.231

>  <melting_point>
60.39

>  <molecular_refractivity>
32.25

>  <oscillator_strength_1>
0.0156

>  <oscillator_strength_2>
0.1141

>  <oscillator_strength_3>
0.0347

>  <oscillator_strength_4>
0.0342

>  <open_babel_can_smiles>
CC/C=C/CC(=O)O

>  <mulliken_charges>
18
1   -0.442198
2   -0.300676
3   -0.087344
4   -0.148742
5   -0.411376
6   0.586362
7   -0.441765
8   -0.563583
9   0.152644
10   0.155837
11   0.148807
12   0.147739
13   0.150704
14   0.132471
15   0.144673
16   0.183046
17   0.187895
18   0.405506

>  <lowdin_charges>
18
1   -0.437446
2   -0.267792
3   -0.157264
4   -0.188759
5   -0.311972
6   0.188956
7   -0.241173
8   -0.35798
9   0.153677
10   0.151979
11   0.149672
12   0.149571
13   0.15108
14   0.151129
15   0.157709
16   0.174412
17   0.179226
18   0.354976

$$$$

