PCCDB-ID:  25417
public computational chemistry database (PCCDB) project, http://pccdb.org

 18 18  0  0  0  0  0  0  0  0999 V2000
    3.0797   -1.2769    0.1529 C   0  0  0  0  0  0  0  0  0  0  0  0
    4.6707    1.1843    0.3731 C   0  0  0  0  0  0  0  0  0  0  0  0
    2.5866    2.4574    0.3713 C   0  0  0  0  0  0  0  0  0  0  0  0
    5.3717    2.3722    0.5129 C   0  0  0  0  0  0  0  0  0  0  0  0
    3.2944    3.6297    0.5111 C   0  0  0  0  0  0  0  0  0  0  0  0
    3.2588    1.2059    0.2970 C   0  0  0  0  0  0  0  0  0  0  0  0
    4.7018    3.6010    0.5831 C   0  0  0  0  0  0  0  0  0  0  0  0
    2.5261    0.0614    0.1419 N   0  0  0  0  0  0  0  0  0  0  0  0
    5.5178    4.7522    0.7250 N   0  0  0  0  0  0  0  0  0  0  0  0
    4.9119    5.8233    0.7859 O   0  0  0  0  0  0  0  0  0  0  0  0
    2.2656   -1.9927    0.0206 H   0  0  0  0  0  0  0  0  0  0  0  0
    3.5939   -1.5072    1.0970 H   0  0  0  0  0  0  0  0  0  0  0  0
    3.7918   -1.4186   -0.6697 H   0  0  0  0  0  0  0  0  0  0  0  0
    5.2053    0.2422    0.3233 H   0  0  0  0  0  0  0  0  0  0  0  0
    1.5000    2.4753    0.3122 H   0  0  0  0  0  0  0  0  0  0  0  0
    6.4566    2.3764    0.5721 H   0  0  0  0  0  0  0  0  0  0  0  0
    2.7969    4.5923    0.5705 H   0  0  0  0  0  0  0  0  0  0  0  0
    1.5231    0.1508    0.1994 H   0  0  0  0  0  0  0  0  0  0  0  0
  1 12  1  0  0  0  0
  2  4  2  0  0  0  0
  3  5  1  0  0  0  0
  4 16  1  0  0  0  0
  4  7  1  0  0  0  0
  5 17  1  0  0  0  0
  5  7  2  0  0  0  0
  6  3  2  0  0  0  0
  6  2  1  0  0  0  0
  7  9  1  0  0  0  0
  8  1  1  0  0  0  0
  8 18  1  0  0  0  0
  8  6  1  0  0  0  0
  9 10  2  0  0  0  0
 11  1  1  0  0  0  0
 13  1  1  0  0  0  0
 14  2  1  0  0  0  0
 15  3  1  0  0  0  0
M  END
>  <HBA>
3

>  <HBD>
1

>  <TPSA>
41.46

>  <cid>
25417

>  <dipole>
7.32

>  <excitation_energy_1>
1.633

>  <excitation_energy_2>
3.765

>  <excitation_energy_3>
4.077

>  <excitation_energy_4>
4.297

>  <homo_energy>
-5.276

>  <homo_lumo_gap>
3.303

>  <logP>
2.199

>  <lumo_energy>
-1.973

>  <melting_point>
65.96

>  <molecular_refractivity>
41.2

>  <oscillator_strength_1>
0.0003

>  <oscillator_strength_2>
0.43

>  <oscillator_strength_3>
0.0001

>  <oscillator_strength_4>
0.0021

>  <open_babel_can_smiles>
CNc1ccc(cc1)N=O

>  <mulliken_charges>
18
1   -0.301111
2   -0.200836
3   -0.201947
4   -0.132687
5   -0.127574
6   0.397868
7   0.217059
8   -0.650384
9   -0.083755
10   -0.325154
11   0.164861
12   0.166933
13   0.172536
14   0.134615
15   0.12774
16   0.150608
17   0.160104
18   0.331125

>  <lowdin_charges>
18
1   -0.351635
2   -0.216149
3   -0.192001
4   -0.113669
5   -0.124191
6   0.083437
7   -0.050149
8   -0.263585
9   0.02678
10   -0.220817
11   0.165346
12   0.152211
13   0.158063
14   0.163245
15   0.153723
16   0.17001
17   0.176648
18   0.282734

$$$$

