PCCDB-ID:  16870
public computational chemistry database (PCCDB) project, http://pccdb.org

 26 27  0  0  0  0  0  0  0  0999 V2000
    2.1952   -1.3258    0.1344 C   0  0  0  0  0  0  0  0  0  0  0  0
    2.0138    0.8206    1.2800 C   0  0  0  0  0  0  0  0  0  0  0  0
    5.5622    2.2227   -5.2168 C   0  0  0  0  0  0  0  0  0  0  0  0
    5.8195    0.8540   -5.0812 C   0  0  0  0  0  0  0  0  0  0  0  0
    4.7997    2.8902   -4.2593 C   0  0  0  0  0  0  0  0  0  0  0  0
    5.3145    0.1532   -3.9885 C   0  0  0  0  0  0  0  0  0  0  0  0
    2.9165    2.1118   -1.0473 C   0  0  0  0  0  0  0  0  0  0  0  0
    4.2871    2.1916   -3.1648 C   0  0  0  0  0  0  0  0  0  0  0  0
    4.5426    0.8176   -3.0271 C   0  0  0  0  0  0  0  0  0  0  0  0
    3.1192    0.7645   -0.8827 C   0  0  0  0  0  0  0  0  0  0  0  0
    3.4617    2.9016   -2.1418 C   0  0  0  0  0  0  0  0  0  0  0  0
    4.0363    0.0482   -1.8561 C   0  0  0  0  0  0  0  0  0  0  0  0
    2.6392    0.0696    0.2021 N   0  0  0  0  0  0  0  0  0  0  0  0
    3.2258    4.1067   -2.2447 O   0  0  0  0  0  0  0  0  0  0  0  0
    4.3874   -1.1125   -1.6789 O   0  0  0  0  0  0  0  0  0  0  0  0
    1.0997   -1.3719    0.0370 H   0  0  0  0  0  0  0  0  0  0  0  0
    2.4802   -1.8414    1.0581 H   0  0  0  0  0  0  0  0  0  0  0  0
    2.6606   -1.8360   -0.7015 H   0  0  0  0  0  0  0  0  0  0  0  0
    1.8997    0.1585    2.1424 H   0  0  0  0  0  0  0  0  0  0  0  0
    1.0187    1.2069    1.0070 H   0  0  0  0  0  0  0  0  0  0  0  0
    2.6463    1.6645    1.5700 H   0  0  0  0  0  0  0  0  0  0  0  0
    5.9585    2.7672   -6.0697 H   0  0  0  0  0  0  0  0  0  0  0  0
    6.4164    0.3362   -5.8269 H   0  0  0  0  0  0  0  0  0  0  0  0
    4.5863    3.9514   -4.3370 H   0  0  0  0  0  0  0  0  0  0  0  0
    5.5093   -0.9061   -3.8587 H   0  0  0  0  0  0  0  0  0  0  0  0
    2.2906    2.6764   -0.3670 H   0  0  0  0  0  0  0  0  0  0  0  0
  1 13  1  0  0  0  0
  1 17  1  0  0  0  0
  2 21  1  0  0  0  0
  2 19  1  0  0  0  0
  3  4  2  0  0  0  0
  3  5  1  0  0  0  0
  4  6  1  0  0  0  0
  5  8  2  0  0  0  0
  6 25  1  0  0  0  0
  6  9  2  0  0  0  0
  7 10  2  0  0  0  0
  7 26  1  0  0  0  0
  8  9  1  0  0  0  0
  8 11  1  0  0  0  0
  9 12  1  0  0  0  0
 10 13  1  0  0  0  0
 11  7  1  0  0  0  0
 12 15  2  0  0  0  0
 12 10  1  0  0  0  0
 13  2  1  0  0  0  0
 14 11  2  0  0  0  0
 16  1  1  0  0  0  0
 18  1  1  0  0  0  0
 20  2  1  0  0  0  0
 22  3  1  0  0  0  0
 23  4  1  0  0  0  0
 24  5  1  0  0  0  0
M  END
>  <HBA>
3

>  <HBD>
0

>  <TPSA>
37.38

>  <cid>
16870

>  <dipole>
2.37

>  <excitation_energy_1>
2.651

>  <excitation_energy_2>
2.795

>  <excitation_energy_3>
3.183

>  <excitation_energy_4>
3.724

>  <homo_energy>
-5.973

>  <homo_lumo_gap>
3.263

>  <logP>
1.511

>  <lumo_energy>
-2.71

>  <melting_point>
111.21

>  <molecular_refractivity>
56.75

>  <oscillator_strength_1>
0.0409

>  <oscillator_strength_2>
0.0014

>  <oscillator_strength_3>
0.0044

>  <oscillator_strength_4>
0.0504

>  <open_babel_can_smiles>
CN(C1=CC(=O)c2c(C1=O)cccc2)C

>  <mulliken_charges>
26
1   -0.333954
2   -0.315742
3   -0.12317
4   -0.127344
5   -0.17695
6   -0.17213
7   -0.312481
8   0.045386
9   0.043865
10   0.33908
11   0.409454
12   0.361127
13   -0.442976
14   -0.503274
15   -0.478387
16   0.148594
17   0.16136
18   0.212041
19   0.165436
20   0.158882
21   0.178803
22   0.14327
23   0.141911
24   0.16743
25   0.16372
26   0.146048

>  <lowdin_charges>
26
1   -0.355364
2   -0.353516
3   -0.137812
4   -0.147654
5   -0.130463
6   -0.126621
7   -0.251803
8   -0.027911
9   -0.043669
10   0.035052
11   0.13834
12   0.155661
13   -0.079266
14   -0.260785
15   -0.233236
16   0.140373
17   0.155754
18   0.187247
19   0.162466
20   0.147107
21   0.167359
22   0.165066
23   0.16511
24   0.177799
25   0.175148
26   0.175618

$$$$

