PCCDB-ID:  9213
public computational chemistry database (PCCDB) project, http://pccdb.org

 24 26  0  0  0  0  0  0  0  0999 V2000
   -3.6973   -0.0029    0.7179 C   0  0  0  0  0  0  0  0  0  0  0  0
    3.6746    0.0213    0.7312 C   0  0  0  0  0  0  0  0  0  0  0  0
   -3.3488   -1.3133    0.3824 C   0  0  0  0  0  0  0  0  0  0  0  0
    3.3302   -1.2915    0.4036 C   0  0  0  0  0  0  0  0  0  0  0  0
   -2.7869    1.0272    0.4972 C   0  0  0  0  0  0  0  0  0  0  0  0
    2.7734    1.0536    0.4866 C   0  0  0  0  0  0  0  0  0  0  0  0
   -2.0948   -1.5884   -0.1649 C   0  0  0  0  0  0  0  0  0  0  0  0
    2.0806   -1.5603   -0.1562 C   0  0  0  0  0  0  0  0  0  0  0  0
   -0.5915    1.9003   -0.2569 C   0  0  0  0  0  0  0  0  0  0  0  0
   -1.5131    0.7737   -0.0377 C   0  0  0  0  0  0  0  0  0  0  0  0
    1.5021    0.8081   -0.0603 C   0  0  0  0  0  0  0  0  0  0  0  0
   -1.1892   -0.5520   -0.3756 C   0  0  0  0  0  0  0  0  0  0  0  0
    1.1776   -0.5257   -0.3813 C   0  0  0  0  0  0  0  0  0  0  0  0
    0.6906    1.9343   -0.2703 N   0  0  0  0  0  0  0  0  0  0  0  0
   -0.0094   -0.8549   -1.0304 O   0  0  0  0  0  0  0  0  0  0  0  0
   -4.6747    0.2145    1.1381 H   0  0  0  0  0  0  0  0  0  0  0  0
    4.6473    0.2423    1.1610 H   0  0  0  0  0  0  0  0  0  0  0  0
   -4.0556   -2.1237    0.5373 H   0  0  0  0  0  0  0  0  0  0  0  0
    4.0315   -2.1039    0.5715 H   0  0  0  0  0  0  0  0  0  0  0  0
   -3.0539    2.0523    0.7431 H   0  0  0  0  0  0  0  0  0  0  0  0
    3.0251    2.0855    0.7106 H   0  0  0  0  0  0  0  0  0  0  0  0
   -1.8102   -2.5947   -0.4548 H   0  0  0  0  0  0  0  0  0  0  0  0
    1.7904   -2.5677   -0.4380 H   0  0  0  0  0  0  0  0  0  0  0  0
   -1.0851    2.8694   -0.3799 H   0  0  0  0  0  0  0  0  0  0  0  0
  1 16  1  0  0  0  0
  2 17  1  0  0  0  0
  3 18  1  0  0  0  0
  3  1  2  0  0  0  0
  4 19  1  0  0  0  0
  4  2  2  0  0  0  0
  5  1  1  0  0  0  0
  5 20  1  0  0  0  0
  6 21  1  0  0  0  0
  6  2  1  0  0  0  0
  7  3  1  0  0  0  0
  8  4  1  0  0  0  0
  9 10  1  0  0  0  0
 10  5  2  0  0  0  0
 11  6  2  0  0  0  0
 12  7  2  0  0  0  0
 12 10  1  0  0  0  0
 13  8  2  0  0  0  0
 13 11  1  0  0  0  0
 14  9  2  0  0  0  0
 14 11  1  0  0  0  0
 15 13  1  0  0  0  0
 15 12  1  0  0  0  0
 22  7  1  0  0  0  0
 23  8  1  0  0  0  0
 24  9  1  0  0  0  0
M  END
>  <HBA>
2

>  <HBD>
0

>  <TPSA>
21.59

>  <cid>
9213

>  <dipole>
2.34

>  <excitation_energy_1>
3.48

>  <excitation_energy_2>
4.019

>  <excitation_energy_3>
4.371

>  <excitation_energy_4>
4.519

>  <homo_energy>
-5.938

>  <homo_lumo_gap>
4.278

>  <logP>
2.978

>  <lumo_energy>
-1.66

>  <melting_point>
95.07

>  <molecular_refractivity>
63.54

>  <oscillator_strength_1>
0.074

>  <oscillator_strength_2>
0.0106

>  <oscillator_strength_3>
0.1155

>  <oscillator_strength_4>
0.0434

>  <open_babel_can_smiles>
c1ccc2c(c1)Oc1ccccc1C=N2

>  <mulliken_charges>
24
1   -0.123606
2   -0.130744
3   -0.13649
4   -0.137139
5   -0.208406
6   -0.159654
7   -0.159478
8   -0.173165
9   -0.014781
10   0.152767
11   0.264884
12   0.280308
13   0.309742
14   -0.459085
15   -0.573542
16   0.137715
17   0.132977
18   0.141707
19   0.134977
20   0.142906
21   0.145949
22   0.146485
23   0.140402
24   0.145272

>  <lowdin_charges>
24
1   -0.163255
2   -0.161956
3   -0.138341
4   -0.151614
5   -0.139122
6   -0.14573
7   -0.1724
8   -0.172821
9   -0.068903
10   -0.054774
11   0.012375
12   0.113046
13   0.088715
14   -0.139892
15   -0.18039
16   0.16238
17   0.160327
18   0.165005
19   0.162053
20   0.162593
21   0.168702
22   0.170441
23   0.167155
24   0.156407

$$$$

