PCCDB-ID:  8474
public computational chemistry database (PCCDB) project, http://pccdb.org

 18 18  0  0  0  0  0  0  0  0999 V2000
   -0.7611    1.1432    0.0719 C   0  0  0  0  0  0  0  0  0  0  0  0
   -1.3981   -0.0949    0.0634 C   0  0  0  0  0  0  0  0  0  0  0  0
    0.6282    1.2381   -0.0134 C   0  0  0  0  0  0  0  0  0  0  0  0
    0.7418   -1.2035   -0.1167 C   0  0  0  0  0  0  0  0  0  0  0  0
   -0.6583   -1.2877   -0.0364 C   0  0  0  0  0  0  0  0  0  0  0  0
    1.3514    0.0480   -0.1000 C   0  0  0  0  0  0  0  0  0  0  0  0
   -1.2918   -2.5271   -0.0025 N   0  0  0  0  0  0  0  0  0  0  0  0
    3.5611    0.3104    1.3855 O   0  0  0  0  0  0  0  0  0  0  0  0
    3.6539   -1.1824   -0.6108 O   0  0  0  0  0  0  0  0  0  0  0  0
    3.5155    1.3551   -0.8720 O   0  0  0  0  0  0  0  0  0  0  0  0
    3.1344    0.1235   -0.1980 S   0  0  0  0  0  0  0  0  0  0  0  0
   -1.3584    2.0481    0.1384 H   0  0  0  0  0  0  0  0  0  0  0  0
   -2.4822   -0.1464    0.1321 H   0  0  0  0  0  0  0  0  0  0  0  0
    1.1347    2.1958   -0.0271 H   0  0  0  0  0  0  0  0  0  0  0  0
    1.3484   -2.0992   -0.2053 H   0  0  0  0  0  0  0  0  0  0  0  0
   -2.2608   -2.5298   -0.2946 H   0  0  0  0  0  0  0  0  0  0  0  0
   -0.7722   -3.2945   -0.4094 H   0  0  0  0  0  0  0  0  0  0  0  0
    3.9790   -0.5278    1.6583 H   0  0  0  0  0  0  0  0  0  0  0  0
  1 12  1  0  0  0  0
  2  1  1  0  0  0  0
  2 13  1  0  0  0  0
  3  1  2  0  0  0  0
  4  6  2  0  0  0  0
  4  5  1  0  0  0  0
  5  7  1  0  0  0  0
  5  2  2  0  0  0  0
  6  3  1  0  0  0  0
  8 18  1  0  0  0  0
  9 11  1  0  0  0  0
 10 11  1  0  0  0  0
 11  6  1  0  0  0  0
 11  8  1  0  0  0  0
 14  3  1  0  0  0  0
 15  4  1  0  0  0  0
 16  7  1  0  0  0  0
 17  7  1  0  0  0  0
M  RAD  2   9   2  10   2
M  END
>  <HBA>
4

>  <HBD>
2

>  <TPSA>
88.77

>  <cid>
8474

>  <dipole>
5.49

>  <excitation_energy_1>
4.35

>  <excitation_energy_2>
5.091

>  <excitation_energy_3>
5.304

>  <excitation_energy_4>
5.576

>  <homo_energy>
-6.109

>  <homo_lumo_gap>
5.053

>  <logP>
2.178

>  <lumo_energy>
-1.056

>  <melting_point>
138.97

>  <molecular_refractivity>
40.71

>  <oscillator_strength_1>
0.0543

>  <oscillator_strength_2>
0.0079

>  <oscillator_strength_3>
0.0589

>  <oscillator_strength_4>
0.0078

>  <open_babel_can_smiles>
Nc1cccc(c1)S([O])([O])O

>  <mulliken_charges>
18
1   -0.135781
2   -0.158664
3   -0.142035
4   -0.190796
5   0.321801
6   -0.158654
7   -0.788011
8   -0.634261
9   -0.535489
10   -0.491559
11   1.198043
12   0.145479
13   0.13166
14   0.175201
15   0.168036
16   0.32766
17   0.33007
18   0.437299

>  <lowdin_charges>
18
1   -0.137511
2   -0.17921
3   -0.164238
4   -0.186652
5   0.066825
6   -0.171561
7   -0.479758
8   -0.584235
9   -0.590117
10   -0.554445
11   1.351606
12   0.16699
13   0.15791
14   0.183284
15   0.178959
16   0.279459
17   0.283007
18   0.379688

$$$$

