PCCDB-ID:  18232
public computational chemistry database (PCCDB) project, http://pccdb.org

 24 24  0  0  0  0  0  0  0  0999 V2000
    0.4423    1.0644   -2.0074 C   0  0  0  0  0  0  0  0  0  0  0  0
    1.3217    0.1528   -1.1376 C   0  0  0  0  0  0  0  0  0  0  0  0
   -0.6828    1.6916   -1.1684 C   0  0  0  0  0  0  0  0  0  0  0  0
    0.4527   -0.8718   -0.3873 C   0  0  0  0  0  0  0  0  0  0  0  0
   -1.4662    0.6065   -0.4060 C   0  0  0  0  0  0  0  0  0  0  0  0
   -0.1890    0.3275    1.6897 C   0  0  0  0  0  0  0  0  0  0  0  0
   -1.2810    0.1216    2.7477 C   0  0  0  0  0  0  0  0  0  0  0  0
   -0.6209   -0.2731    0.4178 N   0  0  0  0  0  0  0  0  0  0  0  0
   -1.6432   -1.2421    2.8250 O   0  0  0  0  0  0  0  0  0  0  0  0
   -0.0022    0.4673   -2.8180 H   0  0  0  0  0  0  0  0  0  0  0  0
    1.0464    1.8439   -2.4880 H   0  0  0  0  0  0  0  0  0  0  0  0
    1.8838    0.7592   -0.4133 H   0  0  0  0  0  0  0  0  0  0  0  0
    2.0640   -0.3726   -1.7527 H   0  0  0  0  0  0  0  0  0  0  0  0
   -1.3725    2.2603   -1.8057 H   0  0  0  0  0  0  0  0  0  0  0  0
   -0.2528    2.4090   -0.4558 H   0  0  0  0  0  0  0  0  0  0  0  0
    1.0645   -1.5024    0.2672 H   0  0  0  0  0  0  0  0  0  0  0  0
   -0.0224   -1.5400   -1.1211 H   0  0  0  0  0  0  0  0  0  0  0  0
   -1.9974   -0.0280   -1.1301 H   0  0  0  0  0  0  0  0  0  0  0  0
   -2.2309    1.0577    0.2355 H   0  0  0  0  0  0  0  0  0  0  0  0
    0.7110   -0.2024    2.0201 H   0  0  0  0  0  0  0  0  0  0  0  0
    0.0707    1.3966    1.6110 H   0  0  0  0  0  0  0  0  0  0  0  0
   -2.1558    0.7556    2.5178 H   0  0  0  0  0  0  0  0  0  0  0  0
   -0.9097    0.4279    3.7325 H   0  0  0  0  0  0  0  0  0  0  0  0
   -1.6539   -1.5265    1.8898 H   0  0  0  0  0  0  0  0  0  0  0  0
  1  3  1  0  0  0  0
  1  2  1  0  0  0  0
  2 12  1  0  0  0  0
  2  4  1  0  0  0  0
  3 15  1  0  0  0  0
  3  5  1  0  0  0  0
  4 16  1  0  0  0  0
  4  8  1  0  0  0  0
  5 19  1  0  0  0  0
  5  8  1  0  0  0  0
  6 20  1  0  0  0  0
  6  7  1  0  0  0  0
  7  9  1  0  0  0  0
  7 23  1  0  0  0  0
  8  6  1  0  0  0  0
 10  1  1  0  0  0  0
 11  1  1  0  0  0  0
 13  2  1  0  0  0  0
 14  3  1  0  0  0  0
 17  4  1  0  0  0  0
 18  5  1  0  0  0  0
 21  6  1  0  0  0  0
 22  7  1  0  0  0  0
 24  9  1  0  0  0  0
M  END
>  <HBA>
2

>  <HBD>
1

>  <TPSA>
23.47

>  <cid>
18232

>  <dipole>
2.97

>  <excitation_energy_1>
5.207

>  <excitation_energy_2>
5.486

>  <excitation_energy_3>
5.681

>  <excitation_energy_4>
5.898

>  <homo_energy>
-5.807

>  <homo_lumo_gap>
7.777

>  <logP>
0.403

>  <lumo_energy>
1.97

>  <melting_point>
16.61

>  <molecular_refractivity>
41.62

>  <oscillator_strength_1>
0.0189

>  <oscillator_strength_2>
0.0047

>  <oscillator_strength_3>
0.0067

>  <oscillator_strength_4>
0.0002

>  <open_babel_can_smiles>
OCCN1CCCCC1

>  <mulliken_charges>
24
1   -0.259108
2   -0.264648
3   -0.267173
4   -0.14192
5   -0.146108
6   -0.155892
7   -0.013915
8   -0.403024
9   -0.628737
10   0.129439
11   0.135702
12   0.135317
13   0.133532
14   0.134536
15   0.136145
16   0.143898
17   0.136092
18   0.138643
19   0.144655
20   0.146733
21   0.122433
22   0.113357
23   0.136414
24   0.393631

>  <lowdin_charges>
24
1   -0.280951
2   -0.296577
3   -0.296196
4   -0.209297
5   -0.21088
6   -0.222021
7   -0.140788
8   -0.19156
9   -0.476716
10   0.139141
11   0.146642
12   0.142345
13   0.148163
14   0.14891
15   0.141859
16   0.149301
17   0.14114
18   0.143501
19   0.149444
20   0.150475
21   0.12729
22   0.120408
23   0.143772
24   0.332599

$$$$

