PCCDB-ID:  16384
public computational chemistry database (PCCDB) project, http://pccdb.org

 22 21  0  0  0  0  0  0  0  0999 V2000
    2.5700    1.0314    1.8250 C   0  0  0  0  0  0  0  0  0  0  0  0
    7.1053   -1.1918   -0.3766 C   0  0  0  0  0  0  0  0  0  0  0  0
    4.9528   -3.6457    0.8246 C   0  0  0  0  0  0  0  0  0  0  0  0
    3.2518    0.8418    0.4575 C   0  0  0  0  0  0  0  0  0  0  0  0
    5.9242   -0.6306   -0.0747 C   0  0  0  0  0  0  0  0  0  0  0  0
    4.5516   -2.7781   -0.3826 C   0  0  0  0  0  0  0  0  0  0  0  0
    3.4609   -0.6101    0.1230 C   0  0  0  0  0  0  0  0  0  0  0  0
    4.6098   -1.2854   -0.1040 C   0  0  0  0  0  0  0  0  0  0  0  0
    2.3726    2.0914    2.0218 H   0  0  0  0  0  0  0  0  0  0  0  0
    3.2006    0.6452    2.6334 H   0  0  0  0  0  0  0  0  0  0  0  0
    1.6126    0.4983    1.8668 H   0  0  0  0  0  0  0  0  0  0  0  0
    8.0241   -0.6143   -0.3320 H   0  0  0  0  0  0  0  0  0  0  0  0
    7.2062   -2.2293   -0.6808 H   0  0  0  0  0  0  0  0  0  0  0  0
    4.9129   -4.7110    0.5686 H   0  0  0  0  0  0  0  0  0  0  0  0
    4.2725   -3.4733    1.6661 H   0  0  0  0  0  0  0  0  0  0  0  0
    5.9672   -3.4165    1.1657 H   0  0  0  0  0  0  0  0  0  0  0  0
    4.1906    1.4038    0.4376 H   0  0  0  0  0  0  0  0  0  0  0  0
    2.6124    1.2920   -0.3171 H   0  0  0  0  0  0  0  0  0  0  0  0
    5.9309    0.4172    0.2169 H   0  0  0  0  0  0  0  0  0  0  0  0
    3.5326   -3.0436   -0.6875 H   0  0  0  0  0  0  0  0  0  0  0  0
    5.1976   -3.0226   -1.2361 H   0  0  0  0  0  0  0  0  0  0  0  0
    2.5343   -1.1862    0.0757 H   0  0  0  0  0  0  0  0  0  0  0  0
  1 11  1  0  0  0  0
  1  9  1  0  0  0  0
  1 10  1  0  0  0  0
  2 12  1  0  0  0  0
  2  5  2  0  0  0  0
  3 16  1  0  0  0  0
  3 15  1  0  0  0  0
  4  1  1  0  0  0  0
  5 19  1  0  0  0  0
  6  8  1  0  0  0  0
  6  3  1  0  0  0  0
  7  4  1  0  0  0  0
  8  5  1  0  0  0  0
  8  7  2  0  0  0  0
 13  2  1  0  0  0  0
 14  3  1  0  0  0  0
 17  4  1  0  0  0  0
 18  4  1  0  0  0  0
 20  6  1  0  0  0  0
 21  6  1  0  0  0  0
 22  7  1  0  0  0  0
M  END
>  <HBA>
0

>  <HBD>
0

>  <TPSA>
0.0

>  <cid>
16384

>  <dipole>
0.4

>  <excitation_energy_1>
5.19

>  <excitation_energy_2>
5.498

>  <excitation_energy_3>
5.746

>  <excitation_energy_4>
5.869

>  <homo_energy>
-5.848

>  <homo_lumo_gap>
5.399

>  <logP>
2.919

>  <lumo_energy>
-0.449

>  <melting_point>
-35.28

>  <molecular_refractivity>
39.62

>  <oscillator_strength_1>
0.5389

>  <oscillator_strength_2>
0.002

>  <oscillator_strength_3>
0.0159

>  <oscillator_strength_4>
0.0227

>  <open_babel_can_smiles>
CC/C=C(\C=C)/CC

>  <mulliken_charges>
22
1   -0.439248
2   -0.357203
3   -0.437609
4   -0.292386
5   -0.1047
6   -0.34184
7   -0.181688
8   0.184374
9   0.143656
10   0.151718
11   0.144535
12   0.139631
13   0.141468
14   0.140197
15   0.145879
16   0.153235
17   0.144101
18   0.145953
19   0.123694
20   0.138883
21   0.140262
22   0.117087

>  <lowdin_charges>
22
1   -0.440738
2   -0.342641
3   -0.442239
4   -0.27394
5   -0.147767
6   -0.270543
7   -0.169045
8   -0.016559
9   0.148426
10   0.152287
11   0.147723
12   0.159734
13   0.155764
14   0.146373
15   0.14965
16   0.151644
17   0.147285
18   0.15178
19   0.151958
20   0.146867
21   0.146859
22   0.147124

$$$$

