PCCDB-ID:  8472
public computational chemistry database (PCCDB) project, http://pccdb.org

 16 15  0  0  0  0  0  0  0  0999 V2000
    3.6767   -1.2681    0.6903 C   0  0  0  0  0  0  0  0  0  0  0  0
    1.6897    2.1766    2.1748 C   0  0  0  0  0  0  0  0  0  0  0  0
    4.9248    2.7472   -0.1824 C   0  0  0  0  0  0  0  0  0  0  0  0
    2.7677   -0.2019    0.9605 O   0  0  0  0  0  0  0  0  0  0  0  0
    1.7025    2.0276    0.7436 O   0  0  0  0  0  0  0  0  0  0  0  0
    4.2768    1.7199    0.5689 O   0  0  0  0  0  0  0  0  0  0  0  0
    2.8299    1.1279   -0.0262 P   0  0  0  0  0  0  0  0  0  0  0  0
    3.3501   -2.1254    1.2839 H   0  0  0  0  0  0  0  0  0  0  0  0
    4.6975   -0.9931    0.9777 H   0  0  0  0  0  0  0  0  0  0  0  0
    3.6674   -1.5495   -0.3721 H   0  0  0  0  0  0  0  0  0  0  0  0
    1.0152    3.0069    2.3955 H   0  0  0  0  0  0  0  0  0  0  0  0
    2.6918    2.4026    2.5513 H   0  0  0  0  0  0  0  0  0  0  0  0
    1.3208    1.2625    2.6474 H   0  0  0  0  0  0  0  0  0  0  0  0
    5.9900    2.7103    0.0608 H   0  0  0  0  0  0  0  0  0  0  0  0
    4.5325    3.7360    0.0855 H   0  0  0  0  0  0  0  0  0  0  0  0
    4.8014    2.6022   -1.2643 H   0  0  0  0  0  0  0  0  0  0  0  0
  1  4  1  0  0  0  0
  1  9  1  0  0  0  0
  1  8  1  0  0  0  0
  2 11  1  0  0  0  0
  2 12  1  0  0  0  0
  2 13  1  0  0  0  0
  3 14  1  0  0  0  0
  3 15  1  0  0  0  0
  3  6  1  0  0  0  0
  5  2  1  0  0  0  0
  7  6  1  0  0  0  0
  7  5  1  0  0  0  0
  7  4  1  0  0  0  0
 10  1  1  0  0  0  0
 16  3  1  0  0  0  0
M  END
>  <HBA>
3

>  <HBD>
0

>  <TPSA>
41.28

>  <cid>
8472

>  <dipole>
1.62

>  <excitation_energy_1>
6.144

>  <excitation_energy_2>
6.277

>  <excitation_energy_3>
6.673

>  <excitation_energy_4>
6.702

>  <homo_energy>
-6.577

>  <homo_lumo_gap>
7.519

>  <logP>
1.153

>  <lumo_energy>
0.942

>  <melting_point>
-55.67

>  <molecular_refractivity>
27.77

>  <oscillator_strength_1>
0.0784

>  <oscillator_strength_2>
0.0608

>  <oscillator_strength_3>
0.0145

>  <oscillator_strength_4>
0.0816

>  <open_babel_can_smiles>
COP(OC)OC

>  <mulliken_charges>
16
1   -0.212084
2   -0.220203
3   -0.212722
4   -0.55899
5   -0.534198
6   -0.571288
7   0.88714
8   0.162487
9   0.161624
10   0.146303
11   0.157452
12   0.161899
13   0.168222
14   0.160638
15   0.153314
16   0.150406

>  <lowdin_charges>
16
1   -0.277658
2   -0.283055
3   -0.277539
4   -0.424227
5   -0.407045
6   -0.437327
7   0.747272
8   0.157877
9   0.149444
10   0.142848
11   0.155898
12   0.153339
13   0.157278
14   0.153013
15   0.144986
16   0.144897

$$$$

