PCCDB-ID:  50632
public computational chemistry database (PCCDB) project, http://pccdb.org

 38 38  0  0  1  0  0  0  0  0999 V2000
    3.5208   -0.2112   -0.9648 C   0  0  0  0  0  0  0  0  0  0  0  0
    0.9279   -2.4807   -1.7941 C   0  0  0  0  0  0  0  0  0  0  0  0
   -0.7972   -1.4907   -0.4331 C   0  0  0  0  0  0  0  0  0  0  0  0
    2.2543    4.0358    3.2785 C   0  0  0  0  0  0  0  0  0  0  0  0
    5.1253   -2.6750    2.1908 C   0  0  0  0  0  0  0  0  0  0  0  0
    4.2445    1.0523    3.9334 C   0  0  0  0  0  0  0  0  0  0  0  0
    4.5432   -0.1839    3.3666 C   0  0  0  0  0  0  0  0  0  0  0  0
    2.8005    1.5404    2.0628 C   0  0  0  0  0  0  0  0  0  0  0  0
    1.5416   -1.3151    0.2770 C   0  0  0  0  0  0  0  0  0  0  0  0
    3.3699    1.9225    3.2820 C   0  0  0  0  0  0  0  0  0  0  0  0
    3.0916    0.3039    1.4765 C   0  0  0  0  0  0  0  0  0  0  0  0
    3.9748   -0.5664    2.1463 C   0  0  0  0  0  0  0  0  0  0  0  0
    2.4489   -0.0527    0.1323 C   0  0  1  0  0  0  0  0  0  0  0  0
    0.5993   -1.4104   -0.8561 N   0  0  0  0  0  0  0  0  0  0  0  0
    1.5856    1.0223   -0.2432 O   0  0  0  0  0  0  0  0  0  0  0  0
    3.1306    3.1179    3.9090 O   0  0  0  0  0  0  0  0  0  0  0  0
    4.2345   -1.7822    1.5469 O   0  0  0  0  0  0  0  0  0  0  0  0
    4.2129   -1.0277   -0.7450 H   0  0  0  0  0  0  0  0  0  0  0  0
    4.0874    0.7213   -1.0490 H   0  0  0  0  0  0  0  0  0  0  0  0
    3.0404   -0.3973   -1.9321 H   0  0  0  0  0  0  0  0  0  0  0  0
    0.2853   -2.4068   -2.6787 H   0  0  0  0  0  0  0  0  0  0  0  0
    0.7933   -3.4878   -1.3567 H   0  0  0  0  0  0  0  0  0  0  0  0
    1.9664   -2.3889   -2.1216 H   0  0  0  0  0  0  0  0  0  0  0  0
   -1.4492   -1.4546   -1.3134 H   0  0  0  0  0  0  0  0  0  0  0  0
   -1.0375   -0.6344    0.2038 H   0  0  0  0  0  0  0  0  0  0  0  0
   -1.0293   -2.4170    0.1250 H   0  0  0  0  0  0  0  0  0  0  0  0
    2.2130    4.9088    3.9333 H   0  0  0  0  0  0  0  0  0  0  0  0
    1.2436    3.6207    3.1645 H   0  0  0  0  0  0  0  0  0  0  0  0
    2.6264    4.3405    2.2911 H   0  0  0  0  0  0  0  0  0  0  0  0
    4.7553   -2.9756    3.1805 H   0  0  0  0  0  0  0  0  0  0  0  0
    6.1281   -2.2403    2.3007 H   0  0  0  0  0  0  0  0  0  0  0  0
    5.1847   -3.5554    1.5475 H   0  0  0  0  0  0  0  0  0  0  0  0
    4.6850    1.3526    4.8788 H   0  0  0  0  0  0  0  0  0  0  0  0
    5.2236   -0.8468    3.8882 H   0  0  0  0  0  0  0  0  0  0  0  0
    2.1171    2.1893    1.5334 H   0  0  0  0  0  0  0  0  0  0  0  0
    0.9712   -1.2012    1.2045 H   0  0  0  0  0  0  0  0  0  0  0  0
    2.1481   -2.2209    0.3766 H   0  0  0  0  0  0  0  0  0  0  0  0
    1.0031    0.6011   -0.9089 H   0  0  0  0  0  0  0  0  0  0  0  0
  1 18  1  0  0  0  0
  1 13  1  0  0  0  0
  2 22  1  0  0  0  0
  2 14  1  0  0  0  0
  3 26  1  0  0  0  0
  3 25  1  0  0  0  0
  4 16  1  0  0  0  0
  4 27  1  0  0  0  0
  5 31  1  0  0  0  0
  5 30  1  0  0  0  0
  6 33  1  0  0  0  0
  7 34  1  0  0  0  0
  7  6  1  0  0  0  0
  8 10  1  0  0  0  0
  9 37  1  0  0  0  0
  9 36  1  0  0  0  0
 10 16  1  0  0  0  0
 10  6  2  0  0  0  0
 11  8  2  0  0  0  0
 11 12  1  0  0  0  0
 12  7  2  0  0  0  0
 13 15  1  6  0  0  0
 13  9  1  0  0  0  0
 13 11  1  0  0  0  0
 14  3  1  0  0  0  0
 14  9  1  0  0  0  0
 17 12  1  0  0  0  0
 17  5  1  0  0  0  0
 19  1  1  0  0  0  0
 20  1  1  0  0  0  0
 21  2  1  0  0  0  0
 23  2  1  0  0  0  0
 24  3  1  0  0  0  0
 28  4  1  0  0  0  0
 29  4  1  0  0  0  0
 32  5  1  0  0  0  0
 35  8  1  0  0  0  0
 38 15  1  0  0  0  0
M  END
>  <HBA>
4

>  <HBD>
1

>  <TPSA>
41.93

>  <cid>
50632

>  <dipole>
2.52

>  <excitation_energy_1>
4.621

>  <excitation_energy_2>
4.818

>  <excitation_energy_3>
5.117

>  <excitation_energy_4>
5.254

>  <homo_energy>
-5.143

>  <homo_lumo_gap>
5.361

>  <logP>
1.473

>  <lumo_energy>
0.218

>  <melting_point>
44.91

>  <molecular_refractivity>
67.56

>  <oscillator_strength_1>
0.0878

>  <oscillator_strength_2>
0.0027

>  <oscillator_strength_3>
0.0

>  <oscillator_strength_4>
0.008

>  <open_babel_can_smiles>
COc1ccc(cc1[C@@](CN(C)C)(O)C)OC

>  <mulliken_charges>
38
1   -0.460593
2   -0.302355
3   -0.300605
4   -0.211074
5   -0.21263
6   -0.18234
7   -0.198839
8   -0.265026
9   -0.160607
10   0.390556
11   0.044031
12   0.319551
13   0.293527
14   -0.407886
15   -0.678042
16   -0.518981
17   -0.523675
18   0.154415
19   0.152771
20   0.13603
21   0.148815
22   0.125221
23   0.160703
24   0.148157
25   0.160966
26   0.127517
27   0.161989
28   0.150459
29   0.152873
30   0.150111
31   0.151687
32   0.164091
33   0.132493
34   0.128811
35   0.166152
36   0.144953
37   0.155173
38   0.401603

>  <lowdin_charges>
38
1   -0.461195
2   -0.356656
3   -0.359726
4   -0.277022
5   -0.277697
6   -0.178825
7   -0.203997
8   -0.207449
9   -0.222798
10   0.086903
11   -0.028075
12   0.075748
13   0.124374
14   -0.190664
15   -0.471159
16   -0.20771
17   -0.21227
18   0.156784
19   0.15745
20   0.146277
21   0.149413
22   0.124704
23   0.153956
24   0.149275
25   0.15549
26   0.126665
27   0.158918
28   0.143112
29   0.144867
30   0.143035
31   0.143668
32   0.159845
33   0.164259
34   0.163094
35   0.182337
36   0.15256
37   0.152758
38   0.339752

$$$$

