PCCDB-ID:  16295
public computational chemistry database (PCCDB) project, http://pccdb.org

 27 27  0  0  0  0  0  0  0  0999 V2000
    3.0740    1.0664   -0.9859 C   0  0  0  0  0  0  0  0  0  0  0  0
    2.7375   -2.1069    1.3155 C   0  0  0  0  0  0  0  0  0  0  0  0
    2.7910   -2.0354   -1.1746 C   0  0  0  0  0  0  0  0  0  0  0  0
    2.6592    0.1188    0.1451 C   0  0  0  0  0  0  0  0  0  0  0  0
    7.6297   -1.0917    0.4292 C   0  0  0  0  0  0  0  0  0  0  0  0
    6.8055   -0.5406    1.4125 C   0  0  0  0  0  0  0  0  0  0  0  0
    7.0458   -1.7154   -0.6709 C   0  0  0  0  0  0  0  0  0  0  0  0
    5.4195   -0.6174    1.2906 C   0  0  0  0  0  0  0  0  0  0  0  0
    5.6546   -1.7862   -0.7889 C   0  0  0  0  0  0  0  0  0  0  0  0
    4.8091   -1.2404    0.1872 C   0  0  0  0  0  0  0  0  0  0  0  0
    3.2729   -1.3128    0.0988 C   0  0  0  0  0  0  0  0  0  0  0  0
    2.6176    2.0527   -0.8441 H   0  0  0  0  0  0  0  0  0  0  0  0
    2.7563    0.6989   -1.9678 H   0  0  0  0  0  0  0  0  0  0  0  0
    4.1606    1.2013   -1.0146 H   0  0  0  0  0  0  0  0  0  0  0  0
    1.6436   -2.1794    1.2748 H   0  0  0  0  0  0  0  0  0  0  0  0
    3.0049   -1.6290    2.2639 H   0  0  0  0  0  0  0  0  0  0  0  0
    3.1450   -3.1242    1.3279 H   0  0  0  0  0  0  0  0  0  0  0  0
    1.6952   -2.0463   -1.1999 H   0  0  0  0  0  0  0  0  0  0  0  0
    3.1310   -3.0770   -1.1968 H   0  0  0  0  0  0  0  0  0  0  0  0
    3.1381   -1.5496   -2.0919 H   0  0  0  0  0  0  0  0  0  0  0  0
    1.5653    0.0116    0.1481 H   0  0  0  0  0  0  0  0  0  0  0  0
    2.9172    0.5815    1.1064 H   0  0  0  0  0  0  0  0  0  0  0  0
    8.7110   -1.0344    0.5213 H   0  0  0  0  0  0  0  0  0  0  0  0
    7.2421   -0.0502    2.2790 H   0  0  0  0  0  0  0  0  0  0  0  0
    7.6705   -2.1502   -1.4473 H   0  0  0  0  0  0  0  0  0  0  0  0
    4.8034   -0.1847    2.0741 H   0  0  0  0  0  0  0  0  0  0  0  0
    5.2343   -2.2774   -1.6597 H   0  0  0  0  0  0  0  0  0  0  0  0
  1 12  1  0  0  0  0
  1  4  1  0  0  0  0
  2 17  1  0  0  0  0
  2 16  1  0  0  0  0
  3 11  1  0  0  0  0
  4 21  1  0  0  0  0
  4 22  1  0  0  0  0
  5 23  1  0  0  0  0
  5  6  2  0  0  0  0
  6 24  1  0  0  0  0
  7  5  1  0  0  0  0
  8  6  1  0  0  0  0
  8 26  1  0  0  0  0
  9  7  2  0  0  0  0
  9 10  1  0  0  0  0
 10  8  2  0  0  0  0
 11  4  1  0  0  0  0
 11 10  1  0  0  0  0
 11  2  1  0  0  0  0
 13  1  1  0  0  0  0
 14  1  1  0  0  0  0
 15  2  1  0  0  0  0
 18  3  1  0  0  0  0
 19  3  1  0  0  0  0
 20  3  1  0  0  0  0
 25  7  1  0  0  0  0
 27  9  1  0  0  0  0
M  END
>  <HBA>
0

>  <HBD>
0

>  <TPSA>
0.0

>  <cid>
16295

>  <dipole>
0.27

>  <excitation_energy_1>
5.309

>  <excitation_energy_2>
5.907

>  <excitation_energy_3>
5.946

>  <excitation_energy_4>
6.148

>  <homo_energy>
-6.403

>  <homo_lumo_gap>
6.506

>  <logP>
3.374

>  <lumo_energy>
0.103

>  <melting_point>
11.44

>  <molecular_refractivity>
50.52

>  <oscillator_strength_1>
0.0007

>  <oscillator_strength_2>
0.0283

>  <oscillator_strength_3>
0.0004

>  <oscillator_strength_4>
0.0003

>  <open_babel_can_smiles>
CCC(c1ccccc1)(C)C

>  <mulliken_charges>
27
1   -0.452019
2   -0.442125
3   -0.466422
4   -0.246196
5   -0.130453
6   -0.130914
7   -0.129945
8   -0.188368
9   -0.194365
10   0.174886
11   0.019812
12   0.140549
13   0.143246
14   0.15716
15   0.137433
16   0.141698
17   0.146734
18   0.140114
19   0.145389
20   0.150039
21   0.126827
22   0.129879
23   0.125849
24   0.126
25   0.125642
26   0.124626
27   0.124923

>  <lowdin_charges>
27
1   -0.447347
2   -0.43543
3   -0.443237
4   -0.268316
5   -0.160294
6   -0.157053
7   -0.158188
8   -0.16834
9   -0.174072
10   0.001014
11   0.012764
12   0.149714
13   0.146374
14   0.153112
15   0.144136
16   0.148029
17   0.150597
18   0.147974
19   0.148896
20   0.150842
21   0.137417
22   0.140359
23   0.154018
24   0.156349
25   0.156806
26   0.154807
27   0.15907

$$$$

