PCCDB-ID:  7844
public computational chemistry database (PCCDB) project, http://pccdb.org

 12 11  0  0  0  0  0  0  0  0999 V2000
    1.8232   -0.3448   -1.1798 C   0  0  0  0  0  0  0  0  0  0  0  0
    4.7109   -0.7832    0.9427 C   0  0  0  0  0  0  0  0  0  0  0  0
    2.5188   -0.0338   -0.0855 C   0  0  0  0  0  0  0  0  0  0  0  0
    3.1956   -1.0205    0.8271 C   0  0  0  0  0  0  0  0  0  0  0  0
    1.3608    0.4168   -1.8022 H   0  0  0  0  0  0  0  0  0  0  0  0
    1.6872   -1.3776   -1.4956 H   0  0  0  0  0  0  0  0  0  0  0  0
    5.1703   -1.5018    1.6307 H   0  0  0  0  0  0  0  0  0  0  0  0
    4.9259    0.2242    1.3194 H   0  0  0  0  0  0  0  0  0  0  0  0
    5.1989   -0.8839   -0.0331 H   0  0  0  0  0  0  0  0  0  0  0  0
    2.6303    1.0173    0.1896 H   0  0  0  0  0  0  0  0  0  0  0  0
    2.7502   -0.9508    1.8311 H   0  0  0  0  0  0  0  0  0  0  0  0
    3.0036   -2.0411    0.4721 H   0  0  0  0  0  0  0  0  0  0  0  0
  1  3  2  0  0  0  0
  2  8  1  0  0  0  0
  2  7  1  0  0  0  0
  3 10  1  0  0  0  0
  3  4  1  0  0  0  0
  4  2  1  0  0  0  0
  4 11  1  0  0  0  0
  5  1  1  0  0  0  0
  6  1  1  0  0  0  0
  9  2  1  0  0  0  0
 12  4  1  0  0  0  0
M  END
>  <HBA>
0

>  <HBD>
0

>  <TPSA>
0.0

>  <cid>
7844

>  <dipole>
0.34

>  <excitation_energy_1>
6.55

>  <excitation_energy_2>
6.874

>  <excitation_energy_3>
7.01

>  <excitation_energy_4>
7.186

>  <homo_energy>
-6.797

>  <homo_lumo_gap>
7.502

>  <logP>
1.582

>  <lumo_energy>
0.705

>  <melting_point>
-45.83

>  <molecular_refractivity>
20.87

>  <oscillator_strength_1>
0.0604

>  <oscillator_strength_2>
0.1894

>  <oscillator_strength_3>
0.0007

>  <oscillator_strength_4>
0.1489

>  <open_babel_can_smiles>
CCC=C

>  <mulliken_charges>
12
1   -0.341519
2   -0.441208
3   -0.036177
4   -0.294506
5   0.136639
6   0.133026
7   0.144087
8   0.143609
9   0.151785
10   0.12143
11   0.143678
12   0.139157

>  <lowdin_charges>
12
1   -0.345996
2   -0.443159
3   -0.14259
4   -0.267952
5   0.158356
6   0.151918
7   0.15144
8   0.146965
9   0.151207
10   0.146194
11   0.148201
12   0.145418

$$$$

