PCCDB-ID:  17891
public computational chemistry database (PCCDB) project, http://pccdb.org

 27 28  0  0  0  0  0  0  0  0999 V2000
    2.4218   -1.6563   -5.6343 C   0  0  0  0  0  0  0  0  0  0  0  0
   -1.5602    2.9853   -1.9868 C   0  0  0  0  0  0  0  0  0  0  0  0
   -0.1705    2.9553   -2.2475 C   0  0  0  0  0  0  0  0  0  0  0  0
   -1.5497   -1.8263   -1.2923 C   0  0  0  0  0  0  0  0  0  0  0  0
   -2.2282    1.8189   -1.6922 C   0  0  0  0  0  0  0  0  0  0  0  0
   -2.2280   -0.6323   -1.3417 C   0  0  0  0  0  0  0  0  0  0  0  0
   -0.1564   -1.8603   -1.5318 C   0  0  0  0  0  0  0  0  0  0  0  0
    0.5271    1.7677   -2.2039 C   0  0  0  0  0  0  0  0  0  0  0  0
    2.0566   -0.8029   -2.0492 C   0  0  0  0  0  0  0  0  0  0  0  0
   -1.5426    0.5758   -1.6392 C   0  0  0  0  0  0  0  0  0  0  0  0
    0.5559   -0.7141   -1.8233 C   0  0  0  0  0  0  0  0  0  0  0  0
   -0.1299    0.5433   -1.8948 C   0  0  0  0  0  0  0  0  0  0  0  0
    2.4625   -0.6410   -3.5088 C   0  0  0  0  0  0  0  0  0  0  0  0
    3.0217    0.3274   -3.9782 O   0  0  0  0  0  0  0  0  0  0  0  0
    2.1147   -1.7257   -4.2316 O   0  0  0  0  0  0  0  0  0  0  0  0
    1.9122   -0.8066   -6.0960 H   0  0  0  0  0  0  0  0  0  0  0  0
    2.0645   -2.5951   -6.0581 H   0  0  0  0  0  0  0  0  0  0  0  0
    3.4992   -1.5503   -5.7867 H   0  0  0  0  0  0  0  0  0  0  0  0
   -2.0974    3.9292   -2.0242 H   0  0  0  0  0  0  0  0  0  0  0  0
    0.3515    3.8773   -2.4889 H   0  0  0  0  0  0  0  0  0  0  0  0
   -2.0759   -2.7493   -1.0646 H   0  0  0  0  0  0  0  0  0  0  0  0
   -3.2977    1.8303   -1.4950 H   0  0  0  0  0  0  0  0  0  0  0  0
   -3.2982   -0.5941   -1.1529 H   0  0  0  0  0  0  0  0  0  0  0  0
    0.3662   -2.8123   -1.4817 H   0  0  0  0  0  0  0  0  0  0  0  0
    1.5867    1.7648   -2.4356 H   0  0  0  0  0  0  0  0  0  0  0  0
    2.4076   -1.7819   -1.7079 H   0  0  0  0  0  0  0  0  0  0  0  0
    2.5908   -0.0355   -1.4826 H   0  0  0  0  0  0  0  0  0  0  0  0
  1 15  1  0  0  0  0
  2  5  2  0  0  0  0
  3  8  2  0  0  0  0
  3  2  1  0  0  0  0
  4 21  1  0  0  0  0
  5 10  1  0  0  0  0
  5 22  1  0  0  0  0
  6  4  1  0  0  0  0
  6 23  1  0  0  0  0
  7 24  1  0  0  0  0
  7  4  2  0  0  0  0
  8 12  1  0  0  0  0
  9 11  1  0  0  0  0
  9 26  1  0  0  0  0
  9 27  1  0  0  0  0
 10  6  2  0  0  0  0
 11  7  1  0  0  0  0
 12 11  2  0  0  0  0
 12 10  1  0  0  0  0
 13  9  1  0  0  0  0
 14 13  2  0  0  0  0
 15 13  1  0  0  0  0
 16  1  1  0  0  0  0
 17  1  1  0  0  0  0
 18  1  1  0  0  0  0
 19  2  1  0  0  0  0
 20  3  1  0  0  0  0
 25  8  1  0  0  0  0
M  END
>  <HBA>
2

>  <HBD>
0

>  <TPSA>
26.3

>  <cid>
17891

>  <dipole>
1.64

>  <excitation_energy_1>
4.225

>  <excitation_energy_2>
4.389

>  <excitation_energy_3>
5.036

>  <excitation_energy_4>
5.433

>  <homo_energy>
-5.755

>  <homo_lumo_gap>
4.705

>  <logP>
2.555

>  <lumo_energy>
-1.05

>  <melting_point>
63.6

>  <molecular_refractivity>
59.81

>  <oscillator_strength_1>
0.0988

>  <oscillator_strength_2>
0.0013

>  <oscillator_strength_3>
0.0103

>  <oscillator_strength_4>
0.0152

>  <open_babel_can_smiles>
COC(=O)Cc1cccc2c1cccc2

>  <mulliken_charges>
27
1   -0.21939
2   -0.130507
3   -0.138361
4   -0.131356
5   -0.197016
6   -0.190695
7   -0.197494
8   -0.205489
9   -0.438815
10   0.142343
11   0.114624
12   0.076747
13   0.627143
14   -0.473563
15   -0.442153
16   0.17391
17   0.165179
18   0.170272
19   0.12974
20   0.132692
21   0.130463
22   0.129086
23   0.129535
24   0.127824
25   0.161136
26   0.173707
27   0.180437

>  <lowdin_charges>
27
1   -0.275866
2   -0.158017
3   -0.155426
4   -0.159976
5   -0.154633
6   -0.153551
7   -0.164034
8   -0.161907
9   -0.296075
10   0.00135
11   -0.002885
12   -0.00885
13   0.197533
14   -0.265517
15   -0.188148
16   0.162376
17   0.16135
18   0.15738
19   0.158662
20   0.160222
21   0.159555
22   0.155282
23   0.155907
24   0.157524
25   0.170383
26   0.172919
27   0.174441

$$$$

