PCCDB-ID:  41500
public computational chemistry database (PCCDB) project, http://pccdb.org

 28 29  0  0  0  0  0  0  0  0999 V2000
    2.7404    0.8664    3.1857 C   0  0  0  0  0  0  0  0  0  0  0  0
    3.1608    0.7371    1.7181 C   0  0  0  0  0  0  0  0  0  0  0  0
    9.6446   -4.5122    0.6620 C   0  0  0  0  0  0  0  0  0  0  0  0
   10.9287   -3.9459    0.5489 C   0  0  0  0  0  0  0  0  0  0  0  0
    8.5152   -3.7201    0.8440 C   0  0  0  0  0  0  0  0  0  0  0  0
   11.1149   -2.5683    0.6159 C   0  0  0  0  0  0  0  0  0  0  0  0
    8.5443   -0.0582    1.0739 C   0  0  0  0  0  0  0  0  0  0  0  0
    8.6755   -2.3280    0.9140 C   0  0  0  0  0  0  0  0  0  0  0  0
    7.7650   -1.2095    1.0910 C   0  0  0  0  0  0  0  0  0  0  0  0
    9.9767   -1.7815    0.7985 C   0  0  0  0  0  0  0  0  0  0  0  0
    6.3299   -1.3055    1.2459 C   0  0  0  0  0  0  0  0  0  0  0  0
    5.4972   -0.0059    1.4227 C   0  0  0  0  0  0  0  0  0  0  0  0
    4.1771   -0.2803    1.5044 N   0  0  0  0  0  0  0  0  0  0  0  0
    9.8504   -0.3986    0.9015 N   0  0  0  0  0  0  0  0  0  0  0  0
    5.7258   -2.3815    1.2446 O   0  0  0  0  0  0  0  0  0  0  0  0
    5.9857    1.1229    1.4742 O   0  0  0  0  0  0  0  0  0  0  0  0
    1.9716    1.6401    3.2950 H   0  0  0  0  0  0  0  0  0  0  0  0
    3.5986    1.1441    3.8058 H   0  0  0  0  0  0  0  0  0  0  0  0
    2.3308   -0.0758    3.5676 H   0  0  0  0  0  0  0  0  0  0  0  0
    3.5815    1.6807    1.3608 H   0  0  0  0  0  0  0  0  0  0  0  0
    2.2945    0.4953    1.0910 H   0  0  0  0  0  0  0  0  0  0  0  0
    9.5360   -5.5919    0.6062 H   0  0  0  0  0  0  0  0  0  0  0  0
   11.7894   -4.5936    0.4074 H   0  0  0  0  0  0  0  0  0  0  0  0
    7.5261   -4.1534    0.9323 H   0  0  0  0  0  0  0  0  0  0  0  0
   12.1039   -2.1265    0.5284 H   0  0  0  0  0  0  0  0  0  0  0  0
    8.2242    0.9662    1.1786 H   0  0  0  0  0  0  0  0  0  0  0  0
    3.9411   -1.2665    1.4815 H   0  0  0  0  0  0  0  0  0  0  0  0
   10.6137    0.2601    0.8537 H   0  0  0  0  0  0  0  0  0  0  0  0
  1 17  1  0  0  0  0
  1 19  1  0  0  0  0
  1 18  1  0  0  0  0
  2  1  1  0  0  0  0
  3  5  2  0  0  0  0
  4  6  2  0  0  0  0
  4  3  1  0  0  0  0
  5  8  1  0  0  0  0
  5 24  1  0  0  0  0
  6 10  1  0  0  0  0
  7  9  2  0  0  0  0
  7 26  1  0  0  0  0
  8  9  1  0  0  0  0
  9 11  1  0  0  0  0
 10 14  1  0  0  0  0
 10  8  2  0  0  0  0
 11 12  1  0  0  0  0
 12 16  2  0  0  0  0
 12 13  1  0  0  0  0
 13  2  1  0  0  0  0
 14  7  1  0  0  0  0
 15 11  2  0  0  0  0
 20  2  1  0  0  0  0
 21  2  1  0  0  0  0
 22  3  1  0  0  0  0
 23  4  1  0  0  0  0
 25  6  1  0  0  0  0
 27 13  1  0  0  0  0
 28 14  1  0  0  0  0
M  END
>  <HBA>
3

>  <HBD>
2

>  <TPSA>
61.96

>  <cid>
41500

>  <dipole>
1.96

>  <excitation_energy_1>
3.221

>  <excitation_energy_2>
3.784

>  <excitation_energy_3>
3.928

>  <excitation_energy_4>
4.471

>  <homo_energy>
-5.872

>  <homo_lumo_gap>
4.231

>  <logP>
1.878

>  <lumo_energy>
-1.641

>  <melting_point>
178.07

>  <molecular_refractivity>
61.11

>  <oscillator_strength_1>
0.0001

>  <oscillator_strength_2>
0.1594

>  <oscillator_strength_3>
0.0394

>  <oscillator_strength_4>
0.0521

>  <open_babel_can_smiles>
CCNC(=O)C(=O)c1c[nH]c2c1cccc2

>  <mulliken_charges>
28
1   -0.439043
2   -0.130812
3   -0.140074
4   -0.14663
5   -0.196946
6   -0.162652
7   0.050534
8   0.086398
9   -0.010268
10   0.311352
11   0.327961
12   0.559215
13   -0.584103
14   -0.690217
15   -0.521583
16   -0.550267
17   0.147515
18   0.166433
19   0.146281
20   0.180819
21   0.147991
22   0.127839
23   0.12813
24   0.162361
25   0.126652
26   0.213369
27   0.35191
28   0.337838

>  <lowdin_charges>
28
1   -0.451162
2   -0.19503
3   -0.164632
4   -0.159416
5   -0.149935
6   -0.184857
7   -0.075238
8   -0.015533
9   -0.095982
10   0.031784
11   0.131515
12   0.127358
13   -0.247089
14   -0.176617
15   -0.274479
16   -0.321646
17   0.154911
18   0.160949
19   0.149887
20   0.168003
21   0.149341
22   0.15605
23   0.159014
24   0.175688
25   0.1576
26   0.196827
27   0.294497
28   0.298192

$$$$

