PCCDB-ID:  7390
public computational chemistry database (PCCDB) project, http://pccdb.org

 27 27  0  0  0  0  0  0  0  0999 V2000
    0.9443    0.0332    0.1916 C   0  0  0  0  0  0  0  0  0  0  0  0
    7.1256   -0.2974   -2.0045 C   0  0  0  0  0  0  0  0  0  0  0  0
    7.4756    1.3585   -0.1654 C   0  0  0  0  0  0  0  0  0  0  0  0
    7.4260   -1.0811    0.3753 C   0  0  0  0  0  0  0  0  0  0  0  0
    3.1289   -1.1001   -0.4316 C   0  0  0  0  0  0  0  0  0  0  0  0
    3.2099    1.1668    0.3221 C   0  0  0  0  0  0  0  0  0  0  0  0
    4.5106   -1.0898   -0.6048 C   0  0  0  0  0  0  0  0  0  0  0  0
    4.5958    1.1766    0.1483 C   0  0  0  0  0  0  0  0  0  0  0  0
    2.4470    0.0321    0.0327 C   0  0  0  0  0  0  0  0  0  0  0  0
    5.2827    0.0492   -0.3207 C   0  0  0  0  0  0  0  0  0  0  0  0
    6.8085    0.0168   -0.5230 C   0  0  0  0  0  0  0  0  0  0  0  0
    0.5627   -0.9708    0.4067 H   0  0  0  0  0  0  0  0  0  0  0  0
    0.4452    0.3812   -0.7230 H   0  0  0  0  0  0  0  0  0  0  0  0
    0.6275    0.6957    1.0045 H   0  0  0  0  0  0  0  0  0  0  0  0
    8.2104   -0.3298   -2.1650 H   0  0  0  0  0  0  0  0  0  0  0  0
    6.7067    0.4695   -2.6659 H   0  0  0  0  0  0  0  0  0  0  0  0
    6.7145   -1.2644   -2.3131 H   0  0  0  0  0  0  0  0  0  0  0  0
    8.5579    1.2864   -0.3223 H   0  0  0  0  0  0  0  0  0  0  0  0
    7.3118    1.6286    0.8840 H   0  0  0  0  0  0  0  0  0  0  0  0
    7.1050    2.1784   -0.7913 H   0  0  0  0  0  0  0  0  0  0  0  0
    8.5124   -1.1286    0.2301 H   0  0  0  0  0  0  0  0  0  0  0  0
    7.0157   -2.0709    0.1495 H   0  0  0  0  0  0  0  0  0  0  0  0
    7.2334   -0.8742    1.4343 H   0  0  0  0  0  0  0  0  0  0  0  0
    2.5702   -2.0054   -0.6607 H   0  0  0  0  0  0  0  0  0  0  0  0
    2.7164    2.0634    0.6921 H   0  0  0  0  0  0  0  0  0  0  0  0
    4.9943   -1.9934   -0.9666 H   0  0  0  0  0  0  0  0  0  0  0  0
    5.1372    2.0845    0.3910 H   0  0  0  0  0  0  0  0  0  0  0  0
  1 12  1  0  0  0  0
  1 14  1  0  0  0  0
  2 11  1  0  0  0  0
  3 19  1  0  0  0  0
  4 23  1  0  0  0  0
  5  9  1  0  0  0  0
  6 25  1  0  0  0  0
  7  5  2  0  0  0  0
  7 10  1  0  0  0  0
  8  6  1  0  0  0  0
  8 27  1  0  0  0  0
  9  1  1  0  0  0  0
  9  6  2  0  0  0  0
 10  8  2  0  0  0  0
 11 10  1  0  0  0  0
 11  3  1  0  0  0  0
 11  4  1  0  0  0  0
 13  1  1  0  0  0  0
 15  2  1  0  0  0  0
 16  2  1  0  0  0  0
 17  2  1  0  0  0  0
 18  3  1  0  0  0  0
 20  3  1  0  0  0  0
 21  4  1  0  0  0  0
 22  4  1  0  0  0  0
 24  5  1  0  0  0  0
 26  7  1  0  0  0  0
M  END
>  <HBA>
0

>  <HBD>
0

>  <TPSA>
0.0

>  <cid>
7390

>  <dipole>
0.06

>  <excitation_energy_1>
5.196

>  <excitation_energy_2>
5.729

>  <excitation_energy_3>
5.766

>  <excitation_energy_4>
6.118

>  <homo_energy>
-6.147

>  <homo_lumo_gap>
6.316

>  <logP>
3.292

>  <lumo_energy>
0.169

>  <melting_point>
16.94

>  <molecular_refractivity>
50.68

>  <oscillator_strength_1>
0.0029

>  <oscillator_strength_2>
0.0142

>  <oscillator_strength_3>
0.066

>  <oscillator_strength_4>
0.0005

>  <open_babel_can_smiles>
Cc1ccc(cc1)C(C)(C)C

>  <mulliken_charges>
27
1   -0.529795
2   -0.438077
3   -0.456359
4   -0.437635
5   -0.182709
6   -0.182927
7   -0.186197
8   -0.194564
9   0.179941
10   0.177542
11   0.018296
12   0.154736
13   0.163578
14   0.155459
15   0.136551
16   0.146542
17   0.141988
18   0.13979
19   0.144775
20   0.144775
21   0.136509
22   0.142039
23   0.146429
24   0.117619
25   0.117125
26   0.121525
27   0.123044

>  <lowdin_charges>
27
1   -0.443184
2   -0.438658
3   -0.441897
4   -0.435244
5   -0.168249
6   -0.168884
7   -0.164545
8   -0.172245
9   -0.002864
10   -0.004529
11   0.017505
12   0.156262
13   0.160906
14   0.157997
15   0.143937
16   0.152303
17   0.147947
18   0.147851
19   0.147855
20   0.150023
21   0.143795
22   0.147666
23   0.149664
24   0.15264
25   0.152545
26   0.153181
27   0.158221

$$$$

