PCCDB-ID:  36832
public computational chemistry database (PCCDB) project, http://pccdb.org

 19 18  0  0  0  0  0  0  0  0999 V2000
    2.8559   -0.0711   -1.5276 C   0  0  0  0  0  0  0  0  0  0  0  0
    3.2089   -2.1306    3.2045 C   0  0  0  0  0  0  0  0  0  0  0  0
    2.4742   -0.0231   -0.0464 C   0  0  0  0  0  0  0  0  0  0  0  0
    2.6447   -1.0423    2.2886 C   0  0  0  0  0  0  0  0  0  0  0  0
    2.6093   -2.4718    0.2716 C   0  0  0  0  0  0  0  0  0  0  0  0
    3.0746   -1.1696    0.8055 C   0  0  0  0  0  0  0  0  0  0  0  0
    2.1899   -3.4744   -0.1345 N   0  0  0  0  0  0  0  0  0  0  0  0
    4.5015   -1.1992    0.6880 O   0  0  0  0  0  0  0  0  0  0  0  0
    2.4527    0.8001   -2.0542 H   0  0  0  0  0  0  0  0  0  0  0  0
    2.4579   -0.9706   -2.0088 H   0  0  0  0  0  0  0  0  0  0  0  0
    3.9428   -0.0777   -1.6508 H   0  0  0  0  0  0  0  0  0  0  0  0
    2.9193   -1.9428    4.2437 H   0  0  0  0  0  0  0  0  0  0  0  0
    4.3011   -2.1602    3.1497 H   0  0  0  0  0  0  0  0  0  0  0  0
    2.8317   -3.1191    2.9221 H   0  0  0  0  0  0  0  0  0  0  0  0
    1.3833   -0.0365    0.0686 H   0  0  0  0  0  0  0  0  0  0  0  0
    2.8208    0.9183    0.4044 H   0  0  0  0  0  0  0  0  0  0  0  0
    2.9762   -0.0501    2.6284 H   0  0  0  0  0  0  0  0  0  0  0  0
    1.5488   -1.0335    2.3349 H   0  0  0  0  0  0  0  0  0  0  0  0
    4.8254   -0.3512    1.0351 H   0  0  0  0  0  0  0  0  0  0  0  0
  1  3  1  0  0  0  0
  2 12  1  0  0  0  0
  3 15  1  0  0  0  0
  3 16  1  0  0  0  0
  3  6  1  0  0  0  0
  4 18  1  0  0  0  0
  4 17  1  0  0  0  0
  4  2  1  0  0  0  0
  5  6  1  0  0  0  0
  6  4  1  0  0  0  0
  7  5  3  0  0  0  0
  8  6  1  0  0  0  0
  8 19  1  0  0  0  0
  9  1  1  0  0  0  0
 10  1  1  0  0  0  0
 11  1  1  0  0  0  0
 13  2  1  0  0  0  0
 14  2  1  0  0  0  0
M  END
>  <HBA>
2

>  <HBD>
1

>  <TPSA>
44.02

>  <cid>
36832

>  <dipole>
4.78

>  <excitation_energy_1>
6.621

>  <excitation_energy_2>
7.172

>  <excitation_energy_3>
7.582

>  <excitation_energy_4>
7.613

>  <homo_energy>
-7.867

>  <homo_lumo_gap>
8.419

>  <logP>
1.061

>  <lumo_energy>
0.552

>  <melting_point>
36.98

>  <molecular_refractivity>
31.9

>  <oscillator_strength_1>
0.0022

>  <oscillator_strength_2>
0.0021

>  <oscillator_strength_3>
0.0158

>  <oscillator_strength_4>
0.0005

>  <open_babel_can_smiles>
CCC(C#N)(CC)O

>  <mulliken_charges>
19
1   -0.4538
2   -0.45383
3   -0.272396
4   -0.272781
5   0.368269
6   0.250257
7   -0.482711
8   -0.620982
9   0.148854
10   0.172646
11   0.161389
12   0.148936
13   0.161248
14   0.172692
15   0.154177
16   0.13296
17   0.13302
18   0.154317
19   0.397735

>  <lowdin_charges>
19
1   -0.448475
2   -0.445917
3   -0.276954
4   -0.275587
5   -0.008419
6   0.117964
7   -0.118598
8   -0.437186
9   0.156021
10   0.163864
11   0.156141
12   0.154242
13   0.155937
14   0.162959
15   0.154845
16   0.143735
17   0.143041
18   0.154794
19   0.347593

$$$$

