PCCDB-ID:  7042
public computational chemistry database (PCCDB) project, http://pccdb.org

 14 14  0  0  0  0  0  0  0  0999 V2000
   -1.3890   -0.0720    0.0324 C   0  0  0  0  0  0  0  0  0  0  0  0
   -0.6270   -1.2424    0.0306 C   0  0  0  0  0  0  0  0  0  0  0  0
   -0.7638    1.1714   -0.0243 C   0  0  0  0  0  0  0  0  0  0  0  0
    0.7630   -1.1738   -0.0279 C   0  0  0  0  0  0  0  0  0  0  0  0
    1.2597    2.5451   -0.1409 C   0  0  0  0  0  0  0  0  0  0  0  0
    2.8379    0.1214   -0.1452 C   0  0  0  0  0  0  0  0  0  0  0  0
    0.6345    1.2569   -0.0836 C   0  0  0  0  0  0  0  0  0  0  0  0
    1.4069    0.0705   -0.0854 C   0  0  0  0  0  0  0  0  0  0  0  0
    1.7378    3.6041   -0.1857 N   0  0  0  0  0  0  0  0  0  0  0  0
    3.9996    0.1309   -0.1926 N   0  0  0  0  0  0  0  0  0  0  0  0
   -2.4724   -0.1263    0.0779 H   0  0  0  0  0  0  0  0  0  0  0  0
   -1.1150   -2.2112    0.0751 H   0  0  0  0  0  0  0  0  0  0  0  0
   -1.3477    2.0857   -0.0223 H   0  0  0  0  0  0  0  0  0  0  0  0
    1.3628   -2.0777   -0.0288 H   0  0  0  0  0  0  0  0  0  0  0  0
  1 11  1  0  0  0  0
  2  1  1  0  0  0  0
  2 12  1  0  0  0  0
  3 13  1  0  0  0  0
  3  1  2  0  0  0  0
  4  2  2  0  0  0  0
  5  7  1  0  0  0  0
  6  8  1  0  0  0  0
  7  3  1  0  0  0  0
  8  7  2  0  0  0  0
  8  4  1  0  0  0  0
  9  5  3  0  0  0  0
 10  6  3  0  0  0  0
 14  4  1  0  0  0  0
M  END
>  <HBA>
2

>  <HBD>
0

>  <TPSA>
47.58

>  <cid>
7042

>  <dipole>
7.09

>  <excitation_energy_1>
4.748

>  <excitation_energy_2>
5.108

>  <excitation_energy_3>
5.825

>  <excitation_energy_4>
5.893

>  <homo_energy>
-7.772

>  <homo_lumo_gap>
5.412

>  <logP>
1.43

>  <lumo_energy>
-2.359

>  <melting_point>
79.79

>  <molecular_refractivity>
35.87

>  <oscillator_strength_1>
0.022

>  <oscillator_strength_2>
0.1768

>  <oscillator_strength_3>
0.0

>  <oscillator_strength_4>
0.0

>  <open_babel_can_smiles>
N#Cc1ccccc1C#N

>  <mulliken_charges>
14
1   -0.120991
2   -0.121197
3   -0.145521
4   -0.145479
5   0.236921
6   0.236807
7   0.154679
8   0.154808
9   -0.462328
10   -0.462349
11   0.161455
12   0.161421
13   0.175894
14   0.175879

>  <lowdin_charges>
14
1   -0.130299
2   -0.132766
3   -0.125174
4   -0.125701
5   -0.012201
6   -0.013469
7   -0.000537
8   0.001631
9   -0.087227
10   -0.087238
11   0.17238
12   0.174285
13   0.183099
14   0.183216

$$$$

