PCCDB-ID:  19314
public computational chemistry database (PCCDB) project, http://pccdb.org

 22 23  0  0  1  0  0  0  0  0999 V2000
    2.3727    0.6350   -0.0017 C   0  0  0  0  0  0  0  0  0  0  0  0
    2.3253   -0.7617   -0.0161 C   0  0  0  0  0  0  0  0  0  0  0  0
    1.1910    1.3742    0.0062 C   0  0  0  0  0  0  0  0  0  0  0  0
    1.0950   -1.4173   -0.0041 C   0  0  0  0  0  0  0  0  0  0  0  0
   -3.6468   -1.4126    0.0692 C   0  0  0  0  0  0  0  0  0  0  0  0
   -2.3692    0.7688   -0.3333 C   0  0  0  0  0  0  0  0  0  0  0  0
   -2.4251   -0.5637    0.4016 C   0  0  2  0  0  0  0  0  0  0  0  0
   -0.0429    0.7226    0.0078 C   0  0  0  0  0  0  0  0  0  0  0  0
   -0.0891   -0.6807    0.0130 C   0  0  0  0  0  0  0  0  0  0  0  0
   -3.6170   -2.6499    0.7536 O   0  0  0  0  0  0  0  0  0  0  0  0
   -1.1859    1.4859    0.0160 O   0  0  0  0  0  0  0  0  0  0  0  0
   -1.2879   -1.3587    0.0240 O   0  0  0  0  0  0  0  0  0  0  0  0
    3.3283    1.1511   -0.0048 H   0  0  0  0  0  0  0  0  0  0  0  0
    3.2430   -1.3423   -0.0277 H   0  0  0  0  0  0  0  0  0  0  0  0
    1.1982    2.4599    0.0055 H   0  0  0  0  0  0  0  0  0  0  0  0
    1.0285   -2.5012   -0.0015 H   0  0  0  0  0  0  0  0  0  0  0  0
   -3.7003   -1.5545   -1.0228 H   0  0  0  0  0  0  0  0  0  0  0  0
   -4.5567   -0.8946    0.3896 H   0  0  0  0  0  0  0  0  0  0  0  0
   -3.2081    1.4117   -0.0540 H   0  0  0  0  0  0  0  0  0  0  0  0
   -2.3946    0.5988   -1.4192 H   0  0  0  0  0  0  0  0  0  0  0  0
   -2.3826   -0.3865    1.4855 H   0  0  0  0  0  0  0  0  0  0  0  0
   -2.7532   -3.0471    0.5537 H   0  0  0  0  0  0  0  0  0  0  0  0
  1  3  2  0  0  0  0
  2  4  2  0  0  0  0
  2  1  1  0  0  0  0
  3  8  1  0  0  0  0
  4 16  1  0  0  0  0
  4  9  1  0  0  0  0
  5 18  1  0  0  0  0
  5  7  1  0  0  0  0
  5 10  1  0  0  0  0
  6 19  1  0  0  0  0
  6 11  1  0  0  0  0
  6  7  1  0  0  0  0
  7 21  1  1  0  0  0
  8  9  2  0  0  0  0
  8 11  1  0  0  0  0
  9 12  1  0  0  0  0
 12  7  1  0  0  0  0
 13  1  1  0  0  0  0
 14  2  1  0  0  0  0
 15  3  1  0  0  0  0
 17  5  1  0  0  0  0
 20  6  1  0  0  0  0
 22 10  1  0  0  0  0
M  END
>  <HBA>
3

>  <HBD>
1

>  <TPSA>
38.69

>  <cid>
19314

>  <dipole>
1.05

>  <excitation_energy_1>
4.911

>  <excitation_energy_2>
5.394

>  <excitation_energy_3>
5.607

>  <excitation_energy_4>
5.718

>  <homo_energy>
-5.815

>  <homo_lumo_gap>
5.853

>  <logP>
0.819

>  <lumo_energy>
0.038

>  <melting_point>
55.06

>  <molecular_refractivity>
43.28

>  <oscillator_strength_1>
0.0428

>  <oscillator_strength_2>
0.0099

>  <oscillator_strength_3>
0.0039

>  <oscillator_strength_4>
0.0066

>  <open_babel_can_smiles>
OC[C@@H]1COc2c(O1)cccc2

>  <mulliken_charges>
22
1   -0.136723
2   -0.138035
3   -0.190406
4   -0.190526
5   -0.034084
6   -0.051703
7   0.081608
8   0.330337
9   0.338021
10   -0.6183
11   -0.525332
12   -0.561764
13   0.129837
14   0.12971
15   0.140956
16   0.1356
17   0.131002
18   0.150253
19   0.160268
20   0.153583
21   0.159193
22   0.406504

>  <lowdin_charges>
22
1   -0.164192
2   -0.165997
3   -0.172463
4   -0.174097
5   -0.136854
6   -0.139188
7   -0.024609
8   0.061968
9   0.060716
10   -0.458394
11   -0.205017
12   -0.221814
13   0.159484
14   0.15978
15   0.166126
16   0.163553
17   0.131576
18   0.154295
19   0.163032
20   0.145244
21   0.148632
22   0.348219

$$$$

