PCCDB-ID:  19
public computational chemistry database (PCCDB) project, http://pccdb.org

 17 17  0  0  0  0  0  0  0  0999 V2000
   -1.2421   -0.6779   -0.0775 C   0  0  0  0  0  0  0  0  0  0  0  0
   -0.0414   -1.3610   -0.0724 C   0  0  0  0  0  0  0  0  0  0  0  0
   -1.2445    0.7255   -0.0421 C   0  0  0  0  0  0  0  0  0  0  0  0
    1.1892   -0.6659   -0.0317 C   0  0  0  0  0  0  0  0  0  0  0  0
   -0.0557    1.4382   -0.0017 C   0  0  0  0  0  0  0  0  0  0  0  0
    1.1860    0.7504    0.0048 C   0  0  0  0  0  0  0  0  0  0  0  0
    2.5047   -1.3463   -0.0244 C   0  0  0  0  0  0  0  0  0  0  0  0
    0.0135    2.7982    0.0340 O   0  0  0  0  0  0  0  0  0  0  0  0
    2.2926    1.4999    0.0456 O   0  0  0  0  0  0  0  0  0  0  0  0
    3.5719   -0.7427    0.0141 O   0  0  0  0  0  0  0  0  0  0  0  0
    2.5511   -2.6942   -0.0620 O   0  0  0  0  0  0  0  0  0  0  0  0
   -2.1825   -1.2182   -0.1087 H   0  0  0  0  0  0  0  0  0  0  0  0
   -0.0729   -2.4481   -0.1001 H   0  0  0  0  0  0  0  0  0  0  0  0
   -2.1884    1.2676   -0.0462 H   0  0  0  0  0  0  0  0  0  0  0  0
   -0.8879    3.1562    0.0269 H   0  0  0  0  0  0  0  0  0  0  0  0
    3.0601    0.8704    0.0453 H   0  0  0  0  0  0  0  0  0  0  0  0
    1.6585   -3.0719   -0.0908 H   0  0  0  0  0  0  0  0  0  0  0  0
  1  2  2  0  0  0  0
  1  3  1  0  0  0  0
  2  4  1  0  0  0  0
  3  5  2  0  0  0  0
  4  7  1  0  0  0  0
  4  6  2  0  0  0  0
  5  6  1  0  0  0  0
  5  8  1  0  0  0  0
  6  9  1  0  0  0  0
  7 10  2  0  0  0  0
 11  7  1  0  0  0  0
 12  1  1  0  0  0  0
 13  2  1  0  0  0  0
 14  3  1  0  0  0  0
 15  8  1  0  0  0  0
 16  9  1  0  0  0  0
 17 11  1  0  0  0  0
M  END
>  <HBA>
4

>  <HBD>
3

>  <TPSA>
77.76

>  <cid>
19

>  <dipole>
5.44

>  <excitation_energy_1>
3.953

>  <excitation_energy_2>
4.968

>  <excitation_energy_3>
5.041

>  <excitation_energy_4>
5.068

>  <homo_energy>
-5.989

>  <homo_lumo_gap>
4.509

>  <logP>
0.796

>  <lumo_energy>
-1.48

>  <melting_point>
176.59

>  <molecular_refractivity>
37.45

>  <oscillator_strength_1>
0.0772

>  <oscillator_strength_2>
0.0

>  <oscillator_strength_3>
0.0024

>  <oscillator_strength_4>
0.0814

>  <open_babel_can_smiles>
OC(=O)c1cccc(c1O)O

>  <mulliken_charges>
17
1   -0.139956
2   -0.217622
3   -0.192249
4   0.029924
5   0.325978
6   0.271612
7   0.586628
8   -0.620093
9   -0.631271
10   -0.510476
11   -0.57175
12   0.137992
13   0.115428
14   0.129741
15   0.410558
16   0.450311
17   0.425245

>  <lowdin_charges>
17
1   -0.168663
2   -0.171152
3   -0.191308
4   -0.113783
5   0.081405
6   0.110883
7   0.213616
8   -0.357203
9   -0.349656
10   -0.280896
11   -0.337364
12   0.164213
13   0.147706
14   0.160019
15   0.359679
16   0.373401
17   0.359104

$$$$

