PCCDB-ID:  13600
public computational chemistry database (PCCDB) project, http://pccdb.org

 15 15  0  0  0  0  0  0  0  0999 V2000
   -0.4083    1.2287    0.0366 C   0  0  0  0  0  0  0  0  0  0  0  0
    0.9250    0.5929    0.3645 C   0  0  0  0  0  0  0  0  0  0  0  0
   -1.3097   -0.0210   -0.0919 C   0  0  0  0  0  0  0  0  0  0  0  0
   -0.7073   -2.4363    0.4492 C   0  0  0  0  0  0  0  0  0  0  0  0
    0.0665   -3.4180    0.6876 N   0  0  0  0  0  0  0  0  0  0  0  0
    0.8683   -0.6651    0.6035 N   0  0  0  0  0  0  0  0  0  0  0  0
   -0.4424   -1.0766    0.4750 N   0  0  0  0  0  0  0  0  0  0  0  0
   -2.0178   -2.6374    0.1431 O   0  0  0  0  0  0  0  0  0  0  0  0
   -0.3781    1.8282   -0.8792 H   0  0  0  0  0  0  0  0  0  0  0  0
   -0.7302    1.8941    0.8489 H   0  0  0  0  0  0  0  0  0  0  0  0
    1.8721    1.1149    0.4422 H   0  0  0  0  0  0  0  0  0  0  0  0
   -1.5558   -0.2498   -1.1357 H   0  0  0  0  0  0  0  0  0  0  0  0
   -2.2415    0.0504    0.4718 H   0  0  0  0  0  0  0  0  0  0  0  0
    1.0107   -3.0899    0.8881 H   0  0  0  0  0  0  0  0  0  0  0  0
   -2.1243   -3.6049    0.1662 H   0  0  0  0  0  0  0  0  0  0  0  0
  1  2  1  0  0  0  0
  1 10  1  0  0  0  0
  2 11  1  0  0  0  0
  2  6  1  0  0  0  0
  3  1  1  0  0  0  0
  3 13  1  0  0  0  0
  3  7  1  0  0  0  0
  4  7  1  0  0  0  0
  4  5  2  0  0  0  0
  5 14  1  0  0  0  0
  7  6  1  0  0  0  0
  8 15  1  0  0  0  0
  8  4  1  0  0  0  0
  9  1  1  0  0  0  0
 12  3  1  0  0  0  0
M  RAD  2   2   2   6   2
M  END
>  <HBA>
4

>  <HBD>
1

>  <TPSA>
58.69

>  <cid>
13600

>  <dipole>
3.82

>  <excitation_energy_1>
4.811

>  <excitation_energy_2>
5.248

>  <excitation_energy_3>
5.755

>  <excitation_energy_4>
5.97

>  <homo_energy>
-5.802

>  <homo_lumo_gap>
5.527

>  <logP>
-0.17

>  <lumo_energy>
-0.275

>  <melting_point>
103.82

>  <molecular_refractivity>
36.35

>  <oscillator_strength_1>
0.1719

>  <oscillator_strength_2>
0.0121

>  <oscillator_strength_3>
0.0022

>  <oscillator_strength_4>
0.0059

>  <open_babel_can_smiles>
OC(=N)N1CC[CH][N]1

>  <mulliken_charges>
15
1   -0.36855
2   0.058945
3   -0.109997
4   0.667908
5   -0.66443
6   -0.208569
7   -0.347427
8   -0.611532
9   0.170645
10   0.173412
11   0.160975
12   0.170058
13   0.17861
14   0.307195
15   0.422758

>  <lowdin_charges>
15
1   -0.297351
2   -0.130827
3   -0.192768
4   0.156112
5   -0.472317
6   -0.077199
7   -0.067907
8   -0.378344
9   0.166227
10   0.165747
11   0.171156
12   0.154062
13   0.166458
14   0.269482
15   0.367468

$$$$

