PCCDB-ID:  8640
public computational chemistry database (PCCDB) project, http://pccdb.org

 20 21  0  0  0  0  0  0  0  0999 V2000
    2.4254    0.7449    0.0200 C   0  0  0  0  0  0  0  0  0  0  0  0
    2.4538   -0.6688    0.0014 C   0  0  0  0  0  0  0  0  0  0  0  0
   -2.4331    0.6651   -0.0498 C   0  0  0  0  0  0  0  0  0  0  0  0
    1.2198    1.4093    0.0134 C   0  0  0  0  0  0  0  0  0  0  0  0
   -1.2600    1.3831   -0.0329 C   0  0  0  0  0  0  0  0  0  0  0  0
    1.2768   -1.3859   -0.0041 C   0  0  0  0  0  0  0  0  0  0  0  0
   -2.4197   -0.7456   -0.0044 C   0  0  0  0  0  0  0  0  0  0  0  0
   -0.0133    0.7030    0.0014 C   0  0  0  0  0  0  0  0  0  0  0  0
    0.0167   -0.7307    0.0141 C   0  0  0  0  0  0  0  0  0  0  0  0
   -1.2270   -1.4499    0.0372 C   0  0  0  0  0  0  0  0  0  0  0  0
   -1.2164   -2.8520    0.0442 N   0  0  0  0  0  0  0  0  0  0  0  0
    3.3573    1.3038    0.0282 H   0  0  0  0  0  0  0  0  0  0  0  0
    3.4070   -1.1901   -0.0196 H   0  0  0  0  0  0  0  0  0  0  0  0
   -3.3892    1.1811   -0.0806 H   0  0  0  0  0  0  0  0  0  0  0  0
    1.1919    2.4966    0.0123 H   0  0  0  0  0  0  0  0  0  0  0  0
   -1.2695    2.4696   -0.0502 H   0  0  0  0  0  0  0  0  0  0  0  0
    1.3176   -2.4697   -0.0583 H   0  0  0  0  0  0  0  0  0  0  0  0
   -3.3610   -1.2912    0.0098 H   0  0  0  0  0  0  0  0  0  0  0  0
   -2.1225   -3.2578    0.2485 H   0  0  0  0  0  0  0  0  0  0  0  0
   -0.5073   -3.2635    0.6398 H   0  0  0  0  0  0  0  0  0  0  0  0
  1 12  1  0  0  0  0
  2  1  1  0  0  0  0
  3  5  2  0  0  0  0
  3  7  1  0  0  0  0
  4  1  2  0  0  0  0
  5  8  1  0  0  0  0
  6  2  2  0  0  0  0
  6  9  1  0  0  0  0
  7 18  1  0  0  0  0
  7 10  2  0  0  0  0
  8  4  1  0  0  0  0
  8  9  2  0  0  0  0
  9 10  1  0  0  0  0
 10 11  1  0  0  0  0
 11 19  1  0  0  0  0
 11 20  1  0  0  0  0
 13  2  1  0  0  0  0
 14  3  1  0  0  0  0
 15  4  1  0  0  0  0
 16  5  1  0  0  0  0
 17  6  1  0  0  0  0
M  END
>  <HBA>
1

>  <HBD>
1

>  <TPSA>
26.02

>  <cid>
8640

>  <dipole>
1.65

>  <excitation_energy_1>
3.845

>  <excitation_energy_2>
4.211

>  <excitation_energy_3>
4.57

>  <excitation_energy_4>
5.098

>  <homo_energy>
-5.132

>  <homo_lumo_gap>
4.4

>  <logP>
3.003

>  <lumo_energy>
-0.732

>  <melting_point>
97.81

>  <molecular_refractivity>
48.35

>  <oscillator_strength_1>
0.0859

>  <oscillator_strength_2>
0.0312

>  <oscillator_strength_3>
0.005

>  <oscillator_strength_4>
0.0024

>  <open_babel_can_smiles>
Nc1cccc2c1cccc2

>  <mulliken_charges>
20
1   -0.132523
2   -0.135525
3   -0.139685
4   -0.196653
5   -0.197351
6   -0.198482
7   -0.185433
8   0.126524
9   0.106174
10   0.233679
11   -0.785635
12   0.127412
13   0.126208
14   0.125324
15   0.127829
16   0.121103
17   0.125688
18   0.112111
19   0.318955
20   0.320279

>  <lowdin_charges>
20
1   -0.159809
2   -0.161953
3   -0.148792
4   -0.153496
5   -0.183802
6   -0.160444
7   -0.212204
8   0.007268
9   -0.026624
10   0.05775
11   -0.490845
12   0.157642
13   0.15692
14   0.156916
15   0.154627
16   0.152951
17   0.153625
18   0.151214
19   0.273501
20   0.275555

$$$$

