PCCDB-ID:  6502
public computational chemistry database (PCCDB) project, http://pccdb.org

 20 19  0  0  0  0  0  0  0  0999 V2000
    0.9032    0.0890   -0.0416 C   0  0  0  0  0  0  0  0  0  0  0  0
    2.8995   -1.3545    0.4277 C   0  0  0  0  0  0  0  0  0  0  0  0
    2.9495    0.3203   -1.4751 C   0  0  0  0  0  0  0  0  0  0  0  0
    2.9699    1.1292    0.9277 C   0  0  0  0  0  0  0  0  0  0  0  0
    2.4403    0.0460   -0.0407 C   0  0  0  0  0  0  0  0  0  0  0  0
    4.3196   -1.4823    0.5483 O   0  0  0  0  0  0  0  0  0  0  0  0
    4.3707    0.2212   -1.6075 O   0  0  0  0  0  0  0  0  0  0  0  0
    4.3968    1.2352    0.9441 O   0  0  0  0  0  0  0  0  0  0  0  0
    0.4850   -0.6926   -0.6868 H   0  0  0  0  0  0  0  0  0  0  0  0
    0.5332    1.0547   -0.4056 H   0  0  0  0  0  0  0  0  0  0  0  0
    0.5021   -0.0627    0.9674 H   0  0  0  0  0  0  0  0  0  0  0  0
    2.5045   -2.1192   -0.2603 H   0  0  0  0  0  0  0  0  0  0  0  0
    2.4912   -1.5668    1.4227 H   0  0  0  0  0  0  0  0  0  0  0  0
    2.6042    1.3138   -1.8038 H   0  0  0  0  0  0  0  0  0  0  0  0
    2.5290   -0.4176   -2.1682 H   0  0  0  0  0  0  0  0  0  0  0  0
    2.5906    0.9299    1.9430 H   0  0  0  0  0  0  0  0  0  0  0  0
    2.5969    2.1150    0.6264 H   0  0  0  0  0  0  0  0  0  0  0  0
    4.6679   -1.2373   -0.3344 H   0  0  0  0  0  0  0  0  0  0  0  0
    4.7268    0.8484   -0.9438 H   0  0  0  0  0  0  0  0  0  0  0  0
    4.7109    0.3333    1.1642 H   0  0  0  0  0  0  0  0  0  0  0  0
  1  5  1  0  0  0  0
  1 11  1  0  0  0  0
  2  6  1  0  0  0  0
  2 13  1  0  0  0  0
  3  5  1  0  0  0  0
  4  8  1  0  0  0  0
  4 16  1  0  0  0  0
  5  2  1  0  0  0  0
  5  4  1  0  0  0  0
  7  3  1  0  0  0  0
  7 19  1  0  0  0  0
  8 20  1  0  0  0  0
  9  1  1  0  0  0  0
 10  1  1  0  0  0  0
 12  2  1  0  0  0  0
 14  3  1  0  0  0  0
 15  3  1  0  0  0  0
 17  4  1  0  0  0  0
 18  6  1  0  0  0  0
M  END
>  <HBA>
3

>  <HBD>
3

>  <TPSA>
60.69

>  <cid>
6502

>  <dipole>
2.66

>  <excitation_energy_1>
6.624

>  <excitation_energy_2>
6.626

>  <excitation_energy_3>
6.745

>  <excitation_energy_4>
6.747

>  <homo_energy>
-7.154

>  <homo_lumo_gap>
9.048

>  <logP>
-1.03

>  <lumo_energy>
1.894

>  <melting_point>
48.64

>  <molecular_refractivity>
29.37

>  <oscillator_strength_1>
0.0004

>  <oscillator_strength_2>
0.0004

>  <oscillator_strength_3>
0.0354

>  <oscillator_strength_4>
0.0354

>  <open_babel_can_smiles>
OCC(CO)(CO)C

>  <mulliken_charges>
20
1   -0.464987
2   -0.032712
3   -0.032975
4   -0.033037
5   -0.008162
6   -0.649334
7   -0.649337
8   -0.649319
9   0.152155
10   0.152178
11   0.15209
12   0.129974
13   0.144268
14   0.129916
15   0.144257
16   0.129973
17   0.144402
18   0.413535
19   0.413555
20   0.413562

>  <lowdin_charges>
20
1   -0.442256
2   -0.13748
3   -0.137577
4   -0.135705
5   -0.049483
6   -0.477827
7   -0.479652
8   -0.477473
9   0.155957
10   0.154844
11   0.154275
12   0.135125
13   0.145759
14   0.133412
15   0.14745
16   0.133225
17   0.145915
18   0.343455
19   0.345003
20   0.343036

$$$$

