PCCDB-ID:  16372
public computational chemistry database (PCCDB) project, http://pccdb.org

 18 17  0  0  1  0  0  0  0  0999 V2000
    1.0601   -0.3863   -0.1252 C   0  0  0  0  0  0  0  0  0  0  0  0
    0.7956   -1.4446    0.9788 C   0  0  1  0  0  0  0  0  0  0  0  0
    2.5299   -0.2220   -0.4926 C   0  0  0  0  0  0  0  0  0  0  0  0
    0.9767   -0.8557    2.3948 C   0  0  0  0  0  0  0  0  0  0  0  0
   -0.5253   -2.0943    0.9349 N   0  0  0  0  0  0  0  0  0  0  0  0
    3.1045   -0.5881   -1.5761 N   0  0  0  0  0  0  0  0  0  0  0  0
    3.3078    0.3872    0.4238 O   0  0  0  0  0  0  0  0  0  0  0  0
    1.7767    0.0246    2.6571 O   0  0  0  0  0  0  0  0  0  0  0  0
    0.1908   -1.4018    3.3145 O   0  0  0  0  0  0  0  0  0  0  0  0
    2.1574   -1.3627   -2.8025 S   0  0  0  0  0  0  0  0  0  0  0  0
    0.6663    0.5865    0.1952 H   0  0  0  0  0  0  0  0  0  0  0  0
    0.4984   -0.6825   -1.0158 H   0  0  0  0  0  0  0  0  0  0  0  0
    1.5415   -2.2451    0.8907 H   0  0  0  0  0  0  0  0  0  0  0  0
   -0.5398   -2.8530    0.2577 H   0  0  0  0  0  0  0  0  0  0  0  0
   -1.2475   -1.4297    0.6585 H   0  0  0  0  0  0  0  0  0  0  0  0
    2.8257    0.4348    1.2829 H   0  0  0  0  0  0  0  0  0  0  0  0
   -0.3947   -2.0255    2.8083 H   0  0  0  0  0  0  0  0  0  0  0  0
    3.1658   -1.4119   -3.6943 H   0  0  0  0  0  0  0  0  0  0  0  0
  1 11  1  0  0  0  0
  1  2  1  0  0  0  0
  2 13  1  6  0  0  0
  2  4  1  0  0  0  0
  3  1  1  0  0  0  0
  3  7  1  0  0  0  0
  4  8  2  0  0  0  0
  4  9  1  0  0  0  0
  5  2  1  0  0  0  0
  6  3  2  0  0  0  0
  7 16  1  0  0  0  0
 10  6  1  0  0  0  0
 12  1  1  0  0  0  0
 14  5  1  0  0  0  0
 15  5  1  0  0  0  0
 17  9  1  0  0  0  0
 18 10  1  0  0  0  0
M  END
>  <HBA>
6

>  <HBD>
4

>  <TPSA>
131.22

>  <cid>
16372

>  <dipole>
5.92

>  <excitation_energy_1>
4.234

>  <excitation_energy_2>
4.526

>  <excitation_energy_3>
4.928

>  <excitation_energy_4>
5.28

>  <homo_energy>
-5.837

>  <homo_lumo_gap>
5.263

>  <logP>
-0.159

>  <lumo_energy>
-0.574

>  <melting_point>
175.0

>  <molecular_refractivity>
36.75

>  <oscillator_strength_1>
0.0046

>  <oscillator_strength_2>
0.0008

>  <oscillator_strength_3>
0.0317

>  <oscillator_strength_4>
0.0221

>  <open_babel_can_smiles>
N[C@H](C(=O)O)C/C(=N\S)/O

>  <mulliken_charges>
18
1   -0.400601
2   -0.090664
3   0.49534
4   0.635505
5   -0.772513
6   -0.51277
7   -0.600387
8   -0.482116
9   -0.55739
10   0.034805
11   0.183112
12   0.180082
13   0.210355
14   0.339788
15   0.330802
16   0.4474
17   0.441444
18   0.117808

>  <lowdin_charges>
18
1   -0.320525
2   -0.109009
3   0.111667
4   0.188175
5   -0.53956
6   -0.340658
7   -0.369019
8   -0.263178
9   -0.324539
10   0.023915
11   0.171667
12   0.173349
13   0.183485
14   0.281931
15   0.274006
16   0.360698
17   0.367423
18   0.130172

$$$$

