PCCDB-ID:  31214
public computational chemistry database (PCCDB) project, http://pccdb.org

 26 25  0  0  0  0  0  0  0  0999 V2000
    8.6503   -3.5997   -5.7177 C   0  0  0  0  0  0  0  0  0  0  0  0
    7.8006    0.1468   -0.6255 C   0  0  0  0  0  0  0  0  0  0  0  0
    6.4178    1.4663   -6.5859 C   0  0  0  0  0  0  0  0  0  0  0  0
    8.4936   -2.4064   -4.7909 C   0  0  0  0  0  0  0  0  0  0  0  0
    7.0318    0.2113   -1.9342 C   0  0  0  0  0  0  0  0  0  0  0  0
    6.1018    0.1683   -5.8616 C   0  0  0  0  0  0  0  0  0  0  0  0
    6.7227   -1.0575   -3.9167 C   0  0  0  0  0  0  0  0  0  0  0  0
    7.0887   -2.2478   -4.5260 O   0  0  0  0  0  0  0  0  0  0  0  0
    7.4425   -0.8946   -2.7397 O   0  0  0  0  0  0  0  0  0  0  0  0
    6.9597    0.0736   -4.7253 O   0  0  0  0  0  0  0  0  0  0  0  0
    9.7107   -3.7788   -5.9283 H   0  0  0  0  0  0  0  0  0  0  0  0
    8.1321   -3.4278   -6.6671 H   0  0  0  0  0  0  0  0  0  0  0  0
    8.2315   -4.5019   -5.2598 H   0  0  0  0  0  0  0  0  0  0  0  0
    7.5861   -0.7860   -0.0942 H   0  0  0  0  0  0  0  0  0  0  0  0
    7.5230    0.9879    0.0193 H   0  0  0  0  0  0  0  0  0  0  0  0
    8.8784    0.1953   -0.8123 H   0  0  0  0  0  0  0  0  0  0  0  0
    6.2607    2.3254   -5.9256 H   0  0  0  0  0  0  0  0  0  0  0  0
    5.7721    1.5790   -7.4638 H   0  0  0  0  0  0  0  0  0  0  0  0
    7.4608    1.4773   -6.9188 H   0  0  0  0  0  0  0  0  0  0  0  0
    8.8867   -1.4916   -5.2496 H   0  0  0  0  0  0  0  0  0  0  0  0
    9.0254   -2.5672   -3.8463 H   0  0  0  0  0  0  0  0  0  0  0  0
    7.2272    1.1511   -2.4636 H   0  0  0  0  0  0  0  0  0  0  0  0
    5.9462    0.1496   -1.7519 H   0  0  0  0  0  0  0  0  0  0  0  0
    6.2539   -0.6970   -6.5202 H   0  0  0  0  0  0  0  0  0  0  0  0
    5.0490    0.1522   -5.5349 H   0  0  0  0  0  0  0  0  0  0  0  0
    5.6400   -1.1503   -3.7195 H   0  0  0  0  0  0  0  0  0  0  0  0
  1 13  1  0  0  0  0
  1  4  1  0  0  0  0
  2 14  1  0  0  0  0
  2 15  1  0  0  0  0
  3 17  1  0  0  0  0
  3  6  1  0  0  0  0
  4  8  1  0  0  0  0
  4 21  1  0  0  0  0
  5 23  1  0  0  0  0
  5  2  1  0  0  0  0
  6 25  1  0  0  0  0
  6 10  1  0  0  0  0
  7 26  1  0  0  0  0
  7  9  1  0  0  0  0
  8  7  1  0  0  0  0
  9  5  1  0  0  0  0
 10  7  1  0  0  0  0
 11  1  1  0  0  0  0
 12  1  1  0  0  0  0
 16  2  1  0  0  0  0
 18  3  1  0  0  0  0
 19  3  1  0  0  0  0
 20  4  1  0  0  0  0
 22  5  1  0  0  0  0
 24  6  1  0  0  0  0
M  END
>  <HBA>
3

>  <HBD>
0

>  <TPSA>
27.69

>  <cid>
31214

>  <dipole>
1.17

>  <excitation_energy_1>
6.902

>  <excitation_energy_2>
7.029

>  <excitation_energy_3>
7.122

>  <excitation_energy_4>
7.244

>  <homo_energy>
-7.135

>  <homo_lumo_gap>
9.641

>  <logP>
1.379

>  <lumo_energy>
2.506

>  <melting_point>
-54.08

>  <molecular_refractivity>
39.02

>  <oscillator_strength_1>
0.0139

>  <oscillator_strength_2>
0.0046

>  <oscillator_strength_3>
0.0137

>  <oscillator_strength_4>
0.0066

>  <open_babel_can_smiles>
CCOC(OCC)OCC

>  <mulliken_charges>
26
1   -0.456235
2   -0.455283
3   -0.454272
4   -0.028167
5   -0.013503
6   -0.018841
7   0.600379
8   -0.490258
9   -0.496117
10   -0.492394
11   0.142833
12   0.1513
13   0.158002
14   0.157982
15   0.143749
16   0.160187
17   0.156066
18   0.144865
19   0.159101
20   0.142812
21   0.149298
22   0.149832
23   0.119004
24   0.142121
25   0.122972
26   0.104566

>  <lowdin_charges>
26
1   -0.447181
2   -0.447342
3   -0.447466
4   -0.128995
5   -0.122138
6   -0.126042
7   0.172809
8   -0.254357
9   -0.251778
10   -0.275034
11   0.152218
12   0.15248
13   0.156915
14   0.156707
15   0.155047
16   0.156212
17   0.156096
18   0.155117
19   0.156031
20   0.141231
21   0.143508
22   0.141845
23   0.125552
24   0.137672
25   0.126556
26   0.114338

$$$$

