PCCDB-ID:  43389
public computational chemistry database (PCCDB) project, http://pccdb.org

 20 20  0  0  1  0  0  0  0  0999 V2000
    1.6680    0.4545   -1.2535 C   0  0  0  0  0  0  0  0  0  0  0  0
    2.9894   -0.2734   -1.4365 C   0  0  0  0  0  0  0  0  0  0  0  0
    6.1014   -0.2905    1.5871 C   0  0  0  0  0  0  0  0  0  0  0  0
    5.1807   -1.4986    1.2792 C   0  0  0  0  0  0  0  0  0  0  0  0
    6.2575    0.4113    0.2170 C   0  0  0  0  0  0  0  0  0  0  0  0
    4.7439   -1.2627   -0.1713 C   0  0  1  0  0  0  0  0  0  0  0  0
    3.5278   -0.5492   -0.1446 O   0  0  0  0  0  0  0  0  0  0  0  0
    5.7952   -0.5264   -0.7644 O   0  0  0  0  0  0  0  0  0  0  0  0
    1.2205    0.6839   -2.2270 H   0  0  0  0  0  0  0  0  0  0  0  0
    1.8191    1.3942   -0.7121 H   0  0  0  0  0  0  0  0  0  0  0  0
    0.9636   -0.1594   -0.6827 H   0  0  0  0  0  0  0  0  0  0  0  0
    3.6972    0.3329   -2.0167 H   0  0  0  0  0  0  0  0  0  0  0  0
    2.8407   -1.2193   -1.9841 H   0  0  0  0  0  0  0  0  0  0  0  0
    7.0684   -0.6213    1.9773 H   0  0  0  0  0  0  0  0  0  0  0  0
    5.6603    0.3824    2.3277 H   0  0  0  0  0  0  0  0  0  0  0  0
    4.3135   -1.5639    1.9401 H   0  0  0  0  0  0  0  0  0  0  0  0
    5.7335   -2.4405    1.3446 H   0  0  0  0  0  0  0  0  0  0  0  0
    7.2916    0.6591   -0.0373 H   0  0  0  0  0  0  0  0  0  0  0  0
    5.6569    1.3290    0.1720 H   0  0  0  0  0  0  0  0  0  0  0  0
    4.6332   -2.1739   -0.7757 H   0  0  0  0  0  0  0  0  0  0  0  0
  1 10  1  0  0  0  0
  1 11  1  0  0  0  0
  2  1  1  0  0  0  0
  2  7  1  0  0  0  0
  3 14  1  0  0  0  0
  3 15  1  0  0  0  0
  4 17  1  0  0  0  0
  4  3  1  0  0  0  0
  4 16  1  0  0  0  0
  5  3  1  0  0  0  0
  6 20  1  6  0  0  0
  6  7  1  0  0  0  0
  6  4  1  0  0  0  0
  8  6  1  0  0  0  0
  8  5  1  0  0  0  0
  9  1  1  0  0  0  0
 12  2  1  0  0  0  0
 13  2  1  0  0  0  0
 18  5  1  0  0  0  0
 19  5  1  0  0  0  0
M  END
>  <HBA>
2

>  <HBD>
0

>  <TPSA>
18.46

>  <cid>
43389

>  <dipole>
0.53

>  <excitation_energy_1>
6.758

>  <excitation_energy_2>
6.96

>  <excitation_energy_3>
7.138

>  <excitation_energy_4>
7.206

>  <homo_energy>
-6.98

>  <homo_lumo_gap>
9.347

>  <logP>
1.159

>  <lumo_energy>
2.367

>  <melting_point>
-21.88

>  <molecular_refractivity>
31.01

>  <oscillator_strength_1>
0.0051

>  <oscillator_strength_2>
0.0163

>  <oscillator_strength_3>
0.0138

>  <oscillator_strength_4>
0.0006

>  <open_babel_can_smiles>
CCO[C@@H]1CCCO1

>  <mulliken_charges>
20
1   -0.453847
2   -0.014407
3   -0.31012
4   -0.296938
5   -0.025349
6   0.348134
7   -0.488736
8   -0.482464
9   0.142797
10   0.15567
11   0.154966
12   0.1437
13   0.117794
14   0.147576
15   0.150986
16   0.160634
17   0.147024
18   0.142983
19   0.139645
20   0.11995

>  <lowdin_charges>
20
1   -0.449324
2   -0.130435
3   -0.297973
4   -0.295905
5   -0.135912
6   0.090564
7   -0.275491
8   -0.271164
9   0.153437
10   0.155465
11   0.156274
12   0.140158
13   0.126324
14   0.150484
15   0.154873
16   0.162167
17   0.153219
18   0.146663
19   0.136242
20   0.130334

$$$$

