PCCDB-ID:  36461
public computational chemistry database (PCCDB) project, http://pccdb.org

 26 28  0  0  1  0  0  0  0  0999 V2000
   -3.0225   -1.2087    0.0455 C   0  0  0  0  0  0  0  0  0  0  0  0
   -3.4578    0.1177    0.1212 C   0  0  0  0  0  0  0  0  0  0  0  0
   -1.6597   -1.5151   -0.0354 C   0  0  0  0  0  0  0  0  0  0  0  0
   -2.5300    1.1681    0.1054 C   0  0  0  0  0  0  0  0  0  0  0  0
    3.0312   -1.2101   -0.0814 C   0  0  0  0  0  0  0  0  0  0  0  0
    1.6697   -1.5104   -0.1058 C   0  0  0  0  0  0  0  0  0  0  0  0
    2.5399    1.1678   -0.0011 C   0  0  0  0  0  0  0  0  0  0  0  0
    3.4852    0.1220   -0.0237 C   0  0  0  0  0  0  0  0  0  0  0  0
   -0.7341   -0.4708   -0.0404 C   0  0  0  0  0  0  0  0  0  0  0  0
    0.7374   -0.4729   -0.0742 C   0  0  0  0  0  0  0  0  0  0  0  0
   -1.1787    0.8662    0.0196 C   0  0  0  0  0  0  0  0  0  0  0  0
    1.1912    0.8596   -0.0333 C   0  0  0  0  0  0  0  0  0  0  0  0
    0.0080    1.8204   -0.0247 C   0  0  2  0  0  0  0  0  0  0  0  0
    4.8530    0.4057   -0.0507 N   0  0  0  0  0  0  0  0  0  0  0  0
    0.0353    2.8056    1.0064 O   0  0  0  0  0  0  0  0  0  0  0  0
   -3.7520   -2.0146    0.0536 H   0  0  0  0  0  0  0  0  0  0  0  0
   -4.5203    0.3346    0.1906 H   0  0  0  0  0  0  0  0  0  0  0  0
   -1.3344   -2.5512   -0.0869 H   0  0  0  0  0  0  0  0  0  0  0  0
   -2.8603    2.2021    0.1664 H   0  0  0  0  0  0  0  0  0  0  0  0
    3.7614   -2.0159   -0.1095 H   0  0  0  0  0  0  0  0  0  0  0  0
    1.3510   -2.5493   -0.1407 H   0  0  0  0  0  0  0  0  0  0  0  0
    2.8701    2.2036    0.0431 H   0  0  0  0  0  0  0  0  0  0  0  0
   -0.0088    2.4085   -0.9516 H   0  0  0  0  0  0  0  0  0  0  0  0
    5.4523   -0.3343    0.2931 H   0  0  0  0  0  0  0  0  0  0  0  0
    5.1114    1.3039    0.3386 H   0  0  0  0  0  0  0  0  0  0  0  0
    0.0273    2.3264    1.8515 H   0  0  0  0  0  0  0  0  0  0  0  0
  1 16  1  0  0  0  0
  1  2  2  0  0  0  0
  2 17  1  0  0  0  0
  3  1  1  0  0  0  0
  4  2  1  0  0  0  0
  4 19  1  0  0  0  0
  5  8  1  0  0  0  0
  6  5  2  0  0  0  0
  6 10  1  0  0  0  0
  7 22  1  0  0  0  0
  8  7  2  0  0  0  0
  9  3  2  0  0  0  0
  9 11  1  0  0  0  0
 10  9  1  0  0  0  0
 10 12  2  0  0  0  0
 11  4  2  0  0  0  0
 12 13  1  0  0  0  0
 12  7  1  0  0  0  0
 13 23  1  6  0  0  0
 13 11  1  0  0  0  0
 13 15  1  0  0  0  0
 14  8  1  0  0  0  0
 14 24  1  0  0  0  0
 14 25  1  0  0  0  0
 15 26  1  0  0  0  0
 18  3  1  0  0  0  0
 20  5  1  0  0  0  0
 21  6  1  0  0  0  0
M  END
>  <HBA>
2

>  <HBD>
2

>  <TPSA>
46.25

>  <cid>
36461

>  <dipole>
2.61

>  <excitation_energy_1>
3.822

>  <excitation_energy_2>
4.129

>  <excitation_energy_3>
4.565

>  <excitation_energy_4>
4.665

>  <homo_energy>
-5.135

>  <homo_lumo_gap>
4.531

>  <logP>
2.912

>  <lumo_energy>
-0.604

>  <melting_point>
142.28

>  <molecular_refractivity>
60.46

>  <oscillator_strength_1>
0.0165

>  <oscillator_strength_2>
0.4062

>  <oscillator_strength_3>
0.0075

>  <oscillator_strength_4>
0.0128

>  <open_babel_can_smiles>
Nc1ccc2c(c1)[C@H](O)c1c2cccc1

>  <mulliken_charges>
26
1   -0.133124
2   -0.134906
3   -0.199646
4   -0.196008
5   -0.182501
6   -0.201875
7   -0.248893
8   0.324027
9   0.097839
10   0.08535
11   0.05443
12   0.057422
13   -0.005452
14   -0.791339
15   -0.610318
16   0.12656
17   0.126071
18   0.125822
19   0.135801
20   0.117253
21   0.128924
22   0.128217
23   0.165522
24   0.320552
25   0.32246
26   0.387812

>  <lowdin_charges>
26
1   -0.153578
2   -0.16269
3   -0.16836
4   -0.154026
5   -0.198598
6   -0.149274
7   -0.196285
8   0.063941
9   -0.004864
10   -0.037451
11   -0.037339
12   -0.020339
13   0.000422
14   -0.487917
15   -0.450791
16   0.157481
17   0.155087
18   0.154733
19   0.160863
20   0.15414
21   0.156479
22   0.158171
23   0.162852
24   0.277245
25   0.276756
26   0.343341

$$$$

