PCCDB-ID:  4885
public computational chemistry database (PCCDB) project, http://pccdb.org

 31 32  0  0  1  0  0  0  0  0999 V2000
    0.9436    0.9821    3.0495 C   0  0  0  0  0  0  0  0  0  0  0  0
    1.8082    1.5901    1.9411 C   0  0  0  0  0  0  0  0  0  0  0  0
    5.5651    3.9934    2.7839 C   0  0  0  0  0  0  0  0  0  0  0  0
    4.9358    5.3549    2.4329 C   0  0  0  0  0  0  0  0  0  0  0  0
    3.1717    2.0713    2.4451 C   0  0  0  0  0  0  0  0  0  0  0  0
    6.0669    3.4176    0.3673 C   0  0  0  0  0  0  0  0  0  0  0  0
    5.3645    2.9438    1.6601 C   0  0  2  0  0  0  0  0  0  0  0  0
    5.2691    5.7231    1.0173 C   0  0  0  0  0  0  0  0  0  0  0  0
    5.7584    4.8643    0.1024 C   0  0  0  0  0  0  0  0  0  0  0  0
    5.4138    7.2361   -0.8075 C   0  0  0  0  0  0  0  0  0  0  0  0
    5.3594    8.2903   -1.5243 N   0  0  0  0  0  0  0  0  0  0  0  0
    3.9727    2.6069    1.3482 N   0  0  0  0  0  0  0  0  0  0  0  0
    5.0677    7.0145    0.5225 N   0  0  0  0  0  0  0  0  0  0  0  0
    6.0143    5.6711   -1.4600 S   0  0  0  0  0  0  0  0  0  0  0  0
   -0.0267    0.6550    2.6602 H   0  0  0  0  0  0  0  0  0  0  0  0
    0.7529    1.7061    3.8514 H   0  0  0  0  0  0  0  0  0  0  0  0
    1.4315    0.1093    3.5007 H   0  0  0  0  0  0  0  0  0  0  0  0
    1.2751    2.4375    1.4852 H   0  0  0  0  0  0  0  0  0  0  0  0
    1.9719    0.8613    1.1384 H   0  0  0  0  0  0  0  0  0  0  0  0
    5.1484    3.6266    3.7282 H   0  0  0  0  0  0  0  0  0  0  0  0
    6.6428    4.1266    2.9453 H   0  0  0  0  0  0  0  0  0  0  0  0
    5.2988    6.1253    3.1275 H   0  0  0  0  0  0  0  0  0  0  0  0
    3.8433    5.3183    2.5652 H   0  0  0  0  0  0  0  0  0  0  0  0
    3.7217    1.2208    2.8729 H   0  0  0  0  0  0  0  0  0  0  0  0
    3.0144    2.7845    3.2778 H   0  0  0  0  0  0  0  0  0  0  0  0
    5.7288    2.7839   -0.4609 H   0  0  0  0  0  0  0  0  0  0  0  0
    7.1532    3.2709    0.4571 H   0  0  0  0  0  0  0  0  0  0  0  0
    5.8440    2.0099    1.9830 H   0  0  0  0  0  0  0  0  0  0  0  0
    4.9926    9.0869   -0.9970 H   0  0  0  0  0  0  0  0  0  0  0  0
    3.5070    3.4118    0.9312 H   0  0  0  0  0  0  0  0  0  0  0  0
    4.7263    7.7727    1.0965 H   0  0  0  0  0  0  0  0  0  0  0  0
  1 17  1  0  0  0  0
  1 16  1  0  0  0  0
  2  5  1  0  0  0  0
  2  1  1  0  0  0  0
  3 21  1  0  0  0  0
  3 20  1  0  0  0  0
  4 23  1  0  0  0  0
  4  3  1  0  0  0  0
  4 22  1  0  0  0  0
  5 24  1  0  0  0  0
  5 25  1  0  0  0  0
  6 27  1  0  0  0  0
  6  7  1  0  0  0  0
  7 28  1  1  0  0  0
  7  3  1  0  0  0  0
  8  4  1  0  0  0  0
  9  6  1  0  0  0  0
  9  8  2  0  0  0  0
 10 13  1  0  0  0  0
 11 29  1  0  0  0  0
 11 10  2  0  0  0  0
 12  7  1  0  0  0  0
 12  5  1  0  0  0  0
 13  8  1  0  0  0  0
 13 31  1  0  0  0  0
 14 10  1  0  0  0  0
 14  9  1  0  0  0  0
 15  1  1  0  0  0  0
 18  2  1  0  0  0  0
 19  2  1  0  0  0  0
 26  6  1  0  0  0  0
 30 12  1  0  0  0  0
M  END
>  <HBA>
4

>  <HBD>
2

>  <TPSA>
79.18

>  <cid>
4885

>  <dipole>
5.35

>  <excitation_energy_1>
3.958

>  <excitation_energy_2>
4.41

>  <excitation_energy_3>
4.616

>  <excitation_energy_4>
4.86

>  <homo_energy>
-5.048

>  <homo_lumo_gap>
5.565

>  <logP>
2.554

>  <lumo_energy>
0.517

>  <melting_point>
123.32

>  <molecular_refractivity>
61.17

>  <oscillator_strength_1>
0.0013

>  <oscillator_strength_2>
0.001

>  <oscillator_strength_3>
0.0213

>  <oscillator_strength_4>
0.0353

>  <open_babel_can_smiles>
CCCN[C@@H]1CCc2c(C1)sc(=N)[nH]2

>  <mulliken_charges>
31
1   -0.446649
2   -0.254374
3   -0.276402
4   -0.350729
5   -0.10788
6   -0.322301
7   0.026116
8   0.385721
9   -0.208319
10   0.316915
11   -0.639874
12   -0.560358
13   -0.668784
14   0.212391
15   0.147755
16   0.140784
17   0.144051
18   0.127268
19   0.150181
20   0.142985
21   0.144587
22   0.150578
23   0.155
24   0.134427
25   0.107578
26   0.170715
27   0.155686
28   0.132235
29   0.270865
30   0.296468
31   0.323363

>  <lowdin_charges>
31
1   -0.446039
2   -0.277465
3   -0.288512
4   -0.278103
5   -0.204055
6   -0.27079
7   -0.060563
8   0.005749
9   -0.194382
10   -0.009619
11   -0.448268
12   -0.363648
13   -0.255781
14   0.237275
15   0.152708
16   0.146479
17   0.148308
18   0.138582
19   0.15056
20   0.149797
21   0.148765
22   0.155805
23   0.14881
24   0.140222
25   0.113347
26   0.166375
27   0.153751
28   0.144138
29   0.252555
30   0.254273
31   0.289723

$$$$

