PCCDB-ID:  21944
public computational chemistry database (PCCDB) project, http://pccdb.org

 20 19  0  0  0  0  0  0  0  0999 V2000
    0.2253   -2.1383   -1.5104 C   0  0  0  0  0  0  0  0  0  0  0  0
    8.0039   -0.0536   -1.5065 C   0  0  0  0  0  0  0  0  0  0  0  0
    1.6775   -1.7603   -1.5656 C   0  0  0  0  0  0  0  0  0  0  0  0
    6.5719   -0.3414   -1.1482 C   0  0  0  0  0  0  0  0  0  0  0  0
    2.3817   -1.2986   -0.5315 C   0  0  0  0  0  0  0  0  0  0  0  0
    5.6897   -0.8174   -2.0349 C   0  0  0  0  0  0  0  0  0  0  0  0
    3.8322   -0.9147   -0.5564 C   0  0  0  0  0  0  0  0  0  0  0  0
    4.3752   -1.1210   -1.8517 O   0  0  0  0  0  0  0  0  0  0  0  0
   -0.3666   -1.5453   -2.2209 H   0  0  0  0  0  0  0  0  0  0  0  0
   -0.1959   -1.9878   -0.5104 H   0  0  0  0  0  0  0  0  0  0  0  0
    0.0788   -3.1917   -1.7854 H   0  0  0  0  0  0  0  0  0  0  0  0
    8.2581    1.0025   -1.3421 H   0  0  0  0  0  0  0  0  0  0  0  0
    8.2077   -0.2833   -2.5585 H   0  0  0  0  0  0  0  0  0  0  0  0
    8.7006   -0.6449   -0.8967 H   0  0  0  0  0  0  0  0  0  0  0  0
    2.1789   -1.8764   -2.5244 H   0  0  0  0  0  0  0  0  0  0  0  0
    6.2737   -0.1449   -0.1217 H   0  0  0  0  0  0  0  0  0  0  0  0
    1.9037   -1.1713    0.4409 H   0  0  0  0  0  0  0  0  0  0  0  0
    5.9690   -1.0200   -3.0662 H   0  0  0  0  0  0  0  0  0  0  0  0
    4.3986   -1.5071    0.1818 H   0  0  0  0  0  0  0  0  0  0  0  0
    3.9547    0.1431   -0.2684 H   0  0  0  0  0  0  0  0  0  0  0  0
  1 10  1  0  0  0  0
  2 12  1  0  0  0  0
  2  4  1  0  0  0  0
  2 14  1  0  0  0  0
  3  1  1  0  0  0  0
  3  5  2  0  0  0  0
  4 16  1  0  0  0  0
  5 17  1  0  0  0  0
  6  8  1  0  0  0  0
  6  4  2  0  0  0  0
  7  5  1  0  0  0  0
  7 20  1  0  0  0  0
  7 19  1  0  0  0  0
  8  7  1  0  0  0  0
  9  1  1  0  0  0  0
 11  1  1  0  0  0  0
 13  2  1  0  0  0  0
 15  3  1  0  0  0  0
 18  6  1  0  0  0  0
M  END
>  <HBA>
1

>  <HBD>
0

>  <TPSA>
9.23

>  <cid>
21944

>  <dipole>
0.75

>  <excitation_energy_1>
5.517

>  <excitation_energy_2>
5.746

>  <excitation_energy_3>
5.797

>  <excitation_energy_4>
5.972

>  <homo_energy>
-5.815

>  <homo_lumo_gap>
6.664

>  <logP>
2.113

>  <lumo_energy>
0.849

>  <melting_point>
-16.6

>  <molecular_refractivity>
35.9

>  <oscillator_strength_1>
0.0122

>  <oscillator_strength_2>
0.0069

>  <oscillator_strength_3>
0.002

>  <oscillator_strength_4>
0.0085

>  <open_babel_can_smiles>
C/C=C/OC/C=C/C

>  <mulliken_charges>
20
1   -0.488654
2   -0.485852
3   -0.065825
4   -0.146864
5   -0.154025
6   0.120022
7   -0.049183
8   -0.45484
9   0.155564
10   0.149328
11   0.15566
12   0.151298
13   0.149102
14   0.151282
15   0.144982
16   0.124398
17   0.121244
18   0.133327
19   0.144425
20   0.144611

>  <lowdin_charges>
20
1   -0.437351
2   -0.429191
3   -0.154492
4   -0.241205
5   -0.191078
6   -0.054559
7   -0.121167
8   -0.196446
9   0.158214
10   0.152113
11   0.155699
12   0.151038
13   0.151568
14   0.153646
15   0.160486
16   0.152176
17   0.150994
18   0.153502
19   0.144429
20   0.141622

$$$$

