PCCDB-ID:  56204
public computational chemistry database (PCCDB) project, http://pccdb.org

 25 25  0  0  0  0  0  0  0  0999 V2000
    0.9912    0.4525    0.4740 C   0  0  0  0  0  0  0  0  0  0  0  0
    4.6358    1.4035   -0.1649 C   0  0  0  0  0  0  0  0  0  0  0  0
    3.2650    1.5050    0.0716 C   0  0  0  0  0  0  0  0  0  0  0  0
    5.2403    0.1498   -0.2574 C   0  0  0  0  0  0  0  0  0  0  0  0
    3.1034   -0.8946    0.1289 C   0  0  0  0  0  0  0  0  0  0  0  0
    5.1337   -2.3783   -0.1781 C   0  0  0  0  0  0  0  0  0  0  0  0
    2.4788    0.3550    0.2206 C   0  0  0  0  0  0  0  0  0  0  0  0
    4.4782   -1.0145   -0.1073 C   0  0  0  0  0  0  0  0  0  0  0  0
    4.7939   -4.5883   -1.1918 C   0  0  0  0  0  0  0  0  0  0  0  0
    5.6025   -5.0962   -0.3340 N   0  0  0  0  0  0  0  0  0  0  0  0
    4.1820   -5.2373   -2.2795 N   0  0  0  0  0  0  0  0  0  0  0  0
    4.4454   -3.2443   -1.1340 N   0  0  0  0  0  0  0  0  0  0  0  0
    0.6679    1.4946    0.5622 H   0  0  0  0  0  0  0  0  0  0  0  0
    0.7075   -0.0649    1.3988 H   0  0  0  0  0  0  0  0  0  0  0  0
    0.4152   -0.0067   -0.3394 H   0  0  0  0  0  0  0  0  0  0  0  0
    5.2340    2.3038   -0.2804 H   0  0  0  0  0  0  0  0  0  0  0  0
    2.7980    2.4850    0.1402 H   0  0  0  0  0  0  0  0  0  0  0  0
    6.3086    0.0723   -0.4457 H   0  0  0  0  0  0  0  0  0  0  0  0
    2.5112   -1.8007    0.2392 H   0  0  0  0  0  0  0  0  0  0  0  0
    5.0938   -2.8865    0.7905 H   0  0  0  0  0  0  0  0  0  0  0  0
    6.2015   -2.2740   -0.4211 H   0  0  0  0  0  0  0  0  0  0  0  0
    5.6619   -6.1100   -0.4453 H   0  0  0  0  0  0  0  0  0  0  0  0
    4.2580   -6.2467   -2.2399 H   0  0  0  0  0  0  0  0  0  0  0  0
    3.2213   -4.9500   -2.4388 H   0  0  0  0  0  0  0  0  0  0  0  0
    4.3081   -2.8195   -2.0446 H   0  0  0  0  0  0  0  0  0  0  0  0
  1 13  1  0  0  0  0
  1 14  1  0  0  0  0
  2  3  1  0  0  0  0
  3 17  1  0  0  0  0
  3  7  2  0  0  0  0
  4  2  2  0  0  0  0
  4  8  1  0  0  0  0
  5  7  1  0  0  0  0
  5 19  1  0  0  0  0
  6  8  1  0  0  0  0
  6 20  1  0  0  0  0
  7  1  1  0  0  0  0
  8  5  2  0  0  0  0
  9 12  1  0  0  0  0
  9 10  1  0  0  0  0
 11 23  1  0  0  0  0
 11  9  2  0  0  0  0
 12  6  1  0  0  0  0
 15  1  1  0  0  0  0
 16  2  1  0  0  0  0
 18  4  1  0  0  0  0
 21  6  1  0  0  0  0
 22 10  1  0  0  0  0
 24 11  1  0  0  0  0
 25 12  1  0  0  0  0
M  RAD  1  10   2
M  END
>  <HBA>
3

>  <HBD>
2

>  <TPSA>
64.4

>  <cid>
56204

>  <dipole>
2.92

>  <excitation_energy_1>
5.158

>  <excitation_energy_2>
5.213

>  <excitation_energy_3>
5.354

>  <excitation_energy_4>
5.627

>  <homo_energy>
-6.038

>  <homo_lumo_gap>
6.044

>  <logP>
2.169

>  <lumo_energy>
0.005

>  <melting_point>
137.69

>  <molecular_refractivity>
50.28

>  <oscillator_strength_1>
0.0015

>  <oscillator_strength_2>
0.0016

>  <oscillator_strength_3>
0.012

>  <oscillator_strength_4>
0.028

>  <open_babel_can_smiles>
[NH]C(=[NH2])NCc1cccc(c1)C

>  <mulliken_charges>
25
1   -0.528518
2   -0.125171
3   -0.182742
4   -0.192051
5   -0.217647
6   -0.177914
7   0.178027
8   0.130255
9   0.589268
10   -0.645639
11   -0.756694
12   -0.604148
13   0.153469
14   0.162701
15   0.159873
16   0.127066
17   0.119813
18   0.124978
19   0.125772
20   0.189257
21   0.14822
22   0.263575
23   0.318079
24   0.321285
25   0.318886

>  <lowdin_charges>
25
1   -0.442872
2   -0.156053
3   -0.171324
4   -0.170745
5   -0.170693
6   -0.185001
7   0.002489
8   -0.014821
9   0.124635
10   -0.476397
11   -0.509888
12   -0.309077
13   0.15479
14   0.161013
15   0.160318
16   0.157254
17   0.153073
18   0.153588
19   0.157727
20   0.17371
21   0.141716
22   0.243853
23   0.272685
24   0.275658
25   0.274364

$$$$

