PCCDB-ID:  27953
public computational chemistry database (PCCDB) project, http://pccdb.org

 28 28  0  0  0  0  0  0  0  0999 V2000
    2.8797   -2.0912   -4.7950 C   0  0  0  0  0  0  0  0  0  0  0  0
    3.9231   -0.2550    3.2782 C   0  0  0  0  0  0  0  0  0  0  0  0
    4.1064   -1.6370    3.1912 C   0  0  0  0  0  0  0  0  0  0  0  0
    4.5818    0.5829    2.3782 C   0  0  0  0  0  0  0  0  0  0  0  0
    5.7479   -2.6040   -0.9410 C   0  0  0  0  0  0  0  0  0  0  0  0
    4.9413   -2.1721    2.2108 C   0  0  0  0  0  0  0  0  0  0  0  0
    5.4171    0.0413    1.3989 C   0  0  0  0  0  0  0  0  0  0  0  0
    6.5041   -1.9395    0.2293 C   0  0  0  0  0  0  0  0  0  0  0  0
    4.9436   -1.6231   -1.7954 C   0  0  0  0  0  0  0  0  0  0  0  0
    5.6085   -1.3426    1.2971 C   0  0  0  0  0  0  0  0  0  0  0  0
    3.4495   -1.3902   -3.6429 N   0  0  0  0  0  0  0  0  0  0  0  0
    4.3432   -2.3275   -2.9366 N   0  0  0  0  0  0  0  0  0  0  0  0
    2.3460   -1.3627   -5.4140 H   0  0  0  0  0  0  0  0  0  0  0  0
    2.1462   -2.8281   -4.4446 H   0  0  0  0  0  0  0  0  0  0  0  0
    3.6285   -2.6186   -5.4073 H   0  0  0  0  0  0  0  0  0  0  0  0
    3.2756    0.1639    4.0439 H   0  0  0  0  0  0  0  0  0  0  0  0
    3.6037   -2.2982    3.8925 H   0  0  0  0  0  0  0  0  0  0  0  0
    4.4489    1.6602    2.4379 H   0  0  0  0  0  0  0  0  0  0  0  0
    5.0743   -3.3755   -0.5399 H   0  0  0  0  0  0  0  0  0  0  0  0
    6.4669   -3.1217   -1.5877 H   0  0  0  0  0  0  0  0  0  0  0  0
    5.0847   -3.2496    2.1563 H   0  0  0  0  0  0  0  0  0  0  0  0
    5.9291    0.7025    0.7030 H   0  0  0  0  0  0  0  0  0  0  0  0
    7.1679   -1.1615   -0.1698 H   0  0  0  0  0  0  0  0  0  0  0  0
    7.1554   -2.6956    0.6865 H   0  0  0  0  0  0  0  0  0  0  0  0
    5.6227   -0.8573   -2.1999 H   0  0  0  0  0  0  0  0  0  0  0  0
    4.1893   -1.0946   -1.1915 H   0  0  0  0  0  0  0  0  0  0  0  0
    4.0968   -0.6940   -4.0196 H   0  0  0  0  0  0  0  0  0  0  0  0
    3.6906   -3.0083   -2.5378 H   0  0  0  0  0  0  0  0  0  0  0  0
  1 14  1  0  0  0  0
  1 11  1  0  0  0  0
  2 16  1  0  0  0  0
  3  2  1  0  0  0  0
  3 17  1  0  0  0  0
  4 18  1  0  0  0  0
  4  2  2  0  0  0  0
  5 19  1  0  0  0  0
  5  8  1  0  0  0  0
  6  3  2  0  0  0  0
  7  4  1  0  0  0  0
  8 24  1  0  0  0  0
  8 10  1  0  0  0  0
  9 26  1  0  0  0  0
  9  5  1  0  0  0  0
 10  7  2  0  0  0  0
 10  6  1  0  0  0  0
 11 12  1  0  0  0  0
 12 28  1  0  0  0  0
 12  9  1  0  0  0  0
 13  1  1  0  0  0  0
 15  1  1  0  0  0  0
 20  5  1  0  0  0  0
 21  6  1  0  0  0  0
 22  7  1  0  0  0  0
 23  8  1  0  0  0  0
 25  9  1  0  0  0  0
 27 11  1  0  0  0  0
M  END
>  <HBA>
2

>  <HBD>
2

>  <TPSA>
24.06

>  <cid>
27953

>  <dipole>
0.22

>  <excitation_energy_1>
4.544

>  <excitation_energy_2>
4.598

>  <excitation_energy_3>
4.712

>  <excitation_energy_4>
4.968

>  <homo_energy>
-5.08

>  <homo_lumo_gap>
5.132

>  <logP>
2.125

>  <lumo_energy>
0.052

>  <melting_point>
59.52

>  <molecular_refractivity>
51.43

>  <oscillator_strength_1>
0.0066

>  <oscillator_strength_2>
0.0015

>  <oscillator_strength_3>
0.0006

>  <oscillator_strength_4>
0.0053

>  <open_babel_can_smiles>
CNNCCCc1ccccc1

>  <mulliken_charges>
28
1   -0.298902
2   -0.131908
3   -0.127151
4   -0.125838
5   -0.266725
6   -0.181907
7   -0.184935
8   -0.354663
9   -0.112635
10   0.178782
11   -0.434739
12   -0.461659
13   0.148923
14   0.146212
15   0.138194
16   0.127431
17   0.127544
18   0.12807
19   0.132027
20   0.149073
21   0.121656
22   0.121985
23   0.140476
24   0.146745
25   0.12588
26   0.144761
27   0.302835
28   0.300468

>  <lowdin_charges>
28
1   -0.373204
2   -0.162137
3   -0.156396
4   -0.152975
5   -0.278306
6   -0.166251
7   -0.170947
8   -0.275238
9   -0.216384
10   -0.001649
11   -0.312888
12   -0.316938
13   0.154191
14   0.145497
15   0.134207
16   0.157716
17   0.157896
18   0.155028
19   0.140857
20   0.152195
21   0.151235
22   0.155055
23   0.148732
24   0.154945
25   0.134649
26   0.137638
27   0.252253
28   0.25122

$$$$

