PCCDB-ID:  18784
public computational chemistry database (PCCDB) project, http://pccdb.org

 29 32  0  0  0  0  0  0  0  0999 V2000
    0.9500    0.0429   -0.0762 C   0  0  0  0  0  0  0  0  0  0  0  0
    6.7194    2.4254   -0.0772 C   0  0  0  0  0  0  0  0  0  0  0  0
    3.2114   -3.6839   -0.0771 C   0  0  0  0  0  0  0  0  0  0  0  0
    7.4251    1.2238   -0.0775 C   0  0  0  0  0  0  0  0  0  0  0  0
    4.6029   -3.6861   -0.0775 C   0  0  0  0  0  0  0  0  0  0  0  0
    5.3250    2.4285   -0.0770 C   0  0  0  0  0  0  0  0  0  0  0  0
    2.5022   -2.4826   -0.0776 C   0  0  0  0  0  0  0  0  0  0  0  0
    7.4378   -1.2661   -0.0783 C   0  0  0  0  0  0  0  0  0  0  0  0
    6.7551   -2.4436   -0.0783 C   0  0  0  0  0  0  0  0  0  0  0  0
    3.1699    1.1863   -0.0768 C   0  0  0  0  0  0  0  0  0  0  0  0
    2.4588    0.0208   -0.0772 C   0  0  0  0  0  0  0  0  0  0  0  0
    6.7473   -0.0062   -0.0774 C   0  0  0  0  0  0  0  0  0  0  0  0
    5.3177   -2.4778   -0.0775 C   0  0  0  0  0  0  0  0  0  0  0  0
    4.6050    1.2234   -0.0768 C   0  0  0  0  0  0  0  0  0  0  0  0
    3.1682   -1.2455   -0.0772 C   0  0  0  0  0  0  0  0  0  0  0  0
    5.3191   -0.0106   -0.0767 C   0  0  0  0  0  0  0  0  0  0  0  0
    4.5995   -1.2422   -0.0769 C   0  0  0  0  0  0  0  0  0  0  0  0
    0.5758    1.0709   -0.0759 H   0  0  0  0  0  0  0  0  0  0  0  0
    0.5374   -0.4631    0.8061 H   0  0  0  0  0  0  0  0  0  0  0  0
    0.5360   -0.4631   -0.9579 H   0  0  0  0  0  0  0  0  0  0  0  0
    7.2601    3.3681   -0.0772 H   0  0  0  0  0  0  0  0  0  0  0  0
    2.6697   -4.6260   -0.0756 H   0  0  0  0  0  0  0  0  0  0  0  0
    8.5125    1.2291   -0.0788 H   0  0  0  0  0  0  0  0  0  0  0  0
    5.1500   -4.6258   -0.0790 H   0  0  0  0  0  0  0  0  0  0  0  0
    4.7814    3.3703   -0.0773 H   0  0  0  0  0  0  0  0  0  0  0  0
    1.4175   -2.5092   -0.0790 H   0  0  0  0  0  0  0  0  0  0  0  0
    8.5253   -1.2600   -0.0793 H   0  0  0  0  0  0  0  0  0  0  0  0
    7.2911   -3.3898   -0.0788 H   0  0  0  0  0  0  0  0  0  0  0  0
    2.6391    2.1364   -0.0764 H   0  0  0  0  0  0  0  0  0  0  0  0
  1 18  1  0  0  0  0
  1 19  1  0  0  0  0
  2 21  1  0  0  0  0
  2  6  2  0  0  0  0
  3 22  1  0  0  0  0
  4 12  2  0  0  0  0
  4  2  1  0  0  0  0
  5  3  1  0  0  0  0
  6 14  1  0  0  0  0
  7 15  1  0  0  0  0
  7  3  2  0  0  0  0
  8 12  1  0  0  0  0
  9  8  2  0  0  0  0
  9 13  1  0  0  0  0
 10 29  1  0  0  0  0
 11 15  2  0  0  0  0
 11 10  1  0  0  0  0
 11  1  1  0  0  0  0
 12 16  1  0  0  0  0
 13  5  2  0  0  0  0
 13 17  1  0  0  0  0
 14 10  2  0  0  0  0
 14 16  1  0  0  0  0
 15 17  1  0  0  0  0
 17 16  2  0  0  0  0
 20  1  1  0  0  0  0
 23  4  1  0  0  0  0
 24  5  1  0  0  0  0
 25  6  1  0  0  0  0
 26  7  1  0  0  0  0
 27  8  1  0  0  0  0
 28  9  1  0  0  0  0
M  END
>  <HBA>
0

>  <HBD>
0

>  <TPSA>
0.0

>  <cid>
18784

>  <dipole>
0.36

>  <excitation_energy_1>
3.644

>  <excitation_energy_2>
3.724

>  <excitation_energy_3>
4.356

>  <excitation_energy_4>
4.493

>  <homo_energy>
-5.282

>  <homo_lumo_gap>
3.848

>  <logP>
4.892

>  <lumo_energy>
-1.434

>  <melting_point>
142.39

>  <molecular_refractivity>
75.11

>  <oscillator_strength_1>
0.2725

>  <oscillator_strength_2>
0.0005

>  <oscillator_strength_3>
0.0026

>  <oscillator_strength_4>
0.0785

>  <open_babel_can_smiles>
Cc1cc2cccc3c2c2c1cccc2cc3

>  <mulliken_charges>
29
1   -0.539934
2   -0.1234
3   -0.119148
4   -0.225809
5   -0.224192
6   -0.227576
7   -0.23511
8   -0.19666
9   -0.194054
10   -0.291124
11   0.156453
12   0.163779
13   0.157521
14   0.181728
15   0.102825
16   -0.015805
17   -0.002828
18   0.15794
19   0.162981
20   0.162916
21   0.129123
22   0.128627
23   0.127839
24   0.128218
25   0.127929
26   0.127702
27   0.129587
28   0.129236
29   0.121233

>  <lowdin_charges>
29
1   -0.442648
2   -0.156736
3   -0.156236
4   -0.160445
5   -0.162182
6   -0.162839
7   -0.164743
8   -0.153885
9   -0.157366
10   -0.170399
11   0.000994
12   0.00016
13   0.001008
14   0.001519
15   -0.006378
16   -0.004338
17   -0.000268
18   0.158055
19   0.160589
20   0.160549
21   0.158898
22   0.158611
23   0.155227
24   0.1576
25   0.157409
26   0.157932
27   0.15649
28   0.158599
29   0.154824

$$$$

