PCCDB-ID:  69321
public computational chemistry database (PCCDB) project, http://pccdb.org

 17 17  0  0  0  0  0  0  0  0999 V2000
   -1.5383    0.0174    0.0317 C   0  0  0  0  0  0  0  0  0  0  0  0
   -0.8351    1.2227   -0.0184 C   0  0  0  0  0  0  0  0  0  0  0  0
   -0.8444   -1.1943    0.0494 C   0  0  0  0  0  0  0  0  0  0  0  0
    0.5590    1.2168   -0.0541 C   0  0  0  0  0  0  0  0  0  0  0  0
    0.5496   -1.2013    0.0138 C   0  0  0  0  0  0  0  0  0  0  0  0
    2.7662   -0.0024   -0.0597 C   0  0  0  0  0  0  0  0  0  0  0  0
    1.2592    0.0045   -0.0441 C   0  0  0  0  0  0  0  0  0  0  0  0
    3.2988    0.0057    1.3665 N   0  0  0  0  0  0  0  0  0  0  0  0
    3.4794    1.1013    1.8868 O   0  0  0  0  0  0  0  0  0  0  0  0
    3.4745   -1.0842    1.9010 O   0  0  0  0  0  0  0  0  0  0  0  0
   -2.6245    0.0223    0.0559 H   0  0  0  0  0  0  0  0  0  0  0  0
   -1.3714    2.1674   -0.0307 H   0  0  0  0  0  0  0  0  0  0  0  0
   -1.3881   -2.1340    0.0903 H   0  0  0  0  0  0  0  0  0  0  0  0
    1.1081    2.1542   -0.0847 H   0  0  0  0  0  0  0  0  0  0  0  0
    1.0916   -2.1430    0.0363 H   0  0  0  0  0  0  0  0  0  0  0  0
    3.1802    0.8903   -0.5288 H   0  0  0  0  0  0  0  0  0  0  0  0
    3.1725   -0.9056   -0.5154 H   0  0  0  0  0  0  0  0  0  0  0  0
  1  3  1  0  0  0  0
  1 11  1  0  0  0  0
  2  1  2  0  0  0  0
  3 13  1  0  0  0  0
  4  7  2  0  0  0  0
  4  2  1  0  0  0  0
  5 15  1  0  0  0  0
  5  3  2  0  0  0  0
  6  7  1  0  0  0  0
  6  8  1  0  0  0  0
  7  5  1  0  0  0  0
  8  9  2  0  0  0  0
  8 10  2  0  0  0  0
 12  2  1  0  0  0  0
 14  4  1  0  0  0  0
 16  6  1  0  0  0  0
 17  6  1  0  0  0  0
M  END
>  <HBA>
0

>  <HBD>
0

>  <TPSA>
45.82

>  <cid>
69321

>  <dipole>
3.79

>  <excitation_energy_1>
4.049

>  <excitation_energy_2>
4.102

>  <excitation_energy_3>
4.443

>  <excitation_energy_4>
4.856

>  <homo_energy>
-7.102

>  <homo_lumo_gap>
5.298

>  <logP>
1.986

>  <lumo_energy>
-1.804

>  <melting_point>
37.91

>  <molecular_refractivity>
39.51

>  <oscillator_strength_1>
0.0161

>  <oscillator_strength_2>
0.0002

>  <oscillator_strength_3>
0.0026

>  <oscillator_strength_4>
0.0072

>  <open_babel_can_smiles>
O=N(=O)Cc1ccccc1

>  <mulliken_charges>
17
1   -0.122896
2   -0.128722
3   -0.12864
4   -0.162298
5   -0.162241
6   -0.257141
7   0.147785
8   0.462945
9   -0.37284
10   -0.373254
11   0.139404
12   0.140526
13   0.140617
14   0.145576
15   0.14657
16   0.192151
17   0.192458

>  <lowdin_charges>
17
1   -0.142852
2   -0.150865
3   -0.150798
4   -0.152232
5   -0.152156
6   -0.216607
7   -0.020319
8   0.296714
9   -0.242856
10   -0.243577
11   0.160479
12   0.163366
13   0.16345
14   0.165564
15   0.165948
16   0.178364
17   0.178379

$$$$

