PCCDB-ID:  41143
public computational chemistry database (PCCDB) project, http://pccdb.org

 27 26  0  0  1  0  0  0  0  0999 V2000
    2.8047    3.0885   -0.0608 C   0  0  0  0  0  0  0  0  0  0  0  0
    2.2404    0.2761   -2.7442 C   0  0  0  0  0  0  0  0  0  0  0  0
    7.4753    2.0014   -3.5163 C   0  0  0  0  0  0  0  0  0  0  0  0
    2.3598    2.3820   -1.3467 C   0  0  0  0  0  0  0  0  0  0  0  0
    4.3843    0.7689   -1.4393 C   0  0  0  0  0  0  0  0  0  0  0  0
    5.1738    1.4716   -2.5530 C   0  0  0  0  0  0  0  0  0  0  0  0
    2.8472    0.9243   -1.4892 C   0  0  2  0  0  0  0  0  0  0  0  0
    6.6951    1.3773   -2.3576 C   0  0  2  0  0  0  0  0  0  0  0  0
    7.1009    1.9466   -1.1070 O   0  0  0  0  0  0  0  0  0  0  0  0
    2.3578    4.0866    0.0132 H   0  0  0  0  0  0  0  0  0  0  0  0
    3.8929    3.2104   -0.0145 H   0  0  0  0  0  0  0  0  0  0  0  0
    2.5001    2.5218    0.8280 H   0  0  0  0  0  0  0  0  0  0  0  0
    1.1450    0.2722   -2.6939 H   0  0  0  0  0  0  0  0  0  0  0  0
    2.5732   -0.7629   -2.8575 H   0  0  0  0  0  0  0  0  0  0  0  0
    2.5232    0.8173   -3.6555 H   0  0  0  0  0  0  0  0  0  0  0  0
    7.2489    1.5025   -4.4659 H   0  0  0  0  0  0  0  0  0  0  0  0
    8.5520    1.9287   -3.3327 H   0  0  0  0  0  0  0  0  0  0  0  0
    7.2189    3.0639   -3.6305 H   0  0  0  0  0  0  0  0  0  0  0  0
    2.6853    2.9674   -2.2184 H   0  0  0  0  0  0  0  0  0  0  0  0
    1.2616    2.3782   -1.3877 H   0  0  0  0  0  0  0  0  0  0  0  0
    4.7610    1.1281   -0.4755 H   0  0  0  0  0  0  0  0  0  0  0  0
    4.6206   -0.3050   -1.4699 H   0  0  0  0  0  0  0  0  0  0  0  0
    4.9030    2.5378   -2.6033 H   0  0  0  0  0  0  0  0  0  0  0  0
    4.9195    1.0473   -3.5337 H   0  0  0  0  0  0  0  0  0  0  0  0
    2.4585    0.3732   -0.6183 H   0  0  0  0  0  0  0  0  0  0  0  0
    6.9757    0.3200   -2.2680 H   0  0  0  0  0  0  0  0  0  0  0  0
    6.9130    2.8986   -1.1539 H   0  0  0  0  0  0  0  0  0  0  0  0
  1 11  1  0  0  0  0
  1 10  1  0  0  0  0
  1 12  1  0  0  0  0
  2 13  1  0  0  0  0
  2  7  1  0  0  0  0
  3 17  1  0  0  0  0
  3  8  1  0  0  0  0
  4  1  1  0  0  0  0
  5 21  1  0  0  0  0
  6  8  1  0  0  0  0
  6  5  1  0  0  0  0
  7  5  1  0  0  0  0
  7  4  1  0  0  0  0
  7 25  1  1  0  0  0
  8 26  1  1  0  0  0
  8  9  1  0  0  0  0
 14  2  1  0  0  0  0
 15  2  1  0  0  0  0
 16  3  1  0  0  0  0
 18  3  1  0  0  0  0
 19  4  1  0  0  0  0
 20  4  1  0  0  0  0
 22  5  1  0  0  0  0
 23  6  1  0  0  0  0
 24  6  1  0  0  0  0
 27  9  1  0  0  0  0
M  END
>  <HBA>
1

>  <HBD>
1

>  <TPSA>
20.23

>  <cid>
41143

>  <dipole>
1.5

>  <excitation_energy_1>
6.524

>  <excitation_energy_2>
7.056

>  <excitation_energy_3>
7.237

>  <excitation_energy_4>
7.282

>  <homo_energy>
-7.097

>  <homo_lumo_gap>
8.855

>  <logP>
2.193

>  <lumo_energy>
1.758

>  <melting_point>
-9.27

>  <molecular_refractivity>
41.73

>  <oscillator_strength_1>
0.0215

>  <oscillator_strength_2>
0.0054

>  <oscillator_strength_3>
0.0007

>  <oscillator_strength_4>
0.0052

>  <open_babel_can_smiles>
CC[C@H](CC[C@H](O)C)C

>  <mulliken_charges>
27
1   -0.449248
2   -0.450236
3   -0.458018
4   -0.248222
5   -0.264479
6   -0.272893
7   -0.0657
8   0.136485
9   -0.618601
10   0.140277
11   0.143195
12   0.143461
13   0.139211
14   0.13805
15   0.140311
16   0.14332
17   0.157946
18   0.130349
19   0.127281
20   0.128416
21   0.153057
22   0.123412
23   0.11828
24   0.132032
25   0.117436
26   0.134694
27   0.380183

>  <lowdin_charges>
27
1   -0.445303
2   -0.444312
3   -0.45698
4   -0.27513
5   -0.280817
6   -0.293416
7   -0.124652
8   0.003956
9   -0.462952
10   0.148535
11   0.143865
12   0.148036
13   0.145545
14   0.145669
15   0.144959
16   0.152994
17   0.156192
18   0.14105
19   0.137022
20   0.138787
21   0.151274
22   0.137917
23   0.132715
24   0.144423
25   0.136781
26   0.139663
27   0.334178

$$$$

