PCCDB-ID:  25747
public computational chemistry database (PCCDB) project, http://pccdb.org

 11 11  0  0  0  0  0  0  0  0999 V2000
    0.3213    1.0358    0.3801 C   0  0  0  0  0  0  0  0  0  0  0  0
   -1.0293    0.5255   -0.1578 C   0  0  0  0  0  0  0  0  0  0  0  0
    1.1252   -0.1975   -0.0743 C   0  0  0  0  0  0  0  0  0  0  0  0
   -0.6765   -2.1138   -1.1647 O   0  0  0  0  0  0  0  0  0  0  0  0
   -0.4302   -1.2425    0.0391 S   0  0  0  0  0  0  0  0  0  0  0  0
    0.3074    1.1197    1.4713 H   0  0  0  0  0  0  0  0  0  0  0  0
    0.6580    1.9932   -0.0276 H   0  0  0  0  0  0  0  0  0  0  0  0
   -1.1531    0.7115   -1.2293 H   0  0  0  0  0  0  0  0  0  0  0  0
   -1.9464    0.7665    0.3839 H   0  0  0  0  0  0  0  0  0  0  0  0
    1.9610   -0.5454    0.5366 H   0  0  0  0  0  0  0  0  0  0  0  0
    1.4115   -0.1492   -1.1295 H   0  0  0  0  0  0  0  0  0  0  0  0
  1  6  1  0  0  0  0
  2  5  1  0  0  0  0
  2  1  1  0  0  0  0
  2  9  1  0  0  0  0
  3  5  1  0  0  0  0
  3  1  1  0  0  0  0
  3 10  1  0  0  0  0
  4  5  2  0  0  0  0
  7  1  1  0  0  0  0
  8  2  1  0  0  0  0
 11  3  1  0  0  0  0
M  END
>  <HBA>
1

>  <HBD>
0

>  <TPSA>
36.28

>  <cid>
25747

>  <dipole>
4.05

>  <excitation_energy_1>
5.027

>  <excitation_energy_2>
5.293

>  <excitation_energy_3>
5.812

>  <excitation_energy_4>
6.011

>  <homo_energy>
-6.06

>  <homo_lumo_gap>
6.574

>  <logP>
1.004

>  <lumo_energy>
0.514

>  <melting_point>
17.31

>  <molecular_refractivity>
22.7

>  <oscillator_strength_1>
0.02

>  <oscillator_strength_2>
0.0008

>  <oscillator_strength_3>
0.0044

>  <oscillator_strength_4>
0.0141

>  <open_babel_can_smiles>
O=S1CCC1

>  <mulliken_charges>
11
1   -0.300756
2   -0.458697
3   -0.45879
4   -0.592835
5   0.730342
6   0.166827
7   0.171632
8   0.192672
9   0.178446
10   0.178453
11   0.192708

>  <lowdin_charges>
11
1   -0.287457
2   -0.420717
3   -0.421062
4   -0.646819
5   0.778139
6   0.156495
7   0.161728
8   0.172027
9   0.167401
10   0.167952
11   0.172313

$$$$

