PCCDB-ID:  12105
public computational chemistry database (PCCDB) project, http://pccdb.org

 17 17  0  0  0  0  0  0  0  0999 V2000
    0.9031    0.0880    0.0181 C   0  0  0  0  0  0  0  0  0  0  0  0
    4.5578    1.2190   -0.1125 C   0  0  0  0  0  0  0  0  0  0  0  0
    3.1638    1.2393   -0.0409 C   0  0  0  0  0  0  0  0  0  0  0  0
    5.2279    0.0041   -0.2379 C   0  0  0  0  0  0  0  0  0  0  0  0
    3.0947   -1.1548   -0.2193 C   0  0  0  0  0  0  0  0  0  0  0  0
    5.2017   -2.4803   -0.4331 C   0  0  0  0  0  0  0  0  0  0  0  0
    2.4102    0.0547   -0.0892 C   0  0  0  0  0  0  0  0  0  0  0  0
    4.4944   -1.1875   -0.2925 C   0  0  0  0  0  0  0  0  0  0  0  0
    4.6589   -3.5672   -0.4964 O   0  0  0  0  0  0  0  0  0  0  0  0
    0.5000    1.0588   -0.2883 H   0  0  0  0  0  0  0  0  0  0  0  0
    0.5762   -0.0909    1.0509 H   0  0  0  0  0  0  0  0  0  0  0  0
    0.4410   -0.6846   -0.6054 H   0  0  0  0  0  0  0  0  0  0  0  0
    5.1154    2.1507   -0.0746 H   0  0  0  0  0  0  0  0  0  0  0  0
    2.6473    2.1920    0.0537 H   0  0  0  0  0  0  0  0  0  0  0  0
    6.3137   -0.0263   -0.2986 H   0  0  0  0  0  0  0  0  0  0  0  0
    2.5574   -2.0982   -0.2685 H   0  0  0  0  0  0  0  0  0  0  0  0
    6.3109   -2.3973   -0.4796 H   0  0  0  0  0  0  0  0  0  0  0  0
  1 11  1  0  0  0  0
  2 13  1  0  0  0  0
  2  3  2  0  0  0  0
  3 14  1  0  0  0  0
  4  2  1  0  0  0  0
  5  7  2  0  0  0  0
  6  8  1  0  0  0  0
  7  3  1  0  0  0  0
  7  1  1  0  0  0  0
  8  4  2  0  0  0  0
  8  5  1  0  0  0  0
  9  6  2  0  0  0  0
 10  1  1  0  0  0  0
 12  1  1  0  0  0  0
 15  4  1  0  0  0  0
 16  5  1  0  0  0  0
 17  6  1  0  0  0  0
M  END
>  <HBA>
1

>  <HBD>
0

>  <TPSA>
17.07

>  <cid>
12105

>  <dipole>
3.32

>  <excitation_energy_1>
3.693

>  <excitation_energy_2>
4.495

>  <excitation_energy_3>
5.076

>  <excitation_energy_4>
5.655

>  <homo_energy>
-6.882

>  <homo_lumo_gap>
5.244

>  <logP>
1.808

>  <lumo_energy>
-1.638

>  <melting_point>
41.92

>  <molecular_refractivity>
36.8

>  <oscillator_strength_1>
0.0001

>  <oscillator_strength_2>
0.0276

>  <oscillator_strength_3>
0.2369

>  <oscillator_strength_4>
0.0

>  <open_babel_can_smiles>
O=Cc1cccc(c1)C

>  <mulliken_charges>
17
1   -0.528718
2   -0.129862
3   -0.167305
4   -0.182449
5   -0.212656
6   0.1924
7   0.173992
8   0.100052
9   -0.40755
10   0.15784
11   0.171682
12   0.166638
13   0.138052
14   0.132124
15   0.138503
16   0.155865
17   0.101392

>  <lowdin_charges>
17
1   -0.442673
2   -0.154797
3   -0.147233
4   -0.145335
5   -0.136663
6   0.049735
7   0.005064
8   -0.053833
9   -0.229493
10   0.158677
11   0.164764
12   0.164742
13   0.162083
14   0.159179
15   0.159231
16   0.172641
17   0.113911

$$$$

