PCCDB-ID:  28459
public computational chemistry database (PCCDB) project, http://pccdb.org

 38 37  0  0  0  0  0  0  0  0999 V2000
    0.8821   -0.3968    0.0516 C   0  0  0  0  0  0  0  0  0  0  0  0
    8.7671    6.4930   -1.4562 C   0  0  0  0  0  0  0  0  0  0  0  0
    8.7777    6.5703    1.0599 C   0  0  0  0  0  0  0  0  0  0  0  0
   10.7182    5.5782   -0.1768 C   0  0  0  0  0  0  0  0  0  0  0  0
    2.4113   -0.3037    0.0472 C   0  0  0  0  0  0  0  0  0  0  0  0
    2.9303    1.1390   -0.0125 C   0  0  0  0  0  0  0  0  0  0  0  0
    4.4606    1.2425   -0.0164 C   0  0  0  0  0  0  0  0  0  0  0  0
    4.9772    2.6864   -0.0699 C   0  0  0  0  0  0  0  0  0  0  0  0
    6.5075    2.7927   -0.0754 C   0  0  0  0  0  0  0  0  0  0  0  0
    7.0192    4.2400   -0.1224 C   0  0  0  0  0  0  0  0  0  0  0  0
    8.5523    4.3268   -0.1300 C   0  0  0  0  0  0  0  0  0  0  0  0
    9.1852    5.7438   -0.1757 C   0  0  0  0  0  0  0  0  0  0  0  0
    0.5438   -1.4384    0.0971 H   0  0  0  0  0  0  0  0  0  0  0  0
    0.4546    0.0528   -0.8532 H   0  0  0  0  0  0  0  0  0  0  0  0
    0.4557    0.1298    0.9144 H   0  0  0  0  0  0  0  0  0  0  0  0
    9.2801    7.4603   -1.5242 H   0  0  0  0  0  0  0  0  0  0  0  0
    7.6898    6.6913   -1.4815 H   0  0  0  0  0  0  0  0  0  0  0  0
    9.0237    5.9163   -2.3539 H   0  0  0  0  0  0  0  0  0  0  0  0
    9.2854    7.5428    1.0598 H   0  0  0  0  0  0  0  0  0  0  0  0
    9.0488    6.0537    1.9894 H   0  0  0  0  0  0  0  0  0  0  0  0
    7.6996    6.7639    1.0857 H   0  0  0  0  0  0  0  0  0  0  0  0
   11.2208    6.5530   -0.2058 H   0  0  0  0  0  0  0  0  0  0  0  0
   11.0548    5.0029   -1.0483 H   0  0  0  0  0  0  0  0  0  0  0  0
   11.0610    5.0525    0.7231 H   0  0  0  0  0  0  0  0  0  0  0  0
    2.8102   -0.8677   -0.8080 H   0  0  0  0  0  0  0  0  0  0  0  0
    2.8103   -0.7944    0.9465 H   0  0  0  0  0  0  0  0  0  0  0  0
    2.5303    1.7029    0.8436 H   0  0  0  0  0  0  0  0  0  0  0  0
    2.5301    1.6309   -0.9118 H   0  0  0  0  0  0  0  0  0  0  0  0
    4.8602    0.6813   -0.8743 H   0  0  0  0  0  0  0  0  0  0  0  0
    4.8599    0.7472    0.8813 H   0  0  0  0  0  0  0  0  0  0  0  0
    4.5782    3.2461    0.7893 H   0  0  0  0  0  0  0  0  0  0  0  0
    4.5760    3.1825   -0.9662 H   0  0  0  0  0  0  0  0  0  0  0  0
    6.9070    2.2368   -0.9367 H   0  0  0  0  0  0  0  0  0  0  0  0
    6.9092    2.2936    0.8191 H   0  0  0  0  0  0  0  0  0  0  0  0
    6.6148    4.7862    0.7408 H   0  0  0  0  0  0  0  0  0  0  0  0
    6.6096    4.7315   -1.0153 H   0  0  0  0  0  0  0  0  0  0  0  0
    8.9297    3.7562   -0.9921 H   0  0  0  0  0  0  0  0  0  0  0  0
    8.9360    3.8098    0.7626 H   0  0  0  0  0  0  0  0  0  0  0  0
  1 13  1  0  0  0  0
  1 15  1  0  0  0  0
  2 12  1  0  0  0  0
  3 21  1  0  0  0  0
  3 20  1  0  0  0  0
  4 12  1  0  0  0  0
  4 24  1  0  0  0  0
  5  1  1  0  0  0  0
  5 26  1  0  0  0  0
  6  5  1  0  0  0  0
  6 27  1  0  0  0  0
  7  6  1  0  0  0  0
  7 30  1  0  0  0  0
  8  7  1  0  0  0  0
  8 31  1  0  0  0  0
  9  8  1  0  0  0  0
  9 34  1  0  0  0  0
 10  9  1  0  0  0  0
 10 35  1  0  0  0  0
 11 10  1  0  0  0  0
 11 38  1  0  0  0  0
 12 11  1  0  0  0  0
 12  3  1  0  0  0  0
 14  1  1  0  0  0  0
 16  2  1  0  0  0  0
 17  2  1  0  0  0  0
 18  2  1  0  0  0  0
 19  3  1  0  0  0  0
 22  4  1  0  0  0  0
 23  4  1  0  0  0  0
 25  5  1  0  0  0  0
 28  6  1  0  0  0  0
 29  7  1  0  0  0  0
 32  8  1  0  0  0  0
 33  9  1  0  0  0  0
 36 10  1  0  0  0  0
 37 11  1  0  0  0  0
M  END
>  <HBA>
0

>  <HBD>
0

>  <TPSA>
0.0

>  <cid>
28459

>  <dipole>
0.03

>  <excitation_energy_1>
7.446

>  <excitation_energy_2>
7.732

>  <excitation_energy_3>
7.837

>  <excitation_energy_4>
7.87

>  <homo_energy>
-7.802

>  <homo_lumo_gap>
9.932

>  <logP>
4.783

>  <lumo_energy>
2.131

>  <melting_point>
-11.86

>  <molecular_refractivity>
59.54

>  <oscillator_strength_1>
0.0249

>  <oscillator_strength_2>
0.0105

>  <oscillator_strength_3>
0.0476

>  <oscillator_strength_4>
0.0323

>  <open_babel_can_smiles>
CCCCCCCCC(C)(C)C

>  <mulliken_charges>
38
1   -0.441162
2   -0.444986
3   -0.444917
4   -0.440376
5   -0.246309
6   -0.245084
7   -0.25199
8   -0.252683
9   -0.253106
10   -0.264
11   -0.24748
12   0.102474
13   0.140825
14   0.140772
15   0.140746
16   0.136371
17   0.141939
18   0.135707
19   0.136339
20   0.135713
21   0.141914
22   0.135596
23   0.136267
24   0.136274
25   0.129449
26   0.129431
27   0.125671
28   0.125714
29   0.126149
30   0.126116
31   0.126001
32   0.126041
33   0.126268
34   0.126255
35   0.130764
36   0.13079
37   0.121271
38   0.121241

>  <lowdin_charges>
38
1   -0.444825
2   -0.442705
3   -0.442359
4   -0.442788
5   -0.273354
6   -0.275847
7   -0.27564
8   -0.275533
9   -0.274463
10   -0.280283
11   -0.275704
12   0.014938
13   0.147669
14   0.146405
15   0.146673
16   0.146315
17   0.145404
18   0.145978
19   0.146224
20   0.145746
21   0.145377
22   0.145151
23   0.146205
24   0.146041
25   0.139231
26   0.138944
27   0.137653
28   0.137414
29   0.137955
30   0.137692
31   0.13777
32   0.13757
33   0.137715
34   0.137507
35   0.140122
36   0.139977
37   0.138007
38   0.137817

$$$$

