PCCDB-ID:  25923
public computational chemistry database (PCCDB) project, http://pccdb.org

 24 24  0  0  1  0  0  0  0  0999 V2000
    2.9441    0.1202    1.2528 C   0  0  0  0  0  0  0  0  0  0  0  0
    1.4073    1.0493   -0.5346 C   0  0  0  0  0  0  0  0  0  0  0  0
    1.9110   -1.6806   -2.1345 C   0  0  0  0  0  0  0  0  0  0  0  0
    3.2326   -2.4856   -0.6030 C   0  0  0  0  0  0  0  0  0  0  0  0
    2.0115   -0.2215    0.0814 C   0  0  0  0  0  0  0  0  0  0  0  0
    2.7396   -1.0562   -0.9741 C   0  0  2  0  0  0  0  0  0  0  0  0
    2.7605   -2.9898   -1.9866 C   0  0  2  0  0  0  0  0  0  0  0  0
    3.8733   -3.0859   -3.0173 C   0  0  0  0  0  0  0  0  0  0  0  0
    5.0426   -2.8773   -2.8095 O   0  0  0  0  0  0  0  0  0  0  0  0
    3.4573   -3.4170   -4.2744 O   0  0  0  0  0  0  0  0  0  0  0  0
    2.4136    0.6851    2.0284 H   0  0  0  0  0  0  0  0  0  0  0  0
    3.7887    0.7334    0.9132 H   0  0  0  0  0  0  0  0  0  0  0  0
    3.3548   -0.7832    1.7182 H   0  0  0  0  0  0  0  0  0  0  0  0
    0.8510    1.6254    0.2140 H   0  0  0  0  0  0  0  0  0  0  0  0
    0.7180    0.8138   -1.3542 H   0  0  0  0  0  0  0  0  0  0  0  0
    2.1943    1.7001   -0.9374 H   0  0  0  0  0  0  0  0  0  0  0  0
    1.9272   -1.1751   -3.1062 H   0  0  0  0  0  0  0  0  0  0  0  0
    0.8678   -1.8519   -1.8455 H   0  0  0  0  0  0  0  0  0  0  0  0
    2.6409   -2.9261    0.2071 H   0  0  0  0  0  0  0  0  0  0  0  0
    4.2964   -2.6149   -0.3934 H   0  0  0  0  0  0  0  0  0  0  0  0
    1.1844   -0.8359    0.4731 H   0  0  0  0  0  0  0  0  0  0  0  0
    3.5755   -0.4764   -1.3870 H   0  0  0  0  0  0  0  0  0  0  0  0
    2.1872   -3.9261   -1.9990 H   0  0  0  0  0  0  0  0  0  0  0  0
    2.4924   -3.5329   -4.2788 H   0  0  0  0  0  0  0  0  0  0  0  0
  1 13  1  0  0  0  0
  1 11  1  0  0  0  0
  2  5  1  0  0  0  0
  2 14  1  0  0  0  0
  3  7  1  0  0  0  0
  3 18  1  0  0  0  0
  3  6  1  0  0  0  0
  4 20  1  0  0  0  0
  4 19  1  0  0  0  0
  5 21  1  0  0  0  0
  5  1  1  0  0  0  0
  6 22  1  6  0  0  0
  6  4  1  0  0  0  0
  6  5  1  0  0  0  0
  7 23  1  1  0  0  0
  7  4  1  0  0  0  0
  8  9  2  0  0  0  0
  8  7  1  0  0  0  0
 10  8  1  0  0  0  0
 12  1  1  0  0  0  0
 15  2  1  0  0  0  0
 16  2  1  0  0  0  0
 17  3  1  0  0  0  0
 24 10  1  0  0  0  0
M  END
>  <HBA>
2

>  <HBD>
1

>  <TPSA>
37.3

>  <cid>
25923

>  <dipole>
4.2

>  <excitation_energy_1>
5.614

>  <excitation_energy_2>
6.383

>  <excitation_energy_3>
6.997

>  <excitation_energy_4>
7.125

>  <homo_energy>
-7.266

>  <homo_lumo_gap>
7.513

>  <logP>
1.753

>  <lumo_energy>
0.248

>  <melting_point>
71.85

>  <molecular_refractivity>
40.23

>  <oscillator_strength_1>
0.0017

>  <oscillator_strength_2>
0.0089

>  <oscillator_strength_3>
0.0049

>  <oscillator_strength_4>
0.0106

>  <open_babel_can_smiles>
CC([C@@H]1C[C@H](C1)C(=O)O)C

>  <mulliken_charges>
24
1   -0.446862
2   -0.446738
3   -0.30042
4   -0.277149
5   -0.078443
6   -0.064341
7   -0.252776
8   0.60125
9   -0.439392
10   -0.57039
11   0.14194
12   0.143751
13   0.148098
14   0.143273
15   0.142174
16   0.142789
17   0.150116
18   0.144087
19   0.134059
20   0.174094
21   0.112436
22   0.14083
23   0.148286
24   0.409329

>  <lowdin_charges>
24
1   -0.44689
2   -0.447895
3   -0.287322
4   -0.282235
5   -0.123186
6   -0.126895
7   -0.177449
8   0.191827
9   -0.238178
10   -0.358309
11   0.150605
12   0.149044
13   0.151616
14   0.151348
15   0.148537
16   0.148798
17   0.146607
18   0.148581
19   0.14874
20   0.162501
21   0.132146
22   0.150308
23   0.15198
24   0.355722

$$$$

