PCCDB-ID:  18694
public computational chemistry database (PCCDB) project, http://pccdb.org

 27 26  0  0  0  0  0  0  0  0999 V2000
    1.3599    0.5291    0.4106 C   0  0  0  0  0  0  0  0  0  0  0  0
    2.8812   -4.0446   -0.8448 C   0  0  0  0  0  0  0  0  0  0  0  0
    1.1058   -0.6250   -5.4481 C   0  0  0  0  0  0  0  0  0  0  0  0
    0.9590   -0.9202    0.1277 C   0  0  0  0  0  0  0  0  0  0  0  0
    1.6967   -3.1428   -0.4910 C   0  0  0  0  0  0  0  0  0  0  0  0
    1.4645   -1.2024   -2.9472 C   0  0  0  0  0  0  0  0  0  0  0  0
    2.4847   -1.2004   -1.7907 C   0  0  0  0  0  0  0  0  0  0  0  0
    2.0522   -0.6973   -4.2597 C   0  0  0  0  0  0  0  0  0  0  0  0
    2.0171   -1.7139   -0.5013 N   0  0  0  0  0  0  0  0  0  0  0  0
    3.2198   -0.3669   -4.3569 O   0  0  0  0  0  0  0  0  0  0  0  0
    0.5926    1.0129    1.0254 H   0  0  0  0  0  0  0  0  0  0  0  0
    1.4675    1.1238   -0.5027 H   0  0  0  0  0  0  0  0  0  0  0  0
    2.3108    0.5631    0.9530 H   0  0  0  0  0  0  0  0  0  0  0  0
    2.6191   -5.0918   -0.6570 H   0  0  0  0  0  0  0  0  0  0  0  0
    3.7514   -3.7894   -0.2306 H   0  0  0  0  0  0  0  0  0  0  0  0
    3.1728   -3.9661   -1.8974 H   0  0  0  0  0  0  0  0  0  0  0  0
    1.6434   -0.2656   -6.3280 H   0  0  0  0  0  0  0  0  0  0  0  0
    0.2672    0.0483   -5.2307 H   0  0  0  0  0  0  0  0  0  0  0  0
    0.6743   -1.6116   -5.6584 H   0  0  0  0  0  0  0  0  0  0  0  0
    0.0138   -0.9319   -0.4525 H   0  0  0  0  0  0  0  0  0  0  0  0
    0.7279   -1.4064    1.0836 H   0  0  0  0  0  0  0  0  0  0  0  0
    1.3731   -3.3843    0.5290 H   0  0  0  0  0  0  0  0  0  0  0  0
    0.8372   -3.3929   -1.1459 H   0  0  0  0  0  0  0  0  0  0  0  0
    0.5860   -0.5847   -2.7096 H   0  0  0  0  0  0  0  0  0  0  0  0
    1.0617   -2.2104   -3.1246 H   0  0  0  0  0  0  0  0  0  0  0  0
    2.8497   -0.1802   -1.6460 H   0  0  0  0  0  0  0  0  0  0  0  0
    3.3621   -1.7755   -2.0964 H   0  0  0  0  0  0  0  0  0  0  0  0
  1 13  1  0  0  0  0
  1 11  1  0  0  0  0
  2 14  1  0  0  0  0
  2  5  1  0  0  0  0
  2 15  1  0  0  0  0
  3 18  1  0  0  0  0
  3  8  1  0  0  0  0
  4  1  1  0  0  0  0
  4 21  1  0  0  0  0
  5 22  1  0  0  0  0
  6 24  1  0  0  0  0
  6  7  1  0  0  0  0
  7 26  1  0  0  0  0
  7  9  1  0  0  0  0
  8  6  1  0  0  0  0
  9  5  1  0  0  0  0
  9  4  1  0  0  0  0
 10  8  2  0  0  0  0
 12  1  1  0  0  0  0
 16  2  1  0  0  0  0
 17  3  1  0  0  0  0
 19  3  1  0  0  0  0
 20  4  1  0  0  0  0
 23  5  1  0  0  0  0
 25  6  1  0  0  0  0
 27  7  1  0  0  0  0
M  END
>  <HBA>
2

>  <HBD>
0

>  <TPSA>
20.31

>  <cid>
18694

>  <dipole>
3.0

>  <excitation_energy_1>
4.178

>  <excitation_energy_2>
4.588

>  <excitation_energy_3>
4.937

>  <excitation_energy_4>
5.395

>  <homo_energy>
-5.505

>  <homo_lumo_gap>
5.184

>  <logP>
1.307

>  <lumo_energy>
-0.321

>  <melting_point>
-3.86

>  <molecular_refractivity>
43.67

>  <oscillator_strength_1>
0.0001

>  <oscillator_strength_2>
0.0004

>  <oscillator_strength_3>
0.0089

>  <oscillator_strength_4>
0.0031

>  <open_babel_can_smiles>
CCN(CCC(=O)C)CC

>  <mulliken_charges>
27
1   -0.456825
2   -0.456488
3   -0.526904
4   -0.105448
5   -0.105637
6   -0.377347
7   -0.140435
8   0.455914
9   -0.382649
10   -0.437454
11   0.142824
12   0.146784
13   0.159358
14   0.142495
15   0.15914
16   0.148016
17   0.179481
18   0.167233
19   0.166461
20   0.105107
21   0.13629
22   0.136144
23   0.10477
24   0.158658
25   0.160624
26   0.158287
27   0.161602

>  <lowdin_charges>
27
1   -0.453211
2   -0.449675
3   -0.47557
4   -0.196908
5   -0.196372
6   -0.330691
7   -0.206668
8   0.16544
9   -0.188976
10   -0.236235
11   0.154442
12   0.148075
13   0.156521
14   0.151883
15   0.157104
16   0.147174
17   0.173047
18   0.16944
19   0.168015
20   0.111125
21   0.143546
22   0.142901
23   0.111618
24   0.160666
25   0.161
26   0.154539
27   0.157771

$$$$

