PCCDB-ID:  8845
public computational chemistry database (PCCDB) project, http://pccdb.org

 19 18  0  0  1  0  0  0  0  0999 V2000
    1.4375   -1.7362   -0.1505 C   0  0  0  0  0  0  0  0  0  0  0  0
    0.2774   -1.1086    0.6273 C   0  0  0  0  0  0  0  0  0  0  0  0
    2.6137   -0.7760   -0.3722 C   0  0  0  0  0  0  0  0  0  0  0  0
   -0.4972   -0.0473   -0.1218 C   0  0  0  0  0  0  0  0  0  0  0  0
    4.9051   -0.4752   -1.3446 C   0  0  0  0  0  0  0  0  0  0  0  0
    3.7940   -1.4706   -1.0762 C   0  0  1  0  0  0  0  0  0  0  0  0
   -0.2790    0.3004   -1.2627 O   0  0  0  0  0  0  0  0  0  0  0  0
    6.0306   -0.6458   -0.9206 O   0  0  0  0  0  0  0  0  0  0  0  0
    4.2844   -2.5524   -0.3213 O   0  0  0  0  0  0  0  0  0  0  0  0
    1.0669   -2.0836   -1.1232 H   0  0  0  0  0  0  0  0  0  0  0  0
    1.7996   -2.6162    0.3907 H   0  0  0  0  0  0  0  0  0  0  0  0
    0.6180   -0.6641    1.5760 H   0  0  0  0  0  0  0  0  0  0  0  0
   -0.4551   -1.8753    0.9264 H   0  0  0  0  0  0  0  0  0  0  0  0
    2.9697   -0.3925    0.5941 H   0  0  0  0  0  0  0  0  0  0  0  0
    2.2838    0.0795   -0.9732 H   0  0  0  0  0  0  0  0  0  0  0  0
   -1.3308    0.4137    0.4561 H   0  0  0  0  0  0  0  0  0  0  0  0
    4.6395    0.4212   -1.9402 H   0  0  0  0  0  0  0  0  0  0  0  0
    3.4434   -1.8254   -2.0641 H   0  0  0  0  0  0  0  0  0  0  0  0
    5.2322   -2.3618   -0.1766 H   0  0  0  0  0  0  0  0  0  0  0  0
  1 11  1  0  0  0  0
  1  2  1  0  0  0  0
  2 13  1  0  0  0  0
  2 12  1  0  0  0  0
  3  1  1  0  0  0  0
  3 14  1  0  0  0  0
  4 16  1  0  0  0  0
  4  2  1  0  0  0  0
  5  6  1  0  0  0  0
  5  8  2  0  0  0  0
  6 18  1  6  0  0  0
  6  3  1  0  0  0  0
  6  9  1  0  0  0  0
  7  4  2  0  0  0  0
  9 19  1  0  0  0  0
 10  1  1  0  0  0  0
 15  3  1  0  0  0  0
 17  5  1  0  0  0  0
M  END
>  <HBA>
3

>  <HBD>
1

>  <TPSA>
54.37

>  <cid>
8845

>  <dipole>
2.13

>  <excitation_energy_1>
4.318

>  <excitation_energy_2>
4.478

>  <excitation_energy_3>
5.283

>  <excitation_energy_4>
5.455

>  <homo_energy>
-7.067

>  <homo_lumo_gap>
5.97

>  <logP>
-0.085

>  <lumo_energy>
-1.097

>  <melting_point>
55.5

>  <molecular_refractivity>
32.52

>  <oscillator_strength_1>
0.0001

>  <oscillator_strength_2>
0.0005

>  <oscillator_strength_3>
0.0137

>  <oscillator_strength_4>
0.0174

>  <open_babel_can_smiles>
O=CCCC[C@@H](C=O)O

>  <mulliken_charges>
19
1   -0.255196
2   -0.356188
3   -0.279918
4   0.255425
5   0.228931
6   0.083802
7   -0.385279
8   -0.399359
9   -0.640044
10   0.151614
11   0.168643
12   0.163983
13   0.169187
14   0.140162
15   0.159538
16   0.108804
17   0.130488
18   0.147037
19   0.408368

>  <lowdin_charges>
19
1   -0.273079
2   -0.314696
3   -0.286793
4   0.055634
5   0.045436
6   -0.033192
7   -0.223108
8   -0.21958
9   -0.457731
10   0.152931
11   0.162934
12   0.165087
13   0.171423
14   0.145998
15   0.158029
16   0.119328
17   0.135603
18   0.149336
19   0.34644

$$$$

