PCCDB-ID:  8749
public computational chemistry database (PCCDB) project, http://pccdb.org

 21 21  0  0  0  0  0  0  0  0999 V2000
    1.5032   -0.3957   -0.9105 C   0  0  0  0  0  0  0  0  0  0  0  0
    3.3654    1.2453   -0.5133 C   0  0  0  0  0  0  0  0  0  0  0  0
    5.0699   -1.4282    2.2755 C   0  0  0  0  0  0  0  0  0  0  0  0
    3.2543   -2.9922    1.9240 C   0  0  0  0  0  0  0  0  0  0  0  0
    4.5090   -0.5645    1.3579 C   0  0  0  0  0  0  0  0  0  0  0  0
    2.6791   -2.1365    1.0007 C   0  0  0  0  0  0  0  0  0  0  0  0
    4.4508   -2.6555    2.5722 C   0  0  0  0  0  0  0  0  0  0  0  0
    3.2935   -0.8945    0.6895 C   0  0  0  0  0  0  0  0  0  0  0  0
    4.9536   -3.6040    3.4994 N   0  0  0  0  0  0  0  0  0  0  0  0
    2.7355   -0.0351   -0.2250 N   0  0  0  0  0  0  0  0  0  0  0  0
    6.0065   -3.2894    4.0567 O   0  0  0  0  0  0  0  0  0  0  0  0
    1.2373    0.3974   -1.6104 H   0  0  0  0  0  0  0  0  0  0  0  0
    0.6687   -0.5237   -0.2076 H   0  0  0  0  0  0  0  0  0  0  0  0
    1.6161   -1.3275   -1.4802 H   0  0  0  0  0  0  0  0  0  0  0  0
    2.7548    1.7894   -1.2349 H   0  0  0  0  0  0  0  0  0  0  0  0
    4.3682    1.1192   -0.9434 H   0  0  0  0  0  0  0  0  0  0  0  0
    3.4552    1.8645    0.3889 H   0  0  0  0  0  0  0  0  0  0  0  0
    5.9959   -1.1839    2.7862 H   0  0  0  0  0  0  0  0  0  0  0  0
    2.7893   -3.9439    2.1658 H   0  0  0  0  0  0  0  0  0  0  0  0
    5.0087    0.3726    1.1437 H   0  0  0  0  0  0  0  0  0  0  0  0
    1.7527   -2.4243    0.5194 H   0  0  0  0  0  0  0  0  0  0  0  0
  1 10  1  0  0  0  0
  1 13  1  0  0  0  0
  2 10  1  0  0  0  0
  2 17  1  0  0  0  0
  3  7  1  0  0  0  0
  3 18  1  0  0  0  0
  4 19  1  0  0  0  0
  4  7  2  0  0  0  0
  5  3  2  0  0  0  0
  6  4  1  0  0  0  0
  7  9  1  0  0  0  0
  8  6  2  0  0  0  0
  8  5  1  0  0  0  0
  9 11  2  0  0  0  0
 10  8  1  0  0  0  0
 12  1  1  0  0  0  0
 14  1  1  0  0  0  0
 15  2  1  0  0  0  0
 16  2  1  0  0  0  0
 20  5  1  0  0  0  0
 21  6  1  0  0  0  0
M  END
>  <HBA>
3

>  <HBD>
0

>  <TPSA>
32.67

>  <cid>
8749

>  <dipole>
7.51

>  <excitation_energy_1>
1.62

>  <excitation_energy_2>
3.618

>  <excitation_energy_3>
4.133

>  <excitation_energy_4>
4.259

>  <homo_energy>
-5.249

>  <homo_lumo_gap>
3.284

>  <logP>
2.151

>  <lumo_energy>
-1.965

>  <melting_point>
40.75

>  <molecular_refractivity>
46.1

>  <oscillator_strength_1>
0.0003

>  <oscillator_strength_2>
0.4346

>  <oscillator_strength_3>
0.0

>  <oscillator_strength_4>
0.0028

>  <open_babel_can_smiles>
O=Nc1ccc(cc1)N(C)C

>  <mulliken_charges>
21
1   -0.317454
2   -0.317885
3   -0.133746
4   -0.134052
5   -0.201085
6   -0.204766
7   0.22127
8   0.386218
9   -0.085482
10   -0.471347
11   -0.3246
12   0.163164
13   0.16909
14   0.170054
15   0.163305
16   0.169568
17   0.170413
18   0.158616
19   0.148694
20   0.135956
21   0.134069

>  <lowdin_charges>
21
1   -0.351133
2   -0.350996
3   -0.122735
4   -0.119292
5   -0.20344
6   -0.214929
7   -0.051265
8   0.078151
9   0.026932
10   -0.092908
11   -0.22006
12   0.163143
13   0.155017
14   0.155465
15   0.163784
16   0.153903
17   0.156018
18   0.17556
19   0.171008
20   0.163834
21   0.163942

$$$$

