PCCDB-ID:  16441
public computational chemistry database (PCCDB) project, http://pccdb.org

 25 25  0  0  1  0  0  0  0  0999 V2000
    3.0767   -0.2336    1.7976 C   0  0  0  0  0  0  0  0  0  0  0  0
    0.9368   -0.0260    0.5615 C   0  0  0  0  0  0  0  0  0  0  0  0
    5.3640   -1.7423   -0.2152 C   0  0  0  0  0  0  0  0  0  0  0  0
    3.3358   -3.2064   -0.1616 C   0  0  0  0  0  0  0  0  0  0  0  0
    4.6042   -0.5516   -0.7277 C   0  0  0  0  0  0  0  0  0  0  0  0
    2.7028   -2.1676   -1.0959 C   0  0  0  0  0  0  0  0  0  0  0  0
    5.6681   -4.0325    0.5278 C   0  0  0  0  0  0  0  0  0  0  0  0
    2.4176   -0.3228    0.6371 C   0  0  0  0  0  0  0  0  0  0  0  0
    4.8069   -2.9413    0.0384 C   0  0  0  0  0  0  0  0  0  0  0  0
    3.0684   -0.7157   -0.6854 C   0  0  1  0  0  0  0  0  0  0  0  0
    5.2796   -5.1596    0.7776 O   0  0  0  0  0  0  0  0  0  0  0  0
    2.5647    0.0445    2.7154 H   0  0  0  0  0  0  0  0  0  0  0  0
    4.1391   -0.4381    1.8867 H   0  0  0  0  0  0  0  0  0  0  0  0
    0.5256    0.2179    1.5455 H   0  0  0  0  0  0  0  0  0  0  0  0
    0.3687   -0.8762    0.1624 H   0  0  0  0  0  0  0  0  0  0  0  0
    0.7409    0.8221   -0.1093 H   0  0  0  0  0  0  0  0  0  0  0  0
    6.4374   -1.6161   -0.0641 H   0  0  0  0  0  0  0  0  0  0  0  0
    3.2018   -4.2211   -0.5526 H   0  0  0  0  0  0  0  0  0  0  0  0
    2.8340   -3.1940    0.8160 H   0  0  0  0  0  0  0  0  0  0  0  0
    4.9189   -0.3746   -1.7684 H   0  0  0  0  0  0  0  0  0  0  0  0
    4.9078    0.3499   -0.1797 H   0  0  0  0  0  0  0  0  0  0  0  0
    1.6153   -2.2975   -1.1225 H   0  0  0  0  0  0  0  0  0  0  0  0
    3.0627   -2.3342   -2.1201 H   0  0  0  0  0  0  0  0  0  0  0  0
    6.7395   -3.7571    0.6599 H   0  0  0  0  0  0  0  0  0  0  0  0
    2.6466   -0.0476   -1.4503 H   0  0  0  0  0  0  0  0  0  0  0  0
  1 13  1  0  0  0  0
  1 12  1  0  0  0  0
  2  8  1  0  0  0  0
  2 14  1  0  0  0  0
  3 17  1  0  0  0  0
  3  9  2  0  0  0  0
  4  9  1  0  0  0  0
  4 19  1  0  0  0  0
  5 10  1  0  0  0  0
  5  3  1  0  0  0  0
  5 21  1  0  0  0  0
  6 10  1  0  0  0  0
  6  4  1  0  0  0  0
  7 24  1  0  0  0  0
  7 11  2  0  0  0  0
  8  1  2  0  0  0  0
  9  7  1  0  0  0  0
 10 25  1  6  0  0  0
 10  8  1  0  0  0  0
 15  2  1  0  0  0  0
 16  2  1  0  0  0  0
 18  4  1  0  0  0  0
 20  5  1  0  0  0  0
 22  6  1  0  0  0  0
 23  6  1  0  0  0  0
M  END
>  <HBA>
1

>  <HBD>
0

>  <TPSA>
17.07

>  <cid>
16441

>  <dipole>
3.7

>  <excitation_energy_1>
3.78

>  <excitation_energy_2>
4.637

>  <excitation_energy_3>
5.548

>  <excitation_energy_4>
5.967

>  <homo_energy>
-6.675

>  <homo_lumo_gap>
5.35

>  <logP>
2.488

>  <lumo_energy>
-1.325

>  <melting_point>
21.11

>  <molecular_refractivity>
47.32

>  <oscillator_strength_1>
0.0003

>  <oscillator_strength_2>
0.0209

>  <oscillator_strength_3>
0.3017

>  <oscillator_strength_4>
0.0238

>  <open_babel_can_smiles>
O=CC1=CC[C@@H](CC1)C(=C)C

>  <mulliken_charges>
25
1   -0.401004
2   -0.515287
3   -0.166624
4   -0.327338
5   -0.322095
6   -0.281275
7   0.192905
8   0.224215
9   0.132936
10   -0.152434
11   -0.41553
12   0.134106
13   0.1372
14   0.155859
15   0.157816
16   0.153588
17   0.137535
18   0.16581
19   0.166147
20   0.159244
21   0.160749
22   0.139857
23   0.140279
24   0.094502
25   0.128841

>  <lowdin_charges>
25
1   -0.363661
2   -0.443101
3   -0.13321
4   -0.274985
5   -0.279018
6   -0.26904
7   0.03922
8   0.005492
9   -0.056332
10   -0.128988
11   -0.235529
12   0.156532
13   0.156208
14   0.158063
15   0.156911
16   0.155894
17   0.155692
18   0.164644
19   0.162368
20   0.160901
21   0.161969
22   0.145474
23   0.144601
24   0.111878
25   0.148019

$$$$

