PCCDB-ID:  7219
public computational chemistry database (PCCDB) project, http://pccdb.org

 17 18  0  0  0  0  0  0  0  0999 V2000
    2.1485    0.7307    0.0022 C   0  0  0  0  0  0  0  0  0  0  0  0
    2.1756   -0.6676    0.0006 C   0  0  0  0  0  0  0  0  0  0  0  0
   -2.4634    0.0372   -0.0034 C   0  0  0  0  0  0  0  0  0  0  0  0
    0.9333    1.4219    0.0022 C   0  0  0  0  0  0  0  0  0  0  0  0
    0.9836   -1.4044   -0.0013 C   0  0  0  0  0  0  0  0  0  0  0  0
   -1.6579    1.1170   -0.0004 C   0  0  0  0  0  0  0  0  0  0  0  0
   -1.6495   -1.2368   -0.0035 C   0  0  0  0  0  0  0  0  0  0  0  0
   -0.2549    0.6892    0.0007 C   0  0  0  0  0  0  0  0  0  0  0  0
   -0.2262   -0.7230   -0.0012 C   0  0  0  0  0  0  0  0  0  0  0  0
    3.0829    1.2860    0.0028 H   0  0  0  0  0  0  0  0  0  0  0  0
    3.1298   -1.1878    0.0005 H   0  0  0  0  0  0  0  0  0  0  0  0
   -3.5479    0.0496   -0.0044 H   0  0  0  0  0  0  0  0  0  0  0  0
    0.9176    2.5091    0.0027 H   0  0  0  0  0  0  0  0  0  0  0  0
    1.0129   -2.4918   -0.0032 H   0  0  0  0  0  0  0  0  0  0  0  0
   -1.9794    2.1538    0.0015 H   0  0  0  0  0  0  0  0  0  0  0  0
   -1.8660   -1.8617   -0.8826 H   0  0  0  0  0  0  0  0  0  0  0  0
   -1.8682   -1.8620    0.8749 H   0  0  0  0  0  0  0  0  0  0  0  0
  1 10  1  0  0  0  0
  2  1  2  0  0  0  0
  3  6  2  0  0  0  0
  4  1  1  0  0  0  0
  4 13  1  0  0  0  0
  5  9  2  0  0  0  0
  5  2  1  0  0  0  0
  6  8  1  0  0  0  0
  6 15  1  0  0  0  0
  7  3  1  0  0  0  0
  7  9  1  0  0  0  0
  7 17  1  0  0  0  0
  8  4  2  0  0  0  0
  9  8  1  0  0  0  0
 11  2  1  0  0  0  0
 12  3  1  0  0  0  0
 14  5  1  0  0  0  0
 16  7  1  0  0  0  0
M  END
>  <HBA>
0

>  <HBD>
0

>  <TPSA>
0.0

>  <cid>
7219

>  <dipole>
0.66

>  <excitation_energy_1>
4.734

>  <excitation_energy_2>
4.907

>  <excitation_energy_3>
5.534

>  <excitation_energy_4>
5.642

>  <homo_energy>
-5.763

>  <homo_lumo_gap>
5.282

>  <logP>
2.256

>  <lumo_energy>
-0.482

>  <melting_point>
54.26

>  <molecular_refractivity>
39.38

>  <oscillator_strength_1>
0.0241

>  <oscillator_strength_2>
0.1826

>  <oscillator_strength_3>
0.0075

>  <oscillator_strength_4>
0.1807

>  <open_babel_can_smiles>
c1ccc2c(c1)C=CC2

>  <mulliken_charges>
17
1   -0.132609
2   -0.136818
3   -0.14272
4   -0.200698
5   -0.188858
6   -0.138806
7   -0.383389
8   0.123009
9   0.101759
10   0.125047
11   0.124423
12   0.132412
13   0.125151
14   0.122575
15   0.129848
16   0.169806
17   0.169869

>  <lowdin_charges>
17
1   -0.159128
2   -0.164045
3   -0.162768
4   -0.166401
5   -0.161294
6   -0.16415
7   -0.275177
8   -0.011021
9   -0.007863
10   0.156112
11   0.155811
12   0.156747
13   0.153886
14   0.152798
15   0.157462
16   0.169485
17   0.169547

$$$$

