PCCDB-ID:  23845
public computational chemistry database (PCCDB) project, http://pccdb.org

 32 32  0  0  1  0  0  0  0  0999 V2000
    1.1654    1.4508    5.1027 C   0  0  0  0  0  0  0  0  0  0  0  0
    2.6785    1.4263    4.8649 C   0  0  0  0  0  0  0  0  0  0  0  0
    7.3181    1.3211   -0.4841 C   0  0  0  0  0  0  0  0  0  0  0  0
    7.7046    1.6247   -1.7926 C   0  0  0  0  0  0  0  0  0  0  0  0
    3.0476    1.5460    3.3852 C   0  0  0  0  0  0  0  0  0  0  0  0
    6.9471    3.6614   -0.0680 C   0  0  0  0  0  0  0  0  0  0  0  0
    4.9423    1.6737    1.8066 C   0  0  0  0  0  0  0  0  0  0  0  0
    6.9295    2.3374    0.3888 C   0  0  0  0  0  0  0  0  0  0  0  0
    7.7210    2.9419   -2.2467 C   0  0  0  0  0  0  0  0  0  0  0  0
    7.3408    3.9737   -1.3660 C   0  0  0  0  0  0  0  0  0  0  0  0
    6.4473    2.0175    1.7881 C   0  0  1  0  0  0  0  0  0  0  0  0
    4.5009    1.5593    3.1994 N   0  0  0  0  0  0  0  0  0  0  0  0
    8.0964    3.3024   -3.5121 O   0  0  0  0  0  0  0  0  0  0  0  0
    7.3825    5.2529   -1.8482 O   0  0  0  0  0  0  0  0  0  0  0  0
    6.6685    3.1183    2.6536 O   0  0  0  0  0  0  0  0  0  0  0  0
    0.9322    1.3609    6.1691 H   0  0  0  0  0  0  0  0  0  0  0  0
    0.6650    0.6256    4.5817 H   0  0  0  0  0  0  0  0  0  0  0  0
    0.7224    2.3877    4.7436 H   0  0  0  0  0  0  0  0  0  0  0  0
    3.0960    0.4911    5.2663 H   0  0  0  0  0  0  0  0  0  0  0  0
    3.1629    2.2437    5.4133 H   0  0  0  0  0  0  0  0  0  0  0  0
    7.3280    0.2865   -0.1498 H   0  0  0  0  0  0  0  0  0  0  0  0
    8.0100    0.8282   -2.4695 H   0  0  0  0  0  0  0  0  0  0  0  0
    2.6533    2.4883    2.9823 H   0  0  0  0  0  0  0  0  0  0  0  0
    2.5588    0.7340    2.8143 H   0  0  0  0  0  0  0  0  0  0  0  0
    6.6689    4.4556    0.6205 H   0  0  0  0  0  0  0  0  0  0  0  0
    4.7458    0.7737    1.1995 H   0  0  0  0  0  0  0  0  0  0  0  0
    4.3932    2.5044    1.3475 H   0  0  0  0  0  0  0  0  0  0  0  0
    7.0010    1.1313    2.1523 H   0  0  0  0  0  0  0  0  0  0  0  0
    4.8938    0.7087    3.6045 H   0  0  0  0  0  0  0  0  0  0  0  0
    8.3428    2.4993   -3.9963 H   0  0  0  0  0  0  0  0  0  0  0  0
    7.1325    5.8534   -1.1287 H   0  0  0  0  0  0  0  0  0  0  0  0
    5.9996    2.9954    3.3583 H   0  0  0  0  0  0  0  0  0  0  0  0
  1 16  1  0  0  0  0
  2  1  1  0  0  0  0
  2 19  1  0  0  0  0
  2 20  1  0  0  0  0
  3 21  1  0  0  0  0
  3  8  2  0  0  0  0
  4  3  1  0  0  0  0
  5  2  1  0  0  0  0
  6  8  1  0  0  0  0
  6 25  1  0  0  0  0
  7 12  1  0  0  0  0
  8 11  1  0  0  0  0
  9  4  2  0  0  0  0
  9 10  1  0  0  0  0
 10  6  2  0  0  0  0
 11  7  1  0  0  0  0
 11 28  1  1  0  0  0
 11 15  1  0  0  0  0
 12  5  1  0  0  0  0
 12 29  1  0  0  0  0
 13  9  1  0  0  0  0
 14 10  1  0  0  0  0
 14 31  1  0  0  0  0
 15 32  1  0  0  0  0
 17  1  1  0  0  0  0
 18  1  1  0  0  0  0
 22  4  1  0  0  0  0
 23  5  1  0  0  0  0
 24  5  1  0  0  0  0
 26  7  1  0  0  0  0
 27  7  1  0  0  0  0
 30 13  1  0  0  0  0
M  END
>  <HBA>
4

>  <HBD>
4

>  <TPSA>
72.72

>  <cid>
23845

>  <dipole>
3.87

>  <excitation_energy_1>
4.776

>  <excitation_energy_2>
4.831

>  <excitation_energy_3>
5.093

>  <excitation_energy_4>
5.109

>  <homo_energy>
-5.358

>  <homo_lumo_gap>
5.706

>  <logP>
1.522

>  <lumo_energy>
0.348

>  <melting_point>
132.24

>  <molecular_refractivity>
58.65

>  <oscillator_strength_1>
0.0033

>  <oscillator_strength_2>
0.0559

>  <oscillator_strength_3>
0.0004

>  <oscillator_strength_4>
0.0031

>  <open_babel_can_smiles>
CCCNC[C@@H](c1ccc(c(c1)O)O)O

>  <mulliken_charges>
32
1   -0.446366
2   -0.261521
3   -0.194949
4   -0.201117
5   -0.101351
6   -0.252479
7   -0.142481
8   0.136855
9   0.319659
10   0.326997
11   0.07934
12   -0.591423
13   -0.634141
14   -0.636612
15   -0.651248
16   0.149489
17   0.145086
18   0.146867
19   0.129246
20   0.148061
21   0.115152
22   0.114946
23   0.144021
24   0.117199
25   0.13888
26   0.126075
27   0.151485
28   0.108897
29   0.299193
30   0.405177
31   0.40759
32   0.403473

>  <lowdin_charges>
32
1   -0.443871
2   -0.278501
3   -0.180787
4   -0.20874
5   -0.200915
6   -0.20808
7   -0.224808
8   -0.020187
9   0.076298
10   0.078822
11   -0.001516
12   -0.364166
13   -0.373151
14   -0.373668
15   -0.471562
16   0.152534
17   0.149222
18   0.149437
19   0.138448
20   0.149529
21   0.151613
22   0.153293
23   0.144191
24   0.122081
25   0.166788
26   0.131246
27   0.151749
28   0.123975
29   0.254324
30   0.357172
31   0.359249
32   0.339982

$$$$

