PCCDB-ID:  32069
public computational chemistry database (PCCDB) project, http://pccdb.org

 20 20  0  0  1  0  0  0  0  0999 V2000
    0.8969   -0.0146    0.1174 C   0  0  0  0  0  0  0  0  0  0  0  0
    4.1915    0.0207    2.3781 C   0  0  0  0  0  0  0  0  0  0  0  0
    3.7505    1.2964    1.7051 C   0  0  0  0  0  0  0  0  0  0  0  0
    3.3620   -1.1858    1.9125 C   0  0  0  0  0  0  0  0  0  0  0  0
    2.9618    1.3261    0.6273 C   0  0  0  0  0  0  0  0  0  0  0  0
    3.1608   -1.1636    0.3925 C   0  0  0  0  0  0  0  0  0  0  0  0
    2.4182    0.0977   -0.0795 C   0  0  1  0  0  0  0  0  0  0  0  0
    2.6996    0.1891   -1.4908 O   0  0  0  0  0  0  0  0  0  0  0  0
    0.6346   -0.1824    1.1674 H   0  0  0  0  0  0  0  0  0  0  0  0
    0.5049   -0.8432   -0.4831 H   0  0  0  0  0  0  0  0  0  0  0  0
    0.3940    0.9085   -0.2005 H   0  0  0  0  0  0  0  0  0  0  0  0
    4.1277    0.1319    3.4693 H   0  0  0  0  0  0  0  0  0  0  0  0
    5.2583   -0.1496    2.1614 H   0  0  0  0  0  0  0  0  0  0  0  0
    4.1146    2.2323    2.1281 H   0  0  0  0  0  0  0  0  0  0  0  0
    2.3863   -1.1689    2.4166 H   0  0  0  0  0  0  0  0  0  0  0  0
    3.8500   -2.1206    2.2132 H   0  0  0  0  0  0  0  0  0  0  0  0
    2.6759    2.2847    0.1902 H   0  0  0  0  0  0  0  0  0  0  0  0
    2.6205   -2.0548    0.0516 H   0  0  0  0  0  0  0  0  0  0  0  0
    4.1364   -1.1678   -0.1092 H   0  0  0  0  0  0  0  0  0  0  0  0
    2.2124    0.9553   -1.8353 H   0  0  0  0  0  0  0  0  0  0  0  0
  1  9  1  0  0  0  0
  2 12  1  0  0  0  0
  3 14  1  0  0  0  0
  3  2  1  0  0  0  0
  4 16  1  0  0  0  0
  4  2  1  0  0  0  0
  4 15  1  0  0  0  0
  5  3  2  0  0  0  0
  6  4  1  0  0  0  0
  7  8  1  6  0  0  0
  7  1  1  0  0  0  0
  7  6  1  0  0  0  0
  7  5  1  0  0  0  0
 10  1  1  0  0  0  0
 11  1  1  0  0  0  0
 13  2  1  0  0  0  0
 17  5  1  0  0  0  0
 18  6  1  0  0  0  0
 19  6  1  0  0  0  0
 20  8  1  0  0  0  0
M  END
>  <HBA>
1

>  <HBD>
1

>  <TPSA>
20.23

>  <cid>
32069

>  <dipole>
1.41

>  <excitation_energy_1>
6.013

>  <excitation_energy_2>
6.405

>  <excitation_energy_3>
6.472

>  <excitation_energy_4>
6.661

>  <homo_energy>
-6.566

>  <homo_lumo_gap>
7.219

>  <logP>
1.478

>  <lumo_energy>
0.653

>  <melting_point>
34.78

>  <molecular_refractivity>
34.37

>  <oscillator_strength_1>
0.0139

>  <oscillator_strength_2>
0.0114

>  <oscillator_strength_3>
0.0082

>  <oscillator_strength_4>
0.0197

>  <open_babel_can_smiles>
C[C@]1(O)CCCC=C1

>  <mulliken_charges>
20
1   -0.462677
2   -0.295937
3   -0.112965
4   -0.277069
5   -0.114162
6   -0.2806
7   0.296962
8   -0.644671
9   0.14971
10   0.153637
11   0.128742
12   0.140487
13   0.14895
14   0.122469
15   0.137618
16   0.134933
17   0.106608
18   0.135096
19   0.152592
20   0.380275

>  <lowdin_charges>
20
1   -0.45737
2   -0.272252
3   -0.166781
4   -0.275811
5   -0.18846
6   -0.276993
7   0.123532
8   -0.462387
9   0.153173
10   0.155781
11   0.144102
12   0.147498
13   0.149402
14   0.152391
15   0.141034
16   0.147124
17   0.145975
18   0.14837
19   0.154673
20   0.336999

$$$$

