PCCDB-ID:  44450
public computational chemistry database (PCCDB) project, http://pccdb.org

 34 34  0  0  1  0  0  0  0  0999 V2000
    0.5053   -1.5447    1.1093 C   0  0  0  0  0  0  0  0  0  0  0  0
    1.5808   -2.3380    0.7124 C   0  0  0  0  0  0  0  0  0  0  0  0
    0.5737   -0.1601    0.9272 C   0  0  0  0  0  0  0  0  0  0  0  0
    2.7204   -1.7688    0.1373 C   0  0  0  0  0  0  0  0  0  0  0  0
    1.6972    0.4208    0.3464 C   0  0  0  0  0  0  0  0  0  0  0  0
    7.0076   -3.2458    1.0364 C   0  0  0  0  0  0  0  0  0  0  0  0
    6.7374   -1.7670   -0.9992 C   0  0  0  0  0  0  0  0  0  0  0  0
    4.8071   -0.4468   -1.3038 C   0  0  0  0  0  0  0  0  0  0  0  0
    7.7059   -2.2574    0.0770 C   0  0  2  0  0  0  0  0  0  0  0  0
    2.7704   -0.3840   -0.0538 C   0  0  0  0  0  0  0  0  0  0  0  0
    8.8441   -3.9799    2.5535 C   0  0  0  0  0  0  0  0  0  0  0  0
    9.5690   -4.3638    1.5565 N   0  0  0  0  0  0  0  0  0  0  0  0
    9.1904   -4.0570    3.9049 N   0  0  0  0  0  0  0  0  0  0  0  0
    7.6087   -3.4037    2.3600 N   0  0  0  0  0  0  0  0  0  0  0  0
    8.7862   -2.8331   -0.6210 O   0  0  0  0  0  0  0  0  0  0  0  0
    5.6820   -1.0422   -0.3771 O   0  0  0  0  0  0  0  0  0  0  0  0
    3.8285    0.2855   -0.6255 O   0  0  0  0  0  0  0  0  0  0  0  0
   -0.3737   -1.9967    1.5597 H   0  0  0  0  0  0  0  0  0  0  0  0
    1.5455   -3.4147    0.8577 H   0  0  0  0  0  0  0  0  0  0  0  0
   -0.2560    0.4719    1.2329 H   0  0  0  0  0  0  0  0  0  0  0  0
    3.5647   -2.3921   -0.1310 H   0  0  0  0  0  0  0  0  0  0  0  0
    1.7641    1.4926    0.1875 H   0  0  0  0  0  0  0  0  0  0  0  0
    6.9747   -4.2286    0.5529 H   0  0  0  0  0  0  0  0  0  0  0  0
    5.9804   -2.9115    1.2083 H   0  0  0  0  0  0  0  0  0  0  0  0
    6.3433   -2.6260   -1.5668 H   0  0  0  0  0  0  0  0  0  0  0  0
    7.2925   -1.1282   -1.7019 H   0  0  0  0  0  0  0  0  0  0  0  0
    4.3441   -1.2129   -1.9498 H   0  0  0  0  0  0  0  0  0  0  0  0
    5.3438    0.2816   -1.9272 H   0  0  0  0  0  0  0  0  0  0  0  0
    8.0193   -1.3769    0.6677 H   0  0  0  0  0  0  0  0  0  0  0  0
   10.3839   -4.8971    1.8558 H   0  0  0  0  0  0  0  0  0  0  0  0
   10.0393   -4.5741    4.0941 H   0  0  0  0  0  0  0  0  0  0  0  0
    8.4332   -4.3212    4.5250 H   0  0  0  0  0  0  0  0  0  0  0  0
    7.3608   -2.6974    3.0406 H   0  0  0  0  0  0  0  0  0  0  0  0
    9.2473   -3.4303    0.0189 H   0  0  0  0  0  0  0  0  0  0  0  0
  1 18  1  0  0  0  0
  2 19  1  0  0  0  0
  2  1  2  0  0  0  0
  3  1  1  0  0  0  0
  3 20  1  0  0  0  0
  4  2  1  0  0  0  0
  5  3  2  0  0  0  0
  6 24  1  0  0  0  0
  6 14  1  0  0  0  0
  7 16  1  0  0  0  0
  7  9  1  0  0  0  0
  8 17  1  0  0  0  0
  8 16  1  0  0  0  0
  9 29  1  1  0  0  0
  9  6  1  0  0  0  0
 10  4  2  0  0  0  0
 10  5  1  0  0  0  0
 11 13  2  0  0  0  0
 12 30  1  0  0  0  0
 12 11  1  0  0  0  0
 13 31  1  0  0  0  0
 13 32  1  0  0  0  0
 14 11  1  0  0  0  0
 14 33  1  0  0  0  0
 15 34  1  0  0  0  0
 15  9  1  0  0  0  0
 17 10  1  0  0  0  0
 21  4  1  0  0  0  0
 22  5  1  0  0  0  0
 23  6  1  0  0  0  0
 25  7  1  0  0  0  0
 26  7  1  0  0  0  0
 27  8  1  0  0  0  0
 28  8  1  0  0  0  0
M  RAD  1  12   2
M  END
>  <HBA>
6

>  <HBD>
3

>  <TPSA>
103.09

>  <cid>
44450

>  <dipole>
4.38

>  <excitation_energy_1>
5.116

>  <excitation_energy_2>
5.328

>  <excitation_energy_3>
5.433

>  <excitation_energy_4>
5.682

>  <homo_energy>
-5.995

>  <homo_lumo_gap>
6.071

>  <logP>
1.074

>  <lumo_energy>
0.076

>  <melting_point>
141.79

>  <molecular_refractivity>
63.51

>  <oscillator_strength_1>
0.025

>  <oscillator_strength_2>
0.0012

>  <oscillator_strength_3>
0.0004

>  <oscillator_strength_4>
0.0274

>  <open_babel_can_smiles>
O[C@H](CNC(=[NH2])[NH])COCOc1ccccc1

>  <mulliken_charges>
34
1   -0.131264
2   -0.141748
3   -0.134239
4   -0.181936
5   -0.17189
6   -0.173045
7   -0.041798
8   0.195028
9   0.155634
10   0.358767
11   0.645743
12   -0.697822
13   -0.757518
14   -0.602548
15   -0.68019
16   -0.482197
17   -0.514588
18   0.12484
19   0.128423
20   0.129827
21   0.149529
22   0.138327
23   0.166825
24   0.16542
25   0.129089
26   0.144748
27   0.12362
28   0.143836
29   0.109757
30   0.277793
31   0.326056
32   0.330108
33   0.329799
34   0.437612

>  <lowdin_charges>
34
1   -0.177556
2   -0.146626
3   -0.149269
4   -0.206993
5   -0.179843
6   -0.21834
7   -0.141943
8   -0.016229
9   -0.013452
10   0.105667
11   0.143454
12   -0.486759
13   -0.503238
14   -0.297811
15   -0.49386
16   -0.275857
17   -0.184336
18   0.157018
19   0.155062
20   0.159166
21   0.168457
22   0.164755
23   0.159719
24   0.161128
25   0.132703
26   0.145369
27   0.124069
28   0.142541
29   0.123279
30   0.255267
31   0.280732
32   0.284239
33   0.28344
34   0.34605

$$$$

