PCCDB-ID:  33629
public computational chemistry database (PCCDB) project, http://pccdb.org

 16 15  0  0  0  0  0  0  0  0999 V2000
    0.8555   -0.0397    0.0297 C   0  0  0  0  0  0  0  0  0  0  0  0
    7.1030   -1.4253   -0.4069 C   0  0  0  0  0  0  0  0  0  0  0  0
    2.3861   -0.0411    0.0026 C   0  0  0  0  0  0  0  0  0  0  0  0
    5.6420   -1.4393   -0.3757 C   0  0  0  0  0  0  0  0  0  0  0  0
    2.9683   -1.4353   -0.3162 C   0  0  0  0  0  0  0  0  0  0  0  0
    4.4324   -1.4542   -0.3522 C   0  0  0  0  0  0  0  0  0  0  0  0
    0.4650    0.9579    0.2595 H   0  0  0  0  0  0  0  0  0  0  0  0
    0.4698   -0.7309    0.7893 H   0  0  0  0  0  0  0  0  0  0  0  0
    0.4397   -0.3456   -0.9382 H   0  0  0  0  0  0  0  0  0  0  0  0
    7.5264   -2.1344    0.3153 H   0  0  0  0  0  0  0  0  0  0  0  0
    7.4974   -0.4312   -0.1622 H   0  0  0  0  0  0  0  0  0  0  0  0
    7.4855   -1.6964   -1.3988 H   0  0  0  0  0  0  0  0  0  0  0  0
    2.7819    0.2936    0.9692 H   0  0  0  0  0  0  0  0  0  0  0  0
    2.7509    0.6733   -0.7457 H   0  0  0  0  0  0  0  0  0  0  0  0
    2.5687   -1.7782   -1.2818 H   0  0  0  0  0  0  0  0  0  0  0  0
    2.6055   -2.1559    0.4312 H   0  0  0  0  0  0  0  0  0  0  0  0
  1  7  1  0  0  0  0
  1  8  1  0  0  0  0
  2  4  1  0  0  0  0
  2 11  1  0  0  0  0
  2 10  1  0  0  0  0
  3  1  1  0  0  0  0
  3 13  1  0  0  0  0
  4  6  3  0  0  0  0
  5  3  1  0  0  0  0
  5 16  1  0  0  0  0
  6  5  1  0  0  0  0
  9  1  1  0  0  0  0
 12  2  1  0  0  0  0
 14  3  1  0  0  0  0
 15  5  1  0  0  0  0
M  END
>  <HBA>
0

>  <HBD>
0

>  <TPSA>
0.0

>  <cid>
33629

>  <dipole>
0.15

>  <excitation_energy_1>
6.199

>  <excitation_energy_2>
6.23

>  <excitation_energy_3>
6.447

>  <excitation_energy_4>
6.563

>  <homo_energy>
-6.512

>  <homo_lumo_gap>
8.27

>  <logP>
1.81

>  <lumo_energy>
1.758

>  <melting_point>
-9.21

>  <molecular_refractivity>
29.12

>  <oscillator_strength_1>
0.0055

>  <oscillator_strength_2>
0.0159

>  <oscillator_strength_3>
0.0001

>  <oscillator_strength_4>
0.0064

>  <open_babel_can_smiles>
CCCC#CC

>  <mulliken_charges>
16
1   -0.441443
2   -0.573762
3   -0.247683
4   -0.017618
5   -0.393705
6   0.105227
7   0.146952
8   0.142904
9   0.143016
10   0.175622
11   0.175738
12   0.175697
13   0.145074
14   0.145093
15   0.159439
16   0.159449

>  <lowdin_charges>
16
1   -0.446718
2   -0.42441
3   -0.266697
4   -0.090588
5   -0.259519
6   -0.08845
7   0.152209
8   0.148296
9   0.147247
10   0.171689
11   0.170437
12   0.170257
13   0.147173
14   0.148355
15   0.159817
16   0.160901

$$$$

