PCCDB-ID:  23410
public computational chemistry database (PCCDB) project, http://pccdb.org

 25 24  0  0  1  0  0  0  0  0999 V2000
    4.0677    0.1946   -0.1225 C   0  0  0  0  0  0  0  0  0  0  0  0
    3.3142    5.5181   -1.1506 C   0  0  0  0  0  0  0  0  0  0  0  0
    3.6360    2.3859    1.1980 C   0  0  0  0  0  0  0  0  0  0  0  0
    3.2719    3.2402   -0.0245 C   0  0  0  0  0  0  0  0  0  0  0  0
    1.8383    0.6486    0.9816 C   0  0  0  0  0  0  0  0  0  0  0  0
    2.7599    5.3343    1.2603 C   0  0  0  0  0  0  0  0  0  0  0  0
    3.3381    0.8726    1.0396 C   0  0  1  0  0  0  0  0  0  0  0  0
    3.6128    4.7414    0.1471 C   0  0  2  0  0  0  0  0  0  0  0  0
    1.2501    0.0553    0.1045 O   0  0  0  0  0  0  0  0  0  0  0  0
    3.2494    5.8557    2.2417 O   0  0  0  0  0  0  0  0  0  0  0  0
    4.9786    4.8904    0.4865 O   0  0  0  0  0  0  0  0  0  0  0  0
    5.1459    0.3773   -0.0607 H   0  0  0  0  0  0  0  0  0  0  0  0
    3.7083    0.5590   -1.0890 H   0  0  0  0  0  0  0  0  0  0  0  0
    3.8980   -0.8861   -0.1055 H   0  0  0  0  0  0  0  0  0  0  0  0
    2.2630    5.4296   -1.4484 H   0  0  0  0  0  0  0  0  0  0  0  0
    3.9377    5.1163   -1.9552 H   0  0  0  0  0  0  0  0  0  0  0  0
    3.5597    6.5776   -1.0259 H   0  0  0  0  0  0  0  0  0  0  0  0
    3.1001    2.7546    2.0853 H   0  0  0  0  0  0  0  0  0  0  0  0
    4.7019    2.5171    1.4088 H   0  0  0  0  0  0  0  0  0  0  0  0
    2.2044    3.1398   -0.2674 H   0  0  0  0  0  0  0  0  0  0  0  0
    3.8243    2.8901   -0.9038 H   0  0  0  0  0  0  0  0  0  0  0  0
    1.2750    1.0926    1.8373 H   0  0  0  0  0  0  0  0  0  0  0  0
    1.6601    5.2774    1.1251 H   0  0  0  0  0  0  0  0  0  0  0  0
    3.6585    0.4056    1.9865 H   0  0  0  0  0  0  0  0  0  0  0  0
    4.9890    5.3724    1.3371 H   0  0  0  0  0  0  0  0  0  0  0  0
  1 14  1  0  0  0  0
  1 12  1  0  0  0  0
  1  7  1  0  0  0  0
  2 17  1  0  0  0  0
  2  8  1  0  0  0  0
  3 19  1  0  0  0  0
  3 18  1  0  0  0  0
  4  8  1  0  0  0  0
  4  3  1  0  0  0  0
  5  7  1  0  0  0  0
  5 22  1  0  0  0  0
  6 10  2  0  0  0  0
  7  3  1  0  0  0  0
  7 24  1  1  0  0  0
  8 11  1  1  0  0  0
  8  6  1  0  0  0  0
  9  5  2  0  0  0  0
 11 25  1  0  0  0  0
 13  1  1  0  0  0  0
 15  2  1  0  0  0  0
 16  2  1  0  0  0  0
 20  4  1  0  0  0  0
 21  4  1  0  0  0  0
 23  6  1  0  0  0  0
M  END
>  <HBA>
3

>  <HBD>
1

>  <TPSA>
54.37

>  <cid>
23410

>  <dipole>
0.67

>  <excitation_energy_1>
4.237

>  <excitation_energy_2>
4.427

>  <excitation_energy_3>
5.025

>  <excitation_energy_4>
5.255

>  <homo_energy>
-6.917

>  <homo_lumo_gap>
5.674

>  <logP>
0.551

>  <lumo_energy>
-1.244

>  <melting_point>
65.2

>  <molecular_refractivity>
42.17

>  <oscillator_strength_1>
0.0001

>  <oscillator_strength_2>
0.0005

>  <oscillator_strength_3>
0.0005

>  <oscillator_strength_4>
0.0158

>  <open_babel_can_smiles>
O=C[C@H](CC[C@@](C=O)(O)C)C

>  <mulliken_charges>
25
1   -0.446831
2   -0.459583
3   -0.293251
4   -0.281013
5   0.252004
6   0.234335
7   -0.158893
8   0.254425
9   -0.386392
10   -0.403181
11   -0.656251
12   0.146908
13   0.162434
14   0.160195
15   0.145078
16   0.172281
17   0.161953
18   0.136907
19   0.17229
20   0.139869
21   0.162412
22   0.09838
23   0.125944
24   0.151923
25   0.408061

>  <lowdin_charges>
25
1   -0.440639
2   -0.444712
3   -0.278519
4   -0.28414
5   0.048952
6   0.048389
7   -0.159446
8   0.084886
9   -0.217734
10   -0.21737
11   -0.454463
12   0.151803
13   0.158351
14   0.15971
15   0.152131
16   0.168743
17   0.159824
18   0.143305
19   0.161556
20   0.145801
21   0.160998
22   0.113252
23   0.130979
24   0.160848
25   0.347496

$$$$

