PCCDB-ID:  66955
public computational chemistry database (PCCDB) project, http://pccdb.org

 38 37  0  0  0  0  0  0  0  0999 V2000
    2.2925    3.8369   -4.4005 C   0  0  0  0  0  0  0  0  0  0  0  0
    6.9152   -1.0924   -9.0271 C   0  0  0  0  0  0  0  0  0  0  0  0
    5.3374    0.8676   -9.2380 C   0  0  0  0  0  0  0  0  0  0  0  0
    2.1914    3.3453   -2.9515 C   0  0  0  0  0  0  0  0  0  0  0  0
    2.9265    2.0240   -2.6728 C   0  0  0  0  0  0  0  0  0  0  0  0
    4.4524    2.0963   -2.8261 C   0  0  0  0  0  0  0  0  0  0  0  0
    5.1474    0.7828   -2.4445 C   0  0  0  0  0  0  0  0  0  0  0  0
    6.6862    0.8275   -2.5708 C   0  0  0  0  0  0  0  0  0  0  0  0
    6.2175    0.2462   -6.9562 C   0  0  0  0  0  0  0  0  0  0  0  0
    7.4098   -0.1412   -6.0853 C   0  0  0  0  0  0  0  0  0  0  0  0
    6.5312    0.2863   -8.4657 C   0  0  0  0  0  0  0  0  0  0  0  0
    7.1395    1.0023   -4.0060 C   0  0  0  0  0  0  0  0  0  0  0  0
    7.5125    2.0445   -4.5028 O   0  0  0  0  0  0  0  0  0  0  0  0
    7.0470   -0.1678   -4.6845 O   0  0  0  0  0  0  0  0  0  0  0  0
    1.6988    4.7461   -4.5491 H   0  0  0  0  0  0  0  0  0  0  0  0
    1.9198    3.0787   -5.1010 H   0  0  0  0  0  0  0  0  0  0  0  0
    3.3253    4.0700   -4.6821 H   0  0  0  0  0  0  0  0  0  0  0  0
    7.1001   -1.0349  -10.1061 H   0  0  0  0  0  0  0  0  0  0  0  0
    6.1063   -1.8176   -8.8678 H   0  0  0  0  0  0  0  0  0  0  0  0
    7.8218   -1.4957   -8.5623 H   0  0  0  0  0  0  0  0  0  0  0  0
    5.5593    0.9453  -10.3088 H   0  0  0  0  0  0  0  0  0  0  0  0
    5.0755    1.8682   -8.8748 H   0  0  0  0  0  0  0  0  0  0  0  0
    4.4512    0.2290   -9.1278 H   0  0  0  0  0  0  0  0  0  0  0  0
    1.1318    3.2172   -2.6920 H   0  0  0  0  0  0  0  0  0  0  0  0
    2.5772    4.1217   -2.2753 H   0  0  0  0  0  0  0  0  0  0  0  0
    2.5312    1.2425   -3.3392 H   0  0  0  0  0  0  0  0  0  0  0  0
    2.6894    1.6977   -1.6498 H   0  0  0  0  0  0  0  0  0  0  0  0
    4.8433    2.9074   -2.1939 H   0  0  0  0  0  0  0  0  0  0  0  0
    4.7165    2.3659   -3.8564 H   0  0  0  0  0  0  0  0  0  0  0  0
    4.7641   -0.0387   -3.0637 H   0  0  0  0  0  0  0  0  0  0  0  0
    4.8994    0.5291   -1.4051 H   0  0  0  0  0  0  0  0  0  0  0  0
    7.1105   -0.1031   -2.1783 H   0  0  0  0  0  0  0  0  0  0  0  0
    7.0899    1.6663   -1.9958 H   0  0  0  0  0  0  0  0  0  0  0  0
    5.8738    1.2369   -6.6355 H   0  0  0  0  0  0  0  0  0  0  0  0
    5.3946   -0.4581   -6.7694 H   0  0  0  0  0  0  0  0  0  0  0  0
    8.2375    0.5604   -6.2221 H   0  0  0  0  0  0  0  0  0  0  0  0
    7.7556   -1.1562   -6.2924 H   0  0  0  0  0  0  0  0  0  0  0  0
    7.3862    0.9640   -8.6121 H   0  0  0  0  0  0  0  0  0  0  0  0
  1  4  1  0  0  0  0
  2 19  1  0  0  0  0
  2 20  1  0  0  0  0
  2 11  1  0  0  0  0
  3 23  1  0  0  0  0
  3 22  1  0  0  0  0
  3 11  1  0  0  0  0
  4 24  1  0  0  0  0
  4  5  1  0  0  0  0
  4 25  1  0  0  0  0
  5 27  1  0  0  0  0
  6  5  1  0  0  0  0
  6  7  1  0  0  0  0
  6 28  1  0  0  0  0
  7 31  1  0  0  0  0
  8  7  1  0  0  0  0
  8 32  1  0  0  0  0
  8 33  1  0  0  0  0
  9 35  1  0  0  0  0
  9 34  1  0  0  0  0
  9 10  1  0  0  0  0
 10 14  1  0  0  0  0
 11  9  1  0  0  0  0
 12  8  1  0  0  0  0
 13 12  2  0  0  0  0
 14 12  1  0  0  0  0
 15  1  1  0  0  0  0
 16  1  1  0  0  0  0
 17  1  1  0  0  0  0
 18  2  1  0  0  0  0
 21  3  1  0  0  0  0
 26  5  1  0  0  0  0
 29  6  1  0  0  0  0
 30  7  1  0  0  0  0
 36 10  1  0  0  0  0
 37 10  1  0  0  0  0
 38 11  1  0  0  0  0
M  END
>  <HBA>
2

>  <HBD>
0

>  <TPSA>
26.3

>  <cid>
66955

>  <dipole>
1.67

>  <excitation_energy_1>
5.678

>  <excitation_energy_2>
6.893

>  <excitation_energy_3>
7.116

>  <excitation_energy_4>
7.219

>  <homo_energy>
-7.132

>  <homo_lumo_gap>
7.546

>  <logP>
3.546

>  <lumo_energy>
0.414

>  <melting_point>
-18.11

>  <molecular_refractivity>
61.08

>  <oscillator_strength_1>
0.0025

>  <oscillator_strength_2>
0.007

>  <oscillator_strength_3>
0.0032

>  <oscillator_strength_4>
0.0024

>  <open_babel_can_smiles>
CCCCCCC(=O)OCCC(C)C

>  <mulliken_charges>
38
1   -0.445103
2   -0.448587
3   -0.442403
4   -0.248808
5   -0.24997
6   -0.259307
7   -0.271093
8   -0.333484
9   -0.272519
10   -0.050479
11   -0.075794
12   0.607982
13   -0.481007
14   -0.463638
15   0.142092
16   0.139056
17   0.15178
18   0.144765
19   0.141318
20   0.143166
21   0.141825
22   0.145662
23   0.139655
24   0.130165
25   0.130849
26   0.126308
27   0.126194
28   0.132087
29   0.151084
30   0.14878
31   0.138908
32   0.15931
33   0.163173
34   0.155525
35   0.135607
36   0.1664
37   0.150765
38   0.129736

>  <lowdin_charges>
38
1   -0.448255
2   -0.447269
3   -0.440847
4   -0.272013
5   -0.275467
6   -0.280439
7   -0.267709
8   -0.298767
9   -0.288923
10   -0.132906
11   -0.119828
12   0.197676
13   -0.272625
14   -0.19888
15   0.150085
16   0.146115
17   0.148971
18   0.149253
19   0.147377
20   0.14771
21   0.147346
22   0.149829
23   0.146327
24   0.139935
25   0.140242
26   0.138118
27   0.138192
28   0.141795
29   0.146474
30   0.148616
31   0.14428
32   0.165024
33   0.164538
34   0.15459
35   0.144165
36   0.157528
37   0.15038
38   0.139359

$$$$

