PCCDB-ID:  72882
public computational chemistry database (PCCDB) project, http://pccdb.org

 34 33  0  0  0  0  0  0  0  0999 V2000
    0.1741    0.1401    0.4245 C   0  0  0  0  0  0  0  0  0  0  0  0
   -0.7086    0.7071   -0.6966 C   0  0  0  0  0  0  0  0  0  0  0  0
    1.5310    0.8444    0.5919 C   0  0  0  0  0  0  0  0  0  0  0  0
   -2.0109   -0.0806   -0.8919 C   0  0  0  0  0  0  0  0  0  0  0  0
    1.4369    2.3075    1.0451 C   0  0  0  0  0  0  0  0  0  0  0  0
   -2.9016    0.4885   -2.0031 C   0  0  0  0  0  0  0  0  0  0  0  0
    2.8238    2.9414    1.2674 C   0  0  0  0  0  0  0  0  0  0  0  0
   -4.2045   -0.3135   -2.1959 C   0  0  0  0  0  0  0  0  0  0  0  0
    2.7503    4.3872    1.6996 C   0  0  0  0  0  0  0  0  0  0  0  0
   -5.1125    0.2548   -3.2743 C   0  0  0  0  0  0  0  0  0  0  0  0
    3.1319    4.9298    2.7860 N   0  0  0  0  0  0  0  0  0  0  0  0
   -6.2753    0.7458   -3.1405 N   0  0  0  0  0  0  0  0  0  0  0  0
    2.1725    5.1604    0.7430 O   0  0  0  0  0  0  0  0  0  0  0  0
   -4.5876    0.2439   -4.5362 O   0  0  0  0  0  0  0  0  0  0  0  0
    0.3566   -0.9256    0.2264 H   0  0  0  0  0  0  0  0  0  0  0  0
   -0.3759    0.1815    1.3762 H   0  0  0  0  0  0  0  0  0  0  0  0
   -0.1395    0.7091   -1.6385 H   0  0  0  0  0  0  0  0  0  0  0  0
   -0.9548    1.7567   -0.4873 H   0  0  0  0  0  0  0  0  0  0  0  0
    2.0858    0.7936   -0.3568 H   0  0  0  0  0  0  0  0  0  0  0  0
    2.1295    0.2831    1.3235 H   0  0  0  0  0  0  0  0  0  0  0  0
   -2.5749   -0.0927    0.0521 H   0  0  0  0  0  0  0  0  0  0  0  0
   -1.7723   -1.1308   -1.1169 H   0  0  0  0  0  0  0  0  0  0  0  0
    0.8602    2.3664    1.9789 H   0  0  0  0  0  0  0  0  0  0  0  0
    0.8955    2.9062    0.3050 H   0  0  0  0  0  0  0  0  0  0  0  0
   -2.3313    0.5144   -2.9432 H   0  0  0  0  0  0  0  0  0  0  0  0
   -3.1567    1.5324   -1.7779 H   0  0  0  0  0  0  0  0  0  0  0  0
    3.3966    2.8925    0.3317 H   0  0  0  0  0  0  0  0  0  0  0  0
    3.3833    2.3760    2.0214 H   0  0  0  0  0  0  0  0  0  0  0  0
   -4.7597   -0.3464   -1.2521 H   0  0  0  0  0  0  0  0  0  0  0  0
   -3.9585   -1.3561   -2.4501 H   0  0  0  0  0  0  0  0  0  0  0  0
    3.5463    4.2397    3.4131 H   0  0  0  0  0  0  0  0  0  0  0  0
   -6.5550    0.7075   -2.1596 H   0  0  0  0  0  0  0  0  0  0  0  0
    2.1592    6.0643    1.1097 H   0  0  0  0  0  0  0  0  0  0  0  0
   -3.7183   -0.1833   -4.5198 H   0  0  0  0  0  0  0  0  0  0  0  0
  1  3  1  0  0  0  0
  1 16  1  0  0  0  0
  2 18  1  0  0  0  0
  2  1  1  0  0  0  0
  3  5  1  0  0  0  0
  3 20  1  0  0  0  0
  4  2  1  0  0  0  0
  4 21  1  0  0  0  0
  5  7  1  0  0  0  0
  5 23  1  0  0  0  0
  6 26  1  0  0  0  0
  6  4  1  0  0  0  0
  7  9  1  0  0  0  0
  7 28  1  0  0  0  0
  8  6  1  0  0  0  0
  8 29  1  0  0  0  0
  9 11  2  0  0  0  0
 10 12  2  0  0  0  0
 10  8  1  0  0  0  0
 11 31  1  0  0  0  0
 12 32  1  0  0  0  0
 13 33  1  0  0  0  0
 13  9  1  0  0  0  0
 14 34  1  0  0  0  0
 14 10  1  0  0  0  0
 15  1  1  0  0  0  0
 17  2  1  0  0  0  0
 19  3  1  0  0  0  0
 22  4  1  0  0  0  0
 24  5  1  0  0  0  0
 25  6  1  0  0  0  0
 27  7  1  0  0  0  0
 30  8  1  0  0  0  0
M  END
>  <HBA>
4

>  <HBD>
2

>  <TPSA>
86.18

>  <cid>
72882

>  <dipole>
5.12

>  <excitation_energy_1>
6.108

>  <excitation_energy_2>
6.359

>  <excitation_energy_3>
6.375

>  <excitation_energy_4>
6.442

>  <homo_energy>
-6.996

>  <homo_lumo_gap>
7.69

>  <logP>
2.478

>  <lumo_energy>
0.694

>  <melting_point>
122.06

>  <molecular_refractivity>
56.0

>  <oscillator_strength_1>
0.0016

>  <oscillator_strength_2>
0.0059

>  <oscillator_strength_3>
0.002

>  <oscillator_strength_4>
0.0182

>  <open_babel_can_smiles>
OC(=N)CCCCCCCCC(=N)O

>  <mulliken_charges>
34
1   -0.256989
2   -0.258193
3   -0.257642
4   -0.253982
5   -0.265365
6   -0.263582
7   -0.317208
8   -0.363036
9   0.479695
10   0.483868
11   -0.627439
12   -0.583088
13   -0.585138
14   -0.574532
15   0.130614
16   0.131085
17   0.129937
18   0.141174
19   0.131608
20   0.130629
21   0.135794
22   0.130607
23   0.138656
24   0.165761
25   0.126279
26   0.155998
27   0.164388
28   0.141718
29   0.151967
30   0.152115
31   0.286388
32   0.280718
33   0.411145
34   0.40605

>  <lowdin_charges>
34
1   -0.272864
2   -0.27537
3   -0.276488
4   -0.272666
5   -0.27565
6   -0.273037
7   -0.293324
8   -0.309017
9   0.131333
10   0.123365
11   -0.436741
12   -0.394632
13   -0.371484
14   -0.366389
15   0.140432
16   0.139621
17   0.138885
18   0.142197
19   0.139632
20   0.14301
21   0.141834
22   0.137553
23   0.14381
24   0.156453
25   0.136019
26   0.150785
27   0.164137
28   0.15228
29   0.157354
30   0.152414
31   0.260638
32   0.253421
33   0.359774
34   0.352718

$$$$

