PCCDB-ID:  56331
public computational chemistry database (PCCDB) project, http://pccdb.org

 31 32  0  0  0  0  0  0  0  0999 V2000
    1.4823    2.9994    0.5627 C   0  0  0  0  0  0  0  0  0  0  0  0
    2.9898    2.7368    0.5005 C   0  0  0  0  0  0  0  0  0  0  0  0
    9.0066    2.5146   -2.4269 C   0  0  0  0  0  0  0  0  0  0  0  0
    8.9110    1.0429   -2.8506 C   0  0  0  0  0  0  0  0  0  0  0  0
    8.1217    2.5929   -1.1659 C   0  0  0  0  0  0  0  0  0  0  0  0
    7.4212    0.7349   -2.6439 C   0  0  0  0  0  0  0  0  0  0  0  0
    3.3355    1.6384   -0.5122 C   0  0  0  0  0  0  0  0  0  0  0  0
    6.9097    0.5221   -0.1011 C   0  0  0  0  0  0  0  0  0  0  0  0
    5.4197    0.4340    0.2059 C   0  0  0  0  0  0  0  0  0  0  0  0
    5.6279    2.0544   -1.4531 C   0  0  0  0  0  0  0  0  0  0  0  0
    7.0383    1.4698   -1.3154 C   0  0  0  0  0  0  0  0  0  0  0  0
    4.7702    1.3758   -0.5910 N   0  0  0  0  0  0  0  0  0  0  0  0
    4.8652   -0.2917    1.0058 O   0  0  0  0  0  0  0  0  0  0  0  0
    5.2809    2.9431   -2.2076 O   0  0  0  0  0  0  0  0  0  0  0  0
    1.2515    3.7872    1.2876 H   0  0  0  0  0  0  0  0  0  0  0  0
    0.9337    2.0986    0.8638 H   0  0  0  0  0  0  0  0  0  0  0  0
    1.0931    3.3188   -0.4114 H   0  0  0  0  0  0  0  0  0  0  0  0
    3.3600    2.4360    1.4882 H   0  0  0  0  0  0  0  0  0  0  0  0
    3.5207    3.6545    0.2193 H   0  0  0  0  0  0  0  0  0  0  0  0
    8.5871    3.1508   -3.2158 H   0  0  0  0  0  0  0  0  0  0  0  0
   10.0324    2.8509   -2.2416 H   0  0  0  0  0  0  0  0  0  0  0  0
    9.5276    0.4159   -2.1917 H   0  0  0  0  0  0  0  0  0  0  0  0
    9.2402    0.8621   -3.8795 H   0  0  0  0  0  0  0  0  0  0  0  0
    7.6649    3.5794   -1.0436 H   0  0  0  0  0  0  0  0  0  0  0  0
    8.7222    2.3961   -0.2701 H   0  0  0  0  0  0  0  0  0  0  0  0
    7.1894   -0.3349   -2.6043 H   0  0  0  0  0  0  0  0  0  0  0  0
    6.8473    1.1702   -3.4702 H   0  0  0  0  0  0  0  0  0  0  0  0
    3.0066    1.9258   -1.5150 H   0  0  0  0  0  0  0  0  0  0  0  0
    2.8558    0.6953   -0.2348 H   0  0  0  0  0  0  0  0  0  0  0  0
    7.3114   -0.4814   -0.2731 H   0  0  0  0  0  0  0  0  0  0  0  0
    7.4090    0.9159    0.7923 H   0  0  0  0  0  0  0  0  0  0  0  0
  1 16  1  0  0  0  0
  1 15  1  0  0  0  0
  2  1  1  0  0  0  0
  2 18  1  0  0  0  0
  3 21  1  0  0  0  0
  3  5  1  0  0  0  0
  4  6  1  0  0  0  0
  4  3  1  0  0  0  0
  4 22  1  0  0  0  0
  5 24  1  0  0  0  0
  5 25  1  0  0  0  0
  6 26  1  0  0  0  0
  6 11  1  0  0  0  0
  7 29  1  0  0  0  0
  7  2  1  0  0  0  0
  8  9  1  0  0  0  0
  8 31  1  0  0  0  0
  9 13  2  0  0  0  0
 10 11  1  0  0  0  0
 10 12  1  0  0  0  0
 11  5  1  0  0  0  0
 11  8  1  0  0  0  0
 12  7  1  0  0  0  0
 12  9  1  0  0  0  0
 14 10  2  0  0  0  0
 17  1  1  0  0  0  0
 19  2  1  0  0  0  0
 20  3  1  0  0  0  0
 23  4  1  0  0  0  0
 27  6  1  0  0  0  0
 28  7  1  0  0  0  0
 30  8  1  0  0  0  0
M  END
>  <HBA>
3

>  <HBD>
0

>  <TPSA>
37.38

>  <cid>
56331

>  <dipole>
1.63

>  <excitation_energy_1>
4.92

>  <excitation_energy_2>
5.439

>  <excitation_energy_3>
6.351

>  <excitation_energy_4>
6.45

>  <homo_energy>
-6.893

>  <homo_lumo_gap>
6.46

>  <logP>
1.654

>  <lumo_energy>
-0.433

>  <melting_point>
79.38

>  <molecular_refractivity>
57.71

>  <oscillator_strength_1>
0.0012

>  <oscillator_strength_2>
0.0012

>  <oscillator_strength_3>
0.2163

>  <oscillator_strength_4>
0.0212

>  <open_babel_can_smiles>
CCCN1C(=O)CC2(C1=O)CCCC2

>  <mulliken_charges>
31
1   -0.449066
2   -0.260808
3   -0.270407
4   -0.27147
5   -0.293372
6   -0.289517
7   -0.143932
8   -0.414098
9   0.594505
10   0.588304
11   0.021427
12   -0.473763
13   -0.488356
14   -0.504195
15   0.151255
16   0.149471
17   0.149399
18   0.153165
19   0.154971
20   0.154181
21   0.13899
22   0.135735
23   0.143632
24   0.163307
25   0.14085
26   0.14214
27   0.166614
28   0.171391
29   0.173638
30   0.182184
31   0.183823

>  <lowdin_charges>
31
1   -0.444977
2   -0.278164
3   -0.279642
4   -0.279422
5   -0.276846
6   -0.274687
7   -0.195113
8   -0.306018
9   0.165316
10   0.160933
11   -0.020582
12   -0.072913
13   -0.266032
14   -0.273368
15   0.15626
16   0.150938
17   0.150283
18   0.15041
19   0.151968
20   0.15188
21   0.147381
22   0.141874
23   0.149557
24   0.159912
25   0.146533
26   0.146416
27   0.15912
28   0.164236
29   0.166465
30   0.173078
31   0.175203

$$$$

