PCCDB-ID:  58126
public computational chemistry database (PCCDB) project, http://pccdb.org

 42 43  0  0  1  0  0  0  0  0999 V2000
    3.9020    5.2509    0.6571 C   0  0  0  0  0  0  0  0  0  0  0  0
   10.0758    3.0583   -4.8279 C   0  0  0  0  0  0  0  0  0  0  0  0
    9.8030    5.0279   -3.3819 C   0  0  0  0  0  0  0  0  0  0  0  0
    8.0386    1.6898   -3.3003 C   0  0  0  0  0  0  0  0  0  0  0  0
    4.6612    4.0431    0.0975 C   0  0  0  0  0  0  0  0  0  0  0  0
    5.9432    4.4379   -0.6462 C   0  0  0  0  0  0  0  0  0  0  0  0
   11.6862    1.6672   -2.6792 C   0  0  0  0  0  0  0  0  0  0  0  0
   10.5829    0.9220   -1.8622 C   0  0  0  0  0  0  0  0  0  0  0  0
    6.7126    3.2432   -1.2190 C   0  0  0  0  0  0  0  0  0  0  0  0
   10.7601    3.1572   -1.0809 C   0  0  0  0  0  0  0  0  0  0  0  0
   11.2794    3.1527   -2.5344 C   0  0  2  0  0  0  0  0  0  0  0  0
    9.6908    2.0771   -1.3420 C   0  0  1  0  0  0  0  0  0  0  0  0
    9.9862    3.4921   -3.3519 C   0  0  0  0  0  0  0  0  0  0  0  0
    8.8402    2.7252   -2.4952 C   0  0  1  0  0  0  0  0  0  0  0  0
    7.8671    3.7178   -1.9841 N   0  0  0  0  0  0  0  0  0  0  0  0
    2.9875    4.9446    1.1776 H   0  0  0  0  0  0  0  0  0  0  0  0
    3.6149    5.9418   -0.1448 H   0  0  0  0  0  0  0  0  0  0  0  0
    4.5196    5.8110    1.3702 H   0  0  0  0  0  0  0  0  0  0  0  0
   10.9323    3.5496   -5.3061 H   0  0  0  0  0  0  0  0  0  0  0  0
    9.1776    3.3614   -5.3783 H   0  0  0  0  0  0  0  0  0  0  0  0
   10.2000    1.9827   -4.9697 H   0  0  0  0  0  0  0  0  0  0  0  0
   10.5824    5.4716   -4.0131 H   0  0  0  0  0  0  0  0  0  0  0  0
    9.8928    5.4956   -2.3960 H   0  0  0  0  0  0  0  0  0  0  0  0
    8.8276    5.3036   -3.7906 H   0  0  0  0  0  0  0  0  0  0  0  0
    8.6746    1.0204   -3.8802 H   0  0  0  0  0  0  0  0  0  0  0  0
    7.3623    2.1975   -3.9963 H   0  0  0  0  0  0  0  0  0  0  0  0
    7.4316    1.0613   -2.6394 H   0  0  0  0  0  0  0  0  0  0  0  0
    4.0054    3.4853   -0.5858 H   0  0  0  0  0  0  0  0  0  0  0  0
    4.9076    3.3534    0.9169 H   0  0  0  0  0  0  0  0  0  0  0  0
    6.5988    5.0008    0.0370 H   0  0  0  0  0  0  0  0  0  0  0  0
    5.7007    5.1203   -1.4715 H   0  0  0  0  0  0  0  0  0  0  0  0
   11.7521    1.3338   -3.7181 H   0  0  0  0  0  0  0  0  0  0  0  0
   12.6758    1.5117   -2.2344 H   0  0  0  0  0  0  0  0  0  0  0  0
   11.0214    0.3821   -1.0148 H   0  0  0  0  0  0  0  0  0  0  0  0
   10.0360    0.1837   -2.4549 H   0  0  0  0  0  0  0  0  0  0  0  0
    6.0463    2.6885   -1.8896 H   0  0  0  0  0  0  0  0  0  0  0  0
    6.9730    2.5523   -0.3941 H   0  0  0  0  0  0  0  0  0  0  0  0
   10.3604    4.1202   -0.7475 H   0  0  0  0  0  0  0  0  0  0  0  0
   11.5190    2.8441   -0.3538 H   0  0  0  0  0  0  0  0  0  0  0  0
   12.0965    3.8487   -2.7551 H   0  0  0  0  0  0  0  0  0  0  0  0
    9.0747    1.7856   -0.4856 H   0  0  0  0  0  0  0  0  0  0  0  0
    8.3553    4.4041   -1.4149 H   0  0  0  0  0  0  0  0  0  0  0  0
  1 16  1  0  0  0  0
  1 18  1  0  0  0  0
  2 13  1  0  0  0  0
  3 13  1  0  0  0  0
  3 23  1  0  0  0  0
  4 27  1  0  0  0  0
  5  1  1  0  0  0  0
  5 29  1  0  0  0  0
  6 30  1  0  0  0  0
  6  5  1  0  0  0  0
  7 11  1  0  0  0  0
  7 33  1  0  0  0  0
  7  8  1  0  0  0  0
  8 12  1  0  0  0  0
  8 34  1  0  0  0  0
  9  6  1  0  0  0  0
  9 37  1  0  0  0  0
 10 38  1  0  0  0  0
 10 39  1  0  0  0  0
 11 40  1  6  0  0  0
 11 10  1  0  0  0  0
 12 10  1  0  0  0  0
 12 41  1  1  0  0  0
 13 11  1  0  0  0  0
 13 14  1  0  0  0  0
 14  4  1  6  0  0  0
 14 15  1  0  0  0  0
 14 12  1  0  0  0  0
 15 42  1  0  0  0  0
 15  9  1  0  0  0  0
 17  1  1  0  0  0  0
 19  2  1  0  0  0  0
 20  2  1  0  0  0  0
 21  2  1  0  0  0  0
 22  3  1  0  0  0  0
 24  3  1  0  0  0  0
 25  4  1  0  0  0  0
 26  4  1  0  0  0  0
 28  5  1  0  0  0  0
 31  6  1  0  0  0  0
 32  7  1  0  0  0  0
 35  8  1  0  0  0  0
 36  9  1  0  0  0  0
M  END
>  <HBA>
1

>  <HBD>
1

>  <TPSA>
12.03

>  <cid>
58126

>  <dipole>
0.71

>  <excitation_energy_1>
5.087

>  <excitation_energy_2>
5.375

>  <excitation_energy_3>
5.494

>  <excitation_energy_4>
5.584

>  <homo_energy>
-5.559

>  <homo_lumo_gap>
7.478

>  <logP>
3.982

>  <lumo_energy>
1.918

>  <melting_point>
70.17

>  <molecular_refractivity>
67.76

>  <oscillator_strength_1>
0.0017

>  <oscillator_strength_2>
0.0033

>  <oscillator_strength_3>
0.011

>  <oscillator_strength_4>
0.0068

>  <open_babel_can_smiles>
CCCCN[C@]1(C)[C@H]2CC[C@@H](C1(C)C)C2

>  <mulliken_charges>
42
1   -0.440681
2   -0.464229
3   -0.455422
4   -0.48179
5   -0.250292
6   -0.266638
7   -0.279422
8   -0.278845
9   -0.105054
10   -0.292207
11   -0.097934
12   -0.111294
13   0.090805
14   0.230066
15   -0.592683
16   0.141914
17   0.143195
18   0.141103
19   0.136944
20   0.145254
21   0.142303
22   0.133113
23   0.126533
24   0.162307
25   0.14643
26   0.153244
27   0.144945
28   0.132508
29   0.131323
30   0.121292
31   0.143628
32   0.135839
33   0.132244
34   0.132403
35   0.13566
36   0.139187
37   0.109647
38   0.121773
39   0.130546
40   0.108326
41   0.112643
42   0.291317

>  <lowdin_charges>
42
1   -0.446032
2   -0.444224
3   -0.445387
4   -0.454299
5   -0.27413
6   -0.281277
7   -0.287221
8   -0.290688
9   -0.2047
10   -0.290331
11   -0.13494
12   -0.150679
13   0.003672
14   0.059881
15   -0.359472
16   0.149561
17   0.148119
18   0.147405
19   0.148218
20   0.151589
21   0.144241
22   0.146184
23   0.139157
24   0.158723
25   0.153702
26   0.156698
27   0.151674
28   0.141394
29   0.139827
30   0.135149
31   0.146916
32   0.143269
33   0.143057
34   0.144787
35   0.145661
36   0.142649
37   0.114863
38   0.135829
39   0.144294
40   0.138246
41   0.139092
42   0.249519

$$$$

