PCCDB-ID:  36317
public computational chemistry database (PCCDB) project, http://pccdb.org

 24 25  0  0  0  0  0  0  0  0999 V2000
   -1.3522    4.1339   -0.4542 C   0  0  0  0  0  0  0  0  0  0  0  0
   -1.0656    5.1665   -1.3471 C   0  0  0  0  0  0  0  0  0  0  0  0
   -0.3384    3.2460   -0.1098 C   0  0  0  0  0  0  0  0  0  0  0  0
    4.2920    1.5070   -0.3093 C   0  0  0  0  0  0  0  0  0  0  0  0
    4.0562    3.8174   -0.9736 C   0  0  0  0  0  0  0  0  0  0  0  0
    5.6651    1.5863   -0.4846 C   0  0  0  0  0  0  0  0  0  0  0  0
    5.4320    3.9084   -1.1436 C   0  0  0  0  0  0  0  0  0  0  0  0
    0.2324    5.2625   -1.8503 C   0  0  0  0  0  0  0  0  0  0  0  0
    3.4562    2.6134   -0.5545 C   0  0  0  0  0  0  0  0  0  0  0  0
    6.2428    2.7934   -0.9037 C   0  0  0  0  0  0  0  0  0  0  0  0
    0.9382    3.4261   -0.6633 C   0  0  0  0  0  0  0  0  0  0  0  0
    2.0030    2.4104   -0.2914 C   0  0  0  0  0  0  0  0  0  0  0  0
    1.2172    4.4211   -1.5206 N   0  0  0  0  0  0  0  0  0  0  0  0
    7.5840    2.9369   -1.0922 O   0  0  0  0  0  0  0  0  0  0  0  0
    1.6174    1.3788    0.2563 O   0  0  0  0  0  0  0  0  0  0  0  0
   -2.3492    4.0214   -0.0368 H   0  0  0  0  0  0  0  0  0  0  0  0
   -1.8252    5.8811   -1.6496 H   0  0  0  0  0  0  0  0  0  0  0  0
   -0.5035    2.4148    0.5650 H   0  0  0  0  0  0  0  0  0  0  0  0
    3.8337    0.5829    0.0256 H   0  0  0  0  0  0  0  0  0  0  0  0
    3.4353    4.6783   -1.1780 H   0  0  0  0  0  0  0  0  0  0  0  0
    6.2943    0.7178   -0.2966 H   0  0  0  0  0  0  0  0  0  0  0  0
    5.8972    4.8354   -1.4634 H   0  0  0  0  0  0  0  0  0  0  0  0
    0.4951    6.0522   -2.5523 H   0  0  0  0  0  0  0  0  0  0  0  0
    8.0246    2.0962   -0.8906 H   0  0  0  0  0  0  0  0  0  0  0  0
  1  3  1  0  0  0  0
  1 16  1  0  0  0  0
  2  1  2  0  0  0  0
  3 18  1  0  0  0  0
  4 19  1  0  0  0  0
  5  9  1  0  0  0  0
  6  4  1  0  0  0  0
  6 21  1  0  0  0  0
  7  5  2  0  0  0  0
  7 10  1  0  0  0  0
  8 13  2  0  0  0  0
  8  2  1  0  0  0  0
  9  4  2  0  0  0  0
  9 12  1  0  0  0  0
 10  6  2  0  0  0  0
 11 12  1  0  0  0  0
 11  3  2  0  0  0  0
 12 15  2  0  0  0  0
 13 11  1  0  0  0  0
 14 10  1  0  0  0  0
 14 24  1  0  0  0  0
 17  2  1  0  0  0  0
 20  5  1  0  0  0  0
 22  7  1  0  0  0  0
 23  8  1  0  0  0  0
M  END
>  <HBA>
3

>  <HBD>
1

>  <TPSA>
50.19

>  <cid>
36317

>  <dipole>
1.07

>  <excitation_energy_1>
3.351

>  <excitation_energy_2>
3.883

>  <excitation_energy_3>
4.19

>  <excitation_energy_4>
4.371

>  <homo_energy>
-6.161

>  <homo_lumo_gap>
4.305

>  <logP>
2.018

>  <lumo_energy>
-1.856

>  <melting_point>
120.23

>  <molecular_refractivity>
56.13

>  <oscillator_strength_1>
0.0014

>  <oscillator_strength_2>
0.2451

>  <oscillator_strength_3>
0.0035

>  <oscillator_strength_4>
0.0059

>  <open_babel_can_smiles>
Oc1ccc(cc1)C(=O)c1ccccn1

>  <mulliken_charges>
24
1   -0.103836
2   -0.140328
3   -0.142766
4   -0.156913
5   -0.158596
6   -0.199696
7   -0.172587
8   0.041546
9   0.052769
10   0.363826
11   0.231877
12   0.357748
13   -0.480695
14   -0.633139
15   -0.487162
16   0.150012
17   0.145459
18   0.173485
19   0.16443
20   0.170723
21   0.124216
22   0.143027
23   0.145303
24   0.411295

>  <lowdin_charges>
24
1   -0.126571
2   -0.164698
3   -0.144694
4   -0.114963
5   -0.128877
6   -0.217876
7   -0.192619
8   -0.089203
9   -0.065341
10   0.119747
11   0.015779
12   0.15271
13   -0.140934
14   -0.3665
15   -0.259951
16   0.166045
17   0.168519
18   0.184521
19   0.177971
20   0.182277
21   0.15621
22   0.169195
23   0.159176
24   0.360077

$$$$

