PCCDB-ID:  42881
public computational chemistry database (PCCDB) project, http://pccdb.org

 28 27  0  0  0  0  0  0  0  0999 V2000
    1.7207    0.3034   -3.9622 C   0  0  0  0  0  0  0  0  0  0  0  0
    3.0188    2.3091   -4.6498 C   0  0  0  0  0  0  0  0  0  0  0  0
    5.1335    0.2348   -2.4951 C   0  0  0  0  0  0  0  0  0  0  0  0
    5.1798    2.6686   -2.0180 C   0  0  0  0  0  0  0  0  0  0  0  0
    6.1821   -0.3302   -1.5376 C   0  0  0  0  0  0  0  0  0  0  0  0
    5.1590    3.3968   -0.6678 C   0  0  0  0  0  0  0  0  0  0  0  0
    3.0024    1.4637   -2.1845 C   0  0  0  0  0  0  0  0  0  0  0  0
    2.5436    1.3037   -3.6288 C   0  0  0  0  0  0  0  0  0  0  0  0
    4.4499    1.3961   -1.9214 N   0  0  0  0  0  0  0  0  0  0  0  0
    6.8423   -1.3918   -2.2165 O   0  0  0  0  0  0  0  0  0  0  0  0
    5.6044    2.5406    0.3674 O   0  0  0  0  0  0  0  0  0  0  0  0
    1.3528    0.1763   -4.9776 H   0  0  0  0  0  0  0  0  0  0  0  0
    1.3782   -0.4239   -3.2296 H   0  0  0  0  0  0  0  0  0  0  0  0
    2.5540    2.1335   -5.6250 H   0  0  0  0  0  0  0  0  0  0  0  0
    4.1066    2.2635   -4.7861 H   0  0  0  0  0  0  0  0  0  0  0  0
    2.7817    3.3360   -4.3400 H   0  0  0  0  0  0  0  0  0  0  0  0
    4.3950   -0.5461   -2.6987 H   0  0  0  0  0  0  0  0  0  0  0  0
    5.6212    0.4607   -3.4576 H   0  0  0  0  0  0  0  0  0  0  0  0
    6.2210    2.4443   -2.2719 H   0  0  0  0  0  0  0  0  0  0  0  0
    4.7896    3.3270   -2.8087 H   0  0  0  0  0  0  0  0  0  0  0  0
    5.6762   -0.6835   -0.6238 H   0  0  0  0  0  0  0  0  0  0  0  0
    6.8868    0.4592   -1.2345 H   0  0  0  0  0  0  0  0  0  0  0  0
    4.1436    3.7779   -0.4596 H   0  0  0  0  0  0  0  0  0  0  0  0
    5.8319    4.2611   -0.6933 H   0  0  0  0  0  0  0  0  0  0  0  0
    2.5081    0.6917   -1.5817 H   0  0  0  0  0  0  0  0  0  0  0  0
    2.6538    2.4301   -1.7962 H   0  0  0  0  0  0  0  0  0  0  0  0
    7.5264   -1.7430   -1.6276 H   0  0  0  0  0  0  0  0  0  0  0  0
    5.1182    1.7106    0.2025 H   0  0  0  0  0  0  0  0  0  0  0  0
  1  8  2  0  0  0  0
  1 13  1  0  0  0  0
  2 16  1  0  0  0  0
  2  8  1  0  0  0  0
  3  9  1  0  0  0  0
  3  5  1  0  0  0  0
  4  9  1  0  0  0  0
  4  6  1  0  0  0  0
  5 22  1  0  0  0  0
  5 21  1  0  0  0  0
  6 23  1  0  0  0  0
  6 11  1  0  0  0  0
  7  9  1  0  0  0  0
  7 26  1  0  0  0  0
  7 25  1  0  0  0  0
  8  7  1  0  0  0  0
 10 27  1  0  0  0  0
 10  5  1  0  0  0  0
 12  1  1  0  0  0  0
 14  2  1  0  0  0  0
 15  2  1  0  0  0  0
 17  3  1  0  0  0  0
 18  3  1  0  0  0  0
 19  4  1  0  0  0  0
 20  4  1  0  0  0  0
 24  6  1  0  0  0  0
 28 11  1  0  0  0  0
M  END
>  <HBA>
3

>  <HBD>
2

>  <TPSA>
43.7

>  <cid>
42881

>  <dipole>
1.13

>  <excitation_energy_1>
5.015

>  <excitation_energy_2>
5.382

>  <excitation_energy_3>
5.565

>  <excitation_energy_4>
5.7

>  <homo_energy>
-5.875

>  <homo_lumo_gap>
6.275

>  <logP>
-0.151

>  <lumo_energy>
0.4

>  <melting_point>
-5.2

>  <molecular_refractivity>
45.32

>  <oscillator_strength_1>
0.0265

>  <oscillator_strength_2>
0.0101

>  <oscillator_strength_3>
0.0334

>  <oscillator_strength_4>
0.0116

>  <open_babel_can_smiles>
OCCN(CC(=C)C)CCO

>  <mulliken_charges>
28
1   -0.39614
2   -0.517278
3   -0.136602
4   -0.159696
5   -0.039483
6   -0.020101
7   -0.219582
8   0.236194
9   -0.417963
10   -0.622699
11   -0.625946
12   0.137051
13   0.1363
14   0.155713
15   0.164763
16   0.151381
17   0.159791
18   0.138964
19   0.152171
20   0.130663
21   0.116943
22   0.135615
23   0.115227
24   0.139322
25   0.146265
26   0.148074
27   0.395044
28   0.39601

>  <lowdin_charges>
28
1   -0.355577
2   -0.440587
3   -0.207352
4   -0.224902
5   -0.148974
6   -0.142207
7   -0.20118
8   -0.006395
9   -0.192158
10   -0.473906
11   -0.474689
12   0.155219
13   0.156061
14   0.158299
15   0.157563
16   0.152908
17   0.158693
18   0.13537
19   0.151139
20   0.13812
21   0.124566
22   0.132344
23   0.119896
24   0.146132
25   0.149351
26   0.150631
27   0.348141
28   0.333497

$$$$

