PCCDB-ID:  66168
public computational chemistry database (PCCDB) project, http://pccdb.org

 26 27  0  0  0  0  0  0  0  0999 V2000
   -1.5171    0.0159   -0.0164 C   0  0  0  0  0  0  0  0  0  0  0  0
   -0.7277   -0.8373    0.7577 C   0  0  0  0  0  0  0  0  0  0  0  0
   -0.9015    0.9402   -0.8580 C   0  0  0  0  0  0  0  0  0  0  0  0
    3.1488   -0.4364   -2.5882 C   0  0  0  0  0  0  0  0  0  0  0  0
    3.4937    1.0721   -2.4809 C   0  0  0  0  0  0  0  0  0  0  0  0
    0.6618   -0.7647    0.6853 C   0  0  0  0  0  0  0  0  0  0  0  0
    0.4923    1.0130   -0.9279 C   0  0  0  0  0  0  0  0  0  0  0  0
    3.3381   -0.9887   -1.1683 C   0  0  0  0  0  0  0  0  0  0  0  0
    3.4360    1.4235   -0.9673 C   0  0  0  0  0  0  0  0  0  0  0  0
    3.4008    0.0451    1.1030 C   0  0  0  0  0  0  0  0  0  0  0  0
    1.2941    0.1621   -0.1580 C   0  0  0  0  0  0  0  0  0  0  0  0
    2.8319    0.1737   -0.2488 C   0  0  0  0  0  0  0  0  0  0  0  0
    3.8711   -0.0639    2.1596 N   0  0  0  0  0  0  0  0  0  0  0  0
   -2.6008   -0.0376    0.0403 H   0  0  0  0  0  0  0  0  0  0  0  0
   -1.1935   -1.5578    1.4245 H   0  0  0  0  0  0  0  0  0  0  0  0
   -1.5030    1.6130   -1.4634 H   0  0  0  0  0  0  0  0  0  0  0  0
    3.7727   -0.9622   -3.3177 H   0  0  0  0  0  0  0  0  0  0  0  0
    2.1069   -0.5666   -2.8997 H   0  0  0  0  0  0  0  0  0  0  0  0
    2.7977    1.6797   -3.0683 H   0  0  0  0  0  0  0  0  0  0  0  0
    4.4950    1.2774   -2.8731 H   0  0  0  0  0  0  0  0  0  0  0  0
    1.2646   -1.4247    1.3036 H   0  0  0  0  0  0  0  0  0  0  0  0
    0.9444    1.7441   -1.5898 H   0  0  0  0  0  0  0  0  0  0  0  0
    4.4007   -1.1633   -0.9607 H   0  0  0  0  0  0  0  0  0  0  0  0
    2.8008   -1.9228   -0.9819 H   0  0  0  0  0  0  0  0  0  0  0  0
    2.8682    2.3307   -0.7451 H   0  0  0  0  0  0  0  0  0  0  0  0
    4.4464    1.5838   -0.5801 H   0  0  0  0  0  0  0  0  0  0  0  0
  1 14  1  0  0  0  0
  1  2  2  0  0  0  0
  2 15  1  0  0  0  0
  3  1  1  0  0  0  0
  4  5  1  0  0  0  0
  4  8  1  0  0  0  0
  5  9  1  0  0  0  0
  6  2  1  0  0  0  0
  6 21  1  0  0  0  0
  7  3  2  0  0  0  0
  7 11  1  0  0  0  0
  8 24  1  0  0  0  0
  8 23  1  0  0  0  0
  8 12  1  0  0  0  0
  9 25  1  0  0  0  0
  9 26  1  0  0  0  0
  9 12  1  0  0  0  0
 10 13  3  0  0  0  0
 11  6  2  0  0  0  0
 12 11  1  0  0  0  0
 12 10  1  0  0  0  0
 16  3  1  0  0  0  0
 17  4  1  0  0  0  0
 18  4  1  0  0  0  0
 19  5  1  0  0  0  0
 20  5  1  0  0  0  0
 22  7  1  0  0  0  0
M  END
>  <HBA>
1

>  <HBD>
0

>  <TPSA>
23.79

>  <cid>
66168

>  <dipole>
4.18

>  <excitation_energy_1>
5.304

>  <excitation_energy_2>
5.88

>  <excitation_energy_3>
6.227

>  <excitation_energy_4>
6.343

>  <homo_energy>
-6.855

>  <homo_lumo_gap>
6.506

>  <logP>
3.022

>  <lumo_energy>
-0.348

>  <melting_point>
67.26

>  <molecular_refractivity>
52.96

>  <oscillator_strength_1>
0.0002

>  <oscillator_strength_2>
0.0388

>  <oscillator_strength_3>
0.0026

>  <oscillator_strength_4>
0.0045

>  <open_babel_can_smiles>
N#CC1(CCCC1)c1ccccc1

>  <mulliken_charges>
26
1   -0.125063
2   -0.132441
3   -0.13329
4   -0.274964
5   -0.279533
6   -0.173047
7   -0.183298
8   -0.265455
9   -0.293216
10   0.324966
11   0.156228
12   -0.060495
13   -0.487571
14   0.133904
15   0.137241
16   0.133483
17   0.147267
18   0.1546
19   0.146732
20   0.148693
21   0.150496
22   0.131767
23   0.156125
24   0.159098
25   0.161775
26   0.165998

>  <lowdin_charges>
26
1   -0.152257
2   -0.150982
3   -0.154885
4   -0.284487
5   -0.287881
6   -0.159929
7   -0.170852
8   -0.264059
9   -0.275763
10   -0.014713
11   -0.001214
12   0.005048
13   -0.139544
14   0.158115
15   0.16262
16   0.161006
17   0.154638
18   0.150965
19   0.149687
20   0.151393
21   0.16932
22   0.162148
23   0.152979
24   0.158157
25   0.158582
26   0.16191

$$$$

