PCCDB-ID:  67143
public computational chemistry database (PCCDB) project, http://pccdb.org

 24 24  0  0  0  0  0  0  0  0999 V2000
    3.2964    1.1750   -0.6410 C   0  0  0  0  0  0  0  0  0  0  0  0
    3.8807   -0.9110    1.2040 C   0  0  0  0  0  0  0  0  0  0  0  0
    1.5021    0.8618    3.4580 C   0  0  0  0  0  0  0  0  0  0  0  0
    1.8808   -1.5136    3.1519 C   0  0  0  0  0  0  0  0  0  0  0  0
    0.7908    0.5924    4.6195 C   0  0  0  0  0  0  0  0  0  0  0  0
    1.1726   -1.7861    4.3161 C   0  0  0  0  0  0  0  0  0  0  0  0
    2.4744    1.0677    0.6362 C   0  0  0  0  0  0  0  0  0  0  0  0
    2.0589   -0.1908    2.7057 C   0  0  0  0  0  0  0  0  0  0  0  0
    0.6324   -0.7276    5.0406 C   0  0  0  0  0  0  0  0  0  0  0  0
    2.8258    0.0526    1.5341 N   0  0  0  0  0  0  0  0  0  0  0  0
   -0.1129   -1.0080    6.2703 N   0  0  0  0  0  0  0  0  0  0  0  0
    1.5539    1.8398    0.8496 O   0  0  0  0  0  0  0  0  0  0  0  0
   -0.5882   -0.0518    6.8841 O   0  0  0  0  0  0  0  0  0  0  0  0
   -0.2201   -2.1850    6.6203 O   0  0  0  0  0  0  0  0  0  0  0  0
    3.3173    0.2382   -1.2079 H   0  0  0  0  0  0  0  0  0  0  0  0
    4.3334    1.4632   -0.4317 H   0  0  0  0  0  0  0  0  0  0  0  0
    2.8347    1.9529   -1.2494 H   0  0  0  0  0  0  0  0  0  0  0  0
    4.6745   -0.4201    0.6422 H   0  0  0  0  0  0  0  0  0  0  0  0
    3.5098   -1.7590    0.6133 H   0  0  0  0  0  0  0  0  0  0  0  0
    4.3160   -1.2934    2.1292 H   0  0  0  0  0  0  0  0  0  0  0  0
    1.6224    1.8822    3.1270 H   0  0  0  0  0  0  0  0  0  0  0  0
    2.2818   -2.3429    2.5806 H   0  0  0  0  0  0  0  0  0  0  0  0
    0.3666    1.3942    5.2112 H   0  0  0  0  0  0  0  0  0  0  0  0
    1.0267   -2.8021    4.6613 H   0  0  0  0  0  0  0  0  0  0  0  0
  1 16  1  0  0  0  0
  1  7  1  0  0  0  0
  2 10  1  0  0  0  0
  2 20  1  0  0  0  0
  3  5  2  0  0  0  0
  4  6  1  0  0  0  0
  5  9  1  0  0  0  0
  5 23  1  0  0  0  0
  6 24  1  0  0  0  0
  6  9  2  0  0  0  0
  7 12  2  0  0  0  0
  7 10  1  0  0  0  0
  8  4  2  0  0  0  0
  8  3  1  0  0  0  0
  9 11  1  0  0  0  0
 10  8  1  0  0  0  0
 11 14  2  0  0  0  0
 11 13  2  0  0  0  0
 15  1  1  0  0  0  0
 17  1  1  0  0  0  0
 18  2  1  0  0  0  0
 19  2  1  0  0  0  0
 21  3  1  0  0  0  0
 22  4  1  0  0  0  0
M  END
>  <HBA>
2

>  <HBD>
0

>  <TPSA>
66.13

>  <cid>
67143

>  <dipole>
7.47

>  <excitation_energy_1>
3.729

>  <excitation_energy_2>
3.832

>  <excitation_energy_3>
4.132

>  <excitation_energy_4>
4.28

>  <homo_energy>
-6.645

>  <homo_lumo_gap>
4.367

>  <logP>
2.101

>  <lumo_energy>
-2.278

>  <melting_point>
73.19

>  <molecular_refractivity>
54.48

>  <oscillator_strength_1>
0.0295

>  <oscillator_strength_2>
0.2766

>  <oscillator_strength_3>
0.0303

>  <oscillator_strength_4>
0.0014

>  <open_babel_can_smiles>
CC(=O)N(c1ccc(cc1)N(=O)=O)C

>  <mulliken_charges>
24
1   -0.554634
2   -0.333857
3   -0.140615
4   -0.18561
5   -0.169256
6   -0.161965
7   0.57747
8   0.328653
9   0.285093
10   -0.517438
11   0.373086
12   -0.476612
13   -0.398323
14   -0.401659
15   0.173561
16   0.178509
17   0.197225
18   0.178764
19   0.170018
20   0.183864
21   0.180637
22   0.146025
23   0.184695
24   0.18237

>  <lowdin_charges>
24
1   -0.472608
2   -0.356699
3   -0.154033
4   -0.182858
5   -0.134636
6   -0.133748
7   0.172878
8   0.076355
9   -0.008205
10   -0.090281
11   0.309224
12   -0.276005
13   -0.251142
14   -0.253187
15   0.169431
16   0.170837
17   0.185101
18   0.170774
19   0.154047
20   0.171099
21   0.187149
22   0.169378
23   0.190169
24   0.186961

$$$$

