PCCDB-ID:  65690
public computational chemistry database (PCCDB) project, http://pccdb.org

 24 23  0  0  1  0  0  0  0  0999 V2000
    0.6366    0.8727   -0.1150 C   0  0  0  0  0  0  0  0  0  0  0  0
   -1.3561   -3.1492    2.6266 C   0  0  0  0  0  0  0  0  0  0  0  0
    1.4590   -0.1650    3.5785 C   0  0  0  0  0  0  0  0  0  0  0  0
    1.8264    0.0057    0.2272 C   0  0  0  0  0  0  0  0  0  0  0  0
   -0.0749   -2.4479    3.0319 C   0  0  0  0  0  0  0  0  0  0  0  0
    2.1796    0.6768    2.5019 C   0  0  1  0  0  0  0  0  0  0  0  0
    3.5205    1.1351    3.1328 C   0  0  0  0  0  0  0  0  0  0  0  0
    2.4734   -0.0932    1.3157 N   0  0  0  0  0  0  0  0  0  0  0  0
    2.2745   -0.7716   -0.7964 O   0  0  0  0  0  0  0  0  0  0  0  0
    0.9565   -3.0298    3.2687 O   0  0  0  0  0  0  0  0  0  0  0  0
    3.5614    1.9404    4.0326 O   0  0  0  0  0  0  0  0  0  0  0  0
    4.6050    0.5381    2.6238 O   0  0  0  0  0  0  0  0  0  0  0  0
   -0.2507   -0.6430    3.1306 S   0  0  0  0  0  0  0  0  0  0  0  0
    0.3126    1.4887    0.7226 H   0  0  0  0  0  0  0  0  0  0  0  0
   -0.2106    0.2436   -0.4118 H   0  0  0  0  0  0  0  0  0  0  0  0
    0.8854    1.5301   -0.9578 H   0  0  0  0  0  0  0  0  0  0  0  0
   -1.2035   -3.6150    1.6465 H   0  0  0  0  0  0  0  0  0  0  0  0
   -2.2120   -2.4718    2.5740 H   0  0  0  0  0  0  0  0  0  0  0  0
   -1.5618   -3.9480    3.3459 H   0  0  0  0  0  0  0  0  0  0  0  0
    1.4205    0.4097    4.5059 H   0  0  0  0  0  0  0  0  0  0  0  0
    1.9933   -1.1053    3.7493 H   0  0  0  0  0  0  0  0  0  0  0  0
    1.6058    1.5948    2.3196 H   0  0  0  0  0  0  0  0  0  0  0  0
    1.7231   -0.6261   -1.5807 H   0  0  0  0  0  0  0  0  0  0  0  0
    4.2725   -0.0541    1.9054 H   0  0  0  0  0  0  0  0  0  0  0  0
  1  4  1  0  0  0  0
  1 14  1  0  0  0  0
  2  5  1  0  0  0  0
  2 19  1  0  0  0  0
  3 21  1  0  0  0  0
  3 20  1  0  0  0  0
  4  8  2  0  0  0  0
  5 13  1  0  0  0  0
  5 10  2  0  0  0  0
  6 22  1  6  0  0  0
  6  7  1  0  0  0  0
  6  3  1  0  0  0  0
  7 11  2  0  0  0  0
  8  6  1  0  0  0  0
  9  4  1  0  0  0  0
 12  7  1  0  0  0  0
 13  3  1  0  0  0  0
 15  1  1  0  0  0  0
 16  1  1  0  0  0  0
 17  2  1  0  0  0  0
 18  2  1  0  0  0  0
 23  9  1  0  0  0  0
 24 12  1  0  0  0  0
M  END
>  <HBA>
6

>  <HBD>
2

>  <TPSA>
108.77

>  <cid>
65690

>  <dipole>
8.03

>  <excitation_energy_1>
4.835

>  <excitation_energy_2>
5.389

>  <excitation_energy_3>
5.511

>  <excitation_energy_4>
5.757

>  <homo_energy>
-6.827

>  <homo_lumo_gap>
6.114

>  <logP>
0.246

>  <lumo_energy>
-0.713

>  <melting_point>
128.86

>  <molecular_refractivity>
48.33

>  <oscillator_strength_1>
0.0001

>  <oscillator_strength_2>
0.0355

>  <oscillator_strength_3>
0.0204

>  <oscillator_strength_4>
0.0037

>  <open_babel_can_smiles>
CC(=O)SC[C@@H](C(=O)O)/N=C(/O)\C

>  <mulliken_charges>
24
1   -0.549825
2   -0.514661
3   -0.451382
4   0.51452
5   0.274705
6   -0.077721
7   0.59998
8   -0.461364
9   -0.565832
10   -0.40024
11   -0.463779
12   -0.570959
13   0.089422
14   0.196566
15   0.186641
16   0.179442
17   0.193303
18   0.173527
19   0.197911
20   0.212851
21   0.230064
22   0.158907
23   0.413998
24   0.433926

>  <lowdin_charges>
24
1   -0.48076
2   -0.46373
3   -0.381257
4   0.154946
5   0.05261
6   -0.100841
7   0.176686
8   -0.222688
9   -0.353757
10   -0.224663
11   -0.255788
12   -0.343295
13   0.111853
14   0.18183
15   0.178151
16   0.172701
17   0.18359
18   0.171513
19   0.186029
20   0.186797
21   0.192542
22   0.153101
23   0.361383
24   0.363048

$$$$

