PCCDB-ID:  23178
public computational chemistry database (PCCDB) project, http://pccdb.org

 20 19  0  0  0  0  0  0  0  0999 V2000
    0.7081    0.4299   -0.6994 C   0  0  0  0  0  0  0  0  0  0  0  0
    6.9151   -2.1766   -3.7858 C   0  0  0  0  0  0  0  0  0  0  0  0
    2.2011    0.4080   -0.8639 C   0  0  0  0  0  0  0  0  0  0  0  0
    2.9585   -0.6917   -0.9001 C   0  0  0  0  0  0  0  0  0  0  0  0
    4.4537   -0.7106   -1.0644 C   0  0  0  0  0  0  0  0  0  0  0  0
    4.8949   -1.4332   -2.3455 C   0  0  0  0  0  0  0  0  0  0  0  0
    6.4088   -1.5258   -2.5079 C   0  0  0  0  0  0  0  0  0  0  0  0
    7.1740   -1.1019   -1.6624 O   0  0  0  0  0  0  0  0  0  0  0  0
    0.4143    0.9868    0.2008 H   0  0  0  0  0  0  0  0  0  0  0  0
    0.2967   -0.5822   -0.6194 H   0  0  0  0  0  0  0  0  0  0  0  0
    0.2198    0.9287   -1.5479 H   0  0  0  0  0  0  0  0  0  0  0  0
    6.5071   -3.1893   -3.8938 H   0  0  0  0  0  0  0  0  0  0  0  0
    8.0060   -2.2194   -3.7723 H   0  0  0  0  0  0  0  0  0  0  0  0
    6.5827   -1.6059   -4.6622 H   0  0  0  0  0  0  0  0  0  0  0  0
    2.6881    1.3814   -0.9520 H   0  0  0  0  0  0  0  0  0  0  0  0
    2.4722   -1.6667   -0.8127 H   0  0  0  0  0  0  0  0  0  0  0  0
    4.9253   -1.2113   -0.2083 H   0  0  0  0  0  0  0  0  0  0  0  0
    4.8485    0.3116   -1.0710 H   0  0  0  0  0  0  0  0  0  0  0  0
    4.4772   -0.9363   -3.2333 H   0  0  0  0  0  0  0  0  0  0  0  0
    4.4891   -2.4564   -2.3762 H   0  0  0  0  0  0  0  0  0  0  0  0
  1 10  1  0  0  0  0
  1  9  1  0  0  0  0
  2 13  1  0  0  0  0
  2  7  1  0  0  0  0
  3  1  1  0  0  0  0
  4  3  2  0  0  0  0
  4 16  1  0  0  0  0
  5  4  1  0  0  0  0
  5 17  1  0  0  0  0
  6  5  1  0  0  0  0
  7  6  1  0  0  0  0
  7  8  2  0  0  0  0
 11  1  1  0  0  0  0
 12  2  1  0  0  0  0
 14  2  1  0  0  0  0
 15  3  1  0  0  0  0
 18  5  1  0  0  0  0
 19  6  1  0  0  0  0
 20  6  1  0  0  0  0
M  END
>  <HBA>
1

>  <HBD>
0

>  <TPSA>
17.07

>  <cid>
23178

>  <dipole>
2.68

>  <excitation_energy_1>
4.399

>  <excitation_energy_2>
5.459

>  <excitation_energy_3>
5.943

>  <excitation_energy_4>
6.231

>  <homo_energy>
-6.362

>  <homo_lumo_gap>
6.068

>  <logP>
1.932

>  <lumo_energy>
-0.294

>  <melting_point>
3.95

>  <molecular_refractivity>
35.49

>  <oscillator_strength_1>
0.0002

>  <oscillator_strength_2>
0.001

>  <oscillator_strength_3>
0.0539

>  <oscillator_strength_4>
0.0208

>  <open_babel_can_smiles>
C/C=C/CCC(=O)C

>  <mulliken_charges>
20
1   -0.486408
2   -0.527998
3   -0.091754
4   -0.092789
5   -0.295853
6   -0.356536
7   0.454563
8   -0.435349
9   0.155388
10   0.15062
11   0.152826
12   0.165988
13   0.17975
14   0.168556
15   0.118857
16   0.111548
17   0.159292
18   0.152125
19   0.161051
20   0.156123

>  <lowdin_charges>
20
1   -0.439878
2   -0.474615
3   -0.165703
4   -0.172823
5   -0.266134
6   -0.310799
7   0.168078
8   -0.235845
9   0.157032
10   0.152938
11   0.156182
12   0.167425
13   0.170877
14   0.170286
15   0.146017
16   0.142376
17   0.159456
18   0.153954
19   0.162221
20   0.158955

$$$$

