PCCDB-ID:  32344
public computational chemistry database (PCCDB) project, http://pccdb.org

 28 30  0  0  1  0  0  0  0  0999 V2000
    3.5333   -0.3718    0.1212 C   0  0  0  0  0  0  0  0  0  0  0  0
    2.8151   -1.5586    0.2931 C   0  0  0  0  0  0  0  0  0  0  0  0
    2.8501    0.8235   -0.0987 C   0  0  0  0  0  0  0  0  0  0  0  0
    1.4250   -1.5423    0.2509 C   0  0  0  0  0  0  0  0  0  0  0  0
    0.7037    2.1407   -0.4354 C   0  0  0  0  0  0  0  0  0  0  0  0
   -0.6141    2.1996    0.3533 C   0  0  0  0  0  0  0  0  0  0  0  0
   -2.8012    0.9763    0.0517 C   0  0  0  0  0  0  0  0  0  0  0  0
    1.4537    0.8556   -0.1538 C   0  0  0  0  0  0  0  0  0  0  0  0
   -1.4462    0.9636    0.1148 C   0  0  2  0  0  0  0  0  0  0  0  0
    0.7307   -0.3423    0.0292 C   0  0  0  0  0  0  0  0  0  0  0  0
   -3.5435   -0.2542   -0.1482 C   0  0  0  0  0  0  0  0  0  0  0  0
   -0.7446   -0.3044   -0.0280 C   0  0  0  0  0  0  0  0  0  0  0  0
   -5.5809    0.7626   -0.0851 N   0  0  0  0  0  0  0  0  0  0  0  0
   -4.8187   -0.4581   -0.2357 N   0  0  0  0  0  0  0  0  0  0  0  0
   -2.7237   -1.3814   -0.2537 N   0  0  0  0  0  0  0  0  0  0  0  0
   -1.3911   -1.4298   -0.2125 N   0  0  0  0  0  0  0  0  0  0  0  0
    4.6192   -0.3772    0.1634 H   0  0  0  0  0  0  0  0  0  0  0  0
    3.3396   -2.4939    0.4696 H   0  0  0  0  0  0  0  0  0  0  0  0
    3.4064    1.7484   -0.2349 H   0  0  0  0  0  0  0  0  0  0  0  0
    0.8565   -2.4558    0.3910 H   0  0  0  0  0  0  0  0  0  0  0  0
    1.3293    3.0062   -0.1906 H   0  0  0  0  0  0  0  0  0  0  0  0
    0.4795    2.2115   -1.5103 H   0  0  0  0  0  0  0  0  0  0  0  0
   -1.1882    3.0974    0.1001 H   0  0  0  0  0  0  0  0  0  0  0  0
   -0.3783    2.2631    1.4261 H   0  0  0  0  0  0  0  0  0  0  0  0
   -3.3775    1.8910    0.1283 H   0  0  0  0  0  0  0  0  0  0  0  0
   -6.4881    0.5378   -0.4918 H   0  0  0  0  0  0  0  0  0  0  0  0
   -5.7753    0.8683    0.9155 H   0  0  0  0  0  0  0  0  0  0  0  0
   -3.1848   -2.2684   -0.4149 H   0  0  0  0  0  0  0  0  0  0  0  0
  1 17  1  0  0  0  0
  1  2  2  0  0  0  0
  2 18  1  0  0  0  0
  3  1  1  0  0  0  0
  4  2  1  0  0  0  0
  4 20  1  0  0  0  0
  5 21  1  0  0  0  0
  5  8  1  0  0  0  0
  5  6  1  0  0  0  0
  6 24  1  0  0  0  0
  7  9  1  0  0  0  0
  7 25  1  0  0  0  0
  8  3  2  0  0  0  0
  8 10  1  0  0  0  0
  9 12  1  1  0  0  0
  9  6  1  0  0  0  0
 10  4  2  0  0  0  0
 11  7  2  0  0  0  0
 12 10  1  0  0  0  0
 13 27  1  0  0  0  0
 14 11  1  0  0  0  0
 14 13  1  0  0  0  0
 15 16  1  0  0  0  0
 15 11  1  0  0  0  0
 16 12  2  0  0  0  0
 19  3  1  0  0  0  0
 22  5  1  0  0  0  0
 23  6  1  0  0  0  0
 26 13  1  0  0  0  0
 28 15  1  0  0  0  0
M  RAD  2   9   2  14   2
M  END
>  <HBA>
4

>  <HBD>
2

>  <TPSA>
63.83

>  <cid>
32344

>  <dipole>
1.97

>  <excitation_energy_1>
2.799

>  <excitation_energy_2>
3.842

>  <excitation_energy_3>
3.921

>  <excitation_energy_4>
4.256

>  <homo_energy>
-4.917

>  <homo_lumo_gap>
3.461

>  <logP>
2.301

>  <lumo_energy>
-1.456

>  <melting_point>
194.32

>  <molecular_refractivity>
62.49

>  <oscillator_strength_1>
0.0083

>  <oscillator_strength_2>
0.051

>  <oscillator_strength_3>
0.2544

>  <oscillator_strength_4>
0.027

>  <open_babel_can_smiles>
N[N]C1=C[C]2C(=NN1)c1ccccc1CC2

>  <mulliken_charges>
28
1   -0.121495
2   -0.138055
3   -0.20358
4   -0.168249
5   -0.352044
6   -0.353969
7   -0.256044
8   0.115046
9   0.18376
10   0.08919
11   0.587045
12   0.202547
13   -0.601054
14   -0.484256
15   -0.465113
16   -0.330541
17   0.129158
18   0.130313
19   0.123351
20   0.149263
21   0.149026
22   0.163746
23   0.154768
24   0.167891
25   0.164393
26   0.316006
27   0.300125
28   0.348773

>  <lowdin_charges>
28
1   -0.151798
2   -0.158386
3   -0.167328
4   -0.14671
5   -0.271149
6   -0.269217
7   -0.180684
8   -0.010661
9   0.004247
10   -0.019294
11   0.060383
12   -0.007083
13   -0.475708
14   -0.243365
15   -0.136782
16   -0.082836
17   0.15604
18   0.158659
19   0.155284
20   0.169666
21   0.155544
22   0.156063
23   0.158491
24   0.160492
25   0.181009
26   0.259715
27   0.247569
28   0.29784

$$$$

