PCCDB-ID:  72922
public computational chemistry database (PCCDB) project, http://pccdb.org

 21 21  0  0  0  0  0  0  0  0999 V2000
   -0.0910   -1.6235   -0.2723 C   0  0  0  0  0  0  0  0  0  0  0  0
   -1.0919   -1.8439    0.6719 C   0  0  0  0  0  0  0  0  0  0  0  0
   -0.7251    3.1693   -0.0394 C   0  0  0  0  0  0  0  0  0  0  0  0
    0.3981   -0.3294   -0.4424 C   0  0  0  0  0  0  0  0  0  0  0  0
    0.3841    2.1328    0.2174 C   0  0  0  0  0  0  0  0  0  0  0  0
   -1.5540   -0.7479    1.4019 C   0  0  0  0  0  0  0  0  0  0  0  0
   -1.3930    3.0255   -1.4078 C   0  0  0  0  0  0  0  0  0  0  0  0
   -0.1241    0.7094    0.3394 C   0  0  0  0  0  0  0  0  0  0  0  0
   -1.0919    0.4971    1.2491 N   0  0  0  0  0  0  0  0  0  0  0  0
   -2.3810    4.0240   -1.6405 O   0  0  0  0  0  0  0  0  0  0  0  0
    0.3020   -2.4433   -0.8680 H   0  0  0  0  0  0  0  0  0  0  0  0
   -1.5051   -2.8336    0.8413 H   0  0  0  0  0  0  0  0  0  0  0  0
   -0.3093    4.1810    0.0398 H   0  0  0  0  0  0  0  0  0  0  0  0
   -1.4819    3.0642    0.7489 H   0  0  0  0  0  0  0  0  0  0  0  0
    1.1772   -0.1220   -1.1707 H   0  0  0  0  0  0  0  0  0  0  0  0
    0.8920    2.3949    1.1549 H   0  0  0  0  0  0  0  0  0  0  0  0
    1.1419    2.1852   -0.5748 H   0  0  0  0  0  0  0  0  0  0  0  0
   -2.3359   -0.8761    2.1496 H   0  0  0  0  0  0  0  0  0  0  0  0
   -1.8170    2.0149   -1.5211 H   0  0  0  0  0  0  0  0  0  0  0  0
   -0.6534    3.1565   -2.2062 H   0  0  0  0  0  0  0  0  0  0  0  0
   -3.0712    3.9060   -0.9692 H   0  0  0  0  0  0  0  0  0  0  0  0
  1  2  1  0  0  0  0
  2 12  1  0  0  0  0
  2  6  2  0  0  0  0
  3 13  1  0  0  0  0
  3  5  1  0  0  0  0
  3 14  1  0  0  0  0
  4  1  2  0  0  0  0
  4  8  1  0  0  0  0
  5  8  1  0  0  0  0
  5 16  1  0  0  0  0
  6 18  1  0  0  0  0
  7  3  1  0  0  0  0
  8  9  2  0  0  0  0
  9  6  1  0  0  0  0
 10  7  1  0  0  0  0
 10 21  1  0  0  0  0
 11  1  1  0  0  0  0
 15  4  1  0  0  0  0
 17  5  1  0  0  0  0
 19  7  1  0  0  0  0
 20  7  1  0  0  0  0
M  END
>  <HBA>
2

>  <HBD>
1

>  <TPSA>
33.12

>  <cid>
72922

>  <dipole>
2.56

>  <excitation_energy_1>
4.831

>  <excitation_energy_2>
5.19

>  <excitation_energy_3>
5.272

>  <excitation_energy_4>
5.818

>  <homo_energy>
-6.754

>  <homo_lumo_gap>
6.065

>  <logP>
1.006

>  <lumo_energy>
-0.688

>  <melting_point>
39.95

>  <molecular_refractivity>
39.98

>  <oscillator_strength_1>
0.0043

>  <oscillator_strength_2>
0.0001

>  <oscillator_strength_3>
0.061

>  <oscillator_strength_4>
0.0137

>  <open_babel_can_smiles>
OCCCc1ccccn1

>  <mulliken_charges>
21
1   -0.09937
2   -0.143654
3   -0.280403
4   -0.17685
5   -0.330576
6   0.037084
7   -0.027418
8   0.306724
9   -0.468107
10   -0.617613
11   0.143194
12   0.137592
13   0.143606
14   0.152068
15   0.134283
16   0.161542
17   0.136277
18   0.139733
19   0.126862
20   0.138227
21   0.3868

>  <lowdin_charges>
21
1   -0.127232
2   -0.18147
3   -0.292895
4   -0.184766
5   -0.278647
6   -0.086143
7   -0.137146
8   0.050547
9   -0.161492
10   -0.469285
11   0.164429
12   0.163704
13   0.148547
14   0.151492
15   0.16224
16   0.164638
17   0.145992
18   0.155702
19   0.127492
20   0.142817
21   0.341476

$$$$

