PCCDB-ID:  67437
public computational chemistry database (PCCDB) project, http://pccdb.org

 27 28  0  0  0  0  0  0  0  0999 V2000
   -2.3764   -0.4185   -0.9068 C   0  0  0  0  0  0  0  0  0  0  0  0
    2.3760   -0.4180    0.9073 C   0  0  0  0  0  0  0  0  0  0  0  0
   -2.7673    0.4487    0.2975 C   0  0  0  0  0  0  0  0  0  0  0  0
    2.7669    0.4485   -0.2976 C   0  0  0  0  0  0  0  0  0  0  0  0
   -1.1470   -1.2712   -0.5626 C   0  0  0  0  0  0  0  0  0  0  0  0
    1.1466   -1.2708    0.5637 C   0  0  0  0  0  0  0  0  0  0  0  0
   -1.5560    1.2461    0.7759 C   0  0  0  0  0  0  0  0  0  0  0  0
    1.5556    1.2456   -0.7764 C   0  0  0  0  0  0  0  0  0  0  0  0
   -0.0002   -0.4210    0.0003 C   0  0  0  0  0  0  0  0  0  0  0  0
   -0.4503    0.3895    1.0851 O   0  0  0  0  0  0  0  0  0  0  0  0
    0.4499    0.3889   -1.0850 O   0  0  0  0  0  0  0  0  0  0  0  0
   -2.1403    0.2263   -1.7621 H   0  0  0  0  0  0  0  0  0  0  0  0
   -3.2100   -1.0638   -1.2096 H   0  0  0  0  0  0  0  0  0  0  0  0
    2.1399    0.2273    1.7622 H   0  0  0  0  0  0  0  0  0  0  0  0
    3.2096   -1.0632    1.2104 H   0  0  0  0  0  0  0  0  0  0  0  0
   -3.1215   -0.1897    1.1181 H   0  0  0  0  0  0  0  0  0  0  0  0
   -3.5843    1.1362    0.0415 H   0  0  0  0  0  0  0  0  0  0  0  0
    3.1211   -0.1904   -1.1178 H   0  0  0  0  0  0  0  0  0  0  0  0
    3.5839    1.1361   -0.0420 H   0  0  0  0  0  0  0  0  0  0  0  0
   -0.7856   -1.8113   -1.4446 H   0  0  0  0  0  0  0  0  0  0  0  0
   -1.4109   -2.0172    0.1988 H   0  0  0  0  0  0  0  0  0  0  0  0
    0.7852   -1.8105    1.4459 H   0  0  0  0  0  0  0  0  0  0  0  0
    1.4105   -2.0173   -0.1973 H   0  0  0  0  0  0  0  0  0  0  0  0
   -1.7676    1.7866    1.7035 H   0  0  0  0  0  0  0  0  0  0  0  0
   -1.2582    1.9777    0.0116 H   0  0  0  0  0  0  0  0  0  0  0  0
    1.7672    1.7856   -1.7043 H   0  0  0  0  0  0  0  0  0  0  0  0
    1.2579    1.9776   -0.0125 H   0  0  0  0  0  0  0  0  0  0  0  0
  1  5  1  0  0  0  0
  1  3  1  0  0  0  0
  2 15  1  0  0  0  0
  2 14  1  0  0  0  0
  3  7  1  0  0  0  0
  3 16  1  0  0  0  0
  4 19  1  0  0  0  0
  4  2  1  0  0  0  0
  5  9  1  0  0  0  0
  5 21  1  0  0  0  0
  6  2  1  0  0  0  0
  6 22  1  0  0  0  0
  7 10  1  0  0  0  0
  7 24  1  0  0  0  0
  8  4  1  0  0  0  0
  8 27  1  0  0  0  0
  9  6  1  0  0  0  0
  9 10  1  0  0  0  0
 11  8  1  0  0  0  0
 11  9  1  0  0  0  0
 12  1  1  0  0  0  0
 13  1  1  0  0  0  0
 17  3  1  0  0  0  0
 18  4  1  0  0  0  0
 20  5  1  0  0  0  0
 23  6  1  0  0  0  0
 25  7  1  0  0  0  0
 26  8  1  0  0  0  0
M  END
>  <HBA>
2

>  <HBD>
0

>  <TPSA>
18.46

>  <cid>
67437

>  <dipole>
0.07

>  <excitation_energy_1>
6.446

>  <excitation_energy_2>
6.627

>  <excitation_energy_3>
6.757

>  <excitation_energy_4>
6.815

>  <homo_energy>
-6.751

>  <homo_lumo_gap>
9.121

>  <logP>
2.084

>  <lumo_energy>
2.37

>  <melting_point>
9.73

>  <molecular_refractivity>
43.36

>  <oscillator_strength_1>
0.0037

>  <oscillator_strength_2>
0.003

>  <oscillator_strength_3>
0.0021

>  <oscillator_strength_4>
0.0

>  <open_babel_can_smiles>
C1CCC2(OC1)CCCCO2

>  <mulliken_charges>
27
1   -0.273326
2   -0.273346
3   -0.276175
4   -0.27617
5   -0.277972
6   -0.277965
7   -0.028885
8   -0.028888
9   0.52897
10   -0.513151
11   -0.513144
12   0.15177
13   0.132606
14   0.151772
15   0.132609
16   0.137406
17   0.131528
18   0.137406
19   0.131528
20   0.142417
21   0.134869
22   0.142419
23   0.134871
24   0.139382
25   0.135042
26   0.139383
27   0.135045

>  <lowdin_charges>
27
1   -0.280035
2   -0.280038
3   -0.292954
4   -0.292954
5   -0.289504
6   -0.289502
7   -0.135711
8   -0.135708
9   0.202552
10   -0.277357
11   -0.27735
12   0.150544
13   0.145609
14   0.150545
15   0.14561
16   0.144123
17   0.148127
18   0.144124
19   0.148126
20   0.154935
21   0.147815
22   0.154934
23   0.147816
24   0.147825
25   0.135303
26   0.147822
27   0.135304

$$$$

