PCCDB-ID:  26628
public computational chemistry database (PCCDB) project, http://pccdb.org

 38 38  0  0  0  0  0  0  0  0999 V2000
    0.0079    0.5872   -1.3121 C   0  0  0  0  0  0  0  0  0  0  0  0
    1.4987    0.2821   -1.1350 C   0  0  0  0  0  0  0  0  0  0  0  0
    2.4048    1.1636   -2.0040 C   0  0  0  0  0  0  0  0  0  0  0  0
    3.8984    0.8544   -1.8414 C   0  0  0  0  0  0  0  0  0  0  0  0
    4.8051    1.7454   -2.7003 C   0  0  0  0  0  0  0  0  0  0  0  0
    6.2958    1.4160   -2.5440 C   0  0  0  0  0  0  0  0  0  0  0  0
   11.2596   -0.1338   -4.3464 C   0  0  0  0  0  0  0  0  0  0  0  0
   11.2648    1.6213   -2.6887 C   0  0  0  0  0  0  0  0  0  0  0  0
   12.6063   -0.3663   -4.1148 C   0  0  0  0  0  0  0  0  0  0  0  0
   12.6131    1.3948   -2.4511 C   0  0  0  0  0  0  0  0  0  0  0  0
    7.1783    2.3206   -3.3987 C   0  0  0  0  0  0  0  0  0  0  0  0
   10.5668    0.8624   -3.6410 C   0  0  0  0  0  0  0  0  0  0  0  0
   13.3081    0.3956   -3.1599 C   0  0  0  0  0  0  0  0  0  0  0  0
    9.1300    1.0625   -3.9377 C   0  0  0  0  0  0  0  0  0  0  0  0
   14.6433    0.1312   -2.8855 N   0  0  0  0  0  0  0  0  0  0  0  0
    8.4999    0.4237   -4.7622 O   0  0  0  0  0  0  0  0  0  0  0  0
    8.5804    2.0516   -3.1853 O   0  0  0  0  0  0  0  0  0  0  0  0
   -0.6111   -0.0528   -0.6728 H   0  0  0  0  0  0  0  0  0  0  0  0
   -0.3093    0.4270   -2.3500 H   0  0  0  0  0  0  0  0  0  0  0  0
   -0.2168    1.6301   -1.0562 H   0  0  0  0  0  0  0  0  0  0  0  0
    1.6868   -0.7748   -1.3719 H   0  0  0  0  0  0  0  0  0  0  0  0
    1.7750    0.4094   -0.0785 H   0  0  0  0  0  0  0  0  0  0  0  0
    2.2229    2.2211   -1.7601 H   0  0  0  0  0  0  0  0  0  0  0  0
    2.1216    1.0438   -3.0604 H   0  0  0  0  0  0  0  0  0  0  0  0
    4.0817   -0.1998   -2.0957 H   0  0  0  0  0  0  0  0  0  0  0  0
    4.1796    0.9645   -0.7835 H   0  0  0  0  0  0  0  0  0  0  0  0
    4.6313    2.7996   -2.4367 H   0  0  0  0  0  0  0  0  0  0  0  0
    4.5180    1.6437   -3.7570 H   0  0  0  0  0  0  0  0  0  0  0  0
    6.4800    0.3743   -2.8321 H   0  0  0  0  0  0  0  0  0  0  0  0
    6.5949    1.5193   -1.4923 H   0  0  0  0  0  0  0  0  0  0  0  0
   10.7175   -0.7178   -5.0830 H   0  0  0  0  0  0  0  0  0  0  0  0
   10.7428    2.3947   -2.1363 H   0  0  0  0  0  0  0  0  0  0  0  0
   13.1280   -1.1452   -4.6663 H   0  0  0  0  0  0  0  0  0  0  0  0
   13.1409    1.9875   -1.7073 H   0  0  0  0  0  0  0  0  0  0  0  0
    7.0551    3.3712   -3.1188 H   0  0  0  0  0  0  0  0  0  0  0  0
    6.9505    2.2000   -4.4611 H   0  0  0  0  0  0  0  0  0  0  0  0
   15.1624   -0.3397   -3.6149 H   0  0  0  0  0  0  0  0  0  0  0  0
   15.1679    0.8841   -2.4597 H   0  0  0  0  0  0  0  0  0  0  0  0
  1  2  1  0  0  0  0
  1 20  1  0  0  0  0
  1 18  1  0  0  0  0
  2 22  1  0  0  0  0
  3  4  1  0  0  0  0
  3 23  1  0  0  0  0
  3  2  1  0  0  0  0
  4 26  1  0  0  0  0
  5  6  1  0  0  0  0
  5 27  1  0  0  0  0
  5  4  1  0  0  0  0
  6 30  1  0  0  0  0
  7  9  2  0  0  0  0
  7 12  1  0  0  0  0
  8 10  1  0  0  0  0
  8 32  1  0  0  0  0
  9 13  1  0  0  0  0
 10 34  1  0  0  0  0
 11 17  1  0  0  0  0
 11 35  1  0  0  0  0
 11  6  1  0  0  0  0
 12  8  2  0  0  0  0
 13 15  1  0  0  0  0
 13 10  2  0  0  0  0
 14 12  1  0  0  0  0
 14 17  1  0  0  0  0
 15 38  1  0  0  0  0
 16 14  2  0  0  0  0
 19  1  1  0  0  0  0
 21  2  1  0  0  0  0
 24  3  1  0  0  0  0
 25  4  1  0  0  0  0
 28  5  1  0  0  0  0
 29  6  1  0  0  0  0
 31  7  1  0  0  0  0
 33  9  1  0  0  0  0
 36 11  1  0  0  0  0
 37 15  1  0  0  0  0
M  END
>  <HBA>
3

>  <HBD>
1

>  <TPSA>
52.32

>  <cid>
26628

>  <dipole>
3.32

>  <excitation_energy_1>
4.676

>  <excitation_energy_2>
4.715

>  <excitation_energy_3>
4.94

>  <excitation_energy_4>
5.021

>  <homo_energy>
-5.712

>  <homo_lumo_gap>
5.034

>  <logP>
3.977

>  <lumo_energy>
-0.678

>  <melting_point>
75.44

>  <molecular_refractivity>
70.97

>  <oscillator_strength_1>
0.4771

>  <oscillator_strength_2>
0.0102

>  <oscillator_strength_3>
0.0155

>  <oscillator_strength_4>
0.0001

>  <open_babel_can_smiles>
CCCCCCCOC(=O)c1ccc(cc1)N

>  <mulliken_charges>
38
1   -0.441446
2   -0.246796
3   -0.246434
4   -0.251701
5   -0.264296
6   -0.277148
7   -0.161441
8   -0.167249
9   -0.182387
10   -0.181084
11   -0.038752
12   0.044244
13   0.333264
14   0.588865
15   -0.790181
16   -0.506421
17   -0.490085
18   0.141364
19   0.141527
20   0.140538
21   0.13124
22   0.129631
23   0.125549
24   0.127906
25   0.13258
26   0.127833
27   0.126829
28   0.136337
29   0.160667
30   0.138524
31   0.15957
32   0.152634
33   0.123017
34   0.121167
35   0.142867
36   0.165489
37   0.327117
38   0.326659

>  <lowdin_charges>
38
1   -0.443818
2   -0.268891
3   -0.271619
4   -0.26989
5   -0.270623
6   -0.284481
7   -0.119864
8   -0.128237
9   -0.203742
10   -0.205276
11   -0.127095
12   -0.075331
13   0.077272
14   0.19731
15   -0.478698
16   -0.288051
17   -0.200279
18   0.150442
19   0.145259
20   0.144669
21   0.137808
22   0.137022
23   0.135219
24   0.136475
25   0.139011
26   0.136572
27   0.135597
28   0.140333
29   0.154708
30   0.143174
31   0.177129
32   0.172317
33   0.156485
34   0.155746
35   0.145983
36   0.155087
37   0.281331
38   0.280946

$$$$

