PCCDB-ID:  7997
public computational chemistry database (PCCDB) project, http://pccdb.org

 17 16  0  0  0  0  0  0  0  0999 V2000
    0.8412   -0.1579    0.2575 C   0  0  0  0  0  0  0  0  0  0  0  0
    6.6279    1.0333    0.6175 C   0  0  0  0  0  0  0  0  0  0  0  0
    2.3647   -0.1554    0.0906 C   0  0  0  0  0  0  0  0  0  0  0  0
    2.9458    1.2483    0.2272 C   0  0  0  0  0  0  0  0  0  0  0  0
    5.1751    0.9934    1.0332 C   0  0  0  0  0  0  0  0  0  0  0  0
    4.7726    0.7579    2.1517 O   0  0  0  0  0  0  0  0  0  0  0  0
    4.3706    1.2625   -0.0227 O   0  0  0  0  0  0  0  0  0  0  0  0
    0.4387   -1.1713    0.1572 H   0  0  0  0  0  0  0  0  0  0  0  0
    0.3538    0.4696   -0.4989 H   0  0  0  0  0  0  0  0  0  0  0  0
    0.5483    0.2200    1.2442 H   0  0  0  0  0  0  0  0  0  0  0  0
    7.2595    0.8373    1.4845 H   0  0  0  0  0  0  0  0  0  0  0  0
    6.8720    2.0112    0.1900 H   0  0  0  0  0  0  0  0  0  0  0  0
    6.8168    0.2826   -0.1572 H   0  0  0  0  0  0  0  0  0  0  0  0
    2.6394   -0.5583   -0.8923 H   0  0  0  0  0  0  0  0  0  0  0  0
    2.8261   -0.8000    0.8472 H   0  0  0  0  0  0  0  0  0  0  0  0
    2.7559    1.6558    1.2240 H   0  0  0  0  0  0  0  0  0  0  0  0
    2.5286    1.9238   -0.5253 H   0  0  0  0  0  0  0  0  0  0  0  0
  1 10  1  0  0  0  0
  2  5  1  0  0  0  0
  2 11  1  0  0  0  0
  3  4  1  0  0  0  0
  3  1  1  0  0  0  0
  3 15  1  0  0  0  0
  4 16  1  0  0  0  0
  5  6  2  0  0  0  0
  7  4  1  0  0  0  0
  7  5  1  0  0  0  0
  8  1  1  0  0  0  0
  9  1  1  0  0  0  0
 12  2  1  0  0  0  0
 13  2  1  0  0  0  0
 14  3  1  0  0  0  0
 17  4  1  0  0  0  0
M  END
>  <HBA>
2

>  <HBD>
0

>  <TPSA>
26.3

>  <cid>
7997

>  <dipole>
1.75

>  <excitation_energy_1>
5.815

>  <excitation_energy_2>
7.041

>  <excitation_energy_3>
7.396

>  <excitation_energy_4>
7.553

>  <homo_energy>
-7.282

>  <homo_lumo_gap>
7.72

>  <logP>
0.96

>  <lumo_energy>
0.438

>  <melting_point>
-13.46

>  <molecular_refractivity>
27.43

>  <oscillator_strength_1>
0.0012

>  <oscillator_strength_2>
0.0309

>  <oscillator_strength_3>
0.0175

>  <oscillator_strength_4>
0.0749

>  <open_babel_can_smiles>
CCCOC(=O)C

>  <mulliken_charges>
17
1   -0.453446
2   -0.522468
3   -0.272056
4   -0.038658
5   0.599929
6   -0.46974
7   -0.455445
8   0.152834
9   0.144163
10   0.152432
11   0.181495
12   0.180858
13   0.180761
14   0.143793
15   0.162544
16   0.166315
17   0.14669

>  <lowdin_charges>
17
1   -0.444448
2   -0.465578
3   -0.285595
4   -0.132419
5   0.198557
6   -0.268096
7   -0.200049
8   0.155578
9   0.14887
10   0.151474
11   0.175566
12   0.176892
13   0.177904
14   0.146455
15   0.157682
16   0.156226
17   0.150979

$$$$

