PCCDB-ID:  66755
public computational chemistry database (PCCDB) project, http://pccdb.org

 20 20  0  0  0  0  0  0  0  0999 V2000
    1.0180   -1.2794   -1.7377 C   0  0  0  0  0  0  0  0  0  0  0  0
    2.3718   -1.0169   -2.3725 C   0  0  0  0  0  0  0  0  0  0  0  0
    7.1495    0.5166   -2.3917 C   0  0  0  0  0  0  0  0  0  0  0  0
    6.2317    1.5099   -2.0549 C   0  0  0  0  0  0  0  0  0  0  0  0
    6.7571   -0.8238   -2.3964 C   0  0  0  0  0  0  0  0  0  0  0  0
    4.9194    1.1546   -1.7337 C   0  0  0  0  0  0  0  0  0  0  0  0
    5.4492   -1.1816   -2.0635 C   0  0  0  0  0  0  0  0  0  0  0  0
    4.5142   -0.1795   -1.7355 C   0  0  0  0  0  0  0  0  0  0  0  0
    5.0221   -2.4837   -2.0331 O   0  0  0  0  0  0  0  0  0  0  0  0
    3.2341   -0.4914   -1.3480 O   0  0  0  0  0  0  0  0  0  0  0  0
    0.3194   -1.6712   -2.4855 H   0  0  0  0  0  0  0  0  0  0  0  0
    0.6000   -0.3574   -1.3208 H   0  0  0  0  0  0  0  0  0  0  0  0
    1.1096   -2.0127   -0.9301 H   0  0  0  0  0  0  0  0  0  0  0  0
    2.2899   -0.2810   -3.1858 H   0  0  0  0  0  0  0  0  0  0  0  0
    2.7987   -1.9381   -2.7837 H   0  0  0  0  0  0  0  0  0  0  0  0
    8.1731    0.7755   -2.6473 H   0  0  0  0  0  0  0  0  0  0  0  0
    6.5291    2.5544   -2.0461 H   0  0  0  0  0  0  0  0  0  0  0  0
    7.4735   -1.6038   -2.6513 H   0  0  0  0  0  0  0  0  0  0  0  0
    4.1818    1.9045   -1.4636 H   0  0  0  0  0  0  0  0  0  0  0  0
    5.7695   -3.0580   -2.2615 H   0  0  0  0  0  0  0  0  0  0  0  0
  1 12  1  0  0  0  0
  1 13  1  0  0  0  0
  2  1  1  0  0  0  0
  2 10  1  0  0  0  0
  3  4  1  0  0  0  0
  4 17  1  0  0  0  0
  4  6  2  0  0  0  0
  5  3  2  0  0  0  0
  5  7  1  0  0  0  0
  6 19  1  0  0  0  0
  7  9  1  0  0  0  0
  7  8  2  0  0  0  0
  8  6  1  0  0  0  0
  8 10  1  0  0  0  0
 11  1  1  0  0  0  0
 14  2  1  0  0  0  0
 15  2  1  0  0  0  0
 16  3  1  0  0  0  0
 18  5  1  0  0  0  0
 20  9  1  0  0  0  0
M  END
>  <HBA>
2

>  <HBD>
1

>  <TPSA>
29.46

>  <cid>
66755

>  <dipole>
2.01

>  <excitation_energy_1>
5.009

>  <excitation_energy_2>
5.107

>  <excitation_energy_3>
5.651

>  <excitation_energy_4>
5.73

>  <homo_energy>
-5.81

>  <homo_lumo_gap>
5.957

>  <logP>
1.791

>  <lumo_energy>
0.147

>  <melting_point>
48.73

>  <molecular_refractivity>
39.76

>  <oscillator_strength_1>
0.0439

>  <oscillator_strength_2>
0.0003

>  <oscillator_strength_3>
0.0313

>  <oscillator_strength_4>
0.005

>  <open_babel_can_smiles>
CCOc1ccccc1O

>  <mulliken_charges>
20
1   -0.455249
2   -0.025977
3   -0.132497
4   -0.142883
5   -0.200786
6   -0.174884
7   0.312502
8   0.33411
9   -0.641196
10   -0.532723
11   0.142813
12   0.156469
13   0.162292
14   0.126675
15   0.154863
16   0.127962
17   0.12741
18   0.117533
19   0.135291
20   0.408275

>  <lowdin_charges>
20
1   -0.450314
2   -0.122476
3   -0.155895
4   -0.172107
5   -0.212318
6   -0.170031
7   0.079549
8   0.068569
9   -0.378524
10   -0.228705
11   0.155231
12   0.156222
13   0.159492
14   0.131871
15   0.145476
16   0.15719
17   0.156873
18   0.153546
19   0.16707
20   0.359285

$$$$

