PCCDB-ID:  14275
public computational chemistry database (PCCDB) project, http://pccdb.org

 15 15  0  0  0  0  0  0  0  0999 V2000
    1.0657   -0.0476    0.1278 C   0  0  0  0  0  0  0  0  0  0  0  0
    3.2403   -1.3503   -0.0920 C   0  0  0  0  0  0  0  0  0  0  0  0
    4.6290   -1.3680   -0.2179 C   0  0  0  0  0  0  0  0  0  0  0  0
    4.5587    1.0266   -0.1473 C   0  0  0  0  0  0  0  0  0  0  0  0
    2.5672   -0.1279    0.0002 C   0  0  0  0  0  0  0  0  0  0  0  0
    5.3105   -0.1528   -0.2467 C   0  0  0  0  0  0  0  0  0  0  0  0
    3.2332    1.0415   -0.0278 N   0  0  0  0  0  0  0  0  0  0  0  0
    6.6668   -0.0363   -0.3651 O   0  0  0  0  0  0  0  0  0  0  0  0
    0.6185   -1.0366    0.2690 H   0  0  0  0  0  0  0  0  0  0  0  0
    0.6232    0.4029   -0.7690 H   0  0  0  0  0  0  0  0  0  0  0  0
    0.7861    0.5872    0.9753 H   0  0  0  0  0  0  0  0  0  0  0  0
    2.6851   -2.2837   -0.0655 H   0  0  0  0  0  0  0  0  0  0  0  0
    5.1691   -2.3107   -0.2907 H   0  0  0  0  0  0  0  0  0  0  0  0
    5.0732    1.9858   -0.1663 H   0  0  0  0  0  0  0  0  0  0  0  0
    7.0586   -0.9220   -0.4182 H   0  0  0  0  0  0  0  0  0  0  0  0
  1  9  1  0  0  0  0
  1 11  1  0  0  0  0
  2 12  1  0  0  0  0
  2  5  2  0  0  0  0
  3  2  1  0  0  0  0
  4  7  2  0  0  0  0
  5  1  1  0  0  0  0
  6  3  2  0  0  0  0
  6  4  1  0  0  0  0
  7  5  1  0  0  0  0
  8  6  1  0  0  0  0
 10  1  1  0  0  0  0
 13  3  1  0  0  0  0
 14  4  1  0  0  0  0
 15  8  1  0  0  0  0
M  END
>  <HBA>
2

>  <HBD>
1

>  <TPSA>
33.12

>  <cid>
14275

>  <dipole>
3.17

>  <excitation_energy_1>
4.801

>  <excitation_energy_2>
4.857

>  <excitation_energy_3>
5.227

>  <excitation_energy_4>
5.533

>  <homo_energy>
-6.12

>  <homo_lumo_gap>
5.578

>  <logP>
1.096

>  <lumo_energy>
-0.542

>  <melting_point>
63.63

>  <molecular_refractivity>
31.23

>  <oscillator_strength_1>
0.0038

>  <oscillator_strength_2>
0.0742

>  <oscillator_strength_3>
0.0

>  <oscillator_strength_4>
0.0003

>  <open_babel_can_smiles>
Cc1ccc(cn1)O

>  <mulliken_charges>
15
1   -0.501443
2   -0.173318
3   -0.160093
4   0.010669
5   0.295498
6   0.327267
7   -0.459519
8   -0.640938
9   0.144576
10   0.168238
11   0.170269
12   0.131893
13   0.129025
14   0.149552
15   0.408325

>  <lowdin_charges>
15
1   -0.444398
2   -0.174643
3   -0.18862
4   -0.115177
5   0.037479
6   0.080479
7   -0.146031
8   -0.37606
9   0.151437
10   0.166225
11   0.168073
12   0.161829
13   0.157616
14   0.163768
15   0.358023

$$$$

