PCCDB-ID:  17817
public computational chemistry database (PCCDB) project, http://pccdb.org

 26 27  0  0  0  0  0  0  0  0999 V2000
   -0.5122    1.5088    2.4485 C   0  0  0  0  0  0  0  0  0  0  0  0
   -0.4827    0.6301    1.3608 C   0  0  0  0  0  0  0  0  0  0  0  0
    0.5770    2.3446    2.6980 C   0  0  0  0  0  0  0  0  0  0  0  0
    4.3051    4.8277   -0.6387 C   0  0  0  0  0  0  0  0  0  0  0  0
    0.6319    0.5896    0.5292 C   0  0  0  0  0  0  0  0  0  0  0  0
    1.6877    2.3188    1.8533 C   0  0  0  0  0  0  0  0  0  0  0  0
    3.4008    3.8082   -0.3378 C   0  0  0  0  0  0  0  0  0  0  0  0
    5.6279    4.5379   -0.9593 C   0  0  0  0  0  0  0  0  0  0  0  0
    5.1597    2.1823   -0.7233 C   0  0  0  0  0  0  0  0  0  0  0  0
    1.7224    1.4451    0.7557 C   0  0  0  0  0  0  0  0  0  0  0  0
    3.8355    2.4741   -0.3757 C   0  0  0  0  0  0  0  0  0  0  0  0
    6.0753    3.2040   -1.0050 C   0  0  0  0  0  0  0  0  0  0  0  0
    2.9140    1.3110   -0.1480 C   0  0  0  0  0  0  0  0  0  0  0  0
    7.4140    2.9101   -1.2738 N   0  0  0  0  0  0  0  0  0  0  0  0
    3.1346    0.2392   -0.7029 O   0  0  0  0  0  0  0  0  0  0  0  0
   -1.3799    1.5358    3.1025 H   0  0  0  0  0  0  0  0  0  0  0  0
   -1.3275   -0.0259    1.1684 H   0  0  0  0  0  0  0  0  0  0  0  0
    0.5652    3.0155    3.5527 H   0  0  0  0  0  0  0  0  0  0  0  0
    3.9748    5.8631   -0.6279 H   0  0  0  0  0  0  0  0  0  0  0  0
    0.6831   -0.1013   -0.3060 H   0  0  0  0  0  0  0  0  0  0  0  0
    2.5375    2.9608    2.0607 H   0  0  0  0  0  0  0  0  0  0  0  0
    2.3674    4.0448   -0.1106 H   0  0  0  0  0  0  0  0  0  0  0  0
    6.3253    5.3439   -1.1774 H   0  0  0  0  0  0  0  0  0  0  0  0
    5.4628    1.1404   -0.7734 H   0  0  0  0  0  0  0  0  0  0  0  0
    7.9038    3.6047   -1.8240 H   0  0  0  0  0  0  0  0  0  0  0  0
    7.5823    1.9743   -1.6220 H   0  0  0  0  0  0  0  0  0  0  0  0
  1  3  1  0  0  0  0
  1 16  1  0  0  0  0
  2  1  2  0  0  0  0
  3 18  1  0  0  0  0
  4 19  1  0  0  0  0
  4  7  2  0  0  0  0
  5 10  2  0  0  0  0
  5  2  1  0  0  0  0
  6 21  1  0  0  0  0
  6  3  2  0  0  0  0
  7 22  1  0  0  0  0
  8  4  1  0  0  0  0
  9 11  2  0  0  0  0
 10  6  1  0  0  0  0
 11  7  1  0  0  0  0
 11 13  1  0  0  0  0
 12  8  2  0  0  0  0
 12  9  1  0  0  0  0
 13 10  1  0  0  0  0
 14 12  1  0  0  0  0
 15 13  2  0  0  0  0
 17  2  1  0  0  0  0
 20  5  1  0  0  0  0
 23  8  1  0  0  0  0
 24  9  1  0  0  0  0
 25 14  1  0  0  0  0
 26 14  1  0  0  0  0
M  END
>  <HBA>
2

>  <HBD>
1

>  <TPSA>
43.09

>  <cid>
17817

>  <dipole>
2.41

>  <excitation_energy_1>
3.445

>  <excitation_energy_2>
3.599

>  <excitation_energy_3>
4.542

>  <excitation_energy_4>
4.603

>  <homo_energy>
-5.676

>  <homo_lumo_gap>
4.106

>  <logP>
3.081

>  <lumo_energy>
-1.57

>  <melting_point>
113.91

>  <molecular_refractivity>
60.72

>  <oscillator_strength_1>
0.0214

>  <oscillator_strength_2>
0.009

>  <oscillator_strength_3>
0.0088

>  <oscillator_strength_4>
0.2101

>  <open_babel_can_smiles>
Nc1cccc(c1)C(=O)c1ccccc1

>  <mulliken_charges>
26
1   -0.119395
2   -0.135807
3   -0.137553
4   -0.141937
5   -0.150643
6   -0.175271
7   -0.188703
8   -0.161567
9   -0.206945
10   0.071544
11   0.07059
12   0.313724
13   0.317976
14   -0.789793
15   -0.468931
16   0.135189
17   0.136189
18   0.134886
19   0.131779
20   0.15781
21   0.151124
22   0.141665
23   0.12231
24   0.145519
25   0.320779
26   0.325461

>  <lowdin_charges>
26
1   -0.143381
2   -0.156754
3   -0.158825
4   -0.146941
5   -0.130252
6   -0.15114
7   -0.181264
8   -0.187124
9   -0.175828
10   -0.043608
11   -0.034349
12   0.061993
13   0.158312
14   -0.487806
15   -0.249862
16   0.160664
17   0.161275
18   0.16029
19   0.158153
20   0.174157
21   0.168644
22   0.163589
23   0.156295
24   0.167965
25   0.277601
26   0.278196

$$$$

