PCCDB-ID:  21305
public computational chemistry database (PCCDB) project, http://pccdb.org

 30 31  0  0  0  0  0  0  0  0999 V2000
    3.9132   -4.3220    2.0043 C   0  0  0  0  0  0  0  0  0  0  0  0
    4.3003   -4.1011    0.5498 C   0  0  0  0  0  0  0  0  0  0  0  0
    2.9764    2.1607   -1.4976 C   0  0  0  0  0  0  0  0  0  0  0  0
    2.5866    2.2450   -0.0619 C   0  0  0  0  0  0  0  0  0  0  0  0
    6.9003    2.0723    0.6577 C   0  0  0  0  0  0  0  0  0  0  0  0
    5.7174    2.9895    0.7788 C   0  0  0  0  0  0  0  0  0  0  0  0
    6.5886   -0.8277    0.2220 C   0  0  0  0  0  0  0  0  0  0  0  0
    3.3472    1.0120   -0.5572 C   0  0  0  0  0  0  0  0  0  0  0  0
    5.7217    1.8735   -0.2618 C   0  0  0  0  0  0  0  0  0  0  0  0
    5.1876   -0.5452    0.0816 C   0  0  0  0  0  0  0  0  0  0  0  0
    4.7544    0.7287   -0.2013 C   0  0  0  0  0  0  0  0  0  0  0  0
    4.2916   -1.7397    0.2177 C   0  0  0  0  0  0  0  0  0  0  0  0
    7.7217   -1.0765    0.3168 N   0  0  0  0  0  0  0  0  0  0  0  0
    3.0737   -1.7368    0.2009 O   0  0  0  0  0  0  0  0  0  0  0  0
    5.0249   -2.8590    0.3812 O   0  0  0  0  0  0  0  0  0  0  0  0
    3.4402   -5.3044    2.1156 H   0  0  0  0  0  0  0  0  0  0  0  0
    3.2022   -3.5597    2.3350 H   0  0  0  0  0  0  0  0  0  0  0  0
    4.7965   -4.2895    2.6501 H   0  0  0  0  0  0  0  0  0  0  0  0
    3.4215   -4.0868   -0.0993 H   0  0  0  0  0  0  0  0  0  0  0  0
    5.0000   -4.8636    0.2003 H   0  0  0  0  0  0  0  0  0  0  0  0
    3.7644    2.8196   -1.8468 H   0  0  0  0  0  0  0  0  0  0  0  0
    2.2181    1.9361   -2.2421 H   0  0  0  0  0  0  0  0  0  0  0  0
    1.5509    2.0741    0.2168 H   0  0  0  0  0  0  0  0  0  0  0  0
    3.1124    2.9555    0.5642 H   0  0  0  0  0  0  0  0  0  0  0  0
    7.0654    1.3614    1.4587 H   0  0  0  0  0  0  0  0  0  0  0  0
    7.8162    2.4458    0.2095 H   0  0  0  0  0  0  0  0  0  0  0  0
    5.7890    4.0150    0.4267 H   0  0  0  0  0  0  0  0  0  0  0  0
    5.0905    2.8593    1.6561 H   0  0  0  0  0  0  0  0  0  0  0  0
    2.7293    0.1313   -0.6496 H   0  0  0  0  0  0  0  0  0  0  0  0
    5.8758    2.2249   -1.2817 H   0  0  0  0  0  0  0  0  0  0  0  0
  1 16  1  0  0  0  0
  1 17  1  0  0  0  0
  1 18  1  0  0  0  0
  2  1  1  0  0  0  0
  3  8  1  0  0  0  0
  3  4  1  0  0  0  0
  4 23  1  0  0  0  0
  4 24  1  0  0  0  0
  5  6  1  0  0  0  0
  5 25  1  0  0  0  0
  6 28  1  0  0  0  0
  7 13  3  0  0  0  0
  8 11  1  0  0  0  0
  8  4  1  0  0  0  0
  9 11  1  0  0  0  0
  9  5  1  0  0  0  0
  9  6  1  0  0  0  0
 10 12  1  0  0  0  0
 10  7  1  0  0  0  0
 11 10  2  0  0  0  0
 12 15  1  0  0  0  0
 14 12  2  0  0  0  0
 15  2  1  0  0  0  0
 19  2  1  0  0  0  0
 20  2  1  0  0  0  0
 21  3  1  0  0  0  0
 22  3  1  0  0  0  0
 26  5  1  0  0  0  0
 27  6  1  0  0  0  0
 29  8  1  0  0  0  0
 30  9  1  0  0  0  0
M  END
>  <HBA>
3

>  <HBD>
0

>  <TPSA>
50.09

>  <cid>
21305

>  <dipole>
3.46

>  <excitation_energy_1>
4.436

>  <excitation_energy_2>
4.727

>  <excitation_energy_3>
5.322

>  <excitation_energy_4>
5.561

>  <homo_energy>
-6.789

>  <homo_lumo_gap>
5.007

>  <logP>
2.19

>  <lumo_energy>
-1.782

>  <melting_point>
77.58

>  <molecular_refractivity>
56.13

>  <oscillator_strength_1>
0.0012

>  <oscillator_strength_2>
0.488

>  <oscillator_strength_3>
0.0056

>  <oscillator_strength_4>
0.0421

>  <open_babel_can_smiles>
CCOC(=O)C(=C(C1CC1)C1CC1)C#N

>  <mulliken_charges>
30
1   -0.464241
2   -0.044515
3   -0.30599
4   -0.302573
5   -0.305777
6   -0.309749
7   0.294101
8   -0.213999
9   -0.209383
10   -0.052837
11   0.202104
12   0.652196
13   -0.513785
14   -0.502053
15   -0.469051
16   0.151575
17   0.17449
18   0.164986
19   0.169918
20   0.161428
21   0.161526
22   0.167829
23   0.169157
24   0.16924
25   0.183005
26   0.165969
27   0.1594
28   0.164692
29   0.208187
30   0.174151

>  <lowdin_charges>
30
1   -0.45546
2   -0.127098
3   -0.299296
4   -0.293359
5   -0.295979
6   -0.308952
7   -0.007738
8   -0.16917
9   -0.160233
10   -0.097945
11   0.091458
12   0.202716
13   -0.137253
14   -0.275714
15   -0.173399
16   0.159292
17   0.165451
18   0.16042
19   0.159049
20   0.158581
21   0.164393
22   0.168658
23   0.167143
24   0.169363
25   0.177079
26   0.168918
27   0.161511
28   0.164449
29   0.192143
30   0.170971

$$$$

