PCCDB-ID:  70038
public computational chemistry database (PCCDB) project, http://pccdb.org

 26 27  0  0  0  0  0  0  0  0999 V2000
    2.7150   -2.7134   -0.7692 C   0  0  0  0  0  0  0  0  0  0  0  0
    5.3926    3.0047    0.3178 C   0  0  0  0  0  0  0  0  0  0  0  0
    1.3751   -3.1005   -0.9364 C   0  0  0  0  0  0  0  0  0  0  0  0
    6.3457    2.6750   -0.6473 C   0  0  0  0  0  0  0  0  0  0  0  0
    3.0326   -1.3663   -0.7441 C   0  0  0  0  0  0  0  0  0  0  0  0
    4.1146    2.4594    0.2265 C   0  0  0  0  0  0  0  0  0  0  0  0
    0.3702   -2.1533   -1.0556 C   0  0  0  0  0  0  0  0  0  0  0  0
    6.0178    1.8133   -1.6918 C   0  0  0  0  0  0  0  0  0  0  0  0
    2.0396   -0.3725   -0.8771 C   0  0  0  0  0  0  0  0  0  0  0  0
    3.7725    1.5598   -0.7927 C   0  0  0  0  0  0  0  0  0  0  0  0
    0.6811   -0.7837   -1.0103 C   0  0  0  0  0  0  0  0  0  0  0  0
    4.7362    1.2571   -1.7726 C   0  0  0  0  0  0  0  0  0  0  0  0
    2.3547    1.0618   -0.8350 C   0  0  0  0  0  0  0  0  0  0  0  0
   -0.3329    0.0892   -1.0958 O   0  0  0  0  0  0  0  0  0  0  0  0
    4.3692    0.4406   -2.8045 O   0  0  0  0  0  0  0  0  0  0  0  0
    1.4523    1.9165   -0.7720 O   0  0  0  0  0  0  0  0  0  0  0  0
    3.4933   -3.4622   -0.6587 H   0  0  0  0  0  0  0  0  0  0  0  0
    5.6395    3.6849    1.1271 H   0  0  0  0  0  0  0  0  0  0  0  0
    1.1169   -4.1562   -0.9635 H   0  0  0  0  0  0  0  0  0  0  0  0
    7.3466    3.0950   -0.5972 H   0  0  0  0  0  0  0  0  0  0  0  0
    4.0630   -1.0582   -0.6065 H   0  0  0  0  0  0  0  0  0  0  0  0
    3.3529    2.7209    0.9546 H   0  0  0  0  0  0  0  0  0  0  0  0
   -0.6711   -2.4368   -1.1694 H   0  0  0  0  0  0  0  0  0  0  0  0
    6.7536    1.5749   -2.4579 H   0  0  0  0  0  0  0  0  0  0  0  0
    0.0646    0.9929   -0.9794 H   0  0  0  0  0  0  0  0  0  0  0  0
    5.1166    0.3462   -3.4154 H   0  0  0  0  0  0  0  0  0  0  0  0
  1  5  1  0  0  0  0
  1 17  1  0  0  0  0
  2 18  1  0  0  0  0
  3  1  2  0  0  0  0
  4 20  1  0  0  0  0
  4  2  2  0  0  0  0
  5 21  1  0  0  0  0
  6  2  1  0  0  0  0
  6 22  1  0  0  0  0
  7 11  2  0  0  0  0
  7  3  1  0  0  0  0
  8  4  1  0  0  0  0
  9 13  1  0  0  0  0
  9  5  2  0  0  0  0
 10  6  2  0  0  0  0
 11  9  1  0  0  0  0
 12  8  2  0  0  0  0
 12 10  1  0  0  0  0
 13 10  1  0  0  0  0
 13 16  2  0  0  0  0
 14 11  1  0  0  0  0
 14 25  1  0  0  0  0
 15 12  1  0  0  0  0
 19  3  1  0  0  0  0
 23  7  1  0  0  0  0
 24  8  1  0  0  0  0
 26 15  1  0  0  0  0
M  END
>  <HBA>
3

>  <HBD>
2

>  <TPSA>
57.53

>  <cid>
70038

>  <dipole>
4.68

>  <excitation_energy_1>
3.672

>  <excitation_energy_2>
3.801

>  <excitation_energy_3>
3.946

>  <excitation_energy_4>
4.604

>  <homo_energy>
-5.997

>  <homo_lumo_gap>
4.261

>  <logP>
2.329

>  <lumo_energy>
-1.736

>  <melting_point>
145.7

>  <molecular_refractivity>
60.36

>  <oscillator_strength_1>
0.1145

>  <oscillator_strength_2>
0.0135

>  <oscillator_strength_3>
0.012

>  <oscillator_strength_4>
0.153

>  <open_babel_can_smiles>
Oc1ccccc1C(=O)c1ccccc1O

>  <mulliken_charges>
26
1   -0.146902
2   -0.137845
3   -0.123835
4   -0.126475
5   -0.168234
6   -0.156856
7   -0.162789
8   -0.194639
9   0.053907
10   0.040281
11   0.309481
12   0.316318
13   0.343562
14   -0.643516
15   -0.635822
16   -0.530724
17   0.12855
18   0.136545
19   0.136789
20   0.139176
21   0.14247
22   0.153832
23   0.144106
24   0.124737
25   0.445436
26   0.412448

>  <lowdin_charges>
26
1   -0.190597
2   -0.176176
3   -0.121682
4   -0.133302
5   -0.122377
6   -0.124995
7   -0.189671
8   -0.213812
9   -0.098709
10   -0.064887
11   0.13169
12   0.104823
13   0.178092
14   -0.36456
15   -0.369477
16   -0.284971
17   0.15963
18   0.163338
19   0.160221
20   0.162142
21   0.166444
22   0.172691
23   0.16885
24   0.15737
25   0.36796
26   0.361964

$$$$

