PCCDB-ID:  10245
public computational chemistry database (PCCDB) project, http://pccdb.org

 31 33  0  0  1  0  0  0  0  0999 V2000
    1.0019    0.4597    0.3964 C   0  0  0  0  0  0  0  0  0  0  0  0
    3.7225    4.6822    1.2411 C   0  0  0  0  0  0  0  0  0  0  0  0
    3.7499    3.5145    0.4388 C   0  0  0  0  0  0  0  0  0  0  0  0
    3.3671    4.6119    2.5579 C   0  0  0  0  0  0  0  0  0  0  0  0
    4.1806   -0.9274    2.1967 C   0  0  0  0  0  0  0  0  0  0  0  0
    4.9105    0.3814    0.2897 C   0  0  0  0  0  0  0  0  0  0  0  0
    2.6497    0.9668    2.9739 C   0  0  0  0  0  0  0  0  0  0  0  0
    2.4449    0.0013    0.6387 C   0  0  2  0  0  0  0  0  0  0  0  0
    2.7771   -0.2990    2.1138 C   0  0  1  0  0  0  0  0  0  0  0  0
    3.5048    1.0224    0.1789 C   0  0  1  0  0  0  0  0  0  0  0  0
    3.4319    2.2984    0.9931 C   0  0  0  0  0  0  0  0  0  0  0  0
    2.9988    3.3589    3.1733 C   0  0  0  0  0  0  0  0  0  0  0  0
    5.1691    0.0107    1.6752 N   0  0  0  0  0  0  0  0  0  0  0  0
    3.0659    2.2219    2.3128 N   0  0  0  0  0  0  0  0  0  0  0  0
    2.6388    3.2091    4.3424 O   0  0  0  0  0  0  0  0  0  0  0  0
    0.2908   -0.2995    0.7431 H   0  0  0  0  0  0  0  0  0  0  0  0
    0.8231    0.6204   -0.6734 H   0  0  0  0  0  0  0  0  0  0  0  0
    0.7680    1.3970    0.9123 H   0  0  0  0  0  0  0  0  0  0  0  0
    3.9834    5.6404    0.7976 H   0  0  0  0  0  0  0  0  0  0  0  0
    4.0270    3.5608   -0.6085 H   0  0  0  0  0  0  0  0  0  0  0  0
    3.3304    5.4840    3.2009 H   0  0  0  0  0  0  0  0  0  0  0  0
    4.1619   -1.8901    1.6460 H   0  0  0  0  0  0  0  0  0  0  0  0
    4.4310   -1.1527    3.2400 H   0  0  0  0  0  0  0  0  0  0  0  0
    5.6736    1.0989   -0.0306 H   0  0  0  0  0  0  0  0  0  0  0  0
    4.9428   -0.4791   -0.4092 H   0  0  0  0  0  0  0  0  0  0  0  0
    3.2357    0.8794    3.8926 H   0  0  0  0  0  0  0  0  0  0  0  0
    1.6135    1.1128    3.2962 H   0  0  0  0  0  0  0  0  0  0  0  0
    2.6035   -0.9218    0.0625 H   0  0  0  0  0  0  0  0  0  0  0  0
    2.0620   -1.0302    2.5136 H   0  0  0  0  0  0  0  0  0  0  0  0
    3.3407    1.2898   -0.8718 H   0  0  0  0  0  0  0  0  0  0  0  0
    6.1111   -0.3561    1.7808 H   0  0  0  0  0  0  0  0  0  0  0  0
  1  8  1  0  0  0  0
  1 16  1  0  0  0  0
  1 18  1  0  0  0  0
  2  4  2  0  0  0  0
  3 11  2  0  0  0  0
  3  2  1  0  0  0  0
  4 12  1  0  0  0  0
  4 21  1  0  0  0  0
  5 23  1  0  0  0  0
  6 13  1  0  0  0  0
  7 27  1  0  0  0  0
  7 26  1  0  0  0  0
  8 28  1  6  0  0  0
  8  9  1  0  0  0  0
  9  5  1  0  0  0  0
  9 29  1  1  0  0  0
  9  7  1  0  0  0  0
 10 30  1  6  0  0  0
 10  6  1  0  0  0  0
 10  8  1  0  0  0  0
 10 11  1  0  0  0  0
 11 14  1  0  0  0  0
 12 15  2  0  0  0  0
 13 31  1  0  0  0  0
 13  5  1  0  0  0  0
 14  7  1  0  0  0  0
 14 12  1  0  0  0  0
 17  1  1  0  0  0  0
 19  2  1  0  0  0  0
 20  3  1  0  0  0  0
 22  5  1  0  0  0  0
 24  6  1  0  0  0  0
 25  6  1  0  0  0  0
M  END
>  <HBA>
3

>  <HBD>
1

>  <TPSA>
34.03

>  <cid>
10245

>  <dipole>
5.31

>  <excitation_energy_1>
4.242

>  <excitation_energy_2>
4.612

>  <excitation_energy_3>
4.744

>  <excitation_energy_4>
4.894

>  <homo_energy>
-5.353

>  <homo_lumo_gap>
4.754

>  <logP>
1.13

>  <lumo_energy>
-0.599

>  <melting_point>
114.78

>  <molecular_refractivity>
63.45

>  <oscillator_strength_1>
0.1582

>  <oscillator_strength_2>
0.0006

>  <oscillator_strength_3>
0.0012

>  <oscillator_strength_4>
0.0005

>  <open_babel_can_smiles>
C[C@@H]1[C@H]2CNC[C@@H]1c1n(C2)c(=O)ccc1

>  <mulliken_charges>
31
1   -0.457962
2   -0.083417
3   -0.254942
4   -0.22111
5   -0.134963
6   -0.119949
7   -0.121061
8   -0.093744
9   -0.127866
10   -0.193399
11   0.431466
12   0.595511
13   -0.550863
14   -0.543996
15   -0.558405
16   0.146724
17   0.146295
18   0.163165
19   0.135862
20   0.125451
21   0.142094
22   0.111511
23   0.144376
24   0.148504
25   0.114557
26   0.182757
27   0.170689
28   0.124451
29   0.134898
30   0.139272
31   0.304093

>  <lowdin_charges>
31
1   -0.448027
2   -0.122194
3   -0.23669
4   -0.210932
5   -0.203386
6   -0.201705
7   -0.189754
8   -0.129957
9   -0.143633
10   -0.135587
11   0.075484
12   0.144259
13   -0.361218
14   -0.032452
15   -0.333925
16   0.153574
17   0.15103
18   0.15749
19   0.161074
20   0.15864
21   0.172171
22   0.116414
23   0.146686
24   0.151833
25   0.118903
26   0.172365
27   0.160668
28   0.141321
29   0.152651
30   0.154372
31   0.260522

$$$$

