PCCDB-ID:  35403
public computational chemistry database (PCCDB) project, http://pccdb.org

 25 26  0  0  0  0  0  0  0  0999 V2000
    1.0144    0.0656    0.1286 C   0  0  0  0  0  0  0  0  0  0  0  0
    5.3856    2.5847   -0.0555 C   0  0  0  0  0  0  0  0  0  0  0  0
    2.5182   -2.5741    0.1638 C   0  0  0  0  0  0  0  0  0  0  0  0
    6.7376   -0.3140   -0.0114 C   0  0  0  0  0  0  0  0  0  0  0  0
    6.8031   -1.6819    0.0242 C   0  0  0  0  0  0  0  0  0  0  0  0
    3.2603    1.2083    0.0376 C   0  0  0  0  0  0  0  0  0  0  0  0
    2.5277   -0.0035    0.0913 C   0  0  0  0  0  0  0  0  0  0  0  0
    4.6477    1.2708   -0.0010 C   0  0  0  0  0  0  0  0  0  0  0  0
    3.2029   -1.2291    0.1078 C   0  0  0  0  0  0  0  0  0  0  0  0
    5.3455    0.0443    0.0162 C   0  0  0  0  0  0  0  0  0  0  0  0
    4.6064   -1.1649    0.0699 C   0  0  0  0  0  0  0  0  0  0  0  0
    5.5219   -2.2009    0.0731 N   0  0  0  0  0  0  0  0  0  0  0  0
    0.6751    1.1056    0.1094 H   0  0  0  0  0  0  0  0  0  0  0  0
    0.6001   -0.3957    1.0344 H   0  0  0  0  0  0  0  0  0  0  0  0
    0.5543   -0.4431   -0.7284 H   0  0  0  0  0  0  0  0  0  0  0  0
    4.6907    3.4300   -0.0846 H   0  0  0  0  0  0  0  0  0  0  0  0
    6.0288    2.6479   -0.9430 H   0  0  0  0  0  0  0  0  0  0  0  0
    6.0369    2.7163    0.8187 H   0  0  0  0  0  0  0  0  0  0  0  0
    1.4302   -2.4844    0.1712 H   0  0  0  0  0  0  0  0  0  0  0  0
    2.8034   -3.1344    1.0659 H   0  0  0  0  0  0  0  0  0  0  0  0
    2.7866   -3.1989   -0.7001 H   0  0  0  0  0  0  0  0  0  0  0  0
    7.5837    0.3579   -0.0518 H   0  0  0  0  0  0  0  0  0  0  0  0
    7.6608   -2.3403    0.0184 H   0  0  0  0  0  0  0  0  0  0  0  0
    2.6993    2.1407    0.0256 H   0  0  0  0  0  0  0  0  0  0  0  0
    5.2929   -3.1813    0.1065 H   0  0  0  0  0  0  0  0  0  0  0  0
  1 14  1  0  0  0  0
  2  8  1  0  0  0  0
  2 18  1  0  0  0  0
  3 19  1  0  0  0  0
  3 20  1  0  0  0  0
  4 10  1  0  0  0  0
  4  5  2  0  0  0  0
  5 12  1  0  0  0  0
  6  7  2  0  0  0  0
  7  9  1  0  0  0  0
  7  1  1  0  0  0  0
  8 10  2  0  0  0  0
  8  6  1  0  0  0  0
  9  3  1  0  0  0  0
 10 11  1  0  0  0  0
 11 12  1  0  0  0  0
 11  9  2  0  0  0  0
 12 25  1  0  0  0  0
 13  1  1  0  0  0  0
 15  1  1  0  0  0  0
 16  2  1  0  0  0  0
 17  2  1  0  0  0  0
 21  3  1  0  0  0  0
 22  4  1  0  0  0  0
 23  5  1  0  0  0  0
 24  6  1  0  0  0  0
M  END
>  <HBA>
0

>  <HBD>
1

>  <TPSA>
15.79

>  <cid>
35403

>  <dipole>
2.02

>  <excitation_energy_1>
4.482

>  <excitation_energy_2>
4.645

>  <excitation_energy_3>
4.751

>  <excitation_energy_4>
5.01

>  <homo_energy>
-5.091

>  <homo_lumo_gap>
5.105

>  <logP>
3.093

>  <lumo_energy>
0.014

>  <melting_point>
109.44

>  <molecular_refractivity>
53.2

>  <oscillator_strength_1>
0.0

>  <oscillator_strength_2>
0.1526

>  <oscillator_strength_3>
0.0343

>  <oscillator_strength_4>
0.0049

>  <open_babel_can_smiles>
Cc1cc(C)c2c(c1C)[nH]cc2

>  <mulliken_charges>
25
1   -0.541034
2   -0.530797
3   -0.552689
4   -0.234583
5   0.047246
6   -0.264257
7   0.110392
8   0.128816
9   0.125035
10   0.069991
11   0.240621
12   -0.688976
13   0.153711
14   0.154824
15   0.154907
16   0.150745
17   0.156302
18   0.156826
19   0.163523
20   0.152821
21   0.151663
22   0.123762
23   0.144473
24   0.101571
25   0.325108

>  <lowdin_charges>
25
1   -0.444072
2   -0.440744
3   -0.44704
4   -0.228665
5   -0.128472
6   -0.198857
7   -0.015955
8   -0.005295
9   -0.041737
10   -0.038394
11   0.022273
12   -0.199123
13   0.155049
14   0.155156
15   0.15549
16   0.155426
17   0.157198
18   0.157524
19   0.162365
20   0.153612
21   0.153259
22   0.162466
23   0.163596
24   0.147183
25   0.287757

$$$$

