PCCDB-ID:  11722
public computational chemistry database (PCCDB) project, http://pccdb.org

 10  9  0  0  0  0  0  0  0  0999 V2000
    3.3502   -0.7479    0.8110 C   0  0  0  0  0  0  0  0  0  0  0  0
    3.1446    1.2905   -0.4290 C   0  0  0  0  0  0  0  0  0  0  0  0
    2.4387    2.1358   -1.0605 N   0  0  0  0  0  0  0  0  0  0  0  0
    4.4936    1.3033   -0.1858 O   0  0  0  0  0  0  0  0  0  0  0  0
    2.5566    0.2085    0.1020 O   0  0  0  0  0  0  0  0  0  0  0  0
    2.6443   -1.5142    1.1347 H   0  0  0  0  0  0  0  0  0  0  0  0
    3.8351   -0.2977    1.6823 H   0  0  0  0  0  0  0  0  0  0  0  0
    4.1114   -1.1939    0.1638 H   0  0  0  0  0  0  0  0  0  0  0  0
    2.9976    2.9113   -1.4151 H   0  0  0  0  0  0  0  0  0  0  0  0
    4.8681    2.1026   -0.5869 H   0  0  0  0  0  0  0  0  0  0  0  0
  1  6  1  0  0  0  0
  1  7  1  0  0  0  0
  2  4  1  0  0  0  0
  2  5  1  0  0  0  0
  3  2  2  0  0  0  0
  5  1  1  0  0  0  0
  8  1  1  0  0  0  0
  9  3  1  0  0  0  0
 10  4  1  0  0  0  0
M  END
>  <HBA>
3

>  <HBD>
1

>  <TPSA>
52.32

>  <cid>
11722

>  <dipole>
3.47

>  <excitation_energy_1>
5.622

>  <excitation_energy_2>
6.248

>  <excitation_energy_3>
6.794

>  <excitation_energy_4>
7.136

>  <homo_energy>
-6.817

>  <homo_lumo_gap>
7.968

>  <logP>
0.412

>  <lumo_energy>
1.151

>  <melting_point>
53.12

>  <molecular_refractivity>
16.11

>  <oscillator_strength_1>
0.008

>  <oscillator_strength_2>
0.0357

>  <oscillator_strength_3>
0.0017

>  <oscillator_strength_4>
0.0114

>  <open_babel_can_smiles>
COC(=N)O

>  <mulliken_charges>
10
1   -0.204004
2   0.651493
3   -0.603974
4   -0.591209
5   -0.432215
6   0.171447
7   0.163391
8   0.16329
9   0.269728
10   0.412052

>  <lowdin_charges>
10
1   -0.276899
2   0.19144
3   -0.443597
4   -0.38875
5   -0.17479
6   0.165026
7   0.154356
8   0.154988
9   0.254298
10   0.363926

$$$$

