PCCDB-ID:  41163
public computational chemistry database (PCCDB) project, http://pccdb.org

 34 36  0  0  0  0  0  0  0  0999 V2000
    1.0384   -0.0100   -0.9397 C   0  0  0  0  0  0  0  0  0  0  0  0
    1.9172    5.1454    0.4238 C   0  0  0  0  0  0  0  0  0  0  0  0
    4.1504   -3.4265   -0.3515 C   0  0  0  0  0  0  0  0  0  0  0  0
    5.3558   -2.9924    0.2360 C   0  0  0  0  0  0  0  0  0  0  0  0
    3.1608    4.7268   -0.3731 C   0  0  0  0  0  0  0  0  0  0  0  0
    1.6769    4.1838    1.5969 C   0  0  0  0  0  0  0  0  0  0  0  0
    3.1074   -2.5384   -0.5874 C   0  0  0  0  0  0  0  0  0  0  0  0
    5.5434   -1.6616    0.5946 C   0  0  0  0  0  0  0  0  0  0  0  0
    3.0715    3.2570   -0.7975 C   0  0  0  0  0  0  0  0  0  0  0  0
    1.6186    2.7315    1.1091 C   0  0  0  0  0  0  0  0  0  0  0  0
    2.4126   -0.0280   -0.3367 C   0  0  0  0  0  0  0  0  0  0  0  0
    3.2626   -1.1881   -0.2299 C   0  0  0  0  0  0  0  0  0  0  0  0
    4.4912   -0.7719    0.3564 C   0  0  0  0  0  0  0  0  0  0  0  0
    3.1269    1.0291    0.1898 C   0  0  0  0  0  0  0  0  0  0  0  0
    4.3838    0.5795    0.5907 N   0  0  0  0  0  0  0  0  0  0  0  0
    2.8464    2.3983    0.3768 N   0  0  0  0  0  0  0  0  0  0  0  0
    1.0262   -0.5355   -1.9031 H   0  0  0  0  0  0  0  0  0  0  0  0
    0.6866    1.0092   -1.1206 H   0  0  0  0  0  0  0  0  0  0  0  0
    0.2977   -0.5065   -0.2975 H   0  0  0  0  0  0  0  0  0  0  0  0
    1.0403    5.1314   -0.2406 H   0  0  0  0  0  0  0  0  0  0  0  0
    2.0211    6.1758    0.7854 H   0  0  0  0  0  0  0  0  0  0  0  0
    4.0379   -4.4729   -0.6226 H   0  0  0  0  0  0  0  0  0  0  0  0
    6.1538   -3.7090    0.4111 H   0  0  0  0  0  0  0  0  0  0  0  0
    4.0572    4.8604    0.2470 H   0  0  0  0  0  0  0  0  0  0  0  0
    3.2812    5.3573   -1.2631 H   0  0  0  0  0  0  0  0  0  0  0  0
    0.7426    4.4321    2.1162 H   0  0  0  0  0  0  0  0  0  0  0  0
    2.4926    4.2788    2.3257 H   0  0  0  0  0  0  0  0  0  0  0  0
    2.1824   -2.8851   -1.0417 H   0  0  0  0  0  0  0  0  0  0  0  0
    6.4749   -1.3265    1.0438 H   0  0  0  0  0  0  0  0  0  0  0  0
    4.0013    2.9366   -1.2779 H   0  0  0  0  0  0  0  0  0  0  0  0
    2.2620    3.1366   -1.5425 H   0  0  0  0  0  0  0  0  0  0  0  0
    0.7161    2.6007    0.4838 H   0  0  0  0  0  0  0  0  0  0  0  0
    1.5291    2.0414    1.9537 H   0  0  0  0  0  0  0  0  0  0  0  0
    5.0313    1.1620    1.0991 H   0  0  0  0  0  0  0  0  0  0  0  0
  1 11  1  0  0  0  0
  1 19  1  0  0  0  0
  2 21  1  0  0  0  0
  2  6  1  0  0  0  0
  3  4  1  0  0  0  0
  4 23  1  0  0  0  0
  4  8  2  0  0  0  0
  5 24  1  0  0  0  0
  5  2  1  0  0  0  0
  6 26  1  0  0  0  0
  6 27  1  0  0  0  0
  7  3  2  0  0  0  0
  7 12  1  0  0  0  0
  8 29  1  0  0  0  0
  9  5  1  0  0  0  0
  9 16  1  0  0  0  0
 10  6  1  0  0  0  0
 10 33  1  0  0  0  0
 11 12  1  0  0  0  0
 11 14  2  0  0  0  0
 12 13  2  0  0  0  0
 13 15  1  0  0  0  0
 13  8  1  0  0  0  0
 14 16  1  0  0  0  0
 14 15  1  0  0  0  0
 15 34  1  0  0  0  0
 16 10  1  0  0  0  0
 17  1  1  0  0  0  0
 18  1  1  0  0  0  0
 20  2  1  0  0  0  0
 22  3  1  0  0  0  0
 25  5  1  0  0  0  0
 28  7  1  0  0  0  0
 30  9  1  0  0  0  0
 31  9  1  0  0  0  0
 32 10  1  0  0  0  0
M  END
>  <HBA>
1

>  <HBD>
1

>  <TPSA>
19.03

>  <cid>
41163

>  <dipole>
2.45

>  <excitation_energy_1>
4.504

>  <excitation_energy_2>
4.644

>  <excitation_energy_3>
4.733

>  <excitation_energy_4>
4.91

>  <homo_energy>
-5.089

>  <homo_lumo_gap>
5.146

>  <logP>
3.532

>  <lumo_energy>
0.057

>  <melting_point>
130.7

>  <molecular_refractivity>
72.71

>  <oscillator_strength_1>
0.1274

>  <oscillator_strength_2>
0.0003

>  <oscillator_strength_3>
0.0328

>  <oscillator_strength_4>
0.0039

>  <open_babel_can_smiles>
Cc1c([nH]c2c1cccc2)N1CCCCC1

>  <mulliken_charges>
34
1   -0.537116
2   -0.266674
3   -0.141042
4   -0.150347
5   -0.257297
6   -0.259737
7   -0.208771
8   -0.176102
9   -0.121263
10   -0.119764
11   0.098102
12   0.058161
13   0.337484
14   0.381144
15   -0.718888
16   -0.514103
17   0.15574
18   0.153589
19   0.155178
20   0.129556
21   0.13636
22   0.115834
23   0.118201
24   0.135054
25   0.133809
26   0.133214
27   0.136819
28   0.118062
29   0.117244
30   0.149063
31   0.121006
32   0.119942
33   0.150042
34   0.317501

>  <lowdin_charges>
34
1   -0.439365
2   -0.27899
3   -0.177009
4   -0.168667
5   -0.283334
6   -0.283013
7   -0.166832
8   -0.190023
9   -0.194256
10   -0.194968
11   -0.078631
12   -0.034837
13   0.032924
14   0.054381
15   -0.212385
16   -0.172426
17   0.156701
18   0.155245
19   0.156208
20   0.138724
21   0.145107
22   0.150986
23   0.154429
24   0.142848
25   0.147146
26   0.146633
27   0.143931
28   0.153856
29   0.153656
30   0.15246
31   0.123246
32   0.122491
33   0.153961
34   0.289806

$$$$

