PCCDB-ID:  15624
public computational chemistry database (PCCDB) project, http://pccdb.org

 20 20  0  0  0  0  0  0  0  0999 V2000
    2.1164    0.2621    3.1942 C   0  0  0  0  0  0  0  0  0  0  0  0
    2.8743    1.0266    2.4083 C   0  0  0  0  0  0  0  0  0  0  0  0
    6.6267   -0.8298    0.3109 C   0  0  0  0  0  0  0  0  0  0  0  0
    7.4316    0.3035    0.2081 C   0  0  0  0  0  0  0  0  0  0  0  0
    3.1806    0.7347    0.9572 C   0  0  0  0  0  0  0  0  0  0  0  0
    5.2586   -0.6803    0.5499 C   0  0  0  0  0  0  0  0  0  0  0  0
    6.8684    1.5727    0.3461 C   0  0  0  0  0  0  0  0  0  0  0  0
    4.6671    0.5775    0.6886 C   0  0  0  0  0  0  0  0  0  0  0  0
    5.4989    1.7064    0.5874 C   0  0  0  0  0  0  0  0  0  0  0  0
    4.9018    2.9349    0.7340 O   0  0  0  0  0  0  0  0  0  0  0  0
    1.9267    0.5205    4.2328 H   0  0  0  0  0  0  0  0  0  0  0  0
    1.6518   -0.6522    2.8292 H   0  0  0  0  0  0  0  0  0  0  0  0
    3.3255    1.9341    2.8079 H   0  0  0  0  0  0  0  0  0  0  0  0
    7.0564   -1.8214    0.2029 H   0  0  0  0  0  0  0  0  0  0  0  0
    8.4976    0.2078    0.0204 H   0  0  0  0  0  0  0  0  0  0  0  0
    2.7938    1.5568    0.3399 H   0  0  0  0  0  0  0  0  0  0  0  0
    2.6580   -0.1785    0.6500 H   0  0  0  0  0  0  0  0  0  0  0  0
    4.6269   -1.5621    0.6308 H   0  0  0  0  0  0  0  0  0  0  0  0
    7.4913    2.4626    0.2673 H   0  0  0  0  0  0  0  0  0  0  0  0
    5.5740    3.6248    0.6227 H   0  0  0  0  0  0  0  0  0  0  0  0
  1 11  1  0  0  0  0
  2 13  1  0  0  0  0
  2  1  2  0  0  0  0
  3  6  1  0  0  0  0
  4  3  2  0  0  0  0
  4  7  1  0  0  0  0
  5  2  1  0  0  0  0
  6 18  1  0  0  0  0
  6  8  2  0  0  0  0
  7  9  2  0  0  0  0
  8  5  1  0  0  0  0
  9  8  1  0  0  0  0
  9 10  1  0  0  0  0
 12  1  1  0  0  0  0
 14  3  1  0  0  0  0
 15  4  1  0  0  0  0
 16  5  1  0  0  0  0
 17  5  1  0  0  0  0
 19  7  1  0  0  0  0
 20 10  1  0  0  0  0
M  END
>  <HBA>
1

>  <HBD>
1

>  <TPSA>
20.23

>  <cid>
15624

>  <dipole>
1.59

>  <excitation_energy_1>
4.986

>  <excitation_energy_2>
5.159

>  <excitation_energy_3>
5.636

>  <excitation_energy_4>
5.763

>  <homo_energy>
-5.91

>  <homo_lumo_gap>
5.91

>  <logP>
2.121

>  <lumo_energy>
0.0

>  <melting_point>
26.2

>  <molecular_refractivity>
42.57

>  <oscillator_strength_1>
0.058

>  <oscillator_strength_2>
0.001

>  <oscillator_strength_3>
0.0452

>  <oscillator_strength_4>
0.0064

>  <open_babel_can_smiles>
C=CCc1ccccc1O

>  <mulliken_charges>
20
1   -0.341403
2   -0.032338
3   -0.129476
4   -0.137601
5   -0.386375
6   -0.188755
7   -0.186838
8   0.136809
9   0.295876
10   -0.649488
11   0.136332
12   0.130067
13   0.140539
14   0.125308
15   0.12889
16   0.167554
17   0.141789
18   0.125452
19   0.115455
20   0.408202

>  <lowdin_charges>
20
1   -0.346695
2   -0.137698
3   -0.177181
4   -0.147513
5   -0.268688
6   -0.153321
7   -0.213852
8   -0.027142
9   0.094322
10   -0.386606
11   0.155818
12   0.151199
13   0.157092
14   0.156779
15   0.156229
16   0.165969
17   0.15267
18   0.157352
19   0.152263
20   0.359003

$$$$

