PCCDB-ID:  21379
public computational chemistry database (PCCDB) project, http://pccdb.org

 20 20  0  0  0  0  0  0  0  0999 V2000
    2.7038   -0.9234    0.7251 C   0  0  0  0  0  0  0  0  0  0  0  0
    4.4351    3.6535    0.1141 C   0  0  0  0  0  0  0  0  0  0  0  0
    5.2611    2.5639   -0.1603 C   0  0  0  0  0  0  0  0  0  0  0  0
    2.5106    2.2145    0.0267 C   0  0  0  0  0  0  0  0  0  0  0  0
    3.0449    3.4989    0.2086 C   0  0  0  0  0  0  0  0  0  0  0  0
    4.7358    1.2803   -0.3458 C   0  0  0  0  0  0  0  0  0  0  0  0
    3.3411    1.1313   -0.2413 C   0  0  0  0  0  0  0  0  0  0  0  0
    2.2113    4.5858    0.5409 N   0  0  0  0  0  0  0  0  0  0  0  0
    5.5396    0.1480   -0.5815 N   0  0  0  0  0  0  0  0  0  0  0  0
    2.7920   -0.1246   -0.4586 O   0  0  0  0  0  0  0  0  0  0  0  0
    2.2702   -1.8799    0.4217 H   0  0  0  0  0  0  0  0  0  0  0  0
    2.0532   -0.4490    1.4712 H   0  0  0  0  0  0  0  0  0  0  0  0
    3.6940   -1.0910    1.1667 H   0  0  0  0  0  0  0  0  0  0  0  0
    4.8770    4.6378    0.2524 H   0  0  0  0  0  0  0  0  0  0  0  0
    6.3361    2.7144   -0.2349 H   0  0  0  0  0  0  0  0  0  0  0  0
    1.4384    2.0435    0.0831 H   0  0  0  0  0  0  0  0  0  0  0  0
    2.5939    5.4840    0.2668 H   0  0  0  0  0  0  0  0  0  0  0  0
    1.2659    4.4925    0.1866 H   0  0  0  0  0  0  0  0  0  0  0  0
    6.4099    0.3678   -1.0535 H   0  0  0  0  0  0  0  0  0  0  0  0
    5.0299   -0.5655   -1.0934 H   0  0  0  0  0  0  0  0  0  0  0  0
  1 13  1  0  0  0  0
  1 12  1  0  0  0  0
  2  5  1  0  0  0  0
  2 14  1  0  0  0  0
  3  2  2  0  0  0  0
  4 16  1  0  0  0  0
  4  5  2  0  0  0  0
  5  8  1  0  0  0  0
  6  7  2  0  0  0  0
  6  3  1  0  0  0  0
  7  4  1  0  0  0  0
  9  6  1  0  0  0  0
 10  7  1  0  0  0  0
 10  1  1  0  0  0  0
 11  1  1  0  0  0  0
 15  3  1  0  0  0  0
 17  8  1  0  0  0  0
 18  8  1  0  0  0  0
 19  9  1  0  0  0  0
 20  9  1  0  0  0  0
M  END
>  <HBA>
3

>  <HBD>
2

>  <TPSA>
61.27

>  <cid>
21379

>  <dipole>
1.23

>  <excitation_energy_1>
4.17

>  <excitation_energy_2>
4.281

>  <excitation_energy_3>
4.428

>  <excitation_energy_4>
4.86

>  <homo_energy>
-4.67

>  <homo_lumo_gap>
4.988

>  <logP>
2.022

>  <lumo_energy>
0.318

>  <melting_point>
108.74

>  <molecular_refractivity>
41.74

>  <oscillator_strength_1>
0.0545

>  <oscillator_strength_2>
0.0046

>  <oscillator_strength_3>
0.0079

>  <oscillator_strength_4>
0.0278

>  <open_babel_can_smiles>
COc1cc(N)ccc1N

>  <mulliken_charges>
20
1   -0.211869
2   -0.175456
3   -0.194802
4   -0.219938
5   0.292223
6   0.269429
7   0.297087
8   -0.788252
9   -0.79644
10   -0.54296
11   0.154427
12   0.145014
13   0.160755
14   0.111997
15   0.116557
16   0.118937
17   0.31267
18   0.313371
19   0.311964
20   0.325287

>  <lowdin_charges>
20
1   -0.276342
2   -0.197321
3   -0.183124
4   -0.209339
5   0.040666
6   0.012491
7   0.066905
8   -0.49786
9   -0.502337
10   -0.245861
11   0.152837
12   0.142935
13   0.148442
14   0.151372
15   0.151136
16   0.1573
17   0.270236
18   0.269895
19   0.270495
20   0.277474

$$$$

