PCCDB-ID:  10849
public computational chemistry database (PCCDB) project, http://pccdb.org

 19 18  0  0  0  0  0  0  0  0999 V2000
    2.1679    1.9861    1.0414 C   0  0  0  0  0  0  0  0  0  0  0  0
    4.2175   -1.9628   -1.5924 C   0  0  0  0  0  0  0  0  0  0  0  0
    3.0091    1.1700    1.6771 C   0  0  0  0  0  0  0  0  0  0  0  0
    4.8174   -0.7753   -1.5276 C   0  0  0  0  0  0  0  0  0  0  0  0
    3.2111   -0.2772    1.3145 C   0  0  0  0  0  0  0  0  0  0  0  0
    5.1721   -0.0195   -0.2676 C   0  0  0  0  0  0  0  0  0  0  0  0
    5.2559   -1.5572    1.5986 C   0  0  0  0  0  0  0  0  0  0  0  0
    5.8188   -2.4086    2.1702 N   0  0  0  0  0  0  0  0  0  0  0  0
    4.6209   -0.5632    0.9764 N   0  0  0  0  0  0  0  0  0  0  0  0
    2.0341    3.0208    1.3447 H   0  0  0  0  0  0  0  0  0  0  0  0
    1.5703    1.6449    0.1983 H   0  0  0  0  0  0  0  0  0  0  0  0
    4.0101   -2.4374   -2.5470 H   0  0  0  0  0  0  0  0  0  0  0  0
    3.9254   -2.5125   -0.7017 H   0  0  0  0  0  0  0  0  0  0  0  0
    3.6022    1.5334    2.5159 H   0  0  0  0  0  0  0  0  0  0  0  0
    5.1075   -0.2656   -2.4472 H   0  0  0  0  0  0  0  0  0  0  0  0
    2.5629   -0.5555    0.4735 H   0  0  0  0  0  0  0  0  0  0  0  0
    2.9532   -0.9225    2.1607 H   0  0  0  0  0  0  0  0  0  0  0  0
    4.8195    1.0168   -0.3459 H   0  0  0  0  0  0  0  0  0  0  0  0
    6.2626    0.0366   -0.1594 H   0  0  0  0  0  0  0  0  0  0  0  0
  1 10  1  0  0  0  0
  1  3  2  0  0  0  0
  2  4  2  0  0  0  0
  2 13  1  0  0  0  0
  3 14  1  0  0  0  0
  4  6  1  0  0  0  0
  5  3  1  0  0  0  0
  5 17  1  0  0  0  0
  6 19  1  0  0  0  0
  6  9  1  0  0  0  0
  7  8  3  0  0  0  0
  9  5  1  0  0  0  0
  9  7  1  0  0  0  0
 11  1  1  0  0  0  0
 12  2  1  0  0  0  0
 15  4  1  0  0  0  0
 16  5  1  0  0  0  0
 18  6  1  0  0  0  0
M  END
>  <HBA>
2

>  <HBD>
0

>  <TPSA>
27.03

>  <cid>
10849

>  <dipole>
4.98

>  <excitation_energy_1>
5.214

>  <excitation_energy_2>
5.51

>  <excitation_energy_3>
5.795

>  <excitation_energy_4>
5.918

>  <homo_energy>
-6.446

>  <homo_lumo_gap>
6.267

>  <logP>
1.141

>  <lumo_energy>
-0.18

>  <melting_point>
-31.89

>  <molecular_refractivity>
37.46

>  <oscillator_strength_1>
0.0191

>  <oscillator_strength_2>
0.0014

>  <oscillator_strength_3>
0.0048

>  <oscillator_strength_4>
0.0147

>  <open_babel_can_smiles>
C=CCN(C#N)CC=C

>  <mulliken_charges>
19
1   -0.33487
2   -0.331159
3   -0.045269
4   -0.065687
5   -0.19894
6   -0.185364
7   0.491161
8   -0.474689
9   -0.452036
10   0.154252
11   0.148227
12   0.149468
13   0.156594
14   0.148146
15   0.135854
16   0.165037
17   0.184069
18   0.171206
19   0.184002

>  <lowdin_charges>
19
1   -0.323717
2   -0.333653
3   -0.158441
4   -0.165451
5   -0.181025
6   -0.183512
7   -0.005668
8   -0.188415
9   -0.102457
10   0.164854
11   0.160367
12   0.165761
13   0.166528
14   0.161797
15   0.158595
16   0.155365
17   0.175077
18   0.16372
19   0.170278

$$$$

