PCCDB-ID:  69198
public computational chemistry database (PCCDB) project, http://pccdb.org

 21 21  0  0  0  0  0  0  0  0999 V2000
    0.8905   -0.2024    0.0318 C   0  0  0  0  0  0  0  0  0  0  0  0
    4.4996   -1.4148   -0.3160 C   0  0  0  0  0  0  0  0  0  0  0  0
    5.1997   -0.2097   -0.3396 C   0  0  0  0  0  0  0  0  0  0  0  0
    3.1106   -1.3953   -0.1846 C   0  0  0  0  0  0  0  0  0  0  0  0
    4.5156    1.0001   -0.2339 C   0  0  0  0  0  0  0  0  0  0  0  0
    2.3953   -0.1977   -0.0953 C   0  0  0  0  0  0  0  0  0  0  0  0
    3.1173    1.0158   -0.1259 C   0  0  0  0  0  0  0  0  0  0  0  0
    2.7259    3.4489   -0.5706 C   0  0  0  0  0  0  0  0  0  0  0  0
    3.5900    3.7771   -1.4503 N   0  0  0  0  0  0  0  0  0  0  0  0
    2.4105    2.2278   -0.0046 N   0  0  0  0  0  0  0  0  0  0  0  0
    1.9088    4.3991   -0.0382 O   0  0  0  0  0  0  0  0  0  0  0  0
    0.4947   -1.2149   -0.0870 H   0  0  0  0  0  0  0  0  0  0  0  0
    0.4179    0.4352   -0.7259 H   0  0  0  0  0  0  0  0  0  0  0  0
    0.5538    0.1593    1.0147 H   0  0  0  0  0  0  0  0  0  0  0  0
    5.0267   -2.3612   -0.3949 H   0  0  0  0  0  0  0  0  0  0  0  0
    6.2829   -0.2044   -0.4244 H   0  0  0  0  0  0  0  0  0  0  0  0
    2.5591   -2.3324   -0.1612 H   0  0  0  0  0  0  0  0  0  0  0  0
    5.0641    1.9352   -0.2028 H   0  0  0  0  0  0  0  0  0  0  0  0
    4.0877    2.9688   -1.8177 H   0  0  0  0  0  0  0  0  0  0  0  0
    1.5443    2.2182    0.5151 H   0  0  0  0  0  0  0  0  0  0  0  0
    2.1320    5.2149   -0.5198 H   0  0  0  0  0  0  0  0  0  0  0  0
  1 14  1  0  0  0  0
  2  4  1  0  0  0  0
  3  2  2  0  0  0  0
  3  5  1  0  0  0  0
  4 17  1  0  0  0  0
  4  6  2  0  0  0  0
  5 18  1  0  0  0  0
  5  7  2  0  0  0  0
  6  1  1  0  0  0  0
  7  6  1  0  0  0  0
  7 10  1  0  0  0  0
  8 11  1  0  0  0  0
  8 10  1  0  0  0  0
  9  8  2  0  0  0  0
 10 20  1  0  0  0  0
 12  1  1  0  0  0  0
 13  1  1  0  0  0  0
 15  2  1  0  0  0  0
 16  3  1  0  0  0  0
 19  9  1  0  0  0  0
 21 11  1  0  0  0  0
M  END
>  <HBA>
3

>  <HBD>
2

>  <TPSA>
55.12

>  <cid>
69198

>  <dipole>
2.17

>  <excitation_energy_1>
4.788

>  <excitation_energy_2>
5.054

>  <excitation_energy_3>
5.274

>  <excitation_energy_4>
5.694

>  <homo_energy>
-5.823

>  <homo_lumo_gap>
5.685

>  <logP>
2.259

>  <lumo_energy>
-0.139

>  <melting_point>
128.68

>  <molecular_refractivity>
44.01

>  <oscillator_strength_1>
0.0196

>  <oscillator_strength_2>
0.2084

>  <oscillator_strength_3>
0.0085

>  <oscillator_strength_4>
0.0018

>  <open_babel_can_smiles>
OC(=N)Nc1ccccc1C

>  <mulliken_charges>
21
1   -0.552008
2   -0.122339
3   -0.145936
4   -0.198354
5   -0.178084
6   0.154011
7   0.286631
8   0.641234
9   -0.651804
10   -0.719521
11   -0.606704
12   0.165082
13   0.169531
14   0.157775
15   0.128985
16   0.133659
17   0.125198
18   0.154033
19   0.291859
20   0.344315
21   0.422435

>  <lowdin_charges>
21
1   -0.447738
2   -0.16916
3   -0.149091
4   -0.159217
5   -0.189401
6   -0.023591
7   0.044765
8   0.165509
9   -0.483503
10   -0.259792
11   -0.383085
12   0.163147
13   0.16355
14   0.154929
15   0.158926
16   0.158088
17   0.156457
18   0.169144
19   0.263946
20   0.296867
21   0.369249

$$$$

