PCCDB-ID:  15885
public computational chemistry database (PCCDB) project, http://pccdb.org

 20 20  0  0  0  0  0  0  0  0999 V2000
    2.4004    1.1371    0.5589 C   0  0  0  0  0  0  0  0  0  0  0  0
    3.5310    0.5755   -6.7707 C   0  0  0  0  0  0  0  0  0  0  0  0
    3.9940   -0.6471   -2.1965 C   0  0  0  0  0  0  0  0  0  0  0  0
    3.2965    1.6717   -2.0779 C   0  0  0  0  0  0  0  0  0  0  0  0
    4.4593   -0.4424   -3.4882 C   0  0  0  0  0  0  0  0  0  0  0  0
    3.7658    1.8636   -3.3801 C   0  0  0  0  0  0  0  0  0  0  0  0
    3.4085    0.4098   -1.4819 C   0  0  0  0  0  0  0  0  0  0  0  0
    4.3446    0.8162   -4.1022 C   0  0  0  0  0  0  0  0  0  0  0  0
    2.9883    0.1072   -0.2207 O   0  0  0  0  0  0  0  0  0  0  0  0
    4.9752    1.0893   -5.7597 S   0  0  0  0  0  0  0  0  0  0  0  0
    2.1485    0.6794    1.5172 H   0  0  0  0  0  0  0  0  0  0  0  0
    1.4859    1.5255    0.0916 H   0  0  0  0  0  0  0  0  0  0  0  0
    3.1006    1.9661    0.7259 H   0  0  0  0  0  0  0  0  0  0  0  0
    3.8221    0.6968   -7.8182 H   0  0  0  0  0  0  0  0  0  0  0  0
    2.6630    1.2072   -6.5645 H   0  0  0  0  0  0  0  0  0  0  0  0
    3.2773   -0.4723   -6.5895 H   0  0  0  0  0  0  0  0  0  0  0  0
    4.0785   -1.6155   -1.7132 H   0  0  0  0  0  0  0  0  0  0  0  0
    2.8529    2.5052   -1.5452 H   0  0  0  0  0  0  0  0  0  0  0  0
    4.9229   -1.2612   -4.0307 H   0  0  0  0  0  0  0  0  0  0  0  0
    3.6817    2.8445   -3.8386 H   0  0  0  0  0  0  0  0  0  0  0  0
  1 13  1  0  0  0  0
  1 11  1  0  0  0  0
  2 16  1  0  0  0  0
  2 15  1  0  0  0  0
  2 10  1  0  0  0  0
  3 17  1  0  0  0  0
  3  7  2  0  0  0  0
  4 18  1  0  0  0  0
  4  7  1  0  0  0  0
  5  3  1  0  0  0  0
  6  4  2  0  0  0  0
  7  9  1  0  0  0  0
  8  5  2  0  0  0  0
  8  6  1  0  0  0  0
  9  1  1  0  0  0  0
 10  8  1  0  0  0  0
 12  1  1  0  0  0  0
 14  2  1  0  0  0  0
 19  5  1  0  0  0  0
 20  6  1  0  0  0  0
M  END
>  <HBA>
2

>  <HBD>
0

>  <TPSA>
34.53

>  <cid>
15885

>  <dipole>
2.65

>  <excitation_energy_1>
4.651

>  <excitation_energy_2>
4.822

>  <excitation_energy_3>
4.988

>  <excitation_energy_4>
5.405

>  <homo_energy>
-5.951

>  <homo_lumo_gap>
5.799

>  <logP>
2.417

>  <lumo_energy>
-0.152

>  <melting_point>
22.24

>  <molecular_refractivity>
44.66

>  <oscillator_strength_1>
0.0041

>  <oscillator_strength_2>
0.0015

>  <oscillator_strength_3>
0.0169

>  <oscillator_strength_4>
0.3054

>  <open_babel_can_smiles>
COc1ccc(cc1)SC

>  <mulliken_charges>
20
1   -0.216729
2   -0.574134
3   -0.161425
4   -0.185835
5   -0.144927
6   -0.149933
7   0.373892
8   -0.09662
9   -0.503357
10   0.070546
11   0.172026
12   0.153438
13   0.154684
14   0.1783
15   0.179367
16   0.179663
17   0.141769
18   0.134565
19   0.147132
20   0.147579

>  <lowdin_charges>
20
1   -0.279201
2   -0.540538
3   -0.182263
4   -0.216555
5   -0.144732
6   -0.142152
7   0.108561
8   -0.150605
9   -0.195477
10   0.119269
11   0.163935
12   0.146353
13   0.147476
14   0.171352
15   0.163505
16   0.161878
17   0.168473
18   0.165046
19   0.168752
20   0.166924

$$$$

