PCCDB-ID:  46462
public computational chemistry database (PCCDB) project, http://pccdb.org

 34 35  0  0  1  0  0  0  0  0999 V2000
    1.4711    0.2652    0.8852 C   0  0  0  0  0  0  0  0  0  0  0  0
    3.6940   -0.5552    1.1384 C   0  0  0  0  0  0  0  0  0  0  0  0
    0.4552    5.9136   -2.9676 C   0  0  0  0  0  0  0  0  0  0  0  0
    4.4230    2.9476   -0.2385 C   0  0  0  0  0  0  0  0  0  0  0  0
    0.1217    1.7115   -2.8574 C   0  0  0  0  0  0  0  0  0  0  0  0
    1.1009    0.9899   -2.1900 C   0  0  0  0  0  0  0  0  0  0  0  0
    3.4171    3.8173   -1.0057 C   0  0  0  0  0  0  0  0  0  0  0  0
    4.5662    1.5668   -0.8824 C   0  0  0  0  0  0  0  0  0  0  0  0
    0.1808    3.1076   -2.8985 C   0  0  0  0  0  0  0  0  0  0  0  0
    2.1571    1.6460   -1.5335 C   0  0  0  0  0  0  0  0  0  0  0  0
    2.2479    3.0441   -1.5849 C   0  0  0  0  0  0  0  0  0  0  0  0
    3.2186    0.8186   -0.8131 C   0  0  2  0  0  0  0  0  0  0  0  0
    1.2434    3.7618   -2.2742 C   0  0  0  0  0  0  0  0  0  0  0  0
    2.8783    0.5311    0.6070 N   0  0  0  0  0  0  0  0  0  0  0  0
    1.4122    5.1216   -2.2862 O   0  0  0  0  0  0  0  0  0  0  0  0
    1.3529    0.1302    1.9662 H   0  0  0  0  0  0  0  0  0  0  0  0
    1.0794   -0.6461    0.3909 H   0  0  0  0  0  0  0  0  0  0  0  0
    0.8514    1.1093    0.5791 H   0  0  0  0  0  0  0  0  0  0  0  0
    3.4783   -0.6826    2.2048 H   0  0  0  0  0  0  0  0  0  0  0  0
    4.7593   -0.3310    1.0430 H   0  0  0  0  0  0  0  0  0  0  0  0
    3.5034   -1.5245    0.6347 H   0  0  0  0  0  0  0  0  0  0  0  0
    0.7851    6.9480   -2.8520 H   0  0  0  0  0  0  0  0  0  0  0  0
   -0.5470    5.8025   -2.5326 H   0  0  0  0  0  0  0  0  0  0  0  0
    0.4114    5.6647   -4.0365 H   0  0  0  0  0  0  0  0  0  0  0  0
    4.0835    2.8027    0.7925 H   0  0  0  0  0  0  0  0  0  0  0  0
    5.3918    3.4598   -0.1946 H   0  0  0  0  0  0  0  0  0  0  0  0
   -0.6938    1.1958   -3.3578 H   0  0  0  0  0  0  0  0  0  0  0  0
    1.0559   -0.0957   -2.1681 H   0  0  0  0  0  0  0  0  0  0  0  0
    3.9234    4.3244   -1.8403 H   0  0  0  0  0  0  0  0  0  0  0  0
    3.0442    4.6286   -0.3687 H   0  0  0  0  0  0  0  0  0  0  0  0
    5.3604    0.9933   -0.3935 H   0  0  0  0  0  0  0  0  0  0  0  0
    4.8557    1.6600   -1.9381 H   0  0  0  0  0  0  0  0  0  0  0  0
   -0.5869    3.6638   -3.4243 H   0  0  0  0  0  0  0  0  0  0  0  0
    3.3086   -0.1369   -1.3657 H   0  0  0  0  0  0  0  0  0  0  0  0
  1 16  1  0  0  0  0
  2 19  1  0  0  0  0
  3 22  1  0  0  0  0
  3 23  1  0  0  0  0
  3 15  1  0  0  0  0
  4 26  1  0  0  0  0
  4 25  1  0  0  0  0
  5  6  1  0  0  0  0
  6 28  1  0  0  0  0
  6 10  2  0  0  0  0
  7 30  1  0  0  0  0
  7  4  1  0  0  0  0
  8 12  1  0  0  0  0
  8 31  1  0  0  0  0
  8  4  1  0  0  0  0
  9  5  2  0  0  0  0
  9 13  1  0  0  0  0
 10 12  1  0  0  0  0
 11 10  1  0  0  0  0
 11  7  1  0  0  0  0
 12 34  1  6  0  0  0
 12 14  1  0  0  0  0
 13 11  2  0  0  0  0
 14  1  1  0  0  0  0
 14  2  1  0  0  0  0
 15 13  1  0  0  0  0
 17  1  1  0  0  0  0
 18  1  1  0  0  0  0
 20  2  1  0  0  0  0
 21  2  1  0  0  0  0
 24  3  1  0  0  0  0
 27  5  1  0  0  0  0
 29  7  1  0  0  0  0
 32  8  1  0  0  0  0
 33  9  1  0  0  0  0
M  END
>  <HBA>
2

>  <HBD>
0

>  <TPSA>
12.47

>  <cid>
46462

>  <dipole>
1.29

>  <excitation_energy_1>
4.739

>  <excitation_energy_2>
4.978

>  <excitation_energy_3>
5.08

>  <excitation_energy_4>
5.142

>  <homo_energy>
-5.472

>  <homo_lumo_gap>
5.641

>  <logP>
2.634

>  <lumo_energy>
0.169

>  <melting_point>
40.66

>  <molecular_refractivity>
62.88

>  <oscillator_strength_1>
0.0233

>  <oscillator_strength_2>
0.0195

>  <oscillator_strength_3>
0.0108

>  <oscillator_strength_4>
0.0251

>  <open_babel_can_smiles>
COc1cccc2c1CCC[C@H]2N(C)C

>  <mulliken_charges>
34
1   -0.296555
2   -0.298361
3   -0.21283
4   -0.26594
5   -0.140719
6   -0.179765
7   -0.322489
8   -0.280005
9   -0.196409
10   0.071646
11   0.06229
12   -0.016271
13   0.322445
14   -0.374331
15   -0.508762
16   0.141498
17   0.111126
18   0.168033
19   0.147519
20   0.151145
21   0.114721
22   0.167732
23   0.151063
24   0.150958
25   0.15867
26   0.125692
27   0.124834
28   0.120321
29   0.149435
30   0.154314
31   0.130477
32   0.133846
33   0.127566
34   0.107107

>  <lowdin_charges>
34
1   -0.358813
2   -0.354816
3   -0.274297
4   -0.280466
5   -0.156392
6   -0.180695
7   -0.273868
8   -0.280867
9   -0.217182
10   -0.015255
11   -0.031917
12   -0.055745
13   0.09507
14   -0.185695
15   -0.200607
16   0.144721
17   0.117445
18   0.161553
19   0.148036
20   0.147742
21   0.118011
22   0.160261
23   0.143646
24   0.142592
25   0.151832
26   0.142205
27   0.156988
28   0.151211
29   0.153717
30   0.158799
31   0.144513
32   0.142041
33   0.161793
34   0.124437

$$$$

