PCCDB-ID:  29446
public computational chemistry database (PCCDB) project, http://pccdb.org

 34 36  0  0  1  0  0  0  0  0999 V2000
    0.4740    0.5577   -0.1183 C   0  0  0  0  0  0  0  0  0  0  0  0
    4.2276   -1.6187   -2.5233 C   0  0  0  0  0  0  0  0  0  0  0  0
    7.7401    3.3333   -0.4067 C   0  0  0  0  0  0  0  0  0  0  0  0
    8.7596    2.8105    0.4151 C   0  0  0  0  0  0  0  0  0  0  0  0
    6.6067    2.5874   -0.7059 C   0  0  0  0  0  0  0  0  0  0  0  0
    8.6654    1.5317    0.9525 C   0  0  0  0  0  0  0  0  0  0  0  0
    3.0135    1.0309   -0.2437 C   0  0  0  0  0  0  0  0  0  0  0  0
    5.9337   -0.8030    0.4613 C   0  0  0  0  0  0  0  0  0  0  0  0
    2.1915   -0.9145   -1.3582 C   0  0  0  0  0  0  0  0  0  0  0  0
    1.8868   -0.0235   -0.1497 C   0  0  2  0  0  0  0  0  0  0  0  0
    6.4822    1.2881   -0.1822 C   0  0  0  0  0  0  0  0  0  0  0  0
    5.4793    0.2551   -0.2846 C   0  0  0  0  0  0  0  0  0  0  0  0
    7.5241    0.7835    0.6462 C   0  0  0  0  0  0  0  0  0  0  0  0
    4.1734    0.3322   -1.0277 C   0  0  1  0  0  0  0  0  0  0  0  0
    7.1582   -0.4914    1.0259 N   0  0  0  0  0  0  0  0  0  0  0  0
    3.6464   -1.0127   -1.3399 N   0  0  0  0  0  0  0  0  0  0  0  0
    0.3308    1.2027    0.7566 H   0  0  0  0  0  0  0  0  0  0  0  0
   -0.2839   -0.2340   -0.0729 H   0  0  0  0  0  0  0  0  0  0  0  0
    0.2754    1.1615   -1.0128 H   0  0  0  0  0  0  0  0  0  0  0  0
    3.8446   -2.6385   -2.6452 H   0  0  0  0  0  0  0  0  0  0  0  0
    5.3150   -1.6738   -2.4125 H   0  0  0  0  0  0  0  0  0  0  0  0
    4.0039   -1.0560   -3.4517 H   0  0  0  0  0  0  0  0  0  0  0  0
    7.8445    4.3375   -0.8087 H   0  0  0  0  0  0  0  0  0  0  0  0
    9.6344    3.4173    0.6329 H   0  0  0  0  0  0  0  0  0  0  0  0
    5.8270    3.0046   -1.3383 H   0  0  0  0  0  0  0  0  0  0  0  0
    9.4508    1.1299    1.5880 H   0  0  0  0  0  0  0  0  0  0  0  0
    3.3400    1.3823    0.7389 H   0  0  0  0  0  0  0  0  0  0  0  0
    2.6608    1.9060   -0.8034 H   0  0  0  0  0  0  0  0  0  0  0  0
    5.4694   -1.7645    0.6242 H   0  0  0  0  0  0  0  0  0  0  0  0
    1.8123   -0.4378   -2.2874 H   0  0  0  0  0  0  0  0  0  0  0  0
    1.7378   -1.9113   -1.2915 H   0  0  0  0  0  0  0  0  0  0  0  0
    2.0468   -0.6277    0.7529 H   0  0  0  0  0  0  0  0  0  0  0  0
    4.3439    0.9004   -1.9628 H   0  0  0  0  0  0  0  0  0  0  0  0
    7.7130   -1.1146    1.5909 H   0  0  0  0  0  0  0  0  0  0  0  0
  1 18  1  0  0  0  0
  1 17  1  0  0  0  0
  2 21  1  0  0  0  0
  2 16  1  0  0  0  0
  3  4  1  0  0  0  0
  4 24  1  0  0  0  0
  4  6  2  0  0  0  0
  5  3  2  0  0  0  0
  5 11  1  0  0  0  0
  6 26  1  0  0  0  0
  7 10  1  0  0  0  0
  7 27  1  0  0  0  0
  8 29  1  0  0  0  0
  8 15  1  0  0  0  0
  9 16  1  0  0  0  0
  9 31  1  0  0  0  0
  9 10  1  0  0  0  0
 10  1  1  0  0  0  0
 10 32  1  1  0  0  0
 11 13  2  0  0  0  0
 12 11  1  0  0  0  0
 12  8  2  0  0  0  0
 13  6  1  0  0  0  0
 13 15  1  0  0  0  0
 14 33  1  6  0  0  0
 14 12  1  0  0  0  0
 14  7  1  0  0  0  0
 15 34  1  0  0  0  0
 16 14  1  0  0  0  0
 19  1  1  0  0  0  0
 20  2  1  0  0  0  0
 22  2  1  0  0  0  0
 23  3  1  0  0  0  0
 25  5  1  0  0  0  0
 28  7  1  0  0  0  0
 30  9  1  0  0  0  0
M  END
>  <HBA>
1

>  <HBD>
1

>  <TPSA>
19.03

>  <cid>
29446

>  <dipole>
1.71

>  <excitation_energy_1>
4.518

>  <excitation_energy_2>
4.667

>  <excitation_energy_3>
4.755

>  <excitation_energy_4>
4.813

>  <homo_energy>
-5.206

>  <homo_lumo_gap>
5.2

>  <logP>
3.119

>  <lumo_energy>
-0.005

>  <melting_point>
121.66

>  <molecular_refractivity>
72.0

>  <oscillator_strength_1>
0.0576

>  <oscillator_strength_2>
0.0007

>  <oscillator_strength_3>
0.0011

>  <oscillator_strength_4>
0.0189

>  <open_babel_can_smiles>
C[C@H]1CN([C@@H](C1)c1c[nH]c2c1cccc2)C

>  <mulliken_charges>
34
1   -0.452737
2   -0.299026
3   -0.141048
4   -0.151776
5   -0.210308
6   -0.163974
7   -0.297161
8   0.008243
9   -0.107629
10   -0.07837
11   0.078204
12   0.054643
13   0.316129
14   -0.01455
15   -0.696354
16   -0.406679
17   0.145799
18   0.141557
19   0.14063
20   0.143302
21   0.15615
22   0.116768
23   0.117608
24   0.120003
25   0.121322
26   0.118055
27   0.151143
28   0.131495
29   0.156105
30   0.101055
31   0.133522
32   0.134412
33   0.109392
34   0.324074

>  <lowdin_charges>
34
1   -0.445143
2   -0.355471
3   -0.176865
4   -0.166853
5   -0.166219
6   -0.190026
7   -0.286167
8   -0.130822
9   -0.202155
10   -0.126766
11   -0.037006
12   -0.070892
13   0.032386
14   -0.051889
15   -0.204958
16   -0.185801
17   0.151679
18   0.149291
19   0.146497
20   0.146345
21   0.152216
22   0.119724
23   0.152372
24   0.154876
25   0.155207
26   0.154812
27   0.154412
28   0.143811
29   0.170121
30   0.112627
31   0.141413
32   0.143676
33   0.124318
34   0.291252

$$$$

