PCCDB-ID:  27533
public computational chemistry database (PCCDB) project, http://pccdb.org

 24 24  0  0  1  0  0  0  0  0999 V2000
    1.1409    0.0041   -0.4435 C   0  0  0  0  0  0  0  0  0  0  0  0
    4.5208    1.2501    3.2218 C   0  0  0  0  0  0  0  0  0  0  0  0
    3.9492    1.8674    0.3806 C   0  0  0  0  0  0  0  0  0  0  0  0
    2.3551   -1.3185    1.4142 C   0  0  0  0  0  0  0  0  0  0  0  0
    3.4705   -0.9598    2.4019 C   0  0  0  0  0  0  0  0  0  0  0  0
    2.4257   -0.1904    0.3648 C   0  0  2  0  0  0  0  0  0  0  0  0
    3.3148    0.5646    2.5741 C   0  0  2  0  0  0  0  0  0  0  0  0
    2.8821    1.0821    1.1534 C   0  0  1  0  0  0  0  0  0  0  0  0
    0.8734   -0.9049   -0.9961 H   0  0  0  0  0  0  0  0  0  0  0  0
    0.2987    0.2536    0.2152 H   0  0  0  0  0  0  0  0  0  0  0  0
    1.2460    0.8168   -1.1722 H   0  0  0  0  0  0  0  0  0  0  0  0
    4.7135    0.8266    4.2150 H   0  0  0  0  0  0  0  0  0  0  0  0
    4.3574    2.3268    3.3499 H   0  0  0  0  0  0  0  0  0  0  0  0
    5.4327    1.1198    2.6278 H   0  0  0  0  0  0  0  0  0  0  0  0
    3.5772    2.1371   -0.6158 H   0  0  0  0  0  0  0  0  0  0  0  0
    4.8629    1.2771    0.2365 H   0  0  0  0  0  0  0  0  0  0  0  0
    4.2286    2.7969    0.8891 H   0  0  0  0  0  0  0  0  0  0  0  0
    1.3829   -1.2952    1.9282 H   0  0  0  0  0  0  0  0  0  0  0  0
    2.4620   -2.3149    0.9695 H   0  0  0  0  0  0  0  0  0  0  0  0
    4.4516   -1.1920    1.9622 H   0  0  0  0  0  0  0  0  0  0  0  0
    3.4061   -1.5008    3.3536 H   0  0  0  0  0  0  0  0  0  0  0  0
    3.2332   -0.4486   -0.3379 H   0  0  0  0  0  0  0  0  0  0  0  0
    2.4551    0.7201    3.2422 H   0  0  0  0  0  0  0  0  0  0  0  0
    2.0174    1.7483    1.2813 H   0  0  0  0  0  0  0  0  0  0  0  0
  1 10  1  0  0  0  0
  1  6  1  0  0  0  0
  2 13  1  0  0  0  0
  2 12  1  0  0  0  0
  3 17  1  0  0  0  0
  3  8  1  0  0  0  0
  4 18  1  0  0  0  0
  4  5  1  0  0  0  0
  5  7  1  0  0  0  0
  5 21  1  0  0  0  0
  6 22  1  6  0  0  0
  6  8  1  0  0  0  0
  6  4  1  0  0  0  0
  7  2  1  0  0  0  0
  7 23  1  1  0  0  0
  8 24  1  1  0  0  0
  8  7  1  0  0  0  0
  9  1  1  0  0  0  0
 11  1  1  0  0  0  0
 14  2  1  0  0  0  0
 15  3  1  0  0  0  0
 16  3  1  0  0  0  0
 19  4  1  0  0  0  0
 20  5  1  0  0  0  0
M  END
>  <HBA>
0

>  <HBD>
0

>  <TPSA>
0.0

>  <cid>
27533

>  <dipole>
0.05

>  <excitation_energy_1>
7.467

>  <excitation_energy_2>
7.579

>  <excitation_energy_3>
7.716

>  <excitation_energy_4>
7.789

>  <homo_energy>
-7.943

>  <homo_lumo_gap>
10.18

>  <logP>
2.688

>  <lumo_energy>
2.237

>  <melting_point>
-5.31

>  <molecular_refractivity>
38.46

>  <oscillator_strength_1>
0.0017

>  <oscillator_strength_2>
0.0159

>  <oscillator_strength_3>
0.0174

>  <oscillator_strength_4>
0.0031

>  <open_babel_can_smiles>
C[C@@H]1[C@H](C)CC[C@H]1C

>  <mulliken_charges>
24
1   -0.453143
2   -0.451228
3   -0.456751
4   -0.270344
5   -0.267718
6   -0.073603
7   -0.078523
8   -0.074635
9   0.139635
10   0.138166
11   0.140582
12   0.139096
13   0.139998
14   0.141379
15   0.140435
16   0.139815
17   0.141237
18   0.125505
19   0.128763
20   0.125902
21   0.128611
22   0.120164
23   0.119247
24   0.117409

>  <lowdin_charges>
24
1   -0.445151
2   -0.442621
3   -0.445009
4   -0.280976
5   -0.281683
6   -0.127574
7   -0.130295
8   -0.134013
9   0.148029
10   0.144812
11   0.147598
12   0.148303
13   0.145512
14   0.146638
15   0.147432
16   0.143933
17   0.14759
18   0.136842
19   0.142125
20   0.136463
21   0.142161
22   0.136465
23   0.136531
24   0.136891

$$$$

