PCCDB-ID:  67163
public computational chemistry database (PCCDB) project, http://pccdb.org

 17 16  0  0  0  0  0  0  0  0999 V2000
    1.6463   -0.2295    1.1712 C   0  0  0  0  0  0  0  0  0  0  0  0
    1.1262    0.5436    2.3736 C   0  0  0  0  0  0  0  0  0  0  0  0
   -0.2047    2.4468    2.9080 C   0  0  0  0  0  0  0  0  0  0  0  0
   -1.0319    3.5601    2.2582 C   0  0  0  0  0  0  0  0  0  0  0  0
   -1.6207    4.4993    2.8758 N   0  0  0  0  0  0  0  0  0  0  0  0
    2.3983   -1.3166    1.6888 O   0  0  0  0  0  0  0  0  0  0  0  0
   -1.1204    3.4831    0.9152 O   0  0  0  0  0  0  0  0  0  0  0  0
    0.3617    1.6401    1.8911 O   0  0  0  0  0  0  0  0  0  0  0  0
    2.2602    0.4399    0.5493 H   0  0  0  0  0  0  0  0  0  0  0  0
    0.7934   -0.5679    0.5630 H   0  0  0  0  0  0  0  0  0  0  0  0
    1.9702    0.9002    2.9821 H   0  0  0  0  0  0  0  0  0  0  0  0
    0.5066   -0.1139    3.0013 H   0  0  0  0  0  0  0  0  0  0  0  0
   -0.8544    1.8446    3.5625 H   0  0  0  0  0  0  0  0  0  0  0  0
    0.5820    2.8945    3.5343 H   0  0  0  0  0  0  0  0  0  0  0  0
   -1.4569    4.4177    3.8820 H   0  0  0  0  0  0  0  0  0  0  0  0
    2.7392   -1.8295    0.9415 H   0  0  0  0  0  0  0  0  0  0  0  0
   -0.5921    2.7112    0.6372 H   0  0  0  0  0  0  0  0  0  0  0  0
  1  6  1  0  0  0  0
  1  2  1  0  0  0  0
  2 11  1  0  0  0  0
  2 12  1  0  0  0  0
  3 14  1  0  0  0  0
  3 13  1  0  0  0  0
  4  5  2  0  0  0  0
  4  3  1  0  0  0  0
  5 15  1  0  0  0  0
  7  4  1  0  0  0  0
  8  2  1  0  0  0  0
  8  3  1  0  0  0  0
  9  1  1  0  0  0  0
 10  1  1  0  0  0  0
 16  6  1  0  0  0  0
 17  7  1  0  0  0  0
M  END
>  <HBA>
4

>  <HBD>
2

>  <TPSA>
72.55

>  <cid>
67163

>  <dipole>
4.91

>  <excitation_energy_1>
6.248

>  <excitation_energy_2>
6.347

>  <excitation_energy_3>
6.487

>  <excitation_energy_4>
6.549

>  <homo_energy>
-6.958

>  <homo_lumo_gap>
7.734

>  <logP>
-0.819

>  <lumo_energy>
0.776

>  <melting_point>
60.07

>  <molecular_refractivity>
26.5

>  <oscillator_strength_1>
0.0035

>  <oscillator_strength_2>
0.0007

>  <oscillator_strength_3>
0.0008

>  <oscillator_strength_4>
0.0268

>  <open_babel_can_smiles>
OCCOCC(=N)O

>  <mulliken_charges>
17
1   -0.052131
2   -0.015458
3   -0.095379
4   0.460654
5   -0.582088
6   -0.618546
7   -0.579529
8   -0.517801
9   0.137813
10   0.13634
11   0.147963
12   0.147476
13   0.161476
14   0.160119
15   0.278057
16   0.402285
17   0.42875

>  <lowdin_charges>
17
1   -0.141251
2   -0.13219
3   -0.170171
4   0.116754
5   -0.401691
6   -0.467848
7   -0.35554
8   -0.280294
9   0.136736
10   0.135019
11   0.143261
12   0.143707
13   0.154276
14   0.153909
15   0.252417
16   0.352498
17   0.360408

$$$$

