PCCDB-ID:  24781
public computational chemistry database (PCCDB) project, http://pccdb.org

 12 12  0  0  0  0  0  0  0  0999 V2000
    0.9592    0.0136   -0.0742 C   0  0  0  0  0  0  0  0  0  0  0  0
    3.2593    1.2700   -0.0587 C   0  0  0  0  0  0  0  0  0  0  0  0
    2.4396    0.1818   -0.0651 C   0  0  0  0  0  0  0  0  0  0  0  0
    4.5672    0.6968   -0.0521 C   0  0  0  0  0  0  0  0  0  0  0  0
    4.5511   -0.6166   -0.0538 N   0  0  0  0  0  0  0  0  0  0  0  0
    5.7625    1.3291   -0.0428 O   0  0  0  0  0  0  0  0  0  0  0  0
    3.1815   -0.9440   -0.0614 O   0  0  0  0  0  0  0  0  0  0  0  0
    0.4666    0.9891   -0.0737 H   0  0  0  0  0  0  0  0  0  0  0  0
    0.6248   -0.5474    0.8058 H   0  0  0  0  0  0  0  0  0  0  0  0
    0.6348   -0.5413   -0.9618 H   0  0  0  0  0  0  0  0  0  0  0  0
    2.9818    2.3143   -0.0598 H   0  0  0  0  0  0  0  0  0  0  0  0
    5.6072    2.2846   -0.0585 H   0  0  0  0  0  0  0  0  0  0  0  0
  1  8  1  0  0  0  0
  1  3  1  0  0  0  0
  1  9  1  0  0  0  0
  2  4  1  0  0  0  0
  3  7  1  0  0  0  0
  3  2  2  0  0  0  0
  4  6  1  0  0  0  0
  5  4  2  0  0  0  0
  7  5  1  0  0  0  0
 10  1  1  0  0  0  0
 11  2  1  0  0  0  0
 12  6  1  0  0  0  0
M  END
>  <HBA>
2

>  <HBD>
1

>  <TPSA>
46.0

>  <cid>
24781

>  <dipole>
4.84

>  <excitation_energy_1>
5.702

>  <excitation_energy_2>
6.132

>  <excitation_energy_3>
6.173

>  <excitation_energy_4>
6.269

>  <homo_energy>
-6.71

>  <homo_lumo_gap>
6.634

>  <logP>
0.276

>  <lumo_energy>
-0.076

>  <melting_point>
89.1

>  <molecular_refractivity>
24.29

>  <oscillator_strength_1>
0.001

>  <oscillator_strength_2>
0.0037

>  <oscillator_strength_3>
0.0553

>  <oscillator_strength_4>
0.0001

>  <open_babel_can_smiles>
Oc1noc(c1)C

>  <mulliken_charges>
12
1   -0.527844
2   -0.316521
3   0.435267
4   0.503511
5   -0.222037
6   -0.608543
7   -0.371109
8   0.171503
9   0.186982
10   0.186912
11   0.143074
12   0.418804

>  <lowdin_charges>
12
1   -0.442603
2   -0.289269
3   0.105021
4   0.098089
5   -0.108637
6   -0.348373
7   -0.078736
8   0.171184
9   0.177872
10   0.177764
11   0.171055
12   0.366633

$$$$

