PCCDB-ID:  14242
public computational chemistry database (PCCDB) project, http://pccdb.org

 23 22  0  0  0  0  0  0  0  0999 V2000
    5.1505   -1.1761   -0.7088 C   0  0  0  0  0  0  0  0  0  0  0  0
   -0.5922   -6.0038    3.8466 C   0  0  0  0  0  0  0  0  0  0  0  0
    1.0577   -1.8111    1.8899 C   0  0  0  0  0  0  0  0  0  0  0  0
    2.5159   -2.2182    1.6630 C   0  0  0  0  0  0  0  0  0  0  0  0
    0.4061   -2.5282    3.0754 C   0  0  0  0  0  0  0  0  0  0  0  0
    3.1704   -1.4313    0.5457 C   0  0  0  0  0  0  0  0  0  0  0  0
    0.1931   -4.0143    2.8520 C   0  0  0  0  0  0  0  0  0  0  0  0
    2.6558   -0.5332   -0.0855 O   0  0  0  0  0  0  0  0  0  0  0  0
    0.4390   -4.6235    1.8321 O   0  0  0  0  0  0  0  0  0  0  0  0
    4.4372   -1.8589    0.3341 O   0  0  0  0  0  0  0  0  0  0  0  0
   -0.3301   -4.5949    3.9552 O   0  0  0  0  0  0  0  0  0  0  0  0
    5.2421   -0.1106   -0.4804 H   0  0  0  0  0  0  0  0  0  0  0  0
    4.6344   -1.2886   -1.6661 H   0  0  0  0  0  0  0  0  0  0  0  0
    6.1342   -1.6454   -0.7467 H   0  0  0  0  0  0  0  0  0  0  0  0
    0.3308   -6.5523    3.6408 H   0  0  0  0  0  0  0  0  0  0  0  0
   -1.3076   -6.2015    3.0438 H   0  0  0  0  0  0  0  0  0  0  0  0
   -1.0068   -6.2994    4.8109 H   0  0  0  0  0  0  0  0  0  0  0  0
    0.4835   -2.0110    0.9797 H   0  0  0  0  0  0  0  0  0  0  0  0
    1.0071   -0.7301    2.0571 H   0  0  0  0  0  0  0  0  0  0  0  0
    2.5889   -3.2842    1.4225 H   0  0  0  0  0  0  0  0  0  0  0  0
    3.1157   -2.0678    2.5718 H   0  0  0  0  0  0  0  0  0  0  0  0
   -0.5760   -2.0900    3.2957 H   0  0  0  0  0  0  0  0  0  0  0  0
    0.9942   -2.4042    3.9945 H   0  0  0  0  0  0  0  0  0  0  0  0
  1 12  1  0  0  0  0
  1 10  1  0  0  0  0
  2 11  1  0  0  0  0
  2 17  1  0  0  0  0
  3 19  1  0  0  0  0
  3  5  1  0  0  0  0
  4  3  1  0  0  0  0
  4 21  1  0  0  0  0
  5 22  1  0  0  0  0
  5 23  1  0  0  0  0
  6  4  1  0  0  0  0
  7  5  1  0  0  0  0
  7 11  1  0  0  0  0
  8  6  2  0  0  0  0
  9  7  2  0  0  0  0
 10  6  1  0  0  0  0
 13  1  1  0  0  0  0
 14  1  1  0  0  0  0
 15  2  1  0  0  0  0
 16  2  1  0  0  0  0
 18  3  1  0  0  0  0
 20  4  1  0  0  0  0
M  END
>  <HBA>
4

>  <HBD>
0

>  <TPSA>
52.6

>  <cid>
14242

>  <dipole>
2.29

>  <excitation_energy_1>
5.823

>  <excitation_energy_2>
5.87

>  <excitation_energy_3>
6.9

>  <excitation_energy_4>
6.938

>  <homo_energy>
-7.268

>  <homo_lumo_gap>
7.532

>  <logP>
0.503

>  <lumo_energy>
0.264

>  <melting_point>
-2.34

>  <molecular_refractivity>
38.33

>  <oscillator_strength_1>
0.0009

>  <oscillator_strength_2>
0.0006

>  <oscillator_strength_3>
0.0079

>  <oscillator_strength_4>
0.0233

>  <open_babel_can_smiles>
COC(=O)CCCC(=O)OC

>  <mulliken_charges>
23
1   -0.216763
2   -0.218126
3   -0.24549
4   -0.368692
5   -0.370127
6   0.62116
7   0.622261
8   -0.479916
9   -0.478767
10   -0.453859
11   -0.451093
12   0.167469
13   0.170196
14   0.162732
15   0.170009
16   0.171034
17   0.165101
18   0.167997
19   0.153677
20   0.200048
21   0.163309
22   0.178261
23   0.169579

>  <lowdin_charges>
23
1   -0.27664
2   -0.278177
3   -0.265699
4   -0.305963
5   -0.3024
6   0.200011
7   0.196528
8   -0.266192
9   -0.267259
10   -0.196924
11   -0.195298
12   0.15587
13   0.158796
14   0.158971
15   0.159525
16   0.160295
17   0.160829
18   0.163072
19   0.155193
20   0.180089
21   0.164234
22   0.173904
23   0.167236

$$$$

