PCCDB-ID:  6956
public computational chemistry database (PCCDB) project, http://pccdb.org

 20 20  0  0  0  0  0  0  0  0999 V2000
   -1.2800   -0.0634    0.0733 C   0  0  0  0  0  0  0  0  0  0  0  0
   -0.5342   -1.1451    0.5406 C   0  0  0  0  0  0  0  0  0  0  0  0
   -0.6224    1.0827   -0.3662 C   0  0  0  0  0  0  0  0  0  0  0  0
    0.8565   -1.0766    0.5457 C   0  0  0  0  0  0  0  0  0  0  0  0
    0.7769    1.1717   -0.3378 C   0  0  0  0  0  0  0  0  0  0  0  0
    1.5407    0.0683    0.1079 C   0  0  0  0  0  0  0  0  0  0  0  0
    1.3712    2.4570   -0.8179 C   0  0  0  0  0  0  0  0  0  0  0  0
    3.0477   -0.0101    0.0696 C   0  0  0  0  0  0  0  0  0  0  0  0
    1.2995    2.9865   -1.9681 N   0  0  0  0  0  0  0  0  0  0  0  0
    3.7055   -1.0264   -0.3298 N   0  0  0  0  0  0  0  0  0  0  0  0
    2.0113    3.1372    0.1842 O   0  0  0  0  0  0  0  0  0  0  0  0
    3.7548    1.0552    0.5067 O   0  0  0  0  0  0  0  0  0  0  0  0
   -2.3650   -0.1060    0.0562 H   0  0  0  0  0  0  0  0  0  0  0  0
   -1.0312   -2.0418    0.8997 H   0  0  0  0  0  0  0  0  0  0  0  0
   -1.1936    1.9342   -0.7251 H   0  0  0  0  0  0  0  0  0  0  0  0
    1.4370   -1.9203    0.9067 H   0  0  0  0  0  0  0  0  0  0  0  0
    0.8092    2.3785   -2.6244 H   0  0  0  0  0  0  0  0  0  0  0  0
    3.0681   -1.7488   -0.6647 H   0  0  0  0  0  0  0  0  0  0  0  0
    2.3956    3.9336   -0.2322 H   0  0  0  0  0  0  0  0  0  0  0  0
    3.1632    1.7897    0.7539 H   0  0  0  0  0  0  0  0  0  0  0  0
  1  2  2  0  0  0  0
  2  4  1  0  0  0  0
  2 14  1  0  0  0  0
  3  5  2  0  0  0  0
  3  1  1  0  0  0  0
  4 16  1  0  0  0  0
  5  6  1  0  0  0  0
  6  4  2  0  0  0  0
  7  5  1  0  0  0  0
  7 11  1  0  0  0  0
  8  6  1  0  0  0  0
  8 12  1  0  0  0  0
  9  7  2  0  0  0  0
 10  8  2  0  0  0  0
 12 20  1  0  0  0  0
 13  1  1  0  0  0  0
 15  3  1  0  0  0  0
 17  9  1  0  0  0  0
 18 10  1  0  0  0  0
 19 11  1  0  0  0  0
M  END
>  <HBA>
4

>  <HBD>
2

>  <TPSA>
86.18

>  <cid>
6956

>  <dipole>
5.12

>  <excitation_energy_1>
4.774

>  <excitation_energy_2>
4.924

>  <excitation_energy_3>
5.053

>  <excitation_energy_4>
5.381

>  <homo_energy>
-6.855

>  <homo_lumo_gap>
5.516

>  <logP>
1.285

>  <lumo_energy>
-1.339

>  <melting_point>
183.94

>  <molecular_refractivity>
42.63

>  <oscillator_strength_1>
0.023

>  <oscillator_strength_2>
0.0142

>  <oscillator_strength_3>
0.0707

>  <oscillator_strength_4>
0.0211

>  <open_babel_can_smiles>
OC(=N)c1ccccc1C(=N)O

>  <mulliken_charges>
20
1   -0.125782
2   -0.121046
3   -0.164955
4   -0.189895
5   0.061459
6   0.046402
7   0.379669
8   0.422656
9   -0.591433
10   -0.581364
11   -0.595518
12   -0.599735
13   0.147028
14   0.147443
15   0.152487
16   0.158106
17   0.305794
18   0.283956
19   0.426538
20   0.43819

>  <lowdin_charges>
20
1   -0.143386
2   -0.143862
3   -0.149494
4   -0.150417
5   -0.037101
6   -0.037424
7   0.131042
8   0.124874
9   -0.397074
10   -0.395512
11   -0.368367
12   -0.366313
13   0.164861
14   0.167531
15   0.169821
16   0.172357
17   0.273831
18   0.257266
19   0.370748
20   0.35662

$$$$

