PCCDB-ID:  13861
public computational chemistry database (PCCDB) project, http://pccdb.org

 25 25  0  0  1  0  0  0  0  0999 V2000
    1.1136   -0.0347    0.2960 C   0  0  0  0  0  0  0  0  0  0  0  0
    2.6303   -0.0759    0.0832 C   0  0  0  0  0  0  0  0  0  0  0  0
    3.0386   -0.7913   -1.2106 C   0  0  0  0  0  0  0  0  0  0  0  0
    6.6743   -0.2297   -3.8950 C   0  0  0  0  0  0  0  0  0  0  0  0
    4.5547   -0.8377   -1.4298 C   0  0  0  0  0  0  0  0  0  0  0  0
    6.4798   -1.4903   -3.0139 C   0  0  0  0  0  0  0  0  0  0  0  0
    5.2306    0.1858   -4.2720 C   0  0  0  0  0  0  0  0  0  0  0  0
    4.9607   -1.5263   -2.7414 C   0  0  2  0  0  0  0  0  0  0  0  0
    4.3795   -0.8924   -3.8882 O   0  0  0  0  0  0  0  0  0  0  0  0
    0.8527    0.4843    1.2255 H   0  0  0  0  0  0  0  0  0  0  0  0
    0.6933   -1.0466    0.3504 H   0  0  0  0  0  0  0  0  0  0  0  0
    0.6123    0.4861   -0.5291 H   0  0  0  0  0  0  0  0  0  0  0  0
    3.1065   -0.5725    0.9411 H   0  0  0  0  0  0  0  0  0  0  0  0
    3.0252    0.9502    0.0696 H   0  0  0  0  0  0  0  0  0  0  0  0
    2.5716   -0.2978   -2.0723 H   0  0  0  0  0  0  0  0  0  0  0  0
    2.6437   -1.8186   -1.1975 H   0  0  0  0  0  0  0  0  0  0  0  0
    7.2707   -0.4589   -4.7830 H   0  0  0  0  0  0  0  0  0  0  0  0
    7.1887    0.5727   -3.3570 H   0  0  0  0  0  0  0  0  0  0  0  0
    5.0372   -1.3724   -0.5985 H   0  0  0  0  0  0  0  0  0  0  0  0
    4.9620    0.1843   -1.4111 H   0  0  0  0  0  0  0  0  0  0  0  0
    7.0661   -1.4547   -2.0901 H   0  0  0  0  0  0  0  0  0  0  0  0
    6.7812   -2.3891   -3.5611 H   0  0  0  0  0  0  0  0  0  0  0  0
    5.0883    0.3440   -5.3455 H   0  0  0  0  0  0  0  0  0  0  0  0
    4.9409    1.1131   -3.7545 H   0  0  0  0  0  0  0  0  0  0  0  0
    4.5708   -2.5515   -2.7409 H   0  0  0  0  0  0  0  0  0  0  0  0
  1 11  1  0  0  0  0
  1 10  1  0  0  0  0
  2  1  1  0  0  0  0
  2 13  1  0  0  0  0
  3 16  1  0  0  0  0
  3  2  1  0  0  0  0
  4 18  1  0  0  0  0
  4  6  1  0  0  0  0
  5 20  1  0  0  0  0
  5  3  1  0  0  0  0
  5 19  1  0  0  0  0
  6  8  1  0  0  0  0
  6 21  1  0  0  0  0
  7  4  1  0  0  0  0
  7  9  1  0  0  0  0
  7 24  1  0  0  0  0
  8 25  1  1  0  0  0
  8  5  1  0  0  0  0
  9  8  1  0  0  0  0
 12  1  1  0  0  0  0
 14  2  1  0  0  0  0
 15  3  1  0  0  0  0
 17  4  1  0  0  0  0
 22  6  1  0  0  0  0
 23  7  1  0  0  0  0
M  END
>  <HBA>
1

>  <HBD>
0

>  <TPSA>
9.23

>  <cid>
13861

>  <dipole>
1.52

>  <excitation_energy_1>
6.15

>  <excitation_energy_2>
6.597

>  <excitation_energy_3>
6.738

>  <excitation_energy_4>
6.795

>  <homo_energy>
-6.58

>  <homo_lumo_gap>
8.691

>  <logP>
2.356

>  <lumo_energy>
2.112

>  <melting_point>
-14.26

>  <molecular_refractivity>
39.54

>  <oscillator_strength_1>
0.0068

>  <oscillator_strength_2>
0.0076

>  <oscillator_strength_3>
0.0076

>  <oscillator_strength_4>
0.0038

>  <open_babel_can_smiles>
CCCC[C@@H]1CCCO1

>  <mulliken_charges>
25
1   -0.440668
2   -0.247377
3   -0.247177
4   -0.310977
5   -0.271856
6   -0.288995
7   -0.020444
8   0.133617
9   -0.485444
10   0.13968
11   0.141014
12   0.142727
13   0.126895
14   0.127807
15   0.149695
16   0.124344
17   0.148701
18   0.143463
19   0.126233
20   0.126963
21   0.140583
22   0.146254
23   0.142025
24   0.125731
25   0.127204

>  <lowdin_charges>
25
1   -0.444952
2   -0.271704
3   -0.276135
4   -0.302249
5   -0.292194
6   -0.294576
7   -0.135223
8   -0.000721
9   -0.279195
10   0.148324
11   0.145454
12   0.148019
13   0.137496
14   0.136502
15   0.14995
16   0.136132
17   0.152285
18   0.149498
19   0.14281
20   0.138271
21   0.149604
22   0.151241
23   0.144822
24   0.12712
25   0.13942

$$$$

