PCCDB-ID:  73325
public computational chemistry database (PCCDB) project, http://pccdb.org

 18 19  0  0  1  0  0  0  0  0999 V2000
    4.8604   -1.0397   -4.1725 C   0  0  0  0  0  0  0  0  0  0  0  0
    5.5285   -2.0423   -3.3375 C   0  0  0  0  0  0  0  0  0  0  0  0
    3.5702   -1.1530   -4.5104 C   0  0  0  0  0  0  0  0  0  0  0  0
    4.8596   -3.0702   -2.8007 C   0  0  0  0  0  0  0  0  0  0  0  0
    2.7072   -2.3197   -4.0595 C   0  0  1  0  0  0  0  0  0  0  0  0
    3.3605   -3.2463   -2.9758 C   0  0  2  0  0  0  0  0  0  0  0  0
    1.3979   -1.7947   -3.4863 C   0  0  0  0  0  0  0  0  0  0  0  0
    2.7163   -3.0568   -1.5976 C   0  0  0  0  0  0  0  0  0  0  0  0
    1.5551   -1.1315   -2.1915 N   0  0  0  0  0  0  0  0  0  0  0  0
    2.2020   -1.7133   -1.2939 N   0  0  0  0  0  0  0  0  0  0  0  0
    0.3185   -1.8181   -4.0214 O   0  0  0  0  0  0  0  0  0  0  0  0
    2.6742   -3.9024   -0.7409 O   0  0  0  0  0  0  0  0  0  0  0  0
    5.4456   -0.2015   -4.5404 H   0  0  0  0  0  0  0  0  0  0  0  0
    6.5974   -1.9440   -3.1690 H   0  0  0  0  0  0  0  0  0  0  0  0
    3.0901   -0.4235   -5.1575 H   0  0  0  0  0  0  0  0  0  0  0  0
    5.3541   -3.8125   -2.1807 H   0  0  0  0  0  0  0  0  0  0  0  0
    2.4287   -2.9105   -4.9414 H   0  0  0  0  0  0  0  0  0  0  0  0
    3.1569   -4.2927   -3.2298 H   0  0  0  0  0  0  0  0  0  0  0  0
  1  2  1  0  0  0  0
  2 14  1  0  0  0  0
  2  4  2  0  0  0  0
  3  1  2  0  0  0  0
  3  5  1  0  0  0  0
  4 16  1  0  0  0  0
  5 17  1  6  0  0  0
  5  7  1  0  0  0  0
  5  6  1  0  0  0  0
  6 18  1  6  0  0  0
  6  4  1  0  0  0  0
  6  8  1  0  0  0  0
  7  9  1  0  0  0  0
  8 10  1  0  0  0  0
  8 12  2  0  0  0  0
  9 10  2  0  0  0  0
 11  7  2  0  0  0  0
 13  1  1  0  0  0  0
 15  3  1  0  0  0  0
M  END
>  <HBA>
4

>  <HBD>
0

>  <TPSA>
58.86

>  <cid>
73325

>  <dipole>
4.83

>  <excitation_energy_1>
1.641

>  <excitation_energy_2>
2.921

>  <excitation_energy_3>
3.059

>  <excitation_energy_4>
3.801

>  <homo_energy>
-6.169

>  <homo_lumo_gap>
2.955

>  <logP>
-0.265

>  <lumo_energy>
-3.214

>  <melting_point>
95.15

>  <molecular_refractivity>
47.3

>  <oscillator_strength_1>
0.0016

>  <oscillator_strength_2>
0.0023

>  <oscillator_strength_3>
0.0017

>  <oscillator_strength_4>
0.0044

>  <open_babel_can_smiles>
O=C1N=NC(=O)[C@@H]2[C@H]1C=CC=C2

>  <mulliken_charges>
18
1   -0.118722
2   -0.111071
3   -0.119906
4   -0.122623
5   -0.213467
6   -0.240613
7   0.508954
8   0.527434
9   -0.16317
10   -0.178162
11   -0.396812
12   -0.393696
13   0.149654
14   0.149698
15   0.163102
16   0.166849
17   0.194614
18   0.197938

>  <lowdin_charges>
18
1   -0.156604
2   -0.153941
3   -0.158854
4   -0.15332
5   -0.149809
6   -0.15318
7   0.148666
8   0.15596
9   -0.037433
10   -0.041043
11   -0.177393
12   -0.175128
13   0.169766
14   0.167392
15   0.172894
16   0.175325
17   0.182114
18   0.184591

$$$$

