PCCDB-ID:  41123
public computational chemistry database (PCCDB) project, http://pccdb.org

 27 27  0  0  1  0  0  0  0  0999 V2000
    3.1812   -1.0878    0.9573 C   0  0  0  0  0  0  0  0  0  0  0  0
    3.1982   -2.6713   -2.0941 C   0  0  0  0  0  0  0  0  0  0  0  0
    0.8191   -1.8784   -1.9490 C   0  0  0  0  0  0  0  0  0  0  0  0
    2.4040   -0.1231    0.0531 C   0  0  0  0  0  0  0  0  0  0  0  0
    1.8362    0.5268   -3.6761 C   0  0  0  0  0  0  0  0  0  0  0  0
    2.0683    0.9982   -2.2147 C   0  0  0  0  0  0  0  0  0  0  0  0
    2.3626   -0.9225   -3.7186 C   0  0  0  0  0  0  0  0  0  0  0  0
    2.7085   -0.1958   -1.4540 C   0  0  2  0  0  0  0  0  0  0  0  0
    2.2677   -1.4595   -2.2675 C   0  0  0  0  0  0  0  0  0  0  0  0
    2.9958   -0.8614    2.0138 H   0  0  0  0  0  0  0  0  0  0  0  0
    4.2621   -1.0090    0.7867 H   0  0  0  0  0  0  0  0  0  0  0  0
    2.8958   -2.1317    0.7933 H   0  0  0  0  0  0  0  0  0  0  0  0
    2.9557   -3.4490   -2.8298 H   0  0  0  0  0  0  0  0  0  0  0  0
    3.1129   -3.1256   -1.1018 H   0  0  0  0  0  0  0  0  0  0  0  0
    4.2477   -2.3890   -2.2447 H   0  0  0  0  0  0  0  0  0  0  0  0
    0.5038   -2.6922   -2.6135 H   0  0  0  0  0  0  0  0  0  0  0  0
    0.1085   -1.0537   -2.0787 H   0  0  0  0  0  0  0  0  0  0  0  0
    0.7211   -2.2403   -0.9189 H   0  0  0  0  0  0  0  0  0  0  0  0
    2.6249    0.9038    0.3780 H   0  0  0  0  0  0  0  0  0  0  0  0
    1.3254   -0.2552    0.2152 H   0  0  0  0  0  0  0  0  0  0  0  0
    2.3465    1.1640   -4.4062 H   0  0  0  0  0  0  0  0  0  0  0  0
    0.7701    0.5611   -3.9271 H   0  0  0  0  0  0  0  0  0  0  0  0
    1.1172    1.2767   -1.7433 H   0  0  0  0  0  0  0  0  0  0  0  0
    2.7088    1.8855   -2.1574 H   0  0  0  0  0  0  0  0  0  0  0  0
    3.4172   -0.9269   -4.0270 H   0  0  0  0  0  0  0  0  0  0  0  0
    1.8215   -1.5567   -4.4316 H   0  0  0  0  0  0  0  0  0  0  0  0
    3.8012   -0.1230   -1.5738 H   0  0  0  0  0  0  0  0  0  0  0  0
  1 10  1  0  0  0  0
  2 14  1  0  0  0  0
  3 18  1  0  0  0  0
  4 20  1  0  0  0  0
  4 19  1  0  0  0  0
  4  1  1  0  0  0  0
  5  6  1  0  0  0  0
  6 24  1  0  0  0  0
  6 23  1  0  0  0  0
  6  8  1  0  0  0  0
  7  5  1  0  0  0  0
  7  9  1  0  0  0  0
  8 27  1  6  0  0  0
  8  4  1  0  0  0  0
  9  2  1  0  0  0  0
  9  3  1  0  0  0  0
  9  8  1  0  0  0  0
 11  1  1  0  0  0  0
 12  1  1  0  0  0  0
 13  2  1  0  0  0  0
 15  2  1  0  0  0  0
 16  3  1  0  0  0  0
 17  3  1  0  0  0  0
 21  5  1  0  0  0  0
 22  5  1  0  0  0  0
 25  7  1  0  0  0  0
 26  7  1  0  0  0  0
M  END
>  <HBA>
0

>  <HBD>
0

>  <TPSA>
0.0

>  <cid>
41123

>  <dipole>
0.08

>  <excitation_energy_1>
7.259

>  <excitation_energy_2>
7.652

>  <excitation_energy_3>
7.666

>  <excitation_energy_4>
7.701

>  <homo_energy>
-7.766

>  <homo_lumo_gap>
9.739

>  <logP>
3.223

>  <lumo_energy>
1.973

>  <melting_point>
12.71

>  <molecular_refractivity>
43.0

>  <oscillator_strength_1>
0.0071

>  <oscillator_strength_2>
0.0352

>  <oscillator_strength_3>
0.0028

>  <oscillator_strength_4>
0.0153

>  <open_babel_can_smiles>
CC[C@@H]1CCCC1(C)C

>  <mulliken_charges>
27
1   -0.448797
2   -0.456088
3   -0.461214
4   -0.261647
5   -0.278145
6   -0.283948
7   -0.267438
8   -0.069767
9   0.101057
10   0.139549
11   0.140676
12   0.148266
13   0.136296
14   0.142564
15   0.135454
16   0.138021
17   0.142242
18   0.142693
19   0.130612
20   0.131695
21   0.133323
22   0.135216
23   0.132196
24   0.133023
25   0.127312
26   0.126503
27   0.110344

>  <lowdin_charges>
27
1   -0.443016
2   -0.442533
3   -0.446982
4   -0.271466
5   -0.287426
6   -0.28681
7   -0.280676
8   -0.129365
9   0.006717
10   0.147019
11   0.144589
12   0.145376
13   0.146853
14   0.146708
15   0.143936
16   0.148611
17   0.148674
18   0.146931
19   0.141151
20   0.1385
21   0.146075
22   0.140652
23   0.140615
24   0.144592
25   0.137917
26   0.142466
27   0.130893

$$$$

