PCCDB-ID:  2526
public computational chemistry database (PCCDB) project, http://pccdb.org

 19 18  0  0  0  0  0  0  0  0999 V2000
    1.3778   -1.3855   -0.0480 C   0  0  0  0  0  0  0  0  0  0  0  0
    2.3439   -1.0000    2.2772 C   0  0  0  0  0  0  0  0  0  0  0  0
    1.4300   -0.4699    1.1759 C   0  0  0  0  0  0  0  0  0  0  0  0
    0.6598   -0.8145   -1.1467 O   0  0  0  0  0  0  0  0  0  0  0  0
    2.3403   -0.1595    3.4118 O   0  0  0  0  0  0  0  0  0  0  0  0
    1.5966    3.2933    0.4034 O   0  0  0  0  0  0  0  0  0  0  0  0
    1.6097    1.7606   -1.5485 O   0  0  0  0  0  0  0  0  0  0  0  0
   -0.4070    1.6306    0.1558 O   0  0  0  0  0  0  0  0  0  0  0  0
    1.9678    0.8290    0.8135 O   0  0  0  0  0  0  0  0  0  0  0  0
    1.0426    1.8574   -0.0433 P   0  0  0  0  0  0  0  0  0  0  0  0
    0.9356   -2.3494    0.2406 H   0  0  0  0  0  0  0  0  0  0  0  0
    2.3882   -1.5716   -0.4243 H   0  0  0  0  0  0  0  0  0  0  0  0
    3.3601   -1.1299    1.8694 H   0  0  0  0  0  0  0  0  0  0  0  0
    1.9845   -1.9798    2.6083 H   0  0  0  0  0  0  0  0  0  0  0  0
    0.4247   -0.3156    1.5836 H   0  0  0  0  0  0  0  0  0  0  0  0
   -0.1986   -0.4848   -0.8193 H   0  0  0  0  0  0  0  0  0  0  0  0
    2.5678    0.7304    3.0949 H   0  0  0  0  0  0  0  0  0  0  0  0
    2.3154    3.5987   -0.1741 H   0  0  0  0  0  0  0  0  0  0  0  0
    1.4181    0.8449   -1.8549 H   0  0  0  0  0  0  0  0  0  0  0  0
  1 11  1  0  0  0  0
  1  3  1  0  0  0  0
  2 14  1  0  0  0  0
  2  5  1  0  0  0  0
  3 15  1  0  0  0  0
  3  2  1  0  0  0  0
  4 16  1  0  0  0  0
  4  1  1  0  0  0  0
  7 10  1  0  0  0  0
  9  3  1  0  0  0  0
 10  8  2  0  0  0  0
 10  6  1  0  0  0  0
 10  9  1  0  0  0  0
 12  1  1  0  0  0  0
 13  2  1  0  0  0  0
 17  5  1  0  0  0  0
 18  6  1  0  0  0  0
 19  7  1  0  0  0  0
M  END
>  <HBA>
6

>  <HBD>
4

>  <TPSA>
117.03

>  <cid>
2526

>  <dipole>
3.45

>  <excitation_energy_1>
6.586

>  <excitation_energy_2>
6.839

>  <excitation_energy_3>
6.985

>  <excitation_energy_4>
7.263

>  <homo_energy>
-7.557

>  <homo_lumo_gap>
8.275

>  <logP>
-1.551

>  <lumo_energy>
0.718

>  <melting_point>
92.39

>  <molecular_refractivity>
30.93

>  <oscillator_strength_1>
0.0094

>  <oscillator_strength_2>
0.0043

>  <oscillator_strength_3>
0.0226

>  <oscillator_strength_4>
0.0031

>  <open_babel_can_smiles>
OCC(OP(=O)(O)O)CO

>  <mulliken_charges>
19
1   -0.037301
2   -0.029044
3   0.051446
4   -0.643277
5   -0.61367
6   -0.625441
7   -0.679042
8   -0.582598
9   -0.560333
10   1.203443
11   0.15109
12   0.163618
13   0.132444
14   0.153076
15   0.179705
16   0.42408
17   0.408606
18   0.44568
19   0.457521

>  <lowdin_charges>
19
1   -0.145252
2   -0.138635
3   -0.027852
4   -0.457381
5   -0.453411
6   -0.547096
7   -0.585836
8   -0.593946
9   -0.408299
10   1.118218
11   0.148883
12   0.156404
13   0.133984
14   0.155017
15   0.164451
16   0.36116
17   0.350338
18   0.391404
19   0.377848

$$$$

