PCCDB-ID:  40298
public computational chemistry database (PCCDB) project, http://pccdb.org

 32 33  0  0  1  0  0  0  0  0999 V2000
    0.8417   -0.1797   -0.0288 C   0  0  0  0  0  0  0  0  0  0  0  0
    2.4078    2.1325    1.1088 C   0  0  0  0  0  0  0  0  0  0  0  0
    4.5599   -4.9136   -2.4726 C   0  0  0  0  0  0  0  0  0  0  0  0
    3.5348    1.4925   -2.3964 C   0  0  0  0  0  0  0  0  0  0  0  0
    2.6385    2.0992   -1.3158 C   0  0  0  0  0  0  0  0  0  0  0  0
    3.9162   -0.7340   -3.5294 C   0  0  0  0  0  0  0  0  0  0  0  0
    2.9416   -2.1234   -1.3552 C   0  0  0  0  0  0  0  0  0  0  0  0
    2.3808   -0.0053   -0.0960 C   0  0  1  0  0  0  0  0  0  0  0  0
    3.4515   -0.0187   -2.4169 C   0  0  0  0  0  0  0  0  0  0  0  0
    2.9455   -0.7220   -1.3166 C   0  0  0  0  0  0  0  0  0  0  0  0
    3.8934   -2.1252   -3.5688 C   0  0  0  0  0  0  0  0  0  0  0  0
    3.4075   -2.8365   -2.4539 C   0  0  0  0  0  0  0  0  0  0  0  0
    2.8479    1.3890   -0.0593 N   0  0  0  0  0  0  0  0  0  0  0  0
    4.3195   -2.8462   -4.6549 O   0  0  0  0  0  0  0  0  0  0  0  0
    3.3172   -4.2083   -2.4461 O   0  0  0  0  0  0  0  0  0  0  0  0
    0.5777   -1.2420   -0.0448 H   0  0  0  0  0  0  0  0  0  0  0  0
    0.3473    0.2942   -0.8837 H   0  0  0  0  0  0  0  0  0  0  0  0
    0.4307    0.2521    0.8903 H   0  0  0  0  0  0  0  0  0  0  0  0
    2.9781    3.0662    1.1780 H   0  0  0  0  0  0  0  0  0  0  0  0
    2.6115    1.5468    2.0128 H   0  0  0  0  0  0  0  0  0  0  0  0
    1.3335    2.3955    1.1113 H   0  0  0  0  0  0  0  0  0  0  0  0
    4.3059   -5.9738   -2.3996 H   0  0  0  0  0  0  0  0  0  0  0  0
    5.1872   -4.6318   -1.6158 H   0  0  0  0  0  0  0  0  0  0  0  0
    5.1078   -4.7310   -3.4021 H   0  0  0  0  0  0  0  0  0  0  0  0
    4.5727    1.7922   -2.1945 H   0  0  0  0  0  0  0  0  0  0  0  0
    3.2728    1.9044   -3.3801 H   0  0  0  0  0  0  0  0  0  0  0  0
    1.5814    2.0902   -1.6449 H   0  0  0  0  0  0  0  0  0  0  0  0
    2.9075    3.1506   -1.1626 H   0  0  0  0  0  0  0  0  0  0  0  0
    4.3021   -0.1873   -4.3904 H   0  0  0  0  0  0  0  0  0  0  0  0
    2.5665   -2.6988   -0.5126 H   0  0  0  0  0  0  0  0  0  0  0  0
    2.7997   -0.4864    0.8000 H   0  0  0  0  0  0  0  0  0  0  0  0
    4.6087   -2.2238   -5.3403 H   0  0  0  0  0  0  0  0  0  0  0  0
  1 18  1  0  0  0  0
  2 21  1  0  0  0  0
  2 19  1  0  0  0  0
  2 20  1  0  0  0  0
  3 15  1  0  0  0  0
  3 22  1  0  0  0  0
  3 23  1  0  0  0  0
  4 25  1  0  0  0  0
  4  5  1  0  0  0  0
  5 28  1  0  0  0  0
  5 13  1  0  0  0  0
  6  9  1  0  0  0  0
  7 10  1  0  0  0  0
  7 30  1  0  0  0  0
  8 13  1  0  0  0  0
  8  1  1  0  0  0  0
  8 31  1  1  0  0  0
  9  4  1  0  0  0  0
  9 10  2  0  0  0  0
 10  8  1  0  0  0  0
 11  6  2  0  0  0  0
 11 12  1  0  0  0  0
 12 15  1  0  0  0  0
 12  7  2  0  0  0  0
 13  2  1  0  0  0  0
 14 11  1  0  0  0  0
 16  1  1  0  0  0  0
 17  1  1  0  0  0  0
 24  3  1  0  0  0  0
 26  4  1  0  0  0  0
 27  5  1  0  0  0  0
 29  6  1  0  0  0  0
 32 14  1  0  0  0  0
M  END
>  <HBA>
3

>  <HBD>
1

>  <TPSA>
32.7

>  <cid>
40298

>  <dipole>
1.96

>  <excitation_energy_1>
4.664

>  <excitation_energy_2>
4.779

>  <excitation_energy_3>
4.897

>  <excitation_energy_4>
5.041

>  <homo_energy>
-5.489

>  <homo_lumo_gap>
5.63

>  <logP>
1.888

>  <lumo_energy>
0.142

>  <melting_point>
82.3

>  <molecular_refractivity>
64.01

>  <oscillator_strength_1>
0.0007

>  <oscillator_strength_2>
0.0711

>  <oscillator_strength_3>
0.0006

>  <oscillator_strength_4>
0.0143

>  <open_babel_can_smiles>
COc1cc2c(cc1O)CCN([C@H]2C)C

>  <mulliken_charges>
32
1   -0.455273
2   -0.293945
3   -0.212437
4   -0.332142
5   -0.136299
6   -0.276005
7   -0.24438
8   -0.019494
9   0.122535
10   0.107078
11   0.325753
12   0.333245
13   -0.39515
14   -0.647868
15   -0.524209
16   0.151482
17   0.149782
18   0.142879
19   0.147598
20   0.145856
21   0.122933
22   0.156285
23   0.136956
24   0.166739
25   0.157887
26   0.1357
27   0.119323
28   0.1344
29   0.10853
30   0.128294
31   0.135781
32   0.408163

>  <lowdin_charges>
32
1   -0.462752
2   -0.354114
3   -0.275778
4   -0.275257
5   -0.19565
6   -0.219455
7   -0.176694
8   -0.055896
9   -0.009845
10   -0.026951
11   0.076751
12   0.065192
13   -0.186825
14   -0.379369
15   -0.225568
16   0.155073
17   0.152133
18   0.14882
19   0.148752
20   0.149338
21   0.120828
22   0.153121
23   0.138263
24   0.151725
25   0.155468
26   0.147516
27   0.117812
28   0.144751
29   0.14978
30   0.163821
31   0.145605
32   0.359404

$$$$

