PCCDB-ID:  68263
public computational chemistry database (PCCDB) project, http://pccdb.org

 18 19  0  0  0  0  0  0  0  0999 V2000
    0.6330   -2.2603    2.5188 C   0  0  0  0  0  0  0  0  0  0  0  0
    5.6568   -0.7485    0.3730 C   0  0  0  0  0  0  0  0  0  0  0  0
    1.8194   -1.6472    2.2479 C   0  0  0  0  0  0  0  0  0  0  0  0
    4.3486   -1.0874    0.5483 C   0  0  0  0  0  0  0  0  0  0  0  0
    0.1253   -0.6682    1.1786 C   0  0  0  0  0  0  0  0  0  0  0  0
    4.6372    1.1232    0.5874 C   0  0  0  0  0  0  0  0  0  0  0  0
    2.2979    0.4149    0.8153 C   0  0  0  0  0  0  0  0  0  0  0  0
   -0.4138   -1.6523    1.8396 N   0  0  0  0  0  0  0  0  0  0  0  0
    5.8289    0.6283    0.4117 N   0  0  0  0  0  0  0  0  0  0  0  0
    1.5023   -0.6081    1.3627 N   0  0  0  0  0  0  0  0  0  0  0  0
    3.6710    0.1297    0.7004 N   0  0  0  0  0  0  0  0  0  0  0  0
    1.8308    1.4746    0.4659 O   0  0  0  0  0  0  0  0  0  0  0  0
    0.4593   -3.1054    3.1707 H   0  0  0  0  0  0  0  0  0  0  0  0
    6.4959   -1.4117    0.2132 H   0  0  0  0  0  0  0  0  0  0  0  0
    2.8193   -1.7999    2.6188 H   0  0  0  0  0  0  0  0  0  0  0  0
    3.8324   -2.0329    0.5296 H   0  0  0  0  0  0  0  0  0  0  0  0
   -0.3786    0.0390    0.5360 H   0  0  0  0  0  0  0  0  0  0  0  0
    4.3693    2.1670    0.6623 H   0  0  0  0  0  0  0  0  0  0  0  0
  1 13  1  0  0  0  0
  2  9  1  0  0  0  0
  2  4  2  0  0  0  0
  3  1  2  0  0  0  0
  3 15  1  0  0  0  0
  4 11  1  0  0  0  0
  5 10  1  0  0  0  0
  5  8  2  0  0  0  0
  6 18  1  0  0  0  0
  6 11  1  0  0  0  0
  7 10  1  0  0  0  0
  8  1  1  0  0  0  0
  9  6  2  0  0  0  0
 10  3  1  0  0  0  0
 11  7  1  0  0  0  0
 12  7  2  0  0  0  0
 14  2  1  0  0  0  0
 16  4  1  0  0  0  0
 17  5  1  0  0  0  0
M  END
>  <HBA>
5

>  <HBD>
0

>  <TPSA>
52.71

>  <cid>
68263

>  <dipole>
2.29

>  <excitation_energy_1>
4.289

>  <excitation_energy_2>
4.401

>  <excitation_energy_3>
4.889

>  <excitation_energy_4>
5.168

>  <homo_energy>
-6.988

>  <homo_lumo_gap>
5.091

>  <logP>
0.596

>  <lumo_energy>
-1.897

>  <melting_point>
86.6

>  <molecular_refractivity>
40.65

>  <oscillator_strength_1>
0.0008

>  <oscillator_strength_2>
0.0473

>  <oscillator_strength_3>
0.0

>  <oscillator_strength_4>
0.019

>  <open_babel_can_smiles>
O=C(n1cncc1)n1cncc1

>  <mulliken_charges>
18
1   -0.034158
2   -0.034038
3   0.006401
4   0.006006
5   0.239146
6   0.239068
7   0.761107
8   -0.425879
9   -0.425852
10   -0.485683
11   -0.485635
12   -0.445752
13   0.157717
14   0.157681
15   0.188396
16   0.188278
17   0.196686
18   0.196513

>  <lowdin_charges>
18
1   -0.131859
2   -0.132955
3   -0.165629
4   -0.167146
5   -0.061084
6   -0.061188
7   0.214681
8   -0.158172
9   -0.158946
10   -0.021916
11   -0.019294
12   -0.230977
13   0.172522
14   0.173417
15   0.18488
16   0.185747
17   0.190235
18   0.187683

$$$$

