PCCDB-ID:  8443
public computational chemistry database (PCCDB) project, http://pccdb.org

 22 22  0  0  0  0  0  0  0  0999 V2000
    0.9556   -0.9261   -1.0959 C   0  0  0  0  0  0  0  0  0  0  0  0
    1.5812    2.2949    2.0949 C   0  0  0  0  0  0  0  0  0  0  0  0
    4.5045   -1.5487    0.1957 C   0  0  0  0  0  0  0  0  0  0  0  0
    4.8880   -0.2660    0.5834 C   0  0  0  0  0  0  0  0  0  0  0  0
    3.2322   -1.7510   -0.3444 C   0  0  0  0  0  0  0  0  0  0  0  0
    3.9974    0.7980    0.4402 C   0  0  0  0  0  0  0  0  0  0  0  0
    2.3242   -0.7010   -0.5040 C   0  0  0  0  0  0  0  0  0  0  0  0
    1.3901    2.4134    0.5981 C   0  0  0  0  0  0  0  0  0  0  0  0
    2.7127    0.5938   -0.0889 C   0  0  0  0  0  0  0  0  0  0  0  0
    1.8351    1.6645   -0.3232 N   0  0  0  0  0  0  0  0  0  0  0  0
    0.6079    3.4597    0.2004 O   0  0  0  0  0  0  0  0  0  0  0  0
    0.8845   -1.9157   -1.5586 H   0  0  0  0  0  0  0  0  0  0  0  0
    0.7275   -0.1639   -1.8489 H   0  0  0  0  0  0  0  0  0  0  0  0
    0.1668   -0.8567   -0.3348 H   0  0  0  0  0  0  0  0  0  0  0  0
    2.1182    3.1672    2.4883 H   0  0  0  0  0  0  0  0  0  0  0  0
    2.1466    1.3982    2.3505 H   0  0  0  0  0  0  0  0  0  0  0  0
    0.6046    2.2522    2.5943 H   0  0  0  0  0  0  0  0  0  0  0  0
    5.1916   -2.3841    0.2981 H   0  0  0  0  0  0  0  0  0  0  0  0
    5.8797   -0.0869    0.9908 H   0  0  0  0  0  0  0  0  0  0  0  0
    2.9349   -2.7496   -0.6578 H   0  0  0  0  0  0  0  0  0  0  0  0
    4.2990    1.8069    0.7098 H   0  0  0  0  0  0  0  0  0  0  0  0
    0.3007    3.9436    0.9823 H   0  0  0  0  0  0  0  0  0  0  0  0
  1  7  1  0  0  0  0
  1 14  1  0  0  0  0
  2 16  1  0  0  0  0
  2 15  1  0  0  0  0
  2 17  1  0  0  0  0
  3 18  1  0  0  0  0
  3  4  2  0  0  0  0
  4 19  1  0  0  0  0
  5  3  1  0  0  0  0
  6  4  1  0  0  0  0
  6 21  1  0  0  0  0
  7  5  2  0  0  0  0
  7  9  1  0  0  0  0
  8  2  1  0  0  0  0
  9  6  2  0  0  0  0
 10  9  1  0  0  0  0
 10  8  2  0  0  0  0
 11  8  1  0  0  0  0
 11 22  1  0  0  0  0
 12  1  1  0  0  0  0
 13  1  1  0  0  0  0
 20  5  1  0  0  0  0
M  END
>  <HBA>
2

>  <HBD>
1

>  <TPSA>
29.1

>  <cid>
8443

>  <dipole>
3.67

>  <excitation_energy_1>
4.739

>  <excitation_energy_2>
4.868

>  <excitation_energy_3>
4.918

>  <excitation_energy_4>
5.51

>  <homo_energy>
-5.644

>  <homo_lumo_gap>
5.603

>  <logP>
2.026

>  <lumo_energy>
-0.041

>  <melting_point>
63.43

>  <molecular_refractivity>
45.72

>  <oscillator_strength_1>
0.1132

>  <oscillator_strength_2>
0.0017

>  <oscillator_strength_3>
0.021

>  <oscillator_strength_4>
0.0148

>  <open_babel_can_smiles>
C/C(=N\c1ccccc1C)/O

>  <mulliken_charges>
22
1   -0.521679
2   -0.55497
3   -0.125616
4   -0.143592
5   -0.199454
6   -0.153524
7   0.157537
8   0.480947
9   0.184259
10   -0.467657
11   -0.570992
12   0.144936
13   0.179967
14   0.151685
15   0.175896
16   0.199911
17   0.169281
18   0.121754
19   0.123784
20   0.119256
21   0.120774
22   0.407498

>  <lowdin_charges>
22
1   -0.442013
2   -0.484457
3   -0.173292
4   -0.159586
5   -0.164024
6   -0.187887
7   -0.014067
8   0.146544
9   0.035801
10   -0.169193
11   -0.362698
12   0.151799
13   0.171084
14   0.156231
15   0.170676
16   0.185382
17   0.166584
18   0.155752
19   0.15446
20   0.152579
21   0.153871
22   0.356455

$$$$

