PCCDB-ID:  12434
public computational chemistry database (PCCDB) project, http://pccdb.org

 15 14  0  0  0  0  0  0  0  0999 V2000
    0.9855   -0.0269    0.5336 C   0  0  0  0  0  0  0  0  0  0  0  0
    4.5552   -1.3259    0.0934 C   0  0  0  0  0  0  0  0  0  0  0  0
    2.3872   -2.4620    0.1722 C   0  0  0  0  0  0  0  0  0  0  0  0
    2.4958    0.0079    0.3812 C   0  0  0  0  0  0  0  0  0  0  0  0
    3.1034   -1.1875    0.1748 N   0  0  0  0  0  0  0  0  0  0  0  0
    3.2987    1.4775    0.4625 S   0  0  0  0  0  0  0  0  0  0  0  0
    0.6712   -0.7144    1.3286 H   0  0  0  0  0  0  0  0  0  0  0  0
    0.5003   -0.3503   -0.3968 H   0  0  0  0  0  0  0  0  0  0  0  0
    0.6305    0.9734    0.7737 H   0  0  0  0  0  0  0  0  0  0  0  0
    4.9195   -1.9417    0.9260 H   0  0  0  0  0  0  0  0  0  0  0  0
    5.0124   -0.3396    0.1430 H   0  0  0  0  0  0  0  0  0  0  0  0
    4.8283   -1.8145   -0.8494 H   0  0  0  0  0  0  0  0  0  0  0  0
    2.9150   -3.1593   -0.4848 H   0  0  0  0  0  0  0  0  0  0  0  0
    1.3707   -2.3507   -0.2025 H   0  0  0  0  0  0  0  0  0  0  0  0
    2.3487   -2.9035    1.1783 H   0  0  0  0  0  0  0  0  0  0  0  0
  1  9  1  0  0  0  0
  1  7  1  0  0  0  0
  2 11  1  0  0  0  0
  2  5  1  0  0  0  0
  2 10  1  0  0  0  0
  3  5  1  0  0  0  0
  3 15  1  0  0  0  0
  4  6  2  0  0  0  0
  4  1  1  0  0  0  0
  5  4  1  0  0  0  0
  8  1  1  0  0  0  0
 12  2  1  0  0  0  0
 13  3  1  0  0  0  0
 14  3  1  0  0  0  0
M  END
>  <HBA>
2

>  <HBD>
0

>  <TPSA>
35.33

>  <cid>
12434

>  <dipole>
5.19

>  <excitation_energy_1>
3.353

>  <excitation_energy_2>
4.663

>  <excitation_energy_3>
4.942

>  <excitation_energy_4>
5.126

>  <homo_energy>
-5.336

>  <homo_lumo_gap>
4.708

>  <logP>
0.895

>  <lumo_energy>
-0.629

>  <melting_point>
7.76

>  <molecular_refractivity>
32.03

>  <oscillator_strength_1>
0.0002

>  <oscillator_strength_2>
0.0215

>  <oscillator_strength_3>
0.2148

>  <oscillator_strength_4>
0.0416

>  <open_babel_can_smiles>
CC(=S)N(C)C

>  <mulliken_charges>
15
1   -0.504649
2   -0.32308
3   -0.317829
4   0.161653
5   -0.335816
6   -0.274688
7   0.164874
8   0.171948
9   0.201387
10   0.159201
11   0.219747
12   0.15942
13   0.169851
14   0.178157
15   0.169823

>  <lowdin_charges>
15
1   -0.455136
2   -0.359144
3   -0.353112
4   -0.033626
5   -0.063227
6   -0.241277
7   0.163538
8   0.166714
9   0.184947
10   0.154733
11   0.193065
12   0.154729
13   0.164468
14   0.167907
15   0.15542

$$$$

