PCCDB-ID:  8094
public computational chemistry database (PCCDB) project, http://pccdb.org

 23 22  0  0  0  0  0  0  0  0999 V2000
    0.8050   -0.6155    0.8324 C   0  0  0  0  0  0  0  0  0  0  0  0
    1.6799   -0.0790    1.9720 C   0  0  0  0  0  0  0  0  0  0  0  0
    2.9004   -0.9539    2.3044 C   0  0  0  0  0  0  0  0  0  0  0  0
    3.9474   -1.0234    1.1819 C   0  0  0  0  0  0  0  0  0  0  0  0
    5.2390   -1.7666    1.5606 C   0  0  0  0  0  0  0  0  0  0  0  0
    5.0368   -3.2731    1.8247 C   0  0  0  0  0  0  0  0  0  0  0  0
    6.3192   -3.9956    2.2176 C   0  0  0  0  0  0  0  0  0  0  0  0
    6.4958   -4.5516    3.2716 O   0  0  0  0  0  0  0  0  0  0  0  0
    7.3164   -3.9795    1.2854 O   0  0  0  0  0  0  0  0  0  0  0  0
   -0.0766    0.0182    0.6837 H   0  0  0  0  0  0  0  0  0  0  0  0
    0.4508   -1.6308    1.0512 H   0  0  0  0  0  0  0  0  0  0  0  0
    1.3469   -0.6503   -0.1195 H   0  0  0  0  0  0  0  0  0  0  0  0
    1.0653    0.0195    2.8764 H   0  0  0  0  0  0  0  0  0  0  0  0
    2.0211    0.9364    1.7243 H   0  0  0  0  0  0  0  0  0  0  0  0
    2.5524   -1.9647    2.5594 H   0  0  0  0  0  0  0  0  0  0  0  0
    3.3833   -0.5596    3.2099 H   0  0  0  0  0  0  0  0  0  0  0  0
    4.2154    0.0015    0.8886 H   0  0  0  0  0  0  0  0  0  0  0  0
    3.5134   -1.4930    0.2883 H   0  0  0  0  0  0  0  0  0  0  0  0
    5.6825   -1.3042    2.4525 H   0  0  0  0  0  0  0  0  0  0  0  0
    5.9707   -1.6265    0.7515 H   0  0  0  0  0  0  0  0  0  0  0  0
    4.6195   -3.7510    0.9256 H   0  0  0  0  0  0  0  0  0  0  0  0
    4.3297   -3.4351    2.6403 H   0  0  0  0  0  0  0  0  0  0  0  0
    7.0225   -3.5025    0.4921 H   0  0  0  0  0  0  0  0  0  0  0  0
  1 11  1  0  0  0  0
  1  2  1  0  0  0  0
  2  3  1  0  0  0  0
  2 13  1  0  0  0  0
  3 15  1  0  0  0  0
  3 16  1  0  0  0  0
  4  5  1  0  0  0  0
  4  3  1  0  0  0  0
  5  6  1  0  0  0  0
  5 19  1  0  0  0  0
  6  7  1  0  0  0  0
  6 22  1  0  0  0  0
  7  8  2  0  0  0  0
  9  7  1  0  0  0  0
 10  1  1  0  0  0  0
 12  1  1  0  0  0  0
 14  2  1  0  0  0  0
 17  4  1  0  0  0  0
 18  4  1  0  0  0  0
 20  5  1  0  0  0  0
 21  6  1  0  0  0  0
 23  9  1  0  0  0  0
M  END
>  <HBA>
2

>  <HBD>
1

>  <TPSA>
37.3

>  <cid>
8094

>  <dipole>
4.61

>  <excitation_energy_1>
5.605

>  <excitation_energy_2>
6.42

>  <excitation_energy_3>
7.226

>  <excitation_energy_4>
7.318

>  <homo_energy>
-7.206

>  <homo_lumo_gap>
7.519

>  <logP>
2.041

>  <lumo_energy>
0.313

>  <melting_point>
49.93

>  <molecular_refractivity>
37.53

>  <oscillator_strength_1>
0.0014

>  <oscillator_strength_2>
0.0118

>  <oscillator_strength_3>
0.0101

>  <oscillator_strength_4>
0.0064

>  <open_babel_can_smiles>
CCCCCCC(=O)O

>  <mulliken_charges>
23
1   -0.444987
2   -0.250529
3   -0.254804
4   -0.255164
5   -0.273395
6   -0.380377
7   0.587911
8   -0.435081
9   -0.564588
10   0.146422
11   0.142605
12   0.144658
13   0.136186
14   0.131829
15   0.135158
16   0.134439
17   0.136879
18   0.13444
19   0.159059
20   0.120876
21   0.155295
22   0.185137
23   0.408032

>  <lowdin_charges>
23
1   -0.447005
2   -0.27171
3   -0.278265
4   -0.276559
5   -0.274878
6   -0.320079
7   0.191896
8   -0.236349
9   -0.362756
10   0.15248
11   0.146006
12   0.146173
13   0.145007
14   0.138662
15   0.139423
16   0.143906
17   0.144735
18   0.141212
19   0.153458
20   0.135735
21   0.157926
22   0.174805
23   0.356178

$$$$

