PCCDB-ID:  6736
public computational chemistry database (PCCDB) project, http://pccdb.org

 19 20  0  0  0  0  0  0  0  0999 V2000
    0.9664    0.0611   -0.0805 C   0  0  0  0  0  0  0  0  0  0  0  0
    4.1594   -3.3718   -0.1009 C   0  0  0  0  0  0  0  0  0  0  0  0
    5.4847   -2.8914   -0.0730 C   0  0  0  0  0  0  0  0  0  0  0  0
    3.0800   -2.4968   -0.0995 C   0  0  0  0  0  0  0  0  0  0  0  0
    5.7566   -1.5280   -0.0428 C   0  0  0  0  0  0  0  0  0  0  0  0
    3.2993    1.1381   -0.0308 C   0  0  0  0  0  0  0  0  0  0  0  0
    2.4654    0.0500   -0.0620 C   0  0  0  0  0  0  0  0  0  0  0  0
    3.3208   -1.1123   -0.0705 C   0  0  0  0  0  0  0  0  0  0  0  0
    4.6667   -0.6514   -0.0424 C   0  0  0  0  0  0  0  0  0  0  0  0
    4.6221    0.7269   -0.0183 N   0  0  0  0  0  0  0  0  0  0  0  0
    0.5785    1.0851   -0.1023 H   0  0  0  0  0  0  0  0  0  0  0  0
    0.5448   -0.4335    0.8047 H   0  0  0  0  0  0  0  0  0  0  0  0
    0.5676   -0.4626   -0.9592 H   0  0  0  0  0  0  0  0  0  0  0  0
    3.9834   -4.4439   -0.1232 H   0  0  0  0  0  0  0  0  0  0  0  0
    6.3095   -3.5989   -0.0744 H   0  0  0  0  0  0  0  0  0  0  0  0
    2.0620   -2.8778   -0.1201 H   0  0  0  0  0  0  0  0  0  0  0  0
    6.7791   -1.1593   -0.0214 H   0  0  0  0  0  0  0  0  0  0  0  0
    3.0535    2.1917   -0.0174 H   0  0  0  0  0  0  0  0  0  0  0  0
    5.4224    1.3387    0.0024 H   0  0  0  0  0  0  0  0  0  0  0  0
  1  7  1  0  0  0  0
  1 12  1  0  0  0  0
  2  4  2  0  0  0  0
  2  3  1  0  0  0  0
  3  5  2  0  0  0  0
  4  8  1  0  0  0  0
  5  9  1  0  0  0  0
  5 17  1  0  0  0  0
  6 10  1  0  0  0  0
  6 18  1  0  0  0  0
  7  6  2  0  0  0  0
  8  7  1  0  0  0  0
  8  9  2  0  0  0  0
  9 10  1  0  0  0  0
 10 19  1  0  0  0  0
 11  1  1  0  0  0  0
 13  1  1  0  0  0  0
 14  2  1  0  0  0  0
 15  3  1  0  0  0  0
 16  4  1  0  0  0  0
M  END
>  <HBA>
0

>  <HBD>
1

>  <TPSA>
15.79

>  <cid>
6736

>  <dipole>
2.05

>  <excitation_energy_1>
4.555

>  <excitation_energy_2>
4.703

>  <excitation_energy_3>
4.824

>  <excitation_energy_4>
5.208

>  <homo_energy>
-5.252

>  <homo_lumo_gap>
5.236

>  <logP>
2.476

>  <lumo_energy>
-0.016

>  <melting_point>
99.76

>  <molecular_refractivity>
43.26

>  <oscillator_strength_1>
0.0717

>  <oscillator_strength_2>
0.0007

>  <oscillator_strength_3>
0.0234

>  <oscillator_strength_4>
0.0001

>  <open_babel_can_smiles>
Cc1c[nH]c2c1cccc2

>  <mulliken_charges>
19
1   -0.52747
2   -0.13971
3   -0.151824
4   -0.20974
5   -0.163632
6   -0.004622
7   0.087177
8   0.08072
9   0.312638
10   -0.690051
11   0.148523
12   0.156967
13   0.156614
14   0.118005
15   0.120447
16   0.120916
17   0.118192
18   0.142439
19   0.324412

>  <lowdin_charges>
19
1   -0.436709
2   -0.175516
3   -0.166483
4   -0.16242
5   -0.18845
6   -0.136618
7   -0.057531
8   -0.036232
9   0.033576
10   -0.207792
11   0.155159
12   0.156915
13   0.156961
14   0.151606
15   0.155349
16   0.154243
17   0.153059
18   0.160233
19   0.29065

$$$$

