PCCDB-ID:  48406
public computational chemistry database (PCCDB) project, http://pccdb.org

 33 34  0  0  1  0  0  0  0  0999 V2000
    3.2637    0.8070   -1.1866 C   0  0  0  0  0  0  0  0  0  0  0  0
    4.0127    4.2718    1.5584 C   0  0  0  0  0  0  0  0  0  0  0  0
    2.7395    0.0597    0.0443 C   0  0  0  0  0  0  0  0  0  0  0  0
    2.9164   -2.3519    3.6266 C   0  0  0  0  0  0  0  0  0  0  0  0
    3.3765   -1.3876    4.6894 C   0  0  0  0  0  0  0  0  0  0  0  0
    2.5111   -1.7351    2.5088 C   0  0  0  0  0  0  0  0  0  0  0  0
    3.2994    0.0028    3.9957 C   0  0  0  0  0  0  0  0  0  0  0  0
    2.6298   -0.2252    2.6001 C   0  0  1  0  0  0  0  0  0  0  0  0
    4.8601    0.1638    1.3893 C   0  0  0  0  0  0  0  0  0  0  0  0
    3.1358    1.9914    1.5734 C   0  0  0  0  0  0  0  0  0  0  0  0
    5.5515    2.3703    1.1971 C   0  0  0  0  0  0  0  0  0  0  0  0
    3.3761    0.4821    1.4118 C   0  0  1  0  0  0  0  0  0  0  0  0
    5.8175    1.0045    1.2511 N   0  0  0  0  0  0  0  0  0  0  0  0
    4.2309    2.8226    1.4844 N   0  0  0  0  0  0  0  0  0  0  0  0
    5.2140   -1.1273    1.4626 O   0  0  0  0  0  0  0  0  0  0  0  0
    2.0022    2.4201    1.7410 O   0  0  0  0  0  0  0  0  0  0  0  0
    6.4176    3.1856    0.9550 O   0  0  0  0  0  0  0  0  0  0  0  0
    2.7804    0.4175   -2.0887 H   0  0  0  0  0  0  0  0  0  0  0  0
    4.3451    0.6861   -1.3112 H   0  0  0  0  0  0  0  0  0  0  0  0
    3.0427    1.8783   -1.1336 H   0  0  0  0  0  0  0  0  0  0  0  0
    3.1443    4.4558    2.1893 H   0  0  0  0  0  0  0  0  0  0  0  0
    3.8269    4.6855    0.5618 H   0  0  0  0  0  0  0  0  0  0  0  0
    4.9082    4.7352    1.9687 H   0  0  0  0  0  0  0  0  0  0  0  0
    2.9012   -1.0148   -0.0940 H   0  0  0  0  0  0  0  0  0  0  0  0
    1.6598    0.2188    0.1408 H   0  0  0  0  0  0  0  0  0  0  0  0
    2.8722   -3.4257    3.7897 H   0  0  0  0  0  0  0  0  0  0  0  0
    4.3836   -1.6220    5.0566 H   0  0  0  0  0  0  0  0  0  0  0  0
    2.7121   -1.4473    5.5625 H   0  0  0  0  0  0  0  0  0  0  0  0
    2.0678   -2.2419    1.6559 H   0  0  0  0  0  0  0  0  0  0  0  0
    4.3045    0.4228    3.8828 H   0  0  0  0  0  0  0  0  0  0  0  0
    2.7260    0.7210    4.5870 H   0  0  0  0  0  0  0  0  0  0  0  0
    1.6279    0.2195    2.5798 H   0  0  0  0  0  0  0  0  0  0  0  0
    4.4497   -1.6719    1.7442 H   0  0  0  0  0  0  0  0  0  0  0  0
  1 20  1  0  0  0  0
  1  3  1  0  0  0  0
  2 23  1  0  0  0  0
  2 21  1  0  0  0  0
  3 25  1  0  0  0  0
  4 26  1  0  0  0  0
  4  5  1  0  0  0  0
  5 27  1  0  0  0  0
  5 28  1  0  0  0  0
  6  8  1  0  0  0  0
  6  4  2  0  0  0  0
  7 31  1  0  0  0  0
  7  5  1  0  0  0  0
  8 32  1  1  0  0  0
  8  7  1  0  0  0  0
  9 12  1  0  0  0  0
  9 15  1  0  0  0  0
 10 16  2  0  0  0  0
 11 13  1  0  0  0  0
 11 14  1  0  0  0  0
 12  3  1  6  0  0  0
 12 10  1  0  0  0  0
 12  8  1  0  0  0  0
 13  9  2  0  0  0  0
 14  2  1  0  0  0  0
 14 10  1  0  0  0  0
 15 33  1  0  0  0  0
 17 11  2  0  0  0  0
 18  1  1  0  0  0  0
 19  1  1  0  0  0  0
 22  2  1  0  0  0  0
 24  3  1  0  0  0  0
 29  6  1  0  0  0  0
 30  7  1  0  0  0  0
M  END
>  <HBA>
5

>  <HBD>
1

>  <TPSA>
66.48

>  <cid>
48406

>  <dipole>
5.71

>  <excitation_energy_1>
4.515

>  <excitation_energy_2>
4.771

>  <excitation_energy_3>
4.975

>  <excitation_energy_4>
5.267

>  <homo_energy>
-7.094

>  <homo_lumo_gap>
5.753

>  <logP>
1.324

>  <lumo_energy>
-1.342

>  <melting_point>
147.41

>  <molecular_refractivity>
69.35

>  <oscillator_strength_1>
0.0028

>  <oscillator_strength_2>
0.0094

>  <oscillator_strength_3>
0.0142

>  <oscillator_strength_4>
0.0414

>  <open_babel_can_smiles>
CC[C@@]1([C@H]2C=CCC2)C(=NC(=O)N(C1=O)C)O

>  <mulliken_charges>
33
1   -0.475938
2   -0.318175
3   -0.263335
4   -0.092524
5   -0.311222
6   -0.198907
7   -0.314746
8   -0.133204
9   0.529771
10   0.650875
11   0.699409
12   -0.131978
13   -0.494597
14   -0.516071
15   -0.579666
16   -0.521546
17   -0.468044
18   0.158885
19   0.172377
20   0.16731
21   0.187175
22   0.174166
23   0.191645
24   0.143194
25   0.172592
26   0.149395
27   0.165205
28   0.163848
29   0.151773
30   0.163774
31   0.166535
32   0.190626
33   0.4214

>  <lowdin_charges>
33
1   -0.451041
2   -0.349438
3   -0.260047
4   -0.141413
5   -0.277194
6   -0.21228
7   -0.287637
8   -0.127067
9   0.161433
10   0.16187
11   0.186558
12   -0.054845
13   -0.192252
14   -0.091071
15   -0.32921
16   -0.286779
17   -0.249958
18   0.161494
19   0.159491
20   0.15734
21   0.175317
22   0.16229
23   0.178554
24   0.145746
25   0.161748
26   0.162669
27   0.158776
28   0.16004
29   0.165173
30   0.155816
31   0.163916
32   0.174432
33   0.357567

$$$$

