PCCDB-ID:  70219
public computational chemistry database (PCCDB) project, http://pccdb.org

 38 37  0  0  0  0  0  0  0  0999 V2000
    1.7896    1.2071    1.4224 C   0  0  0  0  0  0  0  0  0  0  0  0
    1.4663    2.6537    1.8366 C   0  0  0  0  0  0  0  0  0  0  0  0
    2.5370    1.0408    0.0790 C   0  0  0  0  0  0  0  0  0  0  0  0
    0.5296    3.4266    0.8983 C   0  0  0  0  0  0  0  0  0  0  0  0
    1.6266    0.7606   -1.1278 C   0  0  0  0  0  0  0  0  0  0  0  0
    0.1703    4.8212    1.4312 C   0  0  0  0  0  0  0  0  0  0  0  0
    2.3775    0.6285   -2.4733 C   0  0  0  0  0  0  0  0  0  0  0  0
   -0.7270    5.6088    0.4619 C   0  0  0  0  0  0  0  0  0  0  0  0
    3.3107   -0.5570   -2.5578 C   0  0  0  0  0  0  0  0  0  0  0  0
   -1.2560    6.9304    0.9807 C   0  0  0  0  0  0  0  0  0  0  0  0
    1.7344   -1.8766   -3.5492 N   0  0  0  0  0  0  0  0  0  0  0  0
   -3.0939    6.7883   -0.3590 N   0  0  0  0  0  0  0  0  0  0  0  0
    3.0478   -1.7103   -3.0326 N   0  0  0  0  0  0  0  0  0  0  0  0
   -2.3388    7.4975    0.6162 N   0  0  0  0  0  0  0  0  0  0  0  0
    4.5771   -0.4025   -2.0506 O   0  0  0  0  0  0  0  0  0  0  0  0
   -0.5258    7.6040    1.9215 O   0  0  0  0  0  0  0  0  0  0  0  0
    0.8607    0.6190    1.3978 H   0  0  0  0  0  0  0  0  0  0  0  0
    2.3979    0.7658    2.2218 H   0  0  0  0  0  0  0  0  0  0  0  0
    2.4084    3.2124    1.9418 H   0  0  0  0  0  0  0  0  0  0  0  0
    1.0168    2.6305    2.8396 H   0  0  0  0  0  0  0  0  0  0  0  0
    3.2562    0.2179    0.1671 H   0  0  0  0  0  0  0  0  0  0  0  0
    3.1342    1.9456   -0.1183 H   0  0  0  0  0  0  0  0  0  0  0  0
   -0.3959    2.8532    0.7456 H   0  0  0  0  0  0  0  0  0  0  0  0
    0.9927    3.5344   -0.0922 H   0  0  0  0  0  0  0  0  0  0  0  0
    0.8803    1.5574   -1.2326 H   0  0  0  0  0  0  0  0  0  0  0  0
    1.0607   -0.1616   -0.9350 H   0  0  0  0  0  0  0  0  0  0  0  0
    1.1103    5.3660    1.6172 H   0  0  0  0  0  0  0  0  0  0  0  0
   -0.3339    4.7197    2.4018 H   0  0  0  0  0  0  0  0  0  0  0  0
    2.9486    1.5508   -2.6597 H   0  0  0  0  0  0  0  0  0  0  0  0
    1.6543    0.5313   -3.2907 H   0  0  0  0  0  0  0  0  0  0  0  0
   -1.6073    5.0097    0.1968 H   0  0  0  0  0  0  0  0  0  0  0  0
   -0.1796    5.7756   -0.4797 H   0  0  0  0  0  0  0  0  0  0  0  0
    1.0387   -1.7456   -2.8122 H   0  0  0  0  0  0  0  0  0  0  0  0
    1.6776   -2.8555   -3.8179 H   0  0  0  0  0  0  0  0  0  0  0  0
   -2.5605    6.7021   -1.2276 H   0  0  0  0  0  0  0  0  0  0  0  0
   -3.8807    7.3953   -0.5745 H   0  0  0  0  0  0  0  0  0  0  0  0
    4.7072    0.5323   -1.8347 H   0  0  0  0  0  0  0  0  0  0  0  0
    0.2454    7.0707    2.1607 H   0  0  0  0  0  0  0  0  0  0  0  0
  1  2  1  0  0  0  0
  1 18  1  0  0  0  0
  2 19  1  0  0  0  0
  2 20  1  0  0  0  0
  3 21  1  0  0  0  0
  3  1  1  0  0  0  0
  4  6  1  0  0  0  0
  4  2  1  0  0  0  0
  5 26  1  0  0  0  0
  5  3  1  0  0  0  0
  6 27  1  0  0  0  0
  6 28  1  0  0  0  0
  7  5  1  0  0  0  0
  8 10  1  0  0  0  0
  8  6  1  0  0  0  0
  9  7  1  0  0  0  0
  9 15  1  0  0  0  0
 10 16  1  0  0  0  0
 11 13  1  0  0  0  0
 11 33  1  0  0  0  0
 12 14  1  0  0  0  0
 13  9  2  0  0  0  0
 14 10  2  0  0  0  0
 15 37  1  0  0  0  0
 16 38  1  0  0  0  0
 17  1  1  0  0  0  0
 22  3  1  0  0  0  0
 23  4  1  0  0  0  0
 24  4  1  0  0  0  0
 25  5  1  0  0  0  0
 29  7  1  0  0  0  0
 30  7  1  0  0  0  0
 31  8  1  0  0  0  0
 32  8  1  0  0  0  0
 34 11  1  0  0  0  0
 35 12  1  0  0  0  0
 36 12  1  0  0  0  0
M  END
>  <HBA>
6

>  <HBD>
4

>  <TPSA>
110.24

>  <cid>
70219

>  <dipole>
0.38

>  <excitation_energy_1>
4.858

>  <excitation_energy_2>
4.899

>  <excitation_energy_3>
5.045

>  <excitation_energy_4>
5.051

>  <homo_energy>
-5.576

>  <homo_lumo_gap>
6.147

>  <logP>
2.269

>  <lumo_energy>
0.571

>  <melting_point>
176.42

>  <molecular_refractivity>
61.6

>  <oscillator_strength_1>
0.0269

>  <oscillator_strength_2>
0.0062

>  <oscillator_strength_3>
0.0063

>  <oscillator_strength_4>
0.003

>  <open_babel_can_smiles>
N/N=C(\CCCCCCCC/C(=N\N)/O)/O

>  <mulliken_charges>
38
1   -0.263017
2   -0.260665
3   -0.27843
4   -0.256387
5   -0.259078
6   -0.301678
7   -0.381813
8   -0.369453
9   0.50629
10   0.508383
11   -0.590222
12   -0.588077
13   -0.336279
14   -0.345604
15   -0.589159
16   -0.5997
17   0.135097
18   0.140267
19   0.12991
20   0.135484
21   0.157792
22   0.119744
23   0.140445
24   0.135442
25   0.14775
26   0.139086
27   0.125786
28   0.158767
29   0.134279
30   0.187127
31   0.191802
32   0.155818
33   0.30249
34   0.326112
35   0.299022
36   0.325373
37   0.404022
38   0.41327

>  <lowdin_charges>
38
1   -0.277953
2   -0.274426
3   -0.290048
4   -0.275624
5   -0.273724
6   -0.283516
7   -0.312811
8   -0.314194
9   0.096376
10   0.095384
11   -0.461131
12   -0.463683
13   -0.161154
14   -0.168184
15   -0.372854
16   -0.372326
17   0.142363
18   0.150368
19   0.13801
20   0.143225
21   0.153906
22   0.13325
23   0.14437
24   0.139666
25   0.148045
26   0.141798
27   0.134043
28   0.150596
29   0.147083
30   0.174809
31   0.175341
32   0.155599
33   0.249766
34   0.265748
35   0.24889
36   0.267707
37   0.35056
38   0.354724

$$$$

