PCCDB-ID:  4064
public computational chemistry database (PCCDB) project, http://pccdb.org

 33 32  0  0  0  0  0  0  0  0999 V2000
    1.0986   -0.0792    0.0038 C   0  0  0  0  0  0  0  0  0  0  0  0
    5.3907   -0.5200    1.4704 C   0  0  0  0  0  0  0  0  0  0  0  0
    2.6320   -0.0832    0.0063 C   0  0  0  0  0  0  0  0  0  0  0  0
    3.2053    0.7765    1.1422 C   0  0  0  0  0  0  0  0  0  0  0  0
    5.3744    1.4492   -0.0325 C   0  0  0  0  0  0  0  0  0  0  0  0
    5.1303    1.7997    2.4073 C   0  0  0  0  0  0  0  0  0  0  0  0
    5.2148    3.3810   -1.3829 C   0  0  0  0  0  0  0  0  0  0  0  0
    4.8793    1.9086    4.7528 C   0  0  0  0  0  0  0  0  0  0  0  0
    4.7517    0.8655    1.2445 C   0  0  0  0  0  0  0  0  0  0  0  0
    6.1092    2.9147   -2.1604 N   0  0  0  0  0  0  0  0  0  0  0  0
    5.5537    2.9886    4.7808 N   0  0  0  0  0  0  0  0  0  0  0  0
    4.5311    4.5553   -1.4490 O   0  0  0  0  0  0  0  0  0  0  0  0
    4.3008    1.2195    5.7750 O   0  0  0  0  0  0  0  0  0  0  0  0
    4.7776    2.7336   -0.2980 O   0  0  0  0  0  0  0  0  0  0  0  0
    4.6189    1.2339    3.6299 O   0  0  0  0  0  0  0  0  0  0  0  0
    0.6994   -0.6965   -0.8092 H   0  0  0  0  0  0  0  0  0  0  0  0
    0.7061    0.9369   -0.1244 H   0  0  0  0  0  0  0  0  0  0  0  0
    0.6996   -0.4708    0.9475 H   0  0  0  0  0  0  0  0  0  0  0  0
    5.2001   -1.1938    0.6288 H   0  0  0  0  0  0  0  0  0  0  0  0
    4.9901   -0.9819    2.3771 H   0  0  0  0  0  0  0  0  0  0  0  0
    6.4781   -0.4364    1.5897 H   0  0  0  0  0  0  0  0  0  0  0  0
    2.9892    0.2838   -0.9649 H   0  0  0  0  0  0  0  0  0  0  0  0
    2.9853   -1.1186    0.0955 H   0  0  0  0  0  0  0  0  0  0  0  0
    2.8299    0.3977    2.1005 H   0  0  0  0  0  0  0  0  0  0  0  0
    2.8124    1.7960    1.0383 H   0  0  0  0  0  0  0  0  0  0  0  0
    5.2083    0.7964   -0.8941 H   0  0  0  0  0  0  0  0  0  0  0  0
    6.4573    1.5788    0.0741 H   0  0  0  0  0  0  0  0  0  0  0  0
    4.7100    2.8000    2.2741 H   0  0  0  0  0  0  0  0  0  0  0  0
    6.2181    1.9001    2.4961 H   0  0  0  0  0  0  0  0  0  0  0  0
    6.3153    3.5426   -2.9369 H   0  0  0  0  0  0  0  0  0  0  0  0
    5.6501    3.3619    5.7248 H   0  0  0  0  0  0  0  0  0  0  0  0
    4.8426    5.0453   -2.2251 H   0  0  0  0  0  0  0  0  0  0  0  0
    4.4817    1.6940    6.6006 H   0  0  0  0  0  0  0  0  0  0  0  0
  1  3  1  0  0  0  0
  1 18  1  0  0  0  0
  2 21  1  0  0  0  0
  2 20  1  0  0  0  0
  3 23  1  0  0  0  0
  3  4  1  0  0  0  0
  4  9  1  0  0  0  0
  4 24  1  0  0  0  0
  5 27  1  0  0  0  0
  5  9  1  0  0  0  0
  6 29  1  0  0  0  0
  6 15  1  0  0  0  0
  7 14  1  0  0  0  0
  8 11  2  0  0  0  0
  8 13  1  0  0  0  0
  9  2  1  0  0  0  0
  9  6  1  0  0  0  0
 10  7  2  0  0  0  0
 11 31  1  0  0  0  0
 12  7  1  0  0  0  0
 13 33  1  0  0  0  0
 14  5  1  0  0  0  0
 15  8  1  0  0  0  0
 16  1  1  0  0  0  0
 17  1  1  0  0  0  0
 19  2  1  0  0  0  0
 22  3  1  0  0  0  0
 25  4  1  0  0  0  0
 26  5  1  0  0  0  0
 28  6  1  0  0  0  0
 30 10  1  0  0  0  0
 32 12  1  0  0  0  0
M  END
>  <HBA>
6

>  <HBD>
2

>  <TPSA>
104.64

>  <cid>
4064

>  <dipole>
1.23

>  <excitation_energy_1>
5.883

>  <excitation_energy_2>
5.933

>  <excitation_energy_3>
6.383

>  <excitation_energy_4>
6.432

>  <homo_energy>
-7.004

>  <homo_lumo_gap>
8.237

>  <logP>
2.384

>  <lumo_energy>
1.233

>  <melting_point>
144.18

>  <molecular_refractivity>
53.88

>  <oscillator_strength_1>
0.0049

>  <oscillator_strength_2>
0.0048

>  <oscillator_strength_3>
0.0506

>  <oscillator_strength_4>
0.0408

>  <open_babel_can_smiles>
CCCC(COC(=N)O)(COC(=N)O)C

>  <mulliken_charges>
33
1   -0.442361
2   -0.465766
3   -0.264004
4   -0.260118
5   -0.025531
6   -0.018616
7   0.647647
8   0.646057
9   0.014252
10   -0.627742
11   -0.626135
12   -0.57026
13   -0.572585
14   -0.456331
15   -0.455512
16   0.139858
17   0.144858
18   0.142906
19   0.148391
20   0.171277
21   0.14069
22   0.136869
23   0.133608
24   0.151228
25   0.146929
26   0.165189
27   0.158122
28   0.177667
29   0.152354
30   0.276514
31   0.274995
32   0.408322
33   0.407229

>  <lowdin_charges>
33
1   -0.443185
2   -0.445396
3   -0.275123
4   -0.280798
5   -0.11927
6   -0.11791
7   0.189178
8   0.186806
9   -0.010029
10   -0.47086
11   -0.467964
12   -0.365577
13   -0.366767
14   -0.179374
15   -0.176844
16   0.14926
17   0.147187
18   0.147055
19   0.152115
20   0.164813
21   0.14751
22   0.14078
23   0.138828
24   0.151877
25   0.149423
26   0.157284
27   0.151634
28   0.161329
29   0.148953
30   0.257317
31   0.254475
32   0.362165
33   0.36111

$$$$

