PCCDB-ID:  70735
public computational chemistry database (PCCDB) project, http://pccdb.org

 18 18  0  0  0  0  0  0  0  0999 V2000
    2.7781    1.0786    0.1677 C   0  0  0  0  0  0  0  0  0  0  0  0
    6.2805   -2.0301    2.1346 C   0  0  0  0  0  0  0  0  0  0  0  0
    2.3177   -0.1728    0.0622 C   0  0  0  0  0  0  0  0  0  0  0  0
    3.1749   -3.7613    0.7909 C   0  0  0  0  0  0  0  0  0  0  0  0
    4.4220   -3.5820    1.3772 C   0  0  0  0  0  0  0  0  0  0  0  0
    2.4687   -2.6426    0.3510 C   0  0  0  0  0  0  0  0  0  0  0  0
    4.9293   -2.2767    1.5062 C   0  0  0  0  0  0  0  0  0  0  0  0
    3.0408   -1.3739    0.5155 C   0  0  0  0  0  0  0  0  0  0  0  0
    4.2526   -1.2047    1.0851 N   0  0  0  0  0  0  0  0  0  0  0  0
    2.1972    1.9255   -0.1851 H   0  0  0  0  0  0  0  0  0  0  0  0
    3.7485    1.2771    0.6114 H   0  0  0  0  0  0  0  0  0  0  0  0
    6.3180   -2.4147    3.1613 H   0  0  0  0  0  0  0  0  0  0  0  0
    6.4874   -0.9581    2.1536 H   0  0  0  0  0  0  0  0  0  0  0  0
    7.0778   -2.5319    1.5722 H   0  0  0  0  0  0  0  0  0  0  0  0
    1.3417   -0.3554   -0.3858 H   0  0  0  0  0  0  0  0  0  0  0  0
    2.7552   -4.7575    0.6771 H   0  0  0  0  0  0  0  0  0  0  0  0
    5.0006   -4.4300    1.7331 H   0  0  0  0  0  0  0  0  0  0  0  0
    1.4913   -2.7447   -0.1120 H   0  0  0  0  0  0  0  0  0  0  0  0
  1 11  1  0  0  0  0
  2 13  1  0  0  0  0
  2 12  1  0  0  0  0
  3  1  2  0  0  0  0
  3  8  1  0  0  0  0
  4  5  2  0  0  0  0
  5  7  1  0  0  0  0
  5 17  1  0  0  0  0
  6  8  2  0  0  0  0
  6  4  1  0  0  0  0
  7  2  1  0  0  0  0
  8  9  1  0  0  0  0
  9  7  2  0  0  0  0
 10  1  1  0  0  0  0
 14  2  1  0  0  0  0
 15  3  1  0  0  0  0
 16  4  1  0  0  0  0
 18  6  1  0  0  0  0
M  END
>  <HBA>
1

>  <HBD>
0

>  <TPSA>
12.89

>  <cid>
70735

>  <dipole>
1.59

>  <excitation_energy_1>
4.427

>  <excitation_energy_2>
4.612

>  <excitation_energy_3>
5.108

>  <excitation_energy_4>
5.174

>  <homo_energy>
-6.139

>  <homo_lumo_gap>
5.105

>  <logP>
2.033

>  <lumo_energy>
-1.034

>  <melting_point>
16.79

>  <molecular_refractivity>
39.29

>  <oscillator_strength_1>
0.0014

>  <oscillator_strength_2>
0.2333

>  <oscillator_strength_3>
0.0015

>  <oscillator_strength_4>
0.2205

>  <open_babel_can_smiles>
C=Cc1cccc(n1)C

>  <mulliken_charges>
18
1   -0.330438
2   -0.521605
3   -0.111215
4   -0.098898
5   -0.171923
6   -0.186171
7   0.314918
8   0.31374
9   -0.539471
10   0.140042
11   0.167399
12   0.160368
13   0.175146
14   0.160845
15   0.124158
16   0.139186
17   0.13038
18   0.13354

>  <lowdin_charges>
18
1   -0.305716
2   -0.448781
3   -0.161476
4   -0.126316
5   -0.189205
6   -0.183464
7   0.063095
8   0.052666
9   -0.16246
10   0.161232
11   0.172676
12   0.160622
13   0.168317
14   0.162823
15   0.152182
16   0.161369
17   0.161746
18   0.160689

$$$$

