PCCDB-ID:  69332
public computational chemistry database (PCCDB) project, http://pccdb.org

 19 19  0  0  0  0  0  0  0  0999 V2000
    1.1088   -0.4465   -0.4834 C   0  0  0  0  0  0  0  0  0  0  0  0
    4.7102   -0.5238    2.8446 C   0  0  0  0  0  0  0  0  0  0  0  0
    3.4650   -2.5381    2.4599 C   0  0  0  0  0  0  0  0  0  0  0  0
    4.0046    0.1056    1.8267 C   0  0  0  0  0  0  0  0  0  0  0  0
    2.7479   -1.9058    1.4429 C   0  0  0  0  0  0  0  0  0  0  0  0
    4.4571   -1.8637    3.1806 C   0  0  0  0  0  0  0  0  0  0  0  0
    3.0068   -0.5698    1.1007 C   0  0  0  0  0  0  0  0  0  0  0  0
    5.1304   -2.4810    4.2559 N   0  0  0  0  0  0  0  0  0  0  0  0
    2.3491    0.0872    0.0484 N   0  0  0  0  0  0  0  0  0  0  0  0
    0.7093    0.2600   -1.2163 H   0  0  0  0  0  0  0  0  0  0  0  0
    0.3366   -0.6308    0.2835 H   0  0  0  0  0  0  0  0  0  0  0  0
    1.2945   -1.3917   -1.0066 H   0  0  0  0  0  0  0  0  0  0  0  0
    5.4693    0.0324    3.3912 H   0  0  0  0  0  0  0  0  0  0  0  0
    3.2376   -3.5745    2.7021 H   0  0  0  0  0  0  0  0  0  0  0  0
    4.2332    1.1411    1.5812 H   0  0  0  0  0  0  0  0  0  0  0  0
    1.9850   -2.4689    0.9152 H   0  0  0  0  0  0  0  0  0  0  0  0
    6.0575   -2.1032    4.4180 H   0  0  0  0  0  0  0  0  0  0  0  0
    5.1842   -3.4900    4.1682 H   0  0  0  0  0  0  0  0  0  0  0  0
    2.3257    1.0913    0.1754 H   0  0  0  0  0  0  0  0  0  0  0  0
  1  9  1  0  0  0  0
  1 11  1  0  0  0  0
  2  6  1  0  0  0  0
  2 13  1  0  0  0  0
  3 14  1  0  0  0  0
  3  6  2  0  0  0  0
  4  2  2  0  0  0  0
  5  3  1  0  0  0  0
  6  8  1  0  0  0  0
  7  5  2  0  0  0  0
  7  4  1  0  0  0  0
  8 17  1  0  0  0  0
  9 19  1  0  0  0  0
  9  7  1  0  0  0  0
 10  1  1  0  0  0  0
 12  1  1  0  0  0  0
 15  4  1  0  0  0  0
 16  5  1  0  0  0  0
 18  8  1  0  0  0  0
M  END
>  <HBA>
2

>  <HBD>
2

>  <TPSA>
38.05

>  <cid>
69332

>  <dipole>
0.53

>  <excitation_energy_1>
4.028

>  <excitation_energy_2>
4.138

>  <excitation_energy_3>
4.286

>  <excitation_energy_4>
4.606

>  <homo_energy>
-4.523

>  <homo_lumo_gap>
4.86

>  <logP>
1.965

>  <lumo_energy>
0.337

>  <melting_point>
88.03

>  <molecular_refractivity>
40.15

>  <oscillator_strength_1>
0.0363

>  <oscillator_strength_2>
0.0108

>  <oscillator_strength_3>
0.0048

>  <oscillator_strength_4>
0.0066

>  <open_babel_can_smiles>
CNc1ccc(cc1)N

>  <mulliken_charges>
19
1   -0.304123
2   -0.17452
3   -0.182791
4   -0.194564
5   -0.188216
6   0.29189
7   0.333387
8   -0.78641
9   -0.634671
10   0.150477
11   0.140547
12   0.161088
13   0.112937
14   0.111659
15   0.112248
16   0.119627
17   0.311087
18   0.311359
19   0.308989

>  <lowdin_charges>
19
1   -0.356683
2   -0.189074
3   -0.189274
4   -0.185658
5   -0.19813
6   0.035278
7   0.036341
8   -0.498133
9   -0.307589
10   0.156213
11   0.134039
12   0.151419
13   0.152231
14   0.149062
15   0.14915
16   0.15789
17   0.268313
18   0.267358
19   0.267246

$$$$

