PCCDB-ID:  24627
public computational chemistry database (PCCDB) project, http://pccdb.org

 23 22  0  0  0  0  0  0  0  0999 V2000
    4.5559   -3.3310    4.0286 C   0  0  0  0  0  0  0  0  0  0  0  0
    4.2461   -3.3166    2.7304 C   0  0  0  0  0  0  0  0  0  0  0  0
    7.1173   -4.4367   -2.9985 C   0  0  0  0  0  0  0  0  0  0  0  0
    8.3706   -4.8854   -3.6074 C   0  0  0  0  0  0  0  0  0  0  0  0
    7.2842   -3.1160   -2.2347 C   0  0  0  0  0  0  0  0  0  0  0  0
    6.0154   -1.5993   -0.9450 C   0  0  0  0  0  0  0  0  0  0  0  0
    4.6270   -1.3846   -0.3710 C   0  0  0  0  0  0  0  0  0  0  0  0
    4.7046   -2.2100    1.8544 C   0  0  0  0  0  0  0  0  0  0  0  0
    9.3730   -5.2252   -4.0834 N   0  0  0  0  0  0  0  0  0  0  0  0
    5.3733   -1.2571    2.2047 O   0  0  0  0  0  0  0  0  0  0  0  0
    6.0162   -2.7958   -1.7054 O   0  0  0  0  0  0  0  0  0  0  0  0
    4.2683   -2.4004    0.5837 O   0  0  0  0  0  0  0  0  0  0  0  0
    4.2272   -4.1310    4.6849 H   0  0  0  0  0  0  0  0  0  0  0  0
    5.1511   -2.5319    4.4614 H   0  0  0  0  0  0  0  0  0  0  0  0
    3.6522   -4.0967    2.2638 H   0  0  0  0  0  0  0  0  0  0  0  0
    6.7490   -5.2069   -2.3113 H   0  0  0  0  0  0  0  0  0  0  0  0
    6.3586   -4.3098   -3.7792 H   0  0  0  0  0  0  0  0  0  0  0  0
    7.6431   -2.3266   -2.9145 H   0  0  0  0  0  0  0  0  0  0  0  0
    8.0311   -3.2311   -1.4338 H   0  0  0  0  0  0  0  0  0  0  0  0
    6.7557   -1.6480   -0.1337 H   0  0  0  0  0  0  0  0  0  0  0  0
    6.2705   -0.7345   -1.5814 H   0  0  0  0  0  0  0  0  0  0  0  0
    3.8768   -1.4636   -1.1607 H   0  0  0  0  0  0  0  0  0  0  0  0
    4.5738   -0.4012    0.1034 H   0  0  0  0  0  0  0  0  0  0  0  0
  1 14  1  0  0  0  0
  1 13  1  0  0  0  0
  2  1  2  0  0  0  0
  3 16  1  0  0  0  0
  3  5  1  0  0  0  0
  4  3  1  0  0  0  0
  5 11  1  0  0  0  0
  5 19  1  0  0  0  0
  6  7  1  0  0  0  0
  6 20  1  0  0  0  0
  7 23  1  0  0  0  0
  7 12  1  0  0  0  0
  8 10  2  0  0  0  0
  8  2  1  0  0  0  0
  9  4  3  0  0  0  0
 11  6  1  0  0  0  0
 12  8  1  0  0  0  0
 15  2  1  0  0  0  0
 17  3  1  0  0  0  0
 18  5  1  0  0  0  0
 21  6  1  0  0  0  0
 22  7  1  0  0  0  0
M  END
>  <HBA>
4

>  <HBD>
0

>  <TPSA>
59.32

>  <cid>
24627

>  <dipole>
3.6

>  <excitation_energy_1>
4.768

>  <excitation_energy_2>
5.461

>  <excitation_energy_3>
6.177

>  <excitation_energy_4>
6.286

>  <homo_energy>
-7.516

>  <homo_lumo_gap>
6.114

>  <logP>
0.646

>  <lumo_energy>
-1.401

>  <melting_point>
-11.1

>  <molecular_refractivity>
42.22

>  <oscillator_strength_1>
0.0002

>  <oscillator_strength_2>
0.0008

>  <oscillator_strength_3>
0.1458

>  <oscillator_strength_4>
0.3265

>  <open_babel_can_smiles>
C=CC(=O)OCCOCCC#N

>  <mulliken_charges>
23
1   -0.301346
2   -0.133282
3   -0.355112
4   0.344796
5   -0.003461
6   -0.036556
7   -0.061814
8   0.607523
9   -0.467016
10   -0.494476
11   -0.47562
12   -0.464484
13   0.160461
14   0.182093
15   0.157604
16   0.208787
17   0.206658
18   0.14425
19   0.147924
20   0.159516
21   0.131934
22   0.167752
23   0.173867

>  <lowdin_charges>
23
1   -0.264037
2   -0.186706
3   -0.278533
4   -0.017984
5   -0.122084
6   -0.140336
7   -0.137699
8   0.197474
9   -0.122365
10   -0.275804
11   -0.270387
12   -0.186732
13   0.171504
14   0.18121
15   0.173245
16   0.190556
17   0.189082
18   0.140178
19   0.142159
20   0.149134
21   0.138934
22   0.164142
23   0.165049

$$$$

