PCCDB-ID:  7023
public computational chemistry database (PCCDB) project, http://pccdb.org

 23 24  0  0  0  0  0  0  0  0999 V2000
    1.1519   -0.0507   -0.6830 C   0  0  0  0  0  0  0  0  0  0  0  0
    6.8372    3.4033    2.1594 C   0  0  0  0  0  0  0  0  0  0  0  0
    6.2466    2.2107    1.8149 C   0  0  0  0  0  0  0  0  0  0  0  0
    6.1443    4.6122    1.9043 C   0  0  0  0  0  0  0  0  0  0  0  0
    4.2798    1.0280    0.8360 C   0  0  0  0  0  0  0  0  0  0  0  0
    2.4197    2.3769    0.0141 C   0  0  0  0  0  0  0  0  0  0  0  0
    4.9622    2.2064    1.2048 C   0  0  0  0  0  0  0  0  0  0  0  0
    3.0256    1.1206    0.2543 C   0  0  0  0  0  0  0  0  0  0  0  0
    3.0724    3.5549    0.3572 C   0  0  0  0  0  0  0  0  0  0  0  0
    4.3657    3.4864    0.9794 C   0  0  0  0  0  0  0  0  0  0  0  0
    2.5511    4.8026    0.0857 N   0  0  0  0  0  0  0  0  0  0  0  0
    4.9547    4.6592    1.3365 N   0  0  0  0  0  0  0  0  0  0  0  0
    2.4284   -0.0659   -0.0664 O   0  0  0  0  0  0  0  0  0  0  0  0
    0.8901   -1.0975   -0.8491 H   0  0  0  0  0  0  0  0  0  0  0  0
    1.1720    0.4725   -1.6481 H   0  0  0  0  0  0  0  0  0  0  0  0
    0.3930    0.4110   -0.0373 H   0  0  0  0  0  0  0  0  0  0  0  0
    7.8174    3.4314    2.6266 H   0  0  0  0  0  0  0  0  0  0  0  0
    6.7463    1.2633    2.0032 H   0  0  0  0  0  0  0  0  0  0  0  0
    6.5905    5.5661    2.1826 H   0  0  0  0  0  0  0  0  0  0  0  0
    4.7195    0.0502    1.0034 H   0  0  0  0  0  0  0  0  0  0  0  0
    1.4456    2.4378   -0.4585 H   0  0  0  0  0  0  0  0  0  0  0  0
    1.5451    4.8851    0.0434 H   0  0  0  0  0  0  0  0  0  0  0  0
    3.0286    5.5531    0.5717 H   0  0  0  0  0  0  0  0  0  0  0  0
  1 13  1  0  0  0  0
  1 16  1  0  0  0  0
  2 17  1  0  0  0  0
  3 18  1  0  0  0  0
  3  2  2  0  0  0  0
  4  2  1  0  0  0  0
  4 19  1  0  0  0  0
  5 20  1  0  0  0  0
  5  7  2  0  0  0  0
  6  8  2  0  0  0  0
  6  9  1  0  0  0  0
  7  3  1  0  0  0  0
  8  5  1  0  0  0  0
  9 10  2  0  0  0  0
 10  7  1  0  0  0  0
 10 12  1  0  0  0  0
 11  9  1  0  0  0  0
 11 23  1  0  0  0  0
 12  4  2  0  0  0  0
 13  8  1  0  0  0  0
 14  1  1  0  0  0  0
 15  1  1  0  0  0  0
 21  6  1  0  0  0  0
 22 11  1  0  0  0  0
M  END
>  <HBA>
3

>  <HBD>
1

>  <TPSA>
48.14

>  <cid>
7023

>  <dipole>
1.73

>  <excitation_energy_1>
3.362

>  <excitation_energy_2>
4.1

>  <excitation_energy_3>
4.549

>  <excitation_energy_4>
4.581

>  <homo_energy>
-5.021

>  <homo_lumo_gap>
3.981

>  <logP>
2.407

>  <lumo_energy>
-1.039

>  <melting_point>
119.42

>  <molecular_refractivity>
52.64

>  <oscillator_strength_1>
0.0564

>  <oscillator_strength_2>
0.0045

>  <oscillator_strength_3>
0.0056

>  <oscillator_strength_4>
0.0023

>  <open_babel_can_smiles>
COc1cc(N)c2c(c1)cccn2

>  <mulliken_charges>
23
1   -0.211706
2   -0.156344
3   -0.155497
4   0.039352
5   -0.282726
6   -0.272913
7   0.177435
8   0.390468
9   0.317912
10   0.212044
11   -0.799557
12   -0.53787
13   -0.512153
14   0.169395
15   0.153
16   0.149536
17   0.133363
18   0.138674
19   0.133866
20   0.127
21   0.119548
22   0.318538
23   0.348634

>  <lowdin_charges>
23
1   -0.277091
2   -0.177643
3   -0.132509
4   -0.102221
5   -0.232196
6   -0.256851
7   0.001108
8   0.115155
9   0.070215
10   0.000363
11   -0.470754
12   -0.157221
13   -0.197443
14   0.161423
15   0.144975
16   0.145019
17   0.161853
18   0.161832
19   0.153524
20   0.163553
21   0.158731
22   0.275092
23   0.291085

$$$$

