PCCDB-ID:  24191
public computational chemistry database (PCCDB) project, http://pccdb.org

 36 35  0  0  0  0  0  0  0  0999 V2000
    0.5254   -2.8163    0.5584 C   0  0  0  0  0  0  0  0  0  0  0  0
    1.9763   -1.3776   -0.9454 C   0  0  0  0  0  0  0  0  0  0  0  0
    7.0621   -0.7974    0.6465 C   0  0  0  0  0  0  0  0  0  0  0  0
    9.3000   -1.0973    3.9599 C   0  0  0  0  0  0  0  0  0  0  0  0
   10.9116   -3.9879    2.5698 C   0  0  0  0  0  0  0  0  0  0  0  0
    4.4539   -2.6834    0.5064 C   0  0  0  0  0  0  0  0  0  0  0  0
    2.9944   -2.9558    0.7523 C   0  0  0  0  0  0  0  0  0  0  0  0
    5.1598   -2.1148    1.7652 C   0  0  0  0  0  0  0  0  0  0  0  0
    7.5254   -2.6847    2.2393 C   0  0  0  0  0  0  0  0  0  0  0  0
    1.9237   -2.4101    0.1546 C   0  0  0  0  0  0  0  0  0  0  0  0
    6.6496   -1.9060    1.5873 C   0  0  0  0  0  0  0  0  0  0  0  0
    9.0320   -2.6178    2.1221 C   0  0  0  0  0  0  0  0  0  0  0  0
    9.6160   -1.4158    2.6086 O   0  0  0  0  0  0  0  0  0  0  0  0
    9.5281   -3.7575    2.7876 O   0  0  0  0  0  0  0  0  0  0  0  0
   -0.0532   -1.9499    0.9093 H   0  0  0  0  0  0  0  0  0  0  0  0
    0.5314   -3.5651    1.3568 H   0  0  0  0  0  0  0  0  0  0  0  0
   -0.0285   -3.2333   -0.2947 H   0  0  0  0  0  0  0  0  0  0  0  0
    1.4432   -0.4648   -0.6446 H   0  0  0  0  0  0  0  0  0  0  0  0
    1.4689   -1.7472   -1.8475 H   0  0  0  0  0  0  0  0  0  0  0  0
    2.9924   -1.0931   -1.2280 H   0  0  0  0  0  0  0  0  0  0  0  0
    6.7641   -1.0191   -0.3871 H   0  0  0  0  0  0  0  0  0  0  0  0
    8.1375   -0.6129    0.6662 H   0  0  0  0  0  0  0  0  0  0  0  0
    6.5586    0.1395    0.9206 H   0  0  0  0  0  0  0  0  0  0  0  0
    9.8917   -0.2138    4.2119 H   0  0  0  0  0  0  0  0  0  0  0  0
    9.5649   -1.9178    4.6380 H   0  0  0  0  0  0  0  0  0  0  0  0
    8.2339   -0.8670    4.0817 H   0  0  0  0  0  0  0  0  0  0  0  0
   11.1674   -4.9008    3.1132 H   0  0  0  0  0  0  0  0  0  0  0  0
   11.5256   -3.1573    2.9375 H   0  0  0  0  0  0  0  0  0  0  0  0
   11.1252   -4.1348    1.4996 H   0  0  0  0  0  0  0  0  0  0  0  0
    4.5923   -1.9981   -0.3355 H   0  0  0  0  0  0  0  0  0  0  0  0
    4.9591   -3.6207    0.2300 H   0  0  0  0  0  0  0  0  0  0  0  0
    2.8042   -3.6918    1.5365 H   0  0  0  0  0  0  0  0  0  0  0  0
    4.9826   -2.7964    2.6065 H   0  0  0  0  0  0  0  0  0  0  0  0
    4.6795   -1.1607    2.0261 H   0  0  0  0  0  0  0  0  0  0  0  0
    7.1614   -3.4624    2.9079 H   0  0  0  0  0  0  0  0  0  0  0  0
    9.3574   -2.6334    1.0710 H   0  0  0  0  0  0  0  0  0  0  0  0
  1 15  1  0  0  0  0
  1 16  1  0  0  0  0
  2 18  1  0  0  0  0
  2 10  1  0  0  0  0
  3 22  1  0  0  0  0
  3 23  1  0  0  0  0
  3 11  1  0  0  0  0
  4 26  1  0  0  0  0
  4 24  1  0  0  0  0
  4 25  1  0  0  0  0
  5 14  1  0  0  0  0
  5 28  1  0  0  0  0
  5 27  1  0  0  0  0
  6  7  1  0  0  0  0
  6  8  1  0  0  0  0
  7 32  1  0  0  0  0
  8 34  1  0  0  0  0
  8 33  1  0  0  0  0
  9 35  1  0  0  0  0
 10  1  1  0  0  0  0
 10  7  2  0  0  0  0
 11  8  1  0  0  0  0
 11  9  2  0  0  0  0
 12  9  1  0  0  0  0
 12 13  1  0  0  0  0
 12 14  1  0  0  0  0
 13  4  1  0  0  0  0
 17  1  1  0  0  0  0
 19  2  1  0  0  0  0
 20  2  1  0  0  0  0
 21  3  1  0  0  0  0
 29  5  1  0  0  0  0
 30  6  1  0  0  0  0
 31  6  1  0  0  0  0
 36 12  1  0  0  0  0
M  END
>  <HBA>
2

>  <HBD>
0

>  <TPSA>
18.46

>  <cid>
24191

>  <dipole>
0.64

>  <excitation_energy_1>
5.609

>  <excitation_energy_2>
5.813

>  <excitation_energy_3>
5.995

>  <excitation_energy_4>
6.092

>  <homo_energy>
-6.166

>  <homo_lumo_gap>
6.55

>  <logP>
3.298

>  <lumo_energy>
0.384

>  <melting_point>
-22.03

>  <molecular_refractivity>
61.02

>  <oscillator_strength_1>
0.0088

>  <oscillator_strength_2>
0.061

>  <oscillator_strength_3>
0.0064

>  <oscillator_strength_4>
0.002

>  <open_babel_can_smiles>
COC(/C=C(/CCC=C(C)C)\C)OC

>  <mulliken_charges>
36
1   -0.505948
2   -0.513475
3   -0.530584
4   -0.212525
5   -0.203684
6   -0.303816
7   -0.160048
8   -0.326229
9   -0.234048
10   0.18801
11   0.20408
12   0.34144
13   -0.472488
14   -0.485006
15   0.148619
16   0.151245
17   0.148996
18   0.15166
19   0.152454
20   0.153411
21   0.155959
22   0.17841
23   0.15297
24   0.151834
25   0.147273
26   0.142432
27   0.155883
28   0.15222
29   0.132106
30   0.140215
31   0.146036
32   0.110698
33   0.140624
34   0.140014
35   0.137685
36   0.123576

>  <lowdin_charges>
36
1   -0.441285
2   -0.444937
3   -0.449146
4   -0.288296
5   -0.28251
6   -0.273978
7   -0.191359
8   -0.269958
9   -0.21904
10   -0.009513
11   0.008682
12   0.098881
13   -0.276821
14   -0.262774
15   0.152832
16   0.154794
17   0.153163
18   0.155239
19   0.155767
20   0.153931
21   0.155382
22   0.16647
23   0.157695
24   0.153577
25   0.142729
26   0.138622
27   0.15483
28   0.145128
29   0.132943
30   0.145806
31   0.150639
32   0.144916
33   0.148098
34   0.146885
35   0.161229
36   0.131379

$$$$

