PCCDB-ID:  66141
public computational chemistry database (PCCDB) project, http://pccdb.org

 22 22  0  0  1  0  0  0  0  0999 V2000
    0.9408    0.0661    0.1912 C   0  0  0  0  0  0  0  0  0  0  0  0
    4.1080    2.8969   -1.7540 C   0  0  0  0  0  0  0  0  0  0  0  0
    3.2247    3.7163   -0.8038 C   0  0  0  0  0  0  0  0  0  0  0  0
    4.2680    1.5643   -1.0152 C   0  0  0  0  0  0  0  0  0  0  0  0
    2.3810    0.1397   -0.2882 C   0  0  0  0  0  0  0  0  0  0  0  0
    2.2249    2.6704   -0.2453 C   0  0  2  0  0  0  0  0  0  0  0  0
    1.7810    3.0695    1.1681 C   0  0  0  0  0  0  0  0  0  0  0  0
    2.9753    1.4003   -0.3068 N   0  0  0  0  0  0  0  0  0  0  0  0
    3.0107   -0.8548   -0.6156 O   0  0  0  0  0  0  0  0  0  0  0  0
    0.9324    3.9023    1.3665 O   0  0  0  0  0  0  0  0  0  0  0  0
    2.4537    2.4682    2.1738 O   0  0  0  0  0  0  0  0  0  0  0  0
    0.2658    0.6204   -0.4714 H   0  0  0  0  0  0  0  0  0  0  0  0
    0.8254    0.4796    1.1989 H   0  0  0  0  0  0  0  0  0  0  0  0
    0.6461   -0.9837    0.1988 H   0  0  0  0  0  0  0  0  0  0  0  0
    5.0665    3.3806   -1.9643 H   0  0  0  0  0  0  0  0  0  0  0  0
    3.5938    2.7360   -2.7090 H   0  0  0  0  0  0  0  0  0  0  0  0
    2.7016    4.5503   -1.2768 H   0  0  0  0  0  0  0  0  0  0  0  0
    3.8298    4.1232    0.0155 H   0  0  0  0  0  0  0  0  0  0  0  0
    5.0939    1.6011   -0.2936 H   0  0  0  0  0  0  0  0  0  0  0  0
    4.4294    0.7012   -1.6626 H   0  0  0  0  0  0  0  0  0  0  0  0
    1.3241    2.6393   -0.8673 H   0  0  0  0  0  0  0  0  0  0  0  0
    3.0543    1.8105    1.7674 H   0  0  0  0  0  0  0  0  0  0  0  0
  1 14  1  0  0  0  0
  1 13  1  0  0  0  0
  2  4  1  0  0  0  0
  2  3  1  0  0  0  0
  3  6  1  0  0  0  0
  3 18  1  0  0  0  0
  4  8  1  0  0  0  0
  4 19  1  0  0  0  0
  5  1  1  0  0  0  0
  6 21  1  6  0  0  0
  6  7  1  0  0  0  0
  7 10  2  0  0  0  0
  7 11  1  0  0  0  0
  8  5  1  0  0  0  0
  8  6  1  0  0  0  0
  9  5  2  0  0  0  0
 12  1  1  0  0  0  0
 15  2  1  0  0  0  0
 16  2  1  0  0  0  0
 17  3  1  0  0  0  0
 20  4  1  0  0  0  0
 22 11  1  0  0  0  0
M  END
>  <HBA>
4

>  <HBD>
1

>  <TPSA>
57.61

>  <cid>
66141

>  <dipole>
3.05

>  <excitation_energy_1>
5.426

>  <excitation_energy_2>
5.488

>  <excitation_energy_3>
6.068

>  <excitation_energy_4>
6.22

>  <homo_energy>
-7.021

>  <homo_lumo_gap>
7.031

>  <logP>
0.02

>  <lumo_energy>
0.011

>  <melting_point>
96.54

>  <molecular_refractivity>
42.43

>  <oscillator_strength_1>
0.0013

>  <oscillator_strength_2>
0.0011

>  <oscillator_strength_3>
0.0128

>  <oscillator_strength_4>
0.0093

>  <open_babel_can_smiles>
CC(=O)N1CCC[C@@H]1C(=O)O

>  <mulliken_charges>
22
1   -0.554658
2   -0.293774
3   -0.301224
4   -0.125653
5   0.560318
6   -0.044523
7   0.594785
8   -0.497311
9   -0.48136
10   -0.448598
11   -0.573034
12   0.177007
13   0.186559
14   0.19492
15   0.159276
16   0.157181
17   0.178209
18   0.163471
19   0.153402
20   0.193827
21   0.176878
22   0.4243

>  <lowdin_charges>
22
1   -0.478078
2   -0.282557
3   -0.273852
4   -0.197282
5   0.162976
6   -0.098796
7   0.173284
8   -0.150013
9   -0.287064
10   -0.239878
11   -0.35121
12   0.173381
13   0.176001
14   0.182293
15   0.160067
16   0.153162
17   0.170166
18   0.157695
19   0.147272
20   0.175188
21   0.166014
22   0.36123

$$$$

