PCCDB-ID:  18338
public computational chemistry database (PCCDB) project, http://pccdb.org

 24 24  0  0  0  0  0  0  0  0999 V2000
    0.5216    1.4298   -1.3628 C   0  0  0  0  0  0  0  0  0  0  0  0
    1.5382    0.4124   -0.8208 C   0  0  0  0  0  0  0  0  0  0  0  0
   -0.6809    1.5559   -0.4138 C   0  0  0  0  0  0  0  0  0  0  0  0
    0.2767   -2.0168    2.4699 C   0  0  0  0  0  0  0  0  0  0  0  0
    0.6276   -1.9016    3.8878 C   0  0  0  0  0  0  0  0  0  0  0  0
    0.8493   -0.9281   -0.5019 C   0  0  0  0  0  0  0  0  0  0  0  0
   -1.2748    0.1669   -0.1171 C   0  0  0  0  0  0  0  0  0  0  0  0
    0.0491   -0.6366    1.8066 C   0  0  0  0  0  0  0  0  0  0  0  0
    0.9015   -1.7816    5.0097 N   0  0  0  0  0  0  0  0  0  0  0  0
   -0.3042   -0.8055    0.4011 N   0  0  0  0  0  0  0  0  0  0  0  0
    0.1662    1.0935   -2.3486 H   0  0  0  0  0  0  0  0  0  0  0  0
    0.9977    2.4056   -1.5187 H   0  0  0  0  0  0  0  0  0  0  0  0
    2.0107    0.8126    0.0870 H   0  0  0  0  0  0  0  0  0  0  0  0
    2.3460    0.2469   -1.5454 H   0  0  0  0  0  0  0  0  0  0  0  0
   -1.4530    2.2021   -0.8514 H   0  0  0  0  0  0  0  0  0  0  0  0
   -0.3662    2.0316    0.5261 H   0  0  0  0  0  0  0  0  0  0  0  0
   -0.6327   -2.6187    2.3661 H   0  0  0  0  0  0  0  0  0  0  0  0
    1.0784   -2.5601    1.9558 H   0  0  0  0  0  0  0  0  0  0  0  0
    1.5655   -1.6368   -0.0698 H   0  0  0  0  0  0  0  0  0  0  0  0
    0.4901   -1.3803   -1.4376 H   0  0  0  0  0  0  0  0  0  0  0  0
   -1.6881   -0.2494   -1.0477 H   0  0  0  0  0  0  0  0  0  0  0  0
   -2.1065    0.2386    0.5930 H   0  0  0  0  0  0  0  0  0  0  0  0
    0.9397   -0.0084    1.9719 H   0  0  0  0  0  0  0  0  0  0  0  0
   -0.7802   -0.1419    2.3220 H   0  0  0  0  0  0  0  0  0  0  0  0
  1  2  1  0  0  0  0
  1  3  1  0  0  0  0
  2  6  1  0  0  0  0
  2 13  1  0  0  0  0
  3  7  1  0  0  0  0
  3 16  1  0  0  0  0
  4  5  1  0  0  0  0
  5  9  3  0  0  0  0
  6 19  1  0  0  0  0
  6 10  1  0  0  0  0
  7 10  1  0  0  0  0
  7 22  1  0  0  0  0
  8 23  1  0  0  0  0
  8 24  1  0  0  0  0
  8  4  1  0  0  0  0
 10  8  1  0  0  0  0
 11  1  1  0  0  0  0
 12  1  1  0  0  0  0
 14  2  1  0  0  0  0
 15  3  1  0  0  0  0
 17  4  1  0  0  0  0
 18  4  1  0  0  0  0
 20  6  1  0  0  0  0
 21  7  1  0  0  0  0
M  END
>  <HBA>
2

>  <HBD>
0

>  <TPSA>
27.03

>  <cid>
18338

>  <dipole>
4.36

>  <excitation_energy_1>
5.015

>  <excitation_energy_2>
5.51

>  <excitation_energy_3>
5.564

>  <excitation_energy_4>
5.687

>  <homo_energy>
-5.842

>  <homo_lumo_gap>
6.844

>  <logP>
1.324

>  <lumo_energy>
1.001

>  <melting_point>
31.22

>  <molecular_refractivity>
45.02

>  <oscillator_strength_1>
0.013

>  <oscillator_strength_2>
0.0037

>  <oscillator_strength_3>
0.0056

>  <oscillator_strength_4>
0.0053

>  <open_babel_can_smiles>
N#CCCN1CCCCC1

>  <mulliken_charges>
24
1   -0.25938
2   -0.266508
3   -0.264946
4   -0.336353
5   0.343393
6   -0.150303
7   -0.147877
8   -0.131309
9   -0.474596
10   -0.376859
11   0.130176
12   0.137846
13   0.137103
14   0.135646
15   0.134883
16   0.135673
17   0.199942
18   0.191737
19   0.135956
20   0.141755
21   0.138954
22   0.140767
23   0.145372
24   0.158929

>  <lowdin_charges>
24
1   -0.277865
2   -0.294983
3   -0.296269
4   -0.280714
5   -0.020663
6   -0.208566
7   -0.204485
8   -0.194473
9   -0.131791
10   -0.189881
11   0.138085
12   0.146263
13   0.141599
14   0.14867
15   0.148648
16   0.141114
17   0.184946
18   0.18009
19   0.144668
20   0.143821
21   0.141723
22   0.146485
23   0.136108
24   0.157471

$$$$

