PCCDB-ID:  11461
public computational chemistry database (PCCDB) project, http://pccdb.org

 19 19  0  0  0  0  0  0  0  0999 V2000
    1.4624    0.6454   -0.2682 C   0  0  0  0  0  0  0  0  0  0  0  0
    5.2489    2.0044    2.3640 C   0  0  0  0  0  0  0  0  0  0  0  0
    4.8427    3.3422    2.3410 C   0  0  0  0  0  0  0  0  0  0  0  0
    4.5095    1.0309    1.7056 C   0  0  0  0  0  0  0  0  0  0  0  0
    2.9160    2.7142    0.9999 C   0  0  0  0  0  0  0  0  0  0  0  0
    3.6791    3.6954    1.6498 C   0  0  0  0  0  0  0  0  0  0  0  0
    3.3330    1.3821    1.0212 C   0  0  0  0  0  0  0  0  0  0  0  0
    3.1663    5.1042    1.5822 C   0  0  0  0  0  0  0  0  0  0  0  0
    2.0179    5.3847    1.3307 O   0  0  0  0  0  0  0  0  0  0  0  0
    4.0701    6.0946    1.8162 O   0  0  0  0  0  0  0  0  0  0  0  0
    2.6749    0.3564    0.4167 O   0  0  0  0  0  0  0  0  0  0  0  0
    1.1072   -0.3096   -0.6582 H   0  0  0  0  0  0  0  0  0  0  0  0
    1.6280    1.3404   -1.1012 H   0  0  0  0  0  0  0  0  0  0  0  0
    0.7093    1.0660    0.4099 H   0  0  0  0  0  0  0  0  0  0  0  0
    6.1457    1.7209    2.9075 H   0  0  0  0  0  0  0  0  0  0  0  0
    5.4117    4.0794    2.9021 H   0  0  0  0  0  0  0  0  0  0  0  0
    4.8126   -0.0114    1.7120 H   0  0  0  0  0  0  0  0  0  0  0  0
    2.0108    3.0287    0.4960 H   0  0  0  0  0  0  0  0  0  0  0  0
    4.9667    5.7228    1.8418 H   0  0  0  0  0  0  0  0  0  0  0  0
  1 14  1  0  0  0  0
  1 11  1  0  0  0  0
  2 15  1  0  0  0  0
  3  2  1  0  0  0  0
  3 16  1  0  0  0  0
  4 17  1  0  0  0  0
  4  2  2  0  0  0  0
  5  7  2  0  0  0  0
  5  6  1  0  0  0  0
  6  3  2  0  0  0  0
  7  4  1  0  0  0  0
  8  6  1  0  0  0  0
  8 10  1  0  0  0  0
  9  8  2  0  0  0  0
 10 19  1  0  0  0  0
 11  7  1  0  0  0  0
 12  1  1  0  0  0  0
 13  1  1  0  0  0  0
 18  5  1  0  0  0  0
M  END
>  <HBA>
3

>  <HBD>
1

>  <TPSA>
46.53

>  <cid>
11461

>  <dipole>
3.67

>  <excitation_energy_1>
4.436

>  <excitation_energy_2>
4.737

>  <excitation_energy_3>
5.277

>  <excitation_energy_4>
5.709

>  <homo_energy>
-6.452

>  <homo_lumo_gap>
5.129

>  <logP>
1.393

>  <lumo_energy>
-1.322

>  <melting_point>
100.75

>  <molecular_refractivity>
39.89

>  <oscillator_strength_1>
0.0556

>  <oscillator_strength_2>
0.0108

>  <oscillator_strength_3>
0.0513

>  <oscillator_strength_4>
0.0508

>  <open_babel_can_smiles>
COc1cccc(c1)C(=O)O

>  <mulliken_charges>
19
1   -0.221496
2   -0.13481
3   -0.208203
4   -0.159205
5   -0.229628
6   0.05208
7   0.379957
8   0.55177
9   -0.449575
10   -0.575451
11   -0.506077
12   0.174205
13   0.159399
14   0.163363
15   0.141966
16   0.131031
17   0.14939
18   0.170024
19   0.411259

>  <lowdin_charges>
19
1   -0.279045
2   -0.142849
3   -0.190054
4   -0.16369
5   -0.188553
6   -0.046065
7   0.104305
8   0.191966
9   -0.241954
10   -0.35369
11   -0.192935
12   0.165775
13   0.150083
14   0.153019
15   0.164788
16   0.157827
17   0.17102
18   0.183132
19   0.35692

$$$$

