PCCDB-ID:  18864
public computational chemistry database (PCCDB) project, http://pccdb.org

 27 29  0  0  0  0  0  0  0  0999 V2000
   -3.5926   -0.6463    0.3743 C   0  0  0  0  0  0  0  0  0  0  0  0
    3.7278   -0.4162    0.4937 C   0  0  0  0  0  0  0  0  0  0  0  0
   -3.5776    0.7285    0.1081 C   0  0  0  0  0  0  0  0  0  0  0  0
    3.6415    0.9369    0.1544 C   0  0  0  0  0  0  0  0  0  0  0  0
   -2.4039   -1.3666    0.3506 C   0  0  0  0  0  0  0  0  0  0  0  0
    2.5871   -1.2132    0.4477 C   0  0  0  0  0  0  0  0  0  0  0  0
   -2.3777    1.3718   -0.1686 C   0  0  0  0  0  0  0  0  0  0  0  0
    2.4137    1.4926   -0.1809 C   0  0  0  0  0  0  0  0  0  0  0  0
   -1.1791   -0.7428    0.0689 C   0  0  0  0  0  0  0  0  0  0  0  0
    1.3337   -0.6948    0.0638 C   0  0  0  0  0  0  0  0  0  0  0  0
   -1.1781    0.6434   -0.1844 C   0  0  0  0  0  0  0  0  0  0  0  0
    1.2562    0.6981   -0.2009 C   0  0  0  0  0  0  0  0  0  0  0  0
    0.0914   -1.5004   -0.0300 C   0  0  0  0  0  0  0  0  0  0  0  0
    1.0854   -3.5868   -0.3481 N   0  0  0  0  0  0  0  0  0  0  0  0
    0.0275    1.2809   -0.4627 N   0  0  0  0  0  0  0  0  0  0  0  0
   -0.0300   -2.7769   -0.2207 N   0  0  0  0  0  0  0  0  0  0  0  0
   -4.5288   -1.1495    0.5976 H   0  0  0  0  0  0  0  0  0  0  0  0
    4.6775   -0.8484    0.7940 H   0  0  0  0  0  0  0  0  0  0  0  0
   -4.5014    1.3004    0.1227 H   0  0  0  0  0  0  0  0  0  0  0  0
    4.5279    1.5652    0.1703 H   0  0  0  0  0  0  0  0  0  0  0  0
   -2.3950   -2.4342    0.5410 H   0  0  0  0  0  0  0  0  0  0  0  0
    2.6545   -2.2515    0.7490 H   0  0  0  0  0  0  0  0  0  0  0  0
   -2.3578    2.4408   -0.3708 H   0  0  0  0  0  0  0  0  0  0  0  0
    2.3336    2.5534   -0.4091 H   0  0  0  0  0  0  0  0  0  0  0  0
    0.7865   -4.4315   -0.8266 H   0  0  0  0  0  0  0  0  0  0  0  0
    1.8491   -3.1533   -0.8737 H   0  0  0  0  0  0  0  0  0  0  0  0
    0.0065    2.2861   -0.5645 H   0  0  0  0  0  0  0  0  0  0  0  0
  1 17  1  0  0  0  0
  2 18  1  0  0  0  0
  3 19  1  0  0  0  0
  3  1  1  0  0  0  0
  4 20  1  0  0  0  0
  4  2  2  0  0  0  0
  5  1  2  0  0  0  0
  5 21  1  0  0  0  0
  6  2  1  0  0  0  0
  6 22  1  0  0  0  0
  7  3  2  0  0  0  0
  8  4  1  0  0  0  0
  9  5  1  0  0  0  0
 10  6  2  0  0  0  0
 11  7  1  0  0  0  0
 11  9  2  0  0  0  0
 12  8  2  0  0  0  0
 12 10  1  0  0  0  0
 13 10  1  0  0  0  0
 13  9  1  0  0  0  0
 14 16  1  0  0  0  0
 15 12  1  0  0  0  0
 15 11  1  0  0  0  0
 16 13  2  0  0  0  0
 23  7  1  0  0  0  0
 24  8  1  0  0  0  0
 25 14  1  0  0  0  0
 26 14  1  0  0  0  0
 27 15  1  0  0  0  0
M  END
>  <HBA>
3

>  <HBD>
2

>  <TPSA>
50.94

>  <cid>
18864

>  <dipole>
2.66

>  <excitation_energy_1>
3.377

>  <excitation_energy_2>
3.893

>  <excitation_energy_3>
4.127

>  <excitation_energy_4>
4.218

>  <homo_energy>
-4.825

>  <homo_lumo_gap>
3.856

>  <logP>
3.447

>  <lumo_energy>
-0.969

>  <melting_point>
198.96

>  <molecular_refractivity>
66.46

>  <oscillator_strength_1>
0.1275

>  <oscillator_strength_2>
0.0532

>  <oscillator_strength_3>
0.053

>  <oscillator_strength_4>
0.0119

>  <open_babel_can_smiles>
NN=c1c2ccccc2[nH]c2c1cccc2

>  <mulliken_charges>
27
1   -0.135313
2   -0.139606
3   -0.134938
4   -0.130571
5   -0.187864
6   -0.233641
7   -0.187259
8   -0.189972
9   0.090128
10   0.074399
11   0.319164
12   0.338148
13   0.237924
14   -0.560088
15   -0.813027
16   -0.386245
17   0.125858
18   0.128832
19   0.127764
20   0.131989
21   0.153305
22   0.17456
23   0.118745
24   0.122985
25   0.327653
26   0.306112
27   0.320955

>  <lowdin_charges>
27
1   -0.175583
2   -0.181797
3   -0.148801
4   -0.142247
5   -0.134167
6   -0.157704
7   -0.19363
8   -0.194804
9   -0.030817
10   -0.05387
11   0.051878
12   0.064069
13   0.005362
14   -0.436695
15   -0.223423
16   -0.140482
17   0.15755
18   0.158879
19   0.15825
20   0.160497
21   0.17102
22   0.174217
23   0.150792
24   0.1529
25   0.270578
26   0.25488
27   0.283146

$$$$

