PCCDB-ID:  48535
public computational chemistry database (PCCDB) project, http://pccdb.org

 31 31  0  0  1  0  0  0  0  0999 V2000
    2.3292    0.7909   -3.4994 C   0  0  0  0  0  0  0  0  0  0  0  0
    5.0989    0.3165    3.7100 C   0  0  0  0  0  0  0  0  0  0  0  0
    6.3447    1.2214    0.6978 C   0  0  0  0  0  0  0  0  0  0  0  0
    2.5397    0.1402   -2.3548 C   0  0  0  0  0  0  0  0  0  0  0  0
    4.3933    1.3293    2.8181 C   0  0  0  0  0  0  0  0  0  0  0  0
    3.1661    0.7606   -1.1363 C   0  0  0  0  0  0  0  0  0  0  0  0
    5.0963    0.7747    0.5411 C   0  0  0  0  0  0  0  0  0  0  0  0
    5.4761    0.1819   -1.8976 C   0  0  0  0  0  0  0  0  0  0  0  0
    4.3179   -1.4016   -0.4209 C   0  0  0  0  0  0  0  0  0  0  0  0
    5.6161   -2.1247   -2.2114 C   0  0  0  0  0  0  0  0  0  0  0  0
    4.5353    0.0942   -0.7141 C   0  0  2  0  0  0  0  0  0  0  0  0
    5.9529   -0.7875   -2.5722 N   0  0  0  0  0  0  0  0  0  0  0  0
    4.7782   -2.3767   -1.1031 N   0  0  0  0  0  0  0  0  0  0  0  0
    5.7504    1.4457   -2.2725 O   0  0  0  0  0  0  0  0  0  0  0  0
    3.5309   -1.6841    0.6278 O   0  0  0  0  0  0  0  0  0  0  0  0
    6.0587   -3.0418   -2.8656 O   0  0  0  0  0  0  0  0  0  0  0  0
    4.1071    0.8067    1.5038 O   0  0  0  0  0  0  0  0  0  0  0  0
    1.8609    0.3068   -4.3517 H   0  0  0  0  0  0  0  0  0  0  0  0
    2.6146    1.8333   -3.6258 H   0  0  0  0  0  0  0  0  0  0  0  0
    5.2498    0.7475    4.7060 H   0  0  0  0  0  0  0  0  0  0  0  0
    6.0747    0.0298    3.3090 H   0  0  0  0  0  0  0  0  0  0  0  0
    4.4936   -0.5893    3.8195 H   0  0  0  0  0  0  0  0  0  0  0  0
    7.0472    1.1855   -0.1226 H   0  0  0  0  0  0  0  0  0  0  0  0
    6.7002    1.6529    1.6248 H   0  0  0  0  0  0  0  0  0  0  0  0
    2.2407   -0.9045   -2.2692 H   0  0  0  0  0  0  0  0  0  0  0  0
    4.9631    2.2583    2.7105 H   0  0  0  0  0  0  0  0  0  0  0  0
    3.4087    1.5832    3.2194 H   0  0  0  0  0  0  0  0  0  0  0  0
    2.4836    0.6869   -0.2837 H   0  0  0  0  0  0  0  0  0  0  0  0
    3.3630    1.8231   -1.3063 H   0  0  0  0  0  0  0  0  0  0  0  0
    6.2959    1.3622   -3.0799 H   0  0  0  0  0  0  0  0  0  0  0  0
    3.4046   -0.8660    1.1520 H   0  0  0  0  0  0  0  0  0  0  0  0
  1  4  2  0  0  0  0
  2 22  1  0  0  0  0
  2 20  1  0  0  0  0
  3 24  1  0  0  0  0
  4 25  1  0  0  0  0
  4  6  1  0  0  0  0
  5 27  1  0  0  0  0
  5  2  1  0  0  0  0
  6 11  1  0  0  0  0
  6 28  1  0  0  0  0
  7  3  2  0  0  0  0
  7 17  1  0  0  0  0
  8 11  1  0  0  0  0
  9 15  1  0  0  0  0
 10 13  1  0  0  0  0
 11  9  1  0  0  0  0
 11  7  1  1  0  0  0
 12 10  2  0  0  0  0
 12  8  2  0  0  0  0
 13  9  2  0  0  0  0
 14  8  1  0  0  0  0
 15 31  1  0  0  0  0
 16 10  2  0  0  0  0
 17  5  1  0  0  0  0
 18  1  1  0  0  0  0
 19  1  1  0  0  0  0
 21  2  1  0  0  0  0
 23  3  1  0  0  0  0
 26  5  1  0  0  0  0
 29  6  1  0  0  0  0
 30 14  1  0  0  0  0
M  END
>  <HBA>
6

>  <HBD>
2

>  <TPSA>
84.5

>  <cid>
48535

>  <dipole>
8.95

>  <excitation_energy_1>
4.03

>  <excitation_energy_2>
4.213

>  <excitation_energy_3>
4.725

>  <excitation_energy_4>
5.147

>  <homo_energy>
-6.765

>  <homo_lumo_gap>
5.358

>  <logP>
1.123

>  <lumo_energy>
-1.407

>  <melting_point>
93.52

>  <molecular_refractivity>
67.18

>  <oscillator_strength_1>
0.0005

>  <oscillator_strength_2>
0.0022

>  <oscillator_strength_3>
0.0106

>  <oscillator_strength_4>
0.0088

>  <open_babel_can_smiles>
CCOC(=C)[C@]1(CC=C)C(=N[C](=[N]=C1O)=O)O

>  <mulliken_charges>
31
1   -0.330473
2   -0.468773
3   -0.438049
4   -0.067425
5   -0.049782
6   -0.309248
7   0.450984
8   0.555992
9   0.553619
10   0.625359
11   -0.189233
12   -0.517259
13   -0.476078
14   -0.594553
15   -0.595589
16   -0.43895
17   -0.543042
18   0.154664
19   0.144297
20   0.162356
21   0.176595
22   0.170692
23   0.174749
24   0.15486
25   0.158514
26   0.160721
27   0.168793
28   0.16873
29   0.17675
30   0.422027
31   0.43875

>  <lowdin_charges>
31
1   -0.320091
2   -0.458899
3   -0.401899
4   -0.158844
5   -0.12337
6   -0.263611
7   0.101224
8   0.155008
9   0.154416
10   0.177599
11   -0.04728
12   -0.21641
13   -0.192309
14   -0.338379
15   -0.33778
16   -0.216757
17   -0.221536
18   0.167219
19   0.156696
20   0.165177
21   0.165636
22   0.163851
23   0.18492
24   0.171029
25   0.163304
26   0.151622
27   0.160275
28   0.164051
29   0.166998
30   0.369451
31   0.358687

$$$$

