PCCDB-ID:  30990
public computational chemistry database (PCCDB) project, http://pccdb.org

 32 33  0  0  1  0  0  0  0  0999 V2000
   -0.7806    3.2616    1.7582 C   0  0  0  0  0  0  0  0  0  0  0  0
   -1.1227    2.0425    1.1677 C   0  0  0  0  0  0  0  0  0  0  0  0
    0.4957    3.4262    2.2939 C   0  0  0  0  0  0  0  0  0  0  0  0
   -0.1942    1.0047    1.1181 C   0  0  0  0  0  0  0  0  0  0  0  0
    1.4235    2.3819    2.2415 C   0  0  0  0  0  0  0  0  0  0  0  0
    1.6867   -0.6614    4.0376 C   0  0  0  0  0  0  0  0  0  0  0  0
    1.7969   -2.4164    2.4123 C   0  0  0  0  0  0  0  0  0  0  0  0
    1.5190   -1.6013    5.0494 C   0  0  0  0  0  0  0  0  0  0  0  0
    1.6281   -3.3685    3.4161 C   0  0  0  0  0  0  0  0  0  0  0  0
    3.5474    0.4029    1.5167 C   0  0  0  0  0  0  0  0  0  0  0  0
    1.0947    1.1529    1.6533 C   0  0  0  0  0  0  0  0  0  0  0  0
    1.8317   -1.0444    2.6961 C   0  0  0  0  0  0  0  0  0  0  0  0
    1.4875   -2.9753    4.7556 C   0  0  0  0  0  0  0  0  0  0  0  0
    2.0634   -0.0241    1.5807 C   0  0  2  0  0  0  0  0  0  0  0  0
    4.3849   -0.7426    1.1488 N   0  0  0  0  0  0  0  0  0  0  0  0
    1.3750   -3.9253    5.7784 N   0  0  0  0  0  0  0  0  0  0  0  0
   -1.5013    4.0741    1.7966 H   0  0  0  0  0  0  0  0  0  0  0  0
   -2.1129    1.9016    0.7417 H   0  0  0  0  0  0  0  0  0  0  0  0
    0.7768    4.3706    2.7533 H   0  0  0  0  0  0  0  0  0  0  0  0
   -0.4691    0.0581    0.6578 H   0  0  0  0  0  0  0  0  0  0  0  0
    2.4138    2.5375    2.6593 H   0  0  0  0  0  0  0  0  0  0  0  0
    1.6861    0.3942    4.2970 H   0  0  0  0  0  0  0  0  0  0  0  0
    1.9049   -2.7486    1.3824 H   0  0  0  0  0  0  0  0  0  0  0  0
    1.4085   -1.2723    6.0809 H   0  0  0  0  0  0  0  0  0  0  0  0
    1.6061   -4.4262    3.1616 H   0  0  0  0  0  0  0  0  0  0  0  0
    3.8358    0.8700    2.4753 H   0  0  0  0  0  0  0  0  0  0  0  0
    3.6604    1.1678    0.7387 H   0  0  0  0  0  0  0  0  0  0  0  0
    1.8717   -0.5416    0.6324 H   0  0  0  0  0  0  0  0  0  0  0  0
    4.3461   -1.4377    1.8936 H   0  0  0  0  0  0  0  0  0  0  0  0
    5.3575   -0.4464    1.0855 H   0  0  0  0  0  0  0  0  0  0  0  0
    0.9104   -3.5902    6.6139 H   0  0  0  0  0  0  0  0  0  0  0  0
    0.9923   -4.8160    5.4844 H   0  0  0  0  0  0  0  0  0  0  0  0
  1 17  1  0  0  0  0
  1  3  2  0  0  0  0
  2  1  1  0  0  0  0
  3 19  1  0  0  0  0
  4  2  2  0  0  0  0
  4 11  1  0  0  0  0
  5  3  1  0  0  0  0
  5 21  1  0  0  0  0
  6 22  1  0  0  0  0
  6  8  2  0  0  0  0
  7 12  2  0  0  0  0
  7  9  1  0  0  0  0
  8 24  1  0  0  0  0
  9 13  2  0  0  0  0
 10 14  1  0  0  0  0
 10 26  1  0  0  0  0
 11  5  2  0  0  0  0
 12  6  1  0  0  0  0
 13  8  1  0  0  0  0
 13 16  1  0  0  0  0
 14 28  1  6  0  0  0
 14 11  1  0  0  0  0
 14 12  1  0  0  0  0
 15 10  1  0  0  0  0
 15 29  1  0  0  0  0
 16 31  1  0  0  0  0
 18  2  1  0  0  0  0
 20  4  1  0  0  0  0
 23  7  1  0  0  0  0
 25  9  1  0  0  0  0
 27 10  1  0  0  0  0
 30 15  1  0  0  0  0
 32 16  1  0  0  0  0
M  END
>  <HBA>
2

>  <HBD>
2

>  <TPSA>
52.04

>  <cid>
30990

>  <dipole>
2.11

>  <excitation_energy_1>
4.583

>  <excitation_energy_2>
4.69

>  <excitation_energy_3>
4.772

>  <excitation_energy_4>
4.812

>  <homo_energy>
-5.32

>  <homo_lumo_gap>
5.382

>  <logP>
3.641

>  <lumo_energy>
0.063

>  <melting_point>
141.29

>  <molecular_refractivity>
67.81

>  <oscillator_strength_1>
0.0367

>  <oscillator_strength_2>
0.0066

>  <oscillator_strength_3>
0.0044

>  <oscillator_strength_4>
0.0749

>  <open_babel_can_smiles>
NC[C@H](c1ccccc1)c1ccc(cc1)N

>  <mulliken_charges>
32
1   -0.130153
2   -0.128554
3   -0.133344
4   -0.173845
5   -0.191219
6   -0.187547
7   -0.202423
8   -0.173216
9   -0.172644
10   -0.138716
11   0.16827
12   0.151483
13   0.306671
14   -0.248696
15   -0.726139
16   -0.787398
17   0.125405
18   0.126601
19   0.125628
20   0.125865
21   0.12456
22   0.13023
23   0.13358
24   0.115364
25   0.115492
26   0.116943
27   0.143427
28   0.148538
29   0.304182
30   0.29516
31   0.318299
32   0.318196

>  <lowdin_charges>
32
1   -0.163821
2   -0.154217
3   -0.156598
4   -0.160474
5   -0.176351
6   -0.152402
7   -0.160135
8   -0.196708
9   -0.200489
10   -0.205263
11   0.003089
12   -0.032633
13   0.055175
14   -0.127032
15   -0.559313
16   -0.490363
17   0.156586
18   0.155543
19   0.155422
20   0.155928
21   0.154344
22   0.158079
23   0.1581
24   0.150575
25   0.150422
26   0.118542
27   0.146029
28   0.158056
29   0.25783
30   0.253221
31   0.274735
32   0.274124

$$$$

