PCCDB-ID:  12823
public computational chemistry database (PCCDB) project, http://pccdb.org

 21 21  0  0  0  0  0  0  0  0999 V2000
   -1.6983    0.1417    0.1903 C   0  0  0  0  0  0  0  0  0  0  0  0
   -0.8825    0.4750    1.2732 C   0  0  0  0  0  0  0  0  0  0  0  0
   -1.1217   -0.1658   -1.0458 C   0  0  0  0  0  0  0  0  0  0  0  0
    0.4993    0.4971    1.1164 C   0  0  0  0  0  0  0  0  0  0  0  0
    0.2597   -0.1472   -1.2062 C   0  0  0  0  0  0  0  0  0  0  0  0
    2.5546    0.2313   -0.1771 C   0  0  0  0  0  0  0  0  0  0  0  0
    3.0698   -0.6908   -2.4002 C   0  0  0  0  0  0  0  0  0  0  0  0
    1.0996    0.1825   -0.1214 C   0  0  0  0  0  0  0  0  0  0  0  0
    3.4420   -0.1052   -1.1512 C   0  0  0  0  0  0  0  0  0  0  0  0
    4.9274    0.0676   -0.9338 C   0  0  0  0  0  0  0  0  0  0  0  0
    2.8628   -1.2007   -3.4283 N   0  0  0  0  0  0  0  0  0  0  0  0
    5.4919    0.9198   -0.1786 N   0  0  0  0  0  0  0  0  0  0  0  0
    5.7265   -0.7886   -1.6176 O   0  0  0  0  0  0  0  0  0  0  0  0
   -2.7783    0.1231    0.3067 H   0  0  0  0  0  0  0  0  0  0  0  0
   -1.3220    0.7184    2.2361 H   0  0  0  0  0  0  0  0  0  0  0  0
   -1.7535   -0.4206   -1.8918 H   0  0  0  0  0  0  0  0  0  0  0  0
    1.1329    0.7584    1.9605 H   0  0  0  0  0  0  0  0  0  0  0  0
    0.6808   -0.3840   -2.1755 H   0  0  0  0  0  0  0  0  0  0  0  0
    3.0154    0.5875    0.7427 H   0  0  0  0  0  0  0  0  0  0  0  0
    4.8088    1.5563    0.2311 H   0  0  0  0  0  0  0  0  0  0  0  0
    5.1979   -1.4158   -2.1375 H   0  0  0  0  0  0  0  0  0  0  0  0
  1 14  1  0  0  0  0
  1  2  2  0  0  0  0
  2 15  1  0  0  0  0
  3  1  1  0  0  0  0
  4  2  1  0  0  0  0
  4 17  1  0  0  0  0
  5  3  2  0  0  0  0
  5  8  1  0  0  0  0
  6  8  1  0  0  0  0
  6 19  1  0  0  0  0
  7  9  1  0  0  0  0
  8  4  2  0  0  0  0
  9 10  1  0  0  0  0
  9  6  2  0  0  0  0
 10 12  2  0  0  0  0
 11  7  3  0  0  0  0
 12 20  1  0  0  0  0
 13 10  1  0  0  0  0
 16  3  1  0  0  0  0
 18  5  1  0  0  0  0
 21 13  1  0  0  0  0
M  END
>  <HBA>
3

>  <HBD>
1

>  <TPSA>
66.88

>  <cid>
12823

>  <dipole>
6.0

>  <excitation_energy_1>
3.868

>  <excitation_energy_2>
4.038

>  <excitation_energy_3>
4.157

>  <excitation_energy_4>
4.499

>  <homo_energy>
-6.827

>  <homo_lumo_gap>
4.147

>  <logP>
1.779

>  <lumo_energy>
-2.68

>  <melting_point>
138.47

>  <molecular_refractivity>
48.8

>  <oscillator_strength_1>
0.3782

>  <oscillator_strength_2>
0.0176

>  <oscillator_strength_3>
0.0188

>  <oscillator_strength_4>
0.1776

>  <open_babel_can_smiles>
N#C/C(=C\c1ccccc1)/C(=N)O

>  <mulliken_charges>
21
1   -0.117733
2   -0.131565
3   -0.133203
4   -0.17927
5   -0.181393
6   -0.206026
7   0.248494
8   0.172101
9   0.078585
10   0.473187
11   -0.501501
12   -0.578272
13   -0.57817
14   0.147347
15   0.146398
16   0.150266
17   0.145036
18   0.17494
19   0.157771
20   0.290171
21   0.422837

>  <lowdin_charges>
21
1   -0.130397
2   -0.152046
3   -0.148092
4   -0.142826
5   -0.142616
6   -0.091166
7   -0.02502
8   -0.014085
9   -0.084518
10   0.136711
11   -0.116851
12   -0.385802
13   -0.348831
14   0.164511
15   0.166151
16   0.168737
17   0.164512
18   0.18142
19   0.173127
20   0.260558
21   0.366521

$$$$

