PCCDB-ID:  70004
public computational chemistry database (PCCDB) project, http://pccdb.org

 22 23  0  0  0  0  0  0  0  0999 V2000
    1.6901    1.0274   -0.1451 C   0  0  0  0  0  0  0  0  0  0  0  0
    2.2918   -0.1015   -0.5393 C   0  0  0  0  0  0  0  0  0  0  0  0
    2.7154   -5.2902   -0.6843 C   0  0  0  0  0  0  0  0  0  0  0  0
    2.1449   -4.3283   -1.5502 C   0  0  0  0  0  0  0  0  0  0  0  0
    3.9337   -1.7723    2.4432 C   0  0  0  0  0  0  0  0  0  0  0  0
    3.2907   -4.8897    0.4994 C   0  0  0  0  0  0  0  0  0  0  0  0
    3.4006   -0.8010    1.5688 C   0  0  0  0  0  0  0  0  0  0  0  0
    3.9057   -3.1037    2.0992 C   0  0  0  0  0  0  0  0  0  0  0  0
    2.1694   -2.9904   -1.2221 C   0  0  0  0  0  0  0  0  0  0  0  0
    2.8210   -1.1478    0.3576 C   0  0  0  0  0  0  0  0  0  0  0  0
    3.3307   -3.5181    0.8690 C   0  0  0  0  0  0  0  0  0  0  0  0
    2.7709   -2.5361   -0.0161 C   0  0  0  0  0  0  0  0  0  0  0  0
    1.3604    1.7709   -0.8649 H   0  0  0  0  0  0  0  0  0  0  0  0
    1.4983    1.2448    0.9027 H   0  0  0  0  0  0  0  0  0  0  0  0
    2.4176   -0.2696   -1.6078 H   0  0  0  0  0  0  0  0  0  0  0  0
    2.6922   -6.3426   -0.9539 H   0  0  0  0  0  0  0  0  0  0  0  0
    1.6787   -4.6486   -2.4781 H   0  0  0  0  0  0  0  0  0  0  0  0
    4.3804   -1.4574    3.3824 H   0  0  0  0  0  0  0  0  0  0  0  0
    3.7225   -5.6219    1.1779 H   0  0  0  0  0  0  0  0  0  0  0  0
    3.4715    0.2494    1.8358 H   0  0  0  0  0  0  0  0  0  0  0  0
    4.3265   -3.8569    2.7610 H   0  0  0  0  0  0  0  0  0  0  0  0
    1.7056   -2.2722   -1.8899 H   0  0  0  0  0  0  0  0  0  0  0  0
  1 14  1  0  0  0  0
  2  1  2  0  0  0  0
  2 10  1  0  0  0  0
  3  6  2  0  0  0  0
  4  9  2  0  0  0  0
  4  3  1  0  0  0  0
  5 18  1  0  0  0  0
  6 11  1  0  0  0  0
  6 19  1  0  0  0  0
  7 20  1  0  0  0  0
  7  5  2  0  0  0  0
  8  5  1  0  0  0  0
  8 21  1  0  0  0  0
  9 12  1  0  0  0  0
 10  7  1  0  0  0  0
 11  8  2  0  0  0  0
 12 10  2  0  0  0  0
 12 11  1  0  0  0  0
 13  1  1  0  0  0  0
 15  2  1  0  0  0  0
 16  3  1  0  0  0  0
 17  4  1  0  0  0  0
 22  9  1  0  0  0  0
M  END
>  <HBA>
0

>  <HBD>
0

>  <TPSA>
0.0

>  <cid>
70004

>  <dipole>
0.12

>  <excitation_energy_1>
3.969

>  <excitation_energy_2>
4.295

>  <excitation_energy_3>
4.783

>  <excitation_energy_4>
5.225

>  <homo_energy>
-5.622

>  <homo_lumo_gap>
4.408

>  <logP>
3.483

>  <lumo_energy>
-1.214

>  <melting_point>
41.79

>  <molecular_refractivity>
54.04

>  <oscillator_strength_1>
0.181

>  <oscillator_strength_2>
0.0002

>  <oscillator_strength_3>
0.0026

>  <oscillator_strength_4>
0.1467

>  <open_babel_can_smiles>
C=Cc1cccc2c1cccc2

>  <mulliken_charges>
22
1   -0.335639
2   -0.130325
3   -0.132045
4   -0.134726
5   -0.131942
6   -0.194547
7   -0.198546
8   -0.190685
9   -0.191023
10   0.099199
11   0.137069
12   0.066806
13   0.142608
14   0.144736
15   0.138416
16   0.129862
17   0.129476
18   0.130496
19   0.129561
20   0.130949
21   0.129329
22   0.13097

>  <lowdin_charges>
22
1   -0.327668
2   -0.147363
3   -0.157331
4   -0.156351
5   -0.158031
6   -0.157037
7   -0.157175
8   -0.157839
9   -0.162632
10   -0.005439
11   0.001333
12   -0.003892
13   0.162388
14   0.157753
15   0.156167
16   0.157209
17   0.15841
18   0.159004
19   0.15875
20   0.159074
21   0.159043
22   0.161627

$$$$

