PCCDB-ID:  32108
public computational chemistry database (PCCDB) project, http://pccdb.org

 27 28  0  0  0  0  0  0  0  0999 V2000
    3.1528   -2.0497   -0.7076 C   0  0  0  0  0  0  0  0  0  0  0  0
    1.8472    6.8221   -0.1025 C   0  0  0  0  0  0  0  0  0  0  0  0
    2.4004    5.6118   -0.5163 C   0  0  0  0  0  0  0  0  0  0  0  0
    3.2243    2.6548    0.2821 C   0  0  0  0  0  0  0  0  0  0  0  0
    4.3970    1.8727   -1.6752 C   0  0  0  0  0  0  0  0  0  0  0  0
    2.8422    1.3541    0.5751 C   0  0  0  0  0  0  0  0  0  0  0  0
    4.0077    0.5656   -1.4036 C   0  0  0  0  0  0  0  0  0  0  0  0
    2.7021    7.8982    0.1363 C   0  0  0  0  0  0  0  0  0  0  0  0
    4.5461    6.6804   -0.4387 C   0  0  0  0  0  0  0  0  0  0  0  0
    4.0038    2.9405   -0.8549 C   0  0  0  0  0  0  0  0  0  0  0  0
    3.7872    5.5239   -0.6874 C   0  0  0  0  0  0  0  0  0  0  0  0
    3.2226    0.2997   -0.2706 C   0  0  0  0  0  0  0  0  0  0  0  0
    4.4984    4.3043   -1.2004 C   0  0  0  0  0  0  0  0  0  0  0  0
    4.0321    7.8402   -0.0239 N   0  0  0  0  0  0  0  0  0  0  0  0
    5.4908    4.4491   -1.9083 O   0  0  0  0  0  0  0  0  0  0  0  0
    2.7881   -0.9342    0.0950 O   0  0  0  0  0  0  0  0  0  0  0  0
    2.7000   -2.9198   -0.2298 H   0  0  0  0  0  0  0  0  0  0  0  0
    4.2419   -2.1792   -0.7434 H   0  0  0  0  0  0  0  0  0  0  0  0
    2.7652   -1.9527   -1.7297 H   0  0  0  0  0  0  0  0  0  0  0  0
    0.7748    6.9324    0.0281 H   0  0  0  0  0  0  0  0  0  0  0  0
    1.7635    4.7578   -0.7263 H   0  0  0  0  0  0  0  0  0  0  0  0
    2.9390    3.4516    0.9614 H   0  0  0  0  0  0  0  0  0  0  0  0
    5.0192    2.0895   -2.5376 H   0  0  0  0  0  0  0  0  0  0  0  0
    2.2534    1.1238    1.4573 H   0  0  0  0  0  0  0  0  0  0  0  0
    4.3193   -0.2333   -2.0666 H   0  0  0  0  0  0  0  0  0  0  0  0
    2.3029    8.8563    0.4654 H   0  0  0  0  0  0  0  0  0  0  0  0
    5.6231    6.6448   -0.5837 H   0  0  0  0  0  0  0  0  0  0  0  0
  1 17  1  0  0  0  0
  1 16  1  0  0  0  0
  2 20  1  0  0  0  0
  2  8  2  0  0  0  0
  3  2  1  0  0  0  0
  4  6  1  0  0  0  0
  4 22  1  0  0  0  0
  5  7  2  0  0  0  0
  5 10  1  0  0  0  0
  6 24  1  0  0  0  0
  7 12  1  0  0  0  0
  8 26  1  0  0  0  0
  9 14  2  0  0  0  0
 10  4  2  0  0  0  0
 11  3  2  0  0  0  0
 11  9  1  0  0  0  0
 12 16  1  0  0  0  0
 12  6  2  0  0  0  0
 13 10  1  0  0  0  0
 13 11  1  0  0  0  0
 14  8  1  0  0  0  0
 15 13  2  0  0  0  0
 18  1  1  0  0  0  0
 19  1  1  0  0  0  0
 21  3  1  0  0  0  0
 23  5  1  0  0  0  0
 25  7  1  0  0  0  0
 27  9  1  0  0  0  0
M  END
>  <HBA>
3

>  <HBD>
0

>  <TPSA>
39.19

>  <cid>
32108

>  <dipole>
5.17

>  <excitation_energy_1>
3.552

>  <excitation_energy_2>
4.102

>  <excitation_energy_3>
4.304

>  <excitation_energy_4>
4.608

>  <homo_energy>
-6.327

>  <homo_lumo_gap>
4.58

>  <logP>
2.321

>  <lumo_energy>
-1.747

>  <melting_point>
85.37

>  <molecular_refractivity>
60.6

>  <oscillator_strength_1>
0.002

>  <oscillator_strength_2>
0.243

>  <oscillator_strength_3>
0.045

>  <oscillator_strength_4>
0.0009

>  <open_babel_can_smiles>
COc1ccc(cc1)C(=O)c1cccnc1

>  <mulliken_charges>
27
1   -0.22061
2   -0.148271
3   -0.142309
4   -0.18354
5   -0.16192
6   -0.180571
7   -0.198257
8   0.048103
9   0.026594
10   0.070458
11   0.049405
12   0.387412
13   0.319286
14   -0.411531
15   -0.469351
16   -0.500105
17   0.176239
18   0.1598
19   0.15819
20   0.142835
21   0.159251
22   0.149251
23   0.164794
24   0.145782
25   0.14082
26   0.147782
27   0.170464

>  <lowdin_charges>
27
1   -0.275005
2   -0.174591
3   -0.129154
4   -0.143259
5   -0.114821
6   -0.18402
7   -0.213257
8   -0.078954
9   -0.0641
10   -0.066915
11   -0.056423
12   0.11683
13   0.151123
14   -0.143295
15   -0.249079
16   -0.188267
17   0.167214
18   0.147769
19   0.147868
20   0.164871
21   0.171182
22   0.168756
23   0.177526
24   0.170511
25   0.167504
26   0.15984
27   0.170145

$$$$

