PCCDB-ID:  8858
public computational chemistry database (PCCDB) project, http://pccdb.org

 17 16  0  0  0  0  0  0  0  0999 V2000
    0.8953   -0.4144   -0.4217 C   0  0  0  0  0  0  0  0  0  0  0  0
    2.1798    0.2230    1.6765 C   0  0  0  0  0  0  0  0  0  0  0  0
    5.7634    0.2172   -1.2581 C   0  0  0  0  0  0  0  0  0  0  0  0
    3.3388   -0.0365   -0.5634 C   0  0  0  0  0  0  0  0  0  0  0  0
    2.2241   -0.0675    0.2006 C   0  0  0  0  0  0  0  0  0  0  0  0
    4.7268    0.2787   -0.1430 C   0  0  0  0  0  0  0  0  0  0  0  0
    5.0642    0.5704    0.9982 O   0  0  0  0  0  0  0  0  0  0  0  0
    0.4625   -1.3008    0.0622 H   0  0  0  0  0  0  0  0  0  0  0  0
    0.9747   -0.6117   -1.4947 H   0  0  0  0  0  0  0  0  0  0  0  0
    0.1743    0.4008   -0.2716 H   0  0  0  0  0  0  0  0  0  0  0  0
    1.7676   -0.6424    2.2142 H   0  0  0  0  0  0  0  0  0  0  0  0
    1.4940    1.0595    1.8708 H   0  0  0  0  0  0  0  0  0  0  0  0
    3.1636    0.4619    2.0747 H   0  0  0  0  0  0  0  0  0  0  0  0
    5.7945   -0.7870   -1.7002 H   0  0  0  0  0  0  0  0  0  0  0  0
    6.7470    0.4701   -0.8580 H   0  0  0  0  0  0  0  0  0  0  0  0
    5.5046    0.9140   -2.0655 H   0  0  0  0  0  0  0  0  0  0  0  0
    3.2291   -0.2687   -1.6221 H   0  0  0  0  0  0  0  0  0  0  0  0
  1 10  1  0  0  0  0
  1  8  1  0  0  0  0
  1  5  1  0  0  0  0
  2 12  1  0  0  0  0
  2 13  1  0  0  0  0
  2 11  1  0  0  0  0
  3 15  1  0  0  0  0
  3  6  1  0  0  0  0
  4  6  1  0  0  0  0
  4  5  2  0  0  0  0
  5  2  1  0  0  0  0
  6  7  2  0  0  0  0
  9  1  1  0  0  0  0
 14  3  1  0  0  0  0
 16  3  1  0  0  0  0
 17  4  1  0  0  0  0
M  END
>  <HBA>
1

>  <HBD>
0

>  <TPSA>
17.07

>  <cid>
8858

>  <dipole>
2.85

>  <excitation_energy_1>
3.633

>  <excitation_energy_2>
5.484

>  <excitation_energy_3>
6.01

>  <excitation_energy_4>
6.396

>  <homo_energy>
-6.397

>  <homo_lumo_gap>
5.173

>  <logP>
1.542

>  <lumo_energy>
-1.225

>  <melting_point>
8.04

>  <molecular_refractivity>
30.68

>  <oscillator_strength_1>
0.0004

>  <oscillator_strength_2>
0.3964

>  <oscillator_strength_3>
0.0327

>  <oscillator_strength_4>
0.0011

>  <open_babel_can_smiles>
CC(=CC(=O)C)C

>  <mulliken_charges>
17
1   -0.511019
2   -0.53169
3   -0.536724
4   -0.245293
5   0.21327
6   0.443212
7   -0.466319
8   0.163643
9   0.158887
10   0.163498
11   0.154705
12   0.155105
13   0.21587
14   0.16629
15   0.175505
16   0.165805
17   0.115257

>  <lowdin_charges>
17
1   -0.440943
2   -0.457757
3   -0.473059
4   -0.244382
5   0.064708
6   0.15898
7   -0.256559
8   0.163452
9   0.156297
10   0.163319
11   0.161378
12   0.161496
13   0.187827
14   0.166827
15   0.170007
16   0.167752
17   0.150656

$$$$

