PCCDB-ID:  4436
public computational chemistry database (PCCDB) project, http://pccdb.org

 30 32  0  0  1  0  0  0  0  0999 V2000
    2.5032    2.2712   -0.5944 C   0  0  0  0  0  0  0  0  0  0  0  0
    2.8623    0.9038   -0.6334 C   0  0  0  0  0  0  0  0  0  0  0  0
   -2.1379    1.0474    0.1770 C   0  0  0  0  0  0  0  0  0  0  0  0
    1.1917    2.6310   -0.3837 C   0  0  0  0  0  0  0  0  0  0  0  0
   -1.1734    2.0116    0.0133 C   0  0  0  0  0  0  0  0  0  0  0  0
   -1.7864   -0.3229    0.1237 C   0  0  0  0  0  0  0  0  0  0  0  0
    1.9099   -0.0782   -0.4649 C   0  0  0  0  0  0  0  0  0  0  0  0
    2.1192   -3.7202    2.3264 C   0  0  0  0  0  0  0  0  0  0  0  0
    1.2103   -2.8660    3.2525 C   0  0  0  0  0  0  0  0  0  0  0  0
   -0.1590   -2.2157   -0.1424 C   0  0  0  0  0  0  0  0  0  0  0  0
    0.1827    1.6471   -0.2064 C   0  0  0  0  0  0  0  0  0  0  0  0
   -0.4830   -0.7316   -0.0852 C   0  0  0  0  0  0  0  0  0  0  0  0
    0.5434    0.2580   -0.2511 C   0  0  0  0  0  0  0  0  0  0  0  0
    0.6245   -2.7222    1.0440 C   0  0  3  0  0  0  0  0  0  0  0  0
    1.7282   -3.3712    0.9474 N   0  0  0  0  0  0  0  0  0  0  0  0
    0.1121   -2.5442    2.3292 N   0  0  0  0  0  0  0  0  0  0  0  0
    3.2646    3.0346   -0.7299 H   0  0  0  0  0  0  0  0  0  0  0  0
    3.9001    0.6249   -0.7947 H   0  0  0  0  0  0  0  0  0  0  0  0
   -3.1746    1.3278    0.3425 H   0  0  0  0  0  0  0  0  0  0  0  0
    0.9061    3.6799   -0.3501 H   0  0  0  0  0  0  0  0  0  0  0  0
   -1.4325    3.0672    0.0479 H   0  0  0  0  0  0  0  0  0  0  0  0
   -2.5663   -1.0726    0.2374 H   0  0  0  0  0  0  0  0  0  0  0  0
    2.2099   -1.1209   -0.4748 H   0  0  0  0  0  0  0  0  0  0  0  0
    1.9463   -4.7938    2.4844 H   0  0  0  0  0  0  0  0  0  0  0  0
    3.1859   -3.5336    2.4871 H   0  0  0  0  0  0  0  0  0  0  0  0
    1.7242   -1.9561    3.5968 H   0  0  0  0  0  0  0  0  0  0  0  0
    0.8510   -3.4125    4.1297 H   0  0  0  0  0  0  0  0  0  0  0  0
    0.4142   -2.4667   -1.0396 H   0  0  0  0  0  0  0  0  0  0  0  0
   -1.1003   -2.7768   -0.1927 H   0  0  0  0  0  0  0  0  0  0  0  0
   -0.4136   -1.6927    2.4934 H   0  0  0  0  0  0  0  0  0  0  0  0
  1  4  1  0  0  0  0
  2  1  2  0  0  0  0
  2  7  1  0  0  0  0
  3 19  1  0  0  0  0
  4 20  1  0  0  0  0
  4 11  2  0  0  0  0
  5 21  1  0  0  0  0
  5  3  2  0  0  0  0
  6  3  1  0  0  0  0
  6 22  1  0  0  0  0
  7 13  2  0  0  0  0
  8 24  1  0  0  0  0
  8 25  1  0  0  0  0
  8  9  1  0  0  0  0
  9 26  1  0  0  0  0
  9 27  1  0  0  0  0
 10 12  1  0  0  0  0
 10 14  1  0  0  0  0
 11  5  1  0  0  0  0
 12  6  2  0  0  0  0
 13 11  1  0  0  0  0
 13 12  1  0  0  0  0
 14 16  1  0  0  0  0
 15 14  1  0  0  0  0
 15  8  1  0  0  0  0
 16 30  1  0  0  0  0
 16  9  1  0  0  0  0
 17  1  1  0  0  0  0
 18  2  1  0  0  0  0
 23  7  1  0  0  0  0
 28 10  1  0  0  0  0
 29 10  1  0  0  0  0
M  RAD  2  14   2  15   2
M  END
>  <HBA>
2

>  <HBD>
1

>  <TPSA>
24.39

>  <cid>
4436

>  <dipole>
2.5

>  <excitation_energy_1>
4.098

>  <excitation_energy_2>
4.3

>  <excitation_energy_3>
4.403

>  <excitation_energy_4>
4.896

>  <homo_energy>
-5.78

>  <homo_lumo_gap>
4.699

>  <logP>
2.148

>  <lumo_energy>
-1.08

>  <melting_point>
118.12

>  <molecular_refractivity>
74.95

>  <oscillator_strength_1>
0.014

>  <oscillator_strength_2>
0.0806

>  <oscillator_strength_3>
0.0018

>  <oscillator_strength_4>
0.0027

>  <open_babel_can_smiles>
C1CN[C]([N]1)Cc1cccc2c1cccc2

>  <mulliken_charges>
30
1   -0.129677
2   -0.140847
3   -0.130043
4   -0.198304
5   -0.19174
6   -0.218895
7   -0.204415
8   -0.160971
9   -0.148452
10   -0.428021
11   0.143699
12   0.098058
13   0.072096
14   0.501465
15   -0.475921
16   -0.602557
17   0.130339
18   0.133282
19   0.13113
20   0.129359
21   0.130254
22   0.128386
23   0.169569
24   0.149862
25   0.147669
26   0.14284
27   0.149501
28   0.182808
29   0.169197
30   0.320329

>  <lowdin_charges>
30
1   -0.158309
2   -0.153937
3   -0.159662
4   -0.156305
5   -0.155052
6   -0.178694
7   -0.161399
8   -0.206275
9   -0.211902
10   -0.279827
11   0.000837
12   -0.010043
13   -0.010097
14   0.083411
15   -0.24932
16   -0.316796
17   0.1598
18   0.158795
19   0.158175
20   0.155891
21   0.156553
22   0.157442
23   0.174473
24   0.144553
25   0.147752
26   0.137544
27   0.150144
28   0.177106
29   0.168894
30   0.276248

$$$$

