PCCDB-ID:  62469
public computational chemistry database (PCCDB) project, http://pccdb.org

 33 33  0  0  1  0  0  0  0  0999 V2000
    3.7877    1.3640   -0.0925 C   0  0  0  0  0  0  0  0  0  0  0  0
    6.6794   -2.1834    0.8118 C   0  0  0  0  0  0  0  0  0  0  0  0
    2.8195    0.1769   -0.0231 C   0  0  0  0  0  0  0  0  0  0  0  0
    5.7231   -3.0246   -0.0202 C   0  0  0  0  0  0  0  0  0  0  0  0
   -1.4324    1.2210   -2.9596 C   0  0  0  0  0  0  0  0  0  0  0  0
   -1.1893   -0.1503   -2.8511 C   0  0  0  0  0  0  0  0  0  0  0  0
   -0.3585    2.1111   -2.9504 C   0  0  0  0  0  0  0  0  0  0  0  0
    0.1174   -0.6226   -2.7328 C   0  0  0  0  0  0  0  0  0  0  0  0
    0.9479    1.6322   -2.8294 C   0  0  0  0  0  0  0  0  0  0  0  0
    2.6239   -0.2624   -2.5824 C   0  0  0  0  0  0  0  0  0  0  0  0
    1.2081    0.2603   -2.7162 C   0  0  0  0  0  0  0  0  0  0  0  0
    2.9376   -0.8455   -1.1849 C   0  0  1  0  0  0  0  0  0  0  0  0
    4.3225   -1.4773   -1.1792 C   0  0  0  0  0  0  0  0  0  0  0  0
    5.2214   -1.2128   -1.9510 O   0  0  0  0  0  0  0  0  0  0  0  0
    4.4379   -2.3754   -0.1709 O   0  0  0  0  0  0  0  0  0  0  0  0
    3.6746    1.9973    0.7944 H   0  0  0  0  0  0  0  0  0  0  0  0
    3.6000    1.9924   -0.9695 H   0  0  0  0  0  0  0  0  0  0  0  0
    4.8328    1.0375   -0.1393 H   0  0  0  0  0  0  0  0  0  0  0  0
    7.6128   -2.7341    0.9763 H   0  0  0  0  0  0  0  0  0  0  0  0
    6.2431   -1.9476    1.7881 H   0  0  0  0  0  0  0  0  0  0  0  0
    6.9203   -1.2496    0.2958 H   0  0  0  0  0  0  0  0  0  0  0  0
    1.7873    0.5454   -0.0076 H   0  0  0  0  0  0  0  0  0  0  0  0
    2.9732   -0.3656    0.9171 H   0  0  0  0  0  0  0  0  0  0  0  0
    5.4901   -3.9709    0.4747 H   0  0  0  0  0  0  0  0  0  0  0  0
    6.1343   -3.2257   -1.0125 H   0  0  0  0  0  0  0  0  0  0  0  0
   -2.4498    1.5907   -3.0552 H   0  0  0  0  0  0  0  0  0  0  0  0
   -2.0183   -0.8533   -2.8655 H   0  0  0  0  0  0  0  0  0  0  0  0
   -0.5350    3.1799   -3.0405 H   0  0  0  0  0  0  0  0  0  0  0  0
    0.2954   -1.6939   -2.6611 H   0  0  0  0  0  0  0  0  0  0  0  0
    1.7793    2.3336   -2.8309 H   0  0  0  0  0  0  0  0  0  0  0  0
    3.3448    0.5265   -2.8160 H   0  0  0  0  0  0  0  0  0  0  0  0
    2.7961   -1.0516   -3.3248 H   0  0  0  0  0  0  0  0  0  0  0  0
    2.2229   -1.6492   -0.9675 H   0  0  0  0  0  0  0  0  0  0  0  0
  1  3  1  0  0  0  0
  1 16  1  0  0  0  0
  2 19  1  0  0  0  0
  2 20  1  0  0  0  0
  3 22  1  0  0  0  0
  3 23  1  0  0  0  0
  4 24  1  0  0  0  0
  4  2  1  0  0  0  0
  5  7  2  0  0  0  0
  5  6  1  0  0  0  0
  6  8  2  0  0  0  0
  7  9  1  0  0  0  0
  8 11  1  0  0  0  0
  8 29  1  0  0  0  0
  9 11  2  0  0  0  0
 10 12  1  0  0  0  0
 11 10  1  0  0  0  0
 12 13  1  0  0  0  0
 12 33  1  1  0  0  0
 12  3  1  0  0  0  0
 13 15  1  0  0  0  0
 14 13  2  0  0  0  0
 15  4  1  0  0  0  0
 17  1  1  0  0  0  0
 18  1  1  0  0  0  0
 21  2  1  0  0  0  0
 25  4  1  0  0  0  0
 26  5  1  0  0  0  0
 27  6  1  0  0  0  0
 28  7  1  0  0  0  0
 30  9  1  0  0  0  0
 31 10  1  0  0  0  0
 32 10  1  0  0  0  0
M  END
>  <HBA>
2

>  <HBD>
0

>  <TPSA>
26.3

>  <cid>
62469

>  <dipole>
1.69

>  <excitation_energy_1>
5.291

>  <excitation_energy_2>
5.698

>  <excitation_energy_3>
5.88

>  <excitation_energy_4>
5.966

>  <homo_energy>
-6.498

>  <homo_lumo_gap>
6.493

>  <logP>
2.818

>  <lumo_energy>
-0.005

>  <melting_point>
15.61

>  <molecular_refractivity>
61.53

>  <oscillator_strength_1>
0.001

>  <oscillator_strength_2>
0.0022

>  <oscillator_strength_3>
0.0408

>  <oscillator_strength_4>
0.0067

>  <open_babel_can_smiles>
CC[C@H](C(=O)OCC)Cc1ccccc1

>  <mulliken_charges>
33
1   -0.455409
2   -0.463091
3   -0.268894
4   -0.044974
5   -0.131487
6   -0.128041
7   -0.127124
8   -0.181648
9   -0.19015
10   -0.356212
11   0.173272
12   -0.172419
13   0.637976
14   -0.49161
15   -0.470697
16   0.146094
17   0.149394
18   0.156308
19   0.150402
20   0.156777
21   0.175842
22   0.156236
23   0.149666
24   0.151681
25   0.169945
26   0.128011
27   0.128449
28   0.128766
29   0.123173
30   0.127015
31   0.163732
32   0.155907
33   0.153108

>  <lowdin_charges>
33
1   -0.449908
2   -0.455366
3   -0.271388
4   -0.127751
5   -0.160327
6   -0.155911
7   -0.153029
8   -0.165724
9   -0.170631
10   -0.273794
11   -0.0015
12   -0.15037
13   0.199159
14   -0.271777
15   -0.198577
16   0.153609
17   0.149478
18   0.151458
19   0.159001
20   0.155424
21   0.164601
22   0.153674
23   0.150639
24   0.151719
25   0.158076
26   0.156228
27   0.157812
28   0.155474
29   0.151788
30   0.155756
31   0.161212
32   0.160349
33   0.160597

$$$$

