PCCDB-ID:  16801
public computational chemistry database (PCCDB) project, http://pccdb.org

 29 31  0  0  0  0  0  0  0  0999 V2000
    2.3407    1.5279    0.0279 C   0  0  0  0  0  0  0  0  0  0  0  0
    2.4838    0.0033    0.0482 C   0  0  0  0  0  0  0  0  0  0  0  0
    4.0747   -4.1922    0.4796 C   0  0  0  0  0  0  0  0  0  0  0  0
    0.4808    0.3915    4.2127 C   0  0  0  0  0  0  0  0  0  0  0  0
    3.2484   -4.8881    1.3686 C   0  0  0  0  0  0  0  0  0  0  0  0
    0.1091   -0.8970    4.6081 C   0  0  0  0  0  0  0  0  0  0  0  0
    4.0465   -2.7937    0.4294 C   0  0  0  0  0  0  0  0  0  0  0  0
    1.4060    0.5814    3.1790 C   0  0  0  0  0  0  0  0  0  0  0  0
    2.3851   -4.1993    2.2233 C   0  0  0  0  0  0  0  0  0  0  0  0
    0.6675   -2.0160    3.9871 C   0  0  0  0  0  0  0  0  0  0  0  0
    2.9590   -0.6016    1.3959 C   0  0  0  0  0  0  0  0  0  0  0  0
    3.1887   -2.1022    1.2781 C   0  0  0  0  0  0  0  0  0  0  0  0
    1.9499   -0.5280    2.5368 C   0  0  0  0  0  0  0  0  0  0  0  0
    2.3597   -2.8039    2.1753 C   0  0  0  0  0  0  0  0  0  0  0  0
    1.5907   -1.8275    2.9571 C   0  0  0  0  0  0  0  0  0  0  0  0
    2.1112    1.8775   -0.9851 H   0  0  0  0  0  0  0  0  0  0  0  0
    3.2675    2.0213    0.3474 H   0  0  0  0  0  0  0  0  0  0  0  0
    1.5331    1.8691    0.6825 H   0  0  0  0  0  0  0  0  0  0  0  0
    3.2086   -0.2956   -0.7201 H   0  0  0  0  0  0  0  0  0  0  0  0
    1.5314   -0.4659   -0.2290 H   0  0  0  0  0  0  0  0  0  0  0  0
    4.7446   -4.7419   -0.1763 H   0  0  0  0  0  0  0  0  0  0  0  0
    0.0519    1.2547    4.7148 H   0  0  0  0  0  0  0  0  0  0  0  0
    3.2802   -5.9741    1.3957 H   0  0  0  0  0  0  0  0  0  0  0  0
   -0.6106   -1.0285    5.4117 H   0  0  0  0  0  0  0  0  0  0  0  0
    4.6924   -2.2610   -0.2651 H   0  0  0  0  0  0  0  0  0  0  0  0
    1.7006    1.5887    2.9000 H   0  0  0  0  0  0  0  0  0  0  0  0
    1.7478   -4.7448    2.9147 H   0  0  0  0  0  0  0  0  0  0  0  0
    0.3914   -3.0169    4.3094 H   0  0  0  0  0  0  0  0  0  0  0  0
    3.8924   -0.0918    1.6815 H   0  0  0  0  0  0  0  0  0  0  0  0
  1  2  1  0  0  0  0
  1 17  1  0  0  0  0
  1 18  1  0  0  0  0
  2 11  1  0  0  0  0
  3  5  1  0  0  0  0
  4  6  1  0  0  0  0
  4 22  1  0  0  0  0
  5 23  1  0  0  0  0
  5  9  2  0  0  0  0
  6 24  1  0  0  0  0
  7  3  2  0  0  0  0
  7 12  1  0  0  0  0
  8  4  2  0  0  0  0
  9 27  1  0  0  0  0
 10 28  1  0  0  0  0
 10  6  2  0  0  0  0
 11 29  1  0  0  0  0
 11 13  1  0  0  0  0
 12 11  1  0  0  0  0
 12 14  2  0  0  0  0
 13 15  2  0  0  0  0
 13  8  1  0  0  0  0
 14  9  1  0  0  0  0
 14 15  1  0  0  0  0
 15 10  1  0  0  0  0
 16  1  1  0  0  0  0
 19  2  1  0  0  0  0
 20  2  1  0  0  0  0
 21  3  1  0  0  0  0
 25  7  1  0  0  0  0
 26  8  1  0  0  0  0
M  END
>  <HBA>
0

>  <HBD>
0

>  <TPSA>
0.0

>  <cid>
16801

>  <dipole>
0.5

>  <excitation_energy_1>
4.495

>  <excitation_energy_2>
4.613

>  <excitation_energy_3>
4.834

>  <excitation_energy_4>
5.39

>  <homo_energy>
-5.733

>  <homo_lumo_gap>
5.01

>  <logP>
4.209

>  <lumo_energy>
-0.724

>  <melting_point>
72.18

>  <molecular_refractivity>
64.5

>  <oscillator_strength_1>
0.1921

>  <oscillator_strength_2>
0.2013

>  <oscillator_strength_3>
0.0102

>  <oscillator_strength_4>
0.0304

>  <open_babel_can_smiles>
CCC1c2ccccc2c2c1cccc2

>  <mulliken_charges>
29
1   -0.450703
2   -0.241383
3   -0.131734
4   -0.130976
5   -0.136887
6   -0.136787
7   -0.198897
8   -0.203539
9   -0.191459
10   -0.190079
11   -0.247737
12   0.100614
13   0.107149
14   0.082745
15   0.076096
16   0.146258
17   0.140444
18   0.153634
19   0.138149
20   0.146118
21   0.126235
22   0.126089
23   0.127126
24   0.127232
25   0.124325
26   0.129149
27   0.128085
28   0.128151
29   0.152579

>  <lowdin_charges>
29
1   -0.450419
2   -0.263611
3   -0.160154
4   -0.161481
5   -0.154725
6   -0.155576
7   -0.166159
8   -0.166803
9   -0.163604
10   -0.162582
11   -0.12491
12   -0.004518
13   -0.004171
14   -0.011619
15   -0.010664
16   0.15226
17   0.14618
18   0.153146
19   0.145281
20   0.149682
21   0.158178
22   0.157685
23   0.154866
24   0.157178
25   0.156554
26   0.157088
27   0.158108
28   0.156284
29   0.158505

$$$$

