PCCDB-ID:  20790
public computational chemistry database (PCCDB) project, http://pccdb.org

 22 23  0  0  0  0  0  0  0  0999 V2000
   -1.9874   -1.1946    0.1088 C   0  0  0  0  0  0  0  0  0  0  0  0
   -2.5262    0.0767    0.3645 C   0  0  0  0  0  0  0  0  0  0  0  0
   -0.6248   -1.3619   -0.1140 C   0  0  0  0  0  0  0  0  0  0  0  0
   -1.7110    1.2067    0.4030 C   0  0  0  0  0  0  0  0  0  0  0  0
    5.7208   -0.5333    0.2925 C   0  0  0  0  0  0  0  0  0  0  0  0
    4.5613   -0.2994   -0.6789 C   0  0  0  0  0  0  0  0  0  0  0  0
    0.2111   -0.2380   -0.0800 C   0  0  0  0  0  0  0  0  0  0  0  0
   -0.3443    1.0372    0.1797 C   0  0  0  0  0  0  0  0  0  0  0  0
    2.0871    0.9255   -0.1917 C   0  0  0  0  0  0  0  0  0  0  0  0
    1.5848   -0.2594   -0.2869 N   0  0  0  0  0  0  0  0  0  0  0  0
    5.3036   -0.6476    1.6369 O   0  0  0  0  0  0  0  0  0  0  0  0
    3.7907    1.3557   -0.3840 S   0  0  0  0  0  0  0  0  0  0  0  0
    0.9363    2.2433    0.1600 S   0  0  0  0  0  0  0  0  0  0  0  0
   -2.6445   -2.0592    0.0852 H   0  0  0  0  0  0  0  0  0  0  0  0
   -3.5935    0.1844    0.5353 H   0  0  0  0  0  0  0  0  0  0  0  0
   -0.1947   -2.3385   -0.3118 H   0  0  0  0  0  0  0  0  0  0  0  0
   -2.1310    2.1880    0.6017 H   0  0  0  0  0  0  0  0  0  0  0  0
    6.4870    0.2495    0.1672 H   0  0  0  0  0  0  0  0  0  0  0  0
    6.1900   -1.4901    0.0369 H   0  0  0  0  0  0  0  0  0  0  0  0
    3.7704   -1.0383   -0.5324 H   0  0  0  0  0  0  0  0  0  0  0  0
    4.9018   -0.3290   -1.7183 H   0  0  0  0  0  0  0  0  0  0  0  0
    4.8874    0.1960    1.8809 H   0  0  0  0  0  0  0  0  0  0  0  0
  1  2  2  0  0  0  0
  2  4  1  0  0  0  0
  2 15  1  0  0  0  0
  3  7  2  0  0  0  0
  3  1  1  0  0  0  0
  4 17  1  0  0  0  0
  5 11  1  0  0  0  0
  6 20  1  0  0  0  0
  6 12  1  0  0  0  0
  6  5  1  0  0  0  0
  7  8  1  0  0  0  0
  8  4  2  0  0  0  0
  9 13  1  0  0  0  0
 10  9  2  0  0  0  0
 10  7  1  0  0  0  0
 11 22  1  0  0  0  0
 12  9  1  0  0  0  0
 13  8  1  0  0  0  0
 14  1  1  0  0  0  0
 16  3  1  0  0  0  0
 18  5  1  0  0  0  0
 19  5  1  0  0  0  0
 21  6  1  0  0  0  0
M  END
>  <HBA>
4

>  <HBD>
1

>  <TPSA>
86.66

>  <cid>
20790

>  <dipole>
1.22

>  <excitation_energy_1>
4.57

>  <excitation_energy_2>
4.672

>  <excitation_energy_3>
4.697

>  <excitation_energy_4>
5.094

>  <homo_energy>
-6.093

>  <homo_lumo_gap>
5.138

>  <logP>
2.381

>  <lumo_energy>
-0.955

>  <melting_point>
94.16

>  <molecular_refractivity>
57.31

>  <oscillator_strength_1>
0.2305

>  <oscillator_strength_2>
0.0008

>  <oscillator_strength_3>
0.1344

>  <oscillator_strength_4>
0.0001

>  <open_babel_can_smiles>
OCCSc1nc2c(s1)cccc2

>  <mulliken_charges>
22
1   -0.148285
2   -0.118202
3   -0.140228
4   -0.175817
5   -0.031006
6   -0.452823
7   0.285915
8   -0.139251
9   -0.071296
10   -0.466402
11   -0.607098
12   0.142412
13   0.236532
14   0.136168
15   0.135575
16   0.145528
17   0.146071
18   0.134403
19   0.160984
20   0.238276
21   0.182049
22   0.406495

>  <lowdin_charges>
22
1   -0.157977
2   -0.154423
3   -0.15564
4   -0.159606
5   -0.136377
6   -0.388534
7   0.025037
8   -0.147157
9   -0.189177
10   -0.178094
11   -0.460205
12   0.175377
13   0.266439
14   0.162594
15   0.160329
16   0.170305
17   0.166519
18   0.132078
19   0.156855
20   0.196196
21   0.169384
22   0.346076

$$$$

