PCCDB-ID:  41333
public computational chemistry database (PCCDB) project, http://pccdb.org

 22 21  0  0  1  0  0  0  0  0999 V2000
    2.3290   -1.4522    1.7230 C   0  0  0  0  0  0  0  0  0  0  0  0
    7.1200   -2.2477    0.0437 C   0  0  0  0  0  0  0  0  0  0  0  0
    5.4557    0.3518   -1.8303 C   0  0  0  0  0  0  0  0  0  0  0  0
    3.5854   -1.7641    0.9029 C   0  0  0  0  0  0  0  0  0  0  0  0
    6.4687   -1.0898   -0.0643 C   0  0  0  0  0  0  0  0  0  0  0  0
    3.9892   -0.5990   -0.0078 C   0  0  0  0  0  0  0  0  0  0  0  0
    5.2236   -0.8565   -0.9016 C   0  0  1  0  0  0  0  0  0  0  0  0
    4.8986   -2.0063   -1.6912 O   0  0  0  0  0  0  0  0  0  0  0  0
    2.0549   -2.2964    2.3661 H   0  0  0  0  0  0  0  0  0  0  0  0
    1.4712   -1.2381    1.0732 H   0  0  0  0  0  0  0  0  0  0  0  0
    2.4788   -0.5778    2.3692 H   0  0  0  0  0  0  0  0  0  0  0  0
    8.0170   -2.3424    0.6493 H   0  0  0  0  0  0  0  0  0  0  0  0
    6.7660   -3.1437   -0.4586 H   0  0  0  0  0  0  0  0  0  0  0  0
    5.6670    1.2638   -1.2602 H   0  0  0  0  0  0  0  0  0  0  0  0
    4.5676    0.5239   -2.4471 H   0  0  0  0  0  0  0  0  0  0  0  0
    6.3104    0.1702   -2.4942 H   0  0  0  0  0  0  0  0  0  0  0  0
    3.4170   -2.6536    0.2859 H   0  0  0  0  0  0  0  0  0  0  0  0
    4.4151   -2.0084    1.5776 H   0  0  0  0  0  0  0  0  0  0  0  0
    6.8365   -0.2121    0.4692 H   0  0  0  0  0  0  0  0  0  0  0  0
    4.1839    0.2972    0.5979 H   0  0  0  0  0  0  0  0  0  0  0  0
    3.1509   -0.3514   -0.6734 H   0  0  0  0  0  0  0  0  0  0  0  0
    5.6531   -2.1705   -2.2799 H   0  0  0  0  0  0  0  0  0  0  0  0
  1  9  1  0  0  0  0
  1 11  1  0  0  0  0
  2 12  1  0  0  0  0
  3 14  1  0  0  0  0
  3  7  1  0  0  0  0
  4 18  1  0  0  0  0
  4  1  1  0  0  0  0
  5  2  2  0  0  0  0
  5 19  1  0  0  0  0
  6 20  1  0  0  0  0
  6  4  1  0  0  0  0
  7  8  1  6  0  0  0
  7  5  1  0  0  0  0
  7  6  1  0  0  0  0
 10  1  1  0  0  0  0
 13  2  1  0  0  0  0
 15  3  1  0  0  0  0
 16  3  1  0  0  0  0
 17  4  1  0  0  0  0
 21  6  1  0  0  0  0
 22  8  1  0  0  0  0
M  END
>  <HBA>
1

>  <HBD>
1

>  <TPSA>
20.23

>  <cid>
41333

>  <dipole>
1.44

>  <excitation_energy_1>
6.279

>  <excitation_energy_2>
6.47

>  <excitation_energy_3>
6.734

>  <excitation_energy_4>
6.948

>  <homo_energy>
-6.912

>  <homo_lumo_gap>
7.445

>  <logP>
1.724

>  <lumo_energy>
0.533

>  <melting_point>
-18.18

>  <molecular_refractivity>
36.49

>  <oscillator_strength_1>
0.0457

>  <oscillator_strength_2>
0.0412

>  <oscillator_strength_3>
0.0178

>  <oscillator_strength_4>
0.0677

>  <open_babel_can_smiles>
C[C@@](C=C)(CCC)O

>  <mulliken_charges>
22
1   -0.444048
2   -0.352678
3   -0.46437
4   -0.253039
5   -0.069054
6   -0.251031
7   0.2761
8   -0.641129
9   0.141243
10   0.14034
11   0.136165
12   0.139518
13   0.14343
14   0.141963
15   0.156306
16   0.137387
17   0.156453
18   0.136571
19   0.123409
20   0.12348
21   0.137043
22   0.38594

>  <lowdin_charges>
22
1   -0.445486
2   -0.346707
3   -0.455872
4   -0.277252
5   -0.163488
6   -0.275002
7   0.11981
8   -0.4537
9   0.149728
10   0.14574
11   0.143402
12   0.159521
13   0.159684
14   0.152337
15   0.157566
16   0.147897
17   0.153205
18   0.144875
19   0.153176
20   0.141366
21   0.147674
22   0.341527

$$$$

