PCCDB-ID:  9155
public computational chemistry database (PCCDB) project, http://pccdb.org

 25 28  0  0  0  0  0  0  0  0999 V2000
   -2.1988   -2.4099   -0.0026 C   0  0  0  0  0  0  0  0  0  0  0  0
   -2.0855    2.4510   -0.0032 C   0  0  0  0  0  0  0  0  0  0  0  0
    3.6817   -0.6858    0.0005 C   0  0  0  0  0  0  0  0  0  0  0  0
   -2.9419   -1.2414   -0.0030 C   0  0  0  0  0  0  0  0  0  0  0  0
   -2.8809    1.3162   -0.0033 C   0  0  0  0  0  0  0  0  0  0  0  0
   -0.7751   -2.4109   -0.0011 C   0  0  0  0  0  0  0  0  0  0  0  0
   -0.6643    2.3869   -0.0022 C   0  0  0  0  0  0  0  0  0  0  0  0
    2.5103   -1.4527    0.0011 C   0  0  0  0  0  0  0  0  0  0  0  0
    3.5936    0.7088   -0.0002 C   0  0  0  0  0  0  0  0  0  0  0  0
   -2.2854    0.0223   -0.0024 C   0  0  0  0  0  0  0  0  0  0  0  0
   -0.1101   -1.2016    0.0011 C   0  0  0  0  0  0  0  0  0  0  0  0
    1.2991   -0.7734    0.0020 C   0  0  0  0  0  0  0  0  0  0  0  0
   -0.0640    1.1454   -0.0005 C   0  0  0  0  0  0  0  0  0  0  0  0
   -0.8820   -0.0097   -0.0003 C   0  0  0  0  0  0  0  0  0  0  0  0
    1.3279    0.6557    0.0005 C   0  0  0  0  0  0  0  0  0  0  0  0
    2.4358    1.3923   -0.0017 N   0  0  0  0  0  0  0  0  0  0  0  0
   -2.7148   -3.3663   -0.0016 H   0  0  0  0  0  0  0  0  0  0  0  0
   -2.5591    3.4291   -0.0023 H   0  0  0  0  0  0  0  0  0  0  0  0
    4.6566   -1.1642    0.0003 H   0  0  0  0  0  0  0  0  0  0  0  0
   -4.0282   -1.2860   -0.0022 H   0  0  0  0  0  0  0  0  0  0  0  0
   -3.9641    1.4102   -0.0024 H   0  0  0  0  0  0  0  0  0  0  0  0
   -0.2440   -3.3594   -0.0011 H   0  0  0  0  0  0  0  0  0  0  0  0
   -0.0757    3.2996   -0.0006 H   0  0  0  0  0  0  0  0  0  0  0  0
    2.5562   -2.5389   -0.0008 H   0  0  0  0  0  0  0  0  0  0  0  0
    4.4994    1.3123    0.0013 H   0  0  0  0  0  0  0  0  0  0  0  0
  1 17  1  0  0  0  0
  1  6  1  0  0  0  0
  2 18  1  0  0  0  0
  2  7  1  0  0  0  0
  3  8  2  0  0  0  0
  4  1  2  0  0  0  0
  4 10  1  0  0  0  0
  4 20  1  0  0  0  0
  5  2  2  0  0  0  0
  5 10  1  0  0  0  0
  5 21  1  0  0  0  0
  6 11  2  0  0  0  0
  7 23  1  0  0  0  0
  7 13  2  0  0  0  0
  8 12  1  0  0  0  0
  9  3  1  0  0  0  0
  9 25  1  0  0  0  0
 10 14  2  0  0  0  0
 11 12  1  0  0  0  0
 13 14  1  0  0  0  0
 13 15  1  0  0  0  0
 14 11  1  0  0  0  0
 15 12  2  0  0  0  0
 16  9  2  0  0  0  0
 16 15  1  0  0  0  0
 19  3  1  0  0  0  0
 22  6  1  0  0  0  0
 24  8  1  0  0  0  0
M  END
>  <HBA>
1

>  <HBD>
0

>  <TPSA>
12.89

>  <cid>
9155

>  <dipole>
2.02

>  <excitation_energy_1>
3.407

>  <excitation_energy_2>
3.693

>  <excitation_energy_3>
4.014

>  <excitation_energy_4>
4.138

>  <homo_energy>
-6.046

>  <homo_lumo_gap>
4.128

>  <logP>
3.882

>  <lumo_energy>
-1.918

>  <melting_point>
137.39

>  <molecular_refractivity>
66.17

>  <oscillator_strength_1>
0.0038

>  <oscillator_strength_2>
0.1275

>  <oscillator_strength_3>
0.0001

>  <oscillator_strength_4>
0.034

>  <open_babel_can_smiles>
c1ccc2c(n1)c1cccc3c1c2ccc3

>  <mulliken_charges>
25
1   -0.131061
2   -0.131797
3   -0.159944
4   -0.204168
5   -0.20352
6   -0.220228
7   -0.211348
8   -0.147233
9   0.037258
10   0.196108
11   0.105932
12   0.085196
13   0.16109
14   -0.08571
15   0.181458
16   -0.509895
17   0.133009
18   0.134625
19   0.135542
20   0.134185
21   0.134173
22   0.135216
23   0.153882
24   0.139679
25   0.13755

>  <lowdin_charges>
25
1   -0.156008
2   -0.154385
3   -0.179208
4   -0.146285
5   -0.144974
6   -0.148146
7   -0.133081
8   -0.131232
9   -0.091493
10   -0.002405
11   -0.006243
12   -0.024988
13   -0.010655
14   -0.014651
15   0.041054
16   -0.148222
17   0.160544
18   0.160867
19   0.163487
20   0.158375
21   0.158301
22   0.160531
23   0.171875
24   0.160108
25   0.156831

$$$$

