PCCDB-ID:  11500
public computational chemistry database (PCCDB) project, http://pccdb.org

 22 22  0  0  0  0  0  0  0  0999 V2000
    1.2630    2.2951    0.4348 C   0  0  0  0  0  0  0  0  0  0  0  0
    5.9946    1.0991    5.2903 C   0  0  0  0  0  0  0  0  0  0  0  0
    4.6871    1.2880    5.7436 C   0  0  0  0  0  0  0  0  0  0  0  0
    6.2169    0.7759    3.9512 C   0  0  0  0  0  0  0  0  0  0  0  0
    3.6159    1.1534    4.8606 C   0  0  0  0  0  0  0  0  0  0  0  0
    5.1429    0.6374    3.0692 C   0  0  0  0  0  0  0  0  0  0  0  0
    2.6352    0.6470    2.5884 C   0  0  0  0  0  0  0  0  0  0  0  0
    2.4334    1.3392    0.3154 C   0  0  0  0  0  0  0  0  0  0  0  0
    3.8311    0.8237    3.5164 C   0  0  0  0  0  0  0  0  0  0  0  0
    3.0174    0.6448    1.1951 N   0  0  0  0  0  0  0  0  0  0  0  0
    2.9128    1.2122   -0.9636 O   0  0  0  0  0  0  0  0  0  0  0  0
    0.9338    2.4290    1.4655 H   0  0  0  0  0  0  0  0  0  0  0  0
    0.4109    1.9228   -0.1479 H   0  0  0  0  0  0  0  0  0  0  0  0
    1.5370    3.2798    0.0357 H   0  0  0  0  0  0  0  0  0  0  0  0
    6.8318    1.2071    5.9751 H   0  0  0  0  0  0  0  0  0  0  0  0
    4.5013    1.5455    6.7834 H   0  0  0  0  0  0  0  0  0  0  0  0
    7.2315    0.6312    3.5883 H   0  0  0  0  0  0  0  0  0  0  0  0
    2.5998    1.3088    5.2199 H   0  0  0  0  0  0  0  0  0  0  0  0
    5.3076    0.3894    2.0261 H   0  0  0  0  0  0  0  0  0  0  0  0
    1.8761    1.4013    2.8537 H   0  0  0  0  0  0  0  0  0  0  0  0
    2.1741   -0.3298    2.8038 H   0  0  0  0  0  0  0  0  0  0  0  0
    2.4071    1.7927   -1.5526 H   0  0  0  0  0  0  0  0  0  0  0  0
  1 12  1  0  0  0  0
  2  3  1  0  0  0  0
  2 15  1  0  0  0  0
  3 16  1  0  0  0  0
  4  2  2  0  0  0  0
  5 18  1  0  0  0  0
  5  3  2  0  0  0  0
  6  9  2  0  0  0  0
  6  4  1  0  0  0  0
  7 21  1  0  0  0  0
  7 20  1  0  0  0  0
  7  9  1  0  0  0  0
  8  1  1  0  0  0  0
  8 10  2  0  0  0  0
  9  5  1  0  0  0  0
 10  7  1  0  0  0  0
 11  8  1  0  0  0  0
 13  1  1  0  0  0  0
 14  1  1  0  0  0  0
 17  4  1  0  0  0  0
 19  6  1  0  0  0  0
 22 11  1  0  0  0  0
M  END
>  <HBA>
2

>  <HBD>
1

>  <TPSA>
29.1

>  <cid>
11500

>  <dipole>
3.77

>  <excitation_energy_1>
5.262

>  <excitation_energy_2>
5.599

>  <excitation_energy_3>
5.646

>  <excitation_energy_4>
5.807

>  <homo_energy>
-6.226

>  <homo_lumo_gap>
6.444

>  <logP>
1.714

>  <lumo_energy>
0.218

>  <melting_point>
54.39

>  <molecular_refractivity>
44.02

>  <oscillator_strength_1>
0.0024

>  <oscillator_strength_2>
0.0009

>  <oscillator_strength_3>
0.0034

>  <oscillator_strength_4>
0.016

>  <open_babel_can_smiles>
C/C(=N\Cc1ccccc1)/O

>  <mulliken_charges>
22
1   -0.557913
2   -0.129075
3   -0.131045
4   -0.134044
5   -0.178256
6   -0.165998
7   -0.212118
8   0.491429
9   0.136152
10   -0.40712
11   -0.576722
12   0.18405
13   0.177163
14   0.172551
15   0.12304
16   0.123296
17   0.125694
18   0.11263
19   0.156554
20   0.121282
21   0.165187
22   0.403264

>  <lowdin_charges>
22
1   -0.484112
2   -0.165465
3   -0.156053
4   -0.154637
5   -0.171131
6   -0.160371
7   -0.19563
8   0.136134
9   -0.010497
10   -0.198577
11   -0.37573
12   0.172359
13   0.171077
14   0.167664
15   0.15542
16   0.153114
17   0.154638
18   0.148815
19   0.170829
20   0.129348
21   0.158412
22   0.354392

$$$$

