PCCDB-ID:  51980
public computational chemistry database (PCCDB) project, http://pccdb.org

 32 33  0  0  1  0  0  0  0  0999 V2000
    2.3997    1.0180   -0.4989 C   0  0  0  0  0  0  0  0  0  0  0  0
    5.3557   -0.6816    5.9944 C   0  0  0  0  0  0  0  0  0  0  0  0
    7.5021   -1.3595    5.1616 C   0  0  0  0  0  0  0  0  0  0  0  0
    3.1315   -2.1422    3.0477 C   0  0  0  0  0  0  0  0  0  0  0  0
    4.9781   -0.7813    2.3318 C   0  0  0  0  0  0  0  0  0  0  0  0
    5.9649    0.2224    6.8552 C   0  0  0  0  0  0  0  0  0  0  0  0
    8.1229   -0.4542    6.0207 C   0  0  0  0  0  0  0  0  0  0  0  0
    2.3065   -1.5280    2.1127 C   0  0  0  0  0  0  0  0  0  0  0  0
    4.1654   -0.1580    1.3845 C   0  0  0  0  0  0  0  0  0  0  0  0
    6.3052   -3.3903    3.5293 C   0  0  0  0  0  0  0  0  0  0  0  0
    6.1112   -1.4893    5.1332 C   0  0  0  0  0  0  0  0  0  0  0  0
    4.4777   -1.7771    3.1733 C   0  0  0  0  0  0  0  0  0  0  0  0
    7.3656    0.3536    6.8821 C   0  0  0  0  0  0  0  0  0  0  0  0
    2.8192   -0.5308    1.2720 C   0  0  0  0  0  0  0  0  0  0  0  0
    5.3774   -2.4663    4.2072 C   0  0  1  0  0  0  0  0  0  0  0  0
    7.0314   -4.1142    2.9843 N   0  0  0  0  0  0  0  0  0  0  0  0
    7.9778    1.3048    7.7014 N   0  0  0  0  0  0  0  0  0  0  0  0
    1.9340    0.0132    0.3884 O   0  0  0  0  0  0  0  0  0  0  0  0
    1.5399    1.2986   -1.1098 H   0  0  0  0  0  0  0  0  0  0  0  0
    3.1998    0.6423   -1.1502 H   0  0  0  0  0  0  0  0  0  0  0  0
    2.7613    1.9010    0.0445 H   0  0  0  0  0  0  0  0  0  0  0  0
    4.2707   -0.7562    5.9876 H   0  0  0  0  0  0  0  0  0  0  0  0
    8.1172   -1.9791    4.5153 H   0  0  0  0  0  0  0  0  0  0  0  0
    2.7202   -2.9193    3.6882 H   0  0  0  0  0  0  0  0  0  0  0  0
    6.0178   -0.4775    2.4185 H   0  0  0  0  0  0  0  0  0  0  0  0
    5.3551    0.8402    7.5108 H   0  0  0  0  0  0  0  0  0  0  0  0
    9.2074   -0.3704    6.0201 H   0  0  0  0  0  0  0  0  0  0  0  0
    1.2617   -1.8052    2.0141 H   0  0  0  0  0  0  0  0  0  0  0  0
    4.5877    0.6101    0.7469 H   0  0  0  0  0  0  0  0  0  0  0  0
    4.7296   -3.1006    4.8286 H   0  0  0  0  0  0  0  0  0  0  0  0
    7.4476    1.5678    8.5229 H   0  0  0  0  0  0  0  0  0  0  0  0
    8.9447    1.1116    7.9316 H   0  0  0  0  0  0  0  0  0  0  0  0
  1 21  1  0  0  0  0
  1 18  1  0  0  0  0
  2  6  2  0  0  0  0
  3  7  1  0  0  0  0
  4 12  1  0  0  0  0
  4 24  1  0  0  0  0
  5 25  1  0  0  0  0
  5 12  2  0  0  0  0
  6 13  1  0  0  0  0
  6 26  1  0  0  0  0
  7 13  2  0  0  0  0
  8  4  2  0  0  0  0
  9  5  1  0  0  0  0
 10 15  1  0  0  0  0
 11  3  2  0  0  0  0
 11  2  1  0  0  0  0
 12 15  1  0  0  0  0
 13 17  1  0  0  0  0
 14  9  2  0  0  0  0
 14  8  1  0  0  0  0
 15 30  1  1  0  0  0
 15 11  1  0  0  0  0
 16 10  3  0  0  0  0
 17 32  1  0  0  0  0
 17 31  1  0  0  0  0
 18 14  1  0  0  0  0
 19  1  1  0  0  0  0
 20  1  1  0  0  0  0
 22  2  1  0  0  0  0
 23  3  1  0  0  0  0
 27  7  1  0  0  0  0
 28  8  1  0  0  0  0
 29  9  1  0  0  0  0
M  END
>  <HBA>
3

>  <HBD>
1

>  <TPSA>
59.04

>  <cid>
51980

>  <dipole>
4.84

>  <excitation_energy_1>
4.499

>  <excitation_energy_2>
4.643

>  <excitation_energy_3>
4.798

>  <excitation_energy_4>
4.92

>  <homo_energy>
-5.554

>  <homo_lumo_gap>
5.29

>  <logP>
3.514

>  <lumo_energy>
-0.264

>  <melting_point>
127.05

>  <molecular_refractivity>
71.35

>  <oscillator_strength_1>
0.0306

>  <oscillator_strength_2>
0.0088

>  <oscillator_strength_3>
0.0304

>  <oscillator_strength_4>
0.0405

>  <open_babel_can_smiles>
N#C[C@@H](c1ccc(cc1)N)c1ccc(cc1)OC

>  <mulliken_charges>
32
1   -0.217016
2   -0.170538
3   -0.196204
4   -0.192212
5   -0.175137
6   -0.177214
7   -0.181978
8   -0.171028
9   -0.195052
10   0.371089
11   0.152756
12   0.182904
13   0.319164
14   0.379025
15   -0.338032
16   -0.492914
17   -0.789257
18   -0.50578
19   0.171589
20   0.15546
21   0.153378
22   0.130478
23   0.154143
24   0.130767
25   0.145969
26   0.121125
27   0.122847
28   0.141411
29   0.136838
30   0.190013
31   0.321194
32   0.322214

>  <lowdin_charges>
32
1   -0.28001
2   -0.145046
3   -0.158331
4   -0.157294
5   -0.137816
6   -0.196301
7   -0.196948
8   -0.17887
9   -0.207696
10   -0.008283
11   -0.034665
12   -0.022992
13   0.063185
14   0.104106
15   -0.118569
16   -0.135644
17   -0.48561
18   -0.195614
19   0.164789
20   0.147989
21   0.146489
22   0.157281
23   0.172908
24   0.15879
25   0.165496
26   0.156076
27   0.153478
28   0.16732
29   0.165839
30   0.183581
31   0.27662
32   0.275742

$$$$

