PCCDB-ID:  7462
public computational chemistry database (PCCDB) project, http://pccdb.org

 26 26  0  0  0  0  0  0  0  0999 V2000
    3.5599   -0.2055   -1.1549 C   0  0  0  0  0  0  0  0  0  0  0  0
    1.1455   -0.4257   -0.4072 C   0  0  0  0  0  0  0  0  0  0  0  0
    4.0494   -2.6162    5.0799 C   0  0  0  0  0  0  0  0  0  0  0  0
    3.6868   -0.5818    3.6535 C   0  0  0  0  0  0  0  0  0  0  0  0
    3.0960   -2.7596    2.6775 C   0  0  0  0  0  0  0  0  0  0  0  0
    3.2301    0.0600    2.4201 C   0  0  0  0  0  0  0  0  0  0  0  0
    3.3365   -2.1225    1.2997 C   0  0  0  0  0  0  0  0  0  0  0  0
    2.5641    0.0239   -0.0003 C   0  0  0  0  0  0  0  0  0  0  0  0
    3.6534   -1.9189    3.8104 C   0  0  0  0  0  0  0  0  0  0  0  0
    3.0215   -0.6358    1.2852 C   0  0  0  0  0  0  0  0  0  0  0  0
    3.2349    0.3281   -2.0559 H   0  0  0  0  0  0  0  0  0  0  0  0
    3.6392   -1.2685   -1.4124 H   0  0  0  0  0  0  0  0  0  0  0  0
    4.5614    0.1522   -0.8906 H   0  0  0  0  0  0  0  0  0  0  0  0
    0.8167    0.1058   -1.3086 H   0  0  0  0  0  0  0  0  0  0  0  0
    0.4243   -0.2225    0.3918 H   0  0  0  0  0  0  0  0  0  0  0  0
    1.1104   -1.4995   -0.6273 H   0  0  0  0  0  0  0  0  0  0  0  0
    4.3727   -1.9072    5.8493 H   0  0  0  0  0  0  0  0  0  0  0  0
    4.8673   -3.3307    4.9093 H   0  0  0  0  0  0  0  0  0  0  0  0
    3.2113   -3.2007    5.4882 H   0  0  0  0  0  0  0  0  0  0  0  0
    4.0298    0.0552    4.4671 H   0  0  0  0  0  0  0  0  0  0  0  0
    3.5257   -3.7693    2.6971 H   0  0  0  0  0  0  0  0  0  0  0  0
    2.0122   -2.8897    2.8427 H   0  0  0  0  0  0  0  0  0  0  0  0
    3.0737    1.1377    2.4339 H   0  0  0  0  0  0  0  0  0  0  0  0
    2.7574   -2.6607    0.5403 H   0  0  0  0  0  0  0  0  0  0  0  0
    4.3957   -2.2557    1.0218 H   0  0  0  0  0  0  0  0  0  0  0  0
    2.5212    1.1054    0.1899 H   0  0  0  0  0  0  0  0  0  0  0  0
  1 13  1  0  0  0  0
  1  8  1  0  0  0  0
  2  8  1  0  0  0  0
  2 15  1  0  0  0  0
  3 19  1  0  0  0  0
  3 17  1  0  0  0  0
  4  9  2  0  0  0  0
  4 20  1  0  0  0  0
  5 21  1  0  0  0  0
  5 22  1  0  0  0  0
  5  9  1  0  0  0  0
  6 23  1  0  0  0  0
  6  4  1  0  0  0  0
  7  5  1  0  0  0  0
  8 26  1  0  0  0  0
  8 10  1  0  0  0  0
  9  3  1  0  0  0  0
 10  7  1  0  0  0  0
 10  6  2  0  0  0  0
 11  1  1  0  0  0  0
 12  1  1  0  0  0  0
 14  2  1  0  0  0  0
 16  2  1  0  0  0  0
 18  3  1  0  0  0  0
 24  7  1  0  0  0  0
 25  7  1  0  0  0  0
M  END
>  <HBA>
0

>  <HBD>
0

>  <TPSA>
0.0

>  <cid>
7462

>  <dipole>
0.49

>  <excitation_energy_1>
4.483

>  <excitation_energy_2>
4.786

>  <excitation_energy_3>
5.181

>  <excitation_energy_4>
5.305

>  <homo_energy>
-5.236

>  <homo_lumo_gap>
4.977

>  <logP>
3.309

>  <lumo_energy>
-0.259

>  <melting_point>
19.78

>  <molecular_refractivity>
47.12

>  <oscillator_strength_1>
0.2413

>  <oscillator_strength_2>
0.0056

>  <oscillator_strength_3>
0.0038

>  <oscillator_strength_4>
0.0019

>  <open_babel_can_smiles>
CC1=CC=C(CC1)C(C)C

>  <mulliken_charges>
26
1   -0.445628
2   -0.442825
3   -0.516801
4   -0.170804
5   -0.328353
6   -0.192193
7   -0.338416
8   -0.147754
9   0.167085
10   0.179523
11   0.14113
12   0.143044
13   0.147848
14   0.140128
15   0.147811
16   0.140489
17   0.152802
18   0.151479
19   0.15211
20   0.111368
21   0.135698
22   0.145622
23   0.11263
24   0.138635
25   0.148372
26   0.126999

>  <lowdin_charges>
26
1   -0.44328
2   -0.444084
3   -0.44082
4   -0.193417
5   -0.269627
6   -0.189839
7   -0.274959
8   -0.115009
9   -0.006623
10   -0.008569
11   0.149334
12   0.145795
13   0.15083
14   0.148516
15   0.152407
16   0.143674
17   0.156445
18   0.15458
19   0.155295
20   0.150617
21   0.147019
22   0.146785
23   0.147206
24   0.149189
25   0.148675
26   0.139857

$$$$

