PCCDB-ID:  15567
public computational chemistry database (PCCDB) project, http://pccdb.org

 26 27  0  0  0  0  0  0  0  0999 V2000
   -1.6161    0.4591   -0.0598 C   0  0  0  0  0  0  0  0  0  0  0  0
    3.9683   -3.3808    3.1407 C   0  0  0  0  0  0  0  0  0  0  0  0
   -0.7913    1.4285    0.5130 C   0  0  0  0  0  0  0  0  0  0  0  0
   -1.0583   -0.6957   -0.6152 C   0  0  0  0  0  0  0  0  0  0  0  0
    3.5167   -3.7561    1.8729 C   0  0  0  0  0  0  0  0  0  0  0  0
    4.1231   -2.0300    3.4566 C   0  0  0  0  0  0  0  0  0  0  0  0
    0.5919    1.2440    0.5361 C   0  0  0  0  0  0  0  0  0  0  0  0
    0.3225   -0.8842   -0.5927 C   0  0  0  0  0  0  0  0  0  0  0  0
    3.2129   -2.7818    0.9231 C   0  0  0  0  0  0  0  0  0  0  0  0
    3.8200   -1.0516    2.5090 C   0  0  0  0  0  0  0  0  0  0  0  0
    1.1555    0.0849   -0.0138 C   0  0  0  0  0  0  0  0  0  0  0  0
    3.3581   -1.4226    1.2388 C   0  0  0  0  0  0  0  0  0  0  0  0
    3.3120   -0.8180   -1.3830 O   0  0  0  0  0  0  0  0  0  0  0  0
    3.6761    1.1813    0.3172 O   0  0  0  0  0  0  0  0  0  0  0  0
    2.9618   -0.1037    0.0556 P   0  0  0  0  0  0  0  0  0  0  0  0
   -2.6931    0.6038   -0.0787 H   0  0  0  0  0  0  0  0  0  0  0  0
    4.2057   -4.1424    3.8789 H   0  0  0  0  0  0  0  0  0  0  0  0
   -1.2238    2.3306    0.9371 H   0  0  0  0  0  0  0  0  0  0  0  0
   -1.6998   -1.4461   -1.0693 H   0  0  0  0  0  0  0  0  0  0  0  0
    3.4081   -4.8079    1.6221 H   0  0  0  0  0  0  0  0  0  0  0  0
    4.4856   -1.7375    4.4383 H   0  0  0  0  0  0  0  0  0  0  0  0
    1.2454    1.9991    0.9625 H   0  0  0  0  0  0  0  0  0  0  0  0
    0.7520   -1.7763   -1.0392 H   0  0  0  0  0  0  0  0  0  0  0  0
    2.8841   -3.0789   -0.0682 H   0  0  0  0  0  0  0  0  0  0  0  0
    3.9569    0.0012    2.7378 H   0  0  0  0  0  0  0  0  0  0  0  0
    3.9011   -0.2301   -1.8848 H   0  0  0  0  0  0  0  0  0  0  0  0
  1  3  2  0  0  0  0
  2  6  1  0  0  0  0
  2 17  1  0  0  0  0
  3  7  1  0  0  0  0
  3 18  1  0  0  0  0
  4  8  2  0  0  0  0
  4  1  1  0  0  0  0
  5  2  2  0  0  0  0
  6 21  1  0  0  0  0
  7 22  1  0  0  0  0
  8 11  1  0  0  0  0
  9 12  2  0  0  0  0
  9  5  1  0  0  0  0
 10 25  1  0  0  0  0
 10  6  2  0  0  0  0
 11 15  1  0  0  0  0
 11  7  2  0  0  0  0
 12 10  1  0  0  0  0
 13 15  1  0  0  0  0
 15 14  2  0  0  0  0
 15 12  1  0  0  0  0
 16  1  1  0  0  0  0
 19  4  1  0  0  0  0
 20  5  1  0  0  0  0
 23  8  1  0  0  0  0
 24  9  1  0  0  0  0
 26 13  1  0  0  0  0
M  END
>  <HBA>
2

>  <HBD>
1

>  <TPSA>
47.11

>  <cid>
15567

>  <dipole>
2.88

>  <excitation_energy_1>
5.05

>  <excitation_energy_2>
5.157

>  <excitation_energy_3>
5.203

>  <excitation_energy_4>
5.373

>  <homo_energy>
-6.817

>  <homo_lumo_gap>
5.804

>  <logP>
1.908

>  <lumo_energy>
-1.012

>  <melting_point>
108.3

>  <molecular_refractivity>
61.98

>  <oscillator_strength_1>
0.0065

>  <oscillator_strength_2>
0.023

>  <oscillator_strength_3>
0.1753

>  <oscillator_strength_4>
0.0629

>  <open_babel_can_smiles>
OP(=O)(c1ccccc1)c1ccccc1

>  <mulliken_charges>
26
1   -0.125666
2   -0.125341
3   -0.123338
4   -0.124999
5   -0.124422
6   -0.123389
7   -0.163848
8   -0.150626
9   -0.153671
10   -0.162779
11   -0.088697
12   -0.090638
13   -0.694139
14   -0.576673
15   0.928066
16   0.137074
17   0.137221
18   0.138041
19   0.136121
20   0.136311
21   0.1383
22   0.171107
23   0.14736
24   0.151784
25   0.169228
26   0.437612

>  <lowdin_charges>
26
1   -0.140946
2   -0.144401
3   -0.154452
4   -0.156722
5   -0.153518
6   -0.15262
7   -0.138608
8   -0.140738
9   -0.140275
10   -0.134695
11   -0.190591
12   -0.186276
13   -0.595455
14   -0.612347
15   0.998743
16   0.159034
17   0.162121
18   0.16226
19   0.162147
20   0.159504
21   0.161533
22   0.180841
23   0.166719
24   0.167259
25   0.177039
26   0.384445

$$$$

