PCCDB-ID:  50405
public computational chemistry database (PCCDB) project, http://pccdb.org

 29 28  0  0  0  0  0  0  0  0999 V2000
    3.2586    3.2830    1.3862 C   0  0  0  0  0  0  0  0  0  0  0  0
    1.4195    2.4830    2.9203 C   0  0  0  0  0  0  0  0  0  0  0  0
    2.7012    0.7914    1.5548 C   0  0  0  0  0  0  0  0  0  0  0  0
    4.0371    0.2308    1.0783 C   0  0  0  0  0  0  0  0  0  0  0  0
    6.1337   -0.5206    1.8703 C   0  0  0  0  0  0  0  0  0  0  0  0
    6.9257   -0.7566    3.1428 C   0  0  0  0  0  0  0  0  0  0  0  0
    2.7800    2.1413    2.2956 C   0  0  0  0  0  0  0  0  0  0  0  0
    6.6534   -3.0463    3.6762 C   0  0  0  0  0  0  0  0  0  0  0  0
    7.4086   -3.3829    2.7055 N   0  0  0  0  0  0  0  0  0  0  0  0
    6.0223   -3.8313    4.5893 O   0  0  0  0  0  0  0  0  0  0  0  0
    4.8711    0.0169    2.2056 O   0  0  0  0  0  0  0  0  0  0  0  0
    6.3469   -1.7800    3.9730 O   0  0  0  0  0  0  0  0  0  0  0  0
    3.3154    4.2264    1.9420 H   0  0  0  0  0  0  0  0  0  0  0  0
    2.5659    3.4341    0.5472 H   0  0  0  0  0  0  0  0  0  0  0  0
    4.2529    3.0900    0.9685 H   0  0  0  0  0  0  0  0  0  0  0  0
    1.4634    3.4276    3.4755 H   0  0  0  0  0  0  0  0  0  0  0  0
    1.0918    1.7007    3.6152 H   0  0  0  0  0  0  0  0  0  0  0  0
    0.6457    2.5884    2.1479 H   0  0  0  0  0  0  0  0  0  0  0  0
    2.2421    0.0456    2.2170 H   0  0  0  0  0  0  0  0  0  0  0  0
    2.0393    0.8874    0.6813 H   0  0  0  0  0  0  0  0  0  0  0  0
    4.5286    0.9182    0.3686 H   0  0  0  0  0  0  0  0  0  0  0  0
    3.8755   -0.7204    0.5427 H   0  0  0  0  0  0  0  0  0  0  0  0
    6.0310   -1.4628    1.3124 H   0  0  0  0  0  0  0  0  0  0  0  0
    6.7033    0.1813    1.2345 H   0  0  0  0  0  0  0  0  0  0  0  0
    6.9074    0.1408    3.7656 H   0  0  0  0  0  0  0  0  0  0  0  0
    7.9554   -1.0275    2.8965 H   0  0  0  0  0  0  0  0  0  0  0  0
    3.5091    2.0227    3.1076 H   0  0  0  0  0  0  0  0  0  0  0  0
    7.5418   -4.3917    2.6469 H   0  0  0  0  0  0  0  0  0  0  0  0
    6.2248   -4.7573    4.3865 H   0  0  0  0  0  0  0  0  0  0  0  0
  1 13  1  0  0  0  0
  1  7  1  0  0  0  0
  2 16  1  0  0  0  0
  2 17  1  0  0  0  0
  3 19  1  0  0  0  0
  3  7  1  0  0  0  0
  4  3  1  0  0  0  0
  4 11  1  0  0  0  0
  5 11  1  0  0  0  0
  5  6  1  0  0  0  0
  6 25  1  0  0  0  0
  6 12  1  0  0  0  0
  7  2  1  0  0  0  0
  7 27  1  0  0  0  0
  8 12  1  0  0  0  0
  8 10  1  0  0  0  0
  9  8  2  0  0  0  0
 14  1  1  0  0  0  0
 15  1  1  0  0  0  0
 18  2  1  0  0  0  0
 20  3  1  0  0  0  0
 21  4  1  0  0  0  0
 22  4  1  0  0  0  0
 23  5  1  0  0  0  0
 24  5  1  0  0  0  0
 26  6  1  0  0  0  0
 28  9  1  0  0  0  0
 29 10  1  0  0  0  0
M  END
>  <HBA>
4

>  <HBD>
1

>  <TPSA>
61.55

>  <cid>
50405

>  <dipole>
1.95

>  <excitation_energy_1>
5.856

>  <excitation_energy_2>
6.123

>  <excitation_energy_3>
6.463

>  <excitation_energy_4>
6.516

>  <homo_energy>
-6.768

>  <homo_lumo_gap>
8.022

>  <logP>
1.845

>  <lumo_energy>
1.254

>  <melting_point>
40.18

>  <molecular_refractivity>
46.04

>  <oscillator_strength_1>
0.0077

>  <oscillator_strength_2>
0.0107

>  <oscillator_strength_3>
0.0043

>  <oscillator_strength_4>
0.0453

>  <open_babel_can_smiles>
CC(CCOCCOC(=N)O)C

>  <mulliken_charges>
29
1   -0.448375
2   -0.443529
3   -0.269662
4   -0.013965
5   -0.024787
6   -0.049747
7   -0.06355
8   0.646487
9   -0.634434
10   -0.566051
11   -0.471403
12   -0.434698
13   0.140294
14   0.134168
15   0.142833
16   0.138539
17   0.142109
18   0.134328
19   0.143504
20   0.124365
21   0.117178
22   0.118771
23   0.152455
24   0.118638
25   0.164868
26   0.172942
27   0.145613
28   0.275689
29   0.407419

>  <lowdin_charges>
29
1   -0.446955
2   -0.44531
3   -0.284282
4   -0.131179
5   -0.141917
6   -0.130037
7   -0.123273
8   0.190951
9   -0.478661
10   -0.358946
11   -0.272542
12   -0.168964
13   0.148557
14   0.14322
15   0.146715
16   0.147081
17   0.149362
18   0.14342
19   0.151244
20   0.142894
21   0.124832
22   0.128069
23   0.145277
24   0.133072
25   0.161956
26   0.163628
27   0.147828
28   0.254189
29   0.359772

$$$$

