PCCDB-ID:  61832
public computational chemistry database (PCCDB) project, http://pccdb.org

 29 28  0  0  0  0  0  0  0  0999 V2000
    2.3886   -3.0524   -0.2238 C   0  0  0  0  0  0  0  0  0  0  0  0
   11.7132    0.5212   -4.3728 C   0  0  0  0  0  0  0  0  0  0  0  0
    3.2891   -2.0579   -0.1550 C   0  0  0  0  0  0  0  0  0  0  0  0
   11.1615    1.9497   -4.2875 C   0  0  0  0  0  0  0  0  0  0  0  0
    4.0113   -1.5198   -1.2909 C   0  0  0  0  0  0  0  0  0  0  0  0
    9.6327    2.0525   -4.4186 C   0  0  0  0  0  0  0  0  0  0  0  0
    4.9180   -0.5187   -1.2117 C   0  0  0  0  0  0  0  0  0  0  0  0
    8.8470    1.4191   -3.2625 C   0  0  0  0  0  0  0  0  0  0  0  0
    5.6446    0.0242   -2.3410 C   0  0  0  0  0  0  0  0  0  0  0  0
    7.3207    1.5862   -3.4145 C   0  0  0  0  0  0  0  0  0  0  0  0
    6.5482    1.0189   -2.2597 C   0  0  0  0  0  0  0  0  0  0  0  0
    1.8738   -3.4199    0.6585 H   0  0  0  0  0  0  0  0  0  0  0  0
    2.1393   -3.5298   -1.1689 H   0  0  0  0  0  0  0  0  0  0  0  0
   12.8076    0.5185   -4.3141 H   0  0  0  0  0  0  0  0  0  0  0  0
   11.4298    0.0457   -5.3203 H   0  0  0  0  0  0  0  0  0  0  0  0
   11.3401   -0.1118   -3.5600 H   0  0  0  0  0  0  0  0  0  0  0  0
    3.5090   -1.6077    0.8138 H   0  0  0  0  0  0  0  0  0  0  0  0
   11.6212    2.5553   -5.0802 H   0  0  0  0  0  0  0  0  0  0  0  0
   11.4737    2.4067   -3.3374 H   0  0  0  0  0  0  0  0  0  0  0  0
    3.7965   -1.9637   -2.2640 H   0  0  0  0  0  0  0  0  0  0  0  0
    9.3195    1.5901   -5.3668 H   0  0  0  0  0  0  0  0  0  0  0  0
    9.3548    3.1138   -4.4925 H   0  0  0  0  0  0  0  0  0  0  0  0
    5.1288   -0.0776   -0.2361 H   0  0  0  0  0  0  0  0  0  0  0  0
    9.1676    1.8737   -2.3134 H   0  0  0  0  0  0  0  0  0  0  0  0
    9.0765    0.3492   -3.1827 H   0  0  0  0  0  0  0  0  0  0  0  0
    5.4300   -0.4157   -3.3166 H   0  0  0  0  0  0  0  0  0  0  0  0
    6.9908    1.1145   -4.3497 H   0  0  0  0  0  0  0  0  0  0  0  0
    7.0985    2.6610   -3.5115 H   0  0  0  0  0  0  0  0  0  0  0  0
    6.7601    1.4528   -1.2801 H   0  0  0  0  0  0  0  0  0  0  0  0
  1  3  2  0  0  0  0
  1 12  1  0  0  0  0
  2 14  1  0  0  0  0
  2  4  1  0  0  0  0
  2 16  1  0  0  0  0
  3 17  1  0  0  0  0
  4 19  1  0  0  0  0
  5  7  2  0  0  0  0
  5  3  1  0  0  0  0
  6  4  1  0  0  0  0
  6  8  1  0  0  0  0
  7 23  1  0  0  0  0
  8 25  1  0  0  0  0
  8 24  1  0  0  0  0
  9 11  2  0  0  0  0
  9  7  1  0  0  0  0
 10  8  1  0  0  0  0
 10 11  1  0  0  0  0
 11 29  1  0  0  0  0
 13  1  1  0  0  0  0
 15  2  1  0  0  0  0
 18  4  1  0  0  0  0
 20  5  1  0  0  0  0
 21  6  1  0  0  0  0
 22  6  1  0  0  0  0
 26  9  1  0  0  0  0
 27 10  1  0  0  0  0
 28 10  1  0  0  0  0
M  END
>  <HBA>
0

>  <HBD>
0

>  <TPSA>
0.0

>  <cid>
61832

>  <dipole>
0.85

>  <excitation_energy_1>
4.524

>  <excitation_energy_2>
5.241

>  <excitation_energy_3>
5.366

>  <excitation_energy_4>
5.509

>  <homo_energy>
-5.45

>  <homo_lumo_gap>
4.403

>  <logP>
3.865

>  <lumo_energy>
-1.048

>  <melting_point>
-30.9

>  <molecular_refractivity>
53.57

>  <oscillator_strength_1>
1.3244

>  <oscillator_strength_2>
0.0006

>  <oscillator_strength_3>
0.0035

>  <oscillator_strength_4>
0.004

>  <open_babel_can_smiles>
CCCCC/C=C/C=C/C=C

>  <mulliken_charges>
29
1   -0.358514
2   -0.443729
3   -0.059205
4   -0.248849
5   -0.125555
6   -0.248995
7   -0.121273
8   -0.254574
9   -0.108929
10   -0.306755
11   -0.107101
12   0.141852
13   0.138662
14   0.142567
15   0.140927
16   0.14737
17   0.12378
18   0.131411
19   0.129817
20   0.12065
21   0.127406
22   0.127594
23   0.121062
24   0.12887
25   0.14268
26   0.118106
27   0.138134
28   0.141513
29   0.12108

>  <lowdin_charges>
29
1   -0.33925
2   -0.446461
3   -0.141332
4   -0.273739
5   -0.159684
6   -0.274416
7   -0.150765
8   -0.27341
9   -0.16563
10   -0.268605
11   -0.152494
12   0.161516
13   0.156345
14   0.14801
15   0.146073
16   0.148665
17   0.152447
18   0.143301
19   0.138779
20   0.151717
21   0.137724
22   0.138466
23   0.151442
24   0.138494
25   0.142843
26   0.149928
27   0.145811
28   0.146438
29   0.147788

$$$$

