PCCDB-ID:  40922
public computational chemistry database (PCCDB) project, http://pccdb.org

 23 22  0  0  0  0  0  0  0  0999 V2000
    4.3402   -2.3935   -0.6751 C   0  0  0  0  0  0  0  0  0  0  0  0
    1.4216   -0.9893    2.8248 C   0  0  0  0  0  0  0  0  0  0  0  0
    1.3905   -2.8343    1.1296 C   0  0  0  0  0  0  0  0  0  0  0  0
    3.3684   -2.5627    2.6949 C   0  0  0  0  0  0  0  0  0  0  0  0
    2.9533   -0.8611    0.8710 C   0  0  0  0  0  0  0  0  0  0  0  0
    4.2240    0.1108   -0.9176 C   0  0  0  0  0  0  0  0  0  0  0  0
    3.7861   -1.0890   -0.1659 C   0  0  0  0  0  0  0  0  0  0  0  0
    2.2987   -1.8180    1.8613 C   0  0  0  0  0  0  0  0  0  0  0  0
    4.9704    0.0848   -1.8787 O   0  0  0  0  0  0  0  0  0  0  0  0
    4.0370   -3.2532   -0.0786 H   0  0  0  0  0  0  0  0  0  0  0  0
    5.4350   -2.3505   -0.6982 H   0  0  0  0  0  0  0  0  0  0  0  0
    4.0222   -2.5584   -1.7113 H   0  0  0  0  0  0  0  0  0  0  0  0
    0.9353   -1.6387    3.5613 H   0  0  0  0  0  0  0  0  0  0  0  0
    0.6363   -0.4497    2.2818 H   0  0  0  0  0  0  0  0  0  0  0  0
    2.0214   -0.2516    3.3714 H   0  0  0  0  0  0  0  0  0  0  0  0
    0.8718   -3.4669    1.8604 H   0  0  0  0  0  0  0  0  0  0  0  0
    1.9556   -3.4901    0.4615 H   0  0  0  0  0  0  0  0  0  0  0  0
    0.6310   -2.3201    0.5300 H   0  0  0  0  0  0  0  0  0  0  0  0
    2.8822   -3.2050    3.4393 H   0  0  0  0  0  0  0  0  0  0  0  0
    4.0119   -1.8551    3.2296 H   0  0  0  0  0  0  0  0  0  0  0  0
    4.0100   -3.1946    2.0744 H   0  0  0  0  0  0  0  0  0  0  0  0
    2.6999    0.1893    1.0342 H   0  0  0  0  0  0  0  0  0  0  0  0
    3.8164    1.0757   -0.5396 H   0  0  0  0  0  0  0  0  0  0  0  0
  1  7  1  0  0  0  0
  1 10  1  0  0  0  0
  2 15  1  0  0  0  0
  2 13  1  0  0  0  0
  3 16  1  0  0  0  0
  3  8  1  0  0  0  0
  4 20  1  0  0  0  0
  4 19  1  0  0  0  0
  5 22  1  0  0  0  0
  5  8  1  0  0  0  0
  6 23  1  0  0  0  0
  6  7  1  0  0  0  0
  7  5  2  0  0  0  0
  8  4  1  0  0  0  0
  8  2  1  0  0  0  0
  9  6  2  0  0  0  0
 11  1  1  0  0  0  0
 12  1  1  0  0  0  0
 14  2  1  0  0  0  0
 17  3  1  0  0  0  0
 18  3  1  0  0  0  0
 21  4  1  0  0  0  0
M  END
>  <HBA>
1

>  <HBD>
0

>  <TPSA>
17.07

>  <cid>
40922

>  <dipole>
3.53

>  <excitation_energy_1>
3.811

>  <excitation_energy_2>
5.565

>  <excitation_energy_3>
6.303

>  <excitation_energy_4>
6.444

>  <homo_energy>
-6.721

>  <homo_lumo_gap>
5.388

>  <logP>
2.178

>  <lumo_energy>
-1.333

>  <melting_point>
35.73

>  <molecular_refractivity>
40.04

>  <oscillator_strength_1>
0.0001

>  <oscillator_strength_2>
0.4214

>  <oscillator_strength_3>
0.0258

>  <oscillator_strength_4>
0.0002

>  <open_babel_can_smiles>
O=C/C(=C/C(C)(C)C)/C

>  <mulliken_charges>
23
1   -0.515653
2   -0.45653
3   -0.442974
4   -0.443097
5   -0.175375
6   0.201197
7   0.125053
8   0.068823
9   -0.416517
10   0.152746
11   0.174898
12   0.173848
13   0.145125
14   0.145685
15   0.145377
16   0.143765
17   0.151727
18   0.148524
19   0.143999
20   0.14852
21   0.152135
22   0.133047
23   0.095677

>  <lowdin_charges>
23
1   -0.44166
2   -0.446142
3   -0.442218
4   -0.442177
5   -0.129282
6   0.033874
7   -0.048466
8   0.012527
9   -0.235117
10   0.155812
11   0.169485
12   0.169803
13   0.152261
14   0.150993
15   0.150953
16   0.151489
17   0.154343
18   0.153982
19   0.151436
20   0.154114
21   0.154299
22   0.154464
23   0.115227

$$$$

