PCCDB-ID:  12698
public computational chemistry database (PCCDB) project, http://pccdb.org

 19 18  0  0  1  0  0  0  0  0999 V2000
    1.1633    0.2254    0.5041 C   0  0  0  0  0  0  0  0  0  0  0  0
    2.5466    2.3244   -1.2633 C   0  0  0  0  0  0  0  0  0  0  0  0
    2.7349   -1.5196   -0.4121 C   0  0  0  0  0  0  0  0  0  0  0  0
    2.5328   -0.0121   -0.1525 C   0  0  1  0  0  0  0  0  0  0  0  0
    2.6993    0.8145   -1.4469 C   0  0  2  0  0  0  0  0  0  0  0  0
    4.0521   -1.8728   -0.7905 O   0  0  0  0  0  0  0  0  0  0  0  0
    3.9644    0.5364   -2.0908 O   0  0  0  0  0  0  0  0  0  0  0  0
    1.0455   -0.4131    1.3867 H   0  0  0  0  0  0  0  0  0  0  0  0
    0.3442   -0.0128   -0.1870 H   0  0  0  0  0  0  0  0  0  0  0  0
    1.0351    1.2620    0.8297 H   0  0  0  0  0  0  0  0  0  0  0  0
    1.5316    2.5999   -0.9618 H   0  0  0  0  0  0  0  0  0  0  0  0
    2.7734    2.8332   -2.2054 H   0  0  0  0  0  0  0  0  0  0  0  0
    3.2376    2.6979   -0.4950 H   0  0  0  0  0  0  0  0  0  0  0  0
    1.9956   -1.8530   -1.1643 H   0  0  0  0  0  0  0  0  0  0  0  0
    2.5223   -2.0731    0.5097 H   0  0  0  0  0  0  0  0  0  0  0  0
    3.3207    0.3020    0.5511 H   0  0  0  0  0  0  0  0  0  0  0  0
    1.9588    0.4650   -2.1780 H   0  0  0  0  0  0  0  0  0  0  0  0
    4.2574   -1.3050   -1.5558 H   0  0  0  0  0  0  0  0  0  0  0  0
    4.6616    0.8900   -1.5127 H   0  0  0  0  0  0  0  0  0  0  0  0
  1 10  1  0  0  0  0
  1  8  1  0  0  0  0
  2 11  1  0  0  0  0
  2 13  1  0  0  0  0
  3  4  1  0  0  0  0
  3 15  1  0  0  0  0
  4  1  1  0  0  0  0
  4 16  1  1  0  0  0
  5 17  1  6  0  0  0
  5  2  1  0  0  0  0
  5  4  1  0  0  0  0
  6  3  1  0  0  0  0
  7 19  1  0  0  0  0
  7  5  1  0  0  0  0
  9  1  1  0  0  0  0
 12  2  1  0  0  0  0
 14  3  1  0  0  0  0
 18  6  1  0  0  0  0
M  END
>  <HBA>
2

>  <HBD>
2

>  <TPSA>
40.46

>  <cid>
12698

>  <dipole>
2.87

>  <excitation_energy_1>
6.319

>  <excitation_energy_2>
6.624

>  <excitation_energy_3>
6.787

>  <excitation_energy_4>
6.865

>  <homo_energy>
-6.694

>  <homo_lumo_gap>
8.43

>  <logP>
-0.004

>  <lumo_energy>
1.736

>  <melting_point>
11.34

>  <molecular_refractivity>
28.47

>  <oscillator_strength_1>
0.0147

>  <oscillator_strength_2>
0.0079

>  <oscillator_strength_3>
0.0098

>  <oscillator_strength_4>
0.0124

>  <open_babel_can_smiles>
OC[C@@H]([C@H](O)C)C

>  <mulliken_charges>
19
1   -0.465121
2   -0.4696
3   -0.013433
4   -0.117624
5   0.136798
6   -0.64594
7   -0.6328
8   0.152001
9   0.14572
10   0.151343
11   0.155604
12   0.163572
13   0.137873
14   0.10839
15   0.135458
16   0.119645
17   0.139862
18   0.40501
19   0.393241

>  <lowdin_charges>
19
1   -0.446588
2   -0.461725
3   -0.135573
4   -0.162067
5   -0.001738
6   -0.487475
7   -0.46114
8   0.155637
9   0.149821
10   0.152257
11   0.15848
12   0.161726
13   0.147391
14   0.12098
15   0.143073
16   0.137756
17   0.145287
18   0.338819
19   0.345081

$$$$

