PCCDB-ID:  69704
public computational chemistry database (PCCDB) project, http://pccdb.org

 26 26  0  0  0  0  0  0  0  0999 V2000
    0.8891   -0.7691    0.5652 C   0  0  0  0  0  0  0  0  0  0  0  0
    5.8919   -8.1758    1.3178 C   0  0  0  0  0  0  0  0  0  0  0  0
    2.3816   -1.0086    0.3151 C   0  0  0  0  0  0  0  0  0  0  0  0
    2.8028   -2.4668    0.5318 C   0  0  0  0  0  0  0  0  0  0  0  0
    4.3009   -2.7103    0.2583 C   0  0  0  0  0  0  0  0  0  0  0  0
    4.9042   -6.4441   -0.2625 C   0  0  0  0  0  0  0  0  0  0  0  0
    4.5245   -5.1288   -0.5169 C   0  0  0  0  0  0  0  0  0  0  0  0
    5.3063   -4.5779    1.6582 C   0  0  0  0  0  0  0  0  0  0  0  0
    5.4761   -6.7664    0.9746 C   0  0  0  0  0  0  0  0  0  0  0  0
    4.7200   -4.1481    0.4605 C   0  0  0  0  0  0  0  0  0  0  0  0
    5.6756   -5.8340    1.9216 N   0  0  0  0  0  0  0  0  0  0  0  0
    0.6211    0.2814    0.4050 H   0  0  0  0  0  0  0  0  0  0  0  0
    0.6119   -1.0301    1.5938 H   0  0  0  0  0  0  0  0  0  0  0  0
    0.2716   -1.3767   -0.1077 H   0  0  0  0  0  0  0  0  0  0  0  0
    5.8799   -8.8283    0.4392 H   0  0  0  0  0  0  0  0  0  0  0  0
    5.2173   -8.6037    2.0699 H   0  0  0  0  0  0  0  0  0  0  0  0
    6.8974   -8.1813    1.7507 H   0  0  0  0  0  0  0  0  0  0  0  0
    2.9731   -0.3591    0.9759 H   0  0  0  0  0  0  0  0  0  0  0  0
    2.6345   -0.7071   -0.7116 H   0  0  0  0  0  0  0  0  0  0  0  0
    2.2054   -3.1235   -0.1165 H   0  0  0  0  0  0  0  0  0  0  0  0
    2.5727   -2.7689    1.5632 H   0  0  0  0  0  0  0  0  0  0  0  0
    4.8938   -2.0619    0.9168 H   0  0  0  0  0  0  0  0  0  0  0  0
    4.5302   -2.4002   -0.7705 H   0  0  0  0  0  0  0  0  0  0  0  0
    4.7643   -7.2147   -1.0158 H   0  0  0  0  0  0  0  0  0  0  0  0
    4.0848   -4.8632   -1.4766 H   0  0  0  0  0  0  0  0  0  0  0  0
    5.4952   -3.8539    2.4523 H   0  0  0  0  0  0  0  0  0  0  0  0
  1 13  1  0  0  0  0
  2 17  1  0  0  0  0
  2 16  1  0  0  0  0
  3  4  1  0  0  0  0
  3  1  1  0  0  0  0
  3 18  1  0  0  0  0
  4 21  1  0  0  0  0
  5 10  1  0  0  0  0
  5  4  1  0  0  0  0
  5 22  1  0  0  0  0
  6  9  1  0  0  0  0
  7  6  2  0  0  0  0
  7 10  1  0  0  0  0
  8 11  1  0  0  0  0
  8 26  1  0  0  0  0
  9  2  1  0  0  0  0
  9 11  2  0  0  0  0
 10  8  2  0  0  0  0
 12  1  1  0  0  0  0
 14  1  1  0  0  0  0
 15  2  1  0  0  0  0
 19  3  1  0  0  0  0
 20  4  1  0  0  0  0
 23  5  1  0  0  0  0
 24  6  1  0  0  0  0
 25  7  1  0  0  0  0
M  END
>  <HBA>
1

>  <HBD>
0

>  <TPSA>
12.89

>  <cid>
69704

>  <dipole>
2.01

>  <excitation_energy_1>
4.808

>  <excitation_energy_2>
5.197

>  <excitation_energy_3>
5.218

>  <excitation_energy_4>
5.916

>  <homo_energy>
-6.504

>  <homo_lumo_gap>
6.049

>  <logP>
2.733

>  <lumo_energy>
-0.454

>  <melting_point>
25.5

>  <molecular_refractivity>
48.59

>  <oscillator_strength_1>
0.0044

>  <oscillator_strength_2>
0.0727

>  <oscillator_strength_3>
0.0008

>  <oscillator_strength_4>
0.1313

>  <open_babel_can_smiles>
CCCCc1ccc(nc1)C

>  <mulliken_charges>
26
1   -0.44218
2   -0.503328
3   -0.246543
4   -0.24302
5   -0.354322
6   -0.170608
7   -0.146082
8   -0.015287
9   0.301004
10   0.155215
11   -0.461737
12   0.143656
13   0.144149
14   0.142528
15   0.146115
16   0.168796
17   0.171514
18   0.132918
19   0.130949
20   0.132952
21   0.137707
22   0.143714
23   0.141908
24   0.12805
25   0.131625
26   0.130306

>  <lowdin_charges>
26
1   -0.443386
2   -0.445958
3   -0.273316
4   -0.272629
5   -0.27326
6   -0.186743
7   -0.138142
8   -0.102201
9   0.053114
10   -0.024065
11   -0.158904
12   0.1492
13   0.146878
14   0.148293
15   0.152992
16   0.167679
17   0.167995
18   0.141504
19   0.138104
20   0.141996
21   0.142348
22   0.151055
23   0.147753
24   0.160339
25   0.157445
26   0.151907

$$$$

