PCCDB-ID:  69119
public computational chemistry database (PCCDB) project, http://pccdb.org

 26 26  0  0  0  0  0  0  0  0999 V2000
    3.4910    1.2961    1.5046 C   0  0  0  0  0  0  0  0  0  0  0  0
    0.6374   -1.7870   -2.0979 C   0  0  0  0  0  0  0  0  0  0  0  0
    1.6483    4.5024   -2.6544 C   0  0  0  0  0  0  0  0  0  0  0  0
    2.1516    3.6840   -1.6481 C   0  0  0  0  0  0  0  0  0  0  0  0
    1.0252    2.5199   -3.9243 C   0  0  0  0  0  0  0  0  0  0  0  0
    1.0969    3.9015   -3.7821 C   0  0  0  0  0  0  0  0  0  0  0  0
    2.0974    2.2880   -1.7618 C   0  0  0  0  0  0  0  0  0  0  0  0
    1.5085    1.7038   -2.9011 C   0  0  0  0  0  0  0  0  0  0  0  0
    2.7801    1.4337   -0.7357 C   0  0  0  0  0  0  0  0  0  0  0  0
    1.3440    0.2209   -3.0937 C   0  0  0  0  0  0  0  0  0  0  0  0
    0.5716    4.7578   -4.8631 N   0  0  0  0  0  0  0  0  0  0  0  0
    3.2959    0.3621   -0.9718 O   0  0  0  0  0  0  0  0  0  0  0  0
    1.6191   -0.3526   -4.1241 O   0  0  0  0  0  0  0  0  0  0  0  0
    0.6602    5.9755   -4.7143 O   0  0  0  0  0  0  0  0  0  0  0  0
    0.0783    4.2011   -5.8412 O   0  0  0  0  0  0  0  0  0  0  0  0
    2.7945    2.0238    0.4762 O   0  0  0  0  0  0  0  0  0  0  0  0
    0.7699   -0.3559   -2.0244 O   0  0  0  0  0  0  0  0  0  0  0  0
    4.5389    1.1538    1.2285 H   0  0  0  0  0  0  0  0  0  0  0  0
    3.0261    0.3194    1.6588 H   0  0  0  0  0  0  0  0  0  0  0  0
    3.4071    1.9097    2.4014 H   0  0  0  0  0  0  0  0  0  0  0  0
    1.6266   -2.2503   -2.1361 H   0  0  0  0  0  0  0  0  0  0  0  0
    0.0663   -2.0738   -2.9840 H   0  0  0  0  0  0  0  0  0  0  0  0
    0.1126   -2.0769   -1.1876 H   0  0  0  0  0  0  0  0  0  0  0  0
    1.6846    5.5823   -2.5836 H   0  0  0  0  0  0  0  0  0  0  0  0
    2.6079    4.1244   -0.7694 H   0  0  0  0  0  0  0  0  0  0  0  0
    0.5921    2.0859   -4.8166 H   0  0  0  0  0  0  0  0  0  0  0  0
  1 19  1  0  0  0  0
  1 20  1  0  0  0  0
  2 17  1  0  0  0  0
  2 23  1  0  0  0  0
  3 24  1  0  0  0  0
  3  4  2  0  0  0  0
  4 25  1  0  0  0  0
  5  6  2  0  0  0  0
  5  8  1  0  0  0  0
  6  3  1  0  0  0  0
  7  4  1  0  0  0  0
  7  9  1  0  0  0  0
  8  7  2  0  0  0  0
  9 16  1  0  0  0  0
 10  8  1  0  0  0  0
 10 17  1  0  0  0  0
 11 14  2  0  0  0  0
 11  6  1  0  0  0  0
 12  9  2  0  0  0  0
 13 10  2  0  0  0  0
 15 11  2  0  0  0  0
 16  1  1  0  0  0  0
 18  1  1  0  0  0  0
 21  2  1  0  0  0  0
 22  2  1  0  0  0  0
 26  5  1  0  0  0  0
M  END
>  <HBA>
4

>  <HBD>
0

>  <TPSA>
98.42

>  <cid>
69119

>  <dipole>
6.02

>  <excitation_energy_1>
3.675

>  <excitation_energy_2>
3.919

>  <excitation_energy_3>
4.182

>  <excitation_energy_4>
4.239

>  <homo_energy>
-7.546

>  <homo_lumo_gap>
4.642

>  <logP>
1.691

>  <lumo_energy>
-2.903

>  <melting_point>
96.01

>  <molecular_refractivity>
57.82

>  <oscillator_strength_1>
0.0001

>  <oscillator_strength_2>
0.0204

>  <oscillator_strength_3>
0.0023

>  <oscillator_strength_4>
0.0442

>  <open_babel_can_smiles>
COC(=O)c1cc(ccc1C(=O)OC)N(=O)=O

>  <mulliken_charges>
26
1   -0.221643
2   -0.222196
3   -0.143713
4   -0.182237
5   -0.191472
6   0.283931
7   0.077666
8   0.058223
9   0.580294
10   0.560858
11   0.384355
12   -0.4763
13   -0.467412
14   -0.3884
15   -0.38396
16   -0.454693
17   -0.442708
18   0.177741
19   0.177927
20   0.172471
21   0.182899
22   0.176409
23   0.166667
24   0.192019
25   0.17508
26   0.208194

>  <lowdin_charges>
26
1   -0.27518
2   -0.275658
3   -0.128213
4   -0.133539
5   -0.11923
6   0.012491
7   -0.009923
8   -0.003997
9   0.195498
10   0.198292
11   0.306331
12   -0.247179
13   -0.24614
14   -0.23737
15   -0.234064
16   -0.181731
17   -0.179262
18   0.16216
19   0.163691
20   0.165247
21   0.166242
22   0.163583
23   0.162726
24   0.190874
25   0.182194
26   0.202157

$$$$

