PCCDB-ID:  33740
public computational chemistry database (PCCDB) project, http://pccdb.org

 45 44  0  0  1  0  0  0  0  0999 V2000
    9.0263   -5.9185   -9.0367 C   0  0  0  0  0  0  0  0  0  0  0  0
   11.8116   -6.0117    0.4517 C   0  0  0  0  0  0  0  0  0  0  0  0
    8.5667   -4.4593   -8.9555 C   0  0  0  0  0  0  0  0  0  0  0  0
   10.4080   -5.8122    1.0346 C   0  0  0  0  0  0  0  0  0  0  0  0
    7.5091   -4.2172   -7.8702 C   0  0  0  0  0  0  0  0  0  0  0  0
    7.0411   -2.7572   -7.7932 C   0  0  0  0  0  0  0  0  0  0  0  0
    5.9173   -2.4983   -6.7732 C   0  0  0  0  0  0  0  0  0  0  0  0
    6.2885   -2.7063   -5.2937 C   0  0  0  0  0  0  0  0  0  0  0  0
    7.3217   -1.7053   -4.7541 C   0  0  0  0  0  0  0  0  0  0  0  0
    7.6061   -1.8388   -3.2480 C   0  0  0  0  0  0  0  0  0  0  0  0
    8.3344   -3.1302   -2.8504 C   0  0  0  0  0  0  0  0  0  0  0  0
    9.7043   -4.5313    0.5577 C   0  0  0  0  0  0  0  0  0  0  0  0
    8.6455   -3.2109   -1.3510 C   0  0  0  0  0  0  0  0  0  0  0  0
    9.3321   -4.5195   -0.9330 C   0  0  2  0  0  0  0  0  0  0  0  0
    8.5342   -5.6603   -1.2771 O   0  0  0  0  0  0  0  0  0  0  0  0
    9.7815   -6.0587   -9.8187 H   0  0  0  0  0  0  0  0  0  0  0  0
    8.1858   -6.5866   -9.2618 H   0  0  0  0  0  0  0  0  0  0  0  0
    9.4648   -6.2494   -8.0871 H   0  0  0  0  0  0  0  0  0  0  0  0
   12.2793   -6.9157    0.8580 H   0  0  0  0  0  0  0  0  0  0  0  0
   12.4658   -5.1631    0.6896 H   0  0  0  0  0  0  0  0  0  0  0  0
   11.7868   -6.1193   -0.6383 H   0  0  0  0  0  0  0  0  0  0  0  0
    8.1634   -4.1468   -9.9294 H   0  0  0  0  0  0  0  0  0  0  0  0
    9.4348   -3.8119   -8.7656 H   0  0  0  0  0  0  0  0  0  0  0  0
   10.4750   -5.7846    2.1303 H   0  0  0  0  0  0  0  0  0  0  0  0
    9.7809   -6.6744    0.7788 H   0  0  0  0  0  0  0  0  0  0  0  0
    7.9163   -4.5351   -6.9002 H   0  0  0  0  0  0  0  0  0  0  0  0
    6.6405   -4.8659   -8.0610 H   0  0  0  0  0  0  0  0  0  0  0  0
    6.6825   -2.4504   -8.7863 H   0  0  0  0  0  0  0  0  0  0  0  0
    7.9031   -2.1109   -7.5757 H   0  0  0  0  0  0  0  0  0  0  0  0
    5.0682   -3.1528   -7.0177 H   0  0  0  0  0  0  0  0  0  0  0  0
    5.5537   -1.4686   -6.9024 H   0  0  0  0  0  0  0  0  0  0  0  0
    6.6463   -3.7328   -5.1432 H   0  0  0  0  0  0  0  0  0  0  0  0
    5.3719   -2.6172   -4.6922 H   0  0  0  0  0  0  0  0  0  0  0  0
    6.9603   -0.6866   -4.9569 H   0  0  0  0  0  0  0  0  0  0  0  0
    8.2681   -1.8063   -5.3039 H   0  0  0  0  0  0  0  0  0  0  0  0
    6.6578   -1.7685   -2.6938 H   0  0  0  0  0  0  0  0  0  0  0  0
    8.2099   -0.9786   -2.9245 H   0  0  0  0  0  0  0  0  0  0  0  0
    9.2760   -3.1999   -3.4160 H   0  0  0  0  0  0  0  0  0  0  0  0
    7.7455   -4.0103   -3.1320 H   0  0  0  0  0  0  0  0  0  0  0  0
   10.3378   -3.6580    0.7705 H   0  0  0  0  0  0  0  0  0  0  0  0
    8.7815   -4.3859    1.1421 H   0  0  0  0  0  0  0  0  0  0  0  0
    7.7135   -3.1020   -0.7721 H   0  0  0  0  0  0  0  0  0  0  0  0
    9.2837   -2.3654   -1.0560 H   0  0  0  0  0  0  0  0  0  0  0  0
   10.2392   -4.6440   -1.5371 H   0  0  0  0  0  0  0  0  0  0  0  0
    7.7145   -5.6003   -0.7586 H   0  0  0  0  0  0  0  0  0  0  0  0
  1  3  1  0  0  0  0
  1 18  1  0  0  0  0
  2 20  1  0  0  0  0
  2 19  1  0  0  0  0
  2  4  1  0  0  0  0
  3 23  1  0  0  0  0
  3  5  1  0  0  0  0
  4 24  1  0  0  0  0
  5  6  1  0  0  0  0
  5 26  1  0  0  0  0
  6 29  1  0  0  0  0
  6  7  1  0  0  0  0
  7  8  1  0  0  0  0
  8 32  1  0  0  0  0
  8  9  1  0  0  0  0
  8 33  1  0  0  0  0
  9 10  1  0  0  0  0
 10 37  1  0  0  0  0
 10 11  1  0  0  0  0
 10 36  1  0  0  0  0
 11 13  1  0  0  0  0
 12 40  1  0  0  0  0
 12  4  1  0  0  0  0
 12 41  1  0  0  0  0
 13 43  1  0  0  0  0
 13 14  1  0  0  0  0
 13 42  1  0  0  0  0
 14 44  1  6  0  0  0
 14 12  1  0  0  0  0
 15 14  1  0  0  0  0
 15 45  1  0  0  0  0
 16  1  1  0  0  0  0
 17  1  1  0  0  0  0
 21  2  1  0  0  0  0
 22  3  1  0  0  0  0
 25  4  1  0  0  0  0
 27  5  1  0  0  0  0
 28  6  1  0  0  0  0
 30  7  1  0  0  0  0
 31  7  1  0  0  0  0
 34  9  1  0  0  0  0
 35  9  1  0  0  0  0
 38 11  1  0  0  0  0
 39 11  1  0  0  0  0
M  END
>  <HBA>
1

>  <HBD>
1

>  <TPSA>
20.23

>  <cid>
33740

>  <dipole>
1.46

>  <excitation_energy_1>
6.449

>  <excitation_energy_2>
6.974

>  <excitation_energy_3>
7.124

>  <excitation_energy_4>
7.15

>  <homo_energy>
-7.059

>  <homo_lumo_gap>
8.961

>  <logP>
4.678

>  <lumo_energy>
1.902

>  <melting_point>
-13.26

>  <molecular_refractivity>
70.57

>  <oscillator_strength_1>
0.0072

>  <oscillator_strength_2>
0.0004

>  <oscillator_strength_3>
0.0008

>  <oscillator_strength_4>
0.0028

>  <open_babel_can_smiles>
CCCCCCCCCC[C@@H](CCC)O

>  <mulliken_charges>
45
1   -0.441851
2   -0.447532
3   -0.24643
4   -0.243373
5   -0.247506
6   -0.256349
7   -0.257622
8   -0.259647
9   -0.254376
10   -0.255545
11   -0.254169
12   -0.27271
13   -0.272309
14   0.133459
15   -0.620941
16   0.14022
17   0.140749
18   0.142541
19   0.142888
20   0.136803
21   0.152881
22   0.128702
23   0.128916
24   0.127278
25   0.144623
26   0.133615
27   0.124811
28   0.125982
29   0.130759
30   0.125362
31   0.124602
32   0.141279
33   0.124064
34   0.124839
35   0.130813
36   0.123196
37   0.124194
38   0.125179
39   0.150623
40   0.128437
41   0.115001
42   0.114628
43   0.128607
44   0.134893
45   0.380418

>  <lowdin_charges>
45
1   -0.446073
2   -0.446154
3   -0.271913
4   -0.273786
5   -0.277626
6   -0.278313
7   -0.275203
8   -0.279714
9   -0.276231
10   -0.275415
11   -0.279112
12   -0.293594
13   -0.291255
14   -0.003476
15   -0.463853
16   0.149028
17   0.146594
18   0.146836
19   0.151007
20   0.144177
21   0.148192
22   0.137544
23   0.138623
24   0.138317
25   0.147939
26   0.139226
27   0.136966
28   0.13942
29   0.138698
30   0.139958
31   0.137732
32   0.140719
33   0.139096
34   0.138193
35   0.138341
36   0.135377
37   0.138943
38   0.137601
39   0.148918
40   0.14385
41   0.1353
42   0.132899
43   0.143941
44   0.141482
45   0.336802

$$$$

