PCCDB-ID:  10006
public computational chemistry database (PCCDB) project, http://pccdb.org

 11 11  0  0  0  0  0  0  0  0999 V2000
   -0.0744    1.2198   -0.0010 C   0  0  0  0  0  0  0  0  0  0  0  0
    1.1036    0.2561   -0.0001 C   0  0  0  0  0  0  0  0  0  0  0  0
   -0.6774   -0.8492   -0.0031 C   0  0  0  0  0  0  0  0  0  0  0  0
   -1.2195    0.3245   -0.0024 N   0  0  0  0  0  0  0  0  0  0  0  0
    0.7263   -0.9750   -0.0020 N   0  0  0  0  0  0  0  0  0  0  0  0
    2.3952    0.6045    0.0014 O   0  0  0  0  0  0  0  0  0  0  0  0
   -1.3672   -1.9938   -0.0046 O   0  0  0  0  0  0  0  0  0  0  0  0
   -0.0651    1.8715   -0.8868 H   0  0  0  0  0  0  0  0  0  0  0  0
   -0.0672    1.8721    0.8843 H   0  0  0  0  0  0  0  0  0  0  0  0
    2.4710    1.5719    0.0055 H   0  0  0  0  0  0  0  0  0  0  0  0
   -2.3082   -1.7434   -0.0056 H   0  0  0  0  0  0  0  0  0  0  0  0
  1  2  1  0  0  0  0
  1  9  1  0  0  0  0
  2  6  1  0  0  0  0
  3  4  2  0  0  0  0
  3  5  2  0  0  0  0
  4  1  1  0  0  0  0
  5  2  2  0  0  0  0
  6 10  1  0  0  0  0
  7  3  1  0  0  0  0
  8  1  1  0  0  0  0
 11  7  1  0  0  0  0
M  END
>  <HBA>
4

>  <HBD>
2

>  <TPSA>
58.2

>  <cid>
10006

>  <dipole>
3.85

>  <excitation_energy_1>
5.36

>  <excitation_energy_2>
5.396

>  <excitation_energy_3>
5.501

>  <excitation_energy_4>
6.237

>  <homo_energy>
-6.719

>  <homo_lumo_gap>
6.065

>  <logP>
-0.517

>  <lumo_energy>
-0.653

>  <melting_point>
105.48

>  <molecular_refractivity>
28.64

>  <oscillator_strength_1>
0.0029

>  <oscillator_strength_2>
0.0507

>  <oscillator_strength_3>
0.0001

>  <oscillator_strength_4>
0.0002

>  <open_babel_can_smiles>
OC1=[N]=[C](=NC1)O

>  <mulliken_charges>
11
1   -0.238818
2   0.502546
3   0.621479
4   -0.474234
5   -0.45675
6   -0.569016
7   -0.589453
8   0.180112
9   0.179905
10   0.423998
11   0.420231

>  <lowdin_charges>
11
1   -0.237762
2   0.134487
3   0.144168
4   -0.285566
5   -0.194225
6   -0.314727
7   -0.327409
8   0.171369
9   0.171252
10   0.368913
11   0.369501

$$$$

