PCCDB-ID:  69688
public computational chemistry database (PCCDB) project, http://pccdb.org

 14 15  0  0  0  0  0  0  0  0999 V2000
    1.9889    1.0692    0.0004 C   0  0  0  0  0  0  0  0  0  0  0  0
    0.6984    1.5992    0.0005 C   0  0  0  0  0  0  0  0  0  0  0  0
    2.1729   -0.3249   -0.0000 C   0  0  0  0  0  0  0  0  0  0  0  0
   -0.3349    0.6683    0.0006 C   0  0  0  0  0  0  0  0  0  0  0  0
   -0.0407   -0.6898    0.0000 C   0  0  0  0  0  0  0  0  0  0  0  0
   -1.8088    0.8195    0.0000 C   0  0  0  0  0  0  0  0  0  0  0  0
   -1.3386   -1.4382   -0.0002 C   0  0  0  0  0  0  0  0  0  0  0  0
    1.1771   -1.2237   -0.0006 N   0  0  0  0  0  0  0  0  0  0  0  0
   -2.4878    1.8071   -0.0011 O   0  0  0  0  0  0  0  0  0  0  0  0
   -1.5749   -2.6084   -0.0008 O   0  0  0  0  0  0  0  0  0  0  0  0
   -2.3530   -0.4662    0.0006 O   0  0  0  0  0  0  0  0  0  0  0  0
    2.8570    1.7208    0.0006 H   0  0  0  0  0  0  0  0  0  0  0  0
    0.5075    2.6678    0.0001 H   0  0  0  0  0  0  0  0  0  0  0  0
    3.1801   -0.7354   -0.0001 H   0  0  0  0  0  0  0  0  0  0  0  0
  1  2  2  0  0  0  0
  1 12  1  0  0  0  0
  2  4  1  0  0  0  0
  3  1  1  0  0  0  0
  5  4  2  0  0  0  0
  6  4  1  0  0  0  0
  6 11  1  0  0  0  0
  7  5  1  0  0  0  0
  7 11  1  0  0  0  0
  8  3  2  0  0  0  0
  8  5  1  0  0  0  0
  9  6  2  0  0  0  0
 10  7  2  0  0  0  0
 13  2  1  0  0  0  0
 14  3  1  0  0  0  0
M  END
>  <HBA>
4

>  <HBD>
0

>  <TPSA>
56.26

>  <cid>
69688

>  <dipole>
5.84

>  <excitation_energy_1>
3.877

>  <excitation_energy_2>
3.96

>  <excitation_energy_3>
4.465

>  <excitation_energy_4>
4.783

>  <homo_energy>
-7.97

>  <homo_lumo_gap>
5.091

>  <logP>
0.392

>  <lumo_energy>
-2.879

>  <melting_point>
104.57

>  <molecular_refractivity>
33.98

>  <oscillator_strength_1>
0.0002

>  <oscillator_strength_2>
0.0002

>  <oscillator_strength_3>
0.0027

>  <oscillator_strength_4>
0.0

>  <open_babel_can_smiles>
O=C1OC(=O)c2c1nccc2

>  <mulliken_charges>
14
1   -0.145598
2   -0.121155
3   0.047909
4   0.063659
5   0.178331
6   0.585273
7   0.626542
8   -0.465773
9   -0.417751
10   -0.396417
11   -0.479233
12   0.167141
13   0.186715
14   0.170356

>  <lowdin_charges>
14
1   -0.15236
2   -0.093062
3   -0.060188
4   -0.056618
5   0.00905
6   0.213854
7   0.207086
8   -0.101933
9   -0.184021
10   -0.155913
11   -0.162043
12   0.179296
13   0.18541
14   0.171442

$$$$

