PCCDB-ID:  21437
public computational chemistry database (PCCDB) project, http://pccdb.org

 21 23  0  0  0  0  0  0  0  0999 V2000
    2.3234    0.9023   -0.0739 C   0  0  0  0  0  0  0  0  0  0  0  0
    2.6201   -0.4821   -0.1126 C   0  0  0  0  0  0  0  0  0  0  0  0
    1.0206    1.3358    0.0326 C   0  0  0  0  0  0  0  0  0  0  0  0
    1.6134   -1.4200   -0.0445 C   0  0  0  0  0  0  0  0  0  0  0  0
   -1.4042    0.8354    0.2164 C   0  0  0  0  0  0  0  0  0  0  0  0
   -2.4539   -0.0564    0.2872 C   0  0  0  0  0  0  0  0  0  0  0  0
   -0.0485    0.4044    0.1052 C   0  0  0  0  0  0  0  0  0  0  0  0
    0.2627   -1.0001    0.0645 C   0  0  0  0  0  0  0  0  0  0  0  0
   -2.1381   -1.4261    0.2457 C   0  0  0  0  0  0  0  0  0  0  0  0
   -0.8424   -1.8836    0.1391 C   0  0  0  0  0  0  0  0  0  0  0  0
   -3.0381   -2.6020    0.3030 C   0  0  0  0  0  0  0  0  0  0  0  0
   -0.8898   -3.3655    0.1244 C   0  0  0  0  0  0  0  0  0  0  0  0
   -4.2321   -2.6652    0.3957 O   0  0  0  0  0  0  0  0  0  0  0  0
   -0.0099   -4.1795    0.0426 O   0  0  0  0  0  0  0  0  0  0  0  0
   -2.2328   -3.7431    0.2271 O   0  0  0  0  0  0  0  0  0  0  0  0
    3.1326    1.6249   -0.1286 H   0  0  0  0  0  0  0  0  0  0  0  0
    3.6538   -0.8049   -0.1970 H   0  0  0  0  0  0  0  0  0  0  0  0
    0.7935    2.3983    0.0620 H   0  0  0  0  0  0  0  0  0  0  0  0
    1.8289   -2.4823   -0.0730 H   0  0  0  0  0  0  0  0  0  0  0  0
   -1.5992    1.9045    0.2447 H   0  0  0  0  0  0  0  0  0  0  0  0
   -3.4844    0.2723    0.3710 H   0  0  0  0  0  0  0  0  0  0  0  0
  1  3  1  0  0  0  0
  2  1  2  0  0  0  0
  2  4  1  0  0  0  0
  3 18  1  0  0  0  0
  3  7  2  0  0  0  0
  4  8  2  0  0  0  0
  5 20  1  0  0  0  0
  5  6  2  0  0  0  0
  6 21  1  0  0  0  0
  7  5  1  0  0  0  0
  8  7  1  0  0  0  0
  8 10  1  0  0  0  0
  9  6  1  0  0  0  0
  9 11  1  0  0  0  0
 10  9  2  0  0  0  0
 11 13  2  0  0  0  0
 12 10  1  0  0  0  0
 12 15  1  0  0  0  0
 14 12  2  0  0  0  0
 15 11  1  0  0  0  0
 16  1  1  0  0  0  0
 17  2  1  0  0  0  0
 19  4  1  0  0  0  0
M  END
>  <HBA>
3

>  <HBD>
0

>  <TPSA>
43.37

>  <cid>
21437

>  <dipole>
6.24

>  <excitation_energy_1>
3.378

>  <excitation_energy_2>
3.819

>  <excitation_energy_3>
3.977

>  <excitation_energy_4>
4.422

>  <homo_energy>
-6.778

>  <homo_lumo_gap>
3.962

>  <logP>
2.15

>  <lumo_energy>
-2.816

>  <melting_point>
134.41

>  <molecular_refractivity>
53.69

>  <oscillator_strength_1>
0.0445

>  <oscillator_strength_2>
0.0001

>  <oscillator_strength_3>
0.0421

>  <oscillator_strength_4>
0.0

>  <open_babel_can_smiles>
O=C1OC(=O)c2c1c1ccccc1cc2

>  <mulliken_charges>
21
1   -0.119109
2   -0.14168
3   -0.203091
4   -0.173668
5   -0.185825
6   -0.17965
7   0.153282
8   0.078106
9   0.032468
10   -0.049421
11   0.583864
12   0.606557
13   -0.424797
14   -0.435923
15   -0.484966
16   0.145541
17   0.148813
18   0.14419
19   0.182041
20   0.152131
21   0.171133

>  <lowdin_charges>
21
1   -0.144284
2   -0.139805
3   -0.149683
4   -0.145135
5   -0.125669
6   -0.138164
7   0.009401
8   0.010963
9   -0.037651
10   -0.041887
11   0.206453
12   0.217789
13   -0.186819
14   -0.197988
15   -0.164061
16   0.167343
17   0.166535
18   0.162887
19   0.182426
20   0.167091
21   0.180257

$$$$

