PCCDB-ID:  35771
public computational chemistry database (PCCDB) project, http://pccdb.org

 22 22  0  0  0  0  0  0  0  0999 V2000
    5.0018   -0.9572    5.8626 C   0  0  0  0  0  0  0  0  0  0  0  0
    1.9775   -5.3223    3.9196 C   0  0  0  0  0  0  0  0  0  0  0  0
    0.4408   -3.5197    4.4543 C   0  0  0  0  0  0  0  0  0  0  0  0
    2.9621   -4.3978    3.5847 C   0  0  0  0  0  0  0  0  0  0  0  0
    1.4221   -2.5922    4.1287 C   0  0  0  0  0  0  0  0  0  0  0  0
   -0.2961   -5.8542    4.6973 C   0  0  0  0  0  0  0  0  0  0  0  0
    0.7129   -4.8953    4.3569 C   0  0  0  0  0  0  0  0  0  0  0  0
    2.6770   -3.0345    3.7026 C   0  0  0  0  0  0  0  0  0  0  0  0
   -1.1164   -6.6308    4.9764 N   0  0  0  0  0  0  0  0  0  0  0  0
    5.6097   -0.7272    2.9174 O   0  0  0  0  0  0  0  0  0  0  0  0
    5.8402   -3.3371    2.8657 O   0  0  0  0  0  0  0  0  0  0  0  0
    5.4786   -2.0669    5.0752 O   0  0  0  0  0  0  0  0  0  0  0  0
    3.5835   -2.0403    3.3620 O   0  0  0  0  0  0  0  0  0  0  0  0
    5.2047   -2.1719    3.5065 P   0  0  1  0  0  0  0  0  0  0  0  0
    5.3544   -1.1373    6.8785 H   0  0  0  0  0  0  0  0  0  0  0  0
    3.9087   -0.9196    5.8502 H   0  0  0  0  0  0  0  0  0  0  0  0
    5.4139   -0.0182    5.4837 H   0  0  0  0  0  0  0  0  0  0  0  0
    2.1849   -6.3841    3.8361 H   0  0  0  0  0  0  0  0  0  0  0  0
   -0.5370   -3.1864    4.7860 H   0  0  0  0  0  0  0  0  0  0  0  0
    3.9343   -4.7222    3.2322 H   0  0  0  0  0  0  0  0  0  0  0  0
    1.2302   -1.5262    4.1923 H   0  0  0  0  0  0  0  0  0  0  0  0
    6.1447   -0.8390    2.1140 H   0  0  0  0  0  0  0  0  0  0  0  0
  1 15  1  0  0  0  0
  2  7  2  0  0  0  0
  3 19  1  0  0  0  0
  4  8  2  0  0  0  0
  4  2  1  0  0  0  0
  5 21  1  0  0  0  0
  5  3  2  0  0  0  0
  6  9  3  0  0  0  0
  7  3  1  0  0  0  0
  7  6  1  0  0  0  0
  8  5  1  0  0  0  0
 10 14  1  0  0  0  0
 12  1  1  0  0  0  0
 13 14  1  0  0  0  0
 13  8  1  0  0  0  0
 14 11  2  6  0  0  0
 14 12  1  0  0  0  0
 16  1  1  0  0  0  0
 17  1  1  0  0  0  0
 18  2  1  0  0  0  0
 20  4  1  0  0  0  0
 22 10  1  0  0  0  0
M  END
>  <HBA>
5

>  <HBD>
1

>  <TPSA>
89.36

>  <cid>
35771

>  <dipole>
5.93

>  <excitation_energy_1>
5.001

>  <excitation_energy_2>
5.288

>  <excitation_energy_3>
6.048

>  <excitation_energy_4>
6.233

>  <homo_energy>
-7.004

>  <homo_lumo_gap>
5.616

>  <logP>
1.684

>  <lumo_energy>
-1.388

>  <melting_point>
89.09

>  <molecular_refractivity>
48.56

>  <oscillator_strength_1>
0.0002

>  <oscillator_strength_2>
0.3702

>  <oscillator_strength_3>
0.0008

>  <oscillator_strength_4>
0.2151

>  <open_babel_can_smiles>
CO[P@@](=O)(Oc1ccc(cc1)C#N)O

>  <mulliken_charges>
22
1   -0.229979
2   -0.149402
3   -0.14439
4   -0.181258
5   -0.170732
6   0.234529
7   0.134881
8   0.353138
9   -0.476129
10   -0.646746
11   -0.540518
12   -0.494618
13   -0.587622
14   1.207626
15   0.184746
16   0.170309
17   0.182531
18   0.169266
19   0.165
20   0.210318
21   0.157812
22   0.451237

>  <lowdin_charges>
22
1   -0.264844
2   -0.11807
3   -0.123553
4   -0.177485
5   -0.170465
6   -0.01371
7   -0.030307
8   0.117455
9   -0.118297
10   -0.559023
11   -0.572725
12   -0.380599
13   -0.343634
14   1.14067
15   0.169812
16   0.156489
17   0.165181
18   0.177718
19   0.177167
20   0.199681
21   0.174157
22   0.394383

$$$$

