PCCDB-ID:  27292
public computational chemistry database (PCCDB) project, http://pccdb.org

 36 36  0  0  1  0  0  0  0  0999 V2000
    1.0684   -1.0595    0.5272 C   0  0  0  0  0  0  0  0  0  0  0  0
    1.8985    0.0588   -1.5412 C   0  0  0  0  0  0  0  0  0  0  0  0
    2.2154    3.2514   -0.7420 C   0  0  0  0  0  0  0  0  0  0  0  0
    2.5466    3.4003    1.6106 C   0  0  0  0  0  0  0  0  0  0  0  0
    4.7138   -0.8314    4.4533 C   0  0  0  0  0  0  0  0  0  0  0  0
    4.9585    0.3603    3.7685 C   0  0  0  0  0  0  0  0  0  0  0  0
    4.0866   -1.8886    3.7910 C   0  0  0  0  0  0  0  0  0  0  0  0
    4.5715    0.4933    2.4340 C   0  0  0  0  0  0  0  0  0  0  0  0
    3.6994   -1.7527    2.4571 C   0  0  0  0  0  0  0  0  0  0  0  0
    1.6972    1.3327    0.6974 C   0  0  0  0  0  0  0  0  0  0  0  0
    3.9243   -0.5540    1.7637 C   0  0  0  0  0  0  0  0  0  0  0  0
    3.5395   -0.4051    0.2973 C   0  0  2  0  0  0  0  0  0  0  0  0
    2.0602   -0.0050   -0.0061 C   0  0  0  0  0  0  0  0  0  0  0  0
    2.5646    2.4979    0.4599 N   0  0  0  0  0  0  0  0  0  0  0  0
    3.7742   -1.6289   -0.4131 O   0  0  0  0  0  0  0  0  0  0  0  0
    0.0448   -0.8013    0.2301 H   0  0  0  0  0  0  0  0  0  0  0  0
    1.0912   -1.1279    1.6202 H   0  0  0  0  0  0  0  0  0  0  0  0
    1.2995   -2.0461    0.1156 H   0  0  0  0  0  0  0  0  0  0  0  0
    0.9324    0.5027   -1.8107 H   0  0  0  0  0  0  0  0  0  0  0  0
    1.9456   -0.9470   -1.9649 H   0  0  0  0  0  0  0  0  0  0  0  0
    2.6925    0.6452   -2.0148 H   0  0  0  0  0  0  0  0  0  0  0  0
    2.9199    4.0817   -0.8641 H   0  0  0  0  0  0  0  0  0  0  0  0
    1.1929    3.6764   -0.6941 H   0  0  0  0  0  0  0  0  0  0  0  0
    2.2787    2.6253   -1.6317 H   0  0  0  0  0  0  0  0  0  0  0  0
    3.2368    4.2322    1.4302 H   0  0  0  0  0  0  0  0  0  0  0  0
    2.8766    2.8709    2.5092 H   0  0  0  0  0  0  0  0  0  0  0  0
    1.5453    3.8300    1.8104 H   0  0  0  0  0  0  0  0  0  0  0  0
    5.0196   -0.9392    5.4906 H   0  0  0  0  0  0  0  0  0  0  0  0
    5.4625    1.1833    4.2692 H   0  0  0  0  0  0  0  0  0  0  0  0
    3.9042   -2.8254    4.3115 H   0  0  0  0  0  0  0  0  0  0  0  0
    4.7741    1.4158    1.8967 H   0  0  0  0  0  0  0  0  0  0  0  0
    3.2349   -2.5851    1.9378 H   0  0  0  0  0  0  0  0  0  0  0  0
    1.7200    1.1380    1.7747 H   0  0  0  0  0  0  0  0  0  0  0  0
    0.6434    1.5697    0.4510 H   0  0  0  0  0  0  0  0  0  0  0  0
    4.1616    0.3966   -0.1257 H   0  0  0  0  0  0  0  0  0  0  0  0
    4.6890   -1.8938   -0.2297 H   0  0  0  0  0  0  0  0  0  0  0  0
  1 17  1  0  0  0  0
  2 13  1  0  0  0  0
  3 23  1  0  0  0  0
  3 14  1  0  0  0  0
  4 27  1  0  0  0  0
  4 26  1  0  0  0  0
  5 28  1  0  0  0  0
  6 29  1  0  0  0  0
  6  5  2  0  0  0  0
  7 30  1  0  0  0  0
  7  5  1  0  0  0  0
  8  6  1  0  0  0  0
  9  7  2  0  0  0  0
 10 33  1  0  0  0  0
 11  8  2  0  0  0  0
 11  9  1  0  0  0  0
 12 35  1  6  0  0  0
 12 11  1  0  0  0  0
 13 12  1  0  0  0  0
 13  1  1  0  0  0  0
 13 10  1  0  0  0  0
 14 10  1  0  0  0  0
 14  4  1  0  0  0  0
 15 36  1  0  0  0  0
 15 12  1  0  0  0  0
 16  1  1  0  0  0  0
 18  1  1  0  0  0  0
 19  2  1  0  0  0  0
 20  2  1  0  0  0  0
 21  2  1  0  0  0  0
 22  3  1  0  0  0  0
 24  3  1  0  0  0  0
 25  4  1  0  0  0  0
 31  8  1  0  0  0  0
 32  9  1  0  0  0  0
 34 10  1  0  0  0  0
M  END
>  <HBA>
2

>  <HBD>
1

>  <TPSA>
23.47

>  <cid>
27292

>  <dipole>
1.19

>  <excitation_energy_1>
4.844

>  <excitation_energy_2>
4.949

>  <excitation_energy_3>
5.285

>  <excitation_energy_4>
5.306

>  <homo_energy>
-5.704

>  <homo_lumo_gap>
5.649

>  <logP>
2.308

>  <lumo_energy>
-0.054

>  <melting_point>
43.11

>  <molecular_refractivity>
64.05

>  <oscillator_strength_1>
0.0136

>  <oscillator_strength_2>
0.0023

>  <oscillator_strength_3>
0.0018

>  <oscillator_strength_4>
0.0084

>  <open_babel_can_smiles>
O[C@@H](C(CN(C)C)(C)C)c1ccccc1

>  <mulliken_charges>
36
1   -0.466846
2   -0.454434
3   -0.301687
4   -0.302995
5   -0.128358
6   -0.134205
7   -0.13194
8   -0.189493
9   -0.18184
10   -0.131572
11   0.093565
12   0.091262
13   0.081344
14   -0.381466
15   -0.640072
16   0.136964
17   0.145797
18   0.163534
19   0.131652
20   0.165062
21   0.144407
22   0.144984
23   0.116152
24   0.158781
25   0.143598
26   0.155533
27   0.119464
28   0.127857
29   0.127945
30   0.128751
31   0.149187
32   0.142932
33   0.143966
34   0.111427
35   0.130123
36   0.390622

>  <lowdin_charges>
36
1   -0.444987
2   -0.446688
3   -0.361395
4   -0.360882
5   -0.157649
6   -0.161238
7   -0.158284
8   -0.168321
9   -0.16734
10   -0.201111
11   -0.029125
12   -0.003961
13   0.003998
14   -0.189077
15   -0.461009
16   0.146578
17   0.148112
18   0.158672
19   0.143502
20   0.160656
21   0.149415
22   0.14881
23   0.119143
24   0.156117
25   0.147524
26   0.15206
27   0.12107
28   0.155428
29   0.15752
30   0.156925
31   0.165461
32   0.165217
33   0.149452
34   0.12186
35   0.140805
36   0.342741

$$$$

