PCCDB-ID:  41854
public computational chemistry database (PCCDB) project, http://pccdb.org

 13 13  0  0  1  0  0  0  0  0999 V2000
    1.0093    0.0532   -0.0946 C   0  0  0  0  0  0  0  0  0  0  0  0
   -1.2167    0.5775    1.0717 C   0  0  0  0  0  0  0  0  0  0  0  0
   -0.3996   -0.2095    0.1041 C   0  0  2  0  0  0  0  0  0  0  0  0
   -1.7385   -1.8264    1.4162 C   0  0  0  0  0  0  0  0  0  0  0  0
    2.1335    0.2799   -0.2755 N   0  0  0  0  0  0  0  0  0  0  0  0
   -1.7167   -2.8342    2.1813 N   0  0  0  0  0  0  0  0  0  0  0  0
   -0.7735   -0.7780    1.4277 N   0  0  0  0  0  0  0  0  0  0  0  0
   -2.7262   -1.6668    0.4965 O   0  0  0  0  0  0  0  0  0  0  0  0
   -2.2609    0.7230    0.8102 H   0  0  0  0  0  0  0  0  0  0  0  0
   -0.7472    1.3639    1.6552 H   0  0  0  0  0  0  0  0  0  0  0  0
   -0.9227   -0.5976   -0.7661 H   0  0  0  0  0  0  0  0  0  0  0  0
   -0.9054   -2.7853    2.7981 H   0  0  0  0  0  0  0  0  0  0  0  0
   -3.3066   -2.4439    0.5879 H   0  0  0  0  0  0  0  0  0  0  0  0
  1  3  1  0  0  0  0
  2  7  1  0  0  0  0
  2 10  1  0  0  0  0
  3 11  1  6  0  0  0
  3  2  1  0  0  0  0
  3  7  1  0  0  0  0
  4  7  1  0  0  0  0
  4  6  2  0  0  0  0
  5  1  3  0  0  0  0
  6 12  1  0  0  0  0
  8 13  1  0  0  0  0
  8  4  1  0  0  0  0
  9  2  1  0  0  0  0
M  END
>  <HBA>
4

>  <HBD>
1

>  <TPSA>
69.89

>  <cid>
41854

>  <dipole>
3.83

>  <excitation_energy_1>
5.997

>  <excitation_energy_2>
6.564

>  <excitation_energy_3>
6.656

>  <excitation_energy_4>
6.804

>  <homo_energy>
-7.723

>  <homo_lumo_gap>
7.271

>  <logP>
-0.089

>  <lumo_energy>
-0.452

>  <melting_point>
105.93

>  <molecular_refractivity>
29.08

>  <oscillator_strength_1>
0.0117

>  <oscillator_strength_2>
0.0077

>  <oscillator_strength_3>
0.0485

>  <oscillator_strength_4>
0.0178

>  <open_babel_can_smiles>
OC(=N)N1C[C@H]1C#N

>  <mulliken_charges>
13
1   0.376985
2   -0.184266
3   -0.089067
4   0.606272
5   -0.46095
6   -0.607541
7   -0.410512
8   -0.590737
9   0.1982
10   0.194632
11   0.222489
12   0.314181
13   0.430315

>  <lowdin_charges>
13
1   -0.010882
2   -0.204085
3   -0.086223
4   0.149639
5   -0.102742
6   -0.404005
7   -0.170614
8   -0.376659
9   0.176275
10   0.181599
11   0.194308
12   0.277469
13   0.375921

$$$$

