PCCDB-ID:  13237
public computational chemistry database (PCCDB) project, http://pccdb.org

 27 28  0  0  0  0  0  0  0  0999 V2000
    0.9117    0.0764   -0.0902 C   0  0  0  0  0  0  0  0  0  0  0  0
    8.9056   -1.0441    0.2369 C   0  0  0  0  0  0  0  0  0  0  0  0
    7.4582   -3.6233    0.1001 C   0  0  0  0  0  0  0  0  0  0  0  0
    3.1312    1.3011    0.0484 C   0  0  0  0  0  0  0  0  0  0  0  0
    4.5044    1.3298    0.1118 C   0  0  0  0  0  0  0  0  0  0  0  0
    3.1404   -1.1074   -0.0195 C   0  0  0  0  0  0  0  0  0  0  0  0
    6.6763    0.1056    0.1739 C   0  0  0  0  0  0  0  0  0  0  0  0
    5.3170   -2.3170    0.0441 C   0  0  0  0  0  0  0  0  0  0  0  0
    2.4201    0.0696   -0.0196 C   0  0  0  0  0  0  0  0  0  0  0  0
    7.3970   -1.0710    0.1712 C   0  0  0  0  0  0  0  0  0  0  0  0
    6.6957   -2.3198    0.1042 C   0  0  0  0  0  0  0  0  0  0  0  0
    5.2593    0.1263    0.1113 C   0  0  0  0  0  0  0  0  0  0  0  0
    4.5597   -1.1168    0.0448 C   0  0  0  0  0  0  0  0  0  0  0  0
    0.5560    0.6230   -0.9732 H   0  0  0  0  0  0  0  0  0  0  0  0
    0.4723    0.5694    0.7865 H   0  0  0  0  0  0  0  0  0  0  0  0
    0.5085   -0.9397   -0.1412 H   0  0  0  0  0  0  0  0  0  0  0  0
    9.2771   -0.0163    0.2913 H   0  0  0  0  0  0  0  0  0  0  0  0
    9.3605   -1.5175   -0.6431 H   0  0  0  0  0  0  0  0  0  0  0  0
    9.2854   -1.5832    1.1147 H   0  0  0  0  0  0  0  0  0  0  0  0
    6.7761   -4.4771    0.0459 H   0  0  0  0  0  0  0  0  0  0  0  0
    8.0688   -3.7406    1.0051 H   0  0  0  0  0  0  0  0  0  0  0  0
    8.1459   -3.6902   -0.7531 H   0  0  0  0  0  0  0  0  0  0  0  0
    2.5707    2.2336    0.0495 H   0  0  0  0  0  0  0  0  0  0  0  0
    5.0314    2.2801    0.1626 H   0  0  0  0  0  0  0  0  0  0  0  0
    2.6174   -2.0609   -0.0691 H   0  0  0  0  0  0  0  0  0  0  0  0
    7.2055    1.0556    0.2263 H   0  0  0  0  0  0  0  0  0  0  0  0
    4.7831   -3.2644   -0.0057 H   0  0  0  0  0  0  0  0  0  0  0  0
  1  9  1  0  0  0  0
  1 15  1  0  0  0  0
  2 17  1  0  0  0  0
  2 19  1  0  0  0  0
  3 11  1  0  0  0  0
  3 21  1  0  0  0  0
  4 23  1  0  0  0  0
  4  5  2  0  0  0  0
  5 24  1  0  0  0  0
  6 13  1  0  0  0  0
  7 26  1  0  0  0  0
  8 13  2  0  0  0  0
  8 11  1  0  0  0  0
  9  6  2  0  0  0  0
  9  4  1  0  0  0  0
 10  7  1  0  0  0  0
 10  2  1  0  0  0  0
 11 10  2  0  0  0  0
 12  5  1  0  0  0  0
 12  7  2  0  0  0  0
 13 12  1  0  0  0  0
 14  1  1  0  0  0  0
 16  1  1  0  0  0  0
 18  2  1  0  0  0  0
 20  3  1  0  0  0  0
 22  3  1  0  0  0  0
 25  6  1  0  0  0  0
 27  8  1  0  0  0  0
M  END
>  <HBA>
0

>  <HBD>
0

>  <TPSA>
0.0

>  <cid>
13237

>  <dipole>
0.37

>  <excitation_energy_1>
4.289

>  <excitation_energy_2>
4.395

>  <excitation_energy_3>
5.331

>  <excitation_energy_4>
5.386

>  <homo_energy>
-5.529

>  <homo_lumo_gap>
4.825

>  <logP>
3.765

>  <lumo_energy>
-0.705

>  <melting_point>
62.17

>  <molecular_refractivity>
58.85

>  <oscillator_strength_1>
0.0181

>  <oscillator_strength_2>
0.0246

>  <oscillator_strength_3>
0.0004

>  <oscillator_strength_4>
0.0057

>  <open_babel_can_smiles>
Cc1ccc2c(c1)cc(c(c2)C)C

>  <mulliken_charges>
27
1   -0.532006
2   -0.534753
3   -0.534624
4   -0.182802
5   -0.193479
6   -0.265589
7   -0.2713
8   -0.271957
9   0.180909
10   0.139596
11   0.139306
12   0.146945
13   0.159345
14   0.160099
15   0.160147
16   0.154802
17   0.155633
18   0.158389
19   0.158103
20   0.155712
21   0.158452
22   0.158434
23   0.119431
24   0.12556
25   0.118083
26   0.118844
27   0.118721

>  <lowdin_charges>
27
1   -0.441983
2   -0.441319
3   -0.441327
4   -0.168966
5   -0.156328
6   -0.173373
7   -0.170314
8   -0.171932
9   -0.00163
10   -0.008779
11   -0.007776
12   -0.005529
13   -0.000416
14   0.159734
15   0.159865
16   0.155765
17   0.156487
18   0.158327
19   0.158164
20   0.157792
21   0.158027
22   0.158237
23   0.154436
24   0.155696
25   0.152331
26   0.152395
27   0.152419

$$$$

