PCCDB-ID:  70040
public computational chemistry database (PCCDB) project, http://pccdb.org

 32 33  0  0  0  0  0  0  0  0999 V2000
   -1.4433   -1.3130    0.8596 C   0  0  0  0  0  0  0  0  0  0  0  0
   -0.6597   -0.6597    1.8118 C   0  0  0  0  0  0  0  0  0  0  0  0
   -0.9405   -1.5081   -0.4284 C   0  0  0  0  0  0  0  0  0  0  0  0
    7.0813    0.3902    0.4014 C   0  0  0  0  0  0  0  0  0  0  0  0
    7.5905    0.3547   -0.8953 C   0  0  0  0  0  0  0  0  0  0  0  0
    0.6170   -0.2060    1.4757 C   0  0  0  0  0  0  0  0  0  0  0  0
    0.3361   -1.0527   -0.7587 C   0  0  0  0  0  0  0  0  0  0  0  0
    5.7943   -0.0880    0.6517 C   0  0  0  0  0  0  0  0  0  0  0  0
    6.8025   -0.1638   -1.9234 C   0  0  0  0  0  0  0  0  0  0  0  0
    2.5324    0.0659   -0.1646 C   0  0  0  0  0  0  0  0  0  0  0  0
    3.5830   -1.0710   -0.0451 C   0  0  0  0  0  0  0  0  0  0  0  0
    4.7177   -1.2221   -2.8406 C   0  0  0  0  0  0  0  0  0  0  0  0
    1.1346   -0.3953    0.1876 C   0  0  0  0  0  0  0  0  0  0  0  0
    4.9891   -0.6060   -0.3702 C   0  0  0  0  0  0  0  0  0  0  0  0
    5.5083   -0.6423   -1.6841 C   0  0  0  0  0  0  0  0  0  0  0  0
    4.4731   -2.6260   -2.7179 O   0  0  0  0  0  0  0  0  0  0  0  0
   -2.4390   -1.6642    1.1173 H   0  0  0  0  0  0  0  0  0  0  0  0
   -1.0428   -0.4982    2.8162 H   0  0  0  0  0  0  0  0  0  0  0  0
   -1.5440   -2.0127   -1.1786 H   0  0  0  0  0  0  0  0  0  0  0  0
    7.6813    0.7859    1.2167 H   0  0  0  0  0  0  0  0  0  0  0  0
    8.5915    0.7212   -1.1058 H   0  0  0  0  0  0  0  0  0  0  0  0
    1.2205    0.3063    2.2224 H   0  0  0  0  0  0  0  0  0  0  0  0
    0.7188   -1.2077   -1.7655 H   0  0  0  0  0  0  0  0  0  0  0  0
    5.4021   -0.0639    1.6666 H   0  0  0  0  0  0  0  0  0  0  0  0
    7.1966   -0.1969   -2.9374 H   0  0  0  0  0  0  0  0  0  0  0  0
    2.5483    0.4611   -1.1884 H   0  0  0  0  0  0  0  0  0  0  0  0
    2.8308    0.8935    0.4906 H   0  0  0  0  0  0  0  0  0  0  0  0
    3.2979   -1.9009   -0.6974 H   0  0  0  0  0  0  0  0  0  0  0  0
    3.5568   -1.4546    0.9823 H   0  0  0  0  0  0  0  0  0  0  0  0
    5.2418   -1.0012   -3.7832 H   0  0  0  0  0  0  0  0  0  0  0  0
    3.7233   -0.7703   -2.9126 H   0  0  0  0  0  0  0  0  0  0  0  0
    5.3256   -3.0466   -2.5230 H   0  0  0  0  0  0  0  0  0  0  0  0
  1 17  1  0  0  0  0
  1  2  2  0  0  0  0
  2 18  1  0  0  0  0
  3  1  1  0  0  0  0
  4  8  1  0  0  0  0
  4 20  1  0  0  0  0
  5  4  2  0  0  0  0
  6  2  1  0  0  0  0
  6 22  1  0  0  0  0
  7  3  2  0  0  0  0
  7 13  1  0  0  0  0
  8 24  1  0  0  0  0
  9 15  2  0  0  0  0
  9  5  1  0  0  0  0
 10 11  1  0  0  0  0
 10 13  1  0  0  0  0
 10 27  1  0  0  0  0
 11 29  1  0  0  0  0
 12 16  1  0  0  0  0
 12 15  1  0  0  0  0
 13  6  2  0  0  0  0
 14 11  1  0  0  0  0
 14  8  2  0  0  0  0
 15 14  1  0  0  0  0
 16 32  1  0  0  0  0
 19  3  1  0  0  0  0
 21  5  1  0  0  0  0
 23  7  1  0  0  0  0
 25  9  1  0  0  0  0
 26 10  1  0  0  0  0
 28 11  1  0  0  0  0
 30 12  1  0  0  0  0
 31 12  1  0  0  0  0
M  END
>  <HBA>
1

>  <HBD>
1

>  <TPSA>
20.23

>  <cid>
70040

>  <dipole>
1.58

>  <excitation_energy_1>
5.143

>  <excitation_energy_2>
5.268

>  <excitation_energy_3>
5.368

>  <excitation_energy_4>
5.633

>  <homo_energy>
-6.305

>  <homo_lumo_gap>
6.011

>  <logP>
2.964

>  <lumo_energy>
-0.294

>  <melting_point>
60.34

>  <molecular_refractivity>
66.83

>  <oscillator_strength_1>
0.008

>  <oscillator_strength_2>
0.0007

>  <oscillator_strength_3>
0.121

>  <oscillator_strength_4>
0.0431

>  <open_babel_can_smiles>
OCc1ccccc1CCc1ccccc1

>  <mulliken_charges>
32
1   -0.131477
2   -0.12764
3   -0.127988
4   -0.125264
5   -0.127293
6   -0.183071
7   -0.180016
8   -0.184639
9   -0.188704
10   -0.352214
11   -0.362247
12   -0.111747
13   0.178221
14   0.135862
15   0.0675
16   -0.605217
17   0.126554
18   0.126564
19   0.12824
20   0.130015
21   0.129106
22   0.119661
23   0.127535
24   0.124219
25   0.124742
26   0.146487
27   0.144338
28   0.181271
29   0.144182
30   0.13057
31   0.15373
32   0.388722

>  <lowdin_charges>
32
1   -0.16072
2   -0.155302
3   -0.156133
4   -0.154654
5   -0.160632
6   -0.170477
7   -0.164851
8   -0.164724
9   -0.165868
10   -0.270177
11   -0.280665
12   -0.133022
13   -0.000391
14   0.002331
15   -0.043501
16   -0.466729
17   0.15564
18   0.155402
19   0.158299
20   0.159177
21   0.157013
22   0.15407
23   0.155038
24   0.153972
25   0.153199
26   0.147959
27   0.149816
28   0.168086
29   0.150617
30   0.134649
31   0.150452
32   0.342126

$$$$

