PCCDB-ID:  47374
public computational chemistry database (PCCDB) project, http://pccdb.org

 34 33  0  0  0  0  0  0  0  0999 V2000
    1.0157    0.0714   -1.1931 C   0  0  0  0  0  0  0  0  0  0  0  0
    4.7280   -0.3575    3.3355 C   0  0  0  0  0  0  0  0  0  0  0  0
    5.3420    1.4680   -2.8522 C   0  0  0  0  0  0  0  0  0  0  0  0
    7.0722    0.5070   -1.3124 C   0  0  0  0  0  0  0  0  0  0  0  0
    2.5256   -0.1093   -0.9950 C   0  0  0  0  0  0  0  0  0  0  0  0
    4.2358    0.5032    2.1655 C   0  0  0  0  0  0  0  0  0  0  0  0
    3.2288    1.2085   -0.6327 C   0  0  0  0  0  0  0  0  0  0  0  0
    5.0639    0.2674    0.8914 C   0  0  0  0  0  0  0  0  0  0  0  0
    5.5604    0.6324   -1.5763 C   0  0  0  0  0  0  0  0  0  0  0  0
    4.7582    1.1668   -0.3376 C   0  0  0  0  0  0  0  0  0  0  0  0
    5.2568    2.5263   -0.0230 N   0  0  0  0  0  0  0  0  0  0  0  0
    0.5303   -0.8755   -1.4562 H   0  0  0  0  0  0  0  0  0  0  0  0
    0.8044    0.7882   -1.9963 H   0  0  0  0  0  0  0  0  0  0  0  0
    0.5375    0.4489   -0.2807 H   0  0  0  0  0  0  0  0  0  0  0  0
    4.1291   -0.1866    4.2374 H   0  0  0  0  0  0  0  0  0  0  0  0
    5.7735   -0.1336    3.5798 H   0  0  0  0  0  0  0  0  0  0  0  0
    4.6675   -1.4257    3.0928 H   0  0  0  0  0  0  0  0  0  0  0  0
    5.8901    1.0202   -3.6890 H   0  0  0  0  0  0  0  0  0  0  0  0
    5.7233    2.4900   -2.7343 H   0  0  0  0  0  0  0  0  0  0  0  0
    4.2900    1.5286   -3.1494 H   0  0  0  0  0  0  0  0  0  0  0  0
    7.5927    0.2188   -2.2335 H   0  0  0  0  0  0  0  0  0  0  0  0
    7.3031   -0.2536   -0.5605 H   0  0  0  0  0  0  0  0  0  0  0  0
    7.4821    1.4611   -0.9672 H   0  0  0  0  0  0  0  0  0  0  0  0
    2.9587   -0.5277   -1.9125 H   0  0  0  0  0  0  0  0  0  0  0  0
    2.6990   -0.8562   -0.2090 H   0  0  0  0  0  0  0  0  0  0  0  0
    4.2812    1.5604    2.4633 H   0  0  0  0  0  0  0  0  0  0  0  0
    3.1766    0.2829    1.9827 H   0  0  0  0  0  0  0  0  0  0  0  0
    2.7318    1.6381    0.2483 H   0  0  0  0  0  0  0  0  0  0  0  0
    3.0505    1.9317   -1.4403 H   0  0  0  0  0  0  0  0  0  0  0  0
    4.9527   -0.7850    0.5957 H   0  0  0  0  0  0  0  0  0  0  0  0
    6.1197    0.4077    1.1463 H   0  0  0  0  0  0  0  0  0  0  0  0
    5.1753   -0.3766   -1.7801 H   0  0  0  0  0  0  0  0  0  0  0  0
    4.8116    2.8586    0.8317 H   0  0  0  0  0  0  0  0  0  0  0  0
    4.9541    3.1734   -0.7506 H   0  0  0  0  0  0  0  0  0  0  0  0
  1  5  1  0  0  0  0
  1 14  1  0  0  0  0
  2 16  1  0  0  0  0
  2 15  1  0  0  0  0
  3 19  1  0  0  0  0
  3  9  1  0  0  0  0
  4 23  1  0  0  0  0
  4 22  1  0  0  0  0
  5  7  1  0  0  0  0
  5 25  1  0  0  0  0
  6 26  1  0  0  0  0
  6  2  1  0  0  0  0
  7 10  1  0  0  0  0
  7 28  1  0  0  0  0
  8 31  1  0  0  0  0
  8  6  1  0  0  0  0
  9  4  1  0  0  0  0
  9 10  1  0  0  0  0
 10 11  1  0  0  0  0
 10  8  1  0  0  0  0
 11 33  1  0  0  0  0
 12  1  1  0  0  0  0
 13  1  1  0  0  0  0
 17  2  1  0  0  0  0
 18  3  1  0  0  0  0
 20  3  1  0  0  0  0
 21  4  1  0  0  0  0
 24  5  1  0  0  0  0
 27  6  1  0  0  0  0
 29  7  1  0  0  0  0
 30  8  1  0  0  0  0
 32  9  1  0  0  0  0
 34 11  1  0  0  0  0
M  END
>  <HBA>
1

>  <HBD>
1

>  <TPSA>
26.02

>  <cid>
47374

>  <dipole>
1.27

>  <excitation_energy_1>
5.595

>  <excitation_energy_2>
6.089

>  <excitation_energy_3>
6.207

>  <excitation_energy_4>
6.296

>  <homo_energy>
-6.147

>  <homo_lumo_gap>
8.033

>  <logP>
3.64

>  <lumo_energy>
1.886

>  <melting_point>
36.05

>  <molecular_refractivity>
52.93

>  <oscillator_strength_1>
0.0211

>  <oscillator_strength_2>
0.0008

>  <oscillator_strength_3>
0.0004

>  <oscillator_strength_4>
0.0004

>  <open_babel_can_smiles>
CCCC(C(C)C)(CCC)N

>  <mulliken_charges>
34
1   -0.442887
2   -0.442655
3   -0.470098
4   -0.452857
5   -0.26097
6   -0.267374
7   -0.274922
8   -0.265798
9   -0.062061
10   0.192338
11   -0.732528
12   0.141898
13   0.141141
14   0.140987
15   0.141025
16   0.145396
17   0.14192
18   0.142844
19   0.143265
20   0.141996
21   0.128962
22   0.138476
23   0.167438
24   0.138444
25   0.136251
26   0.126182
27   0.138011
28   0.122253
29   0.120519
30   0.127343
31   0.150445
32   0.119743
33   0.293123
34   0.292151

>  <lowdin_charges>
34
1   -0.444745
2   -0.440276
3   -0.450648
4   -0.450945
5   -0.280356
6   -0.27425
7   -0.297029
8   -0.281
9   -0.124786
10   0.057939
11   -0.551173
12   0.149343
13   0.146603
14   0.146087
15   0.149029
16   0.146887
17   0.144983
18   0.151744
19   0.145977
20   0.14491
21   0.144014
22   0.147229
23   0.159686
24   0.142409
25   0.141802
26   0.133876
27   0.139282
28   0.138403
29   0.137173
30   0.139789
31   0.151876
32   0.135738
33   0.250217
34   0.25021

$$$$

