PCCDB-ID:  70129
public computational chemistry database (PCCDB) project, http://pccdb.org

 17 17  0  0  0  0  0  0  0  0999 V2000
    2.2928   -1.4317    0.3538 C   0  0  0  0  0  0  0  0  0  0  0  0
    3.4383    3.0546    1.6508 C   0  0  0  0  0  0  0  0  0  0  0  0
    4.6634    1.2148    2.6474 C   0  0  0  0  0  0  0  0  0  0  0  0
    2.6798    2.1541    0.9228 C   0  0  0  0  0  0  0  0  0  0  0  0
    3.9038    0.3051    1.9160 C   0  0  0  0  0  0  0  0  0  0  0  0
    5.2298    3.5227    3.2787 C   0  0  0  0  0  0  0  0  0  0  0  0
    4.4432    2.5942    2.5249 C   0  0  0  0  0  0  0  0  0  0  0  0
    2.9063    0.7724    1.0480 C   0  0  0  0  0  0  0  0  0  0  0  0
    5.8698    4.2778    3.8914 N   0  0  0  0  0  0  0  0  0  0  0  0
    2.1093   -0.0228    0.2899 O   0  0  0  0  0  0  0  0  0  0  0  0
    1.5670   -1.8568   -0.3408 H   0  0  0  0  0  0  0  0  0  0  0  0
    2.0987   -1.8156    1.3633 H   0  0  0  0  0  0  0  0  0  0  0  0
    3.3055   -1.7182    0.0433 H   0  0  0  0  0  0  0  0  0  0  0  0
    3.2623    4.1208    1.5512 H   0  0  0  0  0  0  0  0  0  0  0  0
    5.4356    0.8540    3.3193 H   0  0  0  0  0  0  0  0  0  0  0  0
    1.9026    2.4919    0.2451 H   0  0  0  0  0  0  0  0  0  0  0  0
    4.0935   -0.7556    2.0298 H   0  0  0  0  0  0  0  0  0  0  0  0
  1 12  1  0  0  0  0
  2  7  2  0  0  0  0
  3 15  1  0  0  0  0
  4  8  2  0  0  0  0
  4  2  1  0  0  0  0
  5 17  1  0  0  0  0
  5  3  2  0  0  0  0
  6  9  3  0  0  0  0
  7  3  1  0  0  0  0
  7  6  1  0  0  0  0
  8  5  1  0  0  0  0
 10  1  1  0  0  0  0
 10  8  1  0  0  0  0
 11  1  1  0  0  0  0
 13  1  1  0  0  0  0
 14  2  1  0  0  0  0
 16  4  1  0  0  0  0
M  END
>  <HBA>
2

>  <HBD>
0

>  <TPSA>
33.02

>  <cid>
70129

>  <dipole>
5.79

>  <excitation_energy_1>
4.895

>  <excitation_energy_2>
5.143

>  <excitation_energy_3>
5.781

>  <excitation_energy_4>
6.174

>  <homo_energy>
-6.468

>  <homo_lumo_gap>
5.429

>  <logP>
1.567

>  <lumo_energy>
-1.039

>  <melting_point>
47.16

>  <molecular_refractivity>
37.65

>  <oscillator_strength_1>
0.0174

>  <oscillator_strength_2>
0.3752

>  <oscillator_strength_3>
0.0073

>  <oscillator_strength_4>
0.2733

>  <open_babel_can_smiles>
COc1ccc(cc1)C#N

>  <mulliken_charges>
17
1   -0.222495
2   -0.138196
3   -0.143429
4   -0.176269
5   -0.199956
6   0.229268
7   0.124151
8   0.391248
9   -0.483252
10   -0.499065
11   0.179149
12   0.159769
13   0.159769
14   0.160175
15   0.159773
16   0.153733
17   0.14563

>  <lowdin_charges>
17
1   -0.275763
2   -0.121644
3   -0.121112
4   -0.175747
5   -0.208395
6   -0.014648
7   -0.04293
8   0.115352
9   -0.128529
10   -0.186743
11   0.169467
12   0.149223
13   0.149243
14   0.173654
15   0.175218
16   0.175473
17   0.167881

$$$$

