PCCDB-ID:  20358
public computational chemistry database (PCCDB) project, http://pccdb.org

 21 21  0  0  0  0  0  0  0  0999 V2000
    0.7984    0.7734   -2.0833 C   0  0  0  0  0  0  0  0  0  0  0  0
    1.7701    0.1733   -1.0548 C   0  0  0  0  0  0  0  0  0  0  0  0
   -0.4757    1.2996   -1.4041 C   0  0  0  0  0  0  0  0  0  0  0  0
    1.0942   -0.9239   -0.2177 C   0  0  0  0  0  0  0  0  0  0  0  0
   -1.1580    0.2062   -0.5663 C   0  0  0  0  0  0  0  0  0  0  0  0
    0.4282    0.1701    2.6681 C   0  0  0  0  0  0  0  0  0  0  0  0
   -0.2040   -0.4406    0.4392 C   0  0  0  0  0  0  0  0  0  0  0  0
    0.5089   -0.9746    3.0451 O   0  0  0  0  0  0  0  0  0  0  0  0
    0.1006    0.5889    1.4374 O   0  0  0  0  0  0  0  0  0  0  0  0
    0.5261    0.0011   -2.8184 H   0  0  0  0  0  0  0  0  0  0  0  0
    1.2891    1.5787   -2.6441 H   0  0  0  0  0  0  0  0  0  0  0  0
    2.1293    0.9683   -0.3878 H   0  0  0  0  0  0  0  0  0  0  0  0
    2.6544   -0.2380   -1.5570 H   0  0  0  0  0  0  0  0  0  0  0  0
   -1.1790    1.6835   -2.1534 H   0  0  0  0  0  0  0  0  0  0  0  0
   -0.2185    2.1434   -0.7509 H   0  0  0  0  0  0  0  0  0  0  0  0
    1.7679   -1.3108    0.5543 H   0  0  0  0  0  0  0  0  0  0  0  0
    0.8349   -1.7745   -0.8642 H   0  0  0  0  0  0  0  0  0  0  0  0
   -1.5274   -0.5906   -1.2273 H   0  0  0  0  0  0  0  0  0  0  0  0
   -2.0287    0.6074   -0.0344 H   0  0  0  0  0  0  0  0  0  0  0  0
    0.6128    1.0501    3.3047 H   0  0  0  0  0  0  0  0  0  0  0  0
   -0.6882   -1.2663    0.9672 H   0  0  0  0  0  0  0  0  0  0  0  0
  1  3  1  0  0  0  0
  1  2  1  0  0  0  0
  2 12  1  0  0  0  0
  2  4  1  0  0  0  0
  3 15  1  0  0  0  0
  3  5  1  0  0  0  0
  4  7  1  0  0  0  0
  4 16  1  0  0  0  0
  5 19  1  0  0  0  0
  5  7  1  0  0  0  0
  6  8  2  0  0  0  0
  6 20  1  0  0  0  0
  7 21  1  0  0  0  0
  7  9  1  0  0  0  0
  9  6  1  0  0  0  0
 10  1  1  0  0  0  0
 11  1  1  0  0  0  0
 13  2  1  0  0  0  0
 14  3  1  0  0  0  0
 17  4  1  0  0  0  0
 18  5  1  0  0  0  0
M  END
>  <HBA>
2

>  <HBD>
0

>  <TPSA>
26.3

>  <cid>
20358

>  <dipole>
2.17

>  <excitation_energy_1>
5.783

>  <excitation_energy_2>
7.18

>  <excitation_energy_3>
7.346

>  <excitation_energy_4>
7.375

>  <homo_energy>
-7.546

>  <homo_lumo_gap>
7.821

>  <logP>
2.128

>  <lumo_energy>
0.275

>  <melting_point>
-19.88

>  <molecular_refractivity>
35.32

>  <oscillator_strength_1>
0.0015

>  <oscillator_strength_2>
0.0155

>  <oscillator_strength_3>
0.061

>  <oscillator_strength_4>
0.0003

>  <open_babel_can_smiles>
O=COC1CCCCC1

>  <mulliken_charges>
21
1   -0.260045
2   -0.26091
3   -0.262641
4   -0.281267
5   -0.275876
6   0.391365
7   0.10852
8   -0.423732
9   -0.429529
10   0.126824
11   0.134283
12   0.14166
13   0.135036
14   0.133841
15   0.1477
16   0.159962
17   0.137138
18   0.137882
19   0.145988
20   0.133217
21   0.160585

>  <lowdin_charges>
21
1   -0.280289
2   -0.281787
3   -0.28222
4   -0.289683
5   -0.284951
6   0.086314
7   0.000436
8   -0.257014
9   -0.190724
10   0.137473
11   0.146772
12   0.145421
13   0.147124
14   0.146957
15   0.147845
16   0.159972
17   0.149065
18   0.14894
19   0.153366
20   0.138826
21   0.158158

$$$$

