PCCDB-ID:  18400
public computational chemistry database (PCCDB) project, http://pccdb.org

 25 24  0  0  0  0  0  0  0  0999 V2000
    0.9554   -0.1885   -0.1566 C   0  0  0  0  0  0  0  0  0  0  0  0
    3.0087   -0.9727    1.0486 C   0  0  0  0  0  0  0  0  0  0  0  0
    2.9951   -0.8954   -1.4582 C   0  0  0  0  0  0  0  0  0  0  0  0
    3.0598    1.2505   -0.0867 C   0  0  0  0  0  0  0  0  0  0  0  0
    2.6761    2.1888   -1.2292 C   0  0  0  0  0  0  0  0  0  0  0  0
    4.4420    3.7711   -1.3738 C   0  0  0  0  0  0  0  0  0  0  0  0
    2.4974   -0.1926   -0.1788 C   0  0  0  0  0  0  0  0  0  0  0  0
    5.1979    2.9127   -1.9365 N   0  0  0  0  0  0  0  0  0  0  0  0
    4.7029    5.0676   -1.0521 O   0  0  0  0  0  0  0  0  0  0  0  0
    3.1870    3.5210   -0.9907 O   0  0  0  0  0  0  0  0  0  0  0  0
    0.5672   -1.2139   -0.1258 H   0  0  0  0  0  0  0  0  0  0  0  0
    0.5315    0.2928   -1.0456 H   0  0  0  0  0  0  0  0  0  0  0  0
    0.5730    0.3390    0.7262 H   0  0  0  0  0  0  0  0  0  0  0  0
    2.6473   -2.0083    1.0322 H   0  0  0  0  0  0  0  0  0  0  0  0
    2.6651   -0.5128    1.9835 H   0  0  0  0  0  0  0  0  0  0  0  0
    4.1049   -1.0007    1.0721 H   0  0  0  0  0  0  0  0  0  0  0  0
    2.6808   -1.9463   -1.4676 H   0  0  0  0  0  0  0  0  0  0  0  0
    4.0894   -0.8701   -1.5235 H   0  0  0  0  0  0  0  0  0  0  0  0
    2.5971   -0.4273   -2.3659 H   0  0  0  0  0  0  0  0  0  0  0  0
    2.7220    1.7057    0.8542 H   0  0  0  0  0  0  0  0  0  0  0  0
    4.1543    1.2013   -0.0479 H   0  0  0  0  0  0  0  0  0  0  0  0
    1.5953    2.3346   -1.2919 H   0  0  0  0  0  0  0  0  0  0  0  0
    3.0555    1.8379   -2.1909 H   0  0  0  0  0  0  0  0  0  0  0  0
    6.1135    3.2940   -2.1710 H   0  0  0  0  0  0  0  0  0  0  0  0
    5.6115    5.2699   -1.3224 H   0  0  0  0  0  0  0  0  0  0  0  0
  1 11  1  0  0  0  0
  1 13  1  0  0  0  0
  2 16  1  0  0  0  0
  2 15  1  0  0  0  0
  3  7  1  0  0  0  0
  4 21  1  0  0  0  0
  4 20  1  0  0  0  0
  5 10  1  0  0  0  0
  5  4  1  0  0  0  0
  6  9  1  0  0  0  0
  6 10  1  0  0  0  0
  7  1  1  0  0  0  0
  7  4  1  0  0  0  0
  7  2  1  0  0  0  0
  8  6  2  0  0  0  0
 12  1  1  0  0  0  0
 14  2  1  0  0  0  0
 17  3  1  0  0  0  0
 18  3  1  0  0  0  0
 19  3  1  0  0  0  0
 22  5  1  0  0  0  0
 23  5  1  0  0  0  0
 24  8  1  0  0  0  0
 25  9  1  0  0  0  0
M  END
>  <HBA>
3

>  <HBD>
1

>  <TPSA>
52.32

>  <cid>
18400

>  <dipole>
1.27

>  <excitation_energy_1>
5.836

>  <excitation_energy_2>
6.423

>  <excitation_energy_3>
6.911

>  <excitation_energy_4>
7.093

>  <homo_energy>
-6.939

>  <homo_lumo_gap>
8.221

>  <logP>
2.218

>  <lumo_energy>
1.282

>  <melting_point>
68.48

>  <molecular_refractivity>
39.88

>  <oscillator_strength_1>
0.0044

>  <oscillator_strength_2>
0.0526

>  <oscillator_strength_3>
0.0058

>  <oscillator_strength_4>
0.0021

>  <open_babel_can_smiles>
OC(=N)OCCC(C)(C)C

>  <mulliken_charges>
25
1   -0.448145
2   -0.440341
3   -0.446119
4   -0.274013
5   -0.043513
6   0.644134
7   0.091655
8   -0.630949
9   -0.568436
10   -0.450186
11   0.140283
12   0.139479
13   0.140007
14   0.137249
15   0.138374
16   0.140758
17   0.1369
18   0.15013
19   0.140283
20   0.135756
21   0.157427
22   0.151491
23   0.176597
24   0.27456
25   0.406619

>  <lowdin_charges>
25
1   -0.446407
2   -0.437468
3   -0.441721
4   -0.287446
5   -0.124948
6   0.192014
7   0.016574
8   -0.478337
9   -0.364472
10   -0.177904
11   0.14798
12   0.146217
13   0.148201
14   0.145294
15   0.146856
16   0.145988
17   0.145789
18   0.151007
19   0.146902
20   0.145586
21   0.154659
22   0.149313
23   0.161577
24   0.255804
25   0.358941

$$$$

