PCCDB-ID:  11952
public computational chemistry database (PCCDB) project, http://pccdb.org

 19 19  0  0  0  0  0  0  0  0999 V2000
   -1.9184   -0.3758    0.2500 C   0  0  0  0  0  0  0  0  0  0  0  0
   -1.4313    0.9178    0.4462 C   0  0  0  0  0  0  0  0  0  0  0  0
   -1.0514   -1.3959   -0.1538 C   0  0  0  0  0  0  0  0  0  0  0  0
   -0.0798    1.1938    0.2396 C   0  0  0  0  0  0  0  0  0  0  0  0
    0.2968   -1.1212   -0.3598 C   0  0  0  0  0  0  0  0  0  0  0  0
    2.8339    1.8255   -0.2005 C   0  0  0  0  0  0  0  0  0  0  0  0
    0.7979    0.1760   -0.1659 C   0  0  0  0  0  0  0  0  0  0  0  0
    2.2570    0.4146   -0.4030 C   0  0  0  0  0  0  0  0  0  0  0  0
    4.2605    1.9509   -0.4561 N   0  0  0  0  0  0  0  0  0  0  0  0
    2.9958   -0.4941   -0.7550 O   0  0  0  0  0  0  0  0  0  0  0  0
   -2.9717   -0.5893    0.4115 H   0  0  0  0  0  0  0  0  0  0  0  0
   -2.1032    1.7117    0.7603 H   0  0  0  0  0  0  0  0  0  0  0  0
   -1.4298   -2.4030   -0.3064 H   0  0  0  0  0  0  0  0  0  0  0  0
    0.2835    2.2047    0.3964 H   0  0  0  0  0  0  0  0  0  0  0  0
    0.9887   -1.8963   -0.6732 H   0  0  0  0  0  0  0  0  0  0  0  0
    2.6239    2.1495    0.8281 H   0  0  0  0  0  0  0  0  0  0  0  0
    2.2904    2.5262   -0.8491 H   0  0  0  0  0  0  0  0  0  0  0  0
    4.4456    1.6247   -1.4046 H   0  0  0  0  0  0  0  0  0  0  0  0
    4.7517    1.2798    0.1345 H   0  0  0  0  0  0  0  0  0  0  0  0
  1 11  1  0  0  0  0
  1  2  1  0  0  0  0
  2 12  1  0  0  0  0
  3  1  2  0  0  0  0
  4 14  1  0  0  0  0
  4  2  2  0  0  0  0
  5  7  2  0  0  0  0
  5  3  1  0  0  0  0
  6 16  1  0  0  0  0
  7  4  1  0  0  0  0
  8  6  1  0  0  0  0
  8  7  1  0  0  0  0
  9  6  1  0  0  0  0
  9 19  1  0  0  0  0
 10  8  2  0  0  0  0
 13  3  1  0  0  0  0
 15  5  1  0  0  0  0
 17  6  1  0  0  0  0
 18  9  1  0  0  0  0
M  END
>  <HBA>
2

>  <HBD>
1

>  <TPSA>
43.09

>  <cid>
11952

>  <dipole>
2.76

>  <excitation_energy_1>
3.627

>  <excitation_energy_2>
4.385

>  <excitation_energy_3>
4.712

>  <excitation_energy_4>
5.144

>  <homo_energy>
-6.4

>  <homo_lumo_gap>
4.822

>  <logP>
1.528

>  <lumo_energy>
-1.578

>  <melting_point>
92.46

>  <molecular_refractivity>
39.34

>  <oscillator_strength_1>
0.0001

>  <oscillator_strength_2>
0.0

>  <oscillator_strength_3>
0.0226

>  <oscillator_strength_4>
0.2585

>  <open_babel_can_smiles>
NCC(=O)c1ccccc1

>  <mulliken_charges>
19
1   -0.118687
2   -0.133463
3   -0.132125
4   -0.184454
5   -0.156226
6   -0.248428
7   0.082134
8   0.373073
9   -0.685582
10   -0.464517
11   0.139226
12   0.138011
13   0.139568
14   0.141501
15   0.164287
16   0.168428
17   0.168509
18   0.304391
19   0.304354

>  <lowdin_charges>
19
1   -0.136304
2   -0.157853
3   -0.153505
4   -0.148791
5   -0.128378
6   -0.248238
7   -0.052777
8   0.141506
9   -0.535633
10   -0.250815
11   0.160697
12   0.162798
13   0.161588
14   0.162662
15   0.177915
16   0.161151
17   0.16359
18   0.259212
19   0.261176

$$$$

