PCCDB-ID:  70261
public computational chemistry database (PCCDB) project, http://pccdb.org

 13 13  0  0  0  0  0  0  0  0999 V2000
    1.0580    0.0817    0.2566 C   0  0  0  0  0  0  0  0  0  0  0  0
    4.6526    0.7338   -0.5028 C   0  0  0  0  0  0  0  0  0  0  0  0
    4.6625   -0.6000   -0.4226 C   0  0  0  0  0  0  0  0  0  0  0  0
    3.2529    1.2215   -0.2488 C   0  0  0  0  0  0  0  0  0  0  0  0
    3.2698   -1.0741   -0.1108 C   0  0  0  0  0  0  0  0  0  0  0  0
    2.4826    0.0770   -0.0215 N   0  0  0  0  0  0  0  0  0  0  0  0
    2.8478    2.3656   -0.2312 O   0  0  0  0  0  0  0  0  0  0  0  0
    2.8797   -2.2131    0.0439 O   0  0  0  0  0  0  0  0  0  0  0  0
    0.7945    1.0565    0.6707 H   0  0  0  0  0  0  0  0  0  0  0  0
    0.8322   -0.7096    0.9745 H   0  0  0  0  0  0  0  0  0  0  0  0
    0.4753   -0.0897   -0.6550 H   0  0  0  0  0  0  0  0  0  0  0  0
    5.4661    1.4183   -0.7058 H   0  0  0  0  0  0  0  0  0  0  0  0
    5.4865   -1.2916   -0.5427 H   0  0  0  0  0  0  0  0  0  0  0  0
  1  9  1  0  0  0  0
  1 10  1  0  0  0  0
  2  3  2  0  0  0  0
  2  4  1  0  0  0  0
  3  5  1  0  0  0  0
  4  7  2  0  0  0  0
  4  6  1  0  0  0  0
  5  6  1  0  0  0  0
  5  8  2  0  0  0  0
  6  1  1  0  0  0  0
 11  1  1  0  0  0  0
 12  2  1  0  0  0  0
 13  3  1  0  0  0  0
M  END
>  <HBA>
3

>  <HBD>
0

>  <TPSA>
37.38

>  <cid>
70261

>  <dipole>
1.11

>  <excitation_energy_1>
3.449

>  <excitation_energy_2>
3.989

>  <excitation_energy_3>
4.164

>  <excitation_energy_4>
5.657

>  <homo_energy>
-7.385

>  <homo_lumo_gap>
4.765

>  <logP>
-0.521

>  <lumo_energy>
-2.62

>  <melting_point>
51.89

>  <molecular_refractivity>
30.77

>  <oscillator_strength_1>
0.0

>  <oscillator_strength_2>
0.0082

>  <oscillator_strength_3>
0.0007

>  <oscillator_strength_4>
0.2857

>  <open_babel_can_smiles>
CN1C(=O)C=CC1=O

>  <mulliken_charges>
13
1   -0.321479
2   -0.164131
3   -0.162762
4   0.589456
5   0.587668
6   -0.493522
7   -0.471002
8   -0.470939
9   0.190871
10   0.187152
11   0.17712
12   0.175804
13   0.175764

>  <lowdin_charges>
13
1   -0.346437
2   -0.155358
3   -0.155006
4   0.166724
5   0.166352
6   -0.09477
7   -0.234867
8   -0.234447
9   0.177448
10   0.174921
11   0.163086
12   0.186218
13   0.186137

$$$$

