PCCDB-ID:  24210
public computational chemistry database (PCCDB) project, http://pccdb.org

 39 40  0  0  0  0  0  0  0  0999 V2000
    3.5118   -0.1791   -1.9344 C   0  0  0  0  0  0  0  0  0  0  0  0
    1.1157   -3.3078   -1.0024 C   0  0  0  0  0  0  0  0  0  0  0  0
    2.4369    4.1609   -0.7597 C   0  0  0  0  0  0  0  0  0  0  0  0
    2.2590   -2.8044   -0.1124 C   0  0  0  0  0  0  0  0  0  0  0  0
    0.8229   -2.3091   -2.1306 C   0  0  0  0  0  0  0  0  0  0  0  0
    1.5144    3.2103    0.0209 C   0  0  0  0  0  0  0  0  0  0  0  0
    3.4612    3.3887   -1.6060 C   0  0  0  0  0  0  0  0  0  0  0  0
    1.9142   -1.4420    0.5116 C   0  0  0  0  0  0  0  0  0  0  0  0
    0.5390   -0.8929   -1.5888 C   0  0  0  0  0  0  0  0  0  0  0  0
    2.3267    2.1862    0.8298 C   0  0  0  0  0  0  0  0  0  0  0  0
    4.2307    2.3714   -0.7507 C   0  0  0  0  0  0  0  0  0  0  0  0
    1.4944   -0.3319   -0.4974 C   0  0  0  0  0  0  0  0  0  0  0  0
    3.2842    1.3584   -0.0592 C   0  0  0  0  0  0  0  0  0  0  0  0
    2.5791    0.5137   -1.0511 N   0  0  0  0  0  0  0  0  0  0  0  0
    2.9663   -0.8503   -2.5961 H   0  0  0  0  0  0  0  0  0  0  0  0
    4.2790   -0.7732   -1.4013 H   0  0  0  0  0  0  0  0  0  0  0  0
    4.0357    0.5356   -2.5751 H   0  0  0  0  0  0  0  0  0  0  0  0
    0.2127   -3.4403   -0.3871 H   0  0  0  0  0  0  0  0  0  0  0  0
    1.3559   -4.2937   -1.4207 H   0  0  0  0  0  0  0  0  0  0  0  0
    2.9739    4.8046   -0.0465 H   0  0  0  0  0  0  0  0  0  0  0  0
    1.8428    4.8298   -1.3959 H   0  0  0  0  0  0  0  0  0  0  0  0
    3.1788   -2.7332   -0.7073 H   0  0  0  0  0  0  0  0  0  0  0  0
    2.4646   -3.5286    0.6870 H   0  0  0  0  0  0  0  0  0  0  0  0
   -0.0445   -2.6420   -2.7158 H   0  0  0  0  0  0  0  0  0  0  0  0
    1.6699   -2.3063   -2.8279 H   0  0  0  0  0  0  0  0  0  0  0  0
    0.8589    2.6819   -0.6826 H   0  0  0  0  0  0  0  0  0  0  0  0
    0.8640    3.7842    0.6939 H   0  0  0  0  0  0  0  0  0  0  0  0
    4.1630    4.0873   -2.0799 H   0  0  0  0  0  0  0  0  0  0  0  0
    2.9404    2.8581   -2.4127 H   0  0  0  0  0  0  0  0  0  0  0  0
    2.7471   -1.0865    1.1304 H   0  0  0  0  0  0  0  0  0  0  0  0
    1.0707   -1.5952    1.2017 H   0  0  0  0  0  0  0  0  0  0  0  0
   -0.4634   -0.9207   -1.1388 H   0  0  0  0  0  0  0  0  0  0  0  0
    0.4876   -0.1664   -2.4085 H   0  0  0  0  0  0  0  0  0  0  0  0
    1.6670    1.5475    1.4262 H   0  0  0  0  0  0  0  0  0  0  0  0
    2.9538    2.7197    1.5577 H   0  0  0  0  0  0  0  0  0  0  0  0
    4.7726    2.8999    0.0463 H   0  0  0  0  0  0  0  0  0  0  0  0
    4.9992    1.8656   -1.3430 H   0  0  0  0  0  0  0  0  0  0  0  0
    0.8758    0.3691    0.0658 H   0  0  0  0  0  0  0  0  0  0  0  0
    3.9086    0.7283    0.6060 H   0  0  0  0  0  0  0  0  0  0  0  0
  1 16  1  0  0  0  0
  1 14  1  0  0  0  0
  2 18  1  0  0  0  0
  2  4  1  0  0  0  0
  3 20  1  0  0  0  0
  3  6  1  0  0  0  0
  4  8  1  0  0  0  0
  4 23  1  0  0  0  0
  5  9  1  0  0  0  0
  5  2  1  0  0  0  0
  6 27  1  0  0  0  0
  6 10  1  0  0  0  0
  7  3  1  0  0  0  0
  7 11  1  0  0  0  0
  8 30  1  0  0  0  0
  8 31  1  0  0  0  0
  9 32  1  0  0  0  0
  9 12  1  0  0  0  0
 10 34  1  0  0  0  0
 10 35  1  0  0  0  0
 11 13  1  0  0  0  0
 11 36  1  0  0  0  0
 12 38  1  0  0  0  0
 12  8  1  0  0  0  0
 13 39  1  0  0  0  0
 13 10  1  0  0  0  0
 14 12  1  0  0  0  0
 14 13  1  0  0  0  0
 15  1  1  0  0  0  0
 17  1  1  0  0  0  0
 19  2  1  0  0  0  0
 21  3  1  0  0  0  0
 22  4  1  0  0  0  0
 24  5  1  0  0  0  0
 25  5  1  0  0  0  0
 26  6  1  0  0  0  0
 28  7  1  0  0  0  0
 29  7  1  0  0  0  0
 33  9  1  0  0  0  0
 37 11  1  0  0  0  0
M  END
>  <HBA>
1

>  <HBD>
0

>  <TPSA>
3.24

>  <cid>
24210

>  <dipole>
0.48

>  <excitation_energy_1>
4.775

>  <excitation_energy_2>
5.091

>  <excitation_energy_3>
5.167

>  <excitation_energy_4>
5.256

>  <homo_energy>
-5.314

>  <homo_lumo_gap>
7.238

>  <logP>
3.584

>  <lumo_energy>
1.924

>  <melting_point>
16.58

>  <molecular_refractivity>
63.27

>  <oscillator_strength_1>
0.009

>  <oscillator_strength_2>
0.0126

>  <oscillator_strength_3>
0.0119

>  <oscillator_strength_4>
0.006

>  <open_babel_can_smiles>
CN(C1CCCCC1)C1CCCCC1

>  <mulliken_charges>
39
1   -0.313968
2   -0.252946
3   -0.257644
4   -0.259717
5   -0.266854
6   -0.252829
7   -0.250811
8   -0.279067
9   -0.283587
10   -0.293773
11   -0.288635
12   0.046083
13   0.076491
14   -0.405925
15   0.151657
16   0.119203
17   0.151179
18   0.124405
19   0.128225
20   0.122298
21   0.127108
22   0.133661
23   0.127968
24   0.12952
25   0.136402
26   0.145653
27   0.124416
28   0.123628
29   0.146045
30   0.13705
31   0.12433
32   0.129542
33   0.143781
34   0.13733
35   0.127874
36   0.126703
37   0.134588
38   0.133109
39   0.097507

>  <lowdin_charges>
39
1   -0.368041
2   -0.2776
3   -0.278745
4   -0.28187
5   -0.283864
6   -0.282333
7   -0.282236
8   -0.298847
9   -0.288024
10   -0.29079
11   -0.288282
12   -0.071527
13   -0.063631
14   -0.194274
15   0.155741
16   0.12171
17   0.149446
18   0.135734
19   0.141803
20   0.135524
21   0.143015
22   0.14006
23   0.143143
24   0.143755
25   0.137449
26   0.146971
27   0.142081
28   0.141627
29   0.14797
30   0.146628
31   0.140713
32   0.14354
33   0.151742
34   0.144941
35   0.144304
36   0.142341
37   0.145495
38   0.149024
39   0.115307

$$$$

