PCCDB-ID:  66737
public computational chemistry database (PCCDB) project, http://pccdb.org

 19 19  0  0  0  0  0  0  0  0999 V2000
    1.0813   -0.1463   -0.4177 C   0  0  0  0  0  0  0  0  0  0  0  0
    4.4863    3.6858   -0.4203 C   0  0  0  0  0  0  0  0  0  0  0  0
    5.0911    2.5593   -0.9794 C   0  0  0  0  0  0  0  0  0  0  0  0
    3.2262    3.5636    0.1673 C   0  0  0  0  0  0  0  0  0  0  0  0
    4.4455    1.3236   -0.9576 C   0  0  0  0  0  0  0  0  0  0  0  0
    2.5825    2.3280    0.2145 C   0  0  0  0  0  0  0  0  0  0  0  0
    3.2299   -1.2288   -0.0402 C   0  0  0  0  0  0  0  0  0  0  0  0
    3.1912    1.1929   -0.3408 C   0  0  0  0  0  0  0  0  0  0  0  0
    2.5361   -0.0665   -0.2960 N   0  0  0  0  0  0  0  0  0  0  0  0
    2.7315   -2.3399    0.0051 O   0  0  0  0  0  0  0  0  0  0  0  0
    0.8292   -1.1754   -0.6747 H   0  0  0  0  0  0  0  0  0  0  0  0
    0.7396    0.5338   -1.2022 H   0  0  0  0  0  0  0  0  0  0  0  0
    0.5792    0.1093    0.5236 H   0  0  0  0  0  0  0  0  0  0  0  0
    4.9857    4.6497   -0.4519 H   0  0  0  0  0  0  0  0  0  0  0  0
    6.0619    2.6425   -1.4603 H   0  0  0  0  0  0  0  0  0  0  0  0
    2.7409    4.4331    0.6024 H   0  0  0  0  0  0  0  0  0  0  0  0
    4.9004    0.4672   -1.4448 H   0  0  0  0  0  0  0  0  0  0  0  0
    1.6126    2.2427    0.6936 H   0  0  0  0  0  0  0  0  0  0  0  0
    4.3040   -1.0483    0.1353 H   0  0  0  0  0  0  0  0  0  0  0  0
  1  9  1  0  0  0  0
  1 13  1  0  0  0  0
  2  4  2  0  0  0  0
  3  5  2  0  0  0  0
  3  2  1  0  0  0  0
  4  6  1  0  0  0  0
  4 16  1  0  0  0  0
  5  8  1  0  0  0  0
  6 18  1  0  0  0  0
  7 10  2  0  0  0  0
  7 19  1  0  0  0  0
  8  9  1  0  0  0  0
  8  6  2  0  0  0  0
  9  7  1  0  0  0  0
 11  1  1  0  0  0  0
 12  1  1  0  0  0  0
 14  2  1  0  0  0  0
 15  3  1  0  0  0  0
 17  5  1  0  0  0  0
M  END
>  <HBA>
2

>  <HBD>
0

>  <TPSA>
20.31

>  <cid>
66737

>  <dipole>
3.46

>  <excitation_energy_1>
4.871

>  <excitation_energy_2>
5.137

>  <excitation_energy_3>
5.257

>  <excitation_energy_4>
5.637

>  <homo_energy>
-6.174

>  <homo_lumo_gap>
5.766

>  <logP>
1.915

>  <lumo_energy>
-0.408

>  <melting_point>
34.05

>  <molecular_refractivity>
41.24

>  <oscillator_strength_1>
0.0137

>  <oscillator_strength_2>
0.2604

>  <oscillator_strength_3>
0.008

>  <oscillator_strength_4>
0.0034

>  <open_babel_can_smiles>
O=CN(c1ccccc1)C

>  <mulliken_charges>
19
1   -0.330649
2   -0.125301
3   -0.139556
4   -0.138165
5   -0.164135
6   -0.164074
7   0.346752
8   0.301783
9   -0.469348
10   -0.462153
11   0.203405
12   0.16706
13   0.164555
14   0.133757
15   0.137533
16   0.136454
17   0.143945
18   0.137527
19   0.12061

>  <lowdin_charges>
19
1   -0.354601
2   -0.163989
3   -0.145628
4   -0.147644
5   -0.182168
6   -0.17798
7   0.047194
8   0.048065
9   -0.079487
10   -0.285736
11   0.183249
12   0.161866
13   0.153703
14   0.16053
15   0.161295
16   0.162031
17   0.165573
18   0.163489
19   0.130238

$$$$

