PCCDB-ID:  7876
public computational chemistry database (PCCDB) project, http://pccdb.org

 26 25  0  0  0  0  0  0  0  0999 V2000
    0.9337    0.1145   -2.2584 C   0  0  0  0  0  0  0  0  0  0  0  0
    2.5951    1.3902   -3.7161 C   0  0  0  0  0  0  0  0  0  0  0  0
    4.4501    2.1895    2.5999 C   0  0  0  0  0  0  0  0  0  0  0  0
    3.4689    3.5692    0.6899 C   0  0  0  0  0  0  0  0  0  0  0  0
    2.3945    0.3918   -2.5844 C   0  0  0  0  0  0  0  0  0  0  0  0
    3.7925    2.1817    1.2277 C   0  0  0  0  0  0  0  0  0  0  0  0
    3.0028    0.9603   -1.3742 O   0  0  0  0  0  0  0  0  0  0  0  0
    4.7523    1.5568    0.3079 O   0  0  0  0  0  0  0  0  0  0  0  0
    4.3827    0.3996   -0.7395 P   0  0  0  0  0  0  0  0  0  0  0  0
    3.5918   -1.2414    0.3980 S   0  0  0  0  0  0  0  0  0  0  0  0
    5.8515   -0.0301   -1.9265 S   0  0  0  0  0  0  0  0  0  0  0  0
    0.4245   -0.2932   -3.1385 H   0  0  0  0  0  0  0  0  0  0  0  0
    0.4250    1.0387   -1.9630 H   0  0  0  0  0  0  0  0  0  0  0  0
    0.8444   -0.6094   -1.4426 H   0  0  0  0  0  0  0  0  0  0  0  0
    2.1514    1.0044   -4.6408 H   0  0  0  0  0  0  0  0  0  0  0  0
    3.6604    1.5659   -3.8891 H   0  0  0  0  0  0  0  0  0  0  0  0
    2.1149    2.3448   -3.4736 H   0  0  0  0  0  0  0  0  0  0  0  0
    3.7868    2.6637    3.3321 H   0  0  0  0  0  0  0  0  0  0  0  0
    5.3901    2.7500    2.5673 H   0  0  0  0  0  0  0  0  0  0  0  0
    4.6630    1.1697    2.9339 H   0  0  0  0  0  0  0  0  0  0  0  0
    2.7626    4.0759    1.3576 H   0  0  0  0  0  0  0  0  0  0  0  0
    3.0214    3.4974   -0.3046 H   0  0  0  0  0  0  0  0  0  0  0  0
    4.3797    4.1733    0.6240 H   0  0  0  0  0  0  0  0  0  0  0  0
    2.9120   -0.5442   -2.8213 H   0  0  0  0  0  0  0  0  0  0  0  0
    2.8851    1.5690    1.2525 H   0  0  0  0  0  0  0  0  0  0  0  0
    4.7870   -1.8341    0.5967 H   0  0  0  0  0  0  0  0  0  0  0  0
  1 13  1  0  0  0  0
  1 14  1  0  0  0  0
  2 17  1  0  0  0  0
  2  5  1  0  0  0  0
  3 20  1  0  0  0  0
  3 18  1  0  0  0  0
  4  6  1  0  0  0  0
  4 21  1  0  0  0  0
  5  1  1  0  0  0  0
  5  7  1  0  0  0  0
  6 25  1  0  0  0  0
  6  3  1  0  0  0  0
  7  9  1  0  0  0  0
  8  6  1  0  0  0  0
  9  8  1  0  0  0  0
  9 10  1  0  0  0  0
 10 26  1  0  0  0  0
 11  9  1  0  0  0  0
 12  1  1  0  0  0  0
 15  2  1  0  0  0  0
 16  2  1  0  0  0  0
 19  3  1  0  0  0  0
 22  4  1  0  0  0  0
 23  4  1  0  0  0  0
 24  5  1  0  0  0  0
M  RAD  1  11   2
M  END
>  <HBA>
4

>  <HBD>
1

>  <TPSA>
99.16

>  <cid>
7876

>  <dipole>
3.73

>  <excitation_energy_1>
4.743

>  <excitation_energy_2>
4.959

>  <excitation_energy_3>
5.441

>  <excitation_energy_4>
5.664

>  <homo_energy>
-6.408

>  <homo_lumo_gap>
5.85

>  <logP>
3.641

>  <lumo_energy>
-0.558

>  <melting_point>
-10.13

>  <molecular_refractivity>
56.62

>  <oscillator_strength_1>
0.022

>  <oscillator_strength_2>
0.0196

>  <oscillator_strength_3>
0.0157

>  <oscillator_strength_4>
0.0079

>  <open_babel_can_smiles>
CC(OP(OC(C)C)([S])S)C

>  <mulliken_charges>
26
1   -0.448735
2   -0.44645
3   -0.446304
4   -0.445967
5   0.115869
6   0.121348
7   -0.548867
8   -0.497614
9   0.766469
10   -0.217689
11   -0.337975
12   0.153671
13   0.156128
14   0.169229
15   0.149737
16   0.184596
17   0.152779
18   0.148862
19   0.163586
20   0.166739
21   0.146763
22   0.171085
23   0.162296
24   0.16851
25   0.157076
26   0.134859

>  <lowdin_charges>
26
1   -0.450344
2   -0.448913
3   -0.44775
4   -0.450932
5   0.023204
6   0.022699
7   -0.412754
8   -0.384825
9   0.752141
10   -0.225741
11   -0.369038
12   0.16054
13   0.157386
14   0.164064
15   0.15834
16   0.171178
17   0.155435
18   0.158631
19   0.161235
20   0.162614
21   0.157471
22   0.164861
23   0.160733
24   0.159642
25   0.152525
26   0.147598

$$$$

