PCCDB-ID:  43224
public computational chemistry database (PCCDB) project, http://pccdb.org

 35 37  0  0  0  0  0  0  0  0999 V2000
    1.3279   -0.0549    0.4342 C   0  0  0  0  0  0  0  0  0  0  0  0
    4.1482    1.0543   -1.5965 C   0  0  0  0  0  0  0  0  0  0  0  0
    4.7969    2.1896   -2.0532 C   0  0  0  0  0  0  0  0  0  0  0  0
    0.4292    5.4763   -0.5459 C   0  0  0  0  0  0  0  0  0  0  0  0
    2.0446    7.0120    0.6257 C   0  0  0  0  0  0  0  0  0  0  0  0
   -0.6935    6.0861    0.2992 C   0  0  0  0  0  0  0  0  0  0  0  0
    0.8630    7.5630    1.4307 C   0  0  0  0  0  0  0  0  0  0  0  0
    2.5059    2.3845   -0.3704 C   0  0  0  0  0  0  0  0  0  0  0  0
    3.8923    5.6230   -1.3181 C   0  0  0  0  0  0  0  0  0  0  0  0
    1.7886    5.5564    0.1915 C   0  0  0  0  0  0  0  0  0  0  0  0
    3.0097    1.1480   -0.7605 C   0  0  0  0  0  0  0  0  0  0  0  0
    3.1534    3.5521   -0.8260 C   0  0  0  0  0  0  0  0  0  0  0  0
    2.9130    4.9604   -0.6151 C   0  0  0  0  0  0  0  0  0  0  0  0
    4.2917    3.4355   -1.6632 C   0  0  0  0  0  0  0  0  0  0  0  0
   -0.3620    7.4719    0.6350 N   0  0  0  0  0  0  0  0  0  0  0  0
    4.7210    4.7165   -1.9507 N   0  0  0  0  0  0  0  0  0  0  0  0
    2.4767   -0.0626   -0.3907 O   0  0  0  0  0  0  0  0  0  0  0  0
    1.0656   -1.1024    0.5978 H   0  0  0  0  0  0  0  0  0  0  0  0
    0.4843    0.4580   -0.0488 H   0  0  0  0  0  0  0  0  0  0  0  0
    1.5262    0.4234    1.4037 H   0  0  0  0  0  0  0  0  0  0  0  0
    4.4973    0.0635   -1.8690 H   0  0  0  0  0  0  0  0  0  0  0  0
    5.6709    2.1071   -2.6944 H   0  0  0  0  0  0  0  0  0  0  0  0
    0.5053    6.0224   -1.4944 H   0  0  0  0  0  0  0  0  0  0  0  0
    0.1912    4.4335   -0.7881 H   0  0  0  0  0  0  0  0  0  0  0  0
    2.9647    7.0726    1.2203 H   0  0  0  0  0  0  0  0  0  0  0  0
    2.1799    7.6439   -0.2620 H   0  0  0  0  0  0  0  0  0  0  0  0
   -0.8452    5.4559    1.2002 H   0  0  0  0  0  0  0  0  0  0  0  0
   -1.6358    6.0802   -0.2615 H   0  0  0  0  0  0  0  0  0  0  0  0
    1.0363    8.6162    1.6822 H   0  0  0  0  0  0  0  0  0  0  0  0
    0.7925    7.0063    2.3880 H   0  0  0  0  0  0  0  0  0  0  0  0
    1.6350    2.4615    0.2704 H   0  0  0  0  0  0  0  0  0  0  0  0
    4.0733    6.6838   -1.4186 H   0  0  0  0  0  0  0  0  0  0  0  0
    1.6877    4.9585    1.1130 H   0  0  0  0  0  0  0  0  0  0  0  0
   -1.1343    7.8964    1.1442 H   0  0  0  0  0  0  0  0  0  0  0  0
    5.5218    4.9541   -2.5137 H   0  0  0  0  0  0  0  0  0  0  0  0
  1 18  1  0  0  0  0
  1 20  1  0  0  0  0
  2 11  2  0  0  0  0
  3 14  2  0  0  0  0
  3  2  1  0  0  0  0
  4 10  1  0  0  0  0
  4  6  1  0  0  0  0
  5 25  1  0  0  0  0
  5  7  1  0  0  0  0
  6 15  1  0  0  0  0
  6 27  1  0  0  0  0
  7 29  1  0  0  0  0
  7 30  1  0  0  0  0
  8 31  1  0  0  0  0
  9 13  2  0  0  0  0
 10  5  1  0  0  0  0
 10 33  1  0  0  0  0
 11 17  1  0  0  0  0
 11  8  1  0  0  0  0
 12 13  1  0  0  0  0
 12  8  2  0  0  0  0
 13 10  1  0  0  0  0
 14 12  1  0  0  0  0
 15 34  1  0  0  0  0
 15  7  1  0  0  0  0
 16 14  1  0  0  0  0
 16  9  1  0  0  0  0
 17  1  1  0  0  0  0
 19  1  1  0  0  0  0
 21  2  1  0  0  0  0
 22  3  1  0  0  0  0
 23  4  1  0  0  0  0
 24  4  1  0  0  0  0
 26  5  1  0  0  0  0
 28  6  1  0  0  0  0
 32  9  1  0  0  0  0
 35 16  1  0  0  0  0
M  END
>  <HBA>
2

>  <HBD>
2

>  <TPSA>
37.05

>  <cid>
43224

>  <dipole>
1.41

>  <excitation_energy_1>
4.401

>  <excitation_energy_2>
4.635

>  <excitation_energy_3>
4.67

>  <excitation_energy_4>
4.812

>  <homo_energy>
-5.119

>  <homo_lumo_gap>
5.113

>  <logP>
2.972

>  <lumo_energy>
-0.005

>  <melting_point>
152.97

>  <molecular_refractivity>
73.59

>  <oscillator_strength_1>
0.0535

>  <oscillator_strength_2>
0.0

>  <oscillator_strength_3>
0.1046

>  <oscillator_strength_4>
0.0051

>  <open_babel_can_smiles>
COc1ccc2c(c1)c(c[nH]2)C1CCNCC1

>  <mulliken_charges>
35
1   -0.206343
2   -0.193906
3   -0.163019
4   -0.248964
5   -0.258265
6   -0.13085
7   -0.133221
8   -0.291053
9   -0.011235
10   -0.170474
11   0.372104
12   0.069753
13   0.0786
14   0.313763
15   -0.546051
16   -0.703687
17   -0.516259
18   0.163387
19   0.145558
20   0.145872
21   0.131353
22   0.121449
23   0.141438
24   0.133718
25   0.133025
26   0.138093
27   0.103038
28   0.134914
29   0.133412
30   0.106302
31   0.124799
32   0.145846
33   0.119845
34   0.293629
35   0.323427

>  <lowdin_charges>
35
1   -0.276792
2   -0.186519
3   -0.17519
4   -0.278651
5   -0.280287
6   -0.205759
7   -0.201701
8   -0.226032
9   -0.138894
10   -0.122083
11   0.088143
12   -0.028393
13   -0.063821
14   0.015819
15   -0.369546
16   -0.201787
17   -0.207459
18   0.158008
19   0.142093
20   0.140766
21   0.164102
22   0.156025
23   0.14757
24   0.145139
25   0.14612
26   0.144154
27   0.111613
28   0.144335
29   0.142483
30   0.112322
31   0.15964
32   0.161978
33   0.138086
34   0.254493
35   0.290025

$$$$

