PCCDB-ID:  19793
public computational chemistry database (PCCDB) project, http://pccdb.org

 38 40  0  0  1  0  0  0  0  0999 V2000
    1.1599   -0.0084    0.8096 C   0  0  0  0  0  0  0  0  0  0  0  0
    2.5891    0.1751   -1.2519 C   0  0  0  0  0  0  0  0  0  0  0  0
    5.6056   -1.3342    2.1508 C   0  0  0  0  0  0  0  0  0  0  0  0
    1.9912   -2.1930    5.5884 C   0  0  0  0  0  0  0  0  0  0  0  0
    2.2061   -0.8263    5.4233 C   0  0  0  0  0  0  0  0  0  0  0  0
    2.4733   -3.0787    4.6221 C   0  0  0  0  0  0  0  0  0  0  0  0
    4.0360    3.5017    1.3703 C   0  0  0  0  0  0  0  0  0  0  0  0
    4.9051    3.0541    2.3690 C   0  0  0  0  0  0  0  0  0  0  0  0
    2.8970   -0.3472    4.3062 C   0  0  0  0  0  0  0  0  0  0  0  0
    3.1602   -2.5965    3.5096 C   0  0  0  0  0  0  0  0  0  0  0  0
    3.2576    2.5891    0.6528 C   0  0  0  0  0  0  0  0  0  0  0  0
    4.9998    1.6902    2.6615 C   0  0  0  0  0  0  0  0  0  0  0  0
    3.4615   -1.1454    0.7552 C   0  0  0  0  0  0  0  0  0  0  0  0
    3.3884   -1.2213    3.3279 C   0  0  0  0  0  0  0  0  0  0  0  0
    3.3545    1.2278    0.9418 C   0  0  0  0  0  0  0  0  0  0  0  0
    4.2185    0.7789    1.9488 C   0  0  0  0  0  0  0  0  0  0  0  0
    2.6111    0.0707    0.2828 C   0  0  0  0  0  0  0  0  0  0  0  0
    4.1777   -0.7422    2.0902 C   0  0  1  0  0  0  0  0  0  0  0  0
    0.6354   -0.8631    0.3642 H   0  0  0  0  0  0  0  0  0  0  0  0
    0.6032    0.9002    0.5506 H   0  0  0  0  0  0  0  0  0  0  0  0
    1.1318   -0.1218    1.8974 H   0  0  0  0  0  0  0  0  0  0  0  0
    2.1414   -0.7242   -1.6927 H   0  0  0  0  0  0  0  0  0  0  0  0
    3.6010    0.2858   -1.6578 H   0  0  0  0  0  0  0  0  0  0  0  0
    1.9955    1.0343   -1.5869 H   0  0  0  0  0  0  0  0  0  0  0  0
    5.5833   -2.4288    2.1204 H   0  0  0  0  0  0  0  0  0  0  0  0
    6.1168   -1.0413    3.0745 H   0  0  0  0  0  0  0  0  0  0  0  0
    6.2022   -0.9817    1.3021 H   0  0  0  0  0  0  0  0  0  0  0  0
    1.4529   -2.5656    6.4558 H   0  0  0  0  0  0  0  0  0  0  0  0
    1.8349   -0.1220    6.1636 H   0  0  0  0  0  0  0  0  0  0  0  0
    2.3126   -4.1482    4.7329 H   0  0  0  0  0  0  0  0  0  0  0  0
    3.9702    4.5631    1.1452 H   0  0  0  0  0  0  0  0  0  0  0  0
    5.5138    3.7678    2.9181 H   0  0  0  0  0  0  0  0  0  0  0  0
    3.0490    0.7212    4.1968 H   0  0  0  0  0  0  0  0  0  0  0  0
    3.5238   -3.3051    2.7697 H   0  0  0  0  0  0  0  0  0  0  0  0
    2.5907    2.9433   -0.1298 H   0  0  0  0  0  0  0  0  0  0  0  0
    5.6798    1.3486    3.4383 H   0  0  0  0  0  0  0  0  0  0  0  0
    4.2317   -1.3508    0.0009 H   0  0  0  0  0  0  0  0  0  0  0  0
    2.8608   -2.0543    0.8585 H   0  0  0  0  0  0  0  0  0  0  0  0
  1 21  1  0  0  0  0
  2 17  1  0  0  0  0
  3 26  1  0  0  0  0
  4 28  1  0  0  0  0
  5  4  1  0  0  0  0
  5 29  1  0  0  0  0
  6 30  1  0  0  0  0
  6  4  2  0  0  0  0
  7  8  2  0  0  0  0
  8 12  1  0  0  0  0
  8 32  1  0  0  0  0
  9  5  2  0  0  0  0
 10  6  1  0  0  0  0
 11 15  2  0  0  0  0
 11  7  1  0  0  0  0
 12 36  1  0  0  0  0
 13 38  1  0  0  0  0
 13 18  1  0  0  0  0
 14 10  2  0  0  0  0
 14  9  1  0  0  0  0
 15 16  1  0  0  0  0
 16 18  1  0  0  0  0
 16 12  2  0  0  0  0
 17 13  1  0  0  0  0
 17  1  1  0  0  0  0
 17 15  1  0  0  0  0
 18  3  1  1  0  0  0
 18 14  1  0  0  0  0
 19  1  1  0  0  0  0
 20  1  1  0  0  0  0
 22  2  1  0  0  0  0
 23  2  1  0  0  0  0
 24  2  1  0  0  0  0
 25  3  1  0  0  0  0
 27  3  1  0  0  0  0
 31  7  1  0  0  0  0
 33  9  1  0  0  0  0
 34 10  1  0  0  0  0
 35 11  1  0  0  0  0
 37 13  1  0  0  0  0
M  END
>  <HBA>
0

>  <HBD>
0

>  <TPSA>
0.0

>  <cid>
19793

>  <dipole>
0.29

>  <excitation_energy_1>
5.166

>  <excitation_energy_2>
5.248

>  <excitation_energy_3>
5.604

>  <excitation_energy_4>
5.656

>  <homo_energy>
-6.299

>  <homo_lumo_gap>
6.169

>  <logP>
4.674

>  <lumo_energy>
-0.131

>  <melting_point>
76.2

>  <molecular_refractivity>
77.74

>  <oscillator_strength_1>
0.0237

>  <oscillator_strength_2>
0.0032

>  <oscillator_strength_3>
0.0009

>  <oscillator_strength_4>
0.0048

>  <open_babel_can_smiles>
C[C@@]1(CC(c2c1cccc2)(C)C)c1ccccc1

>  <mulliken_charges>
38
1   -0.449777
2   -0.4539
3   -0.453615
4   -0.128908
5   -0.132739
6   -0.132848
7   -0.131129
8   -0.135019
9   -0.194841
10   -0.178717
11   -0.201301
12   -0.193734
13   -0.3099
14   0.164022
15   0.134227
16   0.090606
17   0.031693
18   -0.05973
19   0.138142
20   0.13861
21   0.161976
22   0.141588
23   0.145328
24   0.140437
25   0.14575
26   0.149749
27   0.147107
28   0.126087
29   0.12752
30   0.126401
31   0.125865
32   0.126131
33   0.142051
34   0.124789
35   0.123974
36   0.129088
37   0.135766
38   0.139251

>  <lowdin_charges>
38
1   -0.442357
2   -0.441945
3   -0.436174
4   -0.16229
5   -0.157576
6   -0.154535
7   -0.156073
8   -0.163083
9   -0.172725
10   -0.170006
11   -0.166458
12   -0.167183
13   -0.274052
14   0.000255
15   -0.008185
16   -0.014096
17   0.013658
18   0.012312
19   0.147186
20   0.147702
21   0.157516
22   0.149666
23   0.149277
24   0.147748
25   0.148443
26   0.152006
27   0.151681
28   0.156735
29   0.157662
30   0.154156
31   0.154487
32   0.157719
33   0.164366
34   0.154859
35   0.155946
36   0.157802
37   0.146815
38   0.148742

$$$$

