PCCDB-ID:  19281
public computational chemistry database (PCCDB) project, http://pccdb.org

 24 25  0  0  0  0  0  0  0  0999 V2000
   -1.2257   -0.0838   -0.8273 C   0  0  0  0  0  0  0  0  0  0  0  0
    0.9495    0.0009    0.2596 C   0  0  0  0  0  0  0  0  0  0  0  0
   -1.2661   -1.4547   -0.6050 C   0  0  0  0  0  0  0  0  0  0  0  0
    0.9061   -1.3662    0.4819 C   0  0  0  0  0  0  0  0  0  0  0  0
   -0.9389    5.1969   -2.0789 C   0  0  0  0  0  0  0  0  0  0  0  0
    0.4293    4.6807   -2.3548 C   0  0  0  0  0  0  0  0  0  0  0  0
   -0.1101    0.6582   -0.3959 C   0  0  0  0  0  0  0  0  0  0  0  0
   -0.2058   -2.0861    0.0440 C   0  0  0  0  0  0  0  0  0  0  0  0
   -0.8709    2.9126   -1.1910 C   0  0  0  0  0  0  0  0  0  0  0  0
    0.0128    2.0379   -0.5864 N   0  0  0  0  0  0  0  0  0  0  0  0
   -0.3369    4.2286   -1.1724 N   0  0  0  0  0  0  0  0  0  0  0  0
   -0.2576   -3.5297    0.2730 N   0  0  0  0  0  0  0  0  0  0  0  0
   -1.9644    2.6121   -1.6374 O   0  0  0  0  0  0  0  0  0  0  0  0
   -1.2525   -4.1398   -0.1228 O   0  0  0  0  0  0  0  0  0  0  0  0
    0.6983   -4.0542    0.8489 O   0  0  0  0  0  0  0  0  0  0  0  0
   -2.0423    0.4214   -1.3229 H   0  0  0  0  0  0  0  0  0  0  0  0
    1.8120    0.5716    0.5955 H   0  0  0  0  0  0  0  0  0  0  0  0
   -2.1153   -2.0438   -0.9290 H   0  0  0  0  0  0  0  0  0  0  0  0
    1.7139   -1.8828    0.9850 H   0  0  0  0  0  0  0  0  0  0  0  0
   -1.7538    4.8358   -2.7009 H   0  0  0  0  0  0  0  0  0  0  0  0
   -1.0689    6.1901   -1.6575 H   0  0  0  0  0  0  0  0  0  0  0  0
    1.3078    5.2816   -2.1331 H   0  0  0  0  0  0  0  0  0  0  0  0
    0.5432    3.9759   -3.1765 H   0  0  0  0  0  0  0  0  0  0  0  0
    0.8335    2.4774   -0.1900 H   0  0  0  0  0  0  0  0  0  0  0  0
  1  3  2  0  0  0  0
  1  7  1  0  0  0  0
  2  4  1  0  0  0  0
  2 17  1  0  0  0  0
  3  8  1  0  0  0  0
  4 19  1  0  0  0  0
  5 21  1  0  0  0  0
  5 11  1  0  0  0  0
  6 22  1  0  0  0  0
  6  5  1  0  0  0  0
  6 11  1  0  0  0  0
  7  2  2  0  0  0  0
  8 12  1  0  0  0  0
  8  4  2  0  0  0  0
  9 11  1  0  0  0  0
  9 10  1  0  0  0  0
 10  7  1  0  0  0  0
 10 24  1  0  0  0  0
 12 15  2  0  0  0  0
 13  9  2  0  0  0  0
 14 12  2  0  0  0  0
 16  1  1  0  0  0  0
 18  3  1  0  0  0  0
 20  5  1  0  0  0  0
 23  6  1  0  0  0  0
M  END
>  <HBA>
3

>  <HBD>
1

>  <TPSA>
77.93

>  <cid>
19281

>  <dipole>
7.34

>  <excitation_energy_1>
3.747

>  <excitation_energy_2>
3.915

>  <excitation_energy_3>
4.277

>  <excitation_energy_4>
4.374

>  <homo_energy>
-6.653

>  <homo_lumo_gap>
4.411

>  <logP>
1.976

>  <lumo_energy>
-2.242

>  <melting_point>
119.35

>  <molecular_refractivity>
59.47

>  <oscillator_strength_1>
0.0

>  <oscillator_strength_2>
0.461

>  <oscillator_strength_3>
0.0016

>  <oscillator_strength_4>
0.0079

>  <open_babel_can_smiles>
O=C(N1CC1)Nc1ccc(cc1)N(=O)=O

>  <mulliken_charges>
24
1   -0.171908
2   -0.20932
3   -0.167727
4   -0.153378
5   -0.183074
6   -0.204833
7   0.389076
8   0.281617
9   0.723701
10   -0.723041
11   -0.435054
12   0.372714
13   -0.48683
14   -0.401303
15   -0.403724
16   0.199432
17   0.139839
18   0.185902
19   0.183691
20   0.193415
21   0.173234
22   0.173365
23   0.17656
24   0.347645

>  <lowdin_charges>
24
1   -0.178713
2   -0.185509
3   -0.127109
4   -0.130866
5   -0.219939
6   -0.22198
7   0.082965
8   -0.013594
9   0.1857
10   -0.229059
11   -0.191131
12   0.310891
13   -0.281229
14   -0.2542
15   -0.258002
16   0.195407
17   0.163025
18   0.190193
19   0.189814
20   0.175761
21   0.167776
22   0.166668
23   0.164763
24   0.298368

$$$$

