PCCDB-ID:  50865
public computational chemistry database (PCCDB) project, http://pccdb.org

 32 32  0  0  0  0  0  0  0  0999 V2000
   -1.3019    0.3813   -0.8212 C   0  0  0  0  0  0  0  0  0  0  0  0
    5.8580   -2.1504   -0.4654 C   0  0  0  0  0  0  0  0  0  0  0  0
   -0.4828    1.5019   -1.0002 C   0  0  0  0  0  0  0  0  0  0  0  0
   -0.7129   -0.8648   -0.6217 C   0  0  0  0  0  0  0  0  0  0  0  0
    7.3685   -1.8842   -0.4975 C   0  0  0  0  0  0  0  0  0  0  0  0
    5.0250   -0.8741   -0.6382 C   0  0  0  0  0  0  0  0  0  0  0  0
    0.9014    1.3760   -0.9801 C   0  0  0  0  0  0  0  0  0  0  0  0
    0.6784   -1.0085   -0.5993 C   0  0  0  0  0  0  0  0  0  0  0  0
    8.2010   -3.1571   -0.3367 C   0  0  0  0  0  0  0  0  0  0  0  0
    3.5268   -1.1437   -0.5896 C   0  0  0  0  0  0  0  0  0  0  0  0
    1.4901    0.1182   -0.7793 C   0  0  0  0  0  0  0  0  0  0  0  0
   10.3856   -4.0749   -0.0818 N   0  0  0  0  0  0  0  0  0  0  0  0
    9.6314   -2.8501   -0.4369 N   0  0  0  0  0  0  0  0  0  0  0  0
    2.8563    0.0999   -0.7766 O   0  0  0  0  0  0  0  0  0  0  0  0
   -2.3832    0.4826   -0.8375 H   0  0  0  0  0  0  0  0  0  0  0  0
    5.5935   -2.6375    0.4844 H   0  0  0  0  0  0  0  0  0  0  0  0
    5.5999   -2.8663   -1.2594 H   0  0  0  0  0  0  0  0  0  0  0  0
   -0.9266    2.4818   -1.1565 H   0  0  0  0  0  0  0  0  0  0  0  0
   -1.3352   -1.7451   -0.4818 H   0  0  0  0  0  0  0  0  0  0  0  0
    7.6271   -1.1765    0.3045 H   0  0  0  0  0  0  0  0  0  0  0  0
    7.6448   -1.3980   -1.4417 H   0  0  0  0  0  0  0  0  0  0  0  0
    5.2631   -0.3953   -1.5966 H   0  0  0  0  0  0  0  0  0  0  0  0
    5.2765   -0.1492    0.1466 H   0  0  0  0  0  0  0  0  0  0  0  0
    1.5515    2.2346   -1.1175 H   0  0  0  0  0  0  0  0  0  0  0  0
    1.1127   -1.9892   -0.4421 H   0  0  0  0  0  0  0  0  0  0  0  0
    7.9545   -3.8568   -1.1491 H   0  0  0  0  0  0  0  0  0  0  0  0
    7.9531   -3.6703    0.6094 H   0  0  0  0  0  0  0  0  0  0  0  0
    3.2417   -1.5834    0.3780 H   0  0  0  0  0  0  0  0  0  0  0  0
    3.2330   -1.8515   -1.3793 H   0  0  0  0  0  0  0  0  0  0  0  0
   11.3546   -3.8313   -0.3054 H   0  0  0  0  0  0  0  0  0  0  0  0
   10.1423   -4.7312   -0.8297 H   0  0  0  0  0  0  0  0  0  0  0  0
    9.8391   -2.2254    0.3458 H   0  0  0  0  0  0  0  0  0  0  0  0
  1  4  2  0  0  0  0
  2 16  1  0  0  0  0
  3  7  2  0  0  0  0
  3  1  1  0  0  0  0
  4  8  1  0  0  0  0
  4 19  1  0  0  0  0
  5  2  1  0  0  0  0
  5  9  1  0  0  0  0
  5 20  1  0  0  0  0
  6 10  1  0  0  0  0
  6  2  1  0  0  0  0
  6 23  1  0  0  0  0
  7 11  1  0  0  0  0
  8 25  1  0  0  0  0
  9 27  1  0  0  0  0
 10 28  1  0  0  0  0
 11 14  1  0  0  0  0
 11  8  2  0  0  0  0
 13  9  1  0  0  0  0
 13 12  1  0  0  0  0
 13 32  1  0  0  0  0
 14 10  1  0  0  0  0
 15  1  1  0  0  0  0
 17  2  1  0  0  0  0
 18  3  1  0  0  0  0
 21  5  1  0  0  0  0
 22  6  1  0  0  0  0
 24  7  1  0  0  0  0
 26  9  1  0  0  0  0
 29 10  1  0  0  0  0
 30 12  1  0  0  0  0
 31 12  1  0  0  0  0
M  END
>  <HBA>
3

>  <HBD>
2

>  <TPSA>
47.28

>  <cid>
50865

>  <dipole>
1.24

>  <excitation_energy_1>
4.749

>  <excitation_energy_2>
5.045

>  <excitation_energy_3>
5.148

>  <excitation_energy_4>
5.269

>  <homo_energy>
-5.344

>  <homo_lumo_gap>
5.478

>  <logP>
2.79

>  <lumo_energy>
0.133

>  <melting_point>
87.19

>  <molecular_refractivity>
57.67

>  <oscillator_strength_1>
0.0043

>  <oscillator_strength_2>
0.0328

>  <oscillator_strength_3>
0.0001

>  <oscillator_strength_4>
0.0125

>  <open_babel_can_smiles>
NNCCCCCOc1ccccc1

>  <mulliken_charges>
32
1   -0.133816
2   -0.267764
3   -0.132829
4   -0.137907
5   -0.266991
6   -0.275816
7   -0.176115
8   -0.195257
9   -0.111358
10   -0.027431
11   0.379207
12   -0.595095
13   -0.472061
14   -0.525582
15   0.123876
16   0.134895
17   0.134255
18   0.128553
19   0.127662
20   0.129839
21   0.150445
22   0.15057
23   0.148863
24   0.134706
25   0.131276
26   0.130778
27   0.128483
28   0.136783
29   0.136635
30   0.304218
31   0.302116
32   0.304863

>  <lowdin_charges>
32
1   -0.177809
2   -0.2744
3   -0.147298
4   -0.148091
5   -0.277575
6   -0.279589
7   -0.185425
8   -0.215868
9   -0.210414
10   -0.128274
11   0.105182
12   -0.496695
13   -0.323183
14   -0.203808
15   0.154021
16   0.140995
17   0.141571
18   0.157317
19   0.157262
20   0.139847
21   0.150113
22   0.151221
23   0.15111
24   0.165701
25   0.160994
26   0.136079
27   0.126423
28   0.136253
29   0.137362
30   0.252668
31   0.252514
32   0.251794

$$$$

