PCCDB-ID:  62204
public computational chemistry database (PCCDB) project, http://pccdb.org

 13 12  0  0  0  0  0  0  0  0999 V2000
    0.8692   -0.6433   -0.0375 C   0  0  0  0  0  0  0  0  0  0  0  0
    4.7502    2.2494   -0.9829 C   0  0  0  0  0  0  0  0  0  0  0  0
    1.8201    0.1033    0.4539 C   0  0  0  0  0  0  0  0  0  0  0  0
    4.0428    1.0529   -0.3390 C   0  0  0  0  0  0  0  0  0  0  0  0
    2.5288    1.2802   -0.1930 C   0  0  0  0  0  0  0  0  0  0  0  0
    4.2114    0.1491   -0.9372 H   0  0  0  0  0  0  0  0  0  0  0  0
    2.0845    1.4727   -1.1761 H   0  0  0  0  0  0  0  0  0  0  0  0
    5.8269    2.0687   -1.0725 H   0  0  0  0  0  0  0  0  0  0  0  0
    4.6130    3.1608   -0.3883 H   0  0  0  0  0  0  0  0  0  0  0  0
    4.3608    2.4469   -1.9889 H   0  0  0  0  0  0  0  0  0  0  0  0
    2.1174   -0.2052    1.4650 H   0  0  0  0  0  0  0  0  0  0  0  0
    4.4754    0.8539    0.6510 H   0  0  0  0  0  0  0  0  0  0  0  0
    2.3436    2.1753    0.4162 H   0  0  0  0  0  0  0  0  0  0  0  0
  1  3  2  0  0  0  0
  2  9  1  0  0  0  0
  2  4  1  0  0  0  0
  3 11  1  0  0  0  0
  4  5  1  0  0  0  0
  4 12  1  0  0  0  0
  5 13  1  0  0  0  0
  5  3  1  0  0  0  0
  6  4  1  0  0  0  0
  7  5  1  0  0  0  0
  8  2  1  0  0  0  0
 10  2  1  0  0  0  0
M  RAD  1   1   3
M  END
>  <HBA>
0

>  <HBD>
0

>  <TPSA>
0.0

>  <cid>
62204

>  <dipole>
2.86

>  <excitation_energy_1>
3.102

>  <excitation_energy_2>
3.772

>  <excitation_energy_3>
6.026

>  <excitation_energy_4>
6.34

>  <homo_energy>
-7.219

>  <homo_lumo_gap>
5.01

>  <logP>
1.748

>  <lumo_energy>
-2.21

>  <melting_point>
-36.71

>  <molecular_refractivity>
25.2

>  <oscillator_strength_1>
0.0001

>  <oscillator_strength_2>
0.0091

>  <oscillator_strength_3>
0.0032

>  <oscillator_strength_4>
0.0013

>  <open_babel_can_smiles>
CCCC=[C]

>  <mulliken_charges>
13
1   -0.047633
2   -0.446258
3   -0.221808
4   -0.247514
5   -0.28041
6   0.152907
7   0.159633
8   0.151435
9   0.14582
10   0.148368
11   0.18742
12   0.137318
13   0.160724

>  <lowdin_charges>
13
1   -0.014272
2   -0.44256
3   -0.285458
4   -0.269691
5   -0.249294
6   0.151046
7   0.156719
8   0.153474
9   0.148864
10   0.149512
11   0.201394
12   0.142179
13   0.158088

$$$$

