PCCDB-ID:  31247
public computational chemistry database (PCCDB) project, http://pccdb.org

 18 17  0  0  0  0  0  0  0  0999 V2000
    1.0448    1.2102    0.6021 C   0  0  0  0  0  0  0  0  0  0  0  0
    5.0342   -4.3473   -1.8137 C   0  0  0  0  0  0  0  0  0  0  0  0
    2.3906    0.8073   -0.0069 C   0  0  0  0  0  0  0  0  0  0  0  0
    4.9713   -3.0371   -1.6044 C   0  0  0  0  0  0  0  0  0  0  0  0
    2.4953   -0.7013   -0.2408 C   0  0  0  0  0  0  0  0  0  0  0  0
    3.8140   -1.1180   -0.8532 C   0  0  0  0  0  0  0  0  0  0  0  0
    4.7323   -0.3865   -1.1388 O   0  0  0  0  0  0  0  0  0  0  0  0
    3.8341   -2.4757   -1.0481 O   0  0  0  0  0  0  0  0  0  0  0  0
    0.9964    2.2922    0.7655 H   0  0  0  0  0  0  0  0  0  0  0  0
    0.8792    0.7201    1.5696 H   0  0  0  0  0  0  0  0  0  0  0  0
    0.2099    0.9356   -0.0544 H   0  0  0  0  0  0  0  0  0  0  0  0
    5.9273   -4.7804   -2.2491 H   0  0  0  0  0  0  0  0  0  0  0  0
    4.2122   -5.0084   -1.5593 H   0  0  0  0  0  0  0  0  0  0  0  0
    3.2111    1.1270    0.6460 H   0  0  0  0  0  0  0  0  0  0  0  0
    2.5443    1.3285   -0.9591 H   0  0  0  0  0  0  0  0  0  0  0  0
    5.7541   -2.3244   -1.8363 H   0  0  0  0  0  0  0  0  0  0  0  0
    1.6921   -1.0587   -0.8997 H   0  0  0  0  0  0  0  0  0  0  0  0
    2.3706   -1.2595    0.6974 H   0  0  0  0  0  0  0  0  0  0  0  0
  1  9  1  0  0  0  0
  1 10  1  0  0  0  0
  2  4  2  0  0  0  0
  2 13  1  0  0  0  0
  3  1  1  0  0  0  0
  3 14  1  0  0  0  0
  4  8  1  0  0  0  0
  5  3  1  0  0  0  0
  5 18  1  0  0  0  0
  6  5  1  0  0  0  0
  7  6  2  0  0  0  0
  8  6  1  0  0  0  0
 11  1  1  0  0  0  0
 12  2  1  0  0  0  0
 15  3  1  0  0  0  0
 16  4  1  0  0  0  0
 17  5  1  0  0  0  0
M  END
>  <HBA>
2

>  <HBD>
0

>  <TPSA>
26.3

>  <cid>
31247

>  <dipole>
1.53

>  <excitation_energy_1>
5.686

>  <excitation_energy_2>
5.941

>  <excitation_energy_3>
6.493

>  <excitation_energy_4>
6.891

>  <homo_energy>
-6.751

>  <homo_lumo_gap>
6.52

>  <logP>
1.473

>  <lumo_energy>
-0.231

>  <melting_point>
-34.72

>  <molecular_refractivity>
31.77

>  <oscillator_strength_1>
0.0006

>  <oscillator_strength_2>
0.3197

>  <oscillator_strength_3>
0.0386

>  <oscillator_strength_4>
0.0209

>  <open_babel_can_smiles>
CCCC(=O)OC=C

>  <mulliken_charges>
18
1   -0.447555
2   -0.389372
3   -0.245617
4   0.155869
5   -0.362613
6   0.628182
7   -0.463093
8   -0.462093
9   0.150433
10   0.14347
11   0.143604
12   0.15435
13   0.154714
14   0.153823
15   0.153766
16   0.182265
17   0.17477
18   0.175096

>  <lowdin_charges>
18
1   -0.443242
2   -0.365064
3   -0.268776
4   -0.037786
5   -0.30294
6   0.211246
7   -0.249087
8   -0.158491
9   0.152525
10   0.147158
11   0.148133
12   0.173163
13   0.170233
14   0.153532
15   0.152603
16   0.17518
17   0.171105
18   0.17051

$$$$

