PCCDB-ID:  554
public computational chemistry database (PCCDB) project, http://pccdb.org

 23 23  0  0  1  0  0  0  0  0999 V2000
    0.9554    0.1250   -0.4402 C   0  0  0  0  0  0  0  0  0  0  0  0
    2.6262   -0.0388    1.3228 C   0  0  0  0  0  0  0  0  0  0  0  0
    3.2753    0.8320   -2.2884 C   0  0  0  0  0  0  0  0  0  0  0  0
    3.0475   -0.7054   -2.3711 C   0  0  0  0  0  0  0  0  0  0  0  0
    3.1644    1.1904   -0.7946 C   0  0  0  0  0  0  0  0  0  0  0  0
    3.0442   -1.1905   -0.9135 C   0  0  1  0  0  0  0  0  0  0  0  0
    4.5343   -1.5622   -0.4740 C   0  0  0  0  0  0  0  0  0  0  0  0
    2.4227    0.0234   -0.1638 N   0  0  0  0  0  0  0  0  0  0  0  0
    4.8590   -2.6485   -0.9681 O   0  0  0  0  0  0  0  0  0  0  0  0
    5.1617   -0.7257    0.2220 O   0  0  0  0  0  0  0  0  0  0  0  0
    0.5541    0.9953    0.0853 H   0  0  0  0  0  0  0  0  0  0  0  0
    0.4666   -0.7812   -0.0774 H   0  0  0  0  0  0  0  0  0  0  0  0
    0.7810    0.2314   -1.5099 H   0  0  0  0  0  0  0  0  0  0  0  0
    2.2437    0.8853    1.7637 H   0  0  0  0  0  0  0  0  0  0  0  0
    3.6962   -0.1696    1.4893 H   0  0  0  0  0  0  0  0  0  0  0  0
    2.0647   -0.8931    1.7083 H   0  0  0  0  0  0  0  0  0  0  0  0
    2.5435    1.3781   -2.8919 H   0  0  0  0  0  0  0  0  0  0  0  0
    4.2672    1.1103   -2.6521 H   0  0  0  0  0  0  0  0  0  0  0  0
    3.8429   -1.2282   -2.9040 H   0  0  0  0  0  0  0  0  0  0  0  0
    2.1088   -0.9324   -2.8897 H   0  0  0  0  0  0  0  0  0  0  0  0
    2.6227    2.1143   -0.5755 H   0  0  0  0  0  0  0  0  0  0  0  0
    4.1447    1.1798   -0.3187 H   0  0  0  0  0  0  0  0  0  0  0  0
    2.3931   -2.0472   -0.7273 H   0  0  0  0  0  0  0  0  0  0  0  0
  1  8  1  0  0  0  0
  1 12  1  0  0  0  0
  1 11  1  0  0  0  0
  2 15  1  0  0  0  0
  2 16  1  0  0  0  0
  2 14  1  0  0  0  0
  3  5  1  0  0  0  0
  4  3  1  0  0  0  0
  4  6  1  0  0  0  0
  5 21  1  0  0  0  0
  5 22  1  0  0  0  0
  5  8  1  0  0  0  0
  6 23  1  1  0  0  0
  6  7  1  0  0  0  0
  6  8  1  0  0  0  0
  7 10  1  0  0  0  0
  8  2  1  0  0  0  0
  9  7  2  0  0  0  0
 13  1  1  0  0  0  0
 17  3  1  0  0  0  0
 18  3  1  0  0  0  0
 19  4  1  0  0  0  0
 20  4  1  0  0  0  0
M  RAD  1  10   2
M  END
>  <HBA>
2

>  <HBD>
0

>  <TPSA>
40.13

>  <cid>
554

>  <dipole>
10.37

>  <excitation_energy_1>
4.505

>  <excitation_energy_2>
4.628

>  <excitation_energy_3>
4.937

>  <excitation_energy_4>
5.124

>  <homo_energy>
-5.265

>  <homo_lumo_gap>
6.093

>  <logP>
-1.066

>  <lumo_energy>
0.827

>  <melting_point>
102.14

>  <molecular_refractivity>
41.35

>  <oscillator_strength_1>
0.0033

>  <oscillator_strength_2>
0.0079

>  <oscillator_strength_3>
0.0008

>  <oscillator_strength_4>
0.0052

>  <open_babel_can_smiles>
[O]C(=O)[C@@H]1CCC[N]1(C)C

>  <mulliken_charges>
23
1   -0.315535
2   -0.334119
3   -0.3042
4   -0.296502
5   -0.156489
6   -0.089242
7   0.586125
8   -0.357509
9   -0.558511
10   -0.58811
11   0.18092
12   0.191711
13   0.197998
14   0.161423
15   0.266136
16   0.173899
17   0.148835
18   0.186533
19   0.208344
20   0.141324
21   0.156784
22   0.238381
23   0.161804

>  <lowdin_charges>
23
1   -0.353932
2   -0.369989
3   -0.290981
4   -0.284876
5   -0.211553
6   -0.121918
7   0.117604
8   0.066088
9   -0.365748
10   -0.418363
11   0.168448
12   0.17452
13   0.176343
14   0.159774
15   0.215187
16   0.16744
17   0.15078
18   0.173934
19   0.187206
20   0.142538
21   0.154916
22   0.198621
23   0.163961

$$$$

