PCCDB-ID:  33769
public computational chemistry database (PCCDB) project, http://pccdb.org

 34 35  0  0  0  0  0  0  0  0999 V2000
    2.9495    0.9107   -2.7817 C   0  0  0  0  0  0  0  0  0  0  0  0
    4.0936   -0.0370   -0.8969 C   0  0  0  0  0  0  0  0  0  0  0  0
   11.0990    1.9068   -3.5655 C   0  0  0  0  0  0  0  0  0  0  0  0
   12.3288    3.5970    1.2287 C   0  0  0  0  0  0  0  0  0  0  0  0
   13.1828    3.4043    0.1259 C   0  0  0  0  0  0  0  0  0  0  0  0
   10.9653    3.3432    1.1329 C   0  0  0  0  0  0  0  0  0  0  0  0
   12.6901    2.9559   -1.0969 C   0  0  0  0  0  0  0  0  0  0  0  0
    5.3619    0.9679   -2.7122 C   0  0  0  0  0  0  0  0  0  0  0  0
    6.5449    1.5396   -1.9222 C   0  0  0  0  0  0  0  0  0  0  0  0
    9.1255    2.5252   -0.5348 C   0  0  0  0  0  0  0  0  0  0  0  0
   10.4390    2.8862   -0.0868 C   0  0  0  0  0  0  0  0  0  0  0  0
   11.3175    2.7067   -1.1898 C   0  0  0  0  0  0  0  0  0  0  0  0
    9.2398    2.1489   -1.8539 C   0  0  0  0  0  0  0  0  0  0  0  0
    4.1285    0.9949   -1.9275 N   0  0  0  0  0  0  0  0  0  0  0  0
   10.5626    2.2684   -2.2685 N   0  0  0  0  0  0  0  0  0  0  0  0
    8.0257    1.5747   -3.0065 S   0  0  0  0  0  0  0  0  0  0  0  0
    2.0474    1.0029   -2.1671 H   0  0  0  0  0  0  0  0  0  0  0  0
    2.8810   -0.0411   -3.3445 H   0  0  0  0  0  0  0  0  0  0  0  0
    2.9535    1.7345   -3.5031 H   0  0  0  0  0  0  0  0  0  0  0  0
    3.1768    0.0695   -0.3077 H   0  0  0  0  0  0  0  0  0  0  0  0
    4.9398    0.0715   -0.2124 H   0  0  0  0  0  0  0  0  0  0  0  0
    4.1179   -1.0639   -1.3127 H   0  0  0  0  0  0  0  0  0  0  0  0
   11.4661    0.8726   -3.5841 H   0  0  0  0  0  0  0  0  0  0  0  0
   11.9245    2.5790   -3.8150 H   0  0  0  0  0  0  0  0  0  0  0  0
   10.3294    2.0215   -4.3324 H   0  0  0  0  0  0  0  0  0  0  0  0
   12.7454    3.9470    2.1694 H   0  0  0  0  0  0  0  0  0  0  0  0
   14.2455    3.6058    0.2297 H   0  0  0  0  0  0  0  0  0  0  0  0
   10.3132    3.4938    1.9897 H   0  0  0  0  0  0  0  0  0  0  0  0
   13.3563    2.8012   -1.9408 H   0  0  0  0  0  0  0  0  0  0  0  0
    5.6057   -0.0509   -3.0722 H   0  0  0  0  0  0  0  0  0  0  0  0
    5.2053    1.5900   -3.6006 H   0  0  0  0  0  0  0  0  0  0  0  0
    6.7850    0.9278   -1.0487 H   0  0  0  0  0  0  0  0  0  0  0  0
    6.3106    2.5542   -1.5893 H   0  0  0  0  0  0  0  0  0  0  0  0
    8.2158    2.5593    0.0460 H   0  0  0  0  0  0  0  0  0  0  0  0
  1 17  1  0  0  0  0
  1 14  1  0  0  0  0
  2 20  1  0  0  0  0
  2 21  1  0  0  0  0
  3 15  1  0  0  0  0
  4 26  1  0  0  0  0
  5 27  1  0  0  0  0
  5  4  2  0  0  0  0
  6  4  1  0  0  0  0
  6 28  1  0  0  0  0
  7  5  1  0  0  0  0
  8 14  1  0  0  0  0
  8  9  1  0  0  0  0
  9 33  1  0  0  0  0
  9 32  1  0  0  0  0
 10 11  1  0  0  0  0
 10 34  1  0  0  0  0
 11  6  2  0  0  0  0
 12  7  2  0  0  0  0
 12 11  1  0  0  0  0
 13 10  2  0  0  0  0
 14  2  1  0  0  0  0
 15 13  1  0  0  0  0
 15 12  1  0  0  0  0
 16  9  1  0  0  0  0
 16 13  1  0  0  0  0
 18  1  1  0  0  0  0
 19  1  1  0  0  0  0
 22  2  1  0  0  0  0
 23  3  1  0  0  0  0
 24  3  1  0  0  0  0
 25  3  1  0  0  0  0
 29  7  1  0  0  0  0
 30  8  1  0  0  0  0
 31  8  1  0  0  0  0
M  END
>  <HBA>
3

>  <HBD>
0

>  <TPSA>
33.47

>  <cid>
33769

>  <dipole>
2.45

>  <excitation_energy_1>
4.42

>  <excitation_energy_2>
4.481

>  <excitation_energy_3>
4.647

>  <excitation_energy_4>
4.691

>  <homo_energy>
-5.021

>  <homo_lumo_gap>
5.034

>  <logP>
2.832

>  <lumo_energy>
0.014

>  <melting_point>
65.28

>  <molecular_refractivity>
72.24

>  <oscillator_strength_1>
0.1146

>  <oscillator_strength_2>
0.1327

>  <oscillator_strength_3>
0.0021

>  <oscillator_strength_4>
0.0234

>  <open_babel_can_smiles>
CN(CCSc1cc2c(n1C)cccc2)C

>  <mulliken_charges>
34
1   -0.297131
2   -0.303735
3   -0.329738
4   -0.137542
5   -0.153557
6   -0.211679
7   -0.168593
8   -0.130287
9   -0.421661
10   -0.260977
11   0.119901
12   0.309371
13   0.098704
14   -0.37068
15   -0.540945
16   0.134761
17   0.152069
18   0.121496
19   0.152888
20   0.153998
21   0.152576
22   0.122498
23   0.173272
24   0.173495
25   0.187522
26   0.117425
27   0.119128
28   0.120467
29   0.120829
30   0.131433
31   0.154941
32   0.185408
33   0.194549
34   0.129793

>  <lowdin_charges>
34
1   -0.356325
2   -0.357838
3   -0.347793
4   -0.175972
5   -0.167053
6   -0.167505
7   -0.193368
8   -0.202043
9   -0.368216
10   -0.256529
11   -0.019613
12   0.026968
13   -0.091017
14   -0.182631
15   -0.038238
16   0.151179
17   0.152113
18   0.122394
19   0.152073
20   0.153504
21   0.150993
22   0.12186
23   0.157017
24   0.166139
25   0.174314
26   0.153374
27   0.152304
28   0.155166
29   0.155651
30   0.127726
31   0.154621
32   0.16448
33   0.168793
34   0.163473

$$$$

