PCCDB-ID:  16999
public computational chemistry database (PCCDB) project, http://pccdb.org

 18 18  0  0  0  0  0  0  0  0999 V2000
    3.2825    1.6429   -0.1589 C   0  0  0  0  0  0  0  0  0  0  0  0
    1.7944   -0.8342   -2.3868 C   0  0  0  0  0  0  0  0  0  0  0  0
    0.6342   -1.1471   -2.9988 C   0  0  0  0  0  0  0  0  0  0  0  0
   -0.5046   -3.2615   -3.6842 C   0  0  0  0  0  0  0  0  0  0  0  0
    0.9747   -3.5168   -3.7063 C   0  0  0  0  0  0  0  0  0  0  0  0
    1.8643    0.3578   -1.5345 C   0  0  0  0  0  0  0  0  0  0  0  0
    0.4463   -2.1807   -3.8973 N   0  0  0  0  0  0  0  0  0  0  0  0
    0.9521    1.1302   -1.2948 O   0  0  0  0  0  0  0  0  0  0  0  0
    3.1123    0.5045   -1.0118 O   0  0  0  0  0  0  0  0  0  0  0  0
    4.3260    1.6193    0.1585 H   0  0  0  0  0  0  0  0  0  0  0  0
    2.6179    1.5819    0.7079 H   0  0  0  0  0  0  0  0  0  0  0  0
    3.0681    2.5690   -0.7000 H   0  0  0  0  0  0  0  0  0  0  0  0
    2.6934   -1.4282   -2.5127 H   0  0  0  0  0  0  0  0  0  0  0  0
   -0.2343   -0.5085   -2.8505 H   0  0  0  0  0  0  0  0  0  0  0  0
   -1.0056   -3.3159   -2.7186 H   0  0  0  0  0  0  0  0  0  0  0  0
   -1.1176   -3.5284   -4.5420 H   0  0  0  0  0  0  0  0  0  0  0  0
    1.4330   -3.9770   -4.5785 H   0  0  0  0  0  0  0  0  0  0  0  0
    1.4606   -3.7338   -2.7556 H   0  0  0  0  0  0  0  0  0  0  0  0
  1 10  1  0  0  0  0
  1 11  1  0  0  0  0
  2  6  1  0  0  0  0
  3 14  1  0  0  0  0
  3  2  2  0  0  0  0
  4 15  1  0  0  0  0
  5  4  1  0  0  0  0
  5 18  1  0  0  0  0
  6  8  2  0  0  0  0
  6  9  1  0  0  0  0
  7  5  1  0  0  0  0
  7  4  1  0  0  0  0
  7  3  1  0  0  0  0
  9  1  1  0  0  0  0
 12  1  1  0  0  0  0
 13  2  1  0  0  0  0
 16  4  1  0  0  0  0
 17  5  1  0  0  0  0
M  END
>  <HBA>
3

>  <HBD>
0

>  <TPSA>
29.31

>  <cid>
16999

>  <dipole>
2.9

>  <excitation_energy_1>
4.945

>  <excitation_energy_2>
5.067

>  <excitation_energy_3>
5.866

>  <excitation_energy_4>
5.996

>  <homo_energy>
-6.142

>  <homo_lumo_gap>
5.459

>  <logP>
-0.073

>  <lumo_energy>
-0.683

>  <melting_point>
6.96

>  <molecular_refractivity>
36.46

>  <oscillator_strength_1>
0.0504

>  <oscillator_strength_2>
0.482

>  <oscillator_strength_3>
0.0353

>  <oscillator_strength_4>
0.0234

>  <open_babel_can_smiles>
COC(=O)/C=C/N1CC1

>  <mulliken_charges>
18
1   -0.21233
2   -0.230935
3   0.065957
4   -0.192054
5   -0.194894
6   0.618073
7   -0.352266
8   -0.51386
9   -0.474843
10   0.157645
11   0.164747
12   0.166879
13   0.141348
14   0.177467
15   0.168865
16   0.171005
17   0.171407
18   0.167788

>  <lowdin_charges>
18
1   -0.278238
2   -0.261142
3   -0.052702
4   -0.223165
5   -0.226181
6   0.197012
7   -0.126959
8   -0.294841
9   -0.20232
10   0.155289
11   0.156376
12   0.157391
13   0.167918
14   0.177559
15   0.160253
16   0.166081
17   0.167485
18   0.160182

$$$$

