PCCDB-ID:  4101
public computational chemistry database (PCCDB) project, http://pccdb.org

 22 24  0  0  1  0  0  0  0  0999 V2000
   -0.7342    0.9798    1.1598 C   0  0  0  0  0  0  0  0  0  0  0  0
   -0.9400    0.7185   -1.2020 C   0  0  0  0  0  0  0  0  0  0  0  0
   -1.1924   -1.1700    0.2336 C   0  0  0  0  0  0  0  0  0  0  0  0
    1.1927    1.1696   -0.2330 C   0  0  0  0  0  0  0  0  0  0  0  0
    0.9399   -0.7190    1.2019 C   0  0  0  0  0  0  0  0  0  0  0  0
    0.7340   -0.9794   -1.1603 C   0  0  0  0  0  0  0  0  0  0  0  0
   -1.4776    0.2724    0.0987 N   0  0  1  0  0  0  0  0  0  0  0  0
    0.7206    0.7371    1.0975 N   0  0  2  0  0  0  0  0  0  0  0  0
    0.5087    0.4690   -1.3379 N   0  0  1  0  0  0  0  0  0  0  0  0
    0.2483   -1.4781    0.1415 N   0  0  2  0  0  0  0  0  0  0  0  0
   -1.1080    0.6494    2.1357 H   0  0  0  0  0  0  0  0  0  0  0  0
   -0.9191    2.0561    1.0662 H   0  0  0  0  0  0  0  0  0  0  0  0
   -1.1272    1.7927   -1.3138 H   0  0  0  0  0  0  0  0  0  0  0  0
   -1.4681    0.1908   -2.0043 H   0  0  0  0  0  0  0  0  0  0  0  0
   -1.7226   -1.7120   -0.5579 H   0  0  0  0  0  0  0  0  0  0  0  0
   -1.5690   -1.5175    1.2025 H   0  0  0  0  0  0  0  0  0  0  0  0
    2.2699    0.9816   -0.3062 H   0  0  0  0  0  0  0  0  0  0  0  0
    1.0227    2.2474   -0.3368 H   0  0  0  0  0  0  0  0  0  0  0  0
    0.5797   -1.0638    2.1780 H   0  0  0  0  0  0  0  0  0  0  0  0
    2.0153   -0.9215    1.1402 H   0  0  0  0  0  0  0  0  0  0  0  0
    1.8077   -1.1843   -1.2408 H   0  0  0  0  0  0  0  0  0  0  0  0
    0.2184   -1.5199   -1.9622 H   0  0  0  0  0  0  0  0  0  0  0  0
  1 11  1  0  0  0  0
  3 16  1  0  0  0  0
  5 19  1  0  0  0  0
  7  2  1  6  0  0  0
  7  3  1  0  0  0  0
  7  1  1  0  0  0  0
  8  4  1  6  0  0  0
  8  1  1  0  0  0  0
  8  5  1  0  0  0  0
  9  2  1  1  0  0  0
  9  6  1  0  0  0  0
  9  4  1  0  0  0  0
 10  6  1  6  0  0  0
 10  3  1  0  0  0  0
 10  5  1  0  0  0  0
 12  1  1  0  0  0  0
 13  2  1  0  0  0  0
 14  2  1  0  0  0  0
 15  3  1  0  0  0  0
 17  4  1  0  0  0  0
 18  4  1  0  0  0  0
 20  5  1  0  0  0  0
 21  6  1  0  0  0  0
 22  6  1  0  0  0  0
M  END
>  <HBA>
4

>  <HBD>
0

>  <TPSA>
12.96

>  <cid>
4101

>  <dipole>
0.0

>  <excitation_energy_1>
5.42

>  <excitation_energy_2>
5.421

>  <excitation_energy_3>
5.423

>  <excitation_energy_4>
5.943

>  <homo_energy>
-5.891

>  <homo_lumo_gap>
7.872

>  <logP>
-1.268

>  <lumo_energy>
1.981

>  <melting_point>
51.72

>  <molecular_refractivity>
51.86

>  <oscillator_strength_1>
0.0

>  <oscillator_strength_2>
0.0

>  <oscillator_strength_3>
0.0

>  <oscillator_strength_4>
0.0

>  <open_babel_can_smiles>
C1N2CN3CN1CN(C2)C3

>  <mulliken_charges>
22
1   -0.062016
2   -0.062313
3   -0.062262
4   -0.062177
5   -0.062317
6   -0.062368
7   -0.358685
8   -0.358699
9   -0.358608
10   -0.358303
11   0.150569
12   0.150608
13   0.150628
14   0.150675
15   0.150638
16   0.150661
17   0.15068
18   0.150668
19   0.15066
20   0.150643
21   0.150655
22   0.150662

>  <lowdin_charges>
22
1   -0.153706
2   -0.154835
3   -0.155885
4   -0.152072
5   -0.153704
6   -0.15486
7   -0.211862
8   -0.211803
9   -0.211832
10   -0.211667
11   0.148114
12   0.146397
13   0.146463
14   0.149736
15   0.149756
16   0.148287
17   0.146344
18   0.146326
19   0.148128
20   0.146434
21   0.146495
22   0.149746

$$$$

