PCCDB-ID:  44674
public computational chemistry database (PCCDB) project, http://pccdb.org

 26 25  0  0  1  0  0  0  0  0999 V2000
    3.1770   -1.4173   -2.4969 C   0  0  0  0  0  0  0  0  0  0  0  0
    2.6244    4.6074   -2.2105 C   0  0  0  0  0  0  0  0  0  0  0  0
    4.5955    3.0922   -2.6588 C   0  0  0  0  0  0  0  0  0  0  0  0
    2.5925   -0.0038   -2.4203 C   0  0  0  0  0  0  0  0  0  0  0  0
    3.0799    3.1530   -2.4113 C   0  0  0  0  0  0  0  0  0  0  0  0
    3.1040    0.7983   -1.2078 C   0  0  1  0  0  0  0  0  0  0  0  0
    2.6392    2.2815   -1.2146 C   0  0  2  0  0  0  0  0  0  0  0  0
    2.6919    0.1116    0.0271 N   0  0  0  0  0  0  0  0  0  0  0  0
    1.2144    2.3407   -1.0329 O   0  0  0  0  0  0  0  0  0  0  0  0
    2.7501   -1.9770   -3.3371 H   0  0  0  0  0  0  0  0  0  0  0  0
    2.9760   -1.9618   -1.5708 H   0  0  0  0  0  0  0  0  0  0  0  0
    4.2648   -1.3835   -2.6378 H   0  0  0  0  0  0  0  0  0  0  0  0
    2.8541    5.2145   -3.0939 H   0  0  0  0  0  0  0  0  0  0  0  0
    3.1397    5.0593   -1.3527 H   0  0  0  0  0  0  0  0  0  0  0  0
    1.5495    4.6630   -2.0189 H   0  0  0  0  0  0  0  0  0  0  0  0
    4.8788    3.7799   -3.4638 H   0  0  0  0  0  0  0  0  0  0  0  0
    4.9349    2.0915   -2.9453 H   0  0  0  0  0  0  0  0  0  0  0  0
    5.1522    3.3923   -1.7613 H   0  0  0  0  0  0  0  0  0  0  0  0
    1.4954   -0.0702   -2.3630 H   0  0  0  0  0  0  0  0  0  0  0  0
    2.8244    0.5382   -3.3466 H   0  0  0  0  0  0  0  0  0  0  0  0
    2.5744    2.7658   -3.3107 H   0  0  0  0  0  0  0  0  0  0  0  0
    4.2014    0.7841   -1.2295 H   0  0  0  0  0  0  0  0  0  0  0  0
    3.0387    2.7437   -0.3004 H   0  0  0  0  0  0  0  0  0  0  0  0
    1.7150    0.3564    0.1978 H   0  0  0  0  0  0  0  0  0  0  0  0
    3.2098    0.4955    0.8174 H   0  0  0  0  0  0  0  0  0  0  0  0
    0.8080    2.0449   -1.8637 H   0  0  0  0  0  0  0  0  0  0  0  0
  1  4  1  0  0  0  0
  1 11  1  0  0  0  0
  2 15  1  0  0  0  0
  2 14  1  0  0  0  0
  3  5  1  0  0  0  0
  3 18  1  0  0  0  0
  4 19  1  0  0  0  0
  4  6  1  0  0  0  0
  5  2  1  0  0  0  0
  5  7  1  0  0  0  0
  6 22  1  6  0  0  0
  6  8  1  0  0  0  0
  7  6  1  0  0  0  0
  7  9  1  0  0  0  0
  7 23  1  1  0  0  0
  8 24  1  0  0  0  0
  8 25  1  0  0  0  0
 10  1  1  0  0  0  0
 12  1  1  0  0  0  0
 13  2  1  0  0  0  0
 16  3  1  0  0  0  0
 17  3  1  0  0  0  0
 20  4  1  0  0  0  0
 21  5  1  0  0  0  0
 26  9  1  0  0  0  0
M  END
>  <HBA>
2

>  <HBD>
2

>  <TPSA>
46.25

>  <cid>
44674

>  <dipole>
1.49

>  <excitation_energy_1>
5.654

>  <excitation_energy_2>
5.819

>  <excitation_energy_3>
6.134

>  <excitation_energy_4>
6.437

>  <homo_energy>
-6.15

>  <homo_lumo_gap>
7.943

>  <logP>
1.441

>  <lumo_energy>
1.793

>  <melting_point>
45.64

>  <molecular_refractivity>
39.63

>  <oscillator_strength_1>
0.0156

>  <oscillator_strength_2>
0.0029

>  <oscillator_strength_3>
0.0027

>  <oscillator_strength_4>
0.0015

>  <open_babel_can_smiles>
CC[C@@H]([C@@H](C(C)C)O)N

>  <mulliken_charges>
26
1   -0.440431
2   -0.441461
3   -0.456358
4   -0.262831
5   -0.099029
6   0.005965
7   0.132828
8   -0.712939
9   -0.635498
10   0.133742
11   0.176738
12   0.133657
13   0.137442
14   0.138495
15   0.157535
16   0.146172
17   0.15059
18   0.142425
19   0.118013
20   0.131658
21   0.114287
22   0.126503
23   0.11747
24   0.30361
25   0.290955
26   0.390461

>  <lowdin_charges>
26
1   -0.443046
2   -0.445626
3   -0.448266
4   -0.282367
5   -0.140244
6   -0.084669
7   -0.020418
8   -0.548643
9   -0.4658
10   0.146315
11   0.164562
12   0.141283
13   0.147385
14   0.146854
15   0.155032
16   0.15353
17   0.150091
18   0.14811
19   0.131841
20   0.139702
21   0.132406
22   0.13828
23   0.136933
24   0.254367
25   0.253049
26   0.33934

$$$$

