PCCDB-ID:  33520
public computational chemistry database (PCCDB) project, http://pccdb.org

 15 15  0  0  0  0  0  0  0  0999 V2000
   -1.1771   -1.7225    0.4558 C   0  0  0  0  0  0  0  0  0  0  0  0
   -0.0503   -1.7916   -0.3640 C   0  0  0  0  0  0  0  0  0  0  0  0
   -1.6189   -0.4890    0.9274 C   0  0  0  0  0  0  0  0  0  0  0  0
    0.5984   -0.5998   -0.6825 C   0  0  0  0  0  0  0  0  0  0  0  0
   -0.8984    0.6409    0.5222 C   0  0  0  0  0  0  0  0  0  0  0  0
    0.1862    0.5988   -0.2578 N   0  0  0  0  0  0  0  0  0  0  0  0
   -1.1748    1.9626    0.9452 N   0  0  0  0  0  0  0  0  0  0  0  0
   -2.4318    2.4880    1.1975 N   0  0  0  0  0  0  0  0  0  0  0  0
   -2.4903    3.7142    1.1730 O   0  0  0  0  0  0  0  0  0  0  0  0
   -3.3454    1.7131    1.4605 O   0  0  0  0  0  0  0  0  0  0  0  0
   -1.7108   -2.6253    0.7389 H   0  0  0  0  0  0  0  0  0  0  0  0
    0.3196   -2.7391   -0.7420 H   0  0  0  0  0  0  0  0  0  0  0  0
   -2.4799   -0.3979    1.5726 H   0  0  0  0  0  0  0  0  0  0  0  0
    1.4867   -0.5980   -1.3108 H   0  0  0  0  0  0  0  0  0  0  0  0
   -0.5668    2.6721    0.5496 H   0  0  0  0  0  0  0  0  0  0  0  0
  1 11  1  0  0  0  0
  1  3  2  0  0  0  0
  2  1  1  0  0  0  0
  3 13  1  0  0  0  0
  4  2  2  0  0  0  0
  4  6  1  0  0  0  0
  5  3  1  0  0  0  0
  5  7  1  0  0  0  0
  6  5  2  0  0  0  0
  7  8  1  0  0  0  0
  8 10  2  0  0  0  0
  9  8  2  0  0  0  0
 12  2  1  0  0  0  0
 14  4  1  0  0  0  0
 15  7  1  0  0  0  0
M  END
>  <HBA>
2

>  <HBD>
1

>  <TPSA>
70.74

>  <cid>
33520

>  <dipole>
4.2

>  <excitation_energy_1>
4.4

>  <excitation_energy_2>
4.658

>  <excitation_energy_3>
4.934

>  <excitation_energy_4>
5.087

>  <homo_energy>
-6.985

>  <homo_lumo_gap>
5.203

>  <logP>
1.281

>  <lumo_energy>
-1.782

>  <melting_point>
84.79

>  <molecular_refractivity>
36.84

>  <oscillator_strength_1>
0.0978

>  <oscillator_strength_2>
0.1512

>  <oscillator_strength_3>
0.0037

>  <oscillator_strength_4>
0.0101

>  <open_babel_can_smiles>
O=N(=O)Nc1ccccn1

>  <mulliken_charges>
15
1   -0.109196
2   -0.139658
3   -0.139028
4   0.046625
5   0.484808
6   -0.494093
7   -0.476611
8   0.627319
9   -0.402264
10   -0.409804
11   0.156191
12   0.147262
13   0.187333
14   0.153984
15   0.367131

>  <lowdin_charges>
15
1   -0.116193
2   -0.18082
3   -0.183037
4   -0.076399
5   0.0932
6   -0.167184
7   -0.200135
8   0.339741
9   -0.256946
10   -0.256804
11   0.170931
12   0.16973
13   0.189747
14   0.163275
15   0.310894

$$$$

