PCCDB-ID:  18170
public computational chemistry database (PCCDB) project, http://pccdb.org

 17 17  0  0  0  0  0  0  0  0999 V2000
   -1.5343    0.0676    0.0218 C   0  0  0  0  0  0  0  0  0  0  0  0
   -0.7976    1.2534   -0.0085 C   0  0  0  0  0  0  0  0  0  0  0  0
   -0.8747   -1.1619   -0.0316 C   0  0  0  0  0  0  0  0  0  0  0  0
    0.5936    1.2095   -0.0927 C   0  0  0  0  0  0  0  0  0  0  0  0
    0.5166   -1.2048   -0.1157 C   0  0  0  0  0  0  0  0  0  0  0  0
    2.7647   -0.0673   -0.2374 C   0  0  0  0  0  0  0  0  0  0  0  0
    5.1278   -0.1385    1.1487 C   0  0  0  0  0  0  0  0  0  0  0  0
    1.2641   -0.0198   -0.1522 C   0  0  0  0  0  0  0  0  0  0  0  0
    6.2729   -0.1749    0.9272 N   0  0  0  0  0  0  0  0  0  0  0  0
    3.4650   -0.0856    1.5063 S   0  0  0  0  0  0  0  0  0  0  0  0
   -2.6184    0.1017    0.0846 H   0  0  0  0  0  0  0  0  0  0  0  0
   -1.3060    2.2128    0.0308 H   0  0  0  0  0  0  0  0  0  0  0  0
   -1.4431   -2.0875   -0.0105 H   0  0  0  0  0  0  0  0  0  0  0  0
    1.1652    2.1343   -0.1163 H   0  0  0  0  0  0  0  0  0  0  0  0
    1.0282   -2.1635   -0.1574 H   0  0  0  0  0  0  0  0  0  0  0  0
    3.1759    0.8102   -0.7401 H   0  0  0  0  0  0  0  0  0  0  0  0
    3.1191   -0.9712   -0.7365 H   0  0  0  0  0  0  0  0  0  0  0  0
  1 11  1  0  0  0  0
  2  1  1  0  0  0  0
  2 12  1  0  0  0  0
  3 13  1  0  0  0  0
  3  1  2  0  0  0  0
  4  2  2  0  0  0  0
  5  3  1  0  0  0  0
  6  8  1  0  0  0  0
  6 10  1  0  0  0  0
  7 10  1  0  0  0  0
  8  5  2  0  0  0  0
  8  4  1  0  0  0  0
  9  7  3  0  0  0  0
 14  4  1  0  0  0  0
 15  5  1  0  0  0  0
 16  6  1  0  0  0  0
 17  6  1  0  0  0  0
M  END
>  <HBA>
2

>  <HBD>
0

>  <TPSA>
49.09

>  <cid>
18170

>  <dipole>
5.01

>  <excitation_energy_1>
4.655

>  <excitation_energy_2>
5.139

>  <excitation_energy_3>
5.369

>  <excitation_energy_4>
5.522

>  <homo_energy>
-7.059

>  <homo_lumo_gap>
5.856

>  <logP>
2.401

>  <lumo_energy>
-1.203

>  <melting_point>
49.36

>  <molecular_refractivity>
43.55

>  <oscillator_strength_1>
0.0003

>  <oscillator_strength_2>
0.0041

>  <oscillator_strength_3>
0.172

>  <oscillator_strength_4>
0.0007

>  <open_babel_can_smiles>
N#CSCc1ccccc1

>  <mulliken_charges>
17
1   -0.124213
2   -0.127786
3   -0.127802
4   -0.160933
5   -0.161162
6   -0.510196
7   0.112751
8   0.137185
9   -0.383341
10   0.225825
11   0.140034
12   0.140796
13   0.140809
14   0.140471
15   0.140202
16   0.208783
17   0.208578

>  <lowdin_charges>
17
1   -0.144088
2   -0.150215
3   -0.150708
4   -0.154166
5   -0.15374
6   -0.347712
7   -0.175083
8   -0.021885
9   -0.12125
10   0.245491
11   0.160847
12   0.163286
13   0.163635
14   0.163241
15   0.162763
16   0.179949
17   0.179638

$$$$

