PCCDB-ID:  11889
public computational chemistry database (PCCDB) project, http://pccdb.org

 21 21  0  0  0  0  0  0  0  0999 V2000
    1.0735   -0.0241    0.8409 C   0  0  0  0  0  0  0  0  0  0  0  0
    2.5305    0.3110    1.1029 C   0  0  0  0  0  0  0  0  0  0  0  0
    7.3961   -1.0265    1.6399 C   0  0  0  0  0  0  0  0  0  0  0  0
    6.7130    0.1878    1.7183 C   0  0  0  0  0  0  0  0  0  0  0  0
    6.6867   -2.1793    1.3230 C   0  0  0  0  0  0  0  0  0  0  0  0
    5.3402    0.2542    1.4894 C   0  0  0  0  0  0  0  0  0  0  0  0
    5.3166   -2.1194    1.0702 C   0  0  0  0  0  0  0  0  0  0  0  0
    4.6066   -0.8975    1.1575 C   0  0  0  0  0  0  0  0  0  0  0  0
    4.6560   -3.3786    0.7048 N   0  0  0  0  0  0  0  0  0  0  0  0
    5.1728   -4.4210    1.1178 O   0  0  0  0  0  0  0  0  0  0  0  0
    3.6549   -3.3330   -0.0051 O   0  0  0  0  0  0  0  0  0  0  0  0
    3.2743   -0.9057    0.9600 O   0  0  0  0  0  0  0  0  0  0  0  0
    0.4609    0.8790    0.9344 H   0  0  0  0  0  0  0  0  0  0  0  0
    0.7138   -0.7667    1.5593 H   0  0  0  0  0  0  0  0  0  0  0  0
    0.9483   -0.4308   -0.1668 H   0  0  0  0  0  0  0  0  0  0  0  0
    2.6703    0.7120    2.1161 H   0  0  0  0  0  0  0  0  0  0  0  0
    2.9007    1.0548    0.3845 H   0  0  0  0  0  0  0  0  0  0  0  0
    8.4645   -1.0763    1.8224 H   0  0  0  0  0  0  0  0  0  0  0  0
    7.2493    1.0997    1.9661 H   0  0  0  0  0  0  0  0  0  0  0  0
    7.1722   -3.1457    1.2612 H   0  0  0  0  0  0  0  0  0  0  0  0
    4.8342    1.2081    1.5709 H   0  0  0  0  0  0  0  0  0  0  0  0
  1 13  1  0  0  0  0
  1  2  1  0  0  0  0
  1 14  1  0  0  0  0
  2 16  1  0  0  0  0
  3  4  1  0  0  0  0
  3 18  1  0  0  0  0
  4 19  1  0  0  0  0
  5  3  2  0  0  0  0
  6 21  1  0  0  0  0
  6  4  2  0  0  0  0
  7  8  2  0  0  0  0
  7  5  1  0  0  0  0
  8  6  1  0  0  0  0
  9  7  1  0  0  0  0
  9 10  2  0  0  0  0
 11  9  2  0  0  0  0
 12  2  1  0  0  0  0
 12  8  1  0  0  0  0
 15  1  1  0  0  0  0
 17  2  1  0  0  0  0
 20  5  1  0  0  0  0
M  END
>  <HBA>
1

>  <HBD>
0

>  <TPSA>
55.05

>  <cid>
11889

>  <dipole>
5.48

>  <excitation_energy_1>
3.677

>  <excitation_energy_2>
3.78

>  <excitation_energy_3>
4.258

>  <excitation_energy_4>
4.84

>  <homo_energy>
-6.596

>  <homo_lumo_gap>
4.574

>  <logP>
2.517

>  <lumo_energy>
-2.022

>  <melting_point>
47.55

>  <molecular_refractivity>
46.56

>  <oscillator_strength_1>
0.0266

>  <oscillator_strength_2>
0.0529

>  <oscillator_strength_3>
0.0029

>  <oscillator_strength_4>
0.1045

>  <open_babel_can_smiles>
CCOc1ccccc1N(=O)=O

>  <mulliken_charges>
21
1   -0.457224
2   -0.041629
3   -0.144909
4   -0.116263
5   -0.148136
6   -0.21087
7   0.226686
8   0.386829
9   0.355246
10   -0.396885
11   -0.376431
12   -0.490917
13   0.150679
14   0.171642
15   0.176754
16   0.147355
17   0.1494
18   0.143962
19   0.144804
20   0.180982
21   0.148926

>  <lowdin_charges>
21
1   -0.446409
2   -0.123142
3   -0.170863
4   -0.125915
5   -0.127896
6   -0.209999
7   -0.023157
8   0.11877
9   0.307477
10   -0.259843
11   -0.233199
12   -0.17076
13   0.159133
14   0.165736
15   0.166577
16   0.141333
17   0.1442
18   0.164758
19   0.166159
20   0.186583
21   0.170458

$$$$

