PCCDB-ID:  31647
public computational chemistry database (PCCDB) project, http://pccdb.org

 30 31  0  0  0  0  0  0  0  0999 V2000
   -1.3332    0.4404    1.4045 C   0  0  0  0  0  0  0  0  0  0  0  0
   -0.8189    1.3432    0.4720 C   0  0  0  0  0  0  0  0  0  0  0  0
   -0.4731   -0.4167    2.0985 C   0  0  0  0  0  0  0  0  0  0  0  0
    4.9560    4.0079   -0.7485 C   0  0  0  0  0  0  0  0  0  0  0  0
    3.9296    4.1317    0.1891 C   0  0  0  0  0  0  0  0  0  0  0  0
    0.5549    1.4033    0.2420 C   0  0  0  0  0  0  0  0  0  0  0  0
    0.8961   -0.3710    1.8593 C   0  0  0  0  0  0  0  0  0  0  0  0
    5.2930    2.7526   -1.2500 C   0  0  0  0  0  0  0  0  0  0  0  0
    3.2462    2.9945    0.6067 C   0  0  0  0  0  0  0  0  0  0  0  0
    5.0888    0.2685   -1.4187 C   0  0  0  0  0  0  0  0  0  0  0  0
    1.4264    0.5487    0.9377 C   0  0  0  0  0  0  0  0  0  0  0  0
    4.6351    1.5908   -0.8257 C   0  0  0  0  0  0  0  0  0  0  0  0
    3.5903    1.7190    0.1208 C   0  0  0  0  0  0  0  0  0  0  0  0
    6.3793   -0.2340   -0.7409 C   0  0  0  0  0  0  0  0  0  0  0  0
    2.8970    0.5235    0.6880 C   0  0  0  0  0  0  0  0  0  0  0  0
    7.4558   -0.1959   -1.2897 O   0  0  0  0  0  0  0  0  0  0  0  0
    6.2305   -0.6932    0.5092 O   0  0  0  0  0  0  0  0  0  0  0  0
    3.5307   -0.5019    0.9686 O   0  0  0  0  0  0  0  0  0  0  0  0
   -2.4035    0.4005    1.5877 H   0  0  0  0  0  0  0  0  0  0  0  0
   -1.4872    1.9990   -0.0786 H   0  0  0  0  0  0  0  0  0  0  0  0
   -0.8734   -1.1218    2.8214 H   0  0  0  0  0  0  0  0  0  0  0  0
    5.4948    4.8873   -1.0901 H   0  0  0  0  0  0  0  0  0  0  0  0
    3.6635    5.1045    0.5919 H   0  0  0  0  0  0  0  0  0  0  0  0
    0.9491    2.0965   -0.4935 H   0  0  0  0  0  0  0  0  0  0  0  0
    1.5765   -1.0383    2.3776 H   0  0  0  0  0  0  0  0  0  0  0  0
    6.0936    2.6583   -1.9788 H   0  0  0  0  0  0  0  0  0  0  0  0
    2.4540    3.0839    1.3432 H   0  0  0  0  0  0  0  0  0  0  0  0
    5.3301    0.4042   -2.4749 H   0  0  0  0  0  0  0  0  0  0  0  0
    4.3133   -0.4973   -1.3355 H   0  0  0  0  0  0  0  0  0  0  0  0
    5.2799   -0.6412    0.7759 H   0  0  0  0  0  0  0  0  0  0  0  0
  1 19  1  0  0  0  0
  1  3  2  0  0  0  0
  2  1  1  0  0  0  0
  3 21  1  0  0  0  0
  4  5  2  0  0  0  0
  5 23  1  0  0  0  0
  5  9  1  0  0  0  0
  6  2  2  0  0  0  0
  6 11  1  0  0  0  0
  7  3  1  0  0  0  0
  7 25  1  0  0  0  0
  8 12  2  0  0  0  0
  8  4  1  0  0  0  0
  9 27  1  0  0  0  0
 10 29  1  0  0  0  0
 10 12  1  0  0  0  0
 10 14  1  0  0  0  0
 11  7  2  0  0  0  0
 12 13  1  0  0  0  0
 13  9  2  0  0  0  0
 13 15  1  0  0  0  0
 14 17  1  0  0  0  0
 15 11  1  0  0  0  0
 15 18  2  0  0  0  0
 16 14  2  0  0  0  0
 17 30  1  0  0  0  0
 20  2  1  0  0  0  0
 22  4  1  0  0  0  0
 24  6  1  0  0  0  0
 26  8  1  0  0  0  0
 28 10  1  0  0  0  0
M  END
>  <HBA>
3

>  <HBD>
1

>  <TPSA>
54.37

>  <cid>
31647

>  <dipole>
8.1

>  <excitation_energy_1>
3.724

>  <excitation_energy_2>
3.812

>  <excitation_energy_3>
4.306

>  <excitation_energy_4>
4.397

>  <homo_energy>
-6.615

>  <homo_lumo_gap>
4.261

>  <logP>
2.545

>  <lumo_energy>
-2.354

>  <melting_point>
145.08

>  <molecular_refractivity>
67.86

>  <oscillator_strength_1>
0.0419

>  <oscillator_strength_2>
0.0044

>  <oscillator_strength_3>
0.0657

>  <oscillator_strength_4>
0.0326

>  <open_babel_can_smiles>
OC(=O)Cc1ccccc1C(=O)c1ccccc1

>  <mulliken_charges>
30
1   -0.115705
2   -0.135519
3   -0.133851
4   -0.111418
5   -0.135192
6   -0.172582
7   -0.148911
8   -0.17813
9   -0.169786
10   -0.464166
11   0.069451
12   0.126163
13   0.019339
14   0.595197
15   0.3367
16   -0.454259
17   -0.590747
18   -0.504385
19   0.145365
20   0.143992
21   0.146221
22   0.146732
23   0.142943
24   0.156606
25   0.167407
26   0.159232
27   0.153617
28   0.179775
29   0.17712
30   0.448791

>  <lowdin_charges>
30
1   -0.130371
2   -0.157226
3   -0.152421
4   -0.13316
5   -0.157934
6   -0.144038
7   -0.12614
8   -0.152166
9   -0.145055
10   -0.318098
11   -0.047628
12   0.016693
13   -0.057251
14   0.192887
15   0.175943
16   -0.259999
17   -0.361756
18   -0.266061
19   0.163446
20   0.166145
21   0.166683
22   0.167219
23   0.164511
24   0.172
25   0.179445
26   0.172435
27   0.169099
28   0.174081
29   0.172115
30   0.356602

$$$$

