PCCDB-ID:  35075
public computational chemistry database (PCCDB) project, http://pccdb.org

 29 29  0  0  0  0  0  0  0  0999 V2000
    3.4255   -2.2778   -1.1892 C   0  0  0  0  0  0  0  0  0  0  0  0
    3.6547   -0.1493   -6.2259 C   0  0  0  0  0  0  0  0  0  0  0  0
    4.4804   -2.1318   -0.3825 C   0  0  0  0  0  0  0  0  0  0  0  0
    4.4506   -0.4260   -5.1939 C   0  0  0  0  0  0  0  0  0  0  0  0
    5.1385   -0.8110   -0.0492 C   0  0  0  0  0  0  0  0  0  0  0  0
    5.1682   -1.7416   -4.9939 C   0  0  0  0  0  0  0  0  0  0  0  0
    9.2847   -0.9165   -2.5617 C   0  0  0  0  0  0  0  0  0  0  0  0
    7.1389   -0.9439   -1.3080 C   0  0  0  0  0  0  0  0  0  0  0  0
    7.1484   -1.2900   -3.7659 C   0  0  0  0  0  0  0  0  0  0  0  0
   10.5543   -0.8097   -2.6691 N   0  0  0  0  0  0  0  0  0  0  0  0
    6.5952   -0.8257   -0.1564 N   0  0  0  0  0  0  0  0  0  0  0  0
    6.6129   -1.5751   -4.8886 N   0  0  0  0  0  0  0  0  0  0  0  0
    8.5255   -0.8752   -1.3958 N   0  0  0  0  0  0  0  0  0  0  0  0
    8.5189   -1.0931   -3.7026 N   0  0  0  0  0  0  0  0  0  0  0  0
    6.5015   -1.1196   -2.5340 N   0  0  0  0  0  0  0  0  0  0  0  0
    2.9783   -3.2501   -1.3779 H   0  0  0  0  0  0  0  0  0  0  0  0
    2.9506   -1.4246   -1.6720 H   0  0  0  0  0  0  0  0  0  0  0  0
    3.1543    0.8105   -6.3232 H   0  0  0  0  0  0  0  0  0  0  0  0
    3.4737   -0.8738   -7.0174 H   0  0  0  0  0  0  0  0  0  0  0  0
    4.9267   -3.0056    0.0924 H   0  0  0  0  0  0  0  0  0  0  0  0
    4.6228    0.3315   -4.4280 H   0  0  0  0  0  0  0  0  0  0  0  0
    4.9055   -0.5572    0.9928 H   0  0  0  0  0  0  0  0  0  0  0  0
    4.6934   -0.0148   -0.6692 H   0  0  0  0  0  0  0  0  0  0  0  0
    4.9709   -2.3909   -5.8538 H   0  0  0  0  0  0  0  0  0  0  0  0
    4.7366   -2.2660   -4.1193 H   0  0  0  0  0  0  0  0  0  0  0  0
   10.9989   -0.6836   -1.7599 H   0  0  0  0  0  0  0  0  0  0  0  0
    8.9875   -0.6850   -0.5175 H   0  0  0  0  0  0  0  0  0  0  0  0
    9.0240   -1.1843   -4.5736 H   0  0  0  0  0  0  0  0  0  0  0  0
    5.5354   -1.4166   -2.4836 H   0  0  0  0  0  0  0  0  0  0  0  0
  1  3  2  0  0  0  0
  2  4  2  0  0  0  0
  3  5  1  0  0  0  0
  3 20  1  0  0  0  0
  4  6  1  0  0  0  0
  4 21  1  0  0  0  0
  5 22  1  0  0  0  0
  6 12  1  0  0  0  0
  6 25  1  0  0  0  0
  7 13  1  0  0  0  0
  8 11  2  0  0  0  0
  9 14  1  0  0  0  0
  9 15  1  0  0  0  0
 10  7  2  0  0  0  0
 10 26  1  0  0  0  0
 11  5  1  0  0  0  0
 12  9  2  0  0  0  0
 13  8  1  0  0  0  0
 13 27  1  0  0  0  0
 14  7  1  0  0  0  0
 15 29  1  0  0  0  0
 15  8  1  0  0  0  0
 16  1  1  0  0  0  0
 17  1  1  0  0  0  0
 18  2  1  0  0  0  0
 19  2  1  0  0  0  0
 23  5  1  0  0  0  0
 24  6  1  0  0  0  0
 28 14  1  0  0  0  0
M  END
>  <HBA>
6

>  <HBD>
3

>  <TPSA>
88.75

>  <cid>
35075

>  <dipole>
3.09

>  <excitation_energy_1>
5.138

>  <excitation_energy_2>
5.315

>  <excitation_energy_3>
5.502

>  <excitation_energy_4>
5.564

>  <homo_energy>
-6.106

>  <homo_lumo_gap>
5.954

>  <logP>
1.377

>  <lumo_energy>
-0.152

>  <melting_point>
126.25

>  <molecular_refractivity>
61.12

>  <oscillator_strength_1>
0.0372

>  <oscillator_strength_2>
0.0761

>  <oscillator_strength_3>
0.0498

>  <oscillator_strength_4>
0.0026

>  <open_babel_can_smiles>
C=CC/N=c/1\[nH]/c(=N\CC=C)/[nH]c(=N)[nH]1

>  <mulliken_charges>
29
1   -0.35259
2   -0.333632
3   -0.07076
4   -0.037893
5   -0.207602
6   -0.226166
7   0.693505
8   0.742475
9   0.733157
10   -0.652103
11   -0.503805
12   -0.477496
13   -0.704091
14   -0.67481
15   -0.743496
16   0.15378
17   0.14881
18   0.14254
19   0.140353
20   0.149036
21   0.128026
22   0.168947
23   0.140137
24   0.158066
25   0.128917
26   0.279188
27   0.348663
28   0.363181
29   0.365663

>  <lowdin_charges>
29
1   -0.351428
2   -0.332535
3   -0.156052
4   -0.155323
5   -0.204362
6   -0.201361
7   0.134219
8   0.142722
9   0.138483
10   -0.455543
11   -0.271095
12   -0.256479
13   -0.252609
14   -0.231441
15   -0.269712
16   0.165217
17   0.159205
18   0.159939
19   0.157579
20   0.162266
21   0.150025
22   0.161922
23   0.140032
24   0.157406
25   0.129692
26   0.255836
27   0.305411
28   0.315809
29   0.302178

$$$$

