PCCDB-ID:  31159
public computational chemistry database (PCCDB) project, http://pccdb.org

 23 23  0  0  0  0  0  0  0  0999 V2000
   -1.8683   -0.8615   -0.2702 C   0  0  0  0  0  0  0  0  0  0  0  0
   -1.1907   -2.0570   -0.0370 C   0  0  0  0  0  0  0  0  0  0  0  0
   -1.1517    0.3370   -0.3100 C   0  0  0  0  0  0  0  0  0  0  0  0
    0.1914   -2.0511    0.1542 C   0  0  0  0  0  0  0  0  0  0  0  0
    1.0164    1.6752   -0.1502 C   0  0  0  0  0  0  0  0  0  0  0  0
    1.8942    1.9053   -1.4114 C   0  0  0  0  0  0  0  0  0  0  0  0
    0.2369    0.3758   -0.1247 C   0  0  0  0  0  0  0  0  0  0  0  0
    0.8979   -0.8467    0.1121 C   0  0  0  0  0  0  0  0  0  0  0  0
    1.1246    2.2337   -2.6822 C   0  0  0  0  0  0  0  0  0  0  0  0
    1.2498    3.2682   -3.4107 N   0  0  0  0  0  0  0  0  0  0  0  0
    2.2545   -0.7904    0.3015 O   0  0  0  0  0  0  0  0  0  0  0  0
    0.2200    1.2990   -3.0865 O   0  0  0  0  0  0  0  0  0  0  0  0
   -2.9438   -0.8571   -0.4182 H   0  0  0  0  0  0  0  0  0  0  0  0
   -1.7312   -2.9987   -0.0031 H   0  0  0  0  0  0  0  0  0  0  0  0
   -1.6762    1.2723   -0.4894 H   0  0  0  0  0  0  0  0  0  0  0  0
    0.7247   -2.9821    0.3390 H   0  0  0  0  0  0  0  0  0  0  0  0
    0.3210    2.5151   -0.0391 H   0  0  0  0  0  0  0  0  0  0  0  0
    1.6871    1.6977    0.7162 H   0  0  0  0  0  0  0  0  0  0  0  0
    2.5111    1.0135   -1.5812 H   0  0  0  0  0  0  0  0  0  0  0  0
    2.5822    2.7323   -1.2087 H   0  0  0  0  0  0  0  0  0  0  0  0
    1.9599    3.8848   -3.0136 H   0  0  0  0  0  0  0  0  0  0  0  0
    2.5882   -1.6851    0.4718 H   0  0  0  0  0  0  0  0  0  0  0  0
    0.1505    0.5979   -2.4180 H   0  0  0  0  0  0  0  0  0  0  0  0
  1  2  1  0  0  0  0
  2 14  1  0  0  0  0
  2  4  2  0  0  0  0
  3  1  2  0  0  0  0
  3  7  1  0  0  0  0
  4 16  1  0  0  0  0
  5  7  1  0  0  0  0
  5 17  1  0  0  0  0
  5 18  1  0  0  0  0
  6 20  1  0  0  0  0
  6  5  1  0  0  0  0
  7  8  2  0  0  0  0
  8  4  1  0  0  0  0
  8 11  1  0  0  0  0
  9  6  1  0  0  0  0
 10 21  1  0  0  0  0
 10  9  2  0  0  0  0
 11 22  1  0  0  0  0
 12  9  1  0  0  0  0
 12 23  1  0  0  0  0
 13  1  1  0  0  0  0
 15  3  1  0  0  0  0
 19  6  1  0  0  0  0
M  END
>  <HBA>
3

>  <HBD>
2

>  <TPSA>
63.32

>  <cid>
31159

>  <dipole>
5.85

>  <excitation_energy_1>
5.004

>  <excitation_energy_2>
5.294

>  <excitation_energy_3>
5.576

>  <excitation_energy_4>
5.688

>  <homo_energy>
-6.381

>  <homo_lumo_gap>
5.891

>  <logP>
1.51

>  <lumo_energy>
-0.49

>  <melting_point>
122.44

>  <molecular_refractivity>
45.95

>  <oscillator_strength_1>
0.0484

>  <oscillator_strength_2>
0.0002

>  <oscillator_strength_3>
0.0227

>  <oscillator_strength_4>
0.0031

>  <open_babel_can_smiles>
OC(=N)CCc1ccccc1O

>  <mulliken_charges>
23
1   -0.124384
2   -0.135878
3   -0.199837
4   -0.184718
5   -0.327763
6   -0.362928
7   0.063339
8   0.305943
9   0.473204
10   -0.587618
11   -0.643627
12   -0.585949
13   0.138032
14   0.139021
15   0.147314
16   0.124456
17   0.156856
18   0.169766
19   0.1804
20   0.147687
21   0.276892
22   0.412861
23   0.416933

>  <lowdin_charges>
23
1   -0.171821
2   -0.143045
3   -0.158056
4   -0.210613
5   -0.271881
6   -0.311223
7   -0.057174
8   0.094718
9   0.122902
10   -0.407011
11   -0.37986
12   -0.372325
13   0.161563
14   0.163068
15   0.166349
16   0.156573
17   0.157477
18   0.166922
19   0.16769
20   0.158072
21   0.253347
22   0.360361
23   0.353966

$$$$

