PCCDB-ID:  14910
public computational chemistry database (PCCDB) project, http://pccdb.org

 30 30  0  0  1  0  0  0  0  0999 V2000
    2.1226    0.2229    1.6885 C   0  0  0  0  0  0  0  0  0  0  0  0
    3.2757   -5.1399   -4.1656 C   0  0  0  0  0  0  0  0  0  0  0  0
    1.7381   -0.0689    0.2332 C   0  0  0  0  0  0  0  0  0  0  0  0
    3.6605   -4.8478   -2.7104 C   0  0  0  0  0  0  0  0  0  0  0  0
    2.2427   -1.2560   -1.9530 C   0  0  0  0  0  0  0  0  0  0  0  0
    2.3578   -2.5624    0.1951 C   0  0  0  0  0  0  0  0  0  0  0  0
    3.0407   -2.3543   -2.6723 C   0  0  0  0  0  0  0  0  0  0  0  0
    3.1558   -3.6608   -0.5243 C   0  0  0  0  0  0  0  0  0  0  0  0
    2.5606   -1.1780   -0.4482 C   0  0  2  0  0  0  0  0  0  0  0  0
    2.8379   -3.7387   -2.0290 C   0  0  2  0  0  0  0  0  0  0  0  0
    1.5389    1.0607    2.0869 H   0  0  0  0  0  0  0  0  0  0  0  0
    3.1839    0.4896    1.7710 H   0  0  0  0  0  0  0  0  0  0  0  0
    1.9458   -0.6383    2.3422 H   0  0  0  0  0  0  0  0  0  0  0  0
    3.8598   -5.9774   -4.5641 H   0  0  0  0  0  0  0  0  0  0  0  0
    3.4519   -4.2786   -4.8194 H   0  0  0  0  0  0  0  0  0  0  0  0
    2.2146   -5.4072   -4.2478 H   0  0  0  0  0  0  0  0  0  0  0  0
    1.8498    0.8546   -0.3525 H   0  0  0  0  0  0  0  0  0  0  0  0
    0.6711   -0.3321    0.1812 H   0  0  0  0  0  0  0  0  0  0  0  0
    4.7275   -4.5844   -2.6587 H   0  0  0  0  0  0  0  0  0  0  0  0
    3.5490   -5.7713   -2.1246 H   0  0  0  0  0  0  0  0  0  0  0  0
    1.1662   -1.4515   -2.0780 H   0  0  0  0  0  0  0  0  0  0  0  0
    2.4357   -0.2834   -2.4256 H   0  0  0  0  0  0  0  0  0  0  0  0
    2.6408   -2.5392    1.2546 H   0  0  0  0  0  0  0  0  0  0  0  0
    1.2857   -2.8128    0.1651 H   0  0  0  0  0  0  0  0  0  0  0  0
    4.1128   -2.1039   -2.6423 H   0  0  0  0  0  0  0  0  0  0  0  0
    2.7577   -2.3775   -3.7319 H   0  0  0  0  0  0  0  0  0  0  0  0
    2.9627   -4.6333   -0.0516 H   0  0  0  0  0  0  0  0  0  0  0  0
    4.2323   -3.4652   -0.3991 H   0  0  0  0  0  0  0  0  0  0  0  0
    3.6275   -0.9156   -0.3467 H   0  0  0  0  0  0  0  0  0  0  0  0
    1.7710   -4.0012   -2.1306 H   0  0  0  0  0  0  0  0  0  0  0  0
  1 12  1  0  0  0  0
  1 11  1  0  0  0  0
  1 13  1  0  0  0  0
  2  4  1  0  0  0  0
  3  1  1  0  0  0  0
  4 19  1  0  0  0  0
  4 20  1  0  0  0  0
  4 10  1  0  0  0  0
  5  9  1  0  0  0  0
  6 23  1  0  0  0  0
  7 25  1  0  0  0  0
  7 10  1  0  0  0  0
  7  5  1  0  0  0  0
  8 28  1  0  0  0  0
  8 27  1  0  0  0  0
  8  6  1  0  0  0  0
  9 29  1  1  0  0  0
  9  6  1  0  0  0  0
  9  3  1  0  0  0  0
 10 30  1  6  0  0  0
 10  8  1  0  0  0  0
 14  2  1  0  0  0  0
 15  2  1  0  0  0  0
 16  2  1  0  0  0  0
 17  3  1  0  0  0  0
 18  3  1  0  0  0  0
 21  5  1  0  0  0  0
 22  5  1  0  0  0  0
 24  6  1  0  0  0  0
 26  7  1  0  0  0  0
M  END
>  <HBA>
0

>  <HBD>
0

>  <TPSA>
0.0

>  <cid>
14910

>  <dipole>
0.0

>  <excitation_energy_1>
7.234

>  <excitation_energy_2>
7.363

>  <excitation_energy_3>
7.489

>  <excitation_energy_4>
7.547

>  <homo_energy>
-7.66

>  <homo_lumo_gap>
10.076

>  <logP>
3.613

>  <lumo_energy>
2.416

>  <melting_point>
-6.64

>  <molecular_refractivity>
48.07

>  <oscillator_strength_1>
0.0

>  <oscillator_strength_2>
0.0

>  <oscillator_strength_3>
0.0066

>  <oscillator_strength_4>
0.0029

>  <open_babel_can_smiles>
CC[C@@H]1CC[C@H](CC1)CC

>  <mulliken_charges>
30
1   -0.448706
2   -0.448707
3   -0.248842
4   -0.248846
5   -0.265
6   -0.265003
7   -0.265026
8   -0.265035
9   -0.064755
10   -0.064735
11   0.141087
12   0.140242
13   0.146217
14   0.141087
15   0.146215
16   0.140244
17   0.12687
18   0.125917
19   0.125919
20   0.12687
21   0.123322
22   0.12543
23   0.13065
24   0.12207
25   0.122073
26   0.130647
27   0.125433
28   0.123325
29   0.110518
30   0.11052

>  <lowdin_charges>
30
1   -0.446948
2   -0.446949
3   -0.270898
4   -0.270898
5   -0.275635
6   -0.276256
7   -0.276257
8   -0.275639
9   -0.127234
10   -0.127232
11   0.150399
12   0.144274
13   0.147705
14   0.150401
15   0.147703
16   0.144276
17   0.139863
18   0.135924
19   0.135925
20   0.139863
21   0.134213
22   0.140583
23   0.141405
24   0.133793
25   0.133793
26   0.141402
27   0.140584
28   0.134214
29   0.128811
30   0.128814

$$$$

