PCCDB-ID:  34228
public computational chemistry database (PCCDB) project, http://pccdb.org

 17 17  0  0  0  0  0  0  0  0999 V2000
   -0.8773    0.7382    0.0349 C   0  0  0  0  0  0  0  0  0  0  0  0
    0.9595   -0.7909    0.0336 C   0  0  0  0  0  0  0  0  0  0  0  0
   -1.7279   -0.3677    0.1061 C   0  0  0  0  0  0  0  0  0  0  0  0
    0.0264   -1.8246    0.1078 C   0  0  0  0  0  0  0  0  0  0  0  0
    1.4725    1.6918   -0.1227 C   0  0  0  0  0  0  0  0  0  0  0  0
    0.5094    0.5347   -0.0035 C   0  0  0  0  0  0  0  0  0  0  0  0
    1.8213    2.1307   -1.5589 C   0  0  0  0  0  0  0  0  0  0  0  0
   -1.2994   -1.6340    0.1427 N   0  0  0  0  0  0  0  0  0  0  0  0
    2.8254    2.7438   -1.8146 O   0  0  0  0  0  0  0  0  0  0  0  0
    0.9192    1.8380   -2.5239 O   0  0  0  0  0  0  0  0  0  0  0  0
   -1.2922    1.7436    0.0308 H   0  0  0  0  0  0  0  0  0  0  0  0
    2.0224   -1.0160    0.0085 H   0  0  0  0  0  0  0  0  0  0  0  0
   -2.8066   -0.2253    0.1422 H   0  0  0  0  0  0  0  0  0  0  0  0
    0.3608   -2.8600    0.1414 H   0  0  0  0  0  0  0  0  0  0  0  0
    2.4246    1.4707    0.3664 H   0  0  0  0  0  0  0  0  0  0  0  0
    1.0619    2.5804    0.3742 H   0  0  0  0  0  0  0  0  0  0  0  0
    0.1942    1.3033   -2.1535 H   0  0  0  0  0  0  0  0  0  0  0  0
  1  3  2  0  0  0  0
  2  4  1  0  0  0  0
  3 13  1  0  0  0  0
  3  8  1  0  0  0  0
  4 14  1  0  0  0  0
  4  8  2  0  0  0  0
  5  6  1  0  0  0  0
  5 15  1  0  0  0  0
  5 16  1  0  0  0  0
  6  2  2  0  0  0  0
  6  1  1  0  0  0  0
  7  5  1  0  0  0  0
  9  7  2  0  0  0  0
 10 17  1  0  0  0  0
 10  7  1  0  0  0  0
 11  1  1  0  0  0  0
 12  2  1  0  0  0  0
M  END
>  <HBA>
3

>  <HBD>
1

>  <TPSA>
50.19

>  <cid>
34228

>  <dipole>
2.93

>  <excitation_energy_1>
4.743

>  <excitation_energy_2>
5.0

>  <excitation_energy_3>
5.34

>  <excitation_energy_4>
5.473

>  <homo_energy>
-7.312

>  <homo_lumo_gap>
6.006

>  <logP>
0.709

>  <lumo_energy>
-1.306

>  <melting_point>
99.15

>  <molecular_refractivity>
35.78

>  <oscillator_strength_1>
0.0056

>  <oscillator_strength_2>
0.0

>  <oscillator_strength_3>
0.0168

>  <oscillator_strength_4>
0.0699

>  <open_babel_can_smiles>
OC(=O)Cc1ccncc1

>  <mulliken_charges>
17
1   -0.209532
2   -0.168889
3   0.048403
4   0.042579
5   -0.454151
6   0.12483
7   0.592959
8   -0.399943
9   -0.43303
10   -0.561457
11   0.148165
12   0.150342
13   0.153524
14   0.154131
15   0.197252
16   0.197902
17   0.416916

>  <lowdin_charges>
17
1   -0.200777
2   -0.175694
3   -0.08009
4   -0.079051
5   -0.315496
6   -0.001092
7   0.191175
8   -0.142532
9   -0.235398
10   -0.350317
11   0.166154
12   0.168136
13   0.160728
14   0.162259
15   0.185586
16   0.184897
17   0.361512

$$$$

