PCCDB-ID:  25833
public computational chemistry database (PCCDB) project, http://pccdb.org

 13 12  0  0  0  0  0  0  0  0999 V2000
    0.9206    0.1042   -0.0112 C   0  0  0  0  0  0  0  0  0  0  0  0
    2.4296   -0.1953    0.0534 C   0  0  0  0  0  0  0  0  0  0  0  0
    2.8542   -0.7090    1.3964 C   0  0  0  0  0  0  0  0  0  0  0  0
    3.4340   -1.9016    1.6091 C   0  0  0  0  0  0  0  0  0  0  0  0
    3.8146   -2.3590    2.9082 C   0  0  0  0  0  0  0  0  0  0  0  0
    4.1310   -2.7483    3.9587 N   0  0  0  0  0  0  0  0  0  0  0  0
    0.6511    0.5083   -0.9926 H   0  0  0  0  0  0  0  0  0  0  0  0
    0.6293    0.8404    0.7468 H   0  0  0  0  0  0  0  0  0  0  0  0
    0.3321   -0.8036    0.1584 H   0  0  0  0  0  0  0  0  0  0  0  0
    2.9836    0.7305   -0.1610 H   0  0  0  0  0  0  0  0  0  0  0  0
    2.7048   -0.9161   -0.7260 H   0  0  0  0  0  0  0  0  0  0  0  0
    2.6578   -0.0621    2.2514 H   0  0  0  0  0  0  0  0  0  0  0  0
    3.6429   -2.5782    0.7828 H   0  0  0  0  0  0  0  0  0  0  0  0
  1  2  1  0  0  0  0
  1  9  1  0  0  0  0
  1  8  1  0  0  0  0
  2  3  1  0  0  0  0
  3  4  2  0  0  0  0
  3 12  1  0  0  0  0
  4  5  1  0  0  0  0
  5  6  3  0  0  0  0
  7  1  1  0  0  0  0
 10  2  1  0  0  0  0
 11  2  1  0  0  0  0
 13  4  1  0  0  0  0
M  END
>  <HBA>
1

>  <HBD>
0

>  <TPSA>
23.79

>  <cid>
25833

>  <dipole>
4.7

>  <excitation_energy_1>
5.987

>  <excitation_energy_2>
6.2

>  <excitation_energy_3>
6.522

>  <excitation_energy_4>
6.934

>  <homo_energy>
-7.385

>  <homo_lumo_gap>
6.169

>  <logP>
1.476

>  <lumo_energy>
-1.216

>  <melting_point>
17.79

>  <molecular_refractivity>
25.42

>  <oscillator_strength_1>
0.4688

>  <oscillator_strength_2>
0.0001

>  <oscillator_strength_3>
0.0029

>  <oscillator_strength_4>
0.0008

>  <open_babel_can_smiles>
CC/C=C/C#N

>  <mulliken_charges>
13
1   -0.446227
2   -0.307678
3   -0.047545
4   -0.158242
5   0.310554
6   -0.473842
7   0.156724
8   0.154199
9   0.160588
10   0.162849
11   0.152561
12   0.159759
13   0.1763

>  <lowdin_charges>
13
1   -0.441623
2   -0.270686
3   -0.09553
4   -0.188809
5   -0.014217
6   -0.122822
7   0.15732
8   0.154272
9   0.156585
10   0.161003
11   0.153723
12   0.168918
13   0.181866

$$$$

