PCCDB-ID:  11833
public computational chemistry database (PCCDB) project, http://pccdb.org

 20 21  0  0  0  0  0  0  0  0999 V2000
    0.8550   -0.0146    0.0085 C   0  0  0  0  0  0  0  0  0  0  0  0
    3.2004    3.7031   -0.0394 C   0  0  0  0  0  0  0  0  0  0  0  0
    4.6005    3.6357   -0.0684 C   0  0  0  0  0  0  0  0  0  0  0  0
    2.4512    2.5342   -0.0241 C   0  0  0  0  0  0  0  0  0  0  0  0
    5.2455    2.4048   -0.0818 C   0  0  0  0  0  0  0  0  0  0  0  0
    3.0770   -1.1470   -0.0356 C   0  0  0  0  0  0  0  0  0  0  0  0
    2.3596    0.0042   -0.0222 C   0  0  0  0  0  0  0  0  0  0  0  0
    3.0758    1.2717   -0.0372 C   0  0  0  0  0  0  0  0  0  0  0  0
    4.4842    1.2336   -0.0663 C   0  0  0  0  0  0  0  0  0  0  0  0
    4.5325   -1.1825   -0.0635 C   0  0  0  0  0  0  0  0  0  0  0  0
    5.2209   -2.1757   -0.0734 O   0  0  0  0  0  0  0  0  0  0  0  0
    5.1736    0.0564   -0.0811 O   0  0  0  0  0  0  0  0  0  0  0  0
    0.4753   -1.0394    0.0087 H   0  0  0  0  0  0  0  0  0  0  0  0
    0.4353    0.5061   -0.8609 H   0  0  0  0  0  0  0  0  0  0  0  0
    0.4719    0.4924    0.9028 H   0  0  0  0  0  0  0  0  0  0  0  0
    2.7015    4.6674   -0.0293 H   0  0  0  0  0  0  0  0  0  0  0  0
    5.1890    4.5487   -0.0802 H   0  0  0  0  0  0  0  0  0  0  0  0
    1.3675    2.5903   -0.0010 H   0  0  0  0  0  0  0  0  0  0  0  0
    6.3270    2.3232   -0.1037 H   0  0  0  0  0  0  0  0  0  0  0  0
    2.5963   -2.1193   -0.0252 H   0  0  0  0  0  0  0  0  0  0  0  0
  1 13  1  0  0  0  0
  1 15  1  0  0  0  0
  2 16  1  0  0  0  0
  2  4  2  0  0  0  0
  3  2  1  0  0  0  0
  4 18  1  0  0  0  0
  5  3  2  0  0  0  0
  5  9  1  0  0  0  0
  6 20  1  0  0  0  0
  6  7  2  0  0  0  0
  7  1  1  0  0  0  0
  8  4  1  0  0  0  0
  8  7  1  0  0  0  0
  9  8  2  0  0  0  0
 10  6  1  0  0  0  0
 11 10  2  0  0  0  0
 12  9  1  0  0  0  0
 12 10  1  0  0  0  0
 14  1  1  0  0  0  0
 17  3  1  0  0  0  0
 19  5  1  0  0  0  0
M  END
>  <HBA>
2

>  <HBD>
0

>  <TPSA>
30.21

>  <cid>
11833

>  <dipole>
5.17

>  <excitation_energy_1>
4.17

>  <excitation_energy_2>
4.492

>  <excitation_energy_3>
4.647

>  <excitation_energy_4>
5.442

>  <homo_energy>
-6.406

>  <homo_lumo_gap>
4.664

>  <logP>
2.101

>  <lumo_energy>
-1.742

>  <melting_point>
87.16

>  <molecular_refractivity>
47.45

>  <oscillator_strength_1>
0.1299

>  <oscillator_strength_2>
0.0

>  <oscillator_strength_3>
0.1395

>  <oscillator_strength_4>
0.02

>  <open_babel_can_smiles>
O=c1cc(C)c2c(o1)cccc2

>  <mulliken_charges>
20
1   -0.537182
2   -0.129916
3   -0.130988
4   -0.203329
5   -0.17148
6   -0.299897
7   0.202065
8   0.082145
9   0.311711
10   0.605926
11   -0.470359
12   -0.515898
13   0.172711
14   0.175585
15   0.17587
16   0.13788
17   0.143549
18   0.138224
19   0.157537
20   0.155845

>  <lowdin_charges>
20
1   -0.441701
2   -0.165633
3   -0.137267
4   -0.148002
5   -0.170243
6   -0.215721
7   0.042761
8   -0.04557
9   0.113902
10   0.196549
11   -0.244172
12   -0.13432
13   0.166853
14   0.169704
15   0.169727
16   0.162896
17   0.165969
18   0.161958
19   0.174333
20   0.177976

$$$$

