PCCDB-ID:  30492
public computational chemistry database (PCCDB) project, http://pccdb.org

 22 22  0  0  0  0  0  0  0  0999 V2000
    0.3511    0.0326    0.0292 C   0  0  0  0  0  0  0  0  0  0  0  0
    8.9676    1.6471   -0.0075 C   0  0  0  0  0  0  0  0  0  0  0  0
    2.5159   -1.2245   -0.3887 C   0  0  0  0  0  0  0  0  0  0  0  0
    2.6531    1.0902    0.2059 C   0  0  0  0  0  0  0  0  0  0  0  0
    3.9035   -1.2878   -0.4848 C   0  0  0  0  0  0  0  0  0  0  0  0
    4.0416    1.0514    0.1149 C   0  0  0  0  0  0  0  0  0  0  0  0
    1.8586   -0.0370   -0.0448 C   0  0  0  0  0  0  0  0  0  0  0  0
    4.6795   -0.1477   -0.2338 C   0  0  0  0  0  0  0  0  0  0  0  0
    8.0985    0.5013   -0.2559 N   0  0  0  0  0  0  0  0  0  0  0  0
    6.0700   -0.2468   -0.3352 N   0  0  0  0  0  0  0  0  0  0  0  0
    6.8857    0.7953   -0.1111 N   0  0  0  0  0  0  0  0  0  0  0  0
   -0.0800   -0.9249    0.3418 H   0  0  0  0  0  0  0  0  0  0  0  0
   -0.0904    0.2826   -0.9454 H   0  0  0  0  0  0  0  0  0  0  0  0
    0.0198    0.7979    0.7395 H   0  0  0  0  0  0  0  0  0  0  0  0
    9.5658    1.8378   -0.9069 H   0  0  0  0  0  0  0  0  0  0  0  0
    9.6651    1.3921    0.7997 H   0  0  0  0  0  0  0  0  0  0  0  0
    8.4070    2.5506    0.2610 H   0  0  0  0  0  0  0  0  0  0  0  0
    1.9340   -2.1226   -0.5839 H   0  0  0  0  0  0  0  0  0  0  0  0
    2.1747    2.0275    0.4819 H   0  0  0  0  0  0  0  0  0  0  0  0
    4.3880   -2.2248   -0.7505 H   0  0  0  0  0  0  0  0  0  0  0  0
    4.6372    1.9340    0.3150 H   0  0  0  0  0  0  0  0  0  0  0  0
    6.5143   -1.1277   -0.5885 H   0  0  0  0  0  0  0  0  0  0  0  0
  1 12  1  0  0  0  0
  1 14  1  0  0  0  0
  2 17  1  0  0  0  0
  2 16  1  0  0  0  0
  3  7  1  0  0  0  0
  4 19  1  0  0  0  0
  5  3  2  0  0  0  0
  5  8  1  0  0  0  0
  6  4  1  0  0  0  0
  6 21  1  0  0  0  0
  7  1  1  0  0  0  0
  7  4  2  0  0  0  0
  8  6  2  0  0  0  0
  9 11  1  0  0  0  0
  9  2  1  0  0  0  0
 10  8  1  0  0  0  0
 10 11  1  0  0  0  0
 13  1  1  0  0  0  0
 15  2  1  0  0  0  0
 18  3  1  0  0  0  0
 20  5  1  0  0  0  0
 22 10  1  0  0  0  0
M  RAD  2   9   2  11   2
M  END
>  <HBA>
3

>  <HBD>
1

>  <TPSA>
36.75

>  <cid>
30492

>  <dipole>
0.53

>  <excitation_energy_1>
4.142

>  <excitation_energy_2>
4.327

>  <excitation_energy_3>
4.61

>  <excitation_energy_4>
5.078

>  <homo_energy>
-5.44

>  <homo_lumo_gap>
4.727

>  <logP>
2.477

>  <lumo_energy>
-0.713

>  <melting_point>
58.23

>  <molecular_refractivity>
45.57

>  <oscillator_strength_1>
0.3626

>  <oscillator_strength_2>
0.0001

>  <oscillator_strength_3>
0.1007

>  <oscillator_strength_4>
0.0004

>  <open_babel_can_smiles>
C[N][N]Nc1ccc(cc1)C

>  <mulliken_charges>
22
1   -0.530132
2   -0.30527
3   -0.18878
4   -0.19151
5   -0.185394
6   -0.165802
7   0.180811
8   0.387039
9   -0.245986
10   -0.51831
11   -0.022591
12   0.154772
13   0.162977
14   0.155397
15   0.161083
16   0.161074
17   0.152984
18   0.122874
19   0.123662
20   0.123116
21   0.151509
22   0.316478

>  <lowdin_charges>
22
1   -0.442372
2   -0.371479
3   -0.157294
4   -0.154794
5   -0.192258
6   -0.185098
7   -0.01636
8   0.053112
9   -0.167914
10   -0.179601
11   -0.031013
12   0.156762
13   0.159269
14   0.158033
15   0.157289
16   0.157567
17   0.147346
18   0.156047
19   0.155817
20   0.155343
21   0.171263
22   0.270334

$$$$

