PCCDB-ID:  19399
public computational chemistry database (PCCDB) project, http://pccdb.org

 14 14  0  0  0  0  0  0  0  0999 V2000
    0.9501    0.1091   -0.0162 C   0  0  0  0  0  0  0  0  0  0  0  0
    2.4229   -0.1556   -0.0598 C   0  0  0  0  0  0  0  0  0  0  0  0
    2.5270   -2.3726    1.1991 C   0  0  0  0  0  0  0  0  0  0  0  0
    3.5653   -3.1680    1.5171 C   0  0  0  0  0  0  0  0  0  0  0  0
    3.0421   -1.2221    0.4715 C   0  0  0  0  0  0  0  0  0  0  0  0
    4.7995   -2.5472    0.9975 C   0  0  0  0  0  0  0  0  0  0  0  0
    5.9486   -2.9023    1.0483 O   0  0  0  0  0  0  0  0  0  0  0  0
    4.4173   -1.3606    0.3689 O   0  0  0  0  0  0  0  0  0  0  0  0
    0.5402    0.1941   -1.0313 H   0  0  0  0  0  0  0  0  0  0  0  0
    0.7418    1.0630    0.4862 H   0  0  0  0  0  0  0  0  0  0  0  0
    0.3938   -0.6741    0.5065 H   0  0  0  0  0  0  0  0  0  0  0  0
    3.0496    0.5767   -0.5637 H   0  0  0  0  0  0  0  0  0  0  0  0
    1.4812   -2.5272    1.4312 H   0  0  0  0  0  0  0  0  0  0  0  0
    3.5664   -4.1061    2.0545 H   0  0  0  0  0  0  0  0  0  0  0  0
  1 10  1  0  0  0  0
  1 11  1  0  0  0  0
  2  1  1  0  0  0  0
  2  5  2  0  0  0  0
  3 13  1  0  0  0  0
  3  4  2  0  0  0  0
  4 14  1  0  0  0  0
  5  3  1  0  0  0  0
  6  7  2  0  0  0  0
  6  4  1  0  0  0  0
  8  5  1  0  0  0  0
  8  6  1  0  0  0  0
  9  1  1  0  0  0  0
 12  2  1  0  0  0  0
M  END
>  <HBA>
2

>  <HBD>
0

>  <TPSA>
26.3

>  <cid>
19399

>  <dipole>
5.03

>  <excitation_energy_1>
4.242

>  <excitation_energy_2>
4.53

>  <excitation_energy_3>
5.694

>  <excitation_energy_4>
5.931

>  <homo_energy>
-6.547

>  <homo_lumo_gap>
4.523

>  <logP>
1.003

>  <lumo_energy>
-2.025

>  <melting_point>
31.46

>  <molecular_refractivity>
29.18

>  <oscillator_strength_1>
0.0

>  <oscillator_strength_2>
0.4434

>  <oscillator_strength_3>
0.0783

>  <oscillator_strength_4>
0.0

>  <open_babel_can_smiles>
C/C=C\1/OC(=O)C=C1

>  <mulliken_charges>
14
1   -0.491281
2   -0.1964
3   -0.14254
4   -0.197896
5   0.39755
6   0.594659
7   -0.459489
8   -0.504654
9   0.1731
10   0.173107
11   0.157394
12   0.162538
13   0.165695
14   0.168218

>  <lowdin_charges>
14
1   -0.433929
2   -0.159267
3   -0.134546
4   -0.189267
5   0.083651
6   0.192319
7   -0.22316
8   -0.163284
9   0.166597
10   0.167184
11   0.158361
12   0.17702
13   0.175418
14   0.182902

$$$$

