PCCDB-ID:  15263
public computational chemistry database (PCCDB) project, http://pccdb.org

 22 22  0  0  0  0  0  0  0  0999 V2000
    1.3111   -1.1105    1.5556 C   0  0  0  0  0  0  0  0  0  0  0  0
    2.6750   -0.5415    1.2859 C   0  0  0  0  0  0  0  0  0  0  0  0
    2.9316    0.7330    0.9788 C   0  0  0  0  0  0  0  0  0  0  0  0
    5.4268    4.5513    3.3421 C   0  0  0  0  0  0  0  0  0  0  0  0
    5.4628    4.7271    1.9588 C   0  0  0  0  0  0  0  0  0  0  0  0
    5.0185    3.3233    3.8689 C   0  0  0  0  0  0  0  0  0  0  0  0
    4.3026    1.2978    0.7011 C   0  0  0  0  0  0  0  0  0  0  0  0
    5.0944    3.6806    1.1102 C   0  0  0  0  0  0  0  0  0  0  0  0
    4.6503    2.2823    3.0176 C   0  0  0  0  0  0  0  0  0  0  0  0
    4.6873    2.4447    1.6254 C   0  0  0  0  0  0  0  0  0  0  0  0
    1.2559   -1.5571    2.5577 H   0  0  0  0  0  0  0  0  0  0  0  0
    1.0651   -1.9101    0.8434 H   0  0  0  0  0  0  0  0  0  0  0  0
    0.5334   -0.3426    1.4837 H   0  0  0  0  0  0  0  0  0  0  0  0
    3.5087   -1.2445    1.3442 H   0  0  0  0  0  0  0  0  0  0  0  0
    2.1052    1.4439    0.9229 H   0  0  0  0  0  0  0  0  0  0  0  0
    5.7113    5.3641    4.0051 H   0  0  0  0  0  0  0  0  0  0  0  0
    5.7756    5.6791    1.5375 H   0  0  0  0  0  0  0  0  0  0  0  0
    4.9871    3.1764    4.9457 H   0  0  0  0  0  0  0  0  0  0  0  0
    4.3496    1.6567   -0.3369 H   0  0  0  0  0  0  0  0  0  0  0  0
    5.0453    0.4918    0.7820 H   0  0  0  0  0  0  0  0  0  0  0  0
    5.1259    3.8251    0.0322 H   0  0  0  0  0  0  0  0  0  0  0  0
    4.3225    1.3321    3.4323 H   0  0  0  0  0  0  0  0  0  0  0  0
  1 11  1  0  0  0  0
  2 14  1  0  0  0  0
  2  1  1  0  0  0  0
  3  2  2  0  0  0  0
  4  6  1  0  0  0  0
  4 16  1  0  0  0  0
  5  4  2  0  0  0  0
  6 18  1  0  0  0  0
  7 20  1  0  0  0  0
  7  3  1  0  0  0  0
  7 10  1  0  0  0  0
  8 10  2  0  0  0  0
  8  5  1  0  0  0  0
  9 22  1  0  0  0  0
  9  6  2  0  0  0  0
 10  9  1  0  0  0  0
 12  1  1  0  0  0  0
 13  1  1  0  0  0  0
 15  3  1  0  0  0  0
 17  5  1  0  0  0  0
 19  7  1  0  0  0  0
 21  8  1  0  0  0  0
M  END
>  <HBA>
0

>  <HBD>
0

>  <TPSA>
0.0

>  <cid>
15263

>  <dipole>
0.41

>  <excitation_energy_1>
5.241

>  <excitation_energy_2>
5.605

>  <excitation_energy_3>
5.83

>  <excitation_energy_4>
5.939

>  <homo_energy>
-6.299

>  <homo_lumo_gap>
6.4

>  <logP>
2.805

>  <lumo_energy>
0.101

>  <melting_point>
14.95

>  <molecular_refractivity>
45.35

>  <oscillator_strength_1>
0.0088

>  <oscillator_strength_2>
0.0336

>  <oscillator_strength_3>
0.1083

>  <oscillator_strength_4>
0.0054

>  <open_babel_can_smiles>
C/C=C/Cc1ccccc1

>  <mulliken_charges>
22
1   -0.486566
2   -0.097877
3   -0.073796
4   -0.131694
5   -0.12569
6   -0.128938
7   -0.393726
8   -0.192491
9   -0.171918
10   0.170919
11   0.154251
12   0.154575
13   0.153267
14   0.11814
15   0.121995
16   0.12618
17   0.126515
18   0.126776
19   0.147726
20   0.153255
21   0.120753
22   0.128342

>  <lowdin_charges>
22
1   -0.439374
2   -0.169341
3   -0.168078
4   -0.163249
5   -0.156199
6   -0.153107
7   -0.26753
8   -0.167936
9   -0.162572
10   -0.003074
11   0.155587
12   0.157082
13   0.155674
14   0.146386
15   0.149833
16   0.157128
17   0.15613
18   0.154108
19   0.152382
20   0.156758
21   0.151047
22   0.158343

$$$$

