PCCDB-ID:  69199
public computational chemistry database (PCCDB) project, http://pccdb.org

 20 20  0  0  0  0  0  0  0  0999 V2000
   -0.7388    0.9684    0.0739 C   0  0  0  0  0  0  0  0  0  0  0  0
   -1.4320   -0.2417    0.0915 C   0  0  0  0  0  0  0  0  0  0  0  0
    1.3871    2.3540   -0.1145 C   0  0  0  0  0  0  0  0  0  0  0  0
    0.6621   -1.4138   -0.2251 C   0  0  0  0  0  0  0  0  0  0  0  0
    0.6468    1.0309   -0.0915 C   0  0  0  0  0  0  0  0  0  0  0  0
   -0.7264   -1.4381   -0.0598 C   0  0  0  0  0  0  0  0  0  0  0  0
    1.3241   -0.1911   -0.2355 C   0  0  0  0  0  0  0  0  0  0  0  0
    2.0986    2.6974    1.2048 C   0  0  0  0  0  0  0  0  0  0  0  0
   -1.3263   -2.6641   -0.0560 O   0  0  0  0  0  0  0  0  0  0  0  0
    2.6983   -0.1212   -0.3862 O   0  0  0  0  0  0  0  0  0  0  0  0
    1.8026    3.6463    1.8884 O   0  0  0  0  0  0  0  0  0  0  0  0
    3.1047    1.8677    1.5610 O   0  0  0  0  0  0  0  0  0  0  0  0
   -1.2923    1.8963    0.1905 H   0  0  0  0  0  0  0  0  0  0  0  0
   -2.5118   -0.2535    0.2207 H   0  0  0  0  0  0  0  0  0  0  0  0
    0.6883    3.1692   -0.3093 H   0  0  0  0  0  0  0  0  0  0  0  0
    2.1358    2.3504   -0.9179 H   0  0  0  0  0  0  0  0  0  0  0  0
    1.1995   -2.3518   -0.3367 H   0  0  0  0  0  0  0  0  0  0  0  0
   -2.2797   -2.5487    0.0797 H   0  0  0  0  0  0  0  0  0  0  0  0
    3.0656   -1.0170   -0.4492 H   0  0  0  0  0  0  0  0  0  0  0  0
    3.1973    1.1497    0.9018 H   0  0  0  0  0  0  0  0  0  0  0  0
  1  2  1  0  0  0  0
  1 13  1  0  0  0  0
  2 14  1  0  0  0  0
  3  5  1  0  0  0  0
  3  8  1  0  0  0  0
  4  6  1  0  0  0  0
  5  1  2  0  0  0  0
  6  9  1  0  0  0  0
  6  2  2  0  0  0  0
  7  4  2  0  0  0  0
  7  5  1  0  0  0  0
  8 12  1  0  0  0  0
  8 11  2  0  0  0  0
  9 18  1  0  0  0  0
 10  7  1  0  0  0  0
 15  3  1  0  0  0  0
 16  3  1  0  0  0  0
 17  4  1  0  0  0  0
 19 10  1  0  0  0  0
 20 12  1  0  0  0  0
M  END
>  <HBA>
4

>  <HBD>
3

>  <TPSA>
77.76

>  <cid>
69199

>  <dipole>
5.82

>  <excitation_energy_1>
4.9

>  <excitation_energy_2>
5.092

>  <excitation_energy_3>
5.288

>  <excitation_energy_4>
5.351

>  <homo_energy>
-6.136

>  <homo_lumo_gap>
5.782

>  <logP>
0.725

>  <lumo_energy>
-0.354

>  <melting_point>
165.6

>  <molecular_refractivity>
42.03

>  <oscillator_strength_1>
0.0419

>  <oscillator_strength_2>
0.0086

>  <oscillator_strength_3>
0.0015

>  <oscillator_strength_4>
0.0564

>  <open_babel_can_smiles>
OC(=O)Cc1ccc(cc1O)O

>  <mulliken_charges>
20
1   -0.196154
2   -0.190441
3   -0.467022
4   -0.221657
5   0.135656
6   0.352531
7   0.300103
8   0.5935
9   -0.641678
10   -0.678479
11   -0.444535
12   -0.58902
13   0.146218
14   0.125885
15   0.179744
16   0.181124
17   0.137698
18   0.413024
19   0.42514
20   0.438361

>  <lowdin_charges>
20
1   -0.134909
2   -0.223178
3   -0.312128
4   -0.235004
5   -0.052378
6   0.113887
7   0.103172
8   0.194558
9   -0.370293
10   -0.38967
11   -0.249276
12   -0.370578
13   0.167505
14   0.156762
15   0.177244
16   0.172412
17   0.168017
18   0.360029
19   0.367521
20   0.356307

$$$$

