PCCDB-ID:  6847
public computational chemistry database (PCCDB) project, http://pccdb.org

 21 22  0  0  0  0  0  0  0  0999 V2000
    2.4245    0.8347   -0.0469 C   0  0  0  0  0  0  0  0  0  0  0  0
    2.4797   -0.5746    0.0609 C   0  0  0  0  0  0  0  0  0  0  0  0
   -2.4364    0.6735    0.0209 C   0  0  0  0  0  0  0  0  0  0  0  0
    1.2062    1.4714   -0.0816 C   0  0  0  0  0  0  0  0  0  0  0  0
   -1.2636    1.3881   -0.0419 C   0  0  0  0  0  0  0  0  0  0  0  0
    1.3268   -1.3252    0.1316 C   0  0  0  0  0  0  0  0  0  0  0  0
   -2.3944   -0.7348    0.1044 C   0  0  0  0  0  0  0  0  0  0  0  0
   -0.0046    0.7316   -0.0109 C   0  0  0  0  0  0  0  0  0  0  0  0
    0.0497   -0.6995    0.0978 C   0  0  0  0  0  0  0  0  0  0  0  0
   -1.1908   -1.4221    0.1400 C   0  0  0  0  0  0  0  0  0  0  0  0
   -1.2174   -2.9180    0.2722 C   0  0  0  0  0  0  0  0  0  0  0  0
   -0.4381   -3.5739    0.9228 O   0  0  0  0  0  0  0  0  0  0  0  0
   -2.2296   -3.5466   -0.3921 O   0  0  0  0  0  0  0  0  0  0  0  0
    3.3447    1.4097   -0.1019 H   0  0  0  0  0  0  0  0  0  0  0  0
    3.4450   -1.0724    0.0919 H   0  0  0  0  0  0  0  0  0  0  0  0
   -3.3956    1.1826    0.0119 H   0  0  0  0  0  0  0  0  0  0  0  0
    1.1492    2.5541   -0.1642 H   0  0  0  0  0  0  0  0  0  0  0  0
   -1.2831    2.4731   -0.1111 H   0  0  0  0  0  0  0  0  0  0  0  0
    1.3811   -2.4014    0.2316 H   0  0  0  0  0  0  0  0  0  0  0  0
   -3.3310   -1.2810    0.1861 H   0  0  0  0  0  0  0  0  0  0  0  0
   -2.6703   -2.9136   -0.9826 H   0  0  0  0  0  0  0  0  0  0  0  0
  1  2  1  0  0  0  0
  2 15  1  0  0  0  0
  2  6  2  0  0  0  0
  3  7  2  0  0  0  0
  4  1  2  0  0  0  0
  4  8  1  0  0  0  0
  5  8  2  0  0  0  0
  5  3  1  0  0  0  0
  6 19  1  0  0  0  0
  7 10  1  0  0  0  0
  7 20  1  0  0  0  0
  8  9  1  0  0  0  0
  9  6  1  0  0  0  0
  9 10  2  0  0  0  0
 10 11  1  0  0  0  0
 11 12  2  0  0  0  0
 13 11  1  0  0  0  0
 14  1  1  0  0  0  0
 16  3  1  0  0  0  0
 17  4  1  0  0  0  0
 18  5  1  0  0  0  0
 21 13  1  0  0  0  0
M  END
>  <HBA>
2

>  <HBD>
1

>  <TPSA>
37.3

>  <cid>
6847

>  <dipole>
4.51

>  <excitation_energy_1>
3.981

>  <excitation_energy_2>
4.316

>  <excitation_energy_3>
4.557

>  <excitation_energy_4>
5.256

>  <homo_energy>
-6.242

>  <homo_lumo_gap>
4.512

>  <logP>
2.538

>  <lumo_energy>
-1.731

>  <melting_point>
139.98

>  <molecular_refractivity>
50.91

>  <oscillator_strength_1>
0.0855

>  <oscillator_strength_2>
0.0061

>  <oscillator_strength_3>
0.0049

>  <oscillator_strength_4>
0.0031

>  <open_babel_can_smiles>
OC(=O)c1cccc2c1cccc2

>  <mulliken_charges>
21
1   -0.126627
2   -0.138313
3   -0.13446
4   -0.195308
5   -0.178453
6   -0.182392
7   -0.212594
8   0.13102
9   0.084337
10   -0.00306
11   0.546417
12   -0.443408
13   -0.568236
14   0.136413
15   0.139217
16   0.140873
17   0.134492
18   0.140342
19   0.177751
20   0.143944
21   0.408045

>  <lowdin_charges>
21
1   -0.151715
2   -0.149399
3   -0.161304
4   -0.153862
5   -0.134717
6   -0.150044
7   -0.165672
8   0.001744
9   0.008333
10   -0.055007
11   0.199363
12   -0.239018
13   -0.358596
14   0.162137
15   0.162924
16   0.164219
17   0.15769
18   0.160883
19   0.181062
20   0.162314
21   0.358665

$$$$

