PCCDB-ID:  20352
public computational chemistry database (PCCDB) project, http://pccdb.org

 27 27  0  0  0  0  0  0  0  0999 V2000
    3.6282   -2.7437    3.0919 C   0  0  0  0  0  0  0  0  0  0  0  0
    4.7992   -3.1106    2.1729 C   0  0  0  0  0  0  0  0  0  0  0  0
    4.7156   -2.5003    0.7646 C   0  0  0  0  0  0  0  0  0  0  0  0
    5.9568    3.1065    1.0134 C   0  0  0  0  0  0  0  0  0  0  0  0
    8.0210    2.3823    2.0107 C   0  0  0  0  0  0  0  0  0  0  0  0
    5.5425    1.7769    0.8911 C   0  0  0  0  0  0  0  0  0  0  0  0
    7.6159    1.0596    1.8906 C   0  0  0  0  0  0  0  0  0  0  0  0
    4.8086   -0.9788    0.7187 C   0  0  0  0  0  0  0  0  0  0  0  0
    7.1970    3.4341    1.5725 C   0  0  0  0  0  0  0  0  0  0  0  0
    6.3720    0.7409    1.3297 C   0  0  0  0  0  0  0  0  0  0  0  0
    7.5840    4.7753    1.7555 N   0  0  0  0  0  0  0  0  0  0  0  0
    6.0710   -0.5956    1.2535 O   0  0  0  0  0  0  0  0  0  0  0  0
    3.7192   -3.2476    4.0607 H   0  0  0  0  0  0  0  0  0  0  0  0
    2.6676   -3.0408    2.6515 H   0  0  0  0  0  0  0  0  0  0  0  0
    3.5851   -1.6665    3.2895 H   0  0  0  0  0  0  0  0  0  0  0  0
    4.8464   -4.2028    2.0705 H   0  0  0  0  0  0  0  0  0  0  0  0
    5.7432   -2.8008    2.6364 H   0  0  0  0  0  0  0  0  0  0  0  0
    3.7689   -2.7906    0.2867 H   0  0  0  0  0  0  0  0  0  0  0  0
    5.5221   -2.9090    0.1426 H   0  0  0  0  0  0  0  0  0  0  0  0
    5.2965    3.9006    0.6711 H   0  0  0  0  0  0  0  0  0  0  0  0
    8.9872    2.6084    2.4569 H   0  0  0  0  0  0  0  0  0  0  0  0
    4.5744    1.5683    0.4499 H   0  0  0  0  0  0  0  0  0  0  0  0
    8.2560    0.2499    2.2281 H   0  0  0  0  0  0  0  0  0  0  0  0
    3.9988   -0.5129    1.2994 H   0  0  0  0  0  0  0  0  0  0  0  0
    4.7176   -0.6249   -0.3195 H   0  0  0  0  0  0  0  0  0  0  0  0
    7.1535    5.4163    1.0986 H   0  0  0  0  0  0  0  0  0  0  0  0
    8.5887    4.9108    1.7643 H   0  0  0  0  0  0  0  0  0  0  0  0
  1 15  1  0  0  0  0
  1 13  1  0  0  0  0
  2 17  1  0  0  0  0
  2  1  1  0  0  0  0
  3  2  1  0  0  0  0
  4  9  1  0  0  0  0
  5 21  1  0  0  0  0
  6  4  2  0  0  0  0
  6 10  1  0  0  0  0
  7  5  1  0  0  0  0
  7 23  1  0  0  0  0
  8  3  1  0  0  0  0
  8 12  1  0  0  0  0
  8 24  1  0  0  0  0
  9 11  1  0  0  0  0
  9  5  2  0  0  0  0
 10  7  2  0  0  0  0
 11 27  1  0  0  0  0
 12 10  1  0  0  0  0
 14  1  1  0  0  0  0
 16  2  1  0  0  0  0
 18  3  1  0  0  0  0
 19  3  1  0  0  0  0
 20  4  1  0  0  0  0
 22  6  1  0  0  0  0
 25  8  1  0  0  0  0
 26 11  1  0  0  0  0
M  END
>  <HBA>
2

>  <HBD>
1

>  <TPSA>
35.25

>  <cid>
20352

>  <dipole>
1.59

>  <excitation_energy_1>
4.348

>  <excitation_energy_2>
4.408

>  <excitation_energy_3>
4.801

>  <excitation_energy_4>
5.08

>  <homo_energy>
-4.923

>  <homo_lumo_gap>
5.124

>  <logP>
3.029

>  <lumo_energy>
0.201

>  <melting_point>
56.59

>  <molecular_refractivity>
51.76

>  <oscillator_strength_1>
0.0483

>  <oscillator_strength_2>
0.0051

>  <oscillator_strength_3>
0.0034

>  <oscillator_strength_4>
0.0007

>  <open_babel_can_smiles>
CCCCOc1ccc(cc1)N

>  <mulliken_charges>
27
1   -0.448727
2   -0.248972
3   -0.274496
4   -0.183394
5   -0.173777
6   -0.199667
7   -0.182648
8   -0.030903
9   0.29801
10   0.373139
11   -0.786334
12   -0.529228
13   0.144857
14   0.137273
15   0.150651
16   0.130896
17   0.155729
18   0.13074
19   0.145666
20   0.115228
21   0.117402
22   0.129354
23   0.132511
24   0.136002
25   0.133123
26   0.313595
27   0.313969

>  <lowdin_charges>
27
1   -0.445861
2   -0.273374
3   -0.282758
4   -0.194066
5   -0.18666
6   -0.202318
7   -0.174041
8   -0.128669
9   0.042058
10   0.081466
11   -0.497691
12   -0.21242
13   0.151295
14   0.143611
15   0.147406
16   0.140201
17   0.151583
18   0.145137
19   0.151977
20   0.152971
21   0.152851
22   0.160455
23   0.165271
24   0.135663
25   0.134622
26   0.27211
27   0.269183

$$$$

