PCCDB-ID:  12138
public computational chemistry database (PCCDB) project, http://pccdb.org

 32 33  0  0  0  0  0  0  0  0999 V2000
    1.8755   -0.9076   -0.0209 C   0  0  0  0  0  0  0  0  0  0  0  0
    0.6604   -1.7032    0.5340 C   0  0  0  0  0  0  0  0  0  0  0  0
    4.1538   -1.8677    0.5877 C   0  0  0  0  0  0  0  0  0  0  0  0
    3.1988   -2.4676   -1.5225 C   0  0  0  0  0  0  0  0  0  0  0  0
    0.6224   -1.5464    3.0660 C   0  0  0  0  0  0  0  0  0  0  0  0
    1.3425   -3.6055    2.0833 C   0  0  0  0  0  0  0  0  0  0  0  0
    5.2659   -2.6615    0.3176 C   0  0  0  0  0  0  0  0  0  0  0  0
    4.3028   -3.2669   -1.8063 C   0  0  0  0  0  0  0  0  0  0  0  0
    0.8281   -2.0706    4.3395 C   0  0  0  0  0  0  0  0  0  0  0  0
    1.5509   -4.1450    3.3503 C   0  0  0  0  0  0  0  0  0  0  0  0
    3.0953   -1.7507   -0.3222 C   0  0  0  0  0  0  0  0  0  0  0  0
    0.8733   -2.2968    1.9092 C   0  0  0  0  0  0  0  0  0  0  0  0
    5.3589   -3.3762   -0.8867 C   0  0  0  0  0  0  0  0  0  0  0  0
    1.2979   -3.3838    4.5023 C   0  0  0  0  0  0  0  0  0  0  0  0
    6.5037   -4.1261   -1.1925 N   0  0  0  0  0  0  0  0  0  0  0  0
    1.5604   -3.9010    5.7793 N   0  0  0  0  0  0  0  0  0  0  0  0
    2.1368   -0.1234    0.7006 H   0  0  0  0  0  0  0  0  0  0  0  0
    1.5505   -0.3953   -0.9366 H   0  0  0  0  0  0  0  0  0  0  0  0
    0.4089   -2.4986   -0.1789 H   0  0  0  0  0  0  0  0  0  0  0  0
   -0.2018   -1.0234    0.5610 H   0  0  0  0  0  0  0  0  0  0  0  0
    4.1074   -1.3293    1.5312 H   0  0  0  0  0  0  0  0  0  0  0  0
    2.3987   -2.3970   -2.2574 H   0  0  0  0  0  0  0  0  0  0  0  0
    0.2487   -0.5283    2.9710 H   0  0  0  0  0  0  0  0  0  0  0  0
    1.5489   -4.2176    1.2086 H   0  0  0  0  0  0  0  0  0  0  0  0
    6.0749   -2.7252    1.0427 H   0  0  0  0  0  0  0  0  0  0  0  0
    4.3581   -3.8021   -2.7522 H   0  0  0  0  0  0  0  0  0  0  0  0
    0.6217   -1.4618    5.2176 H   0  0  0  0  0  0  0  0  0  0  0  0
    1.9168   -5.1648    3.4517 H   0  0  0  0  0  0  0  0  0  0  0  0
    7.0161   -4.4534   -0.3821 H   0  0  0  0  0  0  0  0  0  0  0  0
    6.3451   -4.8829   -1.8471 H   0  0  0  0  0  0  0  0  0  0  0  0
    1.0189   -3.4736    6.5213 H   0  0  0  0  0  0  0  0  0  0  0  0
    1.5129   -4.9114    5.8373 H   0  0  0  0  0  0  0  0  0  0  0  0
  1  2  1  0  0  0  0
  1 17  1  0  0  0  0
  2 20  1  0  0  0  0
  2 12  1  0  0  0  0
  3 21  1  0  0  0  0
  4 11  1  0  0  0  0
  5  9  2  0  0  0  0
  6 10  1  0  0  0  0
  7  3  1  0  0  0  0
  7 25  1  0  0  0  0
  8  4  2  0  0  0  0
  8 13  1  0  0  0  0
  9 14  1  0  0  0  0
  9 27  1  0  0  0  0
 10 28  1  0  0  0  0
 10 14  2  0  0  0  0
 11  1  1  0  0  0  0
 11  3  2  0  0  0  0
 12  6  2  0  0  0  0
 12  5  1  0  0  0  0
 13  7  2  0  0  0  0
 14 16  1  0  0  0  0
 15 13  1  0  0  0  0
 15 29  1  0  0  0  0
 16 32  1  0  0  0  0
 16 31  1  0  0  0  0
 18  1  1  0  0  0  0
 19  2  1  0  0  0  0
 22  4  1  0  0  0  0
 23  5  1  0  0  0  0
 24  6  1  0  0  0  0
 26  8  1  0  0  0  0
 30 15  1  0  0  0  0
M  END
>  <HBA>
2

>  <HBD>
2

>  <TPSA>
52.04

>  <cid>
12138

>  <dipole>
2.72

>  <excitation_energy_1>
4.563

>  <excitation_energy_2>
4.594

>  <excitation_energy_3>
4.618

>  <excitation_energy_4>
4.63

>  <homo_energy>
-5.119

>  <homo_lumo_gap>
5.372

>  <logP>
3.799

>  <lumo_energy>
0.253

>  <melting_point>
137.2

>  <molecular_refractivity>
69.51

>  <oscillator_strength_1>
0.0071

>  <oscillator_strength_2>
0.0024

>  <oscillator_strength_3>
0.0384

>  <oscillator_strength_4>
0.0145

>  <open_babel_can_smiles>
Nc1ccc(cc1)CCc1ccc(cc1)N

>  <mulliken_charges>
32
1   -0.34293
2   -0.344479
3   -0.185031
4   -0.193683
5   -0.193737
6   -0.184463
7   -0.171962
8   -0.171478
9   -0.171227
10   -0.172793
11   0.174792
12   0.174794
13   0.301071
14   0.301971
15   -0.786554
16   -0.78695
17   0.140822
18   0.135862
19   0.139776
20   0.134683
21   0.128076
22   0.116082
23   0.116629
24   0.126603
25   0.114068
26   0.112082
27   0.11203
28   0.11168
29   0.316537
30   0.315634
31   0.316023
32   0.316069

>  <lowdin_charges>
32
1   -0.27153
2   -0.272052
3   -0.149905
4   -0.159708
5   -0.156717
6   -0.152181
7   -0.201484
8   -0.20158
9   -0.202902
10   -0.199038
11   -0.029469
12   -0.02934
13   0.05613
14   0.055333
15   -0.49431
16   -0.492317
17   0.148575
18   0.147138
19   0.147839
20   0.146598
21   0.157655
22   0.151826
23   0.150337
24   0.158085
25   0.151976
26   0.14994
27   0.150862
28   0.149096
29   0.273732
30   0.27308
31   0.273743
32   0.270587

$$$$

