PCCDB-ID:  66839
public computational chemistry database (PCCDB) project, http://pccdb.org

 24 23  0  0  0  0  0  0  0  0999 V2000
    0.1261   -1.9323   -0.7747 C   0  0  0  0  0  0  0  0  0  0  0  0
   -3.6097   -2.5176    0.2444 C   0  0  0  0  0  0  0  0  0  0  0  0
   -0.4492   -3.1007    0.0471 C   0  0  0  0  0  0  0  0  0  0  0  0
   -2.4518   -1.8552    1.0398 C   0  0  0  0  0  0  0  0  0  0  0  0
   -0.8608   -1.2133   -1.6879 C   0  0  0  0  0  0  0  0  0  0  0  0
   -3.8692   -3.9688    0.6325 C   0  0  0  0  0  0  0  0  0  0  0  0
   -1.2431   -2.6595    1.1979 N   0  0  0  0  0  0  0  0  0  0  0  0
   -1.2196   -3.5121    2.3108 N   0  0  0  0  0  0  0  0  0  0  0  0
   -1.1243   -0.0391   -1.6203 O   0  0  0  0  0  0  0  0  0  0  0  0
   -1.4755   -1.9908   -2.6250 O   0  0  0  0  0  0  0  0  0  0  0  0
   -3.1465   -4.8671    0.2667 O   0  0  0  0  0  0  0  0  0  0  0  0
   -4.9489   -4.2358    1.4007 O   0  0  0  0  0  0  0  0  0  0  0  0
   -2.1178   -3.3694    3.1403 O   0  0  0  0  0  0  0  0  0  0  0  0
   -0.2824   -4.2972    2.4048 O   0  0  0  0  0  0  0  0  0  0  0  0
    0.9274   -2.3437   -1.4043 H   0  0  0  0  0  0  0  0  0  0  0  0
    0.5753   -1.1860   -0.1162 H   0  0  0  0  0  0  0  0  0  0  0  0
   -3.3648   -2.5254   -0.8215 H   0  0  0  0  0  0  0  0  0  0  0  0
   -4.4979   -1.8853    0.3618 H   0  0  0  0  0  0  0  0  0  0  0  0
    0.3753   -3.6796    0.4569 H   0  0  0  0  0  0  0  0  0  0  0  0
   -1.0511   -3.7850   -0.5678 H   0  0  0  0  0  0  0  0  0  0  0  0
   -2.7801   -1.5872    2.0416 H   0  0  0  0  0  0  0  0  0  0  0  0
   -2.1628   -0.9352    0.5271 H   0  0  0  0  0  0  0  0  0  0  0  0
   -1.1508   -2.9063   -2.5817 H   0  0  0  0  0  0  0  0  0  0  0  0
   -5.3973   -3.4140    1.6570 H   0  0  0  0  0  0  0  0  0  0  0  0
  1 16  1  0  0  0  0
  1  3  1  0  0  0  0
  2 18  1  0  0  0  0
  2  6  1  0  0  0  0
  2  4  1  0  0  0  0
  3 19  1  0  0  0  0
  3  7  1  0  0  0  0
  4  7  1  0  0  0  0
  4 21  1  0  0  0  0
  5  9  2  0  0  0  0
  5  1  1  0  0  0  0
  6 12  1  0  0  0  0
  7  8  1  0  0  0  0
  8 14  2  0  0  0  0
  8 13  2  0  0  0  0
 10 23  1  0  0  0  0
 10  5  1  0  0  0  0
 11  6  2  0  0  0  0
 12 24  1  0  0  0  0
 15  1  1  0  0  0  0
 17  2  1  0  0  0  0
 20  3  1  0  0  0  0
 22  4  1  0  0  0  0
M  END
>  <HBA>
5

>  <HBD>
2

>  <TPSA>
123.66

>  <cid>
66839

>  <dipole>
2.86

>  <excitation_energy_1>
4.509

>  <excitation_energy_2>
5.23

>  <excitation_energy_3>
5.414

>  <excitation_energy_4>
5.524

>  <homo_energy>
-7.649

>  <homo_lumo_gap>
6.177

>  <logP>
-0.047

>  <lumo_energy>
-1.472

>  <melting_point>
161.15

>  <molecular_refractivity>
45.5

>  <oscillator_strength_1>
0.0002

>  <oscillator_strength_2>
0.0544

>  <oscillator_strength_3>
0.0183

>  <oscillator_strength_4>
0.0038

>  <open_babel_can_smiles>
OC(=O)CCN(N(=O)=O)CCC(=O)O

>  <mulliken_charges>
24
1   -0.393992
2   -0.396718
3   -0.166921
4   -0.17468
5   0.592409
6   0.609068
7   -0.284626
8   0.655179
9   -0.433862
10   -0.559281
11   -0.448631
12   -0.547928
13   -0.419105
14   -0.410571
15   0.182896
16   0.201029
17   0.198268
18   0.155235
19   0.221398
20   0.176133
21   0.207325
22   0.204873
23   0.417931
24   0.414571

>  <lowdin_charges>
24
1   -0.32374
2   -0.330059
3   -0.215886
4   -0.213503
5   0.18535
6   0.198945
7   -0.084227
8   0.344839
9   -0.232748
10   -0.354394
11   -0.25507
12   -0.336973
13   -0.270502
14   -0.254096
15   0.178226
16   0.1858
17   0.178687
18   0.161739
19   0.194342
20   0.15613
21   0.182884
22   0.180064
23   0.36093
24   0.363263

$$$$

