PCCDB-ID:  40594
public computational chemistry database (PCCDB) project, http://pccdb.org

 37 38  0  0  1  0  0  0  0  0999 V2000
    0.8622   -0.3008    2.2073 C   0  0  0  0  0  0  0  0  0  0  0  0
    5.3494    0.8561    6.2383 C   0  0  0  0  0  0  0  0  0  0  0  0
    6.7093    2.2709    4.6375 C   0  0  0  0  0  0  0  0  0  0  0  0
    2.3468   -0.5966    2.0790 C   0  0  0  0  0  0  0  0  0  0  0  0
    5.8901    3.8753   -0.7678 C   0  0  0  0  0  0  0  0  0  0  0  0
    4.5415    3.8105   -0.4186 C   0  0  0  0  0  0  0  0  0  0  0  0
    6.7459    2.8302   -0.4099 C   0  0  0  0  0  0  0  0  0  0  0  0
    4.0457    2.7096    0.2852 C   0  0  0  0  0  0  0  0  0  0  0  0
    6.2553    1.7317    0.2944 C   0  0  0  0  0  0  0  0  0  0  0  0
    6.5994   -0.2605    4.2710 C   0  0  0  0  0  0  0  0  0  0  0  0
    4.9000    1.6640    0.6466 C   0  0  0  0  0  0  0  0  0  0  0  0
    4.3880    0.4455    1.4139 C   0  0  1  0  0  0  0  0  0  0  0  0
    5.1364    0.2968    2.7278 C   0  0  1  0  0  0  0  0  0  0  0  0
    5.8487    1.0065    4.7995 C   0  0  0  0  0  0  0  0  0  0  0  0
    6.1598   -0.4642    2.8792 N   0  0  0  0  0  0  0  0  0  0  0  0
    4.7216    1.0219    3.8354 N   0  0  0  0  0  0  0  0  0  0  0  0
    2.9945    0.5899    1.6244 O   0  0  0  0  0  0  0  0  0  0  0  0
    0.3260   -1.1918    2.5520 H   0  0  0  0  0  0  0  0  0  0  0  0
    0.4439    0.0054    1.2429 H   0  0  0  0  0  0  0  0  0  0  0  0
    0.6921    0.5054    2.9284 H   0  0  0  0  0  0  0  0  0  0  0  0
    6.1925    0.7404    6.9299 H   0  0  0  0  0  0  0  0  0  0  0  0
    4.7009   -0.0207    6.3309 H   0  0  0  0  0  0  0  0  0  0  0  0
    4.7785    1.7373    6.5556 H   0  0  0  0  0  0  0  0  0  0  0  0
    7.5812    2.2347    5.3015 H   0  0  0  0  0  0  0  0  0  0  0  0
    6.1366    3.1731    4.8870 H   0  0  0  0  0  0  0  0  0  0  0  0
    7.0676    2.3659    3.6066 H   0  0  0  0  0  0  0  0  0  0  0  0
    2.5228   -1.4112    1.3585 H   0  0  0  0  0  0  0  0  0  0  0  0
    2.7653   -0.9088    3.0462 H   0  0  0  0  0  0  0  0  0  0  0  0
    6.2728    4.7313   -1.3173 H   0  0  0  0  0  0  0  0  0  0  0  0
    3.8677    4.6173   -0.6960 H   0  0  0  0  0  0  0  0  0  0  0  0
    7.7980    2.8698   -0.6803 H   0  0  0  0  0  0  0  0  0  0  0  0
    2.9958    2.6508    0.5479 H   0  0  0  0  0  0  0  0  0  0  0  0
    6.9200    0.9213    0.5817 H   0  0  0  0  0  0  0  0  0  0  0  0
    6.3334   -1.1483    4.8630 H   0  0  0  0  0  0  0  0  0  0  0  0
    7.6885   -0.1479    4.3233 H   0  0  0  0  0  0  0  0  0  0  0  0
    4.5984   -0.4620    0.8276 H   0  0  0  0  0  0  0  0  0  0  0  0
    4.2387    1.8976    3.6637 H   0  0  0  0  0  0  0  0  0  0  0  0
  1 18  1  0  0  0  0
  1 20  1  0  0  0  0
  2 22  1  0  0  0  0
  2 23  1  0  0  0  0
  2 21  1  0  0  0  0
  3 14  1  0  0  0  0
  3 25  1  0  0  0  0
  3 24  1  0  0  0  0
  4  1  1  0  0  0  0
  4 28  1  0  0  0  0
  5  6  2  0  0  0  0
  5  7  1  0  0  0  0
  6  8  1  0  0  0  0
  7  9  2  0  0  0  0
  8 32  1  0  0  0  0
  8 11  2  0  0  0  0
  9 33  1  0  0  0  0
  9 11  1  0  0  0  0
 10 35  1  0  0  0  0
 10 14  1  0  0  0  0
 10 34  1  0  0  0  0
 11 12  1  0  0  0  0
 12 36  1  6  0  0  0
 12 17  1  0  0  0  0
 13 12  1  6  0  0  0
 13 15  1  0  0  0  0
 13 16  1  0  0  0  0
 14  2  1  0  0  0  0
 15 10  1  0  0  0  0
 16 14  1  0  0  0  0
 17  4  1  0  0  0  0
 19  1  1  0  0  0  0
 26  3  1  0  0  0  0
 27  4  1  0  0  0  0
 29  5  1  0  0  0  0
 30  6  1  0  0  0  0
 31  7  1  0  0  0  0
 37 16  1  0  0  0  0
M  RAD  2  13   2  15   2
M  END
>  <HBA>
3

>  <HBD>
1

>  <TPSA>
33.62

>  <cid>
40594

>  <dipole>
2.0

>  <excitation_energy_1>
5.059

>  <excitation_energy_2>
5.237

>  <excitation_energy_3>
5.306

>  <excitation_energy_4>
5.391

>  <homo_energy>
-5.875

>  <homo_lumo_gap>
5.84

>  <logP>
2.309

>  <lumo_energy>
-0.035

>  <melting_point>
72.2

>  <molecular_refractivity>
77.79

>  <oscillator_strength_1>
0.0041

>  <oscillator_strength_2>
0.011

>  <oscillator_strength_3>
0.0016

>  <oscillator_strength_4>
0.0138

>  <open_babel_can_smiles>
CCO[C@@H](c1ccccc1)[C]1[N]CC(N1)(C)C

>  <mulliken_charges>
37
1   -0.457088
2   -0.448075
3   -0.458379
4   -0.012402
5   -0.124985
6   -0.133958
7   -0.136802
8   -0.177592
9   -0.170058
10   -0.167132
11   0.084002
12   0.041853
13   0.487595
14   0.203054
15   -0.485988
16   -0.612007
17   -0.501791
18   0.146762
19   0.158239
20   0.15648
21   0.144725
22   0.152531
23   0.139516
24   0.146416
25   0.138917
26   0.164482
27   0.128123
28   0.144167
29   0.127029
30   0.127682
31   0.129606
32   0.149042
33   0.15539
34   0.144378
35   0.143247
36   0.154851
37   0.318168

>  <lowdin_charges>
37
1   -0.449466
2   -0.447224
3   -0.454786
4   -0.126758
5   -0.160004
6   -0.158156
7   -0.154534
8   -0.165076
9   -0.165847
10   -0.20799
11   -0.016695
12   -0.001479
13   0.066713
14   0.064687
15   -0.25086
16   -0.29997
17   -0.265658
18   0.15672
19   0.156497
20   0.156669
21   0.152464
22   0.155596
23   0.149332
24   0.153415
25   0.147909
26   0.159187
27   0.131929
28   0.138732
29   0.157173
30   0.157366
31   0.155933
32   0.167099
33   0.17048
34   0.146524
35   0.146152
36   0.156914
37   0.277012

$$$$

