PCCDB-ID:  33858
public computational chemistry database (PCCDB) project, http://pccdb.org

 23 23  0  0  0  0  0  0  0  0999 V2000
    0.8992    0.0553    0.1879 C   0  0  0  0  0  0  0  0  0  0  0  0
    8.8165   -0.5626   -1.6255 C   0  0  0  0  0  0  0  0  0  0  0  0
    3.0449   -1.1640   -0.4145 C   0  0  0  0  0  0  0  0  0  0  0  0
    3.1751    1.1690    0.0908 C   0  0  0  0  0  0  0  0  0  0  0  0
    4.4198   -1.2136   -0.6402 C   0  0  0  0  0  0  0  0  0  0  0  0
    4.5484    1.1498   -0.1345 C   0  0  0  0  0  0  0  0  0  0  0  0
    2.3913    0.0165   -0.0458 C   0  0  0  0  0  0  0  0  0  0  0  0
    7.3483   -0.9177   -1.4795 C   0  0  0  0  0  0  0  0  0  0  0  0
    5.1841   -0.0451   -0.5046 C   0  0  0  0  0  0  0  0  0  0  0  0
    6.5964   -0.0524   -0.6913 N   0  0  0  0  0  0  0  0  0  0  0  0
    6.8523   -1.9066   -1.9971 O   0  0  0  0  0  0  0  0  0  0  0  0
    7.2580    1.1224   -0.2924 O   0  0  0  0  0  0  0  0  0  0  0  0
    0.4625   -0.9473    0.1404 H   0  0  0  0  0  0  0  0  0  0  0  0
    0.3909    0.6732   -0.5636 H   0  0  0  0  0  0  0  0  0  0  0  0
    0.6555    0.4798    1.1696 H   0  0  0  0  0  0  0  0  0  0  0  0
    9.3140   -0.4906   -0.6528 H   0  0  0  0  0  0  0  0  0  0  0  0
    8.9444    0.4021   -2.1255 H   0  0  0  0  0  0  0  0  0  0  0  0
    9.2823   -1.3521   -2.2168 H   0  0  0  0  0  0  0  0  0  0  0  0
    2.4687   -2.0796   -0.5274 H   0  0  0  0  0  0  0  0  0  0  0  0
    2.7046    2.1084    0.3739 H   0  0  0  0  0  0  0  0  0  0  0  0
    4.8951   -2.1384   -0.9322 H   0  0  0  0  0  0  0  0  0  0  0  0
    5.1292    2.0583   -0.0351 H   0  0  0  0  0  0  0  0  0  0  0  0
    7.3965    1.0140    0.6674 H   0  0  0  0  0  0  0  0  0  0  0  0
  1 15  1  0  0  0  0
  2  8  1  0  0  0  0
  2 16  1  0  0  0  0
  3  7  2  0  0  0  0
  4 20  1  0  0  0  0
  5  9  2  0  0  0  0
  5  3  1  0  0  0  0
  6 22  1  0  0  0  0
  6  4  2  0  0  0  0
  7  4  1  0  0  0  0
  7  1  1  0  0  0  0
  8 10  1  0  0  0  0
  9  6  1  0  0  0  0
 10  9  1  0  0  0  0
 10 12  1  0  0  0  0
 11  8  2  0  0  0  0
 12 23  1  0  0  0  0
 13  1  1  0  0  0  0
 14  1  1  0  0  0  0
 17  2  1  0  0  0  0
 18  2  1  0  0  0  0
 19  3  1  0  0  0  0
 21  5  1  0  0  0  0
M  END
>  <HBA>
3

>  <HBD>
1

>  <TPSA>
40.54

>  <cid>
33858

>  <dipole>
3.2

>  <excitation_energy_1>
4.818

>  <excitation_energy_2>
4.881

>  <excitation_energy_3>
5.052

>  <excitation_energy_4>
5.214

>  <homo_energy>
-5.799

>  <homo_lumo_gap>
5.524

>  <logP>
1.737

>  <lumo_energy>
-0.275

>  <melting_point>
92.8

>  <molecular_refractivity>
46.54

>  <oscillator_strength_1>
0.0582

>  <oscillator_strength_2>
0.0605

>  <oscillator_strength_3>
0.2521

>  <oscillator_strength_4>
0.0274

>  <open_babel_can_smiles>
Cc1ccc(cc1)N(C(=O)C)O

>  <mulliken_charges>
23
1   -0.531796
2   -0.511985
3   -0.200551
4   -0.186088
5   -0.157651
6   -0.172294
7   0.18884
8   0.568545
9   0.297242
10   -0.308085
11   -0.482537
12   -0.500179
13   0.155777
14   0.163497
15   0.158772
16   0.159571
17   0.186121
18   0.181041
19   0.126174
20   0.122594
21   0.17835
22   0.145114
23   0.419525

>  <lowdin_charges>
23
1   -0.442573
2   -0.466214
3   -0.161933
4   -0.161025
5   -0.173316
6   -0.186693
7   -0.007071
8   0.165904
9   0.040819
10   0.013088
11   -0.282668
12   -0.355711
13   0.156603
14   0.16194
15   0.158401
16   0.165615
17   0.178013
18   0.176149
19   0.157077
20   0.155273
21   0.185409
22   0.167663
23   0.35525

$$$$

