PCCDB-ID:  16940
public computational chemistry database (PCCDB) project, http://pccdb.org

 36 35  0  0  0  0  0  0  0  0999 V2000
    3.3535   -3.7387   -3.5316 C   0  0  0  0  0  0  0  0  0  0  0  0
    3.8009   -2.4023   -2.9150 C   0  0  0  0  0  0  0  0  0  0  0  0
    4.8544   -2.5710   -1.8522 C   0  0  0  0  0  0  0  0  0  0  0  0
    6.0829   -2.0475   -1.9039 C   0  0  0  0  0  0  0  0  0  0  0  0
    7.1788   -2.1513   -0.8681 C   0  0  0  0  0  0  0  0  0  0  0  0
    6.9882   -3.1878    0.2521 C   0  0  0  0  0  0  0  0  0  0  0  0
    7.0920   -4.6608   -0.1843 C   0  0  0  0  0  0  0  0  0  0  0  0
    8.5013   -5.0959   -0.6112 C   0  0  0  0  0  0  0  0  0  0  0  0
    8.5846   -6.5838   -0.9764 C   0  0  0  0  0  0  0  0  0  0  0  0
    9.9899   -7.0241   -1.4051 C   0  0  0  0  0  0  0  0  0  0  0  0
   10.0585   -8.5206   -1.7716 C   0  0  0  0  0  0  0  0  0  0  0  0
   11.4344   -8.9576   -2.2563 C   0  0  0  0  0  0  0  0  0  0  0  0
   11.6794   -9.3411   -3.3716 O   0  0  0  0  0  0  0  0  0  0  0  0
   12.4369   -8.8759   -1.3325 O   0  0  0  0  0  0  0  0  0  0  0  0
    2.5632   -3.5859   -4.2755 H   0  0  0  0  0  0  0  0  0  0  0  0
    2.9623   -4.4173   -2.7637 H   0  0  0  0  0  0  0  0  0  0  0  0
    4.1925   -4.2428   -4.0243 H   0  0  0  0  0  0  0  0  0  0  0  0
    2.9206   -1.9042   -2.4811 H   0  0  0  0  0  0  0  0  0  0  0  0
    4.1758   -1.7372   -3.7035 H   0  0  0  0  0  0  0  0  0  0  0  0
    4.5598   -3.1782   -0.9949 H   0  0  0  0  0  0  0  0  0  0  0  0
    6.3422   -1.4438   -2.7768 H   0  0  0  0  0  0  0  0  0  0  0  0
    7.3063   -1.1582   -0.4087 H   0  0  0  0  0  0  0  0  0  0  0  0
    8.1305   -2.3376   -1.3865 H   0  0  0  0  0  0  0  0  0  0  0  0
    6.0167   -3.0209    0.7352 H   0  0  0  0  0  0  0  0  0  0  0  0
    7.7426   -2.9975    1.0282 H   0  0  0  0  0  0  0  0  0  0  0  0
    6.3905   -4.8541   -1.0057 H   0  0  0  0  0  0  0  0  0  0  0  0
    6.7676   -5.2958    0.6526 H   0  0  0  0  0  0  0  0  0  0  0  0
    9.2101   -4.8803    0.2028 H   0  0  0  0  0  0  0  0  0  0  0  0
    8.8343   -4.5004   -1.4721 H   0  0  0  0  0  0  0  0  0  0  0  0
    7.8767   -6.8002   -1.7892 H   0  0  0  0  0  0  0  0  0  0  0  0
    8.2584   -7.1904   -0.1186 H   0  0  0  0  0  0  0  0  0  0  0  0
   10.7000   -6.7981   -0.5955 H   0  0  0  0  0  0  0  0  0  0  0  0
   10.3160   -6.4298   -2.2688 H   0  0  0  0  0  0  0  0  0  0  0  0
    9.3534   -8.7467   -2.5754 H   0  0  0  0  0  0  0  0  0  0  0  0
    9.7721   -9.1286   -0.9009 H   0  0  0  0  0  0  0  0  0  0  0  0
   12.0828   -8.5610   -0.4847 H   0  0  0  0  0  0  0  0  0  0  0  0
  1  2  1  0  0  0  0
  1 16  1  0  0  0  0
  2 18  1  0  0  0  0
  2  3  1  0  0  0  0
  3 20  1  0  0  0  0
  4  3  2  0  0  0  0
  4  5  1  0  0  0  0
  5 22  1  0  0  0  0
  5  6  1  0  0  0  0
  6 24  1  0  0  0  0
  6 25  1  0  0  0  0
  7  6  1  0  0  0  0
  7 27  1  0  0  0  0
  8  7  1  0  0  0  0
  8 28  1  0  0  0  0
  9  8  1  0  0  0  0
  9 31  1  0  0  0  0
 10  9  1  0  0  0  0
 10 32  1  0  0  0  0
 11 10  1  0  0  0  0
 11 35  1  0  0  0  0
 12 11  1  0  0  0  0
 12 14  1  0  0  0  0
 13 12  2  0  0  0  0
 14 36  1  0  0  0  0
 15  1  1  0  0  0  0
 17  1  1  0  0  0  0
 19  2  1  0  0  0  0
 21  4  1  0  0  0  0
 23  5  1  0  0  0  0
 26  7  1  0  0  0  0
 29  8  1  0  0  0  0
 30  9  1  0  0  0  0
 33 10  1  0  0  0  0
 34 11  1  0  0  0  0
M  END
>  <HBA>
2

>  <HBD>
1

>  <TPSA>
37.3

>  <cid>
16940

>  <dipole>
4.72

>  <excitation_energy_1>
5.604

>  <excitation_energy_2>
5.936

>  <excitation_energy_3>
6.037

>  <excitation_energy_4>
6.123

>  <homo_energy>
-6.509

>  <homo_lumo_gap>
6.83

>  <logP>
3.768

>  <lumo_energy>
0.321

>  <melting_point>
56.4

>  <molecular_refractivity>
61.1

>  <oscillator_strength_1>
0.0026

>  <oscillator_strength_2>
0.0043

>  <oscillator_strength_3>
0.0019

>  <oscillator_strength_4>
0.0182

>  <open_babel_can_smiles>
CC/C=C/CCCCCCCC(=O)O

>  <mulliken_charges>
36
1   -0.439261
2   -0.297825
3   -0.079544
4   -0.114655
5   -0.300644
6   -0.265036
7   -0.255537
8   -0.25684
9   -0.253083
10   -0.270602
11   -0.378673
12   0.588598
13   -0.435401
14   -0.56484
15   0.143642
16   0.141896
17   0.148328
18   0.140588
19   0.138225
20   0.117065
21   0.114824
22   0.146794
23   0.14104
24   0.136591
25   0.127873
26   0.141701
27   0.125924
28   0.126039
29   0.138318
30   0.14081
31   0.129769
32   0.122665
33   0.160052
34   0.17967
35   0.153793
36   0.407737

>  <lowdin_charges>
36
1   -0.445896
2   -0.269001
3   -0.175364
4   -0.173372
5   -0.276119
6   -0.276833
7   -0.280618
8   -0.277372
9   -0.274851
10   -0.274405
11   -0.317481
12   0.191532
13   -0.236303
14   -0.362448
15   0.150331
16   0.147658
17   0.150667
18   0.147563
19   0.146234
20   0.146347
21   0.146454
22   0.152867
23   0.14689
24   0.143947
25   0.142862
26   0.146219
27   0.140653
28   0.137207
29   0.142587
30   0.14529
31   0.139394
32   0.134348
33   0.154257
34   0.173682
35   0.156939
36   0.356132

$$$$

