PCCDB-ID:  12297
public computational chemistry database (PCCDB) project, http://pccdb.org

 21 20  0  0  1  0  0  0  0  0999 V2000
    0.7993   -0.7357    0.7609 C   0  0  0  0  0  0  0  0  0  0  0  0
    6.8493   -2.4212    2.2253 C   0  0  0  0  0  0  0  0  0  0  0  0
    2.3242   -0.6263    0.6610 C   0  0  0  0  0  0  0  0  0  0  0  0
    3.0595   -1.6379    1.5489 C   0  0  0  0  0  0  0  0  0  0  0  0
    4.5862   -1.5314    1.4603 C   0  0  0  0  0  0  0  0  0  0  0  0
    5.3299   -2.5066    2.3847 C   0  0  2  0  0  0  0  0  0  0  0  0
    4.9502   -2.3282    3.7540 O   0  0  0  0  0  0  0  0  0  0  0  0
    0.3013   -0.0013    0.1175 H   0  0  0  0  0  0  0  0  0  0  0  0
    0.4572   -0.5653    1.7891 H   0  0  0  0  0  0  0  0  0  0  0  0
    0.4530   -1.7319    0.4595 H   0  0  0  0  0  0  0  0  0  0  0  0
    7.1589   -2.6683    1.2030 H   0  0  0  0  0  0  0  0  0  0  0  0
    7.3430   -3.1129    2.9153 H   0  0  0  0  0  0  0  0  0  0  0  0
    7.2074   -1.4057    2.4442 H   0  0  0  0  0  0  0  0  0  0  0  0
    2.6365    0.3917    0.9356 H   0  0  0  0  0  0  0  0  0  0  0  0
    2.6337   -0.7659   -0.3849 H   0  0  0  0  0  0  0  0  0  0  0  0
    2.7528   -2.6571    1.2699 H   0  0  0  0  0  0  0  0  0  0  0  0
    2.7556   -1.5066    2.5949 H   0  0  0  0  0  0  0  0  0  0  0  0
    4.9011   -0.5045    1.7098 H   0  0  0  0  0  0  0  0  0  0  0  0
    4.9143   -1.7038    0.4250 H   0  0  0  0  0  0  0  0  0  0  0  0
    5.0041   -3.5287    2.1531 H   0  0  0  0  0  0  0  0  0  0  0  0
    5.2317   -1.4355    4.0142 H   0  0  0  0  0  0  0  0  0  0  0  0
  1  9  1  0  0  0  0
  2  6  1  0  0  0  0
  2 13  1  0  0  0  0
  2 12  1  0  0  0  0
  3  1  1  0  0  0  0
  3 14  1  0  0  0  0
  3  4  1  0  0  0  0
  4 17  1  0  0  0  0
  5  4  1  0  0  0  0
  5 18  1  0  0  0  0
  5  6  1  0  0  0  0
  6 20  1  6  0  0  0
  6  7  1  0  0  0  0
  7 21  1  0  0  0  0
  8  1  1  0  0  0  0
 10  1  1  0  0  0  0
 11  2  1  0  0  0  0
 15  3  1  0  0  0  0
 16  4  1  0  0  0  0
 19  5  1  0  0  0  0
M  END
>  <HBA>
1

>  <HBD>
1

>  <TPSA>
20.23

>  <cid>
12297

>  <dipole>
1.55

>  <excitation_energy_1>
6.637

>  <excitation_energy_2>
7.158

>  <excitation_energy_3>
7.372

>  <excitation_energy_4>
7.437

>  <homo_energy>
-7.08

>  <homo_lumo_gap>
9.051

>  <logP>
1.557

>  <lumo_energy>
1.97

>  <melting_point>
-7.94

>  <molecular_refractivity>
32.12

>  <oscillator_strength_1>
0.0209

>  <oscillator_strength_2>
0.0068

>  <oscillator_strength_3>
0.0045

>  <oscillator_strength_4>
0.0067

>  <open_babel_can_smiles>
CCCC[C@H](O)C

>  <mulliken_charges>
21
1   -0.440702
2   -0.45676
3   -0.247795
4   -0.243266
5   -0.268974
6   0.138038
7   -0.618252
8   0.140337
9   0.142556
10   0.141783
11   0.142784
12   0.157829
13   0.130476
14   0.127132
15   0.127903
16   0.126371
17   0.144413
18   0.113784
19   0.128244
20   0.134495
21   0.379604

>  <lowdin_charges>
21
1   -0.444323
2   -0.460368
3   -0.269834
4   -0.274264
5   -0.289911
6   0.0038
7   -0.465284
8   0.149768
9   0.146077
10   0.146097
11   0.152009
12   0.159275
13   0.142021
14   0.136196
15   0.135891
16   0.137604
17   0.145691
18   0.131484
19   0.142245
20   0.140455
21   0.335369

$$$$

