PCCDB-ID:  69146
public computational chemistry database (PCCDB) project, http://pccdb.org

 28 29  0  0  0  0  0  0  0  0999 V2000
    0.7984   -0.5157   -0.7383 C   0  0  0  0  0  0  0  0  0  0  0  0
    7.2368   -1.1011    6.9117 C   0  0  0  0  0  0  0  0  0  0  0  0
    7.7172   -2.2283    6.2379 C   0  0  0  0  0  0  0  0  0  0  0  0
    6.0332   -0.5154    6.5173 C   0  0  0  0  0  0  0  0  0  0  0  0
    6.9960   -2.7645    5.1754 C   0  0  0  0  0  0  0  0  0  0  0  0
    5.3200   -1.0397    5.4382 C   0  0  0  0  0  0  0  0  0  0  0  0
    4.3997   -0.6508    2.4443 C   0  0  0  0  0  0  0  0  0  0  0  0
    3.1728   -2.6803    2.0090 C   0  0  0  0  0  0  0  0  0  0  0  0
    3.6097    0.0258    1.5263 C   0  0  0  0  0  0  0  0  0  0  0  0
    2.3600   -2.0110    1.0998 C   0  0  0  0  0  0  0  0  0  0  0  0
    5.7987   -2.1661    4.7518 C   0  0  0  0  0  0  0  0  0  0  0  0
    4.1911   -2.0175    2.7093 C   0  0  0  0  0  0  0  0  0  0  0  0
    2.5768   -0.6464    0.8540 C   0  0  0  0  0  0  0  0  0  0  0  0
    5.0457   -2.8252    3.6306 C   0  0  0  0  0  0  0  0  0  0  0  0
    5.1413   -4.0397    3.4754 O   0  0  0  0  0  0  0  0  0  0  0  0
    1.8508    0.1070   -0.0144 O   0  0  0  0  0  0  0  0  0  0  0  0
    0.3630    0.2667   -1.3619 H   0  0  0  0  0  0  0  0  0  0  0  0
    0.0285   -0.9146   -0.0654 H   0  0  0  0  0  0  0  0  0  0  0  0
    1.1741   -1.3241   -1.3784 H   0  0  0  0  0  0  0  0  0  0  0  0
    7.7964   -0.6859    7.7458 H   0  0  0  0  0  0  0  0  0  0  0  0
    8.6500   -2.6912    6.5485 H   0  0  0  0  0  0  0  0  0  0  0  0
    5.6466    0.3490    7.0505 H   0  0  0  0  0  0  0  0  0  0  0  0
    7.3413   -3.6529    4.6563 H   0  0  0  0  0  0  0  0  0  0  0  0
    4.3756   -0.5900    5.1486 H   0  0  0  0  0  0  0  0  0  0  0  0
    5.2058   -0.1189    2.9388 H   0  0  0  0  0  0  0  0  0  0  0  0
    3.0293   -3.7402    2.1926 H   0  0  0  0  0  0  0  0  0  0  0  0
    3.7737    1.0759    1.3061 H   0  0  0  0  0  0  0  0  0  0  0  0
    1.5733   -2.5522    0.5869 H   0  0  0  0  0  0  0  0  0  0  0  0
  1 18  1  0  0  0  0
  1 16  1  0  0  0  0
  2 20  1  0  0  0  0
  3 21  1  0  0  0  0
  3  2  2  0  0  0  0
  4  2  1  0  0  0  0
  4 22  1  0  0  0  0
  5  3  1  0  0  0  0
  6  4  2  0  0  0  0
  7 12  1  0  0  0  0
  7 25  1  0  0  0  0
  8 26  1  0  0  0  0
  8 12  2  0  0  0  0
  9  7  2  0  0  0  0
 10  8  1  0  0  0  0
 11  5  2  0  0  0  0
 11  6  1  0  0  0  0
 12 14  1  0  0  0  0
 13 10  2  0  0  0  0
 13  9  1  0  0  0  0
 14 11  1  0  0  0  0
 15 14  2  0  0  0  0
 16 13  1  0  0  0  0
 17  1  1  0  0  0  0
 19  1  1  0  0  0  0
 23  5  1  0  0  0  0
 24  6  1  0  0  0  0
 27  9  1  0  0  0  0
 28 10  1  0  0  0  0
M  END
>  <HBA>
2

>  <HBD>
0

>  <TPSA>
26.3

>  <cid>
69146

>  <dipole>
2.89

>  <excitation_energy_1>
3.611

>  <excitation_energy_2>
4.193

>  <excitation_energy_3>
4.593

>  <excitation_energy_4>
4.671

>  <homo_energy>
-6.155

>  <homo_lumo_gap>
4.65

>  <logP>
2.926

>  <lumo_energy>
-1.505

>  <melting_point>
69.86

>  <molecular_refractivity>
62.81

>  <oscillator_strength_1>
0.003

>  <oscillator_strength_2>
0.313

>  <oscillator_strength_3>
0.013

>  <oscillator_strength_4>
0.0012

>  <open_babel_can_smiles>
COc1ccc(cc1)C(=O)c1ccccc1

>  <mulliken_charges>
28
1   -0.219424
2   -0.120111
3   -0.13535
4   -0.136922
5   -0.150869
6   -0.177548
7   -0.182334
8   -0.162829
9   -0.181204
10   -0.198975
11   0.073844
12   0.070117
13   0.386071
14   0.317334
15   -0.474361
16   -0.501317
17   0.174368
18   0.157035
19   0.158304
20   0.134928
21   0.136096
22   0.134391
23   0.157359
24   0.147461
25   0.150639
26   0.161724
27   0.143294
28   0.138278

>  <lowdin_charges>
28
1   -0.281142
2   -0.14476
3   -0.155624
4   -0.159412
5   -0.131316
6   -0.153483
7   -0.142549
8   -0.114911
9   -0.184989
10   -0.213801
11   -0.040824
12   -0.065289
13   0.113762
14   0.152583
15   -0.255557
16   -0.188701
17   0.166804
18   0.149499
19   0.149826
20   0.160958
21   0.160744
22   0.160427
23   0.174059
24   0.165716
25   0.169595
26   0.174349
27   0.167688
28   0.166349

$$$$

