PCCDB-ID:  11520
public computational chemistry database (PCCDB) project, http://pccdb.org

 24 23  0  0  1  0  0  0  0  0999 V2000
    0.2840   -0.4982   -0.9006 C   0  0  0  0  0  0  0  0  0  0  0  0
    6.7565    2.3020   -3.9658 C   0  0  0  0  0  0  0  0  0  0  0  0
    1.7918   -0.2804   -0.7366 C   0  0  0  0  0  0  0  0  0  0  0  0
    6.0942    1.5870   -2.7850 C   0  0  0  0  0  0  0  0  0  0  0  0
    2.4314    0.4290   -1.9365 C   0  0  0  0  0  0  0  0  0  0  0  0
    3.9407    0.6504   -1.7810 C   0  0  0  0  0  0  0  0  0  0  0  0
    4.5991    1.3095   -3.0016 C   0  0  2  0  0  0  0  0  0  0  0  0
    4.3812    0.5395   -4.1911 O   0  0  0  0  0  0  0  0  0  0  0  0
   -0.1444   -1.0096   -0.0310 H   0  0  0  0  0  0  0  0  0  0  0  0
    0.0665   -1.1070   -1.7868 H   0  0  0  0  0  0  0  0  0  0  0  0
   -0.2433    0.4563   -1.0192 H   0  0  0  0  0  0  0  0  0  0  0  0
    7.8295    2.4427   -3.7942 H   0  0  0  0  0  0  0  0  0  0  0  0
    6.3106    3.2913   -4.1263 H   0  0  0  0  0  0  0  0  0  0  0  0
    6.6251    1.7279   -4.8879 H   0  0  0  0  0  0  0  0  0  0  0  0
    2.2863   -1.2505   -0.5828 H   0  0  0  0  0  0  0  0  0  0  0  0
    1.9801    0.3032    0.1761 H   0  0  0  0  0  0  0  0  0  0  0  0
    6.2146    2.1806   -1.8685 H   0  0  0  0  0  0  0  0  0  0  0  0
    6.6031    0.6285   -2.5950 H   0  0  0  0  0  0  0  0  0  0  0  0
    1.9389    1.4010   -2.0889 H   0  0  0  0  0  0  0  0  0  0  0  0
    2.2497   -0.1486   -2.8514 H   0  0  0  0  0  0  0  0  0  0  0  0
    4.4386   -0.3152   -1.5925 H   0  0  0  0  0  0  0  0  0  0  0  0
    4.1378    1.2695   -0.8940 H   0  0  0  0  0  0  0  0  0  0  0  0
    4.0902    2.2606   -3.2090 H   0  0  0  0  0  0  0  0  0  0  0  0
    4.8124   -0.3207   -4.0549 H   0  0  0  0  0  0  0  0  0  0  0  0
  1  3  1  0  0  0  0
  1  9  1  0  0  0  0
  2 12  1  0  0  0  0
  2  4  1  0  0  0  0
  3 15  1  0  0  0  0
  3 16  1  0  0  0  0
  4 18  1  0  0  0  0
  4 17  1  0  0  0  0
  5  6  1  0  0  0  0
  5  3  1  0  0  0  0
  6 21  1  0  0  0  0
  6 22  1  0  0  0  0
  7 23  1  6  0  0  0
  7  4  1  0  0  0  0
  7  6  1  0  0  0  0
  8 24  1  0  0  0  0
  8  7  1  0  0  0  0
 10  1  1  0  0  0  0
 11  1  1  0  0  0  0
 13  2  1  0  0  0  0
 14  2  1  0  0  0  0
 19  5  1  0  0  0  0
 20  5  1  0  0  0  0
M  END
>  <HBA>
1

>  <HBD>
1

>  <TPSA>
20.23

>  <cid>
11520

>  <dipole>
1.53

>  <excitation_energy_1>
6.589

>  <excitation_energy_2>
7.107

>  <excitation_energy_3>
7.292

>  <excitation_energy_4>
7.368

>  <homo_energy>
-7.072

>  <homo_lumo_gap>
8.996

>  <logP>
1.948

>  <lumo_energy>
1.924

>  <melting_point>
-8.61

>  <molecular_refractivity>
36.92

>  <oscillator_strength_1>
0.0075

>  <oscillator_strength_2>
0.0003

>  <oscillator_strength_3>
0.0004

>  <oscillator_strength_4>
0.0008

>  <open_babel_can_smiles>
CCCC[C@@H](CC)O

>  <mulliken_charges>
24
1   -0.440814
2   -0.439472
3   -0.24749
4   -0.265646
5   -0.24378
6   -0.273899
7   0.139228
8   -0.619981
9   0.140425
10   0.142516
11   0.141813
12   0.138714
13   0.141656
14   0.157882
15   0.127052
16   0.127998
17   0.131799
18   0.117624
19   0.126542
20   0.144055
21   0.114288
22   0.128783
23   0.130668
24   0.380038

>  <lowdin_charges>
24
1   -0.445524
2   -0.443914
3   -0.272035
4   -0.289193
5   -0.276223
6   -0.291618
7   -0.001714
8   -0.462874
9   0.149314
10   0.147346
11   0.146515
12   0.146544
13   0.147053
14   0.155445
15   0.136805
16   0.137419
17   0.144822
18   0.133935
19   0.138286
20   0.146934
21   0.13259
22   0.143881
23   0.139922
24   0.336285

$$$$

