PCCDB-ID:  1002
public computational chemistry database (PCCDB) project, http://pccdb.org

 21 22  0  0  1  0  0  0  0  0999 V2000
   -1.5167   -0.2281    0.1789 C   0  0  0  0  0  0  0  0  0  0  0  0
   -0.9604    1.0468    0.0414 C   0  0  0  0  0  0  0  0  0  0  0  0
   -0.6884   -1.3499    0.1573 C   0  0  0  0  0  0  0  0  0  0  0  0
    0.4172    1.2038   -0.1038 C   0  0  0  0  0  0  0  0  0  0  0  0
    0.6916   -1.1941    0.0022 C   0  0  0  0  0  0  0  0  0  0  0  0
    1.2559    0.0835   -0.1206 C   0  0  0  0  0  0  0  0  0  0  0  0
    2.7639    0.2331   -0.1869 C   0  0  2  0  0  0  0  0  0  0  0  0
    3.4051    0.3445    1.2042 C   0  0  0  0  0  0  0  0  0  0  0  0
    4.0726    1.9424    0.0294 C   0  0  0  0  0  0  0  0  0  0  0  0
    3.2795    1.4220   -0.8511 N   0  0  0  0  0  0  0  0  0  0  0  0
    4.2032    1.3513    1.3007 N   0  0  0  0  0  0  0  0  0  0  0  0
    3.1823   -0.5071    2.2029 O   0  0  0  0  0  0  0  0  0  0  0  0
    4.8001    3.0425   -0.1809 O   0  0  0  0  0  0  0  0  0  0  0  0
   -2.5909   -0.3456    0.2914 H   0  0  0  0  0  0  0  0  0  0  0  0
   -1.6033    1.9229    0.0471 H   0  0  0  0  0  0  0  0  0  0  0  0
   -1.1134   -2.3462    0.2444 H   0  0  0  0  0  0  0  0  0  0  0  0
    0.8543    2.1902   -0.2209 H   0  0  0  0  0  0  0  0  0  0  0  0
    1.3284   -2.0760   -0.0607 H   0  0  0  0  0  0  0  0  0  0  0  0
    3.1839   -0.6635   -0.6710 H   0  0  0  0  0  0  0  0  0  0  0  0
    2.4256   -1.0732    1.9641 H   0  0  0  0  0  0  0  0  0  0  0  0
    4.6074    3.3251   -1.0927 H   0  0  0  0  0  0  0  0  0  0  0  0
  1 14  1  0  0  0  0
  2 15  1  0  0  0  0
  2  1  2  0  0  0  0
  3  1  1  0  0  0  0
  3 16  1  0  0  0  0
  4  2  1  0  0  0  0
  5  3  2  0  0  0  0
  6  4  2  0  0  0  0
  6  5  1  0  0  0  0
  7 19  1  6  0  0  0
  7  6  1  0  0  0  0
  7  8  1  0  0  0  0
  8 11  2  0  0  0  0
  8 12  1  0  0  0  0
  9 11  2  0  0  0  0
 10  7  1  0  0  0  0
 10  9  2  0  0  0  0
 13  9  1  0  0  0  0
 17  4  1  0  0  0  0
 18  5  1  0  0  0  0
 20 12  1  0  0  0  0
 21 13  1  0  0  0  0
M  END
>  <HBA>
4

>  <HBD>
2

>  <TPSA>
58.2

>  <cid>
1002

>  <dipole>
4.02

>  <excitation_energy_1>
4.961

>  <excitation_energy_2>
5.213

>  <excitation_energy_3>
5.224

>  <excitation_energy_4>
5.432

>  <homo_energy>
-6.64

>  <homo_lumo_gap>
5.804

>  <logP>
1.225

>  <lumo_energy>
-0.835

>  <melting_point>
135.87

>  <molecular_refractivity>
53.13

>  <oscillator_strength_1>
0.0131

>  <oscillator_strength_2>
0.005

>  <oscillator_strength_3>
0.0033

>  <oscillator_strength_4>
0.0041

>  <open_babel_can_smiles>
OC1=[N]=[C](=N[C@@H]1c1ccccc1)O

>  <mulliken_charges>
21
1   -0.125623
2   -0.128975
3   -0.126062
4   -0.165358
5   -0.222904
6   0.168165
7   -0.168353
8   0.532227
9   0.622406
10   -0.484781
11   -0.466007
12   -0.575862
13   -0.589079
14   0.137963
15   0.140609
16   0.138456
17   0.154512
18   0.130577
19   0.184572
20   0.423257
21   0.420261

>  <lowdin_charges>
21
1   -0.15086
2   -0.14588
3   -0.150257
4   -0.15001
5   -0.193168
6   -0.010032
7   -0.092639
8   0.14062
9   0.149328
10   -0.28733
11   -0.196099
12   -0.311832
13   -0.326835
14   0.160139
15   0.163641
16   0.1614
17   0.171287
18   0.154725
19   0.17448
20   0.369819
21   0.369503

$$$$

