PCCDB-ID:  17839
public computational chemistry database (PCCDB) project, http://pccdb.org

 33 35  0  0  0  0  0  0  0  0999 V2000
    2.4476    1.7634   -0.0652 C   0  0  0  0  0  0  0  0  0  0  0  0
    1.7445   -0.3826    0.8463 C   0  0  0  0  0  0  0  0  0  0  0  0
    3.8632   -4.3077   -4.3012 C   0  0  0  0  0  0  0  0  0  0  0  0
    3.8224    1.1145   -5.9850 C   0  0  0  0  0  0  0  0  0  0  0  0
    3.2639   -4.6758   -3.0946 C   0  0  0  0  0  0  0  0  0  0  0  0
    4.2135    2.1024   -5.0824 C   0  0  0  0  0  0  0  0  0  0  0  0
    3.9973   -2.9582   -4.6106 C   0  0  0  0  0  0  0  0  0  0  0  0
    3.5680   -0.1762   -5.5250 C   0  0  0  0  0  0  0  0  0  0  0  0
    2.8252   -3.6907   -2.2187 C   0  0  0  0  0  0  0  0  0  0  0  0
    4.3026    1.7950   -3.7260 C   0  0  0  0  0  0  0  0  0  0  0  0
    3.5589   -1.9425   -3.7408 C   0  0  0  0  0  0  0  0  0  0  0  0
    3.7019   -0.5267   -4.1708 C   0  0  0  0  0  0  0  0  0  0  0  0
    2.9825   -2.3214   -2.5023 C   0  0  0  0  0  0  0  0  0  0  0  0
    4.0410    0.4996   -3.2671 C   0  0  0  0  0  0  0  0  0  0  0  0
    3.0464   -0.3507   -1.2031 C   0  0  0  0  0  0  0  0  0  0  0  0
    2.4693   -1.4500   -1.5301 N   0  0  0  0  0  0  0  0  0  0  0  0
    4.1428    0.2186   -1.8775 N   0  0  0  0  0  0  0  0  0  0  0  0
    2.6643    0.3180   -0.0435 N   0  0  0  0  0  0  0  0  0  0  0  0
    2.6501    2.1823    0.9267 H   0  0  0  0  0  0  0  0  0  0  0  0
    1.4094    2.0111   -0.3384 H   0  0  0  0  0  0  0  0  0  0  0  0
    3.1048    2.2516   -0.7860 H   0  0  0  0  0  0  0  0  0  0  0  0
    1.7819    0.0981    1.8300 H   0  0  0  0  0  0  0  0  0  0  0  0
    2.0476   -1.4254    0.9350 H   0  0  0  0  0  0  0  0  0  0  0  0
    0.7087   -0.3591    0.4774 H   0  0  0  0  0  0  0  0  0  0  0  0
    4.2229   -5.0626   -4.9948 H   0  0  0  0  0  0  0  0  0  0  0  0
    3.7177    1.3438   -7.0416 H   0  0  0  0  0  0  0  0  0  0  0  0
    3.1392   -5.7247   -2.8382 H   0  0  0  0  0  0  0  0  0  0  0  0
    4.4283    3.1113   -5.4234 H   0  0  0  0  0  0  0  0  0  0  0  0
    4.4778   -2.6738   -5.5423 H   0  0  0  0  0  0  0  0  0  0  0  0
    3.2583   -0.9411   -6.2305 H   0  0  0  0  0  0  0  0  0  0  0  0
    2.3462   -3.9516   -1.2798 H   0  0  0  0  0  0  0  0  0  0  0  0
    4.5813    2.5663   -3.0104 H   0  0  0  0  0  0  0  0  0  0  0  0
    4.6250    0.9332   -1.3470 H   0  0  0  0  0  0  0  0  0  0  0  0
  1 18  1  0  0  0  0
  1 19  1  0  0  0  0
  2 23  1  0  0  0  0
  2 22  1  0  0  0  0
  3  5  1  0  0  0  0
  4  8  2  0  0  0  0
  4  6  1  0  0  0  0
  5 27  1  0  0  0  0
  5  9  2  0  0  0  0
  6 10  2  0  0  0  0
  7  3  2  0  0  0  0
  7 11  1  0  0  0  0
  8 12  1  0  0  0  0
  9 31  1  0  0  0  0
 10 14  1  0  0  0  0
 10 32  1  0  0  0  0
 11 13  2  0  0  0  0
 12 11  1  0  0  0  0
 12 14  2  0  0  0  0
 13  9  1  0  0  0  0
 13 16  1  0  0  0  0
 14 17  1  0  0  0  0
 15 18  1  0  0  0  0
 16 15  2  0  0  0  0
 17 33  1  0  0  0  0
 17 15  1  0  0  0  0
 18  2  1  0  0  0  0
 20  1  1  0  0  0  0
 21  1  1  0  0  0  0
 24  2  1  0  0  0  0
 25  3  1  0  0  0  0
 26  4  1  0  0  0  0
 28  6  1  0  0  0  0
 29  7  1  0  0  0  0
 30  8  1  0  0  0  0
M  END
>  <HBA>
3

>  <HBD>
1

>  <TPSA>
27.63

>  <cid>
17839

>  <dipole>
3.15

>  <excitation_energy_1>
3.653

>  <excitation_energy_2>
4.23

>  <excitation_energy_3>
4.373

>  <excitation_energy_4>
4.602

>  <homo_energy>
-5.184

>  <homo_lumo_gap>
4.479

>  <logP>
2.902

>  <lumo_energy>
-0.705

>  <melting_point>
126.94

>  <molecular_refractivity>
82.24

>  <oscillator_strength_1>
0.0444

>  <oscillator_strength_2>
0.0232

>  <oscillator_strength_3>
0.0175

>  <oscillator_strength_4>
0.0879

>  <open_babel_can_smiles>
CN(C1=Nc2ccccc2c2c(N1)cccc2)C

>  <mulliken_charges>
33
1   -0.318255
2   -0.29062
3   -0.136905
4   -0.130957
5   -0.131323
6   -0.136387
7   -0.19393
8   -0.202067
9   -0.159188
10   -0.183224
11   0.090498
12   0.093412
13   0.223563
14   0.245902
15   0.623098
16   -0.566996
17   -0.680446
18   -0.431593
19   0.161822
20   0.158099
21   0.151425
22   0.141919
23   0.182072
24   0.153295
25   0.122305
26   0.128396
27   0.124098
28   0.129889
29   0.12807
30   0.137918
31   0.12685
32   0.118083
33   0.321177

>  <lowdin_charges>
33
1   -0.351586
2   -0.345775
3   -0.173546
4   -0.16677
5   -0.153441
6   -0.150997
7   -0.158725
8   -0.154296
9   -0.165942
10   -0.194533
11   -0.029715
12   -0.01466
13   0.049832
14   0.051639
15   0.139426
16   -0.230339
17   -0.278426
18   -0.127991
19   0.153635
20   0.144982
21   0.15514
22   0.146889
23   0.171063
24   0.144672
25   0.156418
26   0.157002
27   0.154438
28   0.158
29   0.157244
30   0.163931
31   0.160344
32   0.152155
33   0.27993

$$$$

