PCCDB-ID:  4797
public computational chemistry database (PCCDB) project, http://pccdb.org

 16 15  0  0  1  0  0  0  0  0999 V2000
    1.0587    1.0528   -1.2166 C   0  0  0  0  0  0  0  0  0  0  0  0
    0.7521    0.8155   -2.6841 C   0  0  1  0  0  0  0  0  0  0  0  0
    0.2365   -0.2684   -3.1276 N   0  0  0  0  0  0  0  0  0  0  0  0
    1.0067    1.7924   -3.5780 O   0  0  0  0  0  0  0  0  0  0  0  0
    0.0066   -1.1547   -2.0342 O   0  0  0  0  0  0  0  0  0  0  0  0
    2.5436    4.3451    0.1118 O   0  0  0  0  0  0  0  0  0  0  0  0
    1.2198    4.3960   -1.9943 O   0  0  0  0  0  0  0  0  0  0  0  0
    0.0291    3.5673    0.2060 O   0  0  0  0  0  0  0  0  0  0  0  0
    1.9031    2.2148   -1.0479 O   0  0  0  0  0  0  0  0  0  0  0  0
    1.2814    3.6237   -0.5750 P   0  0  0  0  0  0  0  0  0  0  0  0
    1.6088    0.2007   -0.8145 H   0  0  0  0  0  0  0  0  0  0  0  0
    0.1347    1.1683   -0.6420 H   0  0  0  0  0  0  0  0  0  0  0  0
    1.4628    2.5258   -3.1300 H   0  0  0  0  0  0  0  0  0  0  0  0
   -0.3408   -1.9354   -2.4900 H   0  0  0  0  0  0  0  0  0  0  0  0
    2.6065    4.1198    1.0553 H   0  0  0  0  0  0  0  0  0  0  0  0
    0.5421    5.0929   -1.9952 H   0  0  0  0  0  0  0  0  0  0  0  0
  1  9  1  0  0  0  0
  1 11  1  0  0  0  0
  1 12  1  0  0  0  0
  2  4  1  1  0  0  0
  2  1  1  0  0  0  0
  3  2  1  0  0  0  0
  3  5  1  0  0  0  0
  4 13  1  0  0  0  0
  6 15  1  0  0  0  0
  7 10  1  0  0  0  0
  9 10  1  0  0  0  0
 10  6  1  0  0  0  0
 10  8  2  0  0  0  0
 14  5  1  0  0  0  0
 16  7  1  0  0  0  0
M  RAD  2   2   2   3   2
M  END
>  <HBA>
7

>  <HBD>
4

>  <TPSA>
125.9

>  <cid>
4797

>  <dipole>
2.65

>  <excitation_energy_1>
5.031

>  <excitation_energy_2>
5.779

>  <excitation_energy_3>
6.0

>  <excitation_energy_4>
6.259

>  <homo_energy>
-6.204

>  <homo_lumo_gap>
6.376

>  <logP>
-1.008

>  <lumo_energy>
0.171

>  <melting_point>
158.3

>  <molecular_refractivity>
27.53

>  <oscillator_strength_1>
0.003

>  <oscillator_strength_2>
0.0017

>  <oscillator_strength_3>
0.0002

>  <oscillator_strength_4>
0.005

>  <open_babel_can_smiles>
O[N][C](COP(=O)(O)O)O

>  <mulliken_charges>
16
1   -0.119376
2   0.498729
3   -0.239776
4   -0.598453
5   -0.536641
6   -0.605973
7   -0.649762
8   -0.538892
9   -0.54122
10   1.127555
11   0.208152
12   0.218862
13   0.451475
14   0.423083
15   0.448812
16   0.453424

>  <lowdin_charges>
16
1   -0.14897
2   0.086231
3   -0.103524
4   -0.351389
5   -0.400202
6   -0.542055
7   -0.562541
8   -0.577525
9   -0.394615
10   1.104265
11   0.185859
12   0.190079
13   0.369307
14   0.36013
15   0.389792
16   0.395156

$$$$

