PCCDB-ID:  29898
public computational chemistry database (PCCDB) project, http://pccdb.org

 20 21  0  0  0  0  0  0  0  0999 V2000
    2.1900    0.7873    0.4074 C   0  0  0  0  0  0  0  0  0  0  0  0
    2.2840   -0.6659   -0.0853 C   0  0  0  0  0  0  0  0  0  0  0  0
    1.0051    1.5392   -0.2239 C   0  0  0  0  0  0  0  0  0  0  0  0
   -1.5930   -1.1826    0.2103 C   0  0  0  0  0  0  0  0  0  0  0  0
   -2.5492   -0.2168    0.1415 C   0  0  0  0  0  0  0  0  0  0  0  0
   -0.2620   -0.6542    0.0874 C   0  0  0  0  0  0  0  0  0  0  0  0
    0.9854   -1.4259    0.0959 C   0  0  0  0  0  0  0  0  0  0  0  0
   -0.2411    0.7145   -0.0707 C   0  0  0  0  0  0  0  0  0  0  0  0
    0.8876   -2.7039    0.2249 N   0  0  0  0  0  0  0  0  0  0  0  0
    2.1501   -3.3311    0.1859 O   0  0  0  0  0  0  0  0  0  0  0  0
   -1.8540    1.3687   -0.0745 S   0  0  0  0  0  0  0  0  0  0  0  0
    3.1264    1.3119    0.1856 H   0  0  0  0  0  0  0  0  0  0  0  0
    2.0704    0.7907    1.4982 H   0  0  0  0  0  0  0  0  0  0  0  0
    3.0864   -1.2005    0.4297 H   0  0  0  0  0  0  0  0  0  0  0  0
    2.5442   -0.6819   -1.1547 H   0  0  0  0  0  0  0  0  0  0  0  0
    1.2070    1.7264   -1.2898 H   0  0  0  0  0  0  0  0  0  0  0  0
    0.8862    2.5237    0.2443 H   0  0  0  0  0  0  0  0  0  0  0  0
   -1.7992   -2.2377    0.3422 H   0  0  0  0  0  0  0  0  0  0  0  0
   -3.6231   -0.3300    0.2036 H   0  0  0  0  0  0  0  0  0  0  0  0
    1.9127   -4.2609    0.3234 H   0  0  0  0  0  0  0  0  0  0  0  0
  1 13  1  0  0  0  0
  2  7  1  0  0  0  0
  2  1  1  0  0  0  0
  2 14  1  0  0  0  0
  3  8  1  0  0  0  0
  3 17  1  0  0  0  0
  3  1  1  0  0  0  0
  4 18  1  0  0  0  0
  5 19  1  0  0  0  0
  5  4  2  0  0  0  0
  6  7  1  0  0  0  0
  6  4  1  0  0  0  0
  7  9  2  0  0  0  0
  8  6  2  0  0  0  0
 10  9  1  0  0  0  0
 10 20  1  0  0  0  0
 11  8  1  0  0  0  0
 11  5  1  0  0  0  0
 12  1  1  0  0  0  0
 15  2  1  0  0  0  0
 16  3  1  0  0  0  0
M  END
>  <HBA>
3

>  <HBD>
1

>  <TPSA>
60.83

>  <cid>
29898

>  <dipole>
0.62

>  <excitation_energy_1>
4.906

>  <excitation_energy_2>
4.957

>  <excitation_energy_3>
5.154

>  <excitation_energy_4>
5.321

>  <homo_energy>
-5.763

>  <homo_lumo_gap>
5.14

>  <logP>
2.263

>  <lumo_energy>
-0.623

>  <melting_point>
104.24

>  <molecular_refractivity>
46.17

>  <oscillator_strength_1>
0.0043

>  <oscillator_strength_2>
0.2675

>  <oscillator_strength_3>
0.0054

>  <oscillator_strength_4>
0.1934

>  <open_babel_can_smiles>
O/N=C/1\CCCc2c1ccs2

>  <mulliken_charges>
20
1   -0.27851
2   -0.33833
3   -0.31206
4   -0.103966
5   -0.357755
6   0.134643
7   0.302555
8   -0.19738
9   -0.280026
10   -0.509555
11   0.236569
12   0.14157
13   0.153215
14   0.180108
15   0.164297
16   0.161106
17   0.156941
18   0.15769
19   0.172614
20   0.416275

>  <lowdin_charges>
20
1   -0.267791
2   -0.288408
3   -0.268405
4   -0.167508
5   -0.313983
6   -0.047313
7   0.021576
8   -0.164368
9   -0.083315
10   -0.380586
11   0.305707
12   0.150373
13   0.148196
14   0.172826
15   0.160812
16   0.154739
17   0.158629
18   0.174943
19   0.180299
20   0.353577

$$$$

