PCCDB-ID:  23286
public computational chemistry database (PCCDB) project, http://pccdb.org

 21 21  0  0  1  0  0  0  0  0999 V2000
    0.7367    1.2808   -0.2481 C   0  0  0  0  0  0  0  0  0  0  0  0
    1.4909    0.0255    0.2170 C   0  0  0  0  0  0  0  0  0  0  0  0
   -0.7268    1.2707    0.2215 C   0  0  0  0  0  0  0  0  0  0  0  0
    0.7593   -1.2567   -0.2147 C   0  0  0  0  0  0  0  0  0  0  0  0
   -1.4693   -0.0029   -0.2182 C   0  0  1  0  0  0  0  0  0  0  0  0
   -0.7073   -1.2706    0.2450 C   0  0  2  0  0  0  0  0  0  0  0  0
   -2.8587    0.0498    0.2507 N   0  0  0  0  0  0  0  0  0  0  0  0
   -0.8227   -1.4412    1.6654 O   0  0  0  0  0  0  0  0  0  0  0  0
    0.7617    1.3255   -1.3470 H   0  0  0  0  0  0  0  0  0  0  0  0
    1.2439    2.1852    0.1106 H   0  0  0  0  0  0  0  0  0  0  0  0
    1.5971    0.0473    1.3133 H   0  0  0  0  0  0  0  0  0  0  0  0
    2.5142    0.0214   -0.1774 H   0  0  0  0  0  0  0  0  0  0  0  0
   -1.2714    2.1422   -0.1564 H   0  0  0  0  0  0  0  0  0  0  0  0
   -0.7629    1.3457    1.3202 H   0  0  0  0  0  0  0  0  0  0  0  0
    1.2672   -2.1477    0.1736 H   0  0  0  0  0  0  0  0  0  0  0  0
    0.7805   -1.3275   -1.3116 H   0  0  0  0  0  0  0  0  0  0  0  0
   -1.4933   -0.0155   -1.3177 H   0  0  0  0  0  0  0  0  0  0  0  0
   -1.2113   -2.1534   -0.1675 H   0  0  0  0  0  0  0  0  0  0  0  0
   -2.8512   -0.1883    1.2440 H   0  0  0  0  0  0  0  0  0  0  0  0
   -3.3917   -0.6971   -0.1962 H   0  0  0  0  0  0  0  0  0  0  0  0
   -0.2630   -0.7729    2.0906 H   0  0  0  0  0  0  0  0  0  0  0  0
  1 10  1  0  0  0  0
  1  2  1  0  0  0  0
  1  3  1  0  0  0  0
  2 11  1  0  0  0  0
  3 14  1  0  0  0  0
  4 15  1  0  0  0  0
  4  2  1  0  0  0  0
  4  6  1  0  0  0  0
  5 17  1  6  0  0  0
  5  3  1  0  0  0  0
  5  6  1  0  0  0  0
  5  7  1  0  0  0  0
  6 18  1  6  0  0  0
  6  8  1  0  0  0  0
  7 19  1  0  0  0  0
  8 21  1  0  0  0  0
  9  1  1  0  0  0  0
 12  2  1  0  0  0  0
 13  3  1  0  0  0  0
 16  4  1  0  0  0  0
 20  7  1  0  0  0  0
M  END
>  <HBA>
2

>  <HBD>
2

>  <TPSA>
46.25

>  <cid>
23286

>  <dipole>
1.65

>  <excitation_energy_1>
5.569

>  <excitation_energy_2>
5.818

>  <excitation_energy_3>
6.129

>  <excitation_energy_4>
6.481

>  <homo_energy>
-6.123

>  <homo_lumo_gap>
7.714

>  <logP>
0.949

>  <lumo_energy>
1.592

>  <melting_point>
68.88

>  <molecular_refractivity>
32.71

>  <oscillator_strength_1>
0.009

>  <oscillator_strength_2>
0.0069

>  <oscillator_strength_3>
0.0171

>  <oscillator_strength_4>
0.0278

>  <open_babel_can_smiles>
N[C@H]1CCCC[C@H]1O

>  <mulliken_charges>
21
1   -0.260501
2   -0.278755
3   -0.261999
4   -0.278897
5   0.006192
6   0.125363
7   -0.7113
8   -0.637677
9   0.132142
10   0.135162
11   0.11889
12   0.141172
13   0.153142
14   0.113784
15   0.1446
16   0.13211
17   0.120754
18   0.122969
19   0.300483
20   0.289513
21   0.392854

>  <lowdin_charges>
21
1   -0.277979
2   -0.279815
3   -0.283611
4   -0.294768
5   -0.088132
6   -0.020552
7   -0.54718
8   -0.471536
9   0.137872
10   0.146532
11   0.128538
12   0.148834
13   0.157796
14   0.129315
15   0.151663
16   0.143476
17   0.135231
18   0.140294
19   0.252896
20   0.252557
21   0.33857

$$$$

