PCCDB-ID:  12201
public computational chemistry database (PCCDB) project, http://pccdb.org

 24 23  0  0  0  0  0  0  0  0999 V2000
    2.9905    3.7761    1.7131 C   0  0  0  0  0  0  0  0  0  0  0  0
    7.9278   -2.1502   -3.7531 C   0  0  0  0  0  0  0  0  0  0  0  0
    3.3428    2.5348    2.5192 C   0  0  0  0  0  0  0  0  0  0  0  0
    7.3100   -2.9319   -2.6032 C   0  0  0  0  0  0  0  0  0  0  0  0
    5.3619    0.2764    0.4274 C   0  0  0  0  0  0  0  0  0  0  0  0
    5.2933   -0.6470   -0.5380 C   0  0  0  0  0  0  0  0  0  0  0  0
    4.1326    0.9326    0.9436 C   0  0  0  0  0  0  0  0  0  0  0  0
    6.5226   -1.3048   -1.0522 C   0  0  0  0  0  0  0  0  0  0  0  0
    3.0035    0.7106    0.5520 O   0  0  0  0  0  0  0  0  0  0  0  0
    7.6528   -1.0727   -0.6699 O   0  0  0  0  0  0  0  0  0  0  0  0
    4.4460    1.8135    1.9187 O   0  0  0  0  0  0  0  0  0  0  0  0
    6.2070   -2.2069   -2.0070 O   0  0  0  0  0  0  0  0  0  0  0  0
    2.2056    4.3416    2.2283 H   0  0  0  0  0  0  0  0  0  0  0  0
    2.6197    3.4999    0.7221 H   0  0  0  0  0  0  0  0  0  0  0  0
    3.8637    4.4262    1.5975 H   0  0  0  0  0  0  0  0  0  0  0  0
    8.7075   -2.7525   -4.2334 H   0  0  0  0  0  0  0  0  0  0  0  0
    8.3841   -1.2253   -3.3895 H   0  0  0  0  0  0  0  0  0  0  0  0
    7.1723   -1.9020   -4.5055 H   0  0  0  0  0  0  0  0  0  0  0  0
    2.4871    1.8603    2.6031 H   0  0  0  0  0  0  0  0  0  0  0  0
    3.7026    2.7930    3.5180 H   0  0  0  0  0  0  0  0  0  0  0  0
    8.0488   -3.1462   -1.8271 H   0  0  0  0  0  0  0  0  0  0  0  0
    6.8618   -3.8668   -2.9480 H   0  0  0  0  0  0  0  0  0  0  0  0
    6.3169    0.5651    0.8552 H   0  0  0  0  0  0  0  0  0  0  0  0
    4.3383   -0.9365   -0.9652 H   0  0  0  0  0  0  0  0  0  0  0  0
  1 13  1  0  0  0  0
  1  3  1  0  0  0  0
  2 17  1  0  0  0  0
  2  4  1  0  0  0  0
  3 19  1  0  0  0  0
  3 20  1  0  0  0  0
  4 12  1  0  0  0  0
  4 21  1  0  0  0  0
  5 23  1  0  0  0  0
  5  7  1  0  0  0  0
  6  5  2  0  0  0  0
  7 11  1  0  0  0  0
  8 10  2  0  0  0  0
  8  6  1  0  0  0  0
  9  7  2  0  0  0  0
 11  3  1  0  0  0  0
 12  8  1  0  0  0  0
 14  1  1  0  0  0  0
 15  1  1  0  0  0  0
 16  2  1  0  0  0  0
 18  2  1  0  0  0  0
 22  4  1  0  0  0  0
 24  6  1  0  0  0  0
M  END
>  <HBA>
4

>  <HBD>
0

>  <TPSA>
52.6

>  <cid>
12201

>  <dipole>
0.31

>  <excitation_energy_1>
4.166

>  <excitation_energy_2>
4.305

>  <excitation_energy_3>
5.439

>  <excitation_energy_4>
5.501

>  <homo_energy>
-7.562

>  <homo_lumo_gap>
5.402

>  <logP>
0.669

>  <lumo_energy>
-2.161

>  <melting_point>
6.78

>  <molecular_refractivity>
42.67

>  <oscillator_strength_1>
0.0001

>  <oscillator_strength_2>
0.0004

>  <oscillator_strength_3>
0.1182

>  <oscillator_strength_4>
0.0012

>  <open_babel_can_smiles>
CCOC(=O)/C=C/C(=O)OCC

>  <mulliken_charges>
24
1   -0.463109
2   -0.463045
3   -0.046314
4   -0.046295
5   -0.161793
6   -0.161879
7   0.622514
8   0.622544
9   -0.487452
10   -0.487417
11   -0.470029
12   -0.470096
13   0.152628
14   0.177718
15   0.159944
16   0.152615
17   0.177736
18   0.159901
19   0.173069
20   0.156515
21   0.173012
22   0.156544
23   0.186351
24   0.186335

>  <lowdin_charges>
24
1   -0.455617
2   -0.456646
3   -0.128153
4   -0.129338
5   -0.14377
6   -0.143769
7   0.193404
8   0.193407
9   -0.267411
10   -0.267397
11   -0.185894
12   -0.186015
13   0.161326
14   0.165728
15   0.15796
16   0.161312
17   0.166431
18   0.15833
19   0.160855
20   0.153756
21   0.161233
22   0.154614
23   0.18783
24   0.187822

$$$$

