PCCDB-ID:  26083
public computational chemistry database (PCCDB) project, http://pccdb.org

 16 16  0  0  0  0  0  0  0  0999 V2000
    0.8684   -0.1137    0.0224 C   0  0  0  0  0  0  0  0  0  0  0  0
    2.9921    0.0747   -1.3494 C   0  0  0  0  0  0  0  0  0  0  0  0
    2.9045    1.0770    0.9966 C   0  0  0  0  0  0  0  0  0  0  0  0
    3.5901    0.5136    1.9888 C   0  0  0  0  0  0  0  0  0  0  0  0
    2.9698   -1.2638    0.7763 C   0  0  0  0  0  0  0  0  0  0  0  0
    2.4079   -0.0125    0.0765 C   0  0  0  0  0  0  0  0  0  0  0  0
    2.8675   -2.4159    0.4549 O   0  0  0  0  0  0  0  0  0  0  0  0
    3.6626   -0.8743    1.9114 O   0  0  0  0  0  0  0  0  0  0  0  0
    0.4506    0.7629   -0.4849 H   0  0  0  0  0  0  0  0  0  0  0  0
    0.4366   -0.1662    1.0270 H   0  0  0  0  0  0  0  0  0  0  0  0
    0.5722   -1.0119   -0.5292 H   0  0  0  0  0  0  0  0  0  0  0  0
    2.5935    0.9542   -1.8671 H   0  0  0  0  0  0  0  0  0  0  0  0
    2.7214   -0.8198   -1.9196 H   0  0  0  0  0  0  0  0  0  0  0  0
    4.0836    0.1550   -1.3288 H   0  0  0  0  0  0  0  0  0  0  0  0
    2.7268    2.1366    0.8659 H   0  0  0  0  0  0  0  0  0  0  0  0
    4.1015    0.9336    2.8441 H   0  0  0  0  0  0  0  0  0  0  0  0
  1  6  1  0  0  0  0
  1 10  1  0  0  0  0
  2 14  1  0  0  0  0
  2  6  1  0  0  0  0
  3  4  2  0  0  0  0
  4 16  1  0  0  0  0
  5  8  1  0  0  0  0
  6  5  1  0  0  0  0
  6  3  1  0  0  0  0
  7  5  2  0  0  0  0
  8  4  1  0  0  0  0
  9  1  1  0  0  0  0
 11  1  1  0  0  0  0
 12  2  1  0  0  0  0
 13  2  1  0  0  0  0
 15  3  1  0  0  0  0
M  END
>  <HBA>
2

>  <HBD>
0

>  <TPSA>
26.3

>  <cid>
26083

>  <dipole>
3.75

>  <excitation_energy_1>
5.397

>  <excitation_energy_2>
5.477

>  <excitation_energy_3>
6.162

>  <excitation_energy_4>
6.582

>  <homo_energy>
-6.7

>  <homo_lumo_gap>
6.343

>  <logP>
1.083

>  <lumo_energy>
-0.356

>  <melting_point>
36.93

>  <molecular_refractivity>
29.39

>  <oscillator_strength_1>
0.0012

>  <oscillator_strength_2>
0.0641

>  <oscillator_strength_3>
0.0328

>  <oscillator_strength_4>
0.0006

>  <open_babel_can_smiles>
O=C1OC=CC1(C)C

>  <mulliken_charges>
16
1   -0.443825
2   -0.44389
3   -0.166647
4   0.10544
5   0.620654
6   -0.053217
7   -0.452531
8   -0.44563
9   0.150623
10   0.159909
11   0.172258
12   0.150546
13   0.172266
14   0.159894
15   0.14865
16   0.165499

>  <lowdin_charges>
16
1   -0.431493
2   -0.430083
3   -0.213639
4   -0.044084
5   0.2051
6   -0.012147
7   -0.218145
8   -0.157825
9   0.155312
10   0.158062
11   0.165518
12   0.155232
13   0.165558
14   0.15665
15   0.171006
16   0.174979

$$$$

