PCCDB-ID:  70975
public computational chemistry database (PCCDB) project, http://pccdb.org

 18 19  0  0  0  0  0  0  0  0999 V2000
    0.9334   -0.1306   -0.0609 C   0  0  0  0  0  0  0  0  0  0  0  0
    3.2084    1.0233   -0.0640 C   0  0  0  0  0  0  0  0  0  0  0  0
    4.5200   -0.6383   -0.0609 C   0  0  0  0  0  0  0  0  0  0  0  0
    3.2301   -1.1796   -0.0604 C   0  0  0  0  0  0  0  0  0  0  0  0
    5.5681   -1.5737   -0.0593 C   0  0  0  0  0  0  0  0  0  0  0  0
    4.0191   -3.2458   -0.0561 C   0  0  0  0  0  0  0  0  0  0  0  0
    4.4884    0.7456   -0.0632 N   0  0  0  0  0  0  0  0  0  0  0  0
    2.9190   -2.4809   -0.0579 N   0  0  0  0  0  0  0  0  0  0  0  0
    5.3081   -2.8730   -0.0567 N   0  0  0  0  0  0  0  0  0  0  0  0
    2.3860   -0.0933   -0.0628 N   0  0  0  0  0  0  0  0  0  0  0  0
    6.8582   -1.2018   -0.0608 O   0  0  0  0  0  0  0  0  0  0  0  0
    3.8255   -4.5786   -0.0532 O   0  0  0  0  0  0  0  0  0  0  0  0
    0.5546    0.8936   -0.0619 H   0  0  0  0  0  0  0  0  0  0  0  0
    0.5670   -0.6497    0.8294 H   0  0  0  0  0  0  0  0  0  0  0  0
    0.5648   -0.6521   -0.9490 H   0  0  0  0  0  0  0  0  0  0  0  0
    2.7849    2.0198   -0.0661 H   0  0  0  0  0  0  0  0  0  0  0  0
    6.8810   -0.2277   -0.0619 H   0  0  0  0  0  0  0  0  0  0  0  0
    2.8614   -4.7090   -0.0532 H   0  0  0  0  0  0  0  0  0  0  0  0
  1 14  1  0  0  0  0
  2  7  2  0  0  0  0
  2 10  1  0  0  0  0
  3  4  2  0  0  0  0
  3  5  1  0  0  0  0
  4  8  1  0  0  0  0
  5  9  2  0  0  0  0
  6 12  1  0  0  0  0
  7  3  1  0  0  0  0
  8  6  2  0  0  0  0
  9  6  2  0  0  0  0
 10  1  1  0  0  0  0
 10  4  1  0  0  0  0
 11  5  1  0  0  0  0
 12 18  1  0  0  0  0
 13  1  1  0  0  0  0
 15  1  1  0  0  0  0
 16  2  1  0  0  0  0
 17 11  1  0  0  0  0
M  END
>  <HBA>
4

>  <HBD>
2

>  <TPSA>
83.54

>  <cid>
70975

>  <dipole>
5.97

>  <excitation_energy_1>
4.991

>  <excitation_energy_2>
5.142

>  <excitation_energy_3>
5.422

>  <excitation_energy_4>
5.498

>  <homo_energy>
-6.166

>  <homo_lumo_gap>
5.502

>  <logP>
-1.05

>  <lumo_energy>
-0.664

>  <melting_point>
231.76

>  <molecular_refractivity>
42.24

>  <oscillator_strength_1>
0.166

>  <oscillator_strength_2>
0.0011

>  <oscillator_strength_3>
0.0318

>  <oscillator_strength_4>
0.0024

>  <open_babel_can_smiles>
Cn1cnc2c1N=[C](=[N]=C2O)O

>  <mulliken_charges>
18
1   -0.321706
2   0.217975
3   0.14386
4   0.549463
5   0.503752
6   0.629707
7   -0.52697
8   -0.593588
9   -0.503541
10   -0.486789
11   -0.59151
12   -0.58746
13   0.172497
14   0.190391
15   0.190377
16   0.165355
17   0.433076
18   0.415111

>  <lowdin_charges>
18
1   -0.340635
2   -0.06718
3   -0.088224
4   0.066029
5   0.156198
6   0.168546
7   -0.193859
8   -0.244898
9   -0.188373
10   -0.024836
11   -0.322882
12   -0.336589
13   0.167668
14   0.172614
15   0.17262
16   0.171126
17   0.371694
18   0.360982

$$$$

