PCCDB-ID:  70363
public computational chemistry database (PCCDB) project, http://pccdb.org

 25 26  0  0  1  0  0  0  0  0999 V2000
    0.0086   -0.0273    1.3616 C   0  0  0  0  0  0  0  0  0  0  0  0
   -1.2310    1.2752   -0.2158 C   0  0  0  0  0  0  0  0  0  0  0  0
    1.2160    1.2859   -0.2316 C   0  0  0  0  0  0  0  0  0  0  0  0
   -1.2205   -1.2701   -0.2711 C   0  0  0  0  0  0  0  0  0  0  0  0
    1.2266   -1.2595   -0.2873 C   0  0  0  0  0  0  0  0  0  0  0  0
   -0.0021    1.1914    0.5494 N   0  0  2  0  0  0  0  0  0  0  0  0
    0.0080   -1.2095    0.4967 N   0  0  1  0  0  0  0  0  0  0  0  0
   -1.4881    0.0172   -0.9656 N   0  0  0  0  0  0  0  0  0  0  0  0
    1.4743    0.0302   -0.9849 N   0  0  0  0  0  0  0  0  0  0  0  0
   -2.6135    0.0302   -1.7641 N   0  0  0  0  0  0  0  0  0  0  0  0
    2.5899    0.0531   -1.7971 N   0  0  0  0  0  0  0  0  0  0  0  0
   -3.0567   -1.0624   -2.1207 O   0  0  0  0  0  0  0  0  0  0  0  0
   -3.0650    1.1340   -2.0730 O   0  0  0  0  0  0  0  0  0  0  0  0
    3.0382   -1.0355   -2.1595 O   0  0  0  0  0  0  0  0  0  0  0  0
    3.0280    1.1609   -2.1110 O   0  0  0  0  0  0  0  0  0  0  0  0
   -0.8770   -0.0450    2.0036 H   0  0  0  0  0  0  0  0  0  0  0  0
    0.9029   -0.0373    1.9917 H   0  0  0  0  0  0  0  0  0  0  0  0
   -1.1795    2.0912   -0.9348 H   0  0  0  0  0  0  0  0  0  0  0  0
   -2.0627    1.4731    0.4746 H   0  0  0  0  0  0  0  0  0  0  0  0
    2.0548    1.4908    0.4482 H   0  0  0  0  0  0  0  0  0  0  0  0
    1.1484    2.1015   -0.9497 H   0  0  0  0  0  0  0  0  0  0  0  0
   -2.0503   -1.5040    0.4106 H   0  0  0  0  0  0  0  0  0  0  0  0
   -1.1631   -2.0541   -1.0243 H   0  0  0  0  0  0  0  0  0  0  0  0
    1.1656   -2.0438   -1.0400 H   0  0  0  0  0  0  0  0  0  0  0  0
    2.0672   -1.4867    0.3832 H   0  0  0  0  0  0  0  0  0  0  0  0
  1 17  1  0  0  0  0
  1 16  1  0  0  0  0
  2 19  1  0  0  0  0
  2  6  1  0  0  0  0
  3 20  1  0  0  0  0
  4 22  1  0  0  0  0
  4  7  1  0  0  0  0
  5 25  1  0  0  0  0
  6  3  1  6  0  0  0
  6  1  1  0  0  0  0
  7  5  1  6  0  0  0
  7  1  1  0  0  0  0
  8  4  1  0  0  0  0
  8  2  1  0  0  0  0
  9  5  1  0  0  0  0
  9  3  1  0  0  0  0
 10  8  1  0  0  0  0
 11  9  1  0  0  0  0
 12 10  2  0  0  0  0
 13 10  2  0  0  0  0
 14 11  2  0  0  0  0
 15 11  2  0  0  0  0
 18  2  1  0  0  0  0
 21  3  1  0  0  0  0
 23  4  1  0  0  0  0
 24  5  1  0  0  0  0
M  END
>  <HBA>
4

>  <HBD>
0

>  <TPSA>
104.6

>  <cid>
70363

>  <dipole>
5.57

>  <excitation_energy_1>
4.449

>  <excitation_energy_2>
4.538

>  <excitation_energy_3>
4.708

>  <excitation_energy_4>
4.817

>  <homo_energy>
-7.189

>  <homo_lumo_gap>
5.567

>  <logP>
-0.809

>  <lumo_energy>
-1.622

>  <melting_point>
91.31

>  <molecular_refractivity>
65.38

>  <oscillator_strength_1>
0.0002

>  <oscillator_strength_2>
0.0

>  <oscillator_strength_3>
0.0

>  <oscillator_strength_4>
0.0

>  <open_babel_can_smiles>
O=N(=O)N1CN2CN(C1)CN(C2)N(=O)=O

>  <mulliken_charges>
25
1   -0.084872
2   -0.016512
3   -0.01657
4   -0.01666
5   -0.016619
6   -0.373746
7   -0.373565
8   -0.310814
9   -0.310872
10   0.656526
11   0.6565
12   -0.421188
13   -0.421191
14   -0.421147
15   -0.421163
16   0.176767
17   0.176784
18   0.207551
19   0.17704
20   0.177044
21   0.207548
22   0.177041
23   0.207547
24   0.207501
25   0.177069

>  <lowdin_charges>
25
1   -0.150767
2   -0.139441
3   -0.139509
4   -0.139458
5   -0.139377
6   -0.165994
7   -0.165936
8   -0.121414
9   -0.121538
10   0.336266
11   0.336287
12   -0.268127
13   -0.268015
14   -0.268139
15   -0.267961
16   0.162864
17   0.162818
18   0.182415
19   0.15692
20   0.156904
21   0.182413
22   0.156956
23   0.182465
24   0.182445
25   0.156923

$$$$

