PCCDB-ID:  8689
public computational chemistry database (PCCDB) project, http://pccdb.org

 26 27  0  0  0  0  0  0  0  0999 V2000
    5.7095   -3.0422    5.9340 C   0  0  0  0  0  0  0  0  0  0  0  0
    2.3737   -2.6005   -3.2687 C   0  0  0  0  0  0  0  0  0  0  0  0
    4.7171   -3.5193    5.0699 C   0  0  0  0  0  0  0  0  0  0  0  0
    6.6735   -2.1544    5.4540 C   0  0  0  0  0  0  0  0  0  0  0  0
    3.4583   -1.7403   -3.4489 C   0  0  0  0  0  0  0  0  0  0  0  0
    2.1490   -3.1590   -2.0078 C   0  0  0  0  0  0  0  0  0  0  0  0
    4.6826   -3.1170    3.7388 C   0  0  0  0  0  0  0  0  0  0  0  0
    6.6456   -1.7468    4.1216 C   0  0  0  0  0  0  0  0  0  0  0  0
    4.3079   -1.4411   -2.3867 C   0  0  0  0  0  0  0  0  0  0  0  0
    2.9877   -2.8705   -0.9342 C   0  0  0  0  0  0  0  0  0  0  0  0
    5.6529   -2.2223    3.2530 C   0  0  0  0  0  0  0  0  0  0  0  0
    4.0761   -2.0052   -1.1231 C   0  0  0  0  0  0  0  0  0  0  0  0
    5.7293   -1.7375    1.9263 N   0  0  0  0  0  0  0  0  0  0  0  0
    4.9505   -1.6799   -0.0833 N   0  0  0  0  0  0  0  0  0  0  0  0
    4.8268   -2.1699    1.1518 N   0  0  0  0  0  0  0  0  0  0  0  0
    5.7283   -3.3622    6.9722 H   0  0  0  0  0  0  0  0  0  0  0  0
    1.7130   -2.8329   -4.0985 H   0  0  0  0  0  0  0  0  0  0  0  0
    3.9646   -4.2113    5.4393 H   0  0  0  0  0  0  0  0  0  0  0  0
    7.4483   -1.7784    6.1167 H   0  0  0  0  0  0  0  0  0  0  0  0
    3.6487   -1.2965   -4.4223 H   0  0  0  0  0  0  0  0  0  0  0  0
    1.3082   -3.8301   -1.8535 H   0  0  0  0  0  0  0  0  0  0  0  0
    3.9150   -3.4859    3.0677 H   0  0  0  0  0  0  0  0  0  0  0  0
    7.3858   -1.0573    3.7270 H   0  0  0  0  0  0  0  0  0  0  0  0
    5.1521   -0.7710   -2.5322 H   0  0  0  0  0  0  0  0  0  0  0  0
    2.8129   -3.3033    0.0433 H   0  0  0  0  0  0  0  0  0  0  0  0
    5.7311   -1.0427   -0.2402 H   0  0  0  0  0  0  0  0  0  0  0  0
  1 16  1  0  0  0  0
  2  6  1  0  0  0  0
  3 18  1  0  0  0  0
  3  1  2  0  0  0  0
  4  1  1  0  0  0  0
  4 19  1  0  0  0  0
  5  2  2  0  0  0  0
  5  9  1  0  0  0  0
  6 21  1  0  0  0  0
  6 10  2  0  0  0  0
  7  3  1  0  0  0  0
  8  4  2  0  0  0  0
  9 12  2  0  0  0  0
 10 25  1  0  0  0  0
 11  7  2  0  0  0  0
 11  8  1  0  0  0  0
 12 10  1  0  0  0  0
 12 14  1  0  0  0  0
 13 11  1  0  0  0  0
 14 15  1  0  0  0  0
 15 13  1  0  0  0  0
 17  2  1  0  0  0  0
 20  5  1  0  0  0  0
 22  7  1  0  0  0  0
 23  8  1  0  0  0  0
 24  9  1  0  0  0  0
 26 14  1  0  0  0  0
M  RAD  2  13   2  15   2
M  END
>  <HBA>
3

>  <HBD>
1

>  <TPSA>
36.75

>  <cid>
8689

>  <dipole>
0.92

>  <excitation_energy_1>
3.502

>  <excitation_energy_2>
3.846

>  <excitation_energy_3>
4.356

>  <excitation_energy_4>
4.443

>  <homo_energy>
-5.461

>  <homo_lumo_gap>
3.935

>  <logP>
3.87

>  <lumo_energy>
-1.527

>  <melting_point>
87.99

>  <molecular_refractivity>
60.84

>  <oscillator_strength_1>
0.7213

>  <oscillator_strength_2>
0.0

>  <oscillator_strength_3>
0.0026

>  <oscillator_strength_4>
0.0179

>  <open_babel_can_smiles>
[N]([N]c1ccccc1)Nc1ccccc1

>  <mulliken_charges>
26
1   -0.123853
2   -0.129358
3   -0.144463
4   -0.137576
5   -0.136571
6   -0.138994
7   -0.138686
8   -0.147415
9   -0.185408
10   -0.165205
11   0.278638
12   0.39122
13   -0.377256
14   -0.508683
15   -0.011813
16   0.129431
17   0.129451
18   0.131358
19   0.131043
20   0.13355
21   0.134244
22   0.146736
23   0.135297
24   0.127376
25   0.156033
26   0.320906

>  <lowdin_charges>
26
1   -0.15741
2   -0.175506
3   -0.152544
4   -0.156501
5   -0.144667
6   -0.142113
7   -0.168324
8   -0.158896
9   -0.189497
10   -0.182677
11   0.020474
12   0.052561
13   -0.153117
14   -0.159825
15   -0.021647
16   0.15671
17   0.159755
18   0.158898
19   0.159784
20   0.159935
21   0.160575
22   0.167825
23   0.165472
24   0.157142
25   0.171031
26   0.272561

$$$$

