PCCDB-ID:  35785
public computational chemistry database (PCCDB) project, http://pccdb.org

 36 36  0  0  1  0  0  0  0  0999 V2000
    4.6836   -0.5339   -0.8765 C   0  0  0  0  0  0  0  0  0  0  0  0
    2.0173    3.7769   -6.2603 C   0  0  0  0  0  0  0  0  0  0  0  0
    2.1213    1.3056   -5.8471 C   0  0  0  0  0  0  0  0  0  0  0  0
    1.7159    3.7387    0.4860 C   0  0  0  0  0  0  0  0  0  0  0  0
    3.2676    0.0318   -0.7978 C   0  0  0  0  0  0  0  0  0  0  0  0
    1.4489    4.4674   -1.8845 C   0  0  0  0  0  0  0  0  0  0  0  0
    1.3953    4.2921   -3.3801 C   0  0  0  0  0  0  0  0  0  0  0  0
    1.2836    1.8414   -2.9116 C   0  0  0  0  0  0  0  0  0  0  0  0
    1.5379    2.6375   -5.3435 C   0  0  0  0  0  0  0  0  0  0  0  0
    1.6219    3.4822   -0.9966 C   0  0  0  0  0  0  0  0  0  0  0  0
    1.8750    2.9057   -3.8531 C   0  0  1  0  0  0  0  0  0  0  0  0
    1.7327    2.0374   -1.4386 C   0  0  2  0  0  0  0  0  0  0  0  0
    3.1583    1.4792   -1.2660 C   0  0  0  0  0  0  0  0  0  0  0  0
    4.1454    2.1467   -1.5133 O   0  0  0  0  0  0  0  0  0  0  0  0
    4.7152   -1.5597   -0.4943 H   0  0  0  0  0  0  0  0  0  0  0  0
    5.3783    0.0769   -0.2931 H   0  0  0  0  0  0  0  0  0  0  0  0
    5.0454   -0.5404   -1.9096 H   0  0  0  0  0  0  0  0  0  0  0  0
    1.8056    3.5410   -7.3098 H   0  0  0  0  0  0  0  0  0  0  0  0
    3.1012    3.9253   -6.1671 H   0  0  0  0  0  0  0  0  0  0  0  0
    1.5282    4.7291   -6.0332 H   0  0  0  0  0  0  0  0  0  0  0  0
    1.8813    1.1563   -6.9063 H   0  0  0  0  0  0  0  0  0  0  0  0
    1.7324    0.4394   -5.3027 H   0  0  0  0  0  0  0  0  0  0  0  0
    3.2151    1.2980   -5.7524 H   0  0  0  0  0  0  0  0  0  0  0  0
    1.5931    4.8013    0.7176 H   0  0  0  0  0  0  0  0  0  0  0  0
    2.6913    3.4216    0.8800 H   0  0  0  0  0  0  0  0  0  0  0  0
    0.9506    3.1787    1.0423 H   0  0  0  0  0  0  0  0  0  0  0  0
    2.8900    0.0016    0.2365 H   0  0  0  0  0  0  0  0  0  0  0  0
    2.5568   -0.5778   -1.3743 H   0  0  0  0  0  0  0  0  0  0  0  0
    1.3467    5.4890   -1.5172 H   0  0  0  0  0  0  0  0  0  0  0  0
    2.0019    5.0797   -3.8442 H   0  0  0  0  0  0  0  0  0  0  0  0
    0.3643    4.4697   -3.7327 H   0  0  0  0  0  0  0  0  0  0  0  0
    1.5503    0.8300   -3.2382 H   0  0  0  0  0  0  0  0  0  0  0  0
    0.1866    1.8994   -2.9453 H   0  0  0  0  0  0  0  0  0  0  0  0
    0.4404    2.5801   -5.4294 H   0  0  0  0  0  0  0  0  0  0  0  0
    2.9689    2.8801   -3.7451 H   0  0  0  0  0  0  0  0  0  0  0  0
    1.0707    1.4248   -0.8074 H   0  0  0  0  0  0  0  0  0  0  0  0
  1  5  1  0  0  0  0
  1 15  1  0  0  0  0
  1 16  1  0  0  0  0
  2 19  1  0  0  0  0
  2 20  1  0  0  0  0
  2  9  1  0  0  0  0
  3 23  1  0  0  0  0
  3  9  1  0  0  0  0
  3 22  1  0  0  0  0
  4 24  1  0  0  0  0
  4 25  1  0  0  0  0
  4 26  1  0  0  0  0
  5 27  1  0  0  0  0
  6 29  1  0  0  0  0
  6 10  2  0  0  0  0
  7  6  1  0  0  0  0
  8 12  1  0  0  0  0
  9 11  1  0  0  0  0
 10  4  1  0  0  0  0
 11 35  1  1  0  0  0
 11  7  1  0  0  0  0
 11  8  1  0  0  0  0
 12 13  1  0  0  0  0
 12 10  1  0  0  0  0
 12 36  1  1  0  0  0
 13  5  1  0  0  0  0
 14 13  2  0  0  0  0
 17  1  1  0  0  0  0
 18  2  1  0  0  0  0
 21  3  1  0  0  0  0
 28  5  1  0  0  0  0
 30  7  1  0  0  0  0
 31  7  1  0  0  0  0
 32  8  1  0  0  0  0
 33  8  1  0  0  0  0
 34  9  1  0  0  0  0
M  END
>  <HBA>
1

>  <HBD>
0

>  <TPSA>
17.07

>  <cid>
35785

>  <dipole>
2.3

>  <excitation_energy_1>
4.264

>  <excitation_energy_2>
4.976

>  <excitation_energy_3>
5.575

>  <excitation_energy_4>
5.944

>  <homo_energy>
-6.15

>  <homo_lumo_gap>
5.859

>  <logP>
3.594

>  <lumo_energy>
-0.291

>  <melting_point>
25.97

>  <molecular_refractivity>
62.22

>  <oscillator_strength_1>
0.0007

>  <oscillator_strength_2>
0.0016

>  <oscillator_strength_3>
0.0027

>  <oscillator_strength_4>
0.0004

>  <open_babel_can_smiles>
CCC(=O)[C@@H]1C[C@H](CC=C1C)C(C)C

>  <mulliken_charges>
36
1   -0.433671
2   -0.451848
3   -0.453437
4   -0.522031
5   -0.355519
6   -0.179501
7   -0.308323
8   -0.294846
9   -0.067959
10   0.223035
11   -0.076505
12   -0.248057
13   0.463538
14   -0.451751
15   0.139536
16   0.165134
17   0.156621
18   0.138548
19   0.142811
20   0.146723
21   0.140318
22   0.141191
23   0.143917
24   0.154519
25   0.161222
26   0.143563
27   0.162751
28   0.158209
29   0.11267
30   0.148549
31   0.135814
32   0.135099
33   0.140641
34   0.113688
35   0.147765
36   0.127587

>  <lowdin_charges>
36
1   -0.440242
2   -0.443354
3   -0.444877
4   -0.440702
5   -0.311136
6   -0.179795
7   -0.275805
8   -0.266156
9   -0.118274
10   -0.011585
11   -0.128732
12   -0.160433
13   0.163769
14   -0.236498
15   0.149046
16   0.162478
17   0.155681
18   0.146637
19   0.145755
20   0.149693
21   0.1474
22   0.146489
23   0.146048
24   0.155961
25   0.15769
26   0.150314
27   0.162059
28   0.159571
29   0.147256
30   0.154928
31   0.1431
32   0.142866
33   0.144221
34   0.129357
35   0.148005
36   0.149268

$$$$

