PCCDB-ID:  11381
public computational chemistry database (PCCDB) project, http://pccdb.org

 23 24  0  0  0  0  0  0  0  0999 V2000
   -1.4182   -0.0748    0.3635 C   0  0  0  0  0  0  0  0  0  0  0  0
   -0.5800   -1.0702    0.8689 C   0  0  0  0  0  0  0  0  0  0  0  0
   -0.8669    0.9856   -0.3580 C   0  0  0  0  0  0  0  0  0  0  0  0
    4.8825    1.4148   -0.4745 C   0  0  0  0  0  0  0  0  0  0  0  0
    0.7961   -1.0055    0.6551 C   0  0  0  0  0  0  0  0  0  0  0  0
    0.5092    1.0495   -0.5716 C   0  0  0  0  0  0  0  0  0  0  0  0
    3.5078    1.3602   -0.2603 C   0  0  0  0  0  0  0  0  0  0  0  0
    5.6126    0.2534   -0.7293 C   0  0  0  0  0  0  0  0  0  0  0  0
    3.5684   -1.0381   -0.5529 C   0  0  0  0  0  0  0  0  0  0  0  0
    1.3656    0.0553   -0.0691 C   0  0  0  0  0  0  0  0  0  0  0  0
    2.8326    0.1264   -0.2972 C   0  0  0  0  0  0  0  0  0  0  0  0
    4.9477   -0.9760   -0.7663 C   0  0  0  0  0  0  0  0  0  0  0  0
    5.5936   -2.1568   -1.0168 O   0  0  0  0  0  0  0  0  0  0  0  0
   -2.4908   -0.1250    0.5301 H   0  0  0  0  0  0  0  0  0  0  0  0
   -0.9970   -1.8968    1.4384 H   0  0  0  0  0  0  0  0  0  0  0  0
   -1.5104    1.7623   -0.7633 H   0  0  0  0  0  0  0  0  0  0  0  0
    5.3980    2.3708   -0.4364 H   0  0  0  0  0  0  0  0  0  0  0  0
    1.4422   -1.7718    1.0741 H   0  0  0  0  0  0  0  0  0  0  0  0
    0.9254    1.8649   -1.1567 H   0  0  0  0  0  0  0  0  0  0  0  0
    2.9581    2.2682   -0.0335 H   0  0  0  0  0  0  0  0  0  0  0  0
    6.6873    0.3005   -0.8963 H   0  0  0  0  0  0  0  0  0  0  0  0
    3.0785   -2.0041   -0.6193 H   0  0  0  0  0  0  0  0  0  0  0  0
    6.5356   -1.9749   -1.1578 H   0  0  0  0  0  0  0  0  0  0  0  0
  1 14  1  0  0  0  0
  1  2  2  0  0  0  0
  2 15  1  0  0  0  0
  3  1  1  0  0  0  0
  4 17  1  0  0  0  0
  4  7  2  0  0  0  0
  5  2  1  0  0  0  0
  5 18  1  0  0  0  0
  6  3  2  0  0  0  0
  6 10  1  0  0  0  0
  7 20  1  0  0  0  0
  8  4  1  0  0  0  0
  9 11  2  0  0  0  0
 10  5  2  0  0  0  0
 11  7  1  0  0  0  0
 11 10  1  0  0  0  0
 12  8  2  0  0  0  0
 12  9  1  0  0  0  0
 13 12  1  0  0  0  0
 16  3  1  0  0  0  0
 19  6  1  0  0  0  0
 21  8  1  0  0  0  0
 22  9  1  0  0  0  0
 23 13  1  0  0  0  0
M  END
>  <HBA>
1

>  <HBD>
1

>  <TPSA>
20.23

>  <cid>
11381

>  <dipole>
1.33

>  <excitation_energy_1>
4.563

>  <excitation_energy_2>
4.908

>  <excitation_energy_3>
4.935

>  <excitation_energy_4>
5.188

>  <homo_energy>
-5.886

>  <homo_lumo_gap>
5.222

>  <logP>
3.059

>  <lumo_energy>
-0.664

>  <melting_point>
81.56

>  <molecular_refractivity>
53.9

>  <oscillator_strength_1>
0.1198

>  <oscillator_strength_2>
0.1619

>  <oscillator_strength_3>
0.1384

>  <oscillator_strength_4>
0.0013

>  <open_babel_can_smiles>
Oc1cccc(c1)c1ccccc1

>  <mulliken_charges>
23
1   -0.126482
2   -0.134394
3   -0.13397
4   -0.137103
5   -0.171138
6   -0.172854
7   -0.179397
8   -0.194523
9   -0.214634
10   0.084759
11   0.087989
12   0.353238
13   -0.644276
14   0.128971
15   0.130234
16   0.129604
17   0.131371
18   0.134725
19   0.132318
20   0.129431
21   0.117307
22   0.141987
23   0.406837

>  <lowdin_charges>
23
1   -0.155866
2   -0.155232
3   -0.156492
4   -0.14386
5   -0.161675
6   -0.161527
7   -0.186064
8   -0.214081
9   -0.192086
10   -0.000426
11   0.010868
12   0.1033
13   -0.377309
14   0.155831
15   0.158802
16   0.158868
17   0.159096
18   0.161796
19   0.160292
20   0.159991
21   0.151202
22   0.168852
23   0.355718

$$$$

