PCCDB-ID:  23028
public computational chemistry database (PCCDB) project, http://pccdb.org

 31 31  0  0  1  0  0  0  0  0999 V2000
    4.6596   -1.2968   -2.7616 C   0  0  0  0  0  0  0  0  0  0  0  0
    3.9459    1.8310   -0.4654 C   0  0  0  0  0  0  0  0  0  0  0  0
   -1.8241    0.9435   -4.8519 C   0  0  0  0  0  0  0  0  0  0  0  0
   -0.9750    1.1386   -5.9434 C   0  0  0  0  0  0  0  0  0  0  0  0
   -1.3276    1.1219   -3.5593 C   0  0  0  0  0  0  0  0  0  0  0  0
    0.3528    1.5093   -5.7432 C   0  0  0  0  0  0  0  0  0  0  0  0
    0.0040    1.4788   -3.3511 C   0  0  0  0  0  0  0  0  0  0  0  0
    4.9495   -0.1047   -1.8514 C   0  0  1  0  0  0  0  0  0  0  0  0
    3.6776    0.6083   -1.3375 C   0  0  2  0  0  0  0  0  0  0  0  0
    0.8651    1.6706   -4.4455 C   0  0  0  0  0  0  0  0  0  0  0  0
    3.0087    1.7631   -3.4193 C   0  0  0  0  0  0  0  0  0  0  0  0
    2.2039    2.0955   -4.3421 N   0  0  0  0  0  0  0  0  0  0  0  0
    5.6985   -0.6098   -0.6269 N   0  0  0  0  0  0  0  0  0  0  0  0
    4.2680    2.2690   -3.4081 O   0  0  0  0  0  0  0  0  0  0  0  0
    5.1001   -1.3824    0.1201 O   0  0  0  0  0  0  0  0  0  0  0  0
    6.8498   -0.2186   -0.4682 O   0  0  0  0  0  0  0  0  0  0  0  0
    2.7601    0.8887   -2.4272 O   0  0  0  0  0  0  0  0  0  0  0  0
    4.1532   -0.9546   -3.6673 H   0  0  0  0  0  0  0  0  0  0  0  0
    4.0176   -2.0221   -2.2547 H   0  0  0  0  0  0  0  0  0  0  0  0
    5.5917   -1.7894   -3.0550 H   0  0  0  0  0  0  0  0  0  0  0  0
    4.4466    1.5221    0.4580 H   0  0  0  0  0  0  0  0  0  0  0  0
    2.9972    2.3009   -0.1889 H   0  0  0  0  0  0  0  0  0  0  0  0
    4.5737    2.5665   -0.9724 H   0  0  0  0  0  0  0  0  0  0  0  0
   -2.8619    0.6618   -5.0067 H   0  0  0  0  0  0  0  0  0  0  0  0
   -1.3499    1.0122   -6.9558 H   0  0  0  0  0  0  0  0  0  0  0  0
   -1.9813    0.9832   -2.7018 H   0  0  0  0  0  0  0  0  0  0  0  0
    1.0176    1.6808   -6.5846 H   0  0  0  0  0  0  0  0  0  0  0  0
    0.3765    1.6168   -2.3424 H   0  0  0  0  0  0  0  0  0  0  0  0
    5.6368    0.6002   -2.3137 H   0  0  0  0  0  0  0  0  0  0  0  0
    3.1151   -0.1293   -0.7602 H   0  0  0  0  0  0  0  0  0  0  0  0
    4.3040    2.8623   -4.1806 H   0  0  0  0  0  0  0  0  0  0  0  0
  1 19  1  0  0  0  0
  1  8  1  0  0  0  0
  2 22  1  0  0  0  0
  2 21  1  0  0  0  0
  3  5  2  0  0  0  0
  4  6  2  0  0  0  0
  4  3  1  0  0  0  0
  5  7  1  0  0  0  0
  5 26  1  0  0  0  0
  6 10  1  0  0  0  0
  7 28  1  0  0  0  0
  8 29  1  6  0  0  0
  8  9  1  0  0  0  0
  8 13  1  0  0  0  0
  9 30  1  1  0  0  0
  9  2  1  0  0  0  0
 10 12  1  0  0  0  0
 10  7  2  0  0  0  0
 11 14  1  0  0  0  0
 11 17  1  0  0  0  0
 12 11  2  0  0  0  0
 13 16  2  0  0  0  0
 13 15  2  0  0  0  0
 17  9  1  0  0  0  0
 18  1  1  0  0  0  0
 20  1  1  0  0  0  0
 23  2  1  0  0  0  0
 24  3  1  0  0  0  0
 25  4  1  0  0  0  0
 27  6  1  0  0  0  0
 31 14  1  0  0  0  0
M  END
>  <HBA>
3

>  <HBD>
1

>  <TPSA>
84.15

>  <cid>
23028

>  <dipole>
1.85

>  <excitation_energy_1>
3.257

>  <excitation_energy_2>
4.054

>  <excitation_energy_3>
4.089

>  <excitation_energy_4>
4.369

>  <homo_energy>
-5.899

>  <homo_lumo_gap>
3.875

>  <logP>
2.885

>  <lumo_energy>
-2.025

>  <melting_point>
88.74

>  <molecular_refractivity>
64.75

>  <oscillator_strength_1>
0.0039

>  <oscillator_strength_2>
0.0005

>  <oscillator_strength_3>
0.0003

>  <oscillator_strength_4>
0.0013

>  <open_babel_can_smiles>
C[C@H]([C@@H](N(=O)=O)C)O/C(=N/c1ccccc1)/O

>  <mulliken_charges>
31
1   -0.461428
2   -0.486827
3   -0.129088
4   -0.135748
5   -0.143094
6   -0.153851
7   -0.143789
8   -0.035584
9   0.135274
10   0.264326
11   0.738301
12   -0.576743
13   0.449275
14   -0.604442
15   -0.375115
16   -0.36975
17   -0.493344
18   0.183145
19   0.183529
20   0.172715
21   0.176718
22   0.170707
23   0.184142
24   0.125374
25   0.127238
26   0.126861
27   0.127195
28   0.128946
29   0.200456
30   0.185359
31   0.42924

>  <lowdin_charges>
31
1   -0.446485
2   -0.463989
3   -0.166035
4   -0.154304
5   -0.155888
6   -0.169631
7   -0.178168
8   -0.094213
9   0.00528
10   0.050577
11   0.204132
12   -0.235006
13   0.292866
14   -0.365881
15   -0.249741
16   -0.232383
17   -0.181942
18   0.174668
19   0.172563
20   0.167168
21   0.171467
22   0.167202
23   0.170645
24   0.154897
25   0.156101
26   0.156976
27   0.161357
28   0.158429
29   0.180281
30   0.173483
31   0.375571

$$$$

