PCCDB-ID:  49835
public computational chemistry database (PCCDB) project, http://pccdb.org

 31 32  0  0  1  0  0  0  0  0999 V2000
    0.0957    2.7425    0.7499 C   0  0  0  0  0  0  0  0  0  0  0  0
    0.7949   -0.0009   -0.2832 C   0  0  0  0  0  0  0  0  0  0  0  0
    3.8392    3.0366    0.1399 C   0  0  0  0  0  0  0  0  0  0  0  0
    2.5260    3.3352    0.4836 C   0  0  0  0  0  0  0  0  0  0  0  0
    4.1711    1.7690   -0.3402 C   0  0  0  0  0  0  0  0  0  0  0  0
    5.2137   -4.2950   -2.3877 C   0  0  0  0  0  0  0  0  0  0  0  0
    3.7276   -4.0877   -2.7899 C   0  0  0  0  0  0  0  0  0  0  0  0
    4.7080   -0.8250   -1.3322 C   0  0  0  0  0  0  0  0  0  0  0  0
    1.5114    2.3733    0.3604 C   0  0  0  0  0  0  0  0  0  0  0  0
    1.8270    1.0902   -0.1187 C   0  0  0  0  0  0  0  0  0  0  0  0
    3.1638    0.8104   -0.4702 C   0  0  0  0  0  0  0  0  0  0  0  0
    4.6636   -2.2356   -1.8443 C   0  0  3  0  0  0  0  0  0  0  0  0
    5.5953   -3.0889   -1.6266 N   0  0  0  0  0  0  0  0  0  0  0  0
    3.6197   -2.6246   -2.6777 N   0  0  0  0  0  0  0  0  0  0  0  0
    3.3861   -0.4626   -0.9394 O   0  0  0  0  0  0  0  0  0  0  0  0
    0.0462    3.7847    1.0791 H   0  0  0  0  0  0  0  0  0  0  0  0
   -0.2798    2.1201    1.5719 H   0  0  0  0  0  0  0  0  0  0  0  0
   -0.6050    2.6265   -0.0860 H   0  0  0  0  0  0  0  0  0  0  0  0
   -0.1569    0.2628    0.1816 H   0  0  0  0  0  0  0  0  0  0  0  0
    1.1427   -0.9394    0.1617 H   0  0  0  0  0  0  0  0  0  0  0  0
    0.6001   -0.2085   -1.3442 H   0  0  0  0  0  0  0  0  0  0  0  0
    4.6158    3.7895    0.2438 H   0  0  0  0  0  0  0  0  0  0  0  0
    2.2762    4.3253    0.8557 H   0  0  0  0  0  0  0  0  0  0  0  0
    5.1979    1.5427   -0.6025 H   0  0  0  0  0  0  0  0  0  0  0  0
    5.8565   -4.3744   -3.2755 H   0  0  0  0  0  0  0  0  0  0  0  0
    5.3723   -5.1963   -1.7875 H   0  0  0  0  0  0  0  0  0  0  0  0
    3.0445   -4.5944   -2.0919 H   0  0  0  0  0  0  0  0  0  0  0  0
    3.5013   -4.4296   -3.8041 H   0  0  0  0  0  0  0  0  0  0  0  0
    5.0608   -0.1512   -2.1267 H   0  0  0  0  0  0  0  0  0  0  0  0
    5.4076   -0.7753   -0.4914 H   0  0  0  0  0  0  0  0  0  0  0  0
    2.7138   -2.2167   -2.4782 H   0  0  0  0  0  0  0  0  0  0  0  0
  1 16  1  0  0  0  0
  1 17  1  0  0  0  0
  2 10  1  0  0  0  0
  2 20  1  0  0  0  0
  2 19  1  0  0  0  0
  3 22  1  0  0  0  0
  3  4  2  0  0  0  0
  4 23  1  0  0  0  0
  5  3  1  0  0  0  0
  6 26  1  0  0  0  0
  6 13  1  0  0  0  0
  7 14  1  0  0  0  0
  7  6  1  0  0  0  0
  7 27  1  0  0  0  0
  8 15  1  0  0  0  0
  8 30  1  0  0  0  0
  9  4  1  0  0  0  0
  9  1  1  0  0  0  0
 10  9  2  0  0  0  0
 11  5  2  0  0  0  0
 11 10  1  0  0  0  0
 12 13  1  0  0  0  0
 12  8  1  0  0  0  0
 14 31  1  0  0  0  0
 14 12  1  0  0  0  0
 15 11  1  0  0  0  0
 18  1  1  0  0  0  0
 21  2  1  0  0  0  0
 24  5  1  0  0  0  0
 25  6  1  0  0  0  0
 28  7  1  0  0  0  0
 29  8  1  0  0  0  0
M  RAD  2  12   2  13   2
M  END
>  <HBA>
3

>  <HBD>
1

>  <TPSA>
33.62

>  <cid>
49835

>  <dipole>
2.12

>  <excitation_energy_1>
5.024

>  <excitation_energy_2>
5.322

>  <excitation_energy_3>
5.369

>  <excitation_energy_4>
5.459

>  <homo_energy>
-5.883

>  <homo_lumo_gap>
5.924

>  <logP>
1.448

>  <lumo_energy>
0.041

>  <melting_point>
83.73

>  <molecular_refractivity>
68.9

>  <oscillator_strength_1>
0.0289

>  <oscillator_strength_2>
0.0037

>  <oscillator_strength_3>
0.005

>  <oscillator_strength_4>
0.005

>  <open_babel_can_smiles>
Cc1c(OC[C]2[N]CCN2)cccc1C

>  <mulliken_charges>
31
1   -0.538238
2   -0.522758
3   -0.138758
4   -0.183514
5   -0.193589
6   -0.161515
7   -0.149085
8   -0.093926
9   0.126159
10   0.060032
11   0.337528
12   0.460916
13   -0.46647
14   -0.599788
15   -0.544101
16   0.155183
17   0.162497
18   0.160992
19   0.152506
20   0.166316
21   0.156283
22   0.128407
23   0.1176
24   0.138002
25   0.151894
26   0.150799
27   0.142727
28   0.151682
29   0.165592
30   0.175946
31   0.330682

>  <lowdin_charges>
31
1   -0.44368
2   -0.441883
3   -0.151674
4   -0.185109
5   -0.214429
6   -0.20843
7   -0.210632
8   -0.130887
9   -0.000727
10   -0.036588
11   0.096556
12   0.073781
13   -0.238913
14   -0.31441
15   -0.211727
16   0.156091
17   0.160167
18   0.159519
19   0.158292
20   0.163166
21   0.155764
22   0.158672
23   0.152767
24   0.16264
25   0.14779
26   0.151565
27   0.138285
28   0.150349
29   0.158002
30   0.165834
31   0.279848

$$$$

