PCCDB-ID:  12101
public computational chemistry database (PCCDB) project, http://pccdb.org

 19 19  0  0  0  0  0  0  0  0999 V2000
    0.9635    0.3226    0.1021 C   0  0  0  0  0  0  0  0  0  0  0  0
    2.4512   -0.0657    0.0269 C   0  0  0  0  0  0  0  0  0  0  0  0
    3.4399   -0.9279   -3.5583 C   0  0  0  0  0  0  0  0  0  0  0  0
    3.1682   -0.1971   -2.4031 C   0  0  0  0  0  0  0  0  0  0  0  0
    3.3421   -2.3198   -3.5591 C   0  0  0  0  0  0  0  0  0  0  0  0
    2.6949   -2.2478   -1.2242 C   0  0  0  0  0  0  0  0  0  0  0  0
    2.7902   -0.8536   -1.2219 C   0  0  0  0  0  0  0  0  0  0  0  0
    2.9680   -2.9789   -2.3842 C   0  0  0  0  0  0  0  0  0  0  0  0
    2.8562   -4.3418   -2.3061 O   0  0  0  0  0  0  0  0  0  0  0  0
    0.7532    0.8908    1.0157 H   0  0  0  0  0  0  0  0  0  0  0  0
    0.3254   -0.5681    0.1004 H   0  0  0  0  0  0  0  0  0  0  0  0
    0.6750    0.9393   -0.7564 H   0  0  0  0  0  0  0  0  0  0  0  0
    2.7155   -0.6535    0.9149 H   0  0  0  0  0  0  0  0  0  0  0  0
    3.0630    0.8446    0.0613 H   0  0  0  0  0  0  0  0  0  0  0  0
    3.7366   -0.4140   -4.4690 H   0  0  0  0  0  0  0  0  0  0  0  0
    3.2525    0.8868   -2.4133 H   0  0  0  0  0  0  0  0  0  0  0  0
    3.5598   -2.8893   -4.4611 H   0  0  0  0  0  0  0  0  0  0  0  0
    2.4113   -2.7887   -0.3254 H   0  0  0  0  0  0  0  0  0  0  0  0
    3.0759   -4.7232   -3.1702 H   0  0  0  0  0  0  0  0  0  0  0  0
  1 10  1  0  0  0  0
  2 14  1  0  0  0  0
  2  1  1  0  0  0  0
  2 13  1  0  0  0  0
  3  4  1  0  0  0  0
  4  7  2  0  0  0  0
  5  3  2  0  0  0  0
  5  8  1  0  0  0  0
  6  7  1  0  0  0  0
  6 18  1  0  0  0  0
  7  2  1  0  0  0  0
  8  9  1  0  0  0  0
  8  6  2  0  0  0  0
 11  1  1  0  0  0  0
 12  1  1  0  0  0  0
 15  3  1  0  0  0  0
 16  4  1  0  0  0  0
 17  5  1  0  0  0  0
 19  9  1  0  0  0  0
M  END
>  <HBA>
1

>  <HBD>
1

>  <TPSA>
20.23

>  <cid>
12101

>  <dipole>
1.11

>  <excitation_energy_1>
5.01

>  <excitation_energy_2>
5.18

>  <excitation_energy_3>
5.666

>  <excitation_energy_4>
5.789

>  <homo_energy>
-5.87

>  <homo_lumo_gap>
5.962

>  <logP>
1.955

>  <lumo_energy>
0.093

>  <melting_point>
47.46

>  <molecular_refractivity>
38.24

>  <oscillator_strength_1>
0.0361

>  <oscillator_strength_2>
0.0001

>  <oscillator_strength_3>
0.013

>  <oscillator_strength_4>
0.0052

>  <open_babel_can_smiles>
CCc1cccc(c1)O

>  <mulliken_charges>
19
1   -0.433421
2   -0.339883
3   -0.131816
4   -0.187037
5   -0.198549
6   -0.217198
7   0.172831
8   0.353769
9   -0.644761
10   0.142666
11   0.151014
12   0.149028
13   0.14411
14   0.142145
15   0.128218
16   0.117881
17   0.114521
18   0.130699
19   0.405783

>  <lowdin_charges>
19
1   -0.441326
2   -0.270903
3   -0.14454
4   -0.189604
5   -0.222286
6   -0.199447
7   0.012236
8   0.10639
9   -0.382608
10   0.149196
11   0.151788
12   0.151148
13   0.149831
14   0.148793
15   0.157844
16   0.151481
17   0.152147
18   0.163847
19   0.35601

$$$$

