PCCDB-ID:  43667
public computational chemistry database (PCCDB) project, http://pccdb.org

 34 36  0  0  0  0  0  0  0  0999 V2000
    1.0175   -0.1147    0.0816 C   0  0  0  0  0  0  0  0  0  0  0  0
    5.3343    3.6667    0.0302 C   0  0  0  0  0  0  0  0  0  0  0  0
   10.1000   -1.1397   -0.0439 C   0  0  0  0  0  0  0  0  0  0  0  0
    3.2591   -1.2923    0.0159 C   0  0  0  0  0  0  0  0  0  0  0  0
    4.6486   -1.3185   -0.0225 C   0  0  0  0  0  0  0  0  0  0  0  0
    8.2340    2.1239   -0.0756 C   0  0  0  0  0  0  0  0  0  0  0  0
    9.2410    1.0846    0.4318 C   0  0  0  0  0  0  0  0  0  0  0  0
    3.2190    1.1302    0.0384 C   0  0  0  0  0  0  0  0  0  0  0  0
    7.7435   -0.7670    0.1101 C   0  0  0  0  0  0  0  0  0  0  0  0
    2.5295   -0.0805    0.0444 C   0  0  0  0  0  0  0  0  0  0  0  0
    5.6100    2.1930    0.0135 C   0  0  0  0  0  0  0  0  0  0  0  0
    4.6236    1.1428    0.0069 C   0  0  0  0  0  0  0  0  0  0  0  0
    6.8395    1.5758   -0.0262 C   0  0  0  0  0  0  0  0  0  0  0  0
    5.3217   -0.0926   -0.0358 C   0  0  0  0  0  0  0  0  0  0  0  0
    9.0227   -0.1856   -0.2638 N   0  0  0  0  0  0  0  0  0  0  0  0
    6.6733    0.1942   -0.0814 N   0  0  0  0  0  0  0  0  0  0  0  0
    0.6467   -0.6688    0.9537 H   0  0  0  0  0  0  0  0  0  0  0  0
    0.6013   -0.6050   -0.8082 H   0  0  0  0  0  0  0  0  0  0  0  0
    0.5981    0.8955    0.1285 H   0  0  0  0  0  0  0  0  0  0  0  0
    4.6505    3.9381    0.8451 H   0  0  0  0  0  0  0  0  0  0  0  0
    4.8680    4.0092   -0.9041 H   0  0  0  0  0  0  0  0  0  0  0  0
    6.2528    4.2481    0.1650 H   0  0  0  0  0  0  0  0  0  0  0  0
   11.0436   -0.7083   -0.3922 H   0  0  0  0  0  0  0  0  0  0  0  0
    9.9093   -2.0506   -0.6221 H   0  0  0  0  0  0  0  0  0  0  0  0
   10.2230   -1.4270    1.0186 H   0  0  0  0  0  0  0  0  0  0  0  0
    2.7140   -2.2337    0.0238 H   0  0  0  0  0  0  0  0  0  0  0  0
    5.1830   -2.2645   -0.0434 H   0  0  0  0  0  0  0  0  0  0  0  0
    8.5003    2.3853   -1.1093 H   0  0  0  0  0  0  0  0  0  0  0  0
    8.3068    3.0422    0.5181 H   0  0  0  0  0  0  0  0  0  0  0  0
    9.1535    0.9677    1.5309 H   0  0  0  0  0  0  0  0  0  0  0  0
   10.2618    1.4197    0.2202 H   0  0  0  0  0  0  0  0  0  0  0  0
    2.6652    2.0665    0.0621 H   0  0  0  0  0  0  0  0  0  0  0  0
    7.7439   -1.1112    1.1677 H   0  0  0  0  0  0  0  0  0  0  0  0
    7.5533   -1.6419   -0.5228 H   0  0  0  0  0  0  0  0  0  0  0  0
  1 19  1  0  0  0  0
  1 17  1  0  0  0  0
  2 22  1  0  0  0  0
  2 20  1  0  0  0  0
  3 25  1  0  0  0  0
  4 26  1  0  0  0  0
  4 10  2  0  0  0  0
  5  4  1  0  0  0  0
  6 13  1  0  0  0  0
  6  7  1  0  0  0  0
  6 29  1  0  0  0  0
  7 30  1  0  0  0  0
  8 10  1  0  0  0  0
  8 32  1  0  0  0  0
  9 33  1  0  0  0  0
 10  1  1  0  0  0  0
 11  2  1  0  0  0  0
 12 11  1  0  0  0  0
 12  8  2  0  0  0  0
 13 11  2  0  0  0  0
 14  5  2  0  0  0  0
 14 12  1  0  0  0  0
 15  3  1  0  0  0  0
 15  9  1  0  0  0  0
 15  7  1  0  0  0  0
 16 14  1  0  0  0  0
 16 13  1  0  0  0  0
 16  9  1  0  0  0  0
 18  1  1  0  0  0  0
 21  2  1  0  0  0  0
 23  3  1  0  0  0  0
 24  3  1  0  0  0  0
 27  5  1  0  0  0  0
 28  6  1  0  0  0  0
 31  7  1  0  0  0  0
 34  9  1  0  0  0  0
M  END
>  <HBA>
2

>  <HBD>
0

>  <TPSA>
8.17

>  <cid>
43667

>  <dipole>
2.59

>  <excitation_energy_1>
4.359

>  <excitation_energy_2>
4.599

>  <excitation_energy_3>
4.61

>  <excitation_energy_4>
4.891

>  <homo_energy>
-4.988

>  <homo_lumo_gap>
5.072

>  <logP>
2.641

>  <lumo_energy>
0.084

>  <melting_point>
89.22

>  <molecular_refractivity>
72.41

>  <oscillator_strength_1>
0.1135

>  <oscillator_strength_2>
0.0049

>  <oscillator_strength_3>
0.0283

>  <oscillator_strength_4>
0.0065

>  <open_babel_can_smiles>
CN1CCc2n(C1)c1ccc(cc1c2C)C

>  <mulliken_charges>
34
1   -0.53102
2   -0.533941
3   -0.297869
4   -0.203343
5   -0.171382
6   -0.324712
7   -0.145081
8   -0.281295
9   0.0443
10   0.180434
11   0.028827
12   0.082153
13   0.279642
14   0.309193
15   -0.39695
16   -0.60317
17   0.153714
18   0.154693
19   0.149727
20   0.154476
21   0.156677
22   0.145648
23   0.158134
24   0.154542
25   0.125419
26   0.111526
27   0.119867
28   0.166787
29   0.151819
30   0.122045
31   0.144161
32   0.111816
33   0.126121
34   0.157043

>  <lowdin_charges>
34
1   -0.442113
2   -0.43901
3   -0.354341
4   -0.17641
5   -0.19009
6   -0.277198
7   -0.195107
8   -0.179738
9   -0.115533
10   -0.014827
11   -0.07384
12   -0.029399
13   0.014609
14   0.02527
15   -0.184349
16   -0.044873
17   0.1556
18   0.155876
19   0.152832
20   0.156186
21   0.155736
22   0.15359
23   0.155764
24   0.153726
25   0.123363
26   0.150959
27   0.153977
28   0.160305
29   0.158779
30   0.119441
31   0.149528
32   0.151189
33   0.116321
34   0.153775

$$$$

