PCCDB-ID:  13086
public computational chemistry database (PCCDB) project, http://pccdb.org

 34 35  0  0  0  0  0  0  0  0999 V2000
    1.3316   -1.0749    2.0127 C   0  0  0  0  0  0  0  0  0  0  0  0
    3.9523    0.6076   -2.0142 C   0  0  0  0  0  0  0  0  0  0  0  0
    2.8068    2.3387    1.1812 C   0  0  0  0  0  0  0  0  0  0  0  0
    2.1288    1.3086    1.8272 C   0  0  0  0  0  0  0  0  0  0  0  0
    3.4042    2.1021   -0.0551 C   0  0  0  0  0  0  0  0  0  0  0  0
    2.7940   -4.1988   -1.5997 C   0  0  0  0  0  0  0  0  0  0  0  0
    0.5644   -3.9303   -2.4656 C   0  0  0  0  0  0  0  0  0  0  0  0
    2.9131   -5.4110   -2.2692 C   0  0  0  0  0  0  0  0  0  0  0  0
    0.6758   -5.1339   -3.1445 C   0  0  0  0  0  0  0  0  0  0  0  0
    2.0305    0.0306    1.2638 C   0  0  0  0  0  0  0  0  0  0  0  0
    3.3166    0.8474   -0.6641 C   0  0  0  0  0  0  0  0  0  0  0  0
    1.6233   -3.4302   -1.6920 C   0  0  0  0  0  0  0  0  0  0  0  0
    1.8570   -5.8967   -3.0614 C   0  0  0  0  0  0  0  0  0  0  0  0
    2.6201   -0.1819    0.0020 C   0  0  0  0  0  0  0  0  0  0  0  0
    1.4170   -2.1234   -0.9952 C   0  0  0  0  0  0  0  0  0  0  0  0
    1.9921   -7.0773   -3.7827 N   0  0  0  0  0  0  0  0  0  0  0  0
    2.5776   -1.4696   -0.6069 N   0  0  0  0  0  0  0  0  0  0  0  0
    0.2988   -1.6670   -0.7838 O   0  0  0  0  0  0  0  0  0  0  0  0
    1.1851   -0.7985    3.0614 H   0  0  0  0  0  0  0  0  0  0  0  0
    1.9129   -2.0040    1.9794 H   0  0  0  0  0  0  0  0  0  0  0  0
    0.3569   -1.2948    1.5650 H   0  0  0  0  0  0  0  0  0  0  0  0
    4.3383    1.5423   -2.4312 H   0  0  0  0  0  0  0  0  0  0  0  0
    3.2356    0.1891   -2.7310 H   0  0  0  0  0  0  0  0  0  0  0  0
    4.8000   -0.0917   -1.9602 H   0  0  0  0  0  0  0  0  0  0  0  0
    2.8751    3.3206    1.6416 H   0  0  0  0  0  0  0  0  0  0  0  0
    1.6747    1.4861    2.7991 H   0  0  0  0  0  0  0  0  0  0  0  0
    3.9373    2.9009   -0.5650 H   0  0  0  0  0  0  0  0  0  0  0  0
    3.6152   -3.8750   -0.9654 H   0  0  0  0  0  0  0  0  0  0  0  0
   -0.3506   -3.3492   -2.5182 H   0  0  0  0  0  0  0  0  0  0  0  0
    3.8261   -5.9949   -2.1759 H   0  0  0  0  0  0  0  0  0  0  0  0
   -0.1528   -5.4964   -3.7488 H   0  0  0  0  0  0  0  0  0  0  0  0
    2.6850   -7.7292   -3.4379 H   0  0  0  0  0  0  0  0  0  0  0  0
    1.1283   -7.5366   -4.0411 H   0  0  0  0  0  0  0  0  0  0  0  0
    3.4166   -1.7504   -1.0960 H   0  0  0  0  0  0  0  0  0  0  0  0
  1 19  1  0  0  0  0
  2 24  1  0  0  0  0
  2 11  1  0  0  0  0
  3 25  1  0  0  0  0
  3  4  2  0  0  0  0
  4 26  1  0  0  0  0
  5  3  1  0  0  0  0
  6 28  1  0  0  0  0
  7 12  2  0  0  0  0
  8 30  1  0  0  0  0
  8  6  2  0  0  0  0
  9 13  2  0  0  0  0
  9  7  1  0  0  0  0
 10  4  1  0  0  0  0
 10  1  1  0  0  0  0
 11  5  2  0  0  0  0
 11 14  1  0  0  0  0
 12  6  1  0  0  0  0
 12 15  1  0  0  0  0
 13  8  1  0  0  0  0
 14 10  2  0  0  0  0
 15 18  2  0  0  0  0
 15 17  1  0  0  0  0
 16 32  1  0  0  0  0
 16 13  1  0  0  0  0
 17 14  1  0  0  0  0
 20  1  1  0  0  0  0
 21  1  1  0  0  0  0
 22  2  1  0  0  0  0
 23  2  1  0  0  0  0
 27  5  1  0  0  0  0
 29  7  1  0  0  0  0
 31  9  1  0  0  0  0
 33 16  1  0  0  0  0
 34 17  1  0  0  0  0
M  END
>  <HBA>
3

>  <HBD>
2

>  <TPSA>
55.12

>  <cid>
13086

>  <dipole>
4.7

>  <excitation_energy_1>
4.433

>  <excitation_energy_2>
4.581

>  <excitation_energy_3>
4.669

>  <excitation_energy_4>
4.801

>  <homo_energy>
-5.693

>  <homo_lumo_gap>
5.018

>  <logP>
3.792

>  <lumo_energy>
-0.675

>  <melting_point>
159.82

>  <molecular_refractivity>
74.99

>  <oscillator_strength_1>
0.441

>  <oscillator_strength_2>
0.021

>  <oscillator_strength_3>
0.0752

>  <oscillator_strength_4>
0.0079

>  <open_babel_can_smiles>
O=C(c1ccc(cc1)N)Nc1c(C)cccc1C

>  <mulliken_charges>
34
1   -0.539155
2   -0.546861
3   -0.110845
4   -0.208765
5   -0.209874
6   -0.195289
7   -0.165238
8   -0.17818
9   -0.179185
10   0.200579
11   0.174862
12   0.061421
13   0.328941
14   0.194017
15   0.550339
16   -0.789926
17   -0.733992
18   -0.514465
19   0.142299
20   0.151284
21   0.202385
22   0.161373
23   0.171715
24   0.149028
25   0.12413
26   0.121288
27   0.11887
28   0.131384
29   0.162328
30   0.121173
31   0.124555
32   0.325595
33   0.326904
34   0.327305

>  <lowdin_charges>
34
1   -0.445948
2   -0.447897
3   -0.159612
4   -0.166685
5   -0.173609
6   -0.151602
7   -0.120392
8   -0.203194
9   -0.199446
10   0.006964
11   -0.015515
12   -0.072695
13   0.074297
14   0.031226
15   0.164823
16   -0.480467
17   -0.259934
18   -0.301467
19   0.150299
20   0.157324
21   0.179932
22   0.161685
23   0.164828
24   0.151047
25   0.155943
26   0.154242
27   0.154583
28   0.157993
29   0.17746
30   0.154903
31   0.156963
32   0.280487
33   0.280279
34   0.283184

$$$$

