PCCDB-ID:  60994
public computational chemistry database (PCCDB) project, http://pccdb.org

 16 16  0  0  1  0  0  0  0  0999 V2000
   -0.9496    1.1132    0.2145 C   0  0  0  0  0  0  0  0  0  0  0  0
   -1.2459   -0.3630    0.1773 C   0  0  0  0  0  0  0  0  0  0  0  0
    0.4039    1.3872   -0.4604 C   0  0  0  0  0  0  0  0  0  0  0  0
   -0.2957   -1.2673   -0.0760 C   0  0  0  0  0  0  0  0  0  0  0  0
    1.8035    0.4921    1.4454 C   0  0  0  0  0  0  0  0  0  0  0  0
    1.4420    0.3326   -0.0292 C   0  0  1  0  0  0  0  0  0  0  0  0
    1.6631   -0.3533    2.2944 O   0  0  0  0  0  0  0  0  0  0  0  0
    1.0260   -0.9938   -0.3145 O   0  0  0  0  0  0  0  0  0  0  0  0
   -0.9431    1.4831    1.2517 H   0  0  0  0  0  0  0  0  0  0  0  0
   -1.7375    1.6782   -0.3001 H   0  0  0  0  0  0  0  0  0  0  0  0
   -2.2566   -0.7134    0.3614 H   0  0  0  0  0  0  0  0  0  0  0  0
    0.7774    2.3911   -0.2255 H   0  0  0  0  0  0  0  0  0  0  0  0
    0.2992    1.3256   -1.5491 H   0  0  0  0  0  0  0  0  0  0  0  0
   -0.4760   -2.3353   -0.1359 H   0  0  0  0  0  0  0  0  0  0  0  0
    2.2258    1.4970    1.6869 H   0  0  0  0  0  0  0  0  0  0  0  0
    2.3708    0.4821   -0.5976 H   0  0  0  0  0  0  0  0  0  0  0  0
  1  9  1  0  0  0  0
  2  1  1  0  0  0  0
  2 11  1  0  0  0  0
  3 12  1  0  0  0  0
  3  6  1  0  0  0  0
  3  1  1  0  0  0  0
  4  2  2  0  0  0  0
  5 15  1  0  0  0  0
  5  7  2  0  0  0  0
  6 16  1  6  0  0  0
  6  5  1  0  0  0  0
  8  4  1  0  0  0  0
  8  6  1  0  0  0  0
 10  1  1  0  0  0  0
 13  3  1  0  0  0  0
 14  4  1  0  0  0  0
M  END
>  <HBA>
2

>  <HBD>
0

>  <TPSA>
26.3

>  <cid>
60994

>  <dipole>
2.98

>  <excitation_energy_1>
3.885

>  <excitation_energy_2>
4.478

>  <excitation_energy_3>
5.307

>  <excitation_energy_4>
5.789

>  <homo_energy>
-5.905

>  <homo_lumo_gap>
5.102

>  <logP>
0.878

>  <lumo_energy>
-0.803

>  <melting_point>
28.58

>  <molecular_refractivity>
29.65

>  <oscillator_strength_1>
0.0003

>  <oscillator_strength_2>
0.0001

>  <oscillator_strength_3>
0.0037

>  <oscillator_strength_4>
0.0142

>  <open_babel_can_smiles>
C1CC=CO[C@@H]1C=O

>  <mulliken_charges>
16
1   -0.304516
2   -0.158748
3   -0.306225
4   0.123149
5   0.254808
6   0.054105
7   -0.364323
8   -0.455911
9   0.154741
10   0.151485
11   0.13051
12   0.145597
13   0.167221
14   0.146252
15   0.099099
16   0.162757

>  <lowdin_charges>
16
1   -0.273435
2   -0.244207
3   -0.283494
4   -0.043446
5   0.043691
6   -0.033985
7   -0.193463
8   -0.194524
9   0.149233
10   0.157127
11   0.162774
12   0.153121
13   0.158457
14   0.161946
15   0.114521
16   0.165684

$$$$

