PCCDB-ID:  60046
public computational chemistry database (PCCDB) project, http://pccdb.org

 19 19  0  0  0  0  0  0  0  0999 V2000
    1.4878    0.0609    1.7616 C   0  0  0  0  0  0  0  0  0  0  0  0
    3.5281   -0.8546    0.6854 C   0  0  0  0  0  0  0  0  0  0  0  0
    0.2550    0.8760    1.3656 C   0  0  0  0  0  0  0  0  0  0  0  0
    4.6314   -0.4057    1.6862 C   0  0  0  0  0  0  0  0  0  0  0  0
    3.3828    1.3820    0.9704 C   0  0  0  0  0  0  0  0  0  0  0  0
    2.5297    0.2291    0.7234 N   0  0  0  0  0  0  0  0  0  0  0  0
   -0.1903    0.5141    0.0733 O   0  0  0  0  0  0  0  0  0  0  0  0
    4.3665    0.9795    1.9269 O   0  0  0  0  0  0  0  0  0  0  0  0
    1.2061   -0.9967    1.7804 H   0  0  0  0  0  0  0  0  0  0  0  0
    1.8433    0.3387    2.7665 H   0  0  0  0  0  0  0  0  0  0  0  0
    3.0733   -1.8161    0.9335 H   0  0  0  0  0  0  0  0  0  0  0  0
    3.9377   -0.9226   -0.3290 H   0  0  0  0  0  0  0  0  0  0  0  0
    0.4804    1.9558    1.4254 H   0  0  0  0  0  0  0  0  0  0  0  0
   -0.5643    0.6788    2.0658 H   0  0  0  0  0  0  0  0  0  0  0  0
    5.6377   -0.5392    1.2673 H   0  0  0  0  0  0  0  0  0  0  0  0
    4.5808   -0.9359    2.6439 H   0  0  0  0  0  0  0  0  0  0  0  0
    2.8283    2.2285    1.3818 H   0  0  0  0  0  0  0  0  0  0  0  0
    3.8656    1.6839    0.0283 H   0  0  0  0  0  0  0  0  0  0  0  0
    0.6294    0.4441   -0.4506 H   0  0  0  0  0  0  0  0  0  0  0  0
  1  9  1  0  0  0  0
  1 10  1  0  0  0  0
  2  6  1  0  0  0  0
  2 11  1  0  0  0  0
  2  4  1  0  0  0  0
  3 13  1  0  0  0  0
  3  1  1  0  0  0  0
  3 14  1  0  0  0  0
  4  8  1  0  0  0  0
  4 16  1  0  0  0  0
  5 17  1  0  0  0  0
  5  8  1  0  0  0  0
  6  5  1  0  0  0  0
  6  1  1  0  0  0  0
  7  3  1  0  0  0  0
 12  2  1  0  0  0  0
 15  4  1  0  0  0  0
 18  5  1  0  0  0  0
 19  7  1  0  0  0  0
M  END
>  <HBA>
3

>  <HBD>
1

>  <TPSA>
32.7

>  <cid>
60046

>  <dipole>
2.02

>  <excitation_energy_1>
6.079

>  <excitation_energy_2>
6.471

>  <excitation_energy_3>
6.494

>  <excitation_energy_4>
6.633

>  <homo_energy>
-6.656

>  <homo_lumo_gap>
8.615

>  <logP>
-0.794

>  <lumo_energy>
1.959

>  <melting_point>
8.98

>  <molecular_refractivity>
33.09

>  <oscillator_strength_1>
0.0198

>  <oscillator_strength_2>
0.0074

>  <oscillator_strength_3>
0.0198

>  <oscillator_strength_4>
0.0018

>  <open_babel_can_smiles>
OCCN1COCC1

>  <mulliken_charges>
19
1   -0.163925
2   -0.188662
3   -0.017877
4   -0.026685
5   0.078615
6   -0.413494
7   -0.625217
8   -0.48434
9   0.149593
10   0.142587
11   0.158026
12   0.15803
13   0.116003
14   0.143089
15   0.137859
16   0.144692
17   0.156304
18   0.139346
19   0.396055

>  <lowdin_charges>
19
1   -0.222785
2   -0.223127
3   -0.137889
4   -0.148521
5   -0.083971
6   -0.190843
7   -0.474163
8   -0.290559
9   0.149421
10   0.139255
11   0.157419
12   0.149801
13   0.119374
14   0.148627
15   0.138981
16   0.144071
17   0.15407
18   0.134135
19   0.336704

$$$$

