PCCDB-ID:  40093
public computational chemistry database (PCCDB) project, http://pccdb.org

 32 33  0  0  1  0  0  0  0  0999 V2000
    0.7537   -0.0332    0.0942 C   0  0  0  0  0  0  0  0  0  0  0  0
    2.2872    2.4082    0.9840 C   0  0  0  0  0  0  0  0  0  0  0  0
    3.5513   -4.0051   -4.8116 C   0  0  0  0  0  0  0  0  0  0  0  0
    3.4648    1.3737   -2.4121 C   0  0  0  0  0  0  0  0  0  0  0  0
    2.5542    2.0968   -1.4184 C   0  0  0  0  0  0  0  0  0  0  0  0
    3.8856   -0.9731   -3.2602 C   0  0  0  0  0  0  0  0  0  0  0  0
    2.8929   -2.0996   -0.9471 C   0  0  0  0  0  0  0  0  0  0  0  0
    2.2930    0.1466    0.0354 C   0  0  1  0  0  0  0  0  0  0  0  0
    3.3992   -0.1299   -2.2514 C   0  0  0  0  0  0  0  0  0  0  0  0
    2.8857   -0.7039   -1.0819 C   0  0  0  0  0  0  0  0  0  0  0  0
    3.3950   -2.9305   -1.9444 C   0  0  0  0  0  0  0  0  0  0  0  0
    3.8902   -2.3575   -3.1327 C   0  0  0  0  0  0  0  0  0  0  0  0
    2.7490    1.5386   -0.0842 N   0  0  0  0  0  0  0  0  0  0  0  0
    3.4412   -4.2962   -1.8206 O   0  0  0  0  0  0  0  0  0  0  0  0
    4.4439   -3.1175   -4.1351 O   0  0  0  0  0  0  0  0  0  0  0  0
    0.4971   -1.0908    0.2138 H   0  0  0  0  0  0  0  0  0  0  0  0
    0.2744    0.3184   -0.8256 H   0  0  0  0  0  0  0  0  0  0  0  0
    0.3212    0.5123    0.9397 H   0  0  0  0  0  0  0  0  0  0  0  0
    2.8417    3.3529    0.9440 H   0  0  0  0  0  0  0  0  0  0  0  0
    2.4938    1.9389    1.9531 H   0  0  0  0  0  0  0  0  0  0  0  0
    1.2089    2.6520    0.9493 H   0  0  0  0  0  0  0  0  0  0  0  0
    4.1428   -4.4884   -5.5928 H   0  0  0  0  0  0  0  0  0  0  0  0
    2.7249   -3.4491   -5.2752 H   0  0  0  0  0  0  0  0  0  0  0  0
    3.1472   -4.7644   -4.1351 H   0  0  0  0  0  0  0  0  0  0  0  0
    4.4982    1.7084   -2.2458 H   0  0  0  0  0  0  0  0  0  0  0  0
    3.2022    1.6605   -3.4387 H   0  0  0  0  0  0  0  0  0  0  0  0
    1.5005    2.0442   -1.7554 H   0  0  0  0  0  0  0  0  0  0  0  0
    2.8163    3.1603   -1.3843 H   0  0  0  0  0  0  0  0  0  0  0  0
    4.2867   -0.5545   -4.1799 H   0  0  0  0  0  0  0  0  0  0  0  0
    2.5118   -2.5519   -0.0309 H   0  0  0  0  0  0  0  0  0  0  0  0
    2.6978   -0.2220    0.9896 H   0  0  0  0  0  0  0  0  0  0  0  0
    3.0842   -4.5370   -0.9517 H   0  0  0  0  0  0  0  0  0  0  0  0
  1 16  1  0  0  0  0
  1 18  1  0  0  0  0
  2 20  1  0  0  0  0
  3 24  1  0  0  0  0
  3 15  1  0  0  0  0
  4  9  1  0  0  0  0
  4 25  1  0  0  0  0
  4  5  1  0  0  0  0
  5 28  1  0  0  0  0
  5 13  1  0  0  0  0
  6 12  2  0  0  0  0
  6  9  1  0  0  0  0
  7 30  1  0  0  0  0
  8  1  1  0  0  0  0
  8 31  1  1  0  0  0
  9 10  2  0  0  0  0
 10  7  1  0  0  0  0
 10  8  1  0  0  0  0
 11 14  1  0  0  0  0
 11  7  2  0  0  0  0
 12 11  1  0  0  0  0
 13  8  1  0  0  0  0
 13  2  1  0  0  0  0
 14 32  1  0  0  0  0
 15 12  1  0  0  0  0
 17  1  1  0  0  0  0
 19  2  1  0  0  0  0
 21  2  1  0  0  0  0
 22  3  1  0  0  0  0
 23  3  1  0  0  0  0
 26  4  1  0  0  0  0
 27  5  1  0  0  0  0
 29  6  1  0  0  0  0
M  END
>  <HBA>
3

>  <HBD>
1

>  <TPSA>
32.7

>  <cid>
40093

>  <dipole>
2.59

>  <excitation_energy_1>
4.661

>  <excitation_energy_2>
4.762

>  <excitation_energy_3>
4.854

>  <excitation_energy_4>
4.995

>  <homo_energy>
-5.508

>  <homo_lumo_gap>
5.638

>  <logP>
1.888

>  <lumo_energy>
0.131

>  <melting_point>
82.3

>  <molecular_refractivity>
64.01

>  <oscillator_strength_1>
0.0053

>  <oscillator_strength_2>
0.0623

>  <oscillator_strength_3>
0.0053

>  <oscillator_strength_4>
0.0079

>  <open_babel_can_smiles>
COc1cc2CCN([C@H](c2cc1O)C)C

>  <mulliken_charges>
32
1   -0.453843
2   -0.29403
3   -0.213065
4   -0.329305
5   -0.137739
6   -0.251596
7   -0.268375
8   -0.021037
9   0.11255
10   0.117393
11   0.321406
12   0.338692
13   -0.394077
14   -0.648369
15   -0.523575
16   0.143325
17   0.151901
18   0.14474
19   0.149251
20   0.144962
21   0.122155
22   0.156649
23   0.136256
24   0.167345
25   0.158746
26   0.137996
27   0.117679
28   0.135181
29   0.127951
30   0.108985
31   0.134067
32   0.407776

>  <lowdin_charges>
32
1   -0.462644
2   -0.353521
3   -0.280479
4   -0.273767
5   -0.195588
6   -0.176678
7   -0.218111
8   -0.055872
9   -0.024179
10   -0.012649
11   0.076794
12   0.066144
13   -0.185944
14   -0.380256
15   -0.222742
16   0.151039
17   0.15271
18   0.150263
19   0.149656
20   0.148185
21   0.12019
22   0.156328
23   0.138109
24   0.153016
25   0.155758
26   0.14828
27   0.116909
28   0.144905
29   0.163641
30   0.148924
31   0.144213
32   0.35737

$$$$

