PCCDB-ID:  1150
public computational chemistry database (PCCDB) project, http://pccdb.org

 24 25  0  0  0  0  0  0  0  0999 V2000
    2.1729   -0.5524    0.0552 C   0  0  0  0  0  0  0  0  0  0  0  0
    2.1371    0.8574    0.0575 C   0  0  0  0  0  0  0  0  0  0  0  0
    1.0016   -1.2993    0.0407 C   0  0  0  0  0  0  0  0  0  0  0  0
    0.9301    1.5468    0.0415 C   0  0  0  0  0  0  0  0  0  0  0  0
   -2.1026   -2.4941    0.0215 C   0  0  0  0  0  0  0  0  0  0  0  0
   -1.9949   -3.1631    1.4029 C   0  0  0  0  0  0  0  0  0  0  0  0
   -2.3776    0.0637   -0.0119 C   0  0  0  0  0  0  0  0  0  0  0  0
   -1.6118   -1.0749    0.0039 C   0  0  0  0  0  0  0  0  0  0  0  0
   -0.2365   -0.6326    0.0289 C   0  0  0  0  0  0  0  0  0  0  0  0
   -0.2465    0.7900    0.0283 C   0  0  0  0  0  0  0  0  0  0  0  0
   -2.4116   -4.5679    1.3214 N   0  0  0  0  0  0  0  0  0  0  0  0
   -1.5677    1.1861    0.0064 N   0  0  0  0  0  0  0  0  0  0  0  0
    3.1340   -1.0593    0.0642 H   0  0  0  0  0  0  0  0  0  0  0  0
    3.0695    1.4154    0.0677 H   0  0  0  0  0  0  0  0  0  0  0  0
    1.0417   -2.3856    0.0337 H   0  0  0  0  0  0  0  0  0  0  0  0
    0.9031    2.6337    0.0385 H   0  0  0  0  0  0  0  0  0  0  0  0
   -3.1518   -2.5245   -0.3051 H   0  0  0  0  0  0  0  0  0  0  0  0
   -1.5401   -3.1075   -0.6940 H   0  0  0  0  0  0  0  0  0  0  0  0
   -2.5651   -2.5596    2.1322 H   0  0  0  0  0  0  0  0  0  0  0  0
   -0.9495   -3.1425    1.7330 H   0  0  0  0  0  0  0  0  0  0  0  0
   -3.4544    0.1672   -0.0368 H   0  0  0  0  0  0  0  0  0  0  0  0
   -3.4107   -4.6151    1.1215 H   0  0  0  0  0  0  0  0  0  0  0  0
   -2.2884   -5.0168    2.2278 H   0  0  0  0  0  0  0  0  0  0  0  0
   -1.8923    2.1396   -0.0214 H   0  0  0  0  0  0  0  0  0  0  0  0
  1  2  1  0  0  0  0
  1 13  1  0  0  0  0
  2 14  1  0  0  0  0
  3  1  2  0  0  0  0
  4  2  2  0  0  0  0
  5  6  1  0  0  0  0
  6 20  1  0  0  0  0
  6 19  1  0  0  0  0
  7  8  2  0  0  0  0
  7 12  1  0  0  0  0
  8  5  1  0  0  0  0
  8  9  1  0  0  0  0
  9  3  1  0  0  0  0
 10  9  2  0  0  0  0
 10  4  1  0  0  0  0
 11  6  1  0  0  0  0
 11 23  1  0  0  0  0
 12 10  1  0  0  0  0
 15  3  1  0  0  0  0
 16  4  1  0  0  0  0
 17  5  1  0  0  0  0
 18  5  1  0  0  0  0
 21  7  1  0  0  0  0
 22 11  1  0  0  0  0
 24 12  1  0  0  0  0
M  END
>  <HBA>
1

>  <HBD>
2

>  <TPSA>
41.81

>  <cid>
1150

>  <dipole>
3.09

>  <excitation_energy_1>
4.556

>  <excitation_energy_2>
4.697

>  <excitation_energy_3>
4.824

>  <excitation_energy_4>
5.043

>  <homo_energy>
-5.271

>  <homo_lumo_gap>
5.23

>  <logP>
2.369

>  <lumo_energy>
-0.041

>  <melting_point>
153.35

>  <molecular_refractivity>
50.78

>  <oscillator_strength_1>
0.0692

>  <oscillator_strength_2>
0.0013

>  <oscillator_strength_3>
0.026

>  <oscillator_strength_4>
0.0099

>  <open_babel_can_smiles>
NCCc1c[nH]c2c1cccc2

>  <mulliken_charges>
24
1   -0.140837
2   -0.151541
3   -0.211368
4   -0.163516
5   -0.335096
6   -0.131915
7   -0.007344
8   0.075562
9   0.076719
10   0.312828
11   -0.715491
12   -0.691041
13   0.118955
14   0.120725
15   0.129096
16   0.11829
17   0.126815
18   0.156918
19   0.113242
20   0.147149
21   0.142555
22   0.289663
23   0.295079
24   0.324554

>  <lowdin_charges>
24
1   -0.177403
2   -0.165915
3   -0.161361
4   -0.185871
5   -0.271712
6   -0.205026
7   -0.137127
8   -0.059615
9   -0.035793
10   0.030455
11   -0.557518
12   -0.201527
13   0.153843
14   0.154915
15   0.155447
16   0.151826
17   0.141488
18   0.158072
19   0.119301
20   0.143811
21   0.159724
22   0.247344
23   0.253748
24   0.288893

$$$$

