PCCDB-ID:  12125
public computational chemistry database (PCCDB) project, http://pccdb.org

 18 18  0  0  0  0  0  0  0  0999 V2000
   -0.5704    1.0413   -0.4281 C   0  0  0  0  0  0  0  0  0  0  0  0
   -1.0641   -0.2439   -0.6696 C   0  0  0  0  0  0  0  0  0  0  0  0
    0.7760    1.2390   -0.1366 C   0  0  0  0  0  0  0  0  0  0  0  0
   -0.7076   -2.7797   -0.8620 C   0  0  0  0  0  0  0  0  0  0  0  0
   -2.0943   -2.8724   -1.3253 C   0  0  0  0  0  0  0  0  0  0  0  0
    1.1386   -1.1657   -0.3330 C   0  0  0  0  0  0  0  0  0  0  0  0
   -0.2150   -1.3548   -0.6233 C   0  0  0  0  0  0  0  0  0  0  0  0
    1.6077    0.1217   -0.0939 C   0  0  0  0  0  0  0  0  0  0  0  0
   -3.1948   -2.9352   -1.6876 N   0  0  0  0  0  0  0  0  0  0  0  0
    3.0382    0.3058    0.2115 N   0  0  0  0  0  0  0  0  0  0  0  0
    3.4324    1.4515    0.4217 O   0  0  0  0  0  0  0  0  0  0  0  0
    3.7501   -0.6975    0.2382 O   0  0  0  0  0  0  0  0  0  0  0  0
   -1.2432    1.8923   -0.4699 H   0  0  0  0  0  0  0  0  0  0  0  0
   -2.1163   -0.3814   -0.9003 H   0  0  0  0  0  0  0  0  0  0  0  0
    1.1870    2.2225    0.0531 H   0  0  0  0  0  0  0  0  0  0  0  0
   -0.0665   -3.2778   -1.6004 H   0  0  0  0  0  0  0  0  0  0  0  0
   -0.6192   -3.3655    0.0629 H   0  0  0  0  0  0  0  0  0  0  0  0
    1.8341   -1.9963   -0.2882 H   0  0  0  0  0  0  0  0  0  0  0  0
  1  3  2  0  0  0  0
  2  7  2  0  0  0  0
  2  1  1  0  0  0  0
  3  8  1  0  0  0  0
  3 15  1  0  0  0  0
  4  7  1  0  0  0  0
  4 17  1  0  0  0  0
  5  4  1  0  0  0  0
  6 18  1  0  0  0  0
  6  8  2  0  0  0  0
  7  6  1  0  0  0  0
  8 10  1  0  0  0  0
  9  5  3  0  0  0  0
 10 12  2  0  0  0  0
 10 11  2  0  0  0  0
 13  1  1  0  0  0  0
 14  2  1  0  0  0  0
 16  4  1  0  0  0  0
M  END
>  <HBA>
1

>  <HBD>
0

>  <TPSA>
69.61

>  <cid>
12125

>  <dipole>
0.96

>  <excitation_energy_1>
3.742

>  <excitation_energy_2>
4.193

>  <excitation_energy_3>
4.253

>  <excitation_energy_4>
4.677

>  <homo_energy>
-7.763

>  <homo_lumo_gap>
5.067

>  <logP>
2.184

>  <lumo_energy>
-2.697

>  <melting_point>
80.19

>  <molecular_refractivity>
44.79

>  <oscillator_strength_1>
0.0

>  <oscillator_strength_2>
0.0151

>  <oscillator_strength_3>
0.0003

>  <oscillator_strength_4>
0.2033

>  <open_babel_can_smiles>
N#CCc1cccc(c1)N(=O)=O

>  <mulliken_charges>
18
1   -0.146541
2   -0.147047
3   -0.143362
4   -0.400935
5   0.36282
6   -0.193266
7   0.125881
8   0.272943
9   -0.472963
10   0.383705
11   -0.387799
12   -0.393465
13   0.159449
14   0.173413
15   0.188018
16   0.217414
17   0.220491
18   0.181242

>  <lowdin_charges>
18
1   -0.140874
2   -0.137665
3   -0.136217
4   -0.270314
5   -0.014868
6   -0.147187
7   0.001908
8   0.008774
9   -0.114471
10   0.308968
11   -0.239078
12   -0.245135
13   0.17379
14   0.179565
15   0.190423
16   0.197389
17   0.197137
18   0.187855

$$$$

