PCCDB-ID:  48520
public computational chemistry database (PCCDB) project, http://pccdb.org

 35 35  0  0  1  0  0  0  0  0999 V2000
    1.7522   -2.5424   -1.9831 C   0  0  0  0  0  0  0  0  0  0  0  0
    4.8451    0.3320    3.4159 C   0  0  0  0  0  0  0  0  0  0  0  0
    6.6412   -0.4115    1.0547 C   0  0  0  0  0  0  0  0  0  0  0  0
    6.1150    1.7443   -2.8044 C   0  0  0  0  0  0  0  0  0  0  0  0
    2.4052   -1.4104   -1.7203 C   0  0  0  0  0  0  0  0  0  0  0  0
    4.3689    0.3230    1.9564 C   0  0  0  0  0  0  0  0  0  0  0  0
    2.9911   -1.0443   -0.3828 C   0  0  0  0  0  0  0  0  0  0  0  0
    5.1274   -0.6869    1.0684 C   0  0  1  0  0  0  0  0  0  0  0  0
    5.2374   -1.9785   -1.0840 C   0  0  0  0  0  0  0  0  0  0  0  0
    4.7994    0.4909   -1.1763 C   0  0  0  0  0  0  0  0  0  0  0  0
    6.4543   -0.6981   -2.5859 C   0  0  0  0  0  0  0  0  0  0  0  0
    4.5379   -0.8112   -0.4063 C   0  0  1  0  0  0  0  0  0  0  0  0
    6.0951   -1.9247   -2.0307 N   0  0  0  0  0  0  0  0  0  0  0  0
    5.7953    0.4799   -2.1298 N   0  0  0  0  0  0  0  0  0  0  0  0
    4.9713   -3.2089   -0.6093 O   0  0  0  0  0  0  0  0  0  0  0  0
    4.1631    1.5059   -0.9249 O   0  0  0  0  0  0  0  0  0  0  0  0
    7.2982   -0.6134   -3.4539 O   0  0  0  0  0  0  0  0  0  0  0  0
    1.3400   -2.7488   -2.9664 H   0  0  0  0  0  0  0  0  0  0  0  0
    1.5958   -3.3071   -1.2242 H   0  0  0  0  0  0  0  0  0  0  0  0
    4.1868    0.9632    4.0226 H   0  0  0  0  0  0  0  0  0  0  0  0
    5.8608    0.7257    3.5213 H   0  0  0  0  0  0  0  0  0  0  0  0
    4.8292   -0.6760    3.8502 H   0  0  0  0  0  0  0  0  0  0  0  0
    7.0542   -0.5079    2.0622 H   0  0  0  0  0  0  0  0  0  0  0  0
    6.8568    0.6052    0.7058 H   0  0  0  0  0  0  0  0  0  0  0  0
    7.1845   -1.1136    0.4150 H   0  0  0  0  0  0  0  0  0  0  0  0
    5.9832    2.5604   -2.0950 H   0  0  0  0  0  0  0  0  0  0  0  0
    5.4470    1.9049   -3.6569 H   0  0  0  0  0  0  0  0  0  0  0  0
    7.1414    1.6873   -3.1605 H   0  0  0  0  0  0  0  0  0  0  0  0
    2.5300   -0.6705   -2.5111 H   0  0  0  0  0  0  0  0  0  0  0  0
    4.4567    1.3257    1.5259 H   0  0  0  0  0  0  0  0  0  0  0  0
    3.3005    0.0819    1.9519 H   0  0  0  0  0  0  0  0  0  0  0  0
    2.7358   -1.8103    0.3637 H   0  0  0  0  0  0  0  0  0  0  0  0
    2.5446   -0.1079   -0.0373 H   0  0  0  0  0  0  0  0  0  0  0  0
    4.9793   -1.6816    1.5168 H   0  0  0  0  0  0  0  0  0  0  0  0
    4.2626   -3.1629    0.0517 H   0  0  0  0  0  0  0  0  0  0  0  0
  1  5  2  0  0  0  0
  1 19  1  0  0  0  0
  2 21  1  0  0  0  0
  2 22  1  0  0  0  0
  2 20  1  0  0  0  0
  3  8  1  0  0  0  0
  3 23  1  0  0  0  0
  4 14  1  0  0  0  0
  4 26  1  0  0  0  0
  5  7  1  0  0  0  0
  6  2  1  0  0  0  0
  7 33  1  0  0  0  0
  7 32  1  0  0  0  0
  8 34  1  1  0  0  0
  8  6  1  0  0  0  0
  9 15  1  0  0  0  0
  9 12  1  0  0  0  0
 10 16  2  0  0  0  0
 10 12  1  0  0  0  0
 11 14  1  0  0  0  0
 11 13  1  0  0  0  0
 12  7  1  1  0  0  0
 12  8  1  0  0  0  0
 13  9  2  0  0  0  0
 14 10  1  0  0  0  0
 15 35  1  0  0  0  0
 17 11  2  0  0  0  0
 18  1  1  0  0  0  0
 24  3  1  0  0  0  0
 25  3  1  0  0  0  0
 27  4  1  0  0  0  0
 28  4  1  0  0  0  0
 29  5  1  0  0  0  0
 30  6  1  0  0  0  0
 31  6  1  0  0  0  0
M  END
>  <HBA>
5

>  <HBD>
1

>  <TPSA>
66.48

>  <cid>
48520

>  <dipole>
5.09

>  <excitation_energy_1>
4.483

>  <excitation_energy_2>
4.763

>  <excitation_energy_3>
5.032

>  <excitation_energy_4>
5.22

>  <homo_energy>
-7.197

>  <homo_lumo_gap>
5.755

>  <logP>
1.57

>  <lumo_energy>
-1.442

>  <melting_point>
94.44

>  <molecular_refractivity>
71.47

>  <oscillator_strength_1>
0.0005

>  <oscillator_strength_2>
0.0004

>  <oscillator_strength_3>
0.004

>  <oscillator_strength_4>
0.0165

>  <open_babel_can_smiles>
C=CC[C@@]1([C@H](CC)C)C(=NC(=O)N(C1=O)C)O

>  <mulliken_charges>
35
1   -0.332865
2   -0.455178
3   -0.485704
4   -0.319818
5   -0.0513
6   -0.262541
7   -0.355176
8   -0.080976
9   0.553158
10   0.635773
11   0.702811
12   -0.126438
13   -0.493118
14   -0.511359
15   -0.564688
16   -0.515643
17   -0.465673
18   0.156346
19   0.134587
20   0.153184
21   0.154559
22   0.140302
23   0.164318
24   0.16118
25   0.172528
26   0.183483
27   0.174682
28   0.197959
29   0.150409
30   0.173272
31   0.138451
32   0.127354
33   0.208448
34   0.115706
35   0.421965

>  <lowdin_charges>
35
1   -0.326053
2   -0.446043
3   -0.45733
4   -0.350983
5   -0.157551
6   -0.279419
7   -0.275585
8   -0.111127
9   0.165016
10   0.16444
11   0.182231
12   -0.05488
13   -0.18421
14   -0.08961
15   -0.315355
16   -0.283527
17   -0.244368
18   0.167396
19   0.153658
20   0.157968
21   0.150997
22   0.144915
23   0.161687
24   0.156163
25   0.164488
26   0.173555
27   0.163648
28   0.180311
29   0.162985
30   0.160976
31   0.144431
32   0.141491
33   0.1849
34   0.133306
35   0.361478

$$$$

