PCCDB-ID:  23505
public computational chemistry database (PCCDB) project, http://pccdb.org

 18 17  0  0  0  0  0  0  0  0999 V2000
    3.1914   -0.7230    0.5965 C   0  0  0  0  0  0  0  0  0  0  0  0
    3.1679    2.5785   -2.7725 C   0  0  0  0  0  0  0  0  0  0  0  0
    3.3202    0.7588    0.2349 C   0  0  0  0  0  0  0  0  0  0  0  0
    3.3256    1.1265   -2.3156 C   0  0  0  0  0  0  0  0  0  0  0  0
    4.0153    0.9936   -1.0313 N   0  0  0  0  0  0  0  0  0  0  0  0
    5.3815    0.9894   -1.0303 N   0  0  0  0  0  0  0  0  0  0  0  0
    5.9470    0.7969    0.0515 O   0  0  0  0  0  0  0  0  0  0  0  0
    5.9475    1.1848   -2.1114 O   0  0  0  0  0  0  0  0  0  0  0  0
    2.6465   -0.8314    1.5409 H   0  0  0  0  0  0  0  0  0  0  0  0
    4.1816   -1.1701    0.7167 H   0  0  0  0  0  0  0  0  0  0  0  0
    2.6464   -1.2756   -0.1769 H   0  0  0  0  0  0  0  0  0  0  0  0
    2.6314    2.6140   -3.7272 H   0  0  0  0  0  0  0  0  0  0  0  0
    4.1497    3.0384   -2.9110 H   0  0  0  0  0  0  0  0  0  0  0  0
    2.6034    3.1661   -2.0402 H   0  0  0  0  0  0  0  0  0  0  0  0
    3.8563    1.2996    1.0169 H   0  0  0  0  0  0  0  0  0  0  0  0
    2.3343    1.2216    0.1245 H   0  0  0  0  0  0  0  0  0  0  0  0
    3.8787    0.5498   -3.0603 H   0  0  0  0  0  0  0  0  0  0  0  0
    2.3482    0.6517   -2.1826 H   0  0  0  0  0  0  0  0  0  0  0  0
  1 10  1  0  0  0  0
  1  9  1  0  0  0  0
  2  4  1  0  0  0  0
  2 14  1  0  0  0  0
  3  1  1  0  0  0  0
  3 15  1  0  0  0  0
  4 18  1  0  0  0  0
  4  5  1  0  0  0  0
  5  6  1  0  0  0  0
  5  3  1  0  0  0  0
  6  7  2  0  0  0  0
  8  6  2  0  0  0  0
 11  1  1  0  0  0  0
 12  2  1  0  0  0  0
 13  2  1  0  0  0  0
 16  3  1  0  0  0  0
 17  4  1  0  0  0  0
M  END
>  <HBA>
1

>  <HBD>
0

>  <TPSA>
49.06

>  <cid>
23505

>  <dipole>
4.63

>  <excitation_energy_1>
4.618

>  <excitation_energy_2>
5.584

>  <excitation_energy_3>
5.653

>  <excitation_energy_4>
6.443

>  <homo_energy>
-7.14

>  <homo_lumo_gap>
6.251

>  <logP>
1.043

>  <lumo_energy>
-0.89

>  <melting_point>
8.16

>  <molecular_refractivity>
32.34

>  <oscillator_strength_1>
0.0014

>  <oscillator_strength_2>
0.0264

>  <oscillator_strength_3>
0.1448

>  <oscillator_strength_4>
0.013

>  <open_babel_can_smiles>
CCN(N(=O)=O)CC

>  <mulliken_charges>
18
1   -0.448071
2   -0.445874
3   -0.141733
4   -0.14009
5   -0.248544
6   0.641232
7   -0.442322
8   -0.441572
9   0.154365
10   0.183099
11   0.14962
12   0.152925
13   0.183804
14   0.149518
15   0.191756
16   0.156485
17   0.189512
18   0.15589

>  <lowdin_charges>
18
1   -0.453912
2   -0.452827
3   -0.199647
4   -0.198957
5   -0.066113
6   0.337341
7   -0.291928
8   -0.29159
9   0.158902
10   0.168041
11   0.152502
12   0.157915
13   0.168525
14   0.152841
15   0.174782
16   0.15557
17   0.173131
18   0.155424

$$$$

