PCCDB-ID:  70121
public computational chemistry database (PCCDB) project, http://pccdb.org

 23 23  0  0  0  0  0  0  0  0999 V2000
    0.6369    0.1478    0.0777 C   0  0  0  0  0  0  0  0  0  0  0  0
    2.2553   -0.0070   -1.8559 C   0  0  0  0  0  0  0  0  0  0  0  0
    5.1658   -0.1136    2.3502 C   0  0  0  0  0  0  0  0  0  0  0  0
    2.7430   -1.2424    0.2609 C   0  0  0  0  0  0  0  0  0  0  0  0
    2.9163    1.2386    0.2075 C   0  0  0  0  0  0  0  0  0  0  0  0
    2.1177    0.0358   -0.3250 C   0  0  0  0  0  0  0  0  0  0  0  0
    2.8836    0.0740    3.9270 O   0  0  0  0  0  0  0  0  0  0  0  0
    2.7517   -1.2474    1.7010 O   0  0  0  0  0  0  0  0  0  0  0  0
    2.9237    1.3054    1.6462 O   0  0  0  0  0  0  0  0  0  0  0  0
    3.3606    0.0122    2.5326 P   0  0  0  0  0  0  0  0  0  0  0  0
    0.0694   -0.7098   -0.3022 H   0  0  0  0  0  0  0  0  0  0  0  0
    0.1925    1.0581   -0.3412 H   0  0  0  0  0  0  0  0  0  0  0  0
    0.5165    0.1804    1.1631 H   0  0  0  0  0  0  0  0  0  0  0  0
    1.7112   -0.8632   -2.2709 H   0  0  0  0  0  0  0  0  0  0  0  0
    3.3029   -0.0889   -2.1710 H   0  0  0  0  0  0  0  0  0  0  0  0
    1.8382    0.8995   -2.3095 H   0  0  0  0  0  0  0  0  0  0  0  0
    5.5093   -1.0260    2.8454 H   0  0  0  0  0  0  0  0  0  0  0  0
    5.6313    0.7474    2.8378 H   0  0  0  0  0  0  0  0  0  0  0  0
    5.4817   -0.1398    1.3022 H   0  0  0  0  0  0  0  0  0  0  0  0
    3.7710   -1.3684   -0.1104 H   0  0  0  0  0  0  0  0  0  0  0  0
    2.1705   -2.1273   -0.0317 H   0  0  0  0  0  0  0  0  0  0  0  0
    2.4743    2.1814   -0.1274 H   0  0  0  0  0  0  0  0  0  0  0  0
    3.9522    1.2018   -0.1620 H   0  0  0  0  0  0  0  0  0  0  0  0
  1 13  1  0  0  0  0
  2  6  1  0  0  0  0
  3 10  1  0  0  0  0
  3 18  1  0  0  0  0
  3 17  1  0  0  0  0
  4  8  1  0  0  0  0
  5  9  1  0  0  0  0
  6  1  1  0  0  0  0
  6  5  1  0  0  0  0
  6  4  1  0  0  0  0
  8 10  1  0  0  0  0
  9 10  1  0  0  0  0
 10  7  2  0  0  0  0
 11  1  1  0  0  0  0
 12  1  1  0  0  0  0
 14  2  1  0  0  0  0
 15  2  1  0  0  0  0
 16  2  1  0  0  0  0
 19  3  1  0  0  0  0
 20  4  1  0  0  0  0
 21  4  1  0  0  0  0
 22  5  1  0  0  0  0
 23  5  1  0  0  0  0
M  END
>  <HBA>
3

>  <HBD>
0

>  <TPSA>
45.34

>  <cid>
70121

>  <dipole>
6.23

>  <excitation_energy_1>
6.864

>  <excitation_energy_2>
7.11

>  <excitation_energy_3>
7.235

>  <excitation_energy_4>
7.245

>  <homo_energy>
-7.557

>  <homo_lumo_gap>
8.95

>  <logP>
1.882

>  <lumo_energy>
1.393

>  <melting_point>
12.23

>  <molecular_refractivity>
39.42

>  <oscillator_strength_1>
0.0236

>  <oscillator_strength_2>
0.013

>  <oscillator_strength_3>
0.0056

>  <oscillator_strength_4>
0.0313

>  <open_babel_can_smiles>
CC1(C)COP(=O)(OC1)C

>  <mulliken_charges>
23
1   -0.451448
2   -0.460882
3   -0.678669
4   -0.04929
5   -0.049881
6   0.029488
7   -0.51524
8   -0.54914
9   -0.548734
10   1.165781
11   0.14503
12   0.145026
13   0.193489
14   0.156742
15   0.145337
16   0.156693
17   0.201111
18   0.201545
19   0.166319
20   0.1353
21   0.163073
22   0.163108
23   0.135241

>  <lowdin_charges>
23
1   -0.44335
2   -0.441778
3   -0.639852
4   -0.124404
5   -0.123866
6   -0.020062
7   -0.566218
8   -0.402945
9   -0.402928
10   1.071182
11   0.152901
12   0.15258
13   0.171646
14   0.158797
15   0.148703
16   0.158441
17   0.193541
18   0.194184
19   0.170072
20   0.136789
21   0.160184
22   0.159822
23   0.136562

$$$$

