PCCDB-ID:  68410
public computational chemistry database (PCCDB) project, http://pccdb.org

 16 15  0  0  0  0  0  0  0  0999 V2000
    0.9536    0.0238   -0.0542 C   0  0  0  0  0  0  0  0  0  0  0  0
    3.0091    0.4307   -1.4872 C   0  0  0  0  0  0  0  0  0  0  0  0
    2.9850    1.1555    0.9385 C   0  0  0  0  0  0  0  0  0  0  0  0
    2.4817    0.1203   -0.0824 C   0  0  0  0  0  0  0  0  0  0  0  0
    4.3976    1.1590    1.0290 O   0  0  0  0  0  0  0  0  0  0  0  0
    3.0603   -1.1141    0.3977 O   0  0  0  0  0  0  0  0  0  0  0  0
    0.4892    0.9741   -0.3434 H   0  0  0  0  0  0  0  0  0  0  0  0
    0.6054   -0.2449    0.9484 H   0  0  0  0  0  0  0  0  0  0  0  0
    0.6010   -0.7446   -0.7535 H   0  0  0  0  0  0  0  0  0  0  0  0
    2.5683    1.3546   -1.8784 H   0  0  0  0  0  0  0  0  0  0  0  0
    2.7552   -0.3775   -2.1863 H   0  0  0  0  0  0  0  0  0  0  0  0
    4.0954    0.5507   -1.4619 H   0  0  0  0  0  0  0  0  0  0  0  0
    2.5240    0.9353    1.9154 H   0  0  0  0  0  0  0  0  0  0  0  0
    2.6783    2.1627    0.6381 H   0  0  0  0  0  0  0  0  0  0  0  0
    4.6396    0.2223    1.1333 H   0  0  0  0  0  0  0  0  0  0  0  0
    2.9714   -1.7794   -0.3023 H   0  0  0  0  0  0  0  0  0  0  0  0
  1  8  1  0  0  0  0
  2 12  1  0  0  0  0
  2  4  1  0  0  0  0
  3  5  1  0  0  0  0
  3 13  1  0  0  0  0
  4  1  1  0  0  0  0
  4  6  1  0  0  0  0
  4  3  1  0  0  0  0
  5 15  1  0  0  0  0
  7  1  1  0  0  0  0
  9  1  1  0  0  0  0
 10  2  1  0  0  0  0
 11  2  1  0  0  0  0
 14  3  1  0  0  0  0
 16  6  1  0  0  0  0
M  END
>  <HBA>
2

>  <HBD>
2

>  <TPSA>
40.46

>  <cid>
68410

>  <dipole>
2.55

>  <excitation_energy_1>
6.426

>  <excitation_energy_2>
6.718

>  <excitation_energy_3>
7.126

>  <excitation_energy_4>
7.37

>  <homo_energy>
-6.985

>  <homo_lumo_gap>
8.555

>  <logP>
-0.25

>  <lumo_energy>
1.57

>  <melting_point>
23.02

>  <molecular_refractivity>
23.7

>  <oscillator_strength_1>
0.0022

>  <oscillator_strength_2>
0.0226

>  <oscillator_strength_3>
0.0153

>  <oscillator_strength_4>
0.0131

>  <open_babel_can_smiles>
OCC(O)(C)C

>  <mulliken_charges>
16
1   -0.452659
2   -0.46159
3   -0.012382
4   0.269439
5   -0.627526
6   -0.653495
7   0.144029
8   0.156732
9   0.135947
10   0.146616
11   0.127176
12   0.170584
13   0.124438
14   0.137862
15   0.402949
16   0.391879

>  <lowdin_charges>
16
1   -0.456346
2   -0.458813
3   -0.139389
4   0.105431
5   -0.46522
6   -0.473503
7   0.153522
8   0.157153
9   0.14959
10   0.155924
11   0.143217
12   0.162534
13   0.13174
14   0.14617
15   0.343141
16   0.344847

$$$$

