PCCDB-ID:  71568
public computational chemistry database (PCCDB) project, http://pccdb.org

  6  5  0  0  0  0  0  0  0  0999 V2000
    1.0958   -0.0598   -0.0042 C   0  0  0  0  0  0  0  0  0  0  0  0
    2.5137   -0.0200   -0.0261 O   0  0  0  0  0  0  0  0  0  0  0  0
    0.6864   -0.0656    1.0181 H   0  0  0  0  0  0  0  0  0  0  0  0
    0.6864   -0.9260   -0.5472 H   0  0  0  0  0  0  0  0  0  0  0  0
    0.7484    0.8487   -0.5036 H   0  0  0  0  0  0  0  0  0  0  0  0
    2.8370   -0.8202    0.4138 H   0  0  0  0  0  0  0  0  0  0  0  0
  1  3  1  0  0  0  0
  2  1  1  0  0  0  0
  2  6  1  0  0  0  0
  4  1  1  0  0  0  0
  5  1  1  0  0  0  0
M  END
>  <HBA>
1

>  <HBD>
1

>  <TPSA>
20.23

>  <cid>
71568

>  <dipole>
1.69

>  <excitation_energy_1>
6.432

>  <excitation_energy_2>
7.341

>  <excitation_energy_3>
8.093

>  <excitation_energy_4>
8.182

>  <homo_energy>
-7.197

>  <homo_lumo_gap>
9.247

>  <logP>
-0.392

>  <lumo_energy>
2.049

>  <melting_point>
-4.62

>  <molecular_refractivity>
8.08

>  <oscillator_strength_1>
0.0006

>  <oscillator_strength_2>
0.0295

>  <oscillator_strength_3>
0.0062

>  <oscillator_strength_4>
0.0247

>  <open_babel_can_smiles>
CO

>  <mulliken_charges>
6
1   -0.205073
2   -0.605209
3   0.129231
4   0.129221
5   0.161382
6   0.390448

>  <lowdin_charges>
6
1   -0.283275
2   -0.474013
3   0.129108
4   0.130636
5   0.154742
6   0.342802

$$$$

