PCCDB-ID:  62484
public computational chemistry database (PCCDB) project, http://pccdb.org

 17 16  0  0  1  0  0  0  0  0999 V2000
    2.2491   -0.8984   -0.4308 C   0  0  0  0  0  0  0  0  0  0  0  0
    1.5779    3.2112    1.4891 C   0  0  0  0  0  0  0  0  0  0  0  0
    2.1488    0.2476    0.5790 C   0  0  0  0  0  0  0  0  0  0  0  0
    2.9255    2.5919    1.1955 C   0  0  0  0  0  0  0  0  0  0  0  0
    3.0198    1.4546    0.1726 C   0  0  1  0  0  0  0  0  0  0  0  0
    3.9448    2.9637    1.7554 O   0  0  0  0  0  0  0  0  0  0  0  0
    4.3646    1.0718    0.0177 O   0  0  0  0  0  0  0  0  0  0  0  0
    1.6535   -1.7584   -0.1053 H   0  0  0  0  0  0  0  0  0  0  0  0
    3.2887   -1.2185   -0.5410 H   0  0  0  0  0  0  0  0  0  0  0  0
    1.8836   -0.5886   -1.4177 H   0  0  0  0  0  0  0  0  0  0  0  0
    1.0123    2.5568    2.1647 H   0  0  0  0  0  0  0  0  0  0  0  0
    0.9812    3.3309    0.5785 H   0  0  0  0  0  0  0  0  0  0  0  0
    1.7178    4.1772    1.9788 H   0  0  0  0  0  0  0  0  0  0  0  0
    2.4795   -0.0967    1.5679 H   0  0  0  0  0  0  0  0  0  0  0  0
    1.1037    0.5693    0.6786 H   0  0  0  0  0  0  0  0  0  0  0  0
    2.6354    1.8489   -0.7862 H   0  0  0  0  0  0  0  0  0  0  0  0
    4.8599    1.6277    0.6530 H   0  0  0  0  0  0  0  0  0  0  0  0
  1  8  1  0  0  0  0
  1  3  1  0  0  0  0
  2 13  1  0  0  0  0
  2 11  1  0  0  0  0
  3 15  1  0  0  0  0
  3 14  1  0  0  0  0
  4  2  1  0  0  0  0
  4  6  2  0  0  0  0
  5 16  1  6  0  0  0
  5  3  1  0  0  0  0
  5  4  1  0  0  0  0
  7  5  1  0  0  0  0
  7 17  1  0  0  0  0
  9  1  1  0  0  0  0
 10  1  1  0  0  0  0
 12  2  1  0  0  0  0
M  END
>  <HBA>
2

>  <HBD>
1

>  <TPSA>
37.3

>  <cid>
62484

>  <dipole>
2.95

>  <excitation_energy_1>
4.614

>  <excitation_energy_2>
5.455

>  <excitation_energy_3>
6.675

>  <excitation_energy_4>
6.792

>  <homo_energy>
-7.195

>  <homo_lumo_gap>
6.392

>  <logP>
0.346

>  <lumo_energy>
-0.803

>  <melting_point>
14.11

>  <molecular_refractivity>
27.51

>  <oscillator_strength_1>
0.0003

>  <oscillator_strength_2>
0.0267

>  <oscillator_strength_3>
0.0264

>  <oscillator_strength_4>
0.0185

>  <open_babel_can_smiles>
CC[C@@H](C(=O)C)O

>  <mulliken_charges>
17
1   -0.443306
2   -0.534693
3   -0.267242
4   0.427342
5   0.09001
6   -0.454857
7   -0.643151
8   0.143142
9   0.178281
10   0.140751
11   0.187989
12   0.171218
13   0.187827
14   0.144924
15   0.129443
16   0.133438
17   0.408885

>  <lowdin_charges>
17
1   -0.442777
2   -0.472972
3   -0.27974
4   0.159411
5   -0.034121
6   -0.239769
7   -0.464234
8   0.15151
9   0.164355
10   0.146691
11   0.182594
12   0.169817
13   0.178726
14   0.147839
15   0.14091
16   0.142537
17   0.349223

$$$$

