PCCDB-ID:  19919
public computational chemistry database (PCCDB) project, http://pccdb.org

 17 17  0  0  1  0  0  0  0  0999 V2000
    0.8492    0.0898    0.7435 C   0  0  0  0  0  0  0  0  0  0  0  0
    2.3365    0.3822    0.6346 C   0  0  0  0  0  0  0  0  0  0  0  0
    4.2915    0.5824    1.9490 C   0  0  0  0  0  0  0  0  0  0  0  0
    4.9695    1.5781    4.2528 C   0  0  0  0  0  0  0  0  0  0  0  0
    4.7825    0.4225    3.3676 C   0  0  2  0  0  0  0  0  0  0  0  0
    2.8998    0.3350    1.9361 O   0  0  0  0  0  0  0  0  0  0  0  0
    6.0920    0.9419    3.6240 O   0  0  0  0  0  0  0  0  0  0  0  0
    0.3796    0.1233   -0.2457 H   0  0  0  0  0  0  0  0  0  0  0  0
    0.3592    0.8282    1.3863 H   0  0  0  0  0  0  0  0  0  0  0  0
    0.6835   -0.9031    1.1739 H   0  0  0  0  0  0  0  0  0  0  0  0
    2.5050    1.3758    0.1850 H   0  0  0  0  0  0  0  0  0  0  0  0
    2.8322   -0.3564   -0.0185 H   0  0  0  0  0  0  0  0  0  0  0  0
    4.8212   -0.1289    1.2914 H   0  0  0  0  0  0  0  0  0  0  0  0
    4.5267    1.5977    1.5885 H   0  0  0  0  0  0  0  0  0  0  0  0
    4.9066    1.4498    5.3334 H   0  0  0  0  0  0  0  0  0  0  0  0
    4.7330    2.5778    3.8870 H   0  0  0  0  0  0  0  0  0  0  0  0
    4.5760   -0.5497    3.8187 H   0  0  0  0  0  0  0  0  0  0  0  0
  1 10  1  0  0  0  0
  1  9  1  0  0  0  0
  2  1  1  0  0  0  0
  2  6  1  0  0  0  0
  3  5  1  0  0  0  0
  4 15  1  0  0  0  0
  5  7  1  0  0  0  0
  5 17  1  1  0  0  0
  5  4  1  0  0  0  0
  6  3  1  0  0  0  0
  7  4  1  0  0  0  0
  8  1  1  0  0  0  0
 11  2  1  0  0  0  0
 12  2  1  0  0  0  0
 13  3  1  0  0  0  0
 14  3  1  0  0  0  0
 16  4  1  0  0  0  0
M  END
>  <HBA>
2

>  <HBD>
0

>  <TPSA>
21.76

>  <cid>
19919

>  <dipole>
1.73

>  <excitation_energy_1>
6.671

>  <excitation_energy_2>
7.075

>  <excitation_energy_3>
7.119

>  <excitation_energy_4>
7.213

>  <homo_energy>
-7.034

>  <homo_lumo_gap>
9.238

>  <logP>
0.422

>  <lumo_energy>
2.204

>  <melting_point>
-21.22

>  <molecular_refractivity>
26.2

>  <oscillator_strength_1>
0.019

>  <oscillator_strength_2>
0.0201

>  <oscillator_strength_3>
0.0168

>  <oscillator_strength_4>
0.0207

>  <open_babel_can_smiles>
CCOC[C@@H]1CO1

>  <mulliken_charges>
17
1   -0.454031
2   -0.00284
3   -0.027849
4   -0.103101
5   0.09203
6   -0.475085
7   -0.447785
8   0.14463
9   0.159153
10   0.159116
11   0.120974
12   0.121529
13   0.130048
14   0.127146
15   0.152871
16   0.151081
17   0.152114

>  <lowdin_charges>
17
1   -0.448755
2   -0.124873
3   -0.132826
4   -0.15989
5   -0.02372
6   -0.275694
7   -0.28522
8   0.154596
9   0.158735
10   0.156923
11   0.125669
12   0.127796
13   0.13534
14   0.132897
15   0.153433
16   0.152337
17   0.153251

$$$$

