PCCDB-ID:  66751
public computational chemistry database (PCCDB) project, http://pccdb.org

 39 39  0  0  0  0  0  0  0  0999 V2000
   -0.4001   -0.6088    2.6184 C   0  0  0  0  0  0  0  0  0  0  0  0
    0.2560   -1.3411    3.7958 C   0  0  0  0  0  0  0  0  0  0  0  0
    1.2272   -2.4619    3.3891 C   0  0  0  0  0  0  0  0  0  0  0  0
    2.5050   -1.9842    2.6849 C   0  0  0  0  0  0  0  0  0  0  0  0
    3.4587   -3.1317    2.3278 C   0  0  0  0  0  0  0  0  0  0  0  0
    4.7504   -2.6652    1.6432 C   0  0  0  0  0  0  0  0  0  0  0  0
   10.1556   -8.3817   -1.7580 C   0  0  0  0  0  0  0  0  0  0  0  0
    9.2518   -7.9198   -2.7185 C   0  0  0  0  0  0  0  0  0  0  0  0
   10.2464   -7.7437   -0.5185 C   0  0  0  0  0  0  0  0  0  0  0  0
    5.6736   -3.8258    1.2488 C   0  0  0  0  0  0  0  0  0  0  0  0
    8.4387   -6.8248   -2.4384 C   0  0  0  0  0  0  0  0  0  0  0  0
    9.4375   -6.6440   -0.2359 C   0  0  0  0  0  0  0  0  0  0  0  0
    6.9624   -3.3389    0.5943 C   0  0  0  0  0  0  0  0  0  0  0  0
    8.5277   -6.1811   -1.1970 C   0  0  0  0  0  0  0  0  0  0  0  0
    7.6273   -5.0168   -0.9564 C   0  0  0  0  0  0  0  0  0  0  0  0
    6.8039   -4.6163   -1.7578 O   0  0  0  0  0  0  0  0  0  0  0  0
    7.8294   -4.4464    0.2548 O   0  0  0  0  0  0  0  0  0  0  0  0
   -1.1134    0.1441    2.9724 H   0  0  0  0  0  0  0  0  0  0  0  0
   -0.9480   -1.3101    1.9764 H   0  0  0  0  0  0  0  0  0  0  0  0
    0.3374   -0.0941    1.9927 H   0  0  0  0  0  0  0  0  0  0  0  0
   -0.5318   -1.7755    4.4260 H   0  0  0  0  0  0  0  0  0  0  0  0
    0.7856   -0.6148    4.4289 H   0  0  0  0  0  0  0  0  0  0  0  0
    0.7010   -3.1780    2.7401 H   0  0  0  0  0  0  0  0  0  0  0  0
    1.5130   -3.0249    4.2892 H   0  0  0  0  0  0  0  0  0  0  0  0
    3.0268   -1.2640    3.3330 H   0  0  0  0  0  0  0  0  0  0  0  0
    2.2462   -1.4371    1.7679 H   0  0  0  0  0  0  0  0  0  0  0  0
    2.9391   -3.8457    1.6722 H   0  0  0  0  0  0  0  0  0  0  0  0
    3.7143   -3.6905    3.2402 H   0  0  0  0  0  0  0  0  0  0  0  0
    5.2859   -1.9746    2.3116 H   0  0  0  0  0  0  0  0  0  0  0  0
    4.4940   -2.0850    0.7450 H   0  0  0  0  0  0  0  0  0  0  0  0
   10.7880   -9.2386   -1.9756 H   0  0  0  0  0  0  0  0  0  0  0  0
    9.1807   -8.4151   -3.6830 H   0  0  0  0  0  0  0  0  0  0  0  0
   10.9485   -8.1035    0.2288 H   0  0  0  0  0  0  0  0  0  0  0  0
    5.1549   -4.4885    0.5453 H   0  0  0  0  0  0  0  0  0  0  0  0
    5.9248   -4.4274    2.1323 H   0  0  0  0  0  0  0  0  0  0  0  0
    7.7272   -6.4504   -3.1669 H   0  0  0  0  0  0  0  0  0  0  0  0
    9.5015   -6.1441    0.7240 H   0  0  0  0  0  0  0  0  0  0  0  0
    7.5540   -2.7259    1.2799 H   0  0  0  0  0  0  0  0  0  0  0  0
    6.7492   -2.7701   -0.3139 H   0  0  0  0  0  0  0  0  0  0  0  0
  1 18  1  0  0  0  0
  1  2  1  0  0  0  0
  2 21  1  0  0  0  0
  2 22  1  0  0  0  0
  3  2  1  0  0  0  0
  3 24  1  0  0  0  0
  4 25  1  0  0  0  0
  4  3  1  0  0  0  0
  5  4  1  0  0  0  0
  5 28  1  0  0  0  0
  6 29  1  0  0  0  0
  6  5  1  0  0  0  0
  7  9  2  0  0  0  0
  8 11  2  0  0  0  0
  8  7  1  0  0  0  0
  9 12  1  0  0  0  0
  9 33  1  0  0  0  0
 10  6  1  0  0  0  0
 10 35  1  0  0  0  0
 11 14  1  0  0  0  0
 12 37  1  0  0  0  0
 13 10  1  0  0  0  0
 13 38  1  0  0  0  0
 14 15  1  0  0  0  0
 14 12  2  0  0  0  0
 15 17  1  0  0  0  0
 16 15  2  0  0  0  0
 17 13  1  0  0  0  0
 19  1  1  0  0  0  0
 20  1  1  0  0  0  0
 23  3  1  0  0  0  0
 26  4  1  0  0  0  0
 27  5  1  0  0  0  0
 30  6  1  0  0  0  0
 31  7  1  0  0  0  0
 32  8  1  0  0  0  0
 34 10  1  0  0  0  0
 36 11  1  0  0  0  0
 39 13  1  0  0  0  0
M  END
>  <HBA>
2

>  <HBD>
0

>  <TPSA>
26.3

>  <cid>
66751

>  <dipole>
1.76

>  <excitation_energy_1>
4.86

>  <excitation_energy_2>
4.922

>  <excitation_energy_3>
5.387

>  <excitation_energy_4>
6.025

>  <homo_energy>
-6.961

>  <homo_lumo_gap>
5.815

>  <logP>
4.204

>  <lumo_energy>
-1.146

>  <melting_point>
24.61

>  <molecular_refractivity>
71.37

>  <oscillator_strength_1>
0.0009

>  <oscillator_strength_2>
0.0172

>  <oscillator_strength_3>
0.3088

>  <oscillator_strength_4>
0.0198

>  <open_babel_can_smiles>
CCCCCCCCOC(=O)c1ccccc1

>  <mulliken_charges>
39
1   -0.443481
2   -0.248485
3   -0.249702
4   -0.254419
5   -0.252561
6   -0.265227
7   -0.117296
8   -0.138429
9   -0.13699
10   -0.277568
11   -0.151913
12   -0.158448
13   -0.044171
14   0.048134
15   0.595205
16   -0.494941
17   -0.485168
18   0.142033
19   0.141179
20   0.146074
21   0.130578
22   0.128963
23   0.127088
24   0.126722
25   0.125843
26   0.133576
27   0.133022
28   0.128455
29   0.12866
30   0.137997
31   0.136222
32   0.1372
33   0.135597
34   0.159113
35   0.140658
36   0.163096
37   0.155397
38   0.147653
39   0.170331

>  <lowdin_charges>
39
1   -0.450946
2   -0.27557
3   -0.277523
4   -0.278315
5   -0.274048
6   -0.276038
7   -0.140491
8   -0.156472
9   -0.158858
10   -0.287835
11   -0.131716
12   -0.139158
13   -0.134221
14   -0.045837
15   0.199334
16   -0.276225
17   -0.193022
18   0.15068
19   0.147444
20   0.14836
21   0.142893
22   0.139728
23   0.138969
24   0.140041
25   0.138288
26   0.140291
27   0.141959
28   0.138418
29   0.139475
30   0.143083
31   0.161073
32   0.161019
33   0.161575
34   0.156528
35   0.145963
36   0.177903
37   0.171535
38   0.15184
39   0.159875

$$$$

