PCCDB-ID:  29375
public computational chemistry database (PCCDB) project, http://pccdb.org

 24 24  0  0  0  0  0  0  0  0999 V2000
    0.9801   -0.0521   -0.1608 C   0  0  0  0  0  0  0  0  0  0  0  0
    2.9822    2.5362   -0.2248 C   0  0  0  0  0  0  0  0  0  0  0  0
    6.0129   -1.4033   -0.0883 C   0  0  0  0  0  0  0  0  0  0  0  0
    3.8818   -3.7356   -0.0338 C   0  0  0  0  0  0  0  0  0  0  0  0
    2.4807   -0.0422   -0.1503 C   0  0  0  0  0  0  0  0  0  0  0  0
    3.2882    1.0727   -0.1805 C   0  0  0  0  0  0  0  0  0  0  0  0
    4.6709   -0.7346   -0.1179 C   0  0  0  0  0  0  0  0  0  0  0  0
    2.8749   -2.5898   -0.0726 C   0  0  0  0  0  0  0  0  0  0  0  0
    3.3510   -1.2006   -0.1111 C   0  0  0  0  0  0  0  0  0  0  0  0
    4.6022    0.6280   -0.1604 N   0  0  0  0  0  0  0  0  0  0  0  0
    1.6752   -2.8547   -0.0717 O   0  0  0  0  0  0  0  0  0  0  0  0
    0.5798    0.9675   -0.1842 H   0  0  0  0  0  0  0  0  0  0  0  0
    0.5770   -0.5611    0.7203 H   0  0  0  0  0  0  0  0  0  0  0  0
    0.5893   -0.5951   -1.0273 H   0  0  0  0  0  0  0  0  0  0  0  0
    3.3551    3.0109   -1.1431 H   0  0  0  0  0  0  0  0  0  0  0  0
    3.4232    3.0754    0.6251 H   0  0  0  0  0  0  0  0  0  0  0  0
    1.9028    2.7010   -0.1890 H   0  0  0  0  0  0  0  0  0  0  0  0
    6.1645   -1.9922    0.8236 H   0  0  0  0  0  0  0  0  0  0  0  0
    6.8120   -0.6544   -0.1283 H   0  0  0  0  0  0  0  0  0  0  0  0
    6.1591   -2.0803   -0.9372 H   0  0  0  0  0  0  0  0  0  0  0  0
    4.5342   -3.6701    0.8448 H   0  0  0  0  0  0  0  0  0  0  0  0
    4.5256   -3.7340   -0.9212 H   0  0  0  0  0  0  0  0  0  0  0  0
    3.3261   -4.6747    0.0021 H   0  0  0  0  0  0  0  0  0  0  0  0
    5.4103    1.2338   -0.1697 H   0  0  0  0  0  0  0  0  0  0  0  0
  1  5  1  0  0  0  0
  1 13  1  0  0  0  0
  2 17  1  0  0  0  0
  2  6  1  0  0  0  0
  2 16  1  0  0  0  0
  3 18  1  0  0  0  0
  4 23  1  0  0  0  0
  4 21  1  0  0  0  0
  5  9  1  0  0  0  0
  6 10  1  0  0  0  0
  6  5  2  0  0  0  0
  7  9  2  0  0  0  0
  7  3  1  0  0  0  0
  8 11  2  0  0  0  0
  8  4  1  0  0  0  0
  9  8  1  0  0  0  0
 10  7  1  0  0  0  0
 12  1  1  0  0  0  0
 14  1  1  0  0  0  0
 15  2  1  0  0  0  0
 19  3  1  0  0  0  0
 20  3  1  0  0  0  0
 22  4  1  0  0  0  0
 24 10  1  0  0  0  0
M  END
>  <HBA>
1

>  <HBD>
1

>  <TPSA>
32.86

>  <cid>
29375

>  <dipole>
5.3

>  <excitation_energy_1>
4.097

>  <excitation_energy_2>
4.43

>  <excitation_energy_3>
4.588

>  <excitation_energy_4>
5.252

>  <homo_energy>
-5.44

>  <homo_lumo_gap>
5.094

>  <logP>
2.143

>  <lumo_energy>
-0.346

>  <melting_point>
100.0

>  <molecular_refractivity>
45.89

>  <oscillator_strength_1>
0.0002

>  <oscillator_strength_2>
0.0579

>  <oscillator_strength_3>
0.0002

>  <oscillator_strength_4>
0.0024

>  <open_babel_can_smiles>
CC(=O)c1c(C)[nH]c(c1C)C

>  <mulliken_charges>
24
1   -0.504558
2   -0.53776
3   -0.530398
4   -0.539553
5   0.060057
6   0.283343
7   0.298572
8   0.39471
9   -0.037351
10   -0.663504
11   -0.486448
12   0.127117
13   0.169131
14   0.16847
15   0.157348
16   0.155444
17   0.176667
18   0.175786
19   0.147066
20   0.176015
21   0.157639
22   0.158126
23   0.173903
24   0.32018

>  <lowdin_charges>
24
1   -0.436325
2   -0.445802
3   -0.44442
4   -0.473214
5   -0.031559
6   -0.011985
7   0.025185
8   0.154023
9   -0.113667
10   -0.179549
11   -0.271587
12   0.141512
13   0.166971
14   0.166714
15   0.156553
16   0.156514
17   0.169257
18   0.16692
19   0.156448
20   0.167576
21   0.161971
22   0.162178
23   0.170484
24   0.285801

$$$$

