PCCDB-ID:  68125
public computational chemistry database (PCCDB) project, http://pccdb.org

 19 20  0  0  0  0  0  0  0  0999 V2000
   -0.7503    1.2179    0.0050 C   0  0  0  0  0  0  0  0  0  0  0  0
   -1.7322   -4.7347   -0.0826 C   0  0  0  0  0  0  0  0  0  0  0  0
   -1.3888   -0.0157   -0.0829 C   0  0  0  0  0  0  0  0  0  0  0  0
   -0.7523   -3.7617    0.2444 C   0  0  0  0  0  0  0  0  0  0  0  0
    0.6405    1.2472    0.1060 C   0  0  0  0  0  0  0  0  0  0  0  0
   -2.7737   -4.0769   -0.7040 C   0  0  0  0  0  0  0  0  0  0  0  0
    0.7740   -1.0338    0.0094 C   0  0  0  0  0  0  0  0  0  0  0  0
   -0.6235   -1.1935   -0.0854 C   0  0  0  0  0  0  0  0  0  0  0  0
   -1.2167   -2.5236   -0.1803 C   0  0  0  0  0  0  0  0  0  0  0  0
    1.3965    0.1404    0.1115 N   0  0  0  0  0  0  0  0  0  0  0  0
   -2.4610   -2.7412   -0.7452 N   0  0  0  0  0  0  0  0  0  0  0  0
   -1.3220    2.1415    0.0111 H   0  0  0  0  0  0  0  0  0  0  0  0
   -1.6846   -5.7954    0.1226 H   0  0  0  0  0  0  0  0  0  0  0  0
   -2.4746   -0.0639   -0.1206 H   0  0  0  0  0  0  0  0  0  0  0  0
    0.1758   -3.9343    0.7720 H   0  0  0  0  0  0  0  0  0  0  0  0
    1.1719    2.1936    0.1865 H   0  0  0  0  0  0  0  0  0  0  0  0
   -3.7006   -4.4450   -1.1195 H   0  0  0  0  0  0  0  0  0  0  0  0
    1.4143   -1.9141   -0.0122 H   0  0  0  0  0  0  0  0  0  0  0  0
   -2.9945   -2.0403   -1.2363 H   0  0  0  0  0  0  0  0  0  0  0  0
  1 12  1  0  0  0  0
  1  5  2  0  0  0  0
  2 13  1  0  0  0  0
  2  4  1  0  0  0  0
  3  1  1  0  0  0  0
  4 15  1  0  0  0  0
  5 10  1  0  0  0  0
  5 16  1  0  0  0  0
  6  2  2  0  0  0  0
  7 10  2  0  0  0  0
  8  3  2  0  0  0  0
  8  7  1  0  0  0  0
  9  8  1  0  0  0  0
  9  4  2  0  0  0  0
 11  6  1  0  0  0  0
 11  9  1  0  0  0  0
 14  3  1  0  0  0  0
 17  6  1  0  0  0  0
 18  7  1  0  0  0  0
 19 11  1  0  0  0  0
M  END
>  <HBA>
1

>  <HBD>
1

>  <TPSA>
28.68

>  <cid>
68125

>  <dipole>
3.48

>  <excitation_energy_1>
4.065

>  <excitation_energy_2>
4.349

>  <excitation_energy_3>
4.662

>  <excitation_energy_4>
4.765

>  <homo_energy>
-5.442

>  <homo_lumo_gap>
4.648

>  <logP>
2.077

>  <lumo_energy>
-0.795

>  <melting_point>
103.37

>  <molecular_refractivity>
44.02

>  <oscillator_strength_1>
0.1236

>  <oscillator_strength_2>
0.3477

>  <oscillator_strength_3>
0.0031

>  <oscillator_strength_4>
0.0102

>  <open_babel_can_smiles>
c1ccc(cn1)c1ccc[nH]1

>  <mulliken_charges>
19
1   -0.141685
2   -0.185139
3   -0.158606
4   -0.197829
5   0.035606
6   0.046024
7   -0.002396
8   0.114803
9   0.240192
10   -0.412288
11   -0.627211
12   0.136231
13   0.129672
14   0.128176
15   0.132972
16   0.140318
17   0.146462
18   0.145497
19   0.329203

>  <lowdin_charges>
19
1   -0.172376
2   -0.204954
3   -0.148117
4   -0.208771
5   -0.097908
6   -0.144588
7   -0.093659
8   -0.019749
9   -0.000211
10   -0.143786
11   -0.179309
12   0.163999
13   0.161066
14   0.152666
15   0.163514
16   0.156611
17   0.164943
18   0.159783
19   0.290847

$$$$

