PCCDB-ID:  6846
public computational chemistry database (PCCDB) project, http://pccdb.org

 19 20  0  0  0  0  0  0  0  0999 V2000
    2.4289    0.7495   -0.0225 C   0  0  0  0  0  0  0  0  0  0  0  0
    2.4543   -0.6645    0.0427 C   0  0  0  0  0  0  0  0  0  0  0  0
   -2.4394    0.6739   -0.0179 C   0  0  0  0  0  0  0  0  0  0  0  0
    1.2267    1.4182   -0.0517 C   0  0  0  0  0  0  0  0  0  0  0  0
   -1.2550    1.3763   -0.0496 C   0  0  0  0  0  0  0  0  0  0  0  0
   -2.4267   -0.7348    0.0483 C   0  0  0  0  0  0  0  0  0  0  0  0
    1.2816   -1.3860    0.0775 C   0  0  0  0  0  0  0  0  0  0  0  0
   -1.2370   -2.8558    0.1500 C   0  0  0  0  0  0  0  0  0  0  0  0
   -0.0028    0.7069   -0.0182 C   0  0  0  0  0  0  0  0  0  0  0  0
   -1.2240   -1.4245    0.0812 C   0  0  0  0  0  0  0  0  0  0  0  0
    0.0274   -0.7235    0.0483 C   0  0  0  0  0  0  0  0  0  0  0  0
   -1.2401   -4.0183    0.2061 N   0  0  0  0  0  0  0  0  0  0  0  0
    3.3626    1.3040   -0.0491 H   0  0  0  0  0  0  0  0  0  0  0  0
    3.4081   -1.1839    0.0651 H   0  0  0  0  0  0  0  0  0  0  0  0
   -3.3899    1.1981   -0.0435 H   0  0  0  0  0  0  0  0  0  0  0  0
    1.1990    2.5039   -0.1013 H   0  0  0  0  0  0  0  0  0  0  0  0
   -1.2633    2.4624   -0.0998 H   0  0  0  0  0  0  0  0  0  0  0  0
   -3.3599   -1.2881    0.0740 H   0  0  0  0  0  0  0  0  0  0  0  0
    1.3039   -2.4706    0.1279 H   0  0  0  0  0  0  0  0  0  0  0  0
  1  2  1  0  0  0  0
  2 14  1  0  0  0  0
  2  7  2  0  0  0  0
  3  6  2  0  0  0  0
  4  1  2  0  0  0  0
  4  9  1  0  0  0  0
  5  9  2  0  0  0  0
  5  3  1  0  0  0  0
  6 18  1  0  0  0  0
  6 10  1  0  0  0  0
  7 19  1  0  0  0  0
  8 12  3  0  0  0  0
  9 11  1  0  0  0  0
 10  8  1  0  0  0  0
 11  7  1  0  0  0  0
 11 10  2  0  0  0  0
 13  1  1  0  0  0  0
 15  3  1  0  0  0  0
 16  4  1  0  0  0  0
 17  5  1  0  0  0  0
M  END
>  <HBA>
1

>  <HBD>
0

>  <TPSA>
23.79

>  <cid>
6846

>  <dipole>
4.56

>  <excitation_energy_1>
4.026

>  <excitation_energy_2>
4.332

>  <excitation_energy_3>
5.216

>  <excitation_energy_4>
5.554

>  <homo_energy>
-6.338

>  <homo_lumo_gap>
4.452

>  <logP>
2.711

>  <lumo_energy>
-1.886

>  <melting_point>
86.39

>  <molecular_refractivity>
48.66

>  <oscillator_strength_1>
0.1157

>  <oscillator_strength_2>
0.0077

>  <oscillator_strength_3>
0.0214

>  <oscillator_strength_4>
0.6658

>  <open_babel_can_smiles>
N#Cc1cccc2c1cccc2

>  <mulliken_charges>
19
1   -0.127781
2   -0.133552
3   -0.140973
4   -0.193149
5   -0.173303
6   -0.148451
7   -0.192777
8   0.23187
9   0.12492
10   0.09067
11   0.120773
12   -0.490185
13   0.139334
14   0.142689
15   0.145639
16   0.138165
17   0.142725
18   0.160421
19   0.162967

>  <lowdin_charges>
19
1   -0.151623
2   -0.145663
3   -0.157892
4   -0.149656
5   -0.133057
6   -0.129518
7   -0.151572
8   -0.013439
9   0.001259
10   -0.02299
11   0.010652
12   -0.12311
13   0.163659
14   0.164956
15   0.167098
16   0.159577
17   0.162328
18   0.175369
19   0.173618

$$$$

