PCCDB-ID:  17820
public computational chemistry database (PCCDB) project, http://pccdb.org

 18 18  0  0  0  0  0  0  0  0999 V2000
    0.8520   -0.0185    0.1498 C   0  0  0  0  0  0  0  0  0  0  0  0
    3.0779   -1.2066   -0.0886 C   0  0  0  0  0  0  0  0  0  0  0  0
    4.4684   -1.2299   -0.2092 C   0  0  0  0  0  0  0  0  0  0  0  0
    4.4667    1.1912   -0.1626 C   0  0  0  0  0  0  0  0  0  0  0  0
    2.3533   -0.0184   -0.0005 C   0  0  0  0  0  0  0  0  0  0  0  0
    5.1597   -0.0167   -0.2417 C   0  0  0  0  0  0  0  0  0  0  0  0
    3.0720    1.2010   -0.0399 C   0  0  0  0  0  0  0  0  0  0  0  0
    2.3924    2.4167    0.1030 N   0  0  0  0  0  0  0  0  0  0  0  0
    6.5239    0.0544   -0.3587 O   0  0  0  0  0  0  0  0  0  0  0  0
    0.4660   -1.0404    0.2133 H   0  0  0  0  0  0  0  0  0  0  0  0
    0.3445    0.4624   -0.7010 H   0  0  0  0  0  0  0  0  0  0  0  0
    0.5338    0.5170    1.0544 H   0  0  0  0  0  0  0  0  0  0  0  0
    2.5366   -2.1499   -0.0600 H   0  0  0  0  0  0  0  0  0  0  0  0
    5.0033   -2.1751   -0.2743 H   0  0  0  0  0  0  0  0  0  0  0  0
    5.0287    2.1207   -0.1913 H   0  0  0  0  0  0  0  0  0  0  0  0
    2.9105    3.2253   -0.2185 H   0  0  0  0  0  0  0  0  0  0  0  0
    1.4456    2.4231   -0.2552 H   0  0  0  0  0  0  0  0  0  0  0  0
    6.8763   -0.8479   -0.3997 H   0  0  0  0  0  0  0  0  0  0  0  0
  1 10  1  0  0  0  0
  1 12  1  0  0  0  0
  2 13  1  0  0  0  0
  2  5  2  0  0  0  0
  3  2  1  0  0  0  0
  4  7  2  0  0  0  0
  5  1  1  0  0  0  0
  6  3  2  0  0  0  0
  6  4  1  0  0  0  0
  7  5  1  0  0  0  0
  7  8  1  0  0  0  0
  9  6  1  0  0  0  0
 11  1  1  0  0  0  0
 14  3  1  0  0  0  0
 15  4  1  0  0  0  0
 16  8  1  0  0  0  0
 17  8  1  0  0  0  0
 18  9  1  0  0  0  0
M  END
>  <HBA>
2

>  <HBD>
2

>  <TPSA>
46.25

>  <cid>
17820

>  <dipole>
1.33

>  <excitation_energy_1>
4.665

>  <excitation_energy_2>
4.772

>  <excitation_energy_3>
4.853

>  <excitation_energy_4>
5.309

>  <homo_energy>
-5.241

>  <homo_lumo_gap>
5.723

>  <logP>
1.864

>  <lumo_energy>
0.482

>  <melting_point>
98.28

>  <molecular_refractivity>
37.84

>  <oscillator_strength_1>
0.018

>  <oscillator_strength_2>
0.0377

>  <oscillator_strength_3>
0.0012

>  <oscillator_strength_4>
0.0009

>  <open_babel_can_smiles>
Oc1ccc(c(c1)N)C

>  <mulliken_charges>
18
1   -0.552178
2   -0.205543
3   -0.202068
4   -0.214899
5   0.164307
6   0.347345
7   0.246128
8   -0.793206
9   -0.650168
10   0.156846
11   0.143465
12   0.165553
13   0.117994
14   0.107533
15   0.122639
16   0.319578
17   0.321614
18   0.405061

>  <lowdin_charges>
18
1   -0.444833
2   -0.149106
3   -0.245854
4   -0.233803
5   -0.057222
6   0.110376
7   0.060963
8   -0.488607
9   -0.385014
10   0.158615
11   0.147044
12   0.158712
13   0.153363
14   0.150016
15   0.160516
16   0.275405
17   0.274651
18   0.354778

$$$$

