PCCDB-ID:  15543
public computational chemistry database (PCCDB) project, http://pccdb.org

 20 20  0  0  0  0  0  0  0  0999 V2000
    2.5647    0.7204   -1.7022 C   0  0  0  0  0  0  0  0  0  0  0  0
    3.8093    2.3257    0.4332 C   0  0  0  0  0  0  0  0  0  0  0  0
    3.3199    0.5570    2.0570 C   0  0  0  0  0  0  0  0  0  0  0  0
    3.3275    3.3399    1.4766 C   0  0  0  0  0  0  0  0  0  0  0  0
    2.8581    1.6432    3.0254 C   0  0  0  0  0  0  0  0  0  0  0  0
    2.6277    0.2017   -0.2703 C   0  0  0  0  0  0  0  0  0  0  0  0
    3.1810    1.0317    0.6801 N   0  0  0  0  0  0  0  0  0  0  0  0
    2.1893   -0.9069    0.0179 O   0  0  0  0  0  0  0  0  0  0  0  0
    3.5483    2.8690    2.7962 O   0  0  0  0  0  0  0  0  0  0  0  0
    3.5606    0.9412   -2.1031 H   0  0  0  0  0  0  0  0  0  0  0  0
    1.9613    1.6318   -1.7811 H   0  0  0  0  0  0  0  0  0  0  0  0
    2.1043   -0.0601   -2.3086 H   0  0  0  0  0  0  0  0  0  0  0  0
    4.9039    2.2297    0.5067 H   0  0  0  0  0  0  0  0  0  0  0  0
    3.5676    2.6820   -0.5691 H   0  0  0  0  0  0  0  0  0  0  0  0
    2.7266   -0.3529    2.1573 H   0  0  0  0  0  0  0  0  0  0  0  0
    4.3739    0.3132    2.2584 H   0  0  0  0  0  0  0  0  0  0  0  0
    2.2551    3.5459    1.3191 H   0  0  0  0  0  0  0  0  0  0  0  0
    3.8830    4.2781    1.3827 H   0  0  0  0  0  0  0  0  0  0  0  0
    3.0744    1.3575    4.0590 H   0  0  0  0  0  0  0  0  0  0  0  0
    1.7715    1.7984    2.9213 H   0  0  0  0  0  0  0  0  0  0  0  0
  1  6  1  0  0  0  0
  2 13  1  0  0  0  0
  2  7  1  0  0  0  0
  2  4  1  0  0  0  0
  3 15  1  0  0  0  0
  3 16  1  0  0  0  0
  3  5  1  0  0  0  0
  4  9  1  0  0  0  0
  5 19  1  0  0  0  0
  6  8  2  0  0  0  0
  6  7  1  0  0  0  0
  7  3  1  0  0  0  0
  9  5  1  0  0  0  0
 10  1  1  0  0  0  0
 11  1  1  0  0  0  0
 12  1  1  0  0  0  0
 14  2  1  0  0  0  0
 17  4  1  0  0  0  0
 18  4  1  0  0  0  0
 20  5  1  0  0  0  0
M  END
>  <HBA>
3

>  <HBD>
0

>  <TPSA>
29.54

>  <cid>
15543

>  <dipole>
2.85

>  <excitation_energy_1>
5.548

>  <excitation_energy_2>
5.759

>  <excitation_energy_3>
6.234

>  <excitation_energy_4>
6.278

>  <homo_energy>
-6.321

>  <homo_lumo_gap>
7.042

>  <logP>
-0.197

>  <lumo_energy>
0.721

>  <melting_point>
11.09

>  <molecular_refractivity>
36.94

>  <oscillator_strength_1>
0.0053

>  <oscillator_strength_2>
0.0297

>  <oscillator_strength_3>
0.0632

>  <oscillator_strength_4>
0.0949

>  <open_babel_can_smiles>
CC(=O)N1CCOCC1

>  <mulliken_charges>
20
1   -0.549171
2   -0.152634
3   -0.152423
4   -0.027587
5   -0.040796
6   0.576383
7   -0.425192
8   -0.506626
9   -0.464629
10   0.167725
11   0.167162
12   0.189288
13   0.15354
14   0.1573
15   0.19419
16   0.149123
17   0.127908
18   0.150676
19   0.15271
20   0.13305

>  <lowdin_charges>
20
1   -0.475431
2   -0.209365
3   -0.211804
4   -0.137505
5   -0.135375
6   0.158254
7   -0.117606
8   -0.311716
9   -0.272816
10   0.165424
11   0.165647
12   0.1809
13   0.14336
14   0.162032
15   0.182279
16   0.14396
17   0.129337
18   0.154399
19   0.154626
20   0.1314

$$$$

