PCCDB-ID:  28513
public computational chemistry database (PCCDB) project, http://pccdb.org

 39 39  0  0  1  0  0  0  0  0999 V2000
    0.9861    0.2997    0.0280 C   0  0  0  0  0  0  0  0  0  0  0  0
    4.2630   -2.2872    3.5064 C   0  0  0  0  0  0  0  0  0  0  0  0
    4.3521   -4.7013    2.7133 C   0  0  0  0  0  0  0  0  0  0  0  0
    3.1981    0.5818   -2.8100 C   0  0  0  0  0  0  0  0  0  0  0  0
    2.8074   -2.0892   -4.3045 C   0  0  0  0  0  0  0  0  0  0  0  0
    2.4961    0.0467    0.1350 C   0  0  0  0  0  0  0  0  0  0  0  0
    2.5574   -2.4447   -0.3885 C   0  0  0  0  0  0  0  0  0  0  0  0
    4.6250   -1.1114   -0.5632 C   0  0  0  0  0  0  0  0  0  0  0  0
    4.7920   -3.2563    2.4399 C   0  0  0  0  0  0  0  0  0  0  0  0
    2.7668   -0.7934   -2.2842 C   0  0  2  0  0  0  0  0  0  0  0  0
    4.3883   -2.8309    1.0273 C   0  0  1  0  0  0  0  0  0  0  0  0
    3.0939   -1.0482   -0.7875 C   0  0  2  0  0  0  0  0  0  0  0  0
    3.3913   -1.8362   -3.0436 O   0  0  0  0  0  0  0  0  0  0  0  0
    2.9789   -2.8078    0.9253 O   0  0  0  0  0  0  0  0  0  0  0  0
    4.9409   -1.5595    0.7558 O   0  0  0  0  0  0  0  0  0  0  0  0
    0.6845    1.0649    0.7521 H   0  0  0  0  0  0  0  0  0  0  0  0
    0.4003   -0.5996    0.2484 H   0  0  0  0  0  0  0  0  0  0  0  0
    0.6866    0.6570   -0.9642 H   0  0  0  0  0  0  0  0  0  0  0  0
    4.6227   -2.5804    4.4994 H   0  0  0  0  0  0  0  0  0  0  0  0
    3.1682   -2.2917    3.5258 H   0  0  0  0  0  0  0  0  0  0  0  0
    4.5985   -1.2654    3.3072 H   0  0  0  0  0  0  0  0  0  0  0  0
    4.6973   -5.0287    3.7004 H   0  0  0  0  0  0  0  0  0  0  0  0
    4.7619   -5.3952    1.9689 H   0  0  0  0  0  0  0  0  0  0  0  0
    3.2607   -4.7859    2.6871 H   0  0  0  0  0  0  0  0  0  0  0  0
    2.6943    1.3934   -2.2771 H   0  0  0  0  0  0  0  0  0  0  0  0
    2.9447    0.6823   -3.8703 H   0  0  0  0  0  0  0  0  0  0  0  0
    4.2795    0.7203   -2.7119 H   0  0  0  0  0  0  0  0  0  0  0  0
    3.3131   -2.9668   -4.7164 H   0  0  0  0  0  0  0  0  0  0  0  0
    2.9344   -1.2527   -5.0074 H   0  0  0  0  0  0  0  0  0  0  0  0
    1.7310   -2.3072   -4.2158 H   0  0  0  0  0  0  0  0  0  0  0  0
    2.7343   -0.2387    1.1635 H   0  0  0  0  0  0  0  0  0  0  0  0
    3.0300    0.9888   -0.0453 H   0  0  0  0  0  0  0  0  0  0  0  0
    2.9111   -3.1913   -1.1123 H   0  0  0  0  0  0  0  0  0  0  0  0
    1.4636   -2.4704   -0.3755 H   0  0  0  0  0  0  0  0  0  0  0  0
    5.0866   -0.1239   -0.6568 H   0  0  0  0  0  0  0  0  0  0  0  0
    5.0819   -1.7818   -1.3049 H   0  0  0  0  0  0  0  0  0  0  0  0
    5.8899   -3.2155    2.4482 H   0  0  0  0  0  0  0  0  0  0  0  0
    1.6747   -0.8889   -2.4086 H   0  0  0  0  0  0  0  0  0  0  0  0
    4.7803   -3.5499    0.2802 H   0  0  0  0  0  0  0  0  0  0  0  0
  1  6  1  0  0  0  0
  1 17  1  0  0  0  0
  1 16  1  0  0  0  0
  2 20  1  0  0  0  0
  2 19  1  0  0  0  0
  3 22  1  0  0  0  0
  4 27  1  0  0  0  0
  4 10  1  0  0  0  0
  4 25  1  0  0  0  0
  5 30  1  0  0  0  0
  5 13  1  0  0  0  0
  6 31  1  0  0  0  0
  7 34  1  0  0  0  0
  7 14  1  0  0  0  0
  8 15  1  0  0  0  0
  9 37  1  0  0  0  0
  9  3  1  0  0  0  0
  9  2  1  0  0  0  0
 10 38  1  6  0  0  0
 10 12  1  0  0  0  0
 11 39  1  6  0  0  0
 11  9  1  0  0  0  0
 12  8  1  0  0  0  0
 12  7  1  0  0  0  0
 12  6  1  1  0  0  0
 13 10  1  0  0  0  0
 14 11  1  0  0  0  0
 15 11  1  0  0  0  0
 18  1  1  0  0  0  0
 21  2  1  0  0  0  0
 23  3  1  0  0  0  0
 24  3  1  0  0  0  0
 26  4  1  0  0  0  0
 28  5  1  0  0  0  0
 29  5  1  0  0  0  0
 32  6  1  0  0  0  0
 33  7  1  0  0  0  0
 35  8  1  0  0  0  0
 36  8  1  0  0  0  0
M  END
>  <HBA>
3

>  <HBD>
0

>  <TPSA>
27.69

>  <cid>
28513

>  <dipole>
2.68

>  <excitation_energy_1>
6.211

>  <excitation_energy_2>
6.464

>  <excitation_energy_3>
6.567

>  <excitation_energy_4>
6.604

>  <homo_energy>
-6.631

>  <homo_lumo_gap>
8.621

>  <logP>
2.447

>  <lumo_energy>
1.989

>  <melting_point>
-16.13

>  <molecular_refractivity>
60.68

>  <oscillator_strength_1>
0.007

>  <oscillator_strength_2>
0.0021

>  <oscillator_strength_3>
0.0065

>  <oscillator_strength_4>
0.0081

>  <open_babel_can_smiles>
CO[C@@H]([C@]1(CC)CO[C@H](OC1)C(C)C)C

>  <mulliken_charges>
39
1   -0.46258
2   -0.451622
3   -0.45032
4   -0.473193
5   -0.197115
6   -0.269669
7   -0.053706
8   -0.053994
9   -0.107272
10   0.146918
11   0.380557
12   0.028502
13   -0.482603
14   -0.490426
15   -0.497344
16   0.14825
17   0.150691
18   0.140516
19   0.13334
20   0.155079
21   0.159511
22   0.140443
23   0.13551
24   0.160684
25   0.155587
26   0.147833
27   0.158597
28   0.160265
29   0.135022
30   0.131151
31   0.170457
32   0.129599
33   0.146125
34   0.139431
35   0.140481
36   0.14964
37   0.135247
38   0.113227
39   0.09718

>  <lowdin_charges>
39
1   -0.452342
2   -0.443618
3   -0.443962
4   -0.459164
5   -0.279309
6   -0.279338
7   -0.141273
8   -0.140267
9   -0.126797
10   0.006738
11   0.095054
12   -0.034231
13   -0.273965
14   -0.266337
15   -0.265241
16   0.155296
17   0.150029
18   0.142245
19   0.145139
20   0.151396
21   0.156205
22   0.148762
23   0.146739
24   0.154261
25   0.159518
26   0.152567
27   0.154812
28   0.15713
29   0.133665
30   0.130235
31   0.161166
32   0.141253
33   0.143217
34   0.144179
35   0.146919
36   0.144367
37   0.145306
38   0.125929
39   0.113717

$$$$

