PCCDB-ID:  34734
public computational chemistry database (PCCDB) project, http://pccdb.org

 38 38  0  0  1  0  0  0  0  0999 V2000
    2.8401    1.0610   -0.2902 C   0  0  0  0  0  0  0  0  0  0  0  0
    1.5915   -1.6154   -2.6676 C   0  0  0  0  0  0  0  0  0  0  0  0
    5.4146   -2.6581    3.5511 C   0  0  0  0  0  0  0  0  0  0  0  0
    6.5963   -3.2667    0.0427 C   0  0  0  0  0  0  0  0  0  0  0  0
    2.1289   -0.2368    0.1035 C   0  0  0  0  0  0  0  0  0  0  0  0
    2.9284   -1.6194   -1.9160 C   0  0  0  0  0  0  0  0  0  0  0  0
    5.0941   -1.7861    2.3306 C   0  0  0  0  0  0  0  0  0  0  0  0
    5.2282   -3.6821    0.5963 C   0  0  0  0  0  0  0  0  0  0  0  0
    2.1621   -2.7736    0.2496 C   0  0  0  0  0  0  0  0  0  0  0  0
    2.9533   -2.9838    1.5473 C   0  0  2  0  0  0  0  0  0  0  0  0
    2.8196   -1.5324   -0.3831 C   0  0  0  0  0  0  0  0  0  0  0  0
    4.3916   -2.5147    1.1705 C   0  0  0  0  0  0  0  0  0  0  0  0
    2.8482   -4.2848    2.1054 O   0  0  0  0  0  0  0  0  0  0  0  0
    4.1833   -1.5393    0.1270 O   0  0  0  0  0  0  0  0  0  0  0  0
    2.3526    1.9237    0.1776 H   0  0  0  0  0  0  0  0  0  0  0  0
    2.8275    1.2255   -1.3736 H   0  0  0  0  0  0  0  0  0  0  0  0
    3.8843    1.0385    0.0361 H   0  0  0  0  0  0  0  0  0  0  0  0
    1.7546   -1.7670   -3.7403 H   0  0  0  0  0  0  0  0  0  0  0  0
    1.0573   -0.6663   -2.5494 H   0  0  0  0  0  0  0  0  0  0  0  0
    0.9297   -2.4168   -2.3180 H   0  0  0  0  0  0  0  0  0  0  0  0
    5.8007   -2.0409    4.3699 H   0  0  0  0  0  0  0  0  0  0  0  0
    6.1773   -3.4121    3.3236 H   0  0  0  0  0  0  0  0  0  0  0  0
    4.5288   -3.1903    3.9130 H   0  0  0  0  0  0  0  0  0  0  0  0
    7.0760   -4.1078   -0.4705 H   0  0  0  0  0  0  0  0  0  0  0  0
    7.2735   -2.9380    0.8384 H   0  0  0  0  0  0  0  0  0  0  0  0
    6.4870   -2.4454   -0.6715 H   0  0  0  0  0  0  0  0  0  0  0  0
    1.0955   -0.2262   -0.2680 H   0  0  0  0  0  0  0  0  0  0  0  0
    2.0568   -0.2835    1.1980 H   0  0  0  0  0  0  0  0  0  0  0  0
    3.5564   -0.7927   -2.2678 H   0  0  0  0  0  0  0  0  0  0  0  0
    3.4799   -2.5383   -2.1520 H   0  0  0  0  0  0  0  0  0  0  0  0
    6.0127   -1.3244    1.9498 H   0  0  0  0  0  0  0  0  0  0  0  0
    4.4413   -0.9552    2.6278 H   0  0  0  0  0  0  0  0  0  0  0  0
    5.3562   -4.4476    1.3712 H   0  0  0  0  0  0  0  0  0  0  0  0
    4.6526   -4.1484   -0.2165 H   0  0  0  0  0  0  0  0  0  0  0  0
    1.0912   -2.6483    0.4343 H   0  0  0  0  0  0  0  0  0  0  0  0
    2.2842   -3.6515   -0.4004 H   0  0  0  0  0  0  0  0  0  0  0  0
    2.5631   -2.3248    2.3300 H   0  0  0  0  0  0  0  0  0  0  0  0
    3.1117   -4.9217    1.4225 H   0  0  0  0  0  0  0  0  0  0  0  0
  1 17  1  0  0  0  0
  1  5  1  0  0  0  0
  1 15  1  0  0  0  0
  2 19  1  0  0  0  0
  2 20  1  0  0  0  0
  2  6  1  0  0  0  0
  3 23  1  0  0  0  0
  3 21  1  0  0  0  0
  4  8  1  0  0  0  0
  4 25  1  0  0  0  0
  5 28  1  0  0  0  0
  6 11  1  0  0  0  0
  7 32  1  0  0  0  0
  7  3  1  0  0  0  0
  8 12  1  0  0  0  0
  8 33  1  0  0  0  0
  9 35  1  0  0  0  0
  9 10  1  0  0  0  0
 10 13  1  0  0  0  0
 10 37  1  1  0  0  0
 11  5  1  0  0  0  0
 11 14  1  0  0  0  0
 11  9  1  0  0  0  0
 12 10  1  0  0  0  0
 12  7  1  0  0  0  0
 14 12  1  0  0  0  0
 16  1  1  0  0  0  0
 18  2  1  0  0  0  0
 22  3  1  0  0  0  0
 24  4  1  0  0  0  0
 26  4  1  0  0  0  0
 27  5  1  0  0  0  0
 29  6  1  0  0  0  0
 30  6  1  0  0  0  0
 31  7  1  0  0  0  0
 34  8  1  0  0  0  0
 36  9  1  0  0  0  0
 38 13  1  0  0  0  0
M  END
>  <HBA>
2

>  <HBD>
1

>  <TPSA>
29.46

>  <cid>
34734

>  <dipole>
1.25

>  <excitation_energy_1>
5.985

>  <excitation_energy_2>
6.247

>  <excitation_energy_3>
6.322

>  <excitation_energy_4>
6.408

>  <homo_energy>
-6.501

>  <homo_lumo_gap>
8.351

>  <logP>
2.885

>  <lumo_energy>
1.85

>  <melting_point>
23.74

>  <molecular_refractivity>
60.01

>  <oscillator_strength_1>
0.0178

>  <oscillator_strength_2>
0.0119

>  <oscillator_strength_3>
0.0047

>  <oscillator_strength_4>
0.0004

>  <open_babel_can_smiles>
CCC1(CC)C[C@H](C(O1)(CC)CC)O

>  <mulliken_charges>
38
1   -0.455245
2   -0.460346
3   -0.462097
4   -0.454801
5   -0.270492
6   -0.276256
7   -0.281308
8   -0.295319
9   -0.342176
10   0.090981
11   0.357859
12   0.354035
13   -0.627194
14   -0.569479
15   0.139074
16   0.142353
17   0.166732
18   0.147395
19   0.150319
20   0.146005
21   0.14142
22   0.144119
23   0.168302
24   0.138221
25   0.146802
26   0.166907
27   0.130926
28   0.132387
29   0.147525
30   0.132675
31   0.14409
32   0.132442
33   0.141359
34   0.119205
35   0.153806
36   0.126757
37   0.141409
38   0.391609

>  <lowdin_charges>
38
1   -0.44712
2   -0.449311
3   -0.454324
4   -0.449371
5   -0.281329
6   -0.28265
7   -0.282085
8   -0.295865
9   -0.30355
10   -0.017635
11   0.12573
12   0.104524
13   -0.450404
14   -0.279035
15   0.150218
16   0.144135
17   0.157929
18   0.151996
19   0.149495
20   0.148361
21   0.151517
22   0.147653
23   0.159473
24   0.149838
25   0.149319
26   0.15959
27   0.141216
28   0.140303
29   0.151774
30   0.144038
31   0.149309
32   0.144277
33   0.147036
34   0.136195
35   0.156144
36   0.142376
37   0.148397
38   0.341838

$$$$

