PCCDB-ID:  33524
public computational chemistry database (PCCDB) project, http://pccdb.org

 26 27  0  0  0  0  0  0  0  0999 V2000
    2.6243    1.7005   -0.1743 C   0  0  0  0  0  0  0  0  0  0  0  0
    2.7938    0.4124    0.3842 C   0  0  0  0  0  0  0  0  0  0  0  0
   -2.1567    0.9109   -0.5982 C   0  0  0  0  0  0  0  0  0  0  0  0
    1.3705    2.1234   -0.5495 C   0  0  0  0  0  0  0  0  0  0  0  0
   -1.0593    1.7209   -0.7689 C   0  0  0  0  0  0  0  0  0  0  0  0
   -1.9990   -0.3715   -0.0279 C   0  0  0  0  0  0  0  0  0  0  0  0
    1.7158   -0.4270    0.5602 C   0  0  0  0  0  0  0  0  0  0  0  0
   -0.6915   -2.2190    0.9709 C   0  0  0  0  0  0  0  0  0  0  0  0
    0.2359    1.2851   -0.3824 C   0  0  0  0  0  0  0  0  0  0  0  0
   -0.7596   -0.8469    0.3597 C   0  0  0  0  0  0  0  0  0  0  0  0
    0.4030   -0.0233    0.1882 C   0  0  0  0  0  0  0  0  0  0  0  0
    1.6550   -3.2300   -1.3108 O   0  0  0  0  0  0  0  0  0  0  0  0
    1.6289   -3.9606    1.0234 O   0  0  0  0  0  0  0  0  0  0  0  0
    0.4867   -5.3722   -0.7716 O   0  0  0  0  0  0  0  0  0  0  0  0
   -0.5396   -3.2768   -0.0549 O   0  0  0  0  0  0  0  0  0  0  0  0
    0.8447   -4.0943   -0.1894 S   0  0  0  0  0  0  0  0  0  0  0  0
    3.4848    2.3504   -0.3065 H   0  0  0  0  0  0  0  0  0  0  0  0
    3.7858    0.0778    0.6745 H   0  0  0  0  0  0  0  0  0  0  0  0
   -3.1453    1.2515   -0.8924 H   0  0  0  0  0  0  0  0  0  0  0  0
    1.2271    3.1112   -0.9812 H   0  0  0  0  0  0  0  0  0  0  0  0
   -1.1679    2.7135   -1.1999 H   0  0  0  0  0  0  0  0  0  0  0  0
   -2.8752   -1.0002    0.1118 H   0  0  0  0  0  0  0  0  0  0  0  0
    1.8849   -1.4138    0.9762 H   0  0  0  0  0  0  0  0  0  0  0  0
   -1.6425   -2.4743    1.4415 H   0  0  0  0  0  0  0  0  0  0  0  0
    0.1025   -2.3362    1.7077 H   0  0  0  0  0  0  0  0  0  0  0  0
    1.2756   -3.4440   -2.1844 H   0  0  0  0  0  0  0  0  0  0  0  0
  1  2  2  0  0  0  0
  2  7  1  0  0  0  0
  2 18  1  0  0  0  0
  3  6  1  0  0  0  0
  4  9  2  0  0  0  0
  4  1  1  0  0  0  0
  5  3  2  0  0  0  0
  5  9  1  0  0  0  0
  6 22  1  0  0  0  0
  6 10  2  0  0  0  0
  7 23  1  0  0  0  0
  8 24  1  0  0  0  0
  8 25  1  0  0  0  0
  9 11  1  0  0  0  0
 10  8  1  0  0  0  0
 11 10  1  0  0  0  0
 11  7  2  0  0  0  0
 12 16  1  0  0  0  0
 14 16  2  0  0  0  0
 15  8  1  0  0  0  0
 16 15  1  0  0  0  0
 16 13  2  0  0  0  0
 17  1  1  0  0  0  0
 19  3  1  0  0  0  0
 20  4  1  0  0  0  0
 21  5  1  0  0  0  0
 26 12  1  0  0  0  0
M  END
>  <HBA>
4

>  <HBD>
1

>  <TPSA>
71.98

>  <cid>
33524

>  <dipole>
4.26

>  <excitation_energy_1>
4.199

>  <excitation_energy_2>
4.392

>  <excitation_energy_3>
5.134

>  <excitation_energy_4>
5.483

>  <homo_energy>
-6.12

>  <homo_lumo_gap>
4.67

>  <logP>
3.24

>  <lumo_energy>
-1.45

>  <melting_point>
126.87

>  <molecular_refractivity>
60.53

>  <oscillator_strength_1>
0.1021

>  <oscillator_strength_2>
0.002

>  <oscillator_strength_3>
0.0118

>  <oscillator_strength_4>
0.0183

>  <open_babel_can_smiles>
OS(=O)(=O)OCc1cccc2c1cccc2

>  <mulliken_charges>
26
1   -0.130093
2   -0.14078
3   -0.132534
4   -0.195086
5   -0.185515
6   -0.186761
7   -0.199842
8   -0.18111
9   0.136778
10   0.10621
11   0.081721
12   -0.616652
13   -0.51007
14   -0.477246
15   -0.509563
16   1.329502
17   0.134636
18   0.139622
19   0.137139
20   0.132995
21   0.136319
22   0.136368
23   0.163853
24   0.180392
25   0.204885
26   0.444831

>  <lowdin_charges>
26
1   -0.155802
2   -0.14876
3   -0.160767
4   -0.154382
5   -0.142735
6   -0.152234
7   -0.160645
8   -0.1234
9   6.3e-05
10   -0.03072
11   -0.001581
12   -0.558114
13   -0.552108
14   -0.543235
15   -0.408335
16   1.422294
17   0.161719
18   0.162954
19   0.161985
20   0.158273
21   0.159998
22   0.161437
23   0.171
24   0.169572
25   0.177143
26   0.386377

$$$$

