PCCDB-ID:  16966
public computational chemistry database (PCCDB) project, http://pccdb.org

 28 29  0  0  0  0  0  0  0  0999 V2000
    1.4616    0.2297    1.0425 C   0  0  0  0  0  0  0  0  0  0  0  0
    7.3491    7.4478   -5.4351 C   0  0  0  0  0  0  0  0  0  0  0  0
    7.6362    6.1326   -5.8045 C   0  0  0  0  0  0  0  0  0  0  0  0
    6.4455    7.7003   -4.3948 C   0  0  0  0  0  0  0  0  0  0  0  0
    7.0227    5.0742   -5.1363 C   0  0  0  0  0  0  0  0  0  0  0  0
    5.8301    6.6493   -3.7249 C   0  0  0  0  0  0  0  0  0  0  0  0
    3.2544    3.5163   -0.9243 C   0  0  0  0  0  0  0  0  0  0  0  0
    4.4792    1.9362   -2.2907 C   0  0  0  0  0  0  0  0  0  0  0  0
    2.6327    2.4699   -0.2446 C   0  0  0  0  0  0  0  0  0  0  0  0
    3.8694    0.8921   -1.6224 C   0  0  0  0  0  0  0  0  0  0  0  0
    6.1183    5.3239   -4.0954 C   0  0  0  0  0  0  0  0  0  0  0  0
    4.1765    3.2704   -1.9472 C   0  0  0  0  0  0  0  0  0  0  0  0
    2.9409    1.1487   -0.5935 C   0  0  0  0  0  0  0  0  0  0  0  0
    5.5571    4.1720   -3.4876 N   0  0  0  0  0  0  0  0  0  0  0  0
    4.7369    4.4121   -2.5577 N   0  0  0  0  0  0  0  0  0  0  0  0
    2.4021    0.0467   -0.0059 O   0  0  0  0  0  0  0  0  0  0  0  0
    1.1706   -0.7727    1.3606 H   0  0  0  0  0  0  0  0  0  0  0  0
    0.5735    0.7734    0.6952 H   0  0  0  0  0  0  0  0  0  0  0  0
    1.9052    0.7665    1.8910 H   0  0  0  0  0  0  0  0  0  0  0  0
    7.8258    8.2758   -5.9530 H   0  0  0  0  0  0  0  0  0  0  0  0
    8.3366    5.9320   -6.6105 H   0  0  0  0  0  0  0  0  0  0  0  0
    6.2234    8.7253   -4.1088 H   0  0  0  0  0  0  0  0  0  0  0  0
    7.2270    4.0413   -5.4017 H   0  0  0  0  0  0  0  0  0  0  0  0
    5.1283    6.8250   -2.9174 H   0  0  0  0  0  0  0  0  0  0  0  0
    3.0322    4.5487   -0.6716 H   0  0  0  0  0  0  0  0  0  0  0  0
    5.1947    1.7512   -3.0840 H   0  0  0  0  0  0  0  0  0  0  0  0
    1.9206    2.6901    0.5421 H   0  0  0  0  0  0  0  0  0  0  0  0
    4.0876   -0.1423   -1.8698 H   0  0  0  0  0  0  0  0  0  0  0  0
  1 17  1  0  0  0  0
  1 19  1  0  0  0  0
  2  4  1  0  0  0  0
  3  2  2  0  0  0  0
  3  5  1  0  0  0  0
  4 22  1  0  0  0  0
  4  6  2  0  0  0  0
  5 11  2  0  0  0  0
  6 24  1  0  0  0  0
  7 25  1  0  0  0  0
  7  9  2  0  0  0  0
  8 12  2  0  0  0  0
  8 10  1  0  0  0  0
  9 27  1  0  0  0  0
 10 13  2  0  0  0  0
 11  6  1  0  0  0  0
 11 14  1  0  0  0  0
 12  7  1  0  0  0  0
 13  9  1  0  0  0  0
 13 16  1  0  0  0  0
 14 15  1  0  0  0  0
 15 12  1  0  0  0  0
 16  1  1  0  0  0  0
 18  1  1  0  0  0  0
 20  2  1  0  0  0  0
 21  3  1  0  0  0  0
 23  5  1  0  0  0  0
 26  8  1  0  0  0  0
 28 10  1  0  0  0  0
M  RAD  2  14   2  15   2
M  END
>  <HBA>
3

>  <HBD>
0

>  <TPSA>
33.95

>  <cid>
16966

>  <dipole>
2.02

>  <excitation_energy_1>
2.669

>  <excitation_energy_2>
3.448

>  <excitation_energy_3>
4.092

>  <excitation_energy_4>
4.221

>  <homo_energy>
-5.704

>  <homo_lumo_gap>
3.742

>  <logP>
4.111

>  <lumo_energy>
-1.962

>  <melting_point>
66.92

>  <molecular_refractivity>
63.55

>  <oscillator_strength_1>
0.0001

>  <oscillator_strength_2>
0.885

>  <oscillator_strength_3>
0.0144

>  <oscillator_strength_4>
0.0013

>  <open_babel_can_smiles>
COc1ccc(cc1)[N][N]c1ccccc1

>  <mulliken_charges>
28
1   -0.218545
2   -0.11929
3   -0.138715
4   -0.146012
5   -0.141844
6   -0.125056
7   -0.148828
8   -0.126332
9   -0.204896
10   -0.187372
11   0.270787
12   0.270652
13   0.387463
14   -0.316966
15   -0.312517
16   -0.500519
17   0.174092
18   0.156599
19   0.156658
20   0.131787
21   0.13296
22   0.133205
23   0.13879
24   0.152105
25   0.142924
26   0.157751
27   0.136263
28   0.144857

>  <lowdin_charges>
28
1   -0.278206
2   -0.15131
3   -0.156878
4   -0.153095
5   -0.148264
6   -0.152703
7   -0.133214
8   -0.139502
9   -0.215706
10   -0.175995
11   0.012337
12   -0.00805
13   0.10998
14   -0.093131
15   -0.081117
16   -0.187677
17   0.164896
18   0.148408
19   0.148872
20   0.159974
21   0.159817
22   0.157685
23   0.164923
24   0.172128
25   0.167005
26   0.175769
27   0.165093
28   0.167961

$$$$

