PCCDB-ID:  12855
public computational chemistry database (PCCDB) project, http://pccdb.org

 25 27  0  0  0  0  0  0  0  0999 V2000
   -1.3888    0.0909    0.2648 C   0  0  0  0  0  0  0  0  0  0  0  0
   -0.7953    1.2713   -0.1846 C   0  0  0  0  0  0  0  0  0  0  0  0
   -0.5895   -1.0214    0.5445 C   0  0  0  0  0  0  0  0  0  0  0  0
    7.3082   -0.2716   -0.5525 C   0  0  0  0  0  0  0  0  0  0  0  0
    7.2662    1.1174   -0.7915 C   0  0  0  0  0  0  0  0  0  0  0  0
    0.5871    1.3418   -0.3498 C   0  0  0  0  0  0  0  0  0  0  0  0
    0.7906   -0.9543    0.3827 C   0  0  0  0  0  0  0  0  0  0  0  0
    6.1490   -1.0017   -0.3137 C   0  0  0  0  0  0  0  0  0  0  0  0
    6.0629    1.8190   -0.8008 C   0  0  0  0  0  0  0  0  0  0  0  0
    1.3980    0.2316   -0.0647 C   0  0  0  0  0  0  0  0  0  0  0  0
    4.9262   -0.3167   -0.3156 C   0  0  0  0  0  0  0  0  0  0  0  0
    4.9038    1.0792   -0.5610 C   0  0  0  0  0  0  0  0  0  0  0  0
    2.8565    0.2619   -0.2168 C   0  0  0  0  0  0  0  0  0  0  0  0
    3.6440   -0.7894   -0.1063 N   0  0  0  0  0  0  0  0  0  0  0  0
    3.5655    1.4183   -0.4972 N   0  0  0  0  0  0  0  0  0  0  0  0
   -2.4663    0.0367    0.3936 H   0  0  0  0  0  0  0  0  0  0  0  0
   -1.4081    2.1395   -0.4108 H   0  0  0  0  0  0  0  0  0  0  0  0
   -1.0451   -1.9448    0.8916 H   0  0  0  0  0  0  0  0  0  0  0  0
    8.2692   -0.7786   -0.5561 H   0  0  0  0  0  0  0  0  0  0  0  0
    8.1933    1.6536   -0.9740 H   0  0  0  0  0  0  0  0  0  0  0  0
    1.0227    2.2665   -0.7203 H   0  0  0  0  0  0  0  0  0  0  0  0
    1.4237   -1.8085    0.5965 H   0  0  0  0  0  0  0  0  0  0  0  0
    6.1757   -2.0711   -0.1289 H   0  0  0  0  0  0  0  0  0  0  0  0
    6.0350    2.8891   -0.9870 H   0  0  0  0  0  0  0  0  0  0  0  0
    3.1856    2.3494   -0.5693 H   0  0  0  0  0  0  0  0  0  0  0  0
  1 16  1  0  0  0  0
  1  3  2  0  0  0  0
  2  1  1  0  0  0  0
  3 18  1  0  0  0  0
  4  8  2  0  0  0  0
  5  4  1  0  0  0  0
  6  2  2  0  0  0  0
  6 10  1  0  0  0  0
  7  3  1  0  0  0  0
  7 22  1  0  0  0  0
  8 23  1  0  0  0  0
  9  5  2  0  0  0  0
  9 12  1  0  0  0  0
 10  7  2  0  0  0  0
 11  8  1  0  0  0  0
 11 14  1  0  0  0  0
 12 15  1  0  0  0  0
 12 11  2  0  0  0  0
 13 14  2  0  0  0  0
 13 10  1  0  0  0  0
 15 13  1  0  0  0  0
 17  2  1  0  0  0  0
 19  4  1  0  0  0  0
 20  5  1  0  0  0  0
 21  6  1  0  0  0  0
 24  9  1  0  0  0  0
 25 15  1  0  0  0  0
M  END
>  <HBA>
1

>  <HBD>
1

>  <TPSA>
28.68

>  <cid>
12855

>  <dipole>
3.09

>  <excitation_energy_1>
4.152

>  <excitation_energy_2>
4.348

>  <excitation_energy_3>
4.66

>  <excitation_energy_4>
4.967

>  <homo_energy>
-5.704

>  <homo_lumo_gap>
4.539

>  <logP>
3.23

>  <lumo_energy>
-1.165

>  <melting_point>
148.7

>  <molecular_refractivity>
61.53

>  <oscillator_strength_1>
0.692

>  <oscillator_strength_2>
0.0184

>  <oscillator_strength_3>
0.0005

>  <oscillator_strength_4>
0.0003

>  <open_babel_can_smiles>
c1ccc(cc1)c1nc2c([nH]1)cccc2

>  <mulliken_charges>
25
1   -0.123463
2   -0.135346
3   -0.136054
4   -0.142785
5   -0.149029
6   -0.183351
7   -0.162515
8   -0.182549
9   -0.17515
10   0.12283
11   0.247294
12   0.362219
13   0.468357
14   -0.571392
15   -0.773534
16   0.134117
17   0.133263
18   0.13693
19   0.12562
20   0.126661
21   0.111184
22   0.169897
23   0.138714
24   0.125808
25   0.332274

>  <lowdin_charges>
25
1   -0.149365
2   -0.154792
3   -0.151898
4   -0.170496
5   -0.161094
6   -0.165421
7   -0.137817
8   -0.155484
9   -0.185697
10   -0.013936
11   0.013159
12   0.021575
13   0.08074
14   -0.200591
15   -0.206445
16   0.158384
17   0.160444
18   0.161725
19   0.157239
20   0.157833
21   0.148714
22   0.180542
23   0.164448
24   0.155644
25   0.292588

$$$$

