PCCDB-ID:  15380
public computational chemistry database (PCCDB) project, http://pccdb.org

 13 12  0  0  0  0  0  0  0  0999 V2000
    2.8444   -1.1627   -1.5068 C   0  0  0  0  0  0  0  0  0  0  0  0
    5.8498    1.1647    0.6897 C   0  0  0  0  0  0  0  0  0  0  0  0
    3.5721   -0.4240    1.1025 C   0  0  0  0  0  0  0  0  0  0  0  0
    2.5980    0.2019   -0.3189 S   0  0  0  0  0  0  0  0  0  0  0  0
    5.3850   -0.5902    0.8861 S   0  0  0  0  0  0  0  0  0  0  0  0
    2.3724   -0.8577   -2.4442 H   0  0  0  0  0  0  0  0  0  0  0  0
    2.3729   -2.0850   -1.1539 H   0  0  0  0  0  0  0  0  0  0  0  0
    3.9109   -1.3309   -1.6779 H   0  0  0  0  0  0  0  0  0  0  0  0
    6.9182    1.1873    0.4608 H   0  0  0  0  0  0  0  0  0  0  0  0
    5.6707    1.7272    1.6112 H   0  0  0  0  0  0  0  0  0  0  0  0
    5.2943    1.6159   -0.1365 H   0  0  0  0  0  0  0  0  0  0  0  0
    3.2184   -1.4190    1.3882 H   0  0  0  0  0  0  0  0  0  0  0  0
    3.3563    0.2596    1.9289 H   0  0  0  0  0  0  0  0  0  0  0  0
  1  7  1  0  0  0  0
  1  4  1  0  0  0  0
  2  5  1  0  0  0  0
  2 10  1  0  0  0  0
  3 12  1  0  0  0  0
  3 13  1  0  0  0  0
  4  3  1  0  0  0  0
  5  3  1  0  0  0  0
  6  1  1  0  0  0  0
  8  1  1  0  0  0  0
  9  2  1  0  0  0  0
 11  2  1  0  0  0  0
M  END
>  <HBA>
2

>  <HBD>
0

>  <TPSA>
50.6

>  <cid>
15380

>  <dipole>
0.12

>  <excitation_energy_1>
5.084

>  <excitation_energy_2>
5.153

>  <excitation_energy_3>
5.545

>  <excitation_energy_4>
5.582

>  <homo_energy>
-6.065

>  <homo_lumo_gap>
6.566

>  <logP>
1.67

>  <lumo_energy>
0.501

>  <melting_point>
-6.63

>  <molecular_refractivity>
31.72

>  <oscillator_strength_1>
0.0123

>  <oscillator_strength_2>
0.0006

>  <oscillator_strength_3>
0.0127

>  <oscillator_strength_4>
0.0039

>  <open_babel_can_smiles>
CSCSC

>  <mulliken_charges>
13
1   -0.589747
2   -0.589584
3   -0.549346
4   0.100394
5   0.100412
6   0.184401
7   0.176296
8   0.203066
9   0.18436
10   0.176234
11   0.203007
12   0.200279
13   0.200229

>  <lowdin_charges>
13
1   -0.546762
2   -0.548164
3   -0.48915
4   0.100722
5   0.102786
6   0.176842
7   0.161786
8   0.173524
9   0.175136
10   0.161714
11   0.17585
12   0.177271
13   0.178445

$$$$

