PCCDB-ID:  12240
public computational chemistry database (PCCDB) project, http://pccdb.org

 24 23  0  0  0  0  0  0  0  0999 V2000
    1.1009    0.4772   -0.3113 C   0  0  0  0  0  0  0  0  0  0  0  0
    3.8601    1.4335    4.4022 C   0  0  0  0  0  0  0  0  0  0  0  0
    5.9370    2.4749    3.4190 C   0  0  0  0  0  0  0  0  0  0  0  0
    2.5641    0.7121    0.0781 C   0  0  0  0  0  0  0  0  0  0  0  0
    2.7245    1.2949    1.4889 C   0  0  0  0  0  0  0  0  0  0  0  0
    4.1924    1.5310    1.8677 C   0  0  0  0  0  0  0  0  0  0  0  0
    4.4325    2.2312    3.2195 C   0  0  0  0  0  0  0  0  0  0  0  0
    3.7562    3.4977    3.1173 O   0  0  0  0  0  0  0  0  0  0  0  0
    1.0156    0.0677   -1.3245 H   0  0  0  0  0  0  0  0  0  0  0  0
    0.5294    1.4128   -0.2799 H   0  0  0  0  0  0  0  0  0  0  0  0
    0.6162   -0.2285    0.3749 H   0  0  0  0  0  0  0  0  0  0  0  0
    4.3064    0.4341    4.4655 H   0  0  0  0  0  0  0  0  0  0  0  0
    2.7756    1.3243    4.3124 H   0  0  0  0  0  0  0  0  0  0  0  0
    4.0697    1.9488    5.3491 H   0  0  0  0  0  0  0  0  0  0  0  0
    6.4947    1.5323    3.4666 H   0  0  0  0  0  0  0  0  0  0  0  0
    6.1216    3.0171    4.3561 H   0  0  0  0  0  0  0  0  0  0  0  0
    6.3371    3.0746    2.5948 H   0  0  0  0  0  0  0  0  0  0  0  0
    3.0311    1.3914   -0.6493 H   0  0  0  0  0  0  0  0  0  0  0  0
    3.1183   -0.2351    0.0080 H   0  0  0  0  0  0  0  0  0  0  0  0
    2.2524    0.6118    2.2086 H   0  0  0  0  0  0  0  0  0  0  0  0
    2.1824    2.2454    1.5596 H   0  0  0  0  0  0  0  0  0  0  0  0
    4.6621    2.1518    1.0925 H   0  0  0  0  0  0  0  0  0  0  0  0
    4.7346    0.5751    1.8730 H   0  0  0  0  0  0  0  0  0  0  0  0
    3.8845    3.9627    3.9594 H   0  0  0  0  0  0  0  0  0  0  0  0
  1 10  1  0  0  0  0
  1  4  1  0  0  0  0
  1 11  1  0  0  0  0
  2 12  1  0  0  0  0
  2 14  1  0  0  0  0
  3 15  1  0  0  0  0
  3 16  1  0  0  0  0
  4  5  1  0  0  0  0
  5 21  1  0  0  0  0
  5  6  1  0  0  0  0
  5 20  1  0  0  0  0
  6 23  1  0  0  0  0
  6  7  1  0  0  0  0
  7  3  1  0  0  0  0
  7  2  1  0  0  0  0
  8  7  1  0  0  0  0
  8 24  1  0  0  0  0
  9  1  1  0  0  0  0
 13  2  1  0  0  0  0
 17  3  1  0  0  0  0
 18  4  1  0  0  0  0
 19  4  1  0  0  0  0
 22  6  1  0  0  0  0
M  END
>  <HBA>
1

>  <HBD>
1

>  <TPSA>
20.23

>  <cid>
12240

>  <dipole>
1.46

>  <excitation_energy_1>
6.378

>  <excitation_energy_2>
7.317

>  <excitation_energy_3>
7.393

>  <excitation_energy_4>
7.517

>  <homo_energy>
-7.045

>  <homo_lumo_gap>
8.833

>  <logP>
1.948

>  <lumo_energy>
1.788

>  <melting_point>
2.41

>  <molecular_refractivity>
36.96

>  <oscillator_strength_1>
0.0206

>  <oscillator_strength_2>
0.0059

>  <oscillator_strength_3>
0.0058

>  <oscillator_strength_4>
0.0203

>  <open_babel_can_smiles>
CCCCC(O)(C)C

>  <mulliken_charges>
24
1   -0.441057
2   -0.461647
3   -0.453284
4   -0.248867
5   -0.256287
6   -0.253668
7   0.306345
8   -0.637352
9   0.139484
10   0.142855
11   0.139066
12   0.140999
13   0.160048
14   0.127307
15   0.139969
16   0.126623
17   0.153449
18   0.130873
19   0.125676
20   0.123718
21   0.155618
22   0.135346
23   0.122567
24   0.382221

>  <lowdin_charges>
24
1   -0.444971
2   -0.45717
3   -0.457593
4   -0.272539
5   -0.279518
6   -0.278686
7   0.125282
8   -0.466271
9   0.147272
10   0.147134
11   0.146264
12   0.151212
13   0.155644
14   0.142833
15   0.150891
16   0.142305
17   0.156518
18   0.140088
19   0.135959
20   0.137454
21   0.152123
22   0.147777
23   0.140315
24   0.337677

$$$$

