PCCDB-ID:  66921
public computational chemistry database (PCCDB) project, http://pccdb.org

 14 14  0  0  0  0  0  0  0  0999 V2000
   -0.7749    1.1672   -0.1157 C   0  0  0  0  0  0  0  0  0  0  0  0
   -1.3883   -0.0741   -0.0166 C   0  0  0  0  0  0  0  0  0  0  0  0
    1.4129    0.0726   -0.0083 C   0  0  0  0  0  0  0  0  0  0  0  0
    0.7996   -1.1688    0.0909 C   0  0  0  0  0  0  0  0  0  0  0  0
    0.6248    1.2283   -0.1104 C   0  0  0  0  0  0  0  0  0  0  0  0
   -0.6002   -1.2299    0.0857 C   0  0  0  0  0  0  0  0  0  0  0  0
    1.3683    2.4693   -0.2079 N   0  0  0  0  0  0  0  0  0  0  0  0
   -1.3436   -2.4708    0.1830 N   0  0  0  0  0  0  0  0  0  0  0  0
    0.6752    3.4690   -0.2936 O   0  0  0  0  0  0  0  0  0  0  0  0
   -0.6506   -3.4704    0.2706 O   0  0  0  0  0  0  0  0  0  0  0  0
   -1.3400    2.0895   -0.1974 H   0  0  0  0  0  0  0  0  0  0  0  0
   -2.4689   -0.1824   -0.0150 H   0  0  0  0  0  0  0  0  0  0  0  0
    2.4936    0.1809   -0.0099 H   0  0  0  0  0  0  0  0  0  0  0  0
    1.3647   -2.0910    0.1724 H   0  0  0  0  0  0  0  0  0  0  0  0
  1  5  2  0  0  0  0
  1  2  1  0  0  0  0
  2 12  1  0  0  0  0
  2  6  2  0  0  0  0
  3  4  2  0  0  0  0
  4 14  1  0  0  0  0
  5  3  1  0  0  0  0
  6  4  1  0  0  0  0
  6  8  1  0  0  0  0
  7  5  1  0  0  0  0
  8 10  1  0  0  0  0
  9  7  1  0  0  0  0
 11  1  1  0  0  0  0
 13  3  1  0  0  0  0
M  RAD  4   7   2   8   2   9   2  10   2
M  END
>  <HBA>
4

>  <HBD>
0

>  <TPSA>
58.86

>  <cid>
66921

>  <dipole>
0.0

>  <excitation_energy_1>
1.255

>  <excitation_energy_2>
1.344

>  <excitation_energy_3>
3.082

>  <excitation_energy_4>
3.161

>  <homo_energy>
-6.476

>  <homo_lumo_gap>
2.694

>  <logP>
2.482

>  <lumo_energy>
-3.782

>  <melting_point>
58.5

>  <molecular_refractivity>
37.35

>  <oscillator_strength_1>
0.0

>  <oscillator_strength_2>
0.0004

>  <oscillator_strength_3>
0.0006

>  <oscillator_strength_4>
0.0

>  <open_babel_can_smiles>
[O][N]c1ccc(cc1)[N][O]

>  <mulliken_charges>
14
1   -0.129944
2   -0.138982
3   -0.138902
4   -0.130138
5   0.226252
6   0.226373
7   -0.042037
8   -0.042023
9   -0.263771
10   -0.263764
11   0.177081
12   0.171385
13   0.171386
14   0.177083

>  <lowdin_charges>
14
1   -0.13209
2   -0.123384
3   -0.123384
4   -0.132099
5   -0.002238
6   -0.002243
7   0.052377
8   0.052371
9   -0.157674
10   -0.157652
11   0.1842
12   0.178808
13   0.178809
14   0.184199

$$$$

