PCCDB-ID:  50010
public computational chemistry database (PCCDB) project, http://pccdb.org

 37 37  0  0  0  0  0  0  0  0999 V2000
    8.5889    0.7644   -5.5884 C   0  0  0  0  0  0  0  0  0  0  0  0
    7.1831    0.9477   -5.0072 C   0  0  0  0  0  0  0  0  0  0  0  0
    7.0808    0.5437   -3.5306 C   0  0  0  0  0  0  0  0  0  0  0  0
    5.6669    0.7197   -2.9558 C   0  0  0  0  0  0  0  0  0  0  0  0
    0.5287   -1.9228    2.7781 C   0  0  0  0  0  0  0  0  0  0  0  0
    0.5775   -0.6864    2.1313 C   0  0  0  0  0  0  0  0  0  0  0  0
    1.5433   -2.2820    3.6681 C   0  0  0  0  0  0  0  0  0  0  0  0
    5.4920    0.2507   -1.5017 C   0  0  0  0  0  0  0  0  0  0  0  0
    1.6365    0.1895    2.3725 C   0  0  0  0  0  0  0  0  0  0  0  0
    2.5995   -1.4042    3.9104 C   0  0  0  0  0  0  0  0  0  0  0  0
    6.2732    1.0906   -0.4951 C   0  0  0  0  0  0  0  0  0  0  0  0
    3.8102    0.7750    3.5269 C   0  0  0  0  0  0  0  0  0  0  0  0
    2.6566   -0.1613    3.2667 C   0  0  0  0  0  0  0  0  0  0  0  0
    4.9870    1.0327    1.4870 C   0  0  0  0  0  0  0  0  0  0  0  0
    4.1690    1.8158    1.0477 O   0  0  0  0  0  0  0  0  0  0  0  0
    6.0857    0.5990    0.8537 O   0  0  0  0  0  0  0  0  0  0  0  0
    4.9653    0.4608    2.7006 O   0  0  0  0  0  0  0  0  0  0  0  0
    8.6283    1.0642   -6.6417 H   0  0  0  0  0  0  0  0  0  0  0  0
    8.9096   -0.2829   -5.5279 H   0  0  0  0  0  0  0  0  0  0  0  0
    9.3255    1.3672   -5.0429 H   0  0  0  0  0  0  0  0  0  0  0  0
    6.4642    0.3572   -5.5928 H   0  0  0  0  0  0  0  0  0  0  0  0
    6.8750    1.9972   -5.1172 H   0  0  0  0  0  0  0  0  0  0  0  0
    7.8043    1.1347   -2.9512 H   0  0  0  0  0  0  0  0  0  0  0  0
    7.3879   -0.5071   -3.4201 H   0  0  0  0  0  0  0  0  0  0  0  0
    4.9609    0.1573   -3.5818 H   0  0  0  0  0  0  0  0  0  0  0  0
    5.3668    1.7747   -3.0374 H   0  0  0  0  0  0  0  0  0  0  0  0
   -0.2981   -2.6032    2.5917 H   0  0  0  0  0  0  0  0  0  0  0  0
   -0.2108   -0.4025    1.4391 H   0  0  0  0  0  0  0  0  0  0  0  0
    1.5094   -3.2423    4.1757 H   0  0  0  0  0  0  0  0  0  0  0  0
    5.8011   -0.7984   -1.4044 H   0  0  0  0  0  0  0  0  0  0  0  0
    4.4311    0.3011   -1.2318 H   0  0  0  0  0  0  0  0  0  0  0  0
    1.6862    1.1454    1.8599 H   0  0  0  0  0  0  0  0  0  0  0  0
    3.3878   -1.6833    4.6060 H   0  0  0  0  0  0  0  0  0  0  0  0
    5.9673    2.1398   -0.5367 H   0  0  0  0  0  0  0  0  0  0  0  0
    7.3517    1.0199   -0.6508 H   0  0  0  0  0  0  0  0  0  0  0  0
    4.1864    0.6637    4.5461 H   0  0  0  0  0  0  0  0  0  0  0  0
    3.5292    1.8153    3.3523 H   0  0  0  0  0  0  0  0  0  0  0  0
  1 19  1  0  0  0  0
  1 20  1  0  0  0  0
  1  2  1  0  0  0  0
  2  3  1  0  0  0  0
  3 24  1  0  0  0  0
  3  4  1  0  0  0  0
  3 23  1  0  0  0  0
  4  8  1  0  0  0  0
  5  7  2  0  0  0  0
  6  9  2  0  0  0  0
  6  5  1  0  0  0  0
  7 10  1  0  0  0  0
  7 29  1  0  0  0  0
  8 30  1  0  0  0  0
  8 31  1  0  0  0  0
  8 11  1  0  0  0  0
  9 13  1  0  0  0  0
 10 33  1  0  0  0  0
 11 16  1  0  0  0  0
 12 36  1  0  0  0  0
 13 12  1  0  0  0  0
 13 10  2  0  0  0  0
 14 17  1  0  0  0  0
 15 14  2  0  0  0  0
 16 14  1  0  0  0  0
 17 12  1  0  0  0  0
 18  1  1  0  0  0  0
 21  2  1  0  0  0  0
 22  2  1  0  0  0  0
 25  4  1  0  0  0  0
 26  4  1  0  0  0  0
 27  5  1  0  0  0  0
 28  6  1  0  0  0  0
 32  9  1  0  0  0  0
 34 11  1  0  0  0  0
 35 11  1  0  0  0  0
 37 12  1  0  0  0  0
M  END
>  <HBA>
3

>  <HBD>
0

>  <TPSA>
35.53

>  <cid>
50010

>  <dipole>
0.77

>  <excitation_energy_1>
5.297

>  <excitation_energy_2>
5.91

>  <excitation_energy_3>
6.354

>  <excitation_energy_4>
6.361

>  <homo_energy>
-6.787

>  <homo_lumo_gap>
6.49

>  <logP>
3.92

>  <lumo_energy>
-0.297

>  <melting_point>
16.33

>  <molecular_refractivity>
67.82

>  <oscillator_strength_1>
0.0024

>  <oscillator_strength_2>
0.0529

>  <oscillator_strength_3>
0.0046

>  <oscillator_strength_4>
0.0043

>  <open_babel_can_smiles>
CCCCCCOC(=O)OCc1ccccc1

>  <mulliken_charges>
37
1   -0.442467
2   -0.247301
3   -0.25113
4   -0.267769
5   -0.125757
6   -0.131084
7   -0.12961
8   -0.280894
9   -0.173284
10   -0.167601
11   -0.045166
12   -0.141665
13   0.142667
14   0.801593
15   -0.502077
16   -0.460743
17   -0.453458
18   0.14333
19   0.142409
20   0.141698
21   0.131944
22   0.132094
23   0.12959
24   0.130401
25   0.137216
26   0.135759
27   0.131578
28   0.132892
29   0.131869
30   0.144351
31   0.160598
32   0.157877
33   0.131695
34   0.166264
35   0.156791
36   0.160367
37   0.177023

>  <lowdin_charges>
37
1   -0.443282
2   -0.271723
3   -0.278242
4   -0.274881
5   -0.152324
6   -0.156493
7   -0.155796
8   -0.286511
9   -0.152641
10   -0.154534
11   -0.123465
12   -0.121692
13   -0.026266
14   0.234809
15   -0.304592
16   -0.177283
17   -0.179661
18   0.148822
19   0.145613
20   0.147633
21   0.140905
22   0.138429
23   0.1384
24   0.137717
25   0.147734
26   0.140462
27   0.159233
28   0.159867
29   0.158367
30   0.146126
31   0.157075
32   0.170285
33   0.159063
34   0.154826
35   0.151765
36   0.158638
37   0.163615

$$$$

