PCCDB-ID:  1004
public computational chemistry database (PCCDB) project, http://pccdb.org

  8  7  0  0  0  0  0  0  0  0999 V2000
    1.2054    0.2451   -0.0071 O   0  0  0  0  0  0  0  0  0  0  0  0
    2.7876   -1.7860    0.2836 O   0  0  0  0  0  0  0  0  0  0  0  0
    2.6638   -0.5012   -1.8504 O   0  0  0  0  0  0  0  0  0  0  0  0
    3.7398    0.6341    0.3136 O   0  0  0  0  0  0  0  0  0  0  0  0
    2.7115   -0.2535   -0.2547 P   0  0  0  0  0  0  0  0  0  0  0  0
    0.5491   -0.2913   -0.4825 H   0  0  0  0  0  0  0  0  0  0  0  0
    3.2269   -1.8037    1.1506 H   0  0  0  0  0  0  0  0  0  0  0  0
    3.4948   -0.8801   -2.1810 H   0  0  0  0  0  0  0  0  0  0  0  0
  2  7  1  0  0  0  0
  3  5  1  0  0  0  0
  5  1  1  0  0  0  0
  5  2  1  0  0  0  0
  5  4  2  0  0  0  0
  6  1  1  0  0  0  0
  8  3  1  0  0  0  0
M  END
>  <HBA>
4

>  <HBD>
3

>  <TPSA>
87.57

>  <cid>
1004

>  <dipole>
3.39

>  <excitation_energy_1>
6.695

>  <excitation_energy_2>
6.859

>  <excitation_energy_3>
7.783

>  <excitation_energy_4>
7.968

>  <homo_energy>
-8.147

>  <homo_lumo_gap>
8.651

>  <logP>
-0.929

>  <lumo_energy>
0.503

>  <melting_point>
101.55

>  <molecular_refractivity>
14.26

>  <oscillator_strength_1>
0.0181

>  <oscillator_strength_2>
0.0145

>  <oscillator_strength_3>
0.0229

>  <oscillator_strength_4>
0.0023

>  <open_babel_can_smiles>
OP(=O)(O)O

>  <mulliken_charges>
8
1   -0.619006
2   -0.651069
3   -0.644302
4   -0.52896
5   1.116781
6   0.441148
7   0.441905
8   0.443503

>  <lowdin_charges>
8
1   -0.555465
2   -0.582455
3   -0.571092
4   -0.573284
5   1.120085
6   0.388905
7   0.386315
8   0.386991

$$$$

