PCCDB-ID:  49298
public computational chemistry database (PCCDB) project, http://pccdb.org

 35 35  0  0  1  0  0  0  0  0999 V2000
    1.9291   -3.5719   -0.8081 C   0  0  0  0  0  0  0  0  0  0  0  0
    3.4282    3.3406   -2.5528 C   0  0  0  0  0  0  0  0  0  0  0  0
    3.7277    3.4374   -0.0346 C   0  0  0  0  0  0  0  0  0  0  0  0
    3.3927   -3.1662   -1.0146 C   0  0  0  0  0  0  0  0  0  0  0  0
    4.0656    1.2844   -1.2701 C   0  0  0  0  0  0  0  0  0  0  0  0
    3.5515   -1.6410   -1.0815 C   0  0  0  0  0  0  0  0  0  0  0  0
    5.0812    0.4128   -1.3634 C   0  0  0  0  0  0  0  0  0  0  0  0
    4.2079    2.7845   -1.3453 C   0  0  0  0  0  0  0  0  0  0  0  0
    5.5854   -1.6949   -2.5852 C   0  0  0  0  0  0  0  0  0  0  0  0
    5.9038   -1.5993   -0.1534 C   0  0  0  0  0  0  0  0  0  0  0  0
    6.8410   -3.2727   -1.4488 C   0  0  0  0  0  0  0  0  0  0  0  0
    5.0075   -1.1090   -1.2940 C   0  0  2  0  0  0  0  0  0  0  0  0
    6.4037   -2.6656   -2.6584 N   0  0  0  0  0  0  0  0  0  0  0  0
    6.7197   -2.5728   -0.2168 N   0  0  0  0  0  0  0  0  0  0  0  0
    5.1404   -1.1431   -3.7320 O   0  0  0  0  0  0  0  0  0  0  0  0
    5.7657   -0.9533    1.0220 O   0  0  0  0  0  0  0  0  0  0  0  0
    7.3506   -4.3691   -1.4732 O   0  0  0  0  0  0  0  0  0  0  0  0
    1.8324   -4.6614   -0.7622 H   0  0  0  0  0  0  0  0  0  0  0  0
    1.2948   -3.2158   -1.6292 H   0  0  0  0  0  0  0  0  0  0  0  0
    1.5274   -3.1624    0.1268 H   0  0  0  0  0  0  0  0  0  0  0  0
    3.5321    4.4299   -2.6077 H   0  0  0  0  0  0  0  0  0  0  0  0
    2.3583    3.1115   -2.4714 H   0  0  0  0  0  0  0  0  0  0  0  0
    3.7942    2.9181   -3.4951 H   0  0  0  0  0  0  0  0  0  0  0  0
    3.8351    4.5264   -0.0867 H   0  0  0  0  0  0  0  0  0  0  0  0
    4.3052    3.0812    0.8256 H   0  0  0  0  0  0  0  0  0  0  0  0
    2.6695    3.2154    0.1523 H   0  0  0  0  0  0  0  0  0  0  0  0
    3.7700   -3.6221   -1.9375 H   0  0  0  0  0  0  0  0  0  0  0  0
    4.0014   -3.5702   -0.1970 H   0  0  0  0  0  0  0  0  0  0  0  0
    3.0464    0.9225   -1.1290 H   0  0  0  0  0  0  0  0  0  0  0  0
    3.1642   -1.1988   -0.1543 H   0  0  0  0  0  0  0  0  0  0  0  0
    2.9278   -1.2509   -1.8962 H   0  0  0  0  0  0  0  0  0  0  0  0
    6.0902    0.8050   -1.5048 H   0  0  0  0  0  0  0  0  0  0  0  0
    5.2713    3.0235   -1.4810 H   0  0  0  0  0  0  0  0  0  0  0  0
    4.6256   -0.3450   -3.5154 H   0  0  0  0  0  0  0  0  0  0  0  0
    5.2005   -0.1721    0.8844 H   0  0  0  0  0  0  0  0  0  0  0  0
  1 18  1  0  0  0  0
  1 20  1  0  0  0  0
  2 22  1  0  0  0  0
  2  8  1  0  0  0  0
  3 26  1  0  0  0  0
  3 25  1  0  0  0  0
  4  1  1  0  0  0  0
  4 28  1  0  0  0  0
  5 29  1  0  0  0  0
  6  4  1  0  0  0  0
  6 30  1  0  0  0  0
  7  5  2  0  0  0  0
  8  5  1  0  0  0  0
  8  3  1  0  0  0  0
  9 12  1  0  0  0  0
 10 16  1  0  0  0  0
 11 14  1  0  0  0  0
 12  7  1  6  0  0  0
 12  6  1  0  0  0  0
 12 10  1  0  0  0  0
 13  9  2  0  0  0  0
 13 11  2  0  0  0  0
 14 10  2  0  0  0  0
 15 34  1  0  0  0  0
 15  9  1  0  0  0  0
 17 11  2  0  0  0  0
 19  1  1  0  0  0  0
 21  2  1  0  0  0  0
 23  2  1  0  0  0  0
 24  3  1  0  0  0  0
 27  4  1  0  0  0  0
 31  6  1  0  0  0  0
 32  7  1  0  0  0  0
 33  8  1  0  0  0  0
 35 16  1  0  0  0  0
M  END
>  <HBA>
5

>  <HBD>
2

>  <TPSA>
75.27

>  <cid>
49298

>  <dipole>
10.78

>  <excitation_energy_1>
4.01

>  <excitation_energy_2>
4.256

>  <excitation_energy_3>
5.016

>  <excitation_energy_4>
5.352

>  <homo_energy>
-6.781

>  <homo_lumo_gap>
5.374

>  <logP>
2.009

>  <lumo_energy>
-1.407

>  <melting_point>
149.37

>  <molecular_refractivity>
71.37

>  <oscillator_strength_1>
0.0007

>  <oscillator_strength_2>
0.0003

>  <oscillator_strength_3>
0.0615

>  <oscillator_strength_4>
0.0092

>  <open_babel_can_smiles>
CCC[C@@]1(/C=C/C(C)C)C(=N[C](=[N]=C1O)=O)O

>  <mulliken_charges>
35
1   -0.447542
2   -0.44686
3   -0.446825
4   -0.284197
5   -0.080531
6   -0.261007
7   -0.229543
8   -0.123998
9   0.543929
10   0.543526
11   0.615067
12   -0.154948
13   -0.465781
14   -0.465881
15   -0.575667
16   -0.575446
17   -0.431075
18   0.162267
19   0.144514
20   0.144648
21   0.159604
22   0.148347
23   0.150775
24   0.159596
25   0.150581
26   0.148399
27   0.171895
28   0.171799
29   0.146371
30   0.145136
31   0.144983
32   0.165523
33   0.143993
34   0.414104
35   0.414245

>  <lowdin_charges>
35
1   -0.441081
2   -0.438562
3   -0.439377
4   -0.284481
5   -0.149472
6   -0.269219
7   -0.209294
8   -0.116718
9   0.143064
10   0.143645
11   0.171207
12   -0.059605
13   -0.18338
14   -0.183104
15   -0.328451
16   -0.328813
17   -0.210657
18   0.159052
19   0.148637
20   0.148039
21   0.156967
22   0.149191
23   0.152913
24   0.15697
25   0.153422
26   0.149432
27   0.160055
28   0.160684
29   0.158622
30   0.148268
31   0.148835
32   0.167466
33   0.146673
34   0.359514
35   0.35956

$$$$

