PCCDB-ID:  7913
public computational chemistry database (PCCDB) project, http://pccdb.org

 12 11  0  0  0  0  0  0  0  0999 V2000
    0.9331    0.2999   -0.0605 C   0  0  0  0  0  0  0  0  0  0  0  0
   -1.1558   -0.3659    1.0993 C   0  0  0  0  0  0  0  0  0  0  0  0
    1.1194    1.5117    0.2833 N   0  0  0  0  0  0  0  0  0  0  0  0
   -1.7954    0.7233    1.2603 N   0  0  0  0  0  0  0  0  0  0  0  0
    0.0075   -0.6352    0.3878 N   0  0  0  0  0  0  0  0  0  0  0  0
    1.7131   -0.2785   -1.0057 O   0  0  0  0  0  0  0  0  0  0  0  0
   -1.5959   -1.5161    1.6648 O   0  0  0  0  0  0  0  0  0  0  0  0
    0.5374    1.7827    1.0736 H   0  0  0  0  0  0  0  0  0  0  0  0
   -1.4166    1.4815    0.6961 H   0  0  0  0  0  0  0  0  0  0  0  0
    0.2002   -1.6062    0.1778 H   0  0  0  0  0  0  0  0  0  0  0  0
    2.3897    0.3881   -1.2207 H   0  0  0  0  0  0  0  0  0  0  0  0
   -2.4493   -1.2882    2.0749 H   0  0  0  0  0  0  0  0  0  0  0  0
  1  3  2  0  0  0  0
  1  5  1  0  0  0  0
  2  4  2  0  0  0  0
  2  7  1  0  0  0  0
  3  8  1  0  0  0  0
  5  2  1  0  0  0  0
  6  1  1  0  0  0  0
  7 12  1  0  0  0  0
  9  4  1  0  0  0  0
 10  5  1  0  0  0  0
 11  6  1  0  0  0  0
M  END
>  <HBA>
5

>  <HBD>
3

>  <TPSA>
98.21

>  <cid>
7913

>  <dipole>
1.6

>  <excitation_energy_1>
6.109

>  <excitation_energy_2>
6.237

>  <excitation_energy_3>
6.544

>  <excitation_energy_4>
6.684

>  <homo_energy>
-6.923

>  <homo_lumo_gap>
7.108

>  <logP>
0.525

>  <lumo_energy>
0.185

>  <melting_point>
175.22

>  <molecular_refractivity>
21.12

>  <oscillator_strength_1>
0.026

>  <oscillator_strength_2>
0.1048

>  <oscillator_strength_3>
0.0314

>  <oscillator_strength_4>
0.0

>  <open_babel_can_smiles>
OC(=N)NC(=N)O

>  <mulliken_charges>
12
1   0.643151
2   0.643551
3   -0.631939
4   -0.632145
5   -0.645022
6   -0.593877
7   -0.594171
8   0.295522
9   0.295502
10   0.363928
11   0.427736
12   0.427765

>  <lowdin_charges>
12
1   0.165583
2   0.16909
3   -0.4611
4   -0.463556
5   -0.262004
6   -0.36922
7   -0.368656
8   0.266688
9   0.267463
10   0.309736
11   0.373417
12   0.372562

$$$$

