PCCDB-ID:  3484
public computational chemistry database (PCCDB) project, http://pccdb.org

 21 20  0  0  1  0  0  0  0  0999 V2000
    1.2908   -0.0958    0.1198 C   0  0  0  0  0  0  0  0  0  0  0  0
    0.6361    1.2868    0.3475 C   0  0  0  0  0  0  0  0  0  0  0  0
    2.8266   -0.1324   -0.0383 C   0  0  1  0  0  0  0  0  0  0  0  0
    1.0586    1.9706    1.6186 C   0  0  0  0  0  0  0  0  0  0  0  0
    3.3193    0.8205   -1.1513 C   0  0  0  0  0  0  0  0  0  0  0  0
    3.6607    0.0934    1.1548 N   0  0  0  0  0  0  0  0  0  0  0  0
    0.5372    1.8463    2.7793 N   0  0  0  0  0  0  0  0  0  0  0  0
    2.1872    2.7562    1.5856 O   0  0  0  0  0  0  0  0  0  0  0  0
    2.6560    1.1188   -2.1195 O   0  0  0  0  0  0  0  0  0  0  0  0
    4.5630    1.2790   -0.9496 O   0  0  0  0  0  0  0  0  0  0  0  0
   -0.5329    0.9169    2.7433 O   0  0  0  0  0  0  0  0  0  0  0  0
    0.8570   -0.5091   -0.7966 H   0  0  0  0  0  0  0  0  0  0  0  0
    1.0105   -0.7638    0.9421 H   0  0  0  0  0  0  0  0  0  0  0  0
   -0.4471    1.1470    0.3862 H   0  0  0  0  0  0  0  0  0  0  0  0
    0.8570    1.9312   -0.5118 H   0  0  0  0  0  0  0  0  0  0  0  0
    3.0818   -1.1388   -0.3988 H   0  0  0  0  0  0  0  0  0  0  0  0
    3.3415    0.9081    1.6779 H   0  0  0  0  0  0  0  0  0  0  0  0
    3.6442   -0.7092    1.7784 H   0  0  0  0  0  0  0  0  0  0  0  0
    2.3183    3.0768    0.6784 H   0  0  0  0  0  0  0  0  0  0  0  0
    4.8307    0.8972   -0.0727 H   0  0  0  0  0  0  0  0  0  0  0  0
   -0.8733    0.9811    3.6486 H   0  0  0  0  0  0  0  0  0  0  0  0
  1  2  1  0  0  0  0
  1 13  1  0  0  0  0
  2 14  1  0  0  0  0
  2  4  1  0  0  0  0
  3 16  1  6  0  0  0
  3  1  1  0  0  0  0
  3  6  1  0  0  0  0
  4  7  2  0  0  0  0
  5 10  1  0  0  0  0
  5  3  1  0  0  0  0
  6 17  1  0  0  0  0
  6 18  1  0  0  0  0
  8  4  1  0  0  0  0
  9  5  2  0  0  0  0
 10 20  1  0  0  0  0
 11  7  1  0  0  0  0
 11 21  1  0  0  0  0
 12  1  1  0  0  0  0
 15  2  1  0  0  0  0
 19  8  1  0  0  0  0
M  END
>  <HBA>
6

>  <HBD>
4

>  <TPSA>
112.65

>  <cid>
3484

>  <dipole>
3.55

>  <excitation_energy_1>
5.408

>  <excitation_energy_2>
5.602

>  <excitation_energy_3>
5.884

>  <excitation_energy_4>
6.065

>  <homo_energy>
-6.555

>  <homo_lumo_gap>
6.615

>  <logP>
-0.225

>  <lumo_energy>
0.06

>  <melting_point>
207.98

>  <molecular_refractivity>
34.36

>  <oscillator_strength_1>
0.002

>  <oscillator_strength_2>
0.0021

>  <oscillator_strength_3>
0.0028

>  <oscillator_strength_4>
0.0023

>  <open_babel_can_smiles>
O/N=C(\CC[C@@H](C(=O)O)N)/O

>  <mulliken_charges>
21
1   -0.255606
2   -0.352611
3   -0.103412
4   0.480163
5   0.5996
6   -0.793635
7   -0.231226
8   -0.60092
9   -0.471809
10   -0.580488
11   -0.522296
12   0.169826
13   0.158979
14   0.190107
15   0.170362
16   0.181103
17   0.357985
18   0.323923
19   0.424064
20   0.434148
21   0.421746

>  <lowdin_charges>
21
1   -0.277257
2   -0.307341
3   -0.113591
4   0.089381
5   0.169285
6   -0.558615
7   -0.093824
8   -0.376776
9   -0.264965
10   -0.354831
11   -0.390691
12   0.168416
13   0.157886
14   0.179238
15   0.166921
16   0.171017
17   0.278846
18   0.273639
19   0.364338
20   0.361672
21   0.357253

$$$$

