PCCDB-ID:  69746
public computational chemistry database (PCCDB) project, http://pccdb.org

 31 31  0  0  0  0  0  0  0  0999 V2000
    1.5889    0.5344    0.2874 C   0  0  0  0  0  0  0  0  0  0  0  0
    9.0368   -1.7725   -1.5639 C   0  0  0  0  0  0  0  0  0  0  0  0
    7.0075   -2.2847   -2.9173 C   0  0  0  0  0  0  0  0  0  0  0  0
    8.5997   -0.5533   -3.7443 C   0  0  0  0  0  0  0  0  0  0  0  0
    5.7539    1.9807   -0.2887 C   0  0  0  0  0  0  0  0  0  0  0  0
    7.1250    2.0925   -0.5097 C   0  0  0  0  0  0  0  0  0  0  0  0
    5.8158   -0.1336   -1.4645 C   0  0  0  0  0  0  0  0  0  0  0  0
    3.0455    0.8847    0.4790 C   0  0  0  0  0  0  0  0  0  0  0  0
    5.1104    0.8485   -0.7715 C   0  0  0  0  0  0  0  0  0  0  0  0
    7.1917   -0.0450   -1.7037 C   0  0  0  0  0  0  0  0  0  0  0  0
    7.8376    1.1075   -1.1980 C   0  0  0  0  0  0  0  0  0  0  0  0
    7.9484   -1.1476   -2.4717 C   0  0  0  0  0  0  0  0  0  0  0  0
    3.5407    1.3128    1.4929 O   0  0  0  0  0  0  0  0  0  0  0  0
    9.1916    1.2497   -1.3957 O   0  0  0  0  0  0  0  0  0  0  0  0
    3.7277    0.6438   -0.6816 O   0  0  0  0  0  0  0  0  0  0  0  0
    1.0420    0.7451    1.2068 H   0  0  0  0  0  0  0  0  0  0  0  0
    1.4882   -0.5245    0.0276 H   0  0  0  0  0  0  0  0  0  0  0  0
    1.1674    1.1145   -0.5401 H   0  0  0  0  0  0  0  0  0  0  0  0
    9.5790   -2.5507   -2.1150 H   0  0  0  0  0  0  0  0  0  0  0  0
    8.5821   -2.2380   -0.6817 H   0  0  0  0  0  0  0  0  0  0  0  0
    9.7595   -1.0279   -1.2243 H   0  0  0  0  0  0  0  0  0  0  0  0
    7.5881   -3.0439   -3.4531 H   0  0  0  0  0  0  0  0  0  0  0  0
    6.2244   -1.9290   -3.5969 H   0  0  0  0  0  0  0  0  0  0  0  0
    6.5267   -2.7804   -2.0661 H   0  0  0  0  0  0  0  0  0  0  0  0
    9.1280   -1.3406   -4.2961 H   0  0  0  0  0  0  0  0  0  0  0  0
    9.3159    0.2342   -3.5015 H   0  0  0  0  0  0  0  0  0  0  0  0
    7.8363   -0.1318   -4.4094 H   0  0  0  0  0  0  0  0  0  0  0  0
    5.2155    2.7460    0.2541 H   0  0  0  0  0  0  0  0  0  0  0  0
    7.6553    2.9669   -0.1352 H   0  0  0  0  0  0  0  0  0  0  0  0
    5.2505   -0.9850   -1.8217 H   0  0  0  0  0  0  0  0  0  0  0  0
    9.4759    2.0820   -0.9873 H   0  0  0  0  0  0  0  0  0  0  0  0
  1  8  1  0  0  0  0
  1 16  1  0  0  0  0
  2 21  1  0  0  0  0
  2 20  1  0  0  0  0
  3 12  1  0  0  0  0
  3 24  1  0  0  0  0
  4 26  1  0  0  0  0
  4 12  1  0  0  0  0
  5 28  1  0  0  0  0
  6  5  1  0  0  0  0
  6 29  1  0  0  0  0
  7  9  1  0  0  0  0
  8 13  2  0  0  0  0
  9 15  1  0  0  0  0
  9  5  2  0  0  0  0
 10  7  2  0  0  0  0
 10 11  1  0  0  0  0
 11  6  2  0  0  0  0
 12 10  1  0  0  0  0
 12  2  1  0  0  0  0
 14 11  1  0  0  0  0
 14 31  1  0  0  0  0
 15  8  1  0  0  0  0
 17  1  1  0  0  0  0
 18  1  1  0  0  0  0
 19  2  1  0  0  0  0
 22  3  1  0  0  0  0
 23  3  1  0  0  0  0
 25  4  1  0  0  0  0
 27  4  1  0  0  0  0
 30  7  1  0  0  0  0
M  END
>  <HBA>
3

>  <HBD>
1

>  <TPSA>
46.53

>  <cid>
69746

>  <dipole>
1.13

>  <excitation_energy_1>
4.874

>  <excitation_energy_2>
5.045

>  <excitation_energy_3>
5.058

>  <excitation_energy_4>
5.591

>  <homo_energy>
-5.804

>  <homo_lumo_gap>
5.714

>  <logP>
2.615

>  <lumo_energy>
-0.09

>  <melting_point>
79.92

>  <molecular_refractivity>
59.23

>  <oscillator_strength_1>
0.0435

>  <oscillator_strength_2>
0.0859

>  <oscillator_strength_3>
0.0378

>  <oscillator_strength_4>
0.016

>  <open_babel_can_smiles>
CC(=O)Oc1ccc(c(c1)C(C)(C)C)O

>  <mulliken_charges>
31
1   -0.525243
2   -0.451117
3   -0.456755
4   -0.451493
5   -0.149005
6   -0.205809
7   -0.25908
8   0.591908
9   0.353807
10   0.138861
11   0.300205
12   0.031119
13   -0.44926
14   -0.647002
15   -0.517308
16   0.183558
17   0.184054
18   0.184023
19   0.133653
20   0.139836
21   0.170469
22   0.142599
23   0.144255
24   0.144373
25   0.133497
26   0.170898
27   0.138457
28   0.157124
29   0.121263
30   0.139464
31   0.40865

>  <lowdin_charges>
31
1   -0.464097
2   -0.448351
3   -0.446926
4   -0.448883
5   -0.163656
6   -0.205768
7   -0.176906
8   0.208686
9   0.084391
10   -0.021214
11   0.094786
12   0.022231
13   -0.246134
14   -0.381809
15   -0.168234
16   0.176424
17   0.177866
18   0.179929
19   0.146212
20   0.148369
21   0.162293
22   0.152755
23   0.149245
24   0.14923
25   0.146134
26   0.162196
27   0.148182
28   0.178035
29   0.155375
30   0.172027
31   0.357612

$$$$

