PCCDB-ID:  69491
public computational chemistry database (PCCDB) project, http://pccdb.org

 24 23  0  0  0  0  0  0  0  0999 V2000
    1.3814   -0.1004   -0.1710 C   0  0  0  0  0  0  0  0  0  0  0  0
    0.5162   -0.8664   -1.1793 C   0  0  0  0  0  0  0  0  0  0  0  0
    2.8852   -0.2423   -0.4457 C   0  0  0  0  0  0  0  0  0  0  0  0
   -0.9884   -0.7112   -0.9227 C   0  0  0  0  0  0  0  0  0  0  0  0
    3.7675    0.5369    0.5345 C   0  0  0  0  0  0  0  0  0  0  0  0
   -1.8526   -1.4819   -1.9394 C   0  0  0  0  0  0  0  0  0  0  0  0
    3.8329   -0.0403    1.9317 C   0  0  0  0  0  0  0  0  0  0  0  0
   -3.3263   -1.3792   -1.6198 C   0  0  0  0  0  0  0  0  0  0  0  0
    3.3000   -1.0691    2.2872 O   0  0  0  0  0  0  0  0  0  0  0  0
   -4.1714   -0.9437   -2.3703 O   0  0  0  0  0  0  0  0  0  0  0  0
    1.1667   -0.4610    0.8421 H   0  0  0  0  0  0  0  0  0  0  0  0
    1.1065    0.9650   -0.1927 H   0  0  0  0  0  0  0  0  0  0  0  0
    0.7803   -1.9335   -1.1485 H   0  0  0  0  0  0  0  0  0  0  0  0
    0.7472   -0.5228   -2.1982 H   0  0  0  0  0  0  0  0  0  0  0  0
    3.1029    0.1015   -1.4655 H   0  0  0  0  0  0  0  0  0  0  0  0
    3.1636   -1.3027   -0.4034 H   0  0  0  0  0  0  0  0  0  0  0  0
   -1.2582    0.3533   -0.9547 H   0  0  0  0  0  0  0  0  0  0  0  0
   -1.2219   -1.0586    0.0939 H   0  0  0  0  0  0  0  0  0  0  0  0
    3.4465    1.5869    0.6233 H   0  0  0  0  0  0  0  0  0  0  0  0
    4.8080    0.5922    0.1759 H   0  0  0  0  0  0  0  0  0  0  0  0
   -1.5760   -2.5475   -1.9091 H   0  0  0  0  0  0  0  0  0  0  0  0
   -1.6928   -1.1188   -2.9602 H   0  0  0  0  0  0  0  0  0  0  0  0
    4.4425    0.5546    2.6504 H   0  0  0  0  0  0  0  0  0  0  0  0
   -3.6050   -1.7346   -0.5996 H   0  0  0  0  0  0  0  0  0  0  0  0
  1 11  1  0  0  0  0
  2 13  1  0  0  0  0
  2  4  1  0  0  0  0
  2  1  1  0  0  0  0
  3 16  1  0  0  0  0
  3  1  1  0  0  0  0
  3  5  1  0  0  0  0
  4 18  1  0  0  0  0
  5 19  1  0  0  0  0
  5  7  1  0  0  0  0
  6 21  1  0  0  0  0
  6  8  1  0  0  0  0
  6  4  1  0  0  0  0
  7  9  2  0  0  0  0
  7 23  1  0  0  0  0
  8 24  1  0  0  0  0
 10  8  2  0  0  0  0
 12  1  1  0  0  0  0
 14  2  1  0  0  0  0
 15  3  1  0  0  0  0
 17  4  1  0  0  0  0
 20  5  1  0  0  0  0
 22  6  1  0  0  0  0
M  END
>  <HBA>
2

>  <HBD>
0

>  <TPSA>
34.14

>  <cid>
69491

>  <dipole>
3.61

>  <excitation_energy_1>
4.221

>  <excitation_energy_2>
4.323

>  <excitation_energy_3>
5.64

>  <excitation_energy_4>
5.959

>  <homo_energy>
-6.759

>  <homo_lumo_gap>
6.071

>  <logP>
1.725

>  <lumo_energy>
-0.688

>  <melting_point>
35.56

>  <molecular_refractivity>
40.97

>  <oscillator_strength_1>
0.0004

>  <oscillator_strength_2>
0.0001

>  <oscillator_strength_3>
0.0002

>  <oscillator_strength_4>
0.0002

>  <open_babel_can_smiles>
O=CCCCCCCC=O

>  <mulliken_charges>
24
1   -0.261145
2   -0.252946
3   -0.252395
4   -0.274119
5   -0.351866
6   -0.330368
7   0.255797
8   0.256774
9   -0.383349
10   -0.383377
11   0.157583
12   0.124705
13   0.136721
14   0.13261
15   0.133429
16   0.153462
17   0.147353
18   0.141907
19   0.160705
20   0.165652
21   0.155729
22   0.162583
23   0.1067
24   0.097856

>  <lowdin_charges>
24
1   -0.275641
2   -0.269336
3   -0.271258
4   -0.269483
5   -0.31113
6   -0.305753
7   0.054621
8   0.059083
9   -0.221158
10   -0.218503
11   0.151534
12   0.134447
13   0.140788
14   0.139106
15   0.143788
16   0.151787
17   0.14508
18   0.14372
19   0.161888
20   0.167436
21   0.159911
22   0.159654
23   0.118985
24   0.110434

$$$$

