PCCDB-ID:  2310
public computational chemistry database (PCCDB) project, http://pccdb.org

 24 24  0  0  1  0  0  0  0  0999 V2000
    2.4792   -0.6674    1.5298 C   0  0  0  0  0  0  0  0  0  0  0  0
    2.7424   -0.5257   -2.3950 C   0  0  0  0  0  0  0  0  0  0  0  0
    2.3336   -0.2782    0.0528 C   0  0  0  0  0  0  0  0  0  0  0  0
    4.5005   -1.3500   -0.7995 C   0  0  0  0  0  0  0  0  0  0  0  0
    2.3570   -2.6077   -1.0355 C   0  0  0  0  0  0  0  0  0  0  0  0
    4.8805   -2.5034    0.1085 C   0  0  0  0  0  0  0  0  0  0  0  0
    2.7860   -3.4868    0.1368 C   0  0  0  0  0  0  0  0  0  0  0  0
    2.9782   -1.1923   -1.0261 C   0  0  2  0  0  0  0  0  0  0  0  0
    4.1404   -3.4588    0.5240 N   0  0  0  0  0  0  0  0  0  0  0  0
    6.1796   -2.5450    0.4824 O   0  0  0  0  0  0  0  0  0  0  0  0
    2.0017   -4.2246    0.7000 O   0  0  0  0  0  0  0  0  0  0  0  0
    1.9834    0.0836    2.1551 H   0  0  0  0  0  0  0  0  0  0  0  0
    3.5266   -0.7125    1.8495 H   0  0  0  0  0  0  0  0  0  0  0  0
    2.0201   -1.6340    1.7549 H   0  0  0  0  0  0  0  0  0  0  0  0
    3.2051    0.4683   -2.4366 H   0  0  0  0  0  0  0  0  0  0  0  0
    1.6705   -0.4024   -2.5873 H   0  0  0  0  0  0  0  0  0  0  0  0
    3.1616   -1.1280   -3.2100 H   0  0  0  0  0  0  0  0  0  0  0  0
    2.7474    0.7314   -0.0855 H   0  0  0  0  0  0  0  0  0  0  0  0
    1.2641   -0.1976   -0.1851 H   0  0  0  0  0  0  0  0  0  0  0  0
    5.0013   -1.5390   -1.7615 H   0  0  0  0  0  0  0  0  0  0  0  0
    4.9312   -0.4169   -0.4085 H   0  0  0  0  0  0  0  0  0  0  0  0
    1.2642   -2.5619   -1.0409 H   0  0  0  0  0  0  0  0  0  0  0  0
    2.6635   -3.1265   -1.9563 H   0  0  0  0  0  0  0  0  0  0  0  0
    6.6448   -1.7677    0.1326 H   0  0  0  0  0  0  0  0  0  0  0  0
  1 14  1  0  0  0  0
  1 13  1  0  0  0  0
  1 12  1  0  0  0  0
  3  1  1  0  0  0  0
  4 21  1  0  0  0  0
  4  6  1  0  0  0  0
  5  8  1  0  0  0  0
  5  7  1  0  0  0  0
  6 10  1  0  0  0  0
  6  9  2  0  0  0  0
  7  9  1  0  0  0  0
  7 11  2  0  0  0  0
  8  2  1  6  0  0  0
  8  4  1  0  0  0  0
  8  3  1  0  0  0  0
 15  2  1  0  0  0  0
 16  2  1  0  0  0  0
 17  2  1  0  0  0  0
 18  3  1  0  0  0  0
 19  3  1  0  0  0  0
 20  4  1  0  0  0  0
 22  5  1  0  0  0  0
 23  5  1  0  0  0  0
 24 10  1  0  0  0  0
M  END
>  <HBA>
3

>  <HBD>
1

>  <TPSA>
46.17

>  <cid>
2310

>  <dipole>
6.83

>  <excitation_energy_1>
4.036

>  <excitation_energy_2>
4.928

>  <excitation_energy_3>
5.571

>  <excitation_energy_4>
6.076

>  <homo_energy>
-6.512

>  <homo_lumo_gap>
5.513

>  <logP>
1.168

>  <lumo_energy>
-0.999

>  <melting_point>
83.33

>  <molecular_refractivity>
45.31

>  <oscillator_strength_1>
0.001

>  <oscillator_strength_2>
0.0002

>  <oscillator_strength_3>
0.0072

>  <oscillator_strength_4>
0.0339

>  <open_babel_can_smiles>
CC[C@@]1(C)CC(=NC(=O)C1)O

>  <mulliken_charges>
24
1   -0.4739
2   -0.45665
3   -0.256189
4   -0.394355
5   -0.360101
6   0.518512
7   0.540735
8   0.087278
9   -0.457191
10   -0.559823
11   -0.458873
12   0.150442
13   0.144439
14   0.184118
15   0.143699
16   0.154388
17   0.142542
18   0.12913
19   0.141649
20   0.176932
21   0.160097
22   0.168021
23   0.16118
24   0.413923

>  <lowdin_charges>
24
1   -0.456532
2   -0.44037
3   -0.271244
4   -0.3183
5   -0.31063
6   0.157837
7   0.162813
8   0.009255
9   -0.193622
10   -0.333515
11   -0.237173
12   0.157235
13   0.146495
14   0.167286
15   0.148821
16   0.154317
17   0.149014
18   0.139254
19   0.145917
20   0.170343
21   0.16083
22   0.166473
23   0.165074
24   0.360422

$$$$

