PCCDB-ID:  12803
public computational chemistry database (PCCDB) project, http://pccdb.org

 28 28  0  0  0  0  0  0  0  0999 V2000
    0.8446    0.9657   -1.0192 C   0  0  0  0  0  0  0  0  0  0  0  0
    2.9359    2.1620   -1.2293 C   0  0  0  0  0  0  0  0  0  0  0  0
    2.6631    3.3219    2.0191 C   0  0  0  0  0  0  0  0  0  0  0  0
    5.0086    2.8733    2.4043 C   0  0  0  0  0  0  0  0  0  0  0  0
    2.9850   -1.6855    1.4755 C   0  0  0  0  0  0  0  0  0  0  0  0
    3.8864   -1.1999    2.4147 C   0  0  0  0  0  0  0  0  0  0  0  0
    2.3806   -0.8001    0.5814 C   0  0  0  0  0  0  0  0  0  0  0  0
    4.1478    0.1702    2.4715 C   0  0  0  0  0  0  0  0  0  0  0  0
    2.6435    0.5770    0.6034 C   0  0  0  0  0  0  0  0  0  0  0  0
    3.5366    1.0824    1.5997 C   0  0  0  0  0  0  0  0  0  0  0  0
    2.0228    1.4589   -0.3242 N   0  0  0  0  0  0  0  0  0  0  0  0
    3.8110    2.4757    1.6822 N   0  0  0  0  0  0  0  0  0  0  0  0
    0.3559    1.8100   -1.5178 H   0  0  0  0  0  0  0  0  0  0  0  0
    0.1393    0.5329   -0.3039 H   0  0  0  0  0  0  0  0  0  0  0  0
    1.0671    0.2072   -1.7925 H   0  0  0  0  0  0  0  0  0  0  0  0
    3.3534    1.4903   -1.9999 H   0  0  0  0  0  0  0  0  0  0  0  0
    3.7530    2.6000   -0.6551 H   0  0  0  0  0  0  0  0  0  0  0  0
    2.3904    2.9666   -1.7357 H   0  0  0  0  0  0  0  0  0  0  0  0
    2.3710    3.2207    3.0792 H   0  0  0  0  0  0  0  0  0  0  0  0
    1.8151    3.0554    1.3871 H   0  0  0  0  0  0  0  0  0  0  0  0
    2.9233    4.3704    1.8340 H   0  0  0  0  0  0  0  0  0  0  0  0
    5.2057    3.9306    2.1953 H   0  0  0  0  0  0  0  0  0  0  0  0
    5.8667    2.2886    2.0606 H   0  0  0  0  0  0  0  0  0  0  0  0
    4.9273    2.7620    3.5014 H   0  0  0  0  0  0  0  0  0  0  0  0
    2.7604   -2.7471    1.4171 H   0  0  0  0  0  0  0  0  0  0  0  0
    4.3738   -1.8710    3.1168 H   0  0  0  0  0  0  0  0  0  0  0  0
    1.7097   -1.1976   -0.1721 H   0  0  0  0  0  0  0  0  0  0  0  0
    4.8232    0.5406    3.2350 H   0  0  0  0  0  0  0  0  0  0  0  0
  1 11  1  0  0  0  0
  1 14  1  0  0  0  0
  2 17  1  0  0  0  0
  2 11  1  0  0  0  0
  3 19  1  0  0  0  0
  4 24  1  0  0  0  0
  5  6  2  0  0  0  0
  6  8  1  0  0  0  0
  6 26  1  0  0  0  0
  7  9  2  0  0  0  0
  7  5  1  0  0  0  0
  8 28  1  0  0  0  0
  9 10  1  0  0  0  0
 10 12  1  0  0  0  0
 10  8  2  0  0  0  0
 11  9  1  0  0  0  0
 12  3  1  0  0  0  0
 12  4  1  0  0  0  0
 13  1  1  0  0  0  0
 15  1  1  0  0  0  0
 16  2  1  0  0  0  0
 18  2  1  0  0  0  0
 20  3  1  0  0  0  0
 21  3  1  0  0  0  0
 22  4  1  0  0  0  0
 23  4  1  0  0  0  0
 25  5  1  0  0  0  0
 27  7  1  0  0  0  0
M  END
>  <HBA>
2

>  <HBD>
0

>  <TPSA>
6.48

>  <cid>
12803

>  <dipole>
0.86

>  <excitation_energy_1>
4.477

>  <excitation_energy_2>
4.499

>  <excitation_energy_3>
4.861

>  <excitation_energy_4>
4.934

>  <homo_energy>
-4.999

>  <homo_lumo_gap>
5.434

>  <logP>
1.819

>  <lumo_energy>
0.435

>  <melting_point>
23.01

>  <molecular_refractivity>
54.86

>  <oscillator_strength_1>
0.0348

>  <oscillator_strength_2>
0.0768

>  <oscillator_strength_3>
0.0563

>  <oscillator_strength_4>
0.0029

>  <open_babel_can_smiles>
CN(c1ccccc1N(C)C)C

>  <mulliken_charges>
28
1   -0.304218
2   -0.313764
3   -0.313421
4   -0.304177
5   -0.140144
6   -0.140182
7   -0.1953
8   -0.194746
9   0.273788
10   0.272187
11   -0.461332
12   -0.461137
13   0.150101
14   0.160653
15   0.129868
16   0.129722
17   0.187223
18   0.140518
19   0.129801
20   0.186917
21   0.140537
22   0.150066
23   0.160654
24   0.129754
25   0.119912
26   0.119852
27   0.12344
28   0.123428

>  <lowdin_charges>
28
1   -0.358166
2   -0.362007
3   -0.356169
4   -0.3523
5   -0.167357
6   -0.170655
7   -0.192416
8   -0.192033
9   0.027763
10   0.027479
11   -0.144979
12   -0.145314
13   0.152668
14   0.157966
15   0.127179
16   0.130535
17   0.170944
18   0.14623
19   0.127909
20   0.170446
21   0.143702
22   0.150004
23   0.157305
24   0.124199
25   0.152351
26   0.155322
27   0.159731
28   0.159663

$$$$

