PCCDB-ID:  7750
public computational chemistry database (PCCDB) project, http://pccdb.org

 15 14  0  0  0  0  0  0  0  0999 V2000
    1.4277    1.2054   -0.7475 C   0  0  0  0  0  0  0  0  0  0  0  0
    5.9326   -2.2605    1.3578 C   0  0  0  0  0  0  0  0  0  0  0  0
    2.7239    0.9158    0.0066 C   0  0  0  0  0  0  0  0  0  0  0  0
    4.8009   -2.0248    0.7035 C   0  0  0  0  0  0  0  0  0  0  0  0
    3.1164   -0.5447   -0.0428 C   0  0  0  0  0  0  0  0  0  0  0  0
    2.5077   -1.4288   -0.5970 O   0  0  0  0  0  0  0  0  0  0  0  0
    4.2873   -0.7401    0.6438 O   0  0  0  0  0  0  0  0  0  0  0  0
    1.1808    2.2699   -0.6840 H   0  0  0  0  0  0  0  0  0  0  0  0
    0.5943    0.6317   -0.3314 H   0  0  0  0  0  0  0  0  0  0  0  0
    1.5184    0.9342   -1.8034 H   0  0  0  0  0  0  0  0  0  0  0  0
    6.3307   -3.2678    1.3987 H   0  0  0  0  0  0  0  0  0  0  0  0
    6.4815   -1.4686    1.8567 H   0  0  0  0  0  0  0  0  0  0  0  0
    2.6473    1.2034    1.0633 H   0  0  0  0  0  0  0  0  0  0  0  0
    3.5625    1.4995   -0.3946 H   0  0  0  0  0  0  0  0  0  0  0  0
    4.2061   -2.7687    0.1865 H   0  0  0  0  0  0  0  0  0  0  0  0
  1  8  1  0  0  0  0
  1  9  1  0  0  0  0
  1  3  1  0  0  0  0
  2 11  1  0  0  0  0
  2 12  1  0  0  0  0
  3 13  1  0  0  0  0
  4  2  2  0  0  0  0
  5  3  1  0  0  0  0
  5  7  1  0  0  0  0
  6  5  2  0  0  0  0
  7  4  1  0  0  0  0
 10  1  1  0  0  0  0
 14  3  1  0  0  0  0
 15  4  1  0  0  0  0
M  END
>  <HBA>
2

>  <HBD>
0

>  <TPSA>
26.3

>  <cid>
7750

>  <dipole>
1.57

>  <excitation_energy_1>
5.691

>  <excitation_energy_2>
5.939

>  <excitation_energy_3>
6.456

>  <excitation_energy_4>
6.859

>  <homo_energy>
-6.762

>  <homo_lumo_gap>
6.523

>  <logP>
1.083

>  <lumo_energy>
-0.239

>  <melting_point>
-34.06

>  <molecular_refractivity>
26.96

>  <oscillator_strength_1>
0.0007

>  <oscillator_strength_2>
0.3084

>  <oscillator_strength_3>
0.032

>  <oscillator_strength_4>
0.0291

>  <open_babel_can_smiles>
CCC(=O)OC=C

>  <mulliken_charges>
15
1   -0.437853
2   -0.388468
3   -0.360527
4   0.155065
5   0.628302
6   -0.460855
7   -0.460208
8   0.146517
9   0.164814
10   0.164531
11   0.154548
12   0.154804
13   0.178507
14   0.178377
15   0.182446

>  <lowdin_charges>
15
1   -0.437314
2   -0.364477
3   -0.298498
4   -0.036717
5   0.208865
6   -0.248708
7   -0.158247
8   0.152508
9   0.161585
10   0.159177
11   0.172127
12   0.170622
13   0.170676
14   0.172818
15   0.175582

$$$$

