PCCDB-ID:  24177
public computational chemistry database (PCCDB) project, http://pccdb.org

 25 26  0  0  0  0  0  0  0  0999 V2000
    2.6046    1.1582   -0.1218 C   0  0  0  0  0  0  0  0  0  0  0  0
   -1.8293    3.0750    0.0717 C   0  0  0  0  0  0  0  0  0  0  0  0
    1.8106    2.2694    0.0377 C   0  0  0  0  0  0  0  0  0  0  0  0
   -0.4695    3.2583    0.1445 C   0  0  0  0  0  0  0  0  0  0  0  0
    2.0221   -0.1164   -0.3125 C   0  0  0  0  0  0  0  0  0  0  0  0
   -2.3198    1.7660   -0.1532 C   0  0  0  0  0  0  0  0  0  0  0  0
   -1.1885   -3.7262    0.9497 C   0  0  0  0  0  0  0  0  0  0  0  0
   -1.2172   -2.2349    0.6111 C   0  0  0  0  0  0  0  0  0  0  0  0
    0.3978    2.1459   -0.0047 C   0  0  0  0  0  0  0  0  0  0  0  0
    0.6492   -0.2825   -0.3644 C   0  0  0  0  0  0  0  0  0  0  0  0
   -0.2038    0.8619   -0.2192 C   0  0  0  0  0  0  0  0  0  0  0  0
   -1.5548    0.7016   -0.2912 N   0  0  0  0  0  0  0  0  0  0  0  0
    0.0290   -4.1365    1.5446 O   0  0  0  0  0  0  0  0  0  0  0  0
    0.0049   -1.9038   -0.7408 S   0  0  0  0  0  0  0  0  0  0  0  0
    3.6868    1.2471   -0.0885 H   0  0  0  0  0  0  0  0  0  0  0  0
   -2.5220    3.9041    0.1790 H   0  0  0  0  0  0  0  0  0  0  0  0
    2.2496    3.2513    0.1965 H   0  0  0  0  0  0  0  0  0  0  0  0
   -0.0424    4.2444    0.3117 H   0  0  0  0  0  0  0  0  0  0  0  0
    2.6633   -0.9865   -0.4153 H   0  0  0  0  0  0  0  0  0  0  0  0
   -3.3943    1.5980   -0.2221 H   0  0  0  0  0  0  0  0  0  0  0  0
   -1.4224   -4.3216    0.0509 H   0  0  0  0  0  0  0  0  0  0  0  0
   -1.9725   -3.9325    1.6870 H   0  0  0  0  0  0  0  0  0  0  0  0
   -0.9217   -1.6526    1.4869 H   0  0  0  0  0  0  0  0  0  0  0  0
   -2.2064   -1.9092    0.2832 H   0  0  0  0  0  0  0  0  0  0  0  0
    0.7360   -3.8871    0.9253 H   0  0  0  0  0  0  0  0  0  0  0  0
  1 15  1  0  0  0  0
  1  3  2  0  0  0  0
  2  4  1  0  0  0  0
  2 16  1  0  0  0  0
  3 17  1  0  0  0  0
  4 18  1  0  0  0  0
  5  1  1  0  0  0  0
  6  2  2  0  0  0  0
  7 13  1  0  0  0  0
  7 22  1  0  0  0  0
  8  7  1  0  0  0  0
  8 23  1  0  0  0  0
  9  3  1  0  0  0  0
  9  4  2  0  0  0  0
 10  5  2  0  0  0  0
 10 11  1  0  0  0  0
 11  9  1  0  0  0  0
 12 11  2  0  0  0  0
 12  6  1  0  0  0  0
 14 10  1  0  0  0  0
 14  8  1  0  0  0  0
 19  5  1  0  0  0  0
 20  6  1  0  0  0  0
 21  7  1  0  0  0  0
 24  8  1  0  0  0  0
 25 13  1  0  0  0  0
M  END
>  <HBA>
3

>  <HBD>
1

>  <TPSA>
58.42

>  <cid>
24177

>  <dipole>
3.83

>  <excitation_energy_1>
3.473

>  <excitation_energy_2>
4.199

>  <excitation_energy_3>
4.249

>  <excitation_energy_4>
4.515

>  <homo_energy>
-5.875

>  <homo_lumo_gap>
4.191

>  <logP>
2.319

>  <lumo_energy>
-1.684

>  <melting_point>
94.93

>  <molecular_refractivity>
59.43

>  <oscillator_strength_1>
0.0618

>  <oscillator_strength_2>
0.0029

>  <oscillator_strength_3>
0.0009

>  <oscillator_strength_4>
0.0191

>  <open_babel_can_smiles>
OCCSc1cccc2c1nccc2

>  <mulliken_charges>
25
1   -0.119967
2   -0.153463
3   -0.199084
4   -0.148824
5   -0.161991
6   0.046162
7   -0.041515
8   -0.409929
9   0.171706
10   -0.107855
11   0.229768
12   -0.488666
13   -0.616785
14   0.077688
15   0.140404
16   0.142627
17   0.137331
18   0.146035
19   0.150119
20   0.144301
21   0.133485
22   0.153524
23   0.184173
24   0.188841
25   0.401915

>  <lowdin_charges>
25
1   -0.149495
2   -0.180227
3   -0.15548
4   -0.123481
5   -0.154212
6   -0.078775
7   -0.139917
8   -0.383405
9   -0.011434
10   -0.126372
11   0.035842
12   -0.142129
13   -0.470346
14   0.128356
15   0.162203
16   0.16785
17   0.160805
18   0.164428
19   0.170962
20   0.155697
21   0.131628
22   0.153834
23   0.17024
24   0.17039
25   0.343038

$$$$

