PCCDB-ID:  29926
public computational chemistry database (PCCDB) project, http://pccdb.org

 40 41  0  0  0  0  0  0  0  0999 V2000
    5.2178   -2.0509    0.2447 C   0  0  0  0  0  0  0  0  0  0  0  0
    6.9323    5.6152    0.0176 C   0  0  0  0  0  0  0  0  0  0  0  0
    6.8707    1.2130    7.2695 C   0  0  0  0  0  0  0  0  0  0  0  0
    4.6729   -0.6388    0.0081 C   0  0  0  0  0  0  0  0  0  0  0  0
    5.3096    0.4153    0.9244 C   0  0  0  0  0  0  0  0  0  0  0  0
    3.7028    2.7837    4.9471 C   0  0  0  0  0  0  0  0  0  0  0  0
    3.9202    3.0113    3.5928 C   0  0  0  0  0  0  0  0  0  0  0  0
    4.7125    2.2648    5.7648 C   0  0  0  0  0  0  0  0  0  0  0  0
    4.7557    1.8245    0.6806 C   0  0  0  0  0  0  0  0  0  0  0  0
    6.1773    2.2066    3.8310 C   0  0  0  0  0  0  0  0  0  0  0  0
    4.9895    4.3538    0.9805 C   0  0  0  0  0  0  0  0  0  0  0  0
    6.8209    3.3312    1.0502 C   0  0  0  0  0  0  0  0  0  0  0  0
    5.1713    2.7254    3.0170 C   0  0  0  0  0  0  0  0  0  0  0  0
    5.9571    1.9757    5.1975 C   0  0  0  0  0  0  0  0  0  0  0  0
    5.3881    2.9491    1.5344 C   0  0  0  0  0  0  0  0  0  0  0  0
    6.2265    4.3620    0.1776 N   0  0  0  0  0  0  0  0  0  0  0  0
    7.0252    1.4682    5.8836 O   0  0  0  0  0  0  0  0  0  0  0  0
    4.7426   -2.7807   -0.4209 H   0  0  0  0  0  0  0  0  0  0  0  0
    5.0402   -2.3761    1.2772 H   0  0  0  0  0  0  0  0  0  0  0  0
    6.2996   -2.0937    0.0672 H   0  0  0  0  0  0  0  0  0  0  0  0
    6.3265    6.3066   -0.5799 H   0  0  0  0  0  0  0  0  0  0  0  0
    7.8728    5.4437   -0.5189 H   0  0  0  0  0  0  0  0  0  0  0  0
    7.1704    6.1102    0.9804 H   0  0  0  0  0  0  0  0  0  0  0  0
    7.8301    0.8196    7.6109 H   0  0  0  0  0  0  0  0  0  0  0  0
    6.0861    0.4682    7.4592 H   0  0  0  0  0  0  0  0  0  0  0  0
    6.6368    2.1302    7.8266 H   0  0  0  0  0  0  0  0  0  0  0  0
    3.5837   -0.6377    0.1580 H   0  0  0  0  0  0  0  0  0  0  0  0
    4.8346   -0.3542   -1.0414 H   0  0  0  0  0  0  0  0  0  0  0  0
    6.3986    0.4118    0.7696 H   0  0  0  0  0  0  0  0  0  0  0  0
    5.1496    0.1287    1.9720 H   0  0  0  0  0  0  0  0  0  0  0  0
    2.7346    3.0130    5.3851 H   0  0  0  0  0  0  0  0  0  0  0  0
    3.1225    3.4192    2.9773 H   0  0  0  0  0  0  0  0  0  0  0  0
    4.5208    2.0979    6.8184 H   0  0  0  0  0  0  0  0  0  0  0  0
    3.6715    1.8215    0.8652 H   0  0  0  0  0  0  0  0  0  0  0  0
    4.8935    2.0942   -0.3750 H   0  0  0  0  0  0  0  0  0  0  0  0
    7.1585    1.9710    3.4304 H   0  0  0  0  0  0  0  0  0  0  0  0
    4.9805    5.1178    1.7764 H   0  0  0  0  0  0  0  0  0  0  0  0
    4.0610    4.4301    0.3986 H   0  0  0  0  0  0  0  0  0  0  0  0
    7.4126    2.5710    0.5246 H   0  0  0  0  0  0  0  0  0  0  0  0
    7.4288    3.7562    1.8670 H   0  0  0  0  0  0  0  0  0  0  0  0
  1 19  1  0  0  0  0
  2 16  1  0  0  0  0
  2 23  1  0  0  0  0
  3 25  1  0  0  0  0
  3 24  1  0  0  0  0
  3 26  1  0  0  0  0
  4 27  1  0  0  0  0
  4  1  1  0  0  0  0
  4  5  1  0  0  0  0
  5 30  1  0  0  0  0
  6 31  1  0  0  0  0
  6  8  2  0  0  0  0
  7  6  1  0  0  0  0
  8 33  1  0  0  0  0
  9 34  1  0  0  0  0
  9  5  1  0  0  0  0
  9 15  1  0  0  0  0
 10 14  2  0  0  0  0
 11 15  1  0  0  0  0
 11 37  1  0  0  0  0
 12 15  1  0  0  0  0
 12 40  1  0  0  0  0
 13  7  2  0  0  0  0
 13 10  1  0  0  0  0
 14  8  1  0  0  0  0
 14 17  1  0  0  0  0
 15 13  1  0  0  0  0
 16 11  1  0  0  0  0
 16 12  1  0  0  0  0
 17  3  1  0  0  0  0
 18  1  1  0  0  0  0
 20  1  1  0  0  0  0
 21  2  1  0  0  0  0
 22  2  1  0  0  0  0
 28  4  1  0  0  0  0
 29  5  1  0  0  0  0
 32  7  1  0  0  0  0
 35  9  1  0  0  0  0
 36 10  1  0  0  0  0
 38 11  1  0  0  0  0
 39 12  1  0  0  0  0
M  END
>  <HBA>
2

>  <HBD>
0

>  <TPSA>
12.47

>  <cid>
29926

>  <dipole>
1.89

>  <excitation_energy_1>
4.917

>  <excitation_energy_2>
5.016

>  <excitation_energy_3>
5.217

>  <excitation_energy_4>
5.327

>  <homo_energy>
-5.622

>  <homo_lumo_gap>
5.728

>  <logP>
3.006

>  <lumo_energy>
0.106

>  <melting_point>
40.77

>  <molecular_refractivity>
76.13

>  <oscillator_strength_1>
0.0198

>  <oscillator_strength_2>
0.0074

>  <oscillator_strength_3>
0.0255

>  <oscillator_strength_4>
0.0113

>  <open_babel_can_smiles>
CCCCC1(CN(C1)C)c1cccc(c1)OC

>  <mulliken_charges>
40
1   -0.441521
2   -0.299193
3   -0.213608
4   -0.246322
5   -0.25705
6   -0.138215
7   -0.181926
8   -0.199884
9   -0.264516
10   -0.238085
11   -0.126286
12   -0.130836
13   0.143055
14   0.380599
15   -0.030093
16   -0.389481
17   -0.508852
18   0.139939
19   0.142058
20   0.140481
21   0.149397
22   0.149445
23   0.116233
24   0.168476
25   0.150924
26   0.150836
27   0.129639
28   0.130268
29   0.126214
30   0.142631
31   0.127704
32   0.122582
33   0.128199
34   0.128932
35   0.147689
36   0.135859
37   0.122101
38   0.13295
39   0.137735
40   0.121925

>  <lowdin_charges>
40
1   -0.442843
2   -0.362079
3   -0.277835
4   -0.267273
5   -0.276238
6   -0.144787
7   -0.190923
8   -0.219134
9   -0.26536
10   -0.195465
11   -0.201339
12   -0.207565
13   0.006663
14   0.101853
15   0.005319
16   -0.192964
17   -0.200756
18   0.149475
19   0.145581
20   0.143935
21   0.151887
22   0.150407
23   0.119324
24   0.162204
25   0.145092
26   0.144947
27   0.136271
28   0.137115
29   0.134789
30   0.144673
31   0.156587
32   0.156292
33   0.159438
34   0.138811
35   0.149551
36   0.164821
37   0.130006
38   0.137876
39   0.140521
40   0.131121

$$$$

