PCCDB-ID:  7860
public computational chemistry database (PCCDB) project, http://pccdb.org

  6  5  0  0  0  0  0  0  0  0999 V2000
    1.1123   -0.0798   -0.0455 C   0  0  0  0  0  0  0  0  0  0  0  0
    0.3679   -0.9914    0.9246 C   0  0  0  0  0  0  0  0  0  0  0  0
    2.0691    0.5712    0.3060 O   0  0  0  0  0  0  0  0  0  0  0  0
   -0.5885   -1.6430    0.5728 O   0  0  0  0  0  0  0  0  0  0  0  0
    0.7049   -0.0697   -1.0771 H   0  0  0  0  0  0  0  0  0  0  0  0
    0.7749   -1.0010    1.9563 H   0  0  0  0  0  0  0  0  0  0  0  0
  1  3  2  0  0  0  0
  1  2  1  0  0  0  0
  2  6  1  0  0  0  0
  4  2  2  0  0  0  0
  5  1  1  0  0  0  0
M  END
>  <HBA>
2

>  <HBD>
0

>  <TPSA>
34.14

>  <cid>
7860

>  <dipole>
0.0

>  <excitation_energy_1>
2.575

>  <excitation_energy_2>
4.113

>  <excitation_energy_3>
6.085

>  <excitation_energy_4>
7.163

>  <homo_energy>
-7.334

>  <homo_lumo_gap>
4.223

>  <logP>
-0.616

>  <lumo_energy>
-3.11

>  <melting_point>
39.54

>  <molecular_refractivity>
12.13

>  <oscillator_strength_1>
0.0001

>  <oscillator_strength_2>
0.0

>  <oscillator_strength_3>
0.0

>  <oscillator_strength_4>
0.0

>  <open_babel_can_smiles>
O=CC=O

>  <mulliken_charges>
6
1   0.198623
2   0.198465
3   -0.343982
4   -0.34396
5   0.145424
6   0.145431

>  <lowdin_charges>
6
1   0.026012
2   0.025997
3   -0.165698
4   -0.165698
5   0.139696
6   0.139692

$$$$

