PCCDB-ID:  13667
public computational chemistry database (PCCDB) project, http://pccdb.org

 21 21  0  0  0  0  0  0  0  0999 V2000
    0.9435    1.4614   -1.2102 C   0  0  0  0  0  0  0  0  0  0  0  0
    6.4512    3.0708   -3.9885 C   0  0  0  0  0  0  0  0  0  0  0  0
    5.7788    3.5430   -2.8571 C   0  0  0  0  0  0  0  0  0  0  0  0
    6.3996    1.7194   -4.3096 C   0  0  0  0  0  0  0  0  0  0  0  0
    5.0556    2.6728   -2.0437 C   0  0  0  0  0  0  0  0  0  0  0  0
    5.6077   -0.5618   -3.8401 C   0  0  0  0  0  0  0  0  0  0  0  0
    5.6695    0.8287   -3.5024 C   0  0  0  0  0  0  0  0  0  0  0  0
    5.0013    1.3198   -2.3683 C   0  0  0  0  0  0  0  0  0  0  0  0
    3.0830    0.5186   -1.2096 C   0  0  0  0  0  0  0  0  0  0  0  0
    5.5733   -1.6827   -4.1484 N   0  0  0  0  0  0  0  0  0  0  0  0
    2.3323    1.4391   -1.6416 N   0  0  0  0  0  0  0  0  0  0  0  0
    2.8101   -0.5009   -0.3650 O   0  0  0  0  0  0  0  0  0  0  0  0
    4.3916    0.3846   -1.5541 O   0  0  0  0  0  0  0  0  0  0  0  0
    0.4500    2.3350   -1.6433 H   0  0  0  0  0  0  0  0  0  0  0  0
    0.8364    1.5378   -0.1153 H   0  0  0  0  0  0  0  0  0  0  0  0
    0.3840    0.5738   -1.5473 H   0  0  0  0  0  0  0  0  0  0  0  0
    7.0140    3.7548   -4.6160 H   0  0  0  0  0  0  0  0  0  0  0  0
    5.8177    4.5984   -2.6033 H   0  0  0  0  0  0  0  0  0  0  0  0
    6.9156    1.3336   -5.1826 H   0  0  0  0  0  0  0  0  0  0  0  0
    4.5296    3.0316   -1.1680 H   0  0  0  0  0  0  0  0  0  0  0  0
    1.8703   -0.4589   -0.1268 H   0  0  0  0  0  0  0  0  0  0  0  0
  1 15  1  0  0  0  0
  2  3  1  0  0  0  0
  3 18  1  0  0  0  0
  3  5  2  0  0  0  0
  4  2  2  0  0  0  0
  4  7  1  0  0  0  0
  5 20  1  0  0  0  0
  6  7  1  0  0  0  0
  7  8  2  0  0  0  0
  8  5  1  0  0  0  0
  8 13  1  0  0  0  0
  9 12  1  0  0  0  0
 10  6  3  0  0  0  0
 11  1  1  0  0  0  0
 11  9  2  0  0  0  0
 12 21  1  0  0  0  0
 13  9  1  0  0  0  0
 14  1  1  0  0  0  0
 16  1  1  0  0  0  0
 17  2  1  0  0  0  0
 19  4  1  0  0  0  0
M  END
>  <HBA>
4

>  <HBD>
1

>  <TPSA>
62.12

>  <cid>
13667

>  <dipole>
5.15

>  <excitation_energy_1>
4.766

>  <excitation_energy_2>
5.261

>  <excitation_energy_3>
5.448

>  <excitation_energy_4>
5.502

>  <homo_energy>
-6.844

>  <homo_lumo_gap>
5.532

>  <logP>
1.667

>  <lumo_energy>
-1.312

>  <melting_point>
105.4

>  <molecular_refractivity>
45.85

>  <oscillator_strength_1>
0.0537

>  <oscillator_strength_2>
0.0284

>  <oscillator_strength_3>
0.0672

>  <oscillator_strength_4>
0.0356

>  <open_babel_can_smiles>
C/N=C(/Oc1ccccc1C#N)\O

>  <mulliken_charges>
21
1   -0.362084
2   -0.129657
3   -0.132169
4   -0.147719
5   -0.125765
6   0.259436
7   0.09328
8   0.358095
9   0.668112
10   -0.477413
11   -0.426753
12   -0.579338
13   -0.517169
14   0.17921
15   0.143283
16   0.152546
17   0.145715
18   0.147418
19   0.162476
20   0.158836
21   0.429659

>  <lowdin_charges>
21
1   -0.364466
2   -0.158889
3   -0.132148
4   -0.128198
5   -0.15498
6   -0.007837
7   -0.036291
8   0.127692
9   0.19687
10   -0.114172
11   -0.259558
12   -0.343946
13   -0.131498
14   0.167436
15   0.136239
16   0.14428
17   0.168679
18   0.165623
19   0.17674
20   0.178894
21   0.36953

$$$$

