PCCDB-ID:  37297
public computational chemistry database (PCCDB) project, http://pccdb.org

 39 40  0  0  1  0  0  0  0  0999 V2000
    1.3823    1.2975    1.1943 C   0  0  0  0  0  0  0  0  0  0  0  0
    4.5938   -1.8800   -1.7671 C   0  0  0  0  0  0  0  0  0  0  0  0
    2.5522    1.0051    1.1378 C   0  0  0  0  0  0  0  0  0  0  0  0
    4.1566   -1.8264   -0.6416 C   0  0  0  0  0  0  0  0  0  0  0  0
   10.2273    0.9506    3.1360 C   0  0  0  0  0  0  0  0  0  0  0  0
   10.3857   -0.4415    2.4500 C   0  0  0  0  0  0  0  0  0  0  0  0
    3.9778    0.6732    1.0526 C   0  0  0  0  0  0  0  0  0  0  0  0
    3.6615   -1.7252    0.7465 C   0  0  0  0  0  0  0  0  0  0  0  0
    5.7281   -0.8624    1.7542 C   0  0  0  0  0  0  0  0  0  0  0  0
    6.1772   -0.3281    3.1239 C   0  0  0  0  0  0  0  0  0  0  0  0
   10.0850   -0.7727    4.8136 C   0  0  0  0  0  0  0  0  0  0  0  0
    8.0365    0.5888    4.3828 C   0  0  0  0  0  0  0  0  0  0  0  0
    8.2704   -1.5828    3.2950 C   0  0  0  0  0  0  0  0  0  0  0  0
    9.5693    0.6445    4.5062 C   0  0  2  0  0  0  0  0  0  0  0  0
    9.7948   -1.4528    3.4642 C   0  0  1  0  0  0  0  0  0  0  0  0
    4.2836   -0.6735    1.5597 N   0  0  0  0  0  0  0  0  0  0  0  0
    7.6273   -0.2658    3.2642 N   0  0  0  0  0  0  0  0  0  0  0  0
    0.3485    1.5542    1.2440 H   0  0  0  0  0  0  0  0  0  0  0  0
    4.9677   -1.9358   -2.7643 H   0  0  0  0  0  0  0  0  0  0  0  0
    9.6149    1.6337    2.5394 H   0  0  0  0  0  0  0  0  0  0  0  0
   11.2039    1.4266    3.2832 H   0  0  0  0  0  0  0  0  0  0  0  0
   11.4431   -0.6675    2.2688 H   0  0  0  0  0  0  0  0  0  0  0  0
    9.8707   -0.4867    1.4852 H   0  0  0  0  0  0  0  0  0  0  0  0
    4.5426    1.3949    1.6532 H   0  0  0  0  0  0  0  0  0  0  0  0
    4.3200    0.7994    0.0083 H   0  0  0  0  0  0  0  0  0  0  0  0
    3.8154   -2.6824    1.2592 H   0  0  0  0  0  0  0  0  0  0  0  0
    2.5803   -1.5441    0.7349 H   0  0  0  0  0  0  0  0  0  0  0  0
    5.9308   -1.9356    1.6901 H   0  0  0  0  0  0  0  0  0  0  0  0
    6.3264   -0.3819    0.9616 H   0  0  0  0  0  0  0  0  0  0  0  0
    5.7012   -0.9374    3.9170 H   0  0  0  0  0  0  0  0  0  0  0  0
    5.7931    0.6914    3.2503 H   0  0  0  0  0  0  0  0  0  0  0  0
    9.5698   -1.2467    5.6581 H   0  0  0  0  0  0  0  0  0  0  0  0
   11.1608   -0.7666    5.0320 H   0  0  0  0  0  0  0  0  0  0  0  0
    7.6378    1.5947    4.1957 H   0  0  0  0  0  0  0  0  0  0  0  0
    7.6074    0.2468    5.3473 H   0  0  0  0  0  0  0  0  0  0  0  0
    7.8666   -2.2197    4.1104 H   0  0  0  0  0  0  0  0  0  0  0  0
    8.0532   -2.0961    2.3514 H   0  0  0  0  0  0  0  0  0  0  0  0
    9.8361    1.3775    5.2761 H   0  0  0  0  0  0  0  0  0  0  0  0
   10.2435   -2.4490    3.3767 H   0  0  0  0  0  0  0  0  0  0  0  0
  1 18  1  0  0  0  0
  2  4  3  0  0  0  0
  3  1  3  0  0  0  0
  4  8  1  0  0  0  0
  5 21  1  0  0  0  0
  5 14  1  0  0  0  0
  6  5  1  0  0  0  0
  6 15  1  0  0  0  0
  7  3  1  0  0  0  0
  7 16  1  0  0  0  0
  7 24  1  0  0  0  0
  8 26  1  0  0  0  0
  8 16  1  0  0  0  0
  9 10  1  0  0  0  0
 10 31  1  0  0  0  0
 10 17  1  0  0  0  0
 10 30  1  0  0  0  0
 11 33  1  0  0  0  0
 11 32  1  0  0  0  0
 12 14  1  0  0  0  0
 12 35  1  0  0  0  0
 13 15  1  0  0  0  0
 13 36  1  0  0  0  0
 14 11  1  0  0  0  0
 14 38  1  1  0  0  0
 15 39  1  6  0  0  0
 15 11  1  0  0  0  0
 16  9  1  0  0  0  0
 17 13  1  0  0  0  0
 17 12  1  0  0  0  0
 19  2  1  0  0  0  0
 20  5  1  0  0  0  0
 22  6  1  0  0  0  0
 23  6  1  0  0  0  0
 25  7  1  0  0  0  0
 27  8  1  0  0  0  0
 28  9  1  0  0  0  0
 29  9  1  0  0  0  0
 34 12  1  0  0  0  0
 37 13  1  0  0  0  0
M  END
>  <HBA>
2

>  <HBD>
0

>  <TPSA>
6.48

>  <cid>
37297

>  <dipole>
0.67

>  <excitation_energy_1>
5.148

>  <excitation_energy_2>
5.49

>  <excitation_energy_3>
5.501

>  <excitation_energy_4>
5.596

>  <homo_energy>
-5.676

>  <homo_lumo_gap>
6.645

>  <logP>
1.225

>  <lumo_energy>
0.969

>  <melting_point>
52.59

>  <molecular_refractivity>
76.02

>  <oscillator_strength_1>
0.0092

>  <oscillator_strength_2>
0.0061

>  <oscillator_strength_3>
0.0138

>  <oscillator_strength_4>
0.0101

>  <open_babel_can_smiles>
C#CCN(CCN1C[C@@H]2CC[C@H](C1)C2)CC#C

>  <mulliken_charges>
39
1   -0.523896
2   -0.482399
3   0.377714
4   0.323927
5   -0.258188
6   -0.258554
7   -0.274912
8   -0.299152
9   -0.136182
10   -0.103438
11   -0.268008
12   -0.112585
13   -0.120488
14   -0.113811
15   -0.113404
16   -0.380038
17   -0.408556
18   0.191134
19   0.18788
20   0.139424
21   0.128367
22   0.128398
23   0.139259
24   0.176221
25   0.16623
26   0.176157
27   0.191607
28   0.146443
29   0.140313
30   0.119967
31   0.13506
32   0.128409
33   0.130775
34   0.134312
35   0.107493
36   0.105381
37   0.141471
38   0.118801
39   0.118869

>  <lowdin_charges>
39
1   -0.249879
2   -0.256325
3   -0.0405
4   -0.057952
5   -0.284454
6   -0.281202
7   -0.188657
8   -0.192022
9   -0.206867
10   -0.202974
11   -0.284667
12   -0.198865
13   -0.203777
14   -0.139075
15   -0.136355
16   -0.173237
17   -0.191948
18   0.203959
19   0.203627
20   0.149813
21   0.140866
22   0.139693
23   0.147743
24   0.171574
25   0.151835
26   0.167889
27   0.175756
28   0.147948
29   0.137441
30   0.123969
31   0.142807
32   0.141214
33   0.140647
34   0.140335
35   0.116201
36   0.116455
37   0.143982
38   0.143286
39   0.141713

$$$$

