PCCDB-ID:  66087
public computational chemistry database (PCCDB) project, http://pccdb.org

 10 10  0  0  0  0  0  0  0  0999 V2000
   -1.1751    0.0454    0.0101 C   0  0  0  0  0  0  0  0  0  0  0  0
   -0.3219   -1.0901   -0.0044 C   0  0  0  0  0  0  0  0  0  0  0  0
   -0.4820    1.2281    0.0214 C   0  0  0  0  0  0  0  0  0  0  0  0
    2.1265   -1.6292   -0.0144 C   0  0  0  0  0  0  0  0  0  0  0  0
    1.0150   -0.7518   -0.0031 C   0  0  0  0  0  0  0  0  0  0  0  0
    3.0433   -2.3478   -0.0232 N   0  0  0  0  0  0  0  0  0  0  0  0
    1.2290    0.9860    0.0151 S   0  0  0  0  0  0  0  0  0  0  0  0
   -2.2575   -0.0135    0.0117 H   0  0  0  0  0  0  0  0  0  0  0  0
   -0.6653   -2.1179   -0.0138 H   0  0  0  0  0  0  0  0  0  0  0  0
   -0.8803    2.2340    0.0342 H   0  0  0  0  0  0  0  0  0  0  0  0
  1  8  1  0  0  0  0
  1  3  2  0  0  0  0
  2  5  2  0  0  0  0
  2  1  1  0  0  0  0
  3 10  1  0  0  0  0
  4  5  1  0  0  0  0
  5  7  1  0  0  0  0
  6  4  3  0  0  0  0
  7  3  1  0  0  0  0
  9  2  1  0  0  0  0
M  END
>  <HBA>
2

>  <HBD>
0

>  <TPSA>
52.03

>  <cid>
66087

>  <dipole>
4.75

>  <excitation_energy_1>
4.972

>  <excitation_energy_2>
5.372

>  <excitation_energy_3>
5.474

>  <excitation_energy_4>
5.996

>  <homo_energy>
-6.966

>  <homo_lumo_gap>
5.279

>  <logP>
1.62

>  <lumo_energy>
-1.687

>  <melting_point>
40.28

>  <molecular_refractivity>
29.03

>  <oscillator_strength_1>
0.2265

>  <oscillator_strength_2>
0.1009

>  <oscillator_strength_3>
0.0001

>  <oscillator_strength_4>
0.0004

>  <open_babel_can_smiles>
N#Cc1cccs1

>  <mulliken_charges>
10
1   -0.100409
2   -0.07272
3   -0.331057
4   0.306824
5   -0.175227
6   -0.474782
7   0.328626
8   0.159657
9   0.16949
10   0.189598

>  <lowdin_charges>
10
1   -0.173019
2   -0.142729
3   -0.300811
4   -0.014087
5   -0.177917
6   -0.109118
7   0.37287
8   0.173414
9   0.180742
10   0.190655

$$$$

