PCCDB-ID:  36984
public computational chemistry database (PCCDB) project, http://pccdb.org

 36 36  0  0  1  0  0  0  0  0999 V2000
    4.2098    0.4254    2.6419 C   0  0  0  0  0  0  0  0  0  0  0  0
    3.3810    2.6951   -1.2333 C   0  0  0  0  0  0  0  0  0  0  0  0
    3.0589    1.4275    2.4909 C   0  0  0  0  0  0  0  0  0  0  0  0
    3.5654    6.1190    1.5745 C   0  0  0  0  0  0  0  0  0  0  0  0
    2.7065    1.7761    1.0353 C   0  0  0  0  0  0  0  0  0  0  0  0
    3.2167    4.8908    1.0130 C   0  0  0  0  0  0  0  0  0  0  0  0
    4.8699    6.3586    2.0077 C   0  0  0  0  0  0  0  0  0  0  0  0
    5.4718    4.1110    1.3085 C   0  0  0  0  0  0  0  0  0  0  0  0
    9.8125    5.8553    2.8730 C   0  0  0  0  0  0  0  0  0  0  0  0
    3.8009    2.5267    0.2401 C   0  0  2  0  0  0  0  0  0  0  0  0
    4.1651    3.8664    0.8687 C   0  0  0  0  0  0  0  0  0  0  0  0
    5.8054    5.3390    1.8720 C   0  0  0  0  0  0  0  0  0  0  0  0
    7.5543    5.6204    3.5020 C   0  0  0  0  0  0  0  0  0  0  0  0
    8.7571    5.7652    3.8638 N   0  0  0  0  0  0  0  0  0  0  0  0
   11.0277    5.3794    3.4089 O   0  0  0  0  0  0  0  0  0  0  0  0
    6.5423    5.5181    4.3902 O   0  0  0  0  0  0  0  0  0  0  0  0
    7.1489    5.5562    2.2099 O   0  0  0  0  0  0  0  0  0  0  0  0
    4.3693    0.1683    3.6952 H   0  0  0  0  0  0  0  0  0  0  0  0
    5.1556    0.8246    2.2583 H   0  0  0  0  0  0  0  0  0  0  0  0
    3.9988   -0.5058    2.1008 H   0  0  0  0  0  0  0  0  0  0  0  0
    3.1945    1.7181   -1.6945 H   0  0  0  0  0  0  0  0  0  0  0  0
    4.1603    3.2027   -1.8118 H   0  0  0  0  0  0  0  0  0  0  0  0
    2.4612    3.2854   -1.3221 H   0  0  0  0  0  0  0  0  0  0  0  0
    3.2994    2.3473    3.0395 H   0  0  0  0  0  0  0  0  0  0  0  0
    2.1623    1.0120    2.9698 H   0  0  0  0  0  0  0  0  0  0  0  0
    2.8170    6.9006    1.6729 H   0  0  0  0  0  0  0  0  0  0  0  0
    1.7874    2.3786    1.0248 H   0  0  0  0  0  0  0  0  0  0  0  0
    2.4672    0.8499    0.4927 H   0  0  0  0  0  0  0  0  0  0  0  0
    2.1949    4.7319    0.6792 H   0  0  0  0  0  0  0  0  0  0  0  0
    5.1583    7.3092    2.4434 H   0  0  0  0  0  0  0  0  0  0  0  0
    6.2428    3.3519    1.2119 H   0  0  0  0  0  0  0  0  0  0  0  0
    9.9056    6.9067    2.5498 H   0  0  0  0  0  0  0  0  0  0  0  0
    9.6152    5.2458    1.9836 H   0  0  0  0  0  0  0  0  0  0  0  0
    4.7079    1.9086    0.2490 H   0  0  0  0  0  0  0  0  0  0  0  0
   11.1025    5.7690    4.2949 H   0  0  0  0  0  0  0  0  0  0  0  0
    6.9683    5.5573    5.2644 H   0  0  0  0  0  0  0  0  0  0  0  0
  1 18  1  0  0  0  0
  2 10  1  0  0  0  0
  3  1  1  0  0  0  0
  3 25  1  0  0  0  0
  3 24  1  0  0  0  0
  4 26  1  0  0  0  0
  4  7  2  0  0  0  0
  5  3  1  0  0  0  0
  6  4  1  0  0  0  0
  7 30  1  0  0  0  0
  8 12  2  0  0  0  0
  9 15  1  0  0  0  0
  9 14  1  0  0  0  0
 10 34  1  1  0  0  0
 10 11  1  0  0  0  0
 10  5  1  0  0  0  0
 11  6  2  0  0  0  0
 11  8  1  0  0  0  0
 12  7  1  0  0  0  0
 12 17  1  0  0  0  0
 13 14  2  0  0  0  0
 13 16  1  0  0  0  0
 15 35  1  0  0  0  0
 16 36  1  0  0  0  0
 17 13  1  0  0  0  0
 19  1  1  0  0  0  0
 20  1  1  0  0  0  0
 21  2  1  0  0  0  0
 22  2  1  0  0  0  0
 23  2  1  0  0  0  0
 27  5  1  0  0  0  0
 28  5  1  0  0  0  0
 29  6  1  0  0  0  0
 31  8  1  0  0  0  0
 32  9  1  0  0  0  0
 33  9  1  0  0  0  0
M  END
>  <HBA>
4

>  <HBD>
2

>  <TPSA>
58.56

>  <cid>
36984

>  <dipole>
3.15

>  <excitation_energy_1>
5.233

>  <excitation_energy_2>
5.705

>  <excitation_energy_3>
5.934

>  <excitation_energy_4>
5.953

>  <homo_energy>
-6.528

>  <homo_lumo_gap>
6.338

>  <logP>
3.019

>  <lumo_energy>
-0.19

>  <melting_point>
87.46

>  <molecular_refractivity>
66.49

>  <oscillator_strength_1>
0.0033

>  <oscillator_strength_2>
0.0571

>  <oscillator_strength_3>
0.0269

>  <oscillator_strength_4>
0.0016

>  <open_babel_can_smiles>
CCC[C@H](c1cccc(c1)O/C(=N\CO)/O)C

>  <mulliken_charges>
36
1   -0.444201
2   -0.444343
3   -0.254449
4   -0.143271
5   -0.250582
6   -0.177639
7   -0.142341
8   -0.227615
9   0.089384
10   -0.169185
11   0.176503
12   0.354761
13   0.717598
14   -0.521274
15   -0.610126
16   -0.589124
17   -0.537489
18   0.144837
19   0.144133
20   0.13994
21   0.144379
22   0.151116
23   0.143626
24   0.146068
25   0.131397
26   0.136476
27   0.1286
28   0.12888
29   0.130094
30   0.14105
31   0.139454
32   0.126025
33   0.151289
34   0.133598
35   0.386695
36   0.425733

>  <lowdin_charges>
36
1   -0.445947
2   -0.441485
3   -0.277795
4   -0.147167
5   -0.274577
6   -0.168458
7   -0.170786
8   -0.183947
9   -0.066609
10   -0.124152
11   0.010855
12   0.104389
13   0.196064
14   -0.282169
15   -0.460037
16   -0.353251
17   -0.160408
18   0.150306
19   0.145703
20   0.145371
21   0.149874
22   0.155004
23   0.147769
24   0.147677
25   0.143603
26   0.162166
27   0.140764
28   0.141218
29   0.156679
30   0.168385
31   0.167404
32   0.122877
33   0.142386
34   0.144423
35   0.339666
36   0.374204

$$$$

