PCCDB-ID:  12509
public computational chemistry database (PCCDB) project, http://pccdb.org

 18 17  0  0  0  0  0  0  0  0999 V2000
    4.2971   -1.8338    2.9487 C   0  0  0  0  0  0  0  0  0  0  0  0
    3.4420   -1.2744    1.8221 C   0  0  0  0  0  0  0  0  0  0  0  0
    5.5274   -1.2442   -1.2567 C   0  0  0  0  0  0  0  0  0  0  0  0
    4.9585   -0.7542    0.0618 C   0  0  0  0  0  0  0  0  0  0  0  0
    7.1293   -0.6475   -2.8987 N   0  0  0  0  0  0  0  0  0  0  0  0
    6.0822   -0.1185   -2.0010 N   0  0  0  0  0  0  0  0  0  0  0  0
    5.3438    0.2426    0.6375 O   0  0  0  0  0  0  0  0  0  0  0  0
    4.0081   -1.5880    0.5239 O   0  0  0  0  0  0  0  0  0  0  0  0
    3.8097   -1.6464    3.9123 H   0  0  0  0  0  0  0  0  0  0  0  0
    5.2791   -1.3525    2.9629 H   0  0  0  0  0  0  0  0  0  0  0  0
    4.4325   -2.9145    2.8363 H   0  0  0  0  0  0  0  0  0  0  0  0
    3.3344   -0.1903    1.9044 H   0  0  0  0  0  0  0  0  0  0  0  0
    2.4525   -1.7371    1.8005 H   0  0  0  0  0  0  0  0  0  0  0  0
    4.7402   -1.7426   -1.8339 H   0  0  0  0  0  0  0  0  0  0  0  0
    6.2935   -2.0077   -1.0268 H   0  0  0  0  0  0  0  0  0  0  0  0
    7.5325    0.1934   -3.3202 H   0  0  0  0  0  0  0  0  0  0  0  0
    6.6007   -1.0539   -3.6761 H   0  0  0  0  0  0  0  0  0  0  0  0
    6.5902    0.4362   -1.3099 H   0  0  0  0  0  0  0  0  0  0  0  0
  1 10  1  0  0  0  0
  1  9  1  0  0  0  0
  2 12  1  0  0  0  0
  2  1  1  0  0  0  0
  3 15  1  0  0  0  0
  3  4  1  0  0  0  0
  4  8  1  0  0  0  0
  4  7  2  0  0  0  0
  5  6  1  0  0  0  0
  6 18  1  0  0  0  0
  6  3  1  0  0  0  0
  8  2  1  0  0  0  0
 11  1  1  0  0  0  0
 13  2  1  0  0  0  0
 14  3  1  0  0  0  0
 16  5  1  0  0  0  0
 17  5  1  0  0  0  0
M  END
>  <HBA>
4

>  <HBD>
2

>  <TPSA>
64.35

>  <cid>
12509

>  <dipole>
1.39

>  <excitation_energy_1>
4.718

>  <excitation_energy_2>
4.927

>  <excitation_energy_3>
5.572

>  <excitation_energy_4>
5.901

>  <homo_energy>
-5.418

>  <homo_lumo_gap>
5.685

>  <logP>
0.104

>  <lumo_energy>
0.267

>  <melting_point>
68.63

>  <molecular_refractivity>
28.14

>  <oscillator_strength_1>
0.0013

>  <oscillator_strength_2>
0.0047

>  <oscillator_strength_3>
0.0042

>  <oscillator_strength_4>
0.0164

>  <open_babel_can_smiles>
CCOC(=O)CNN

>  <mulliken_charges>
18
1   -0.463133
2   -0.047445
3   -0.18747
4   0.618
5   -0.593954
6   -0.48016
7   -0.482758
8   -0.457962
9   0.152719
10   0.176862
11   0.159047
12   0.174168
13   0.155756
14   0.167389
15   0.168019
16   0.306847
17   0.307153
18   0.326922

>  <lowdin_charges>
18
1   -0.452888
2   -0.123578
3   -0.237215
4   0.197781
5   -0.493185
6   -0.319404
7   -0.270774
8   -0.188316
9   0.160092
10   0.165287
11   0.155256
12   0.158453
13   0.153402
14   0.161114
15   0.157597
16   0.256723
17   0.254744
18   0.264911

$$$$

