PCCDB-ID:  11600
public computational chemistry database (PCCDB) project, http://pccdb.org

 16 15  0  0  0  0  0  0  0  0999 V2000
    0.7658    0.2136    0.0767 C   0  0  0  0  0  0  0  0  0  0  0  0
    6.8567   -0.5953    1.8190 C   0  0  0  0  0  0  0  0  0  0  0  0
    2.2638    0.2173    0.0084 C   0  0  0  0  0  0  0  0  0  0  0  0
    5.3588   -0.5967    1.8884 C   0  0  0  0  0  0  0  0  0  0  0  0
    3.0849   -0.1928    0.9895 C   0  0  0  0  0  0  0  0  0  0  0  0
    4.5377   -0.1842    0.9082 C   0  0  0  0  0  0  0  0  0  0  0  0
    0.3307   -0.4173   -0.7111 H   0  0  0  0  0  0  0  0  0  0  0  0
    0.3557    1.2223   -0.0712 H   0  0  0  0  0  0  0  0  0  0  0  0
    0.4077   -0.1584    1.0427 H   0  0  0  0  0  0  0  0  0  0  0  0
    7.2640   -1.6089    1.9406 H   0  0  0  0  0  0  0  0  0  0  0  0
    7.2943    0.0138    2.6223 H   0  0  0  0  0  0  0  0  0  0  0  0
    7.2152   -0.2003    0.8623 H   0  0  0  0  0  0  0  0  0  0  0  0
    2.7039    0.5844   -0.9207 H   0  0  0  0  0  0  0  0  0  0  0  0
    4.9187   -0.9668    2.8162 H   0  0  0  0  0  0  0  0  0  0  0  0
    2.6521   -0.5609    1.9216 H   0  0  0  0  0  0  0  0  0  0  0  0
    4.9706    0.1869   -0.0227 H   0  0  0  0  0  0  0  0  0  0  0  0
  1  9  1  0  0  0  0
  2  4  1  0  0  0  0
  2 10  1  0  0  0  0
  2 11  1  0  0  0  0
  3  1  1  0  0  0  0
  3  5  2  0  0  0  0
  4 14  1  0  0  0  0
  5 15  1  0  0  0  0
  6  5  1  0  0  0  0
  6  4  2  0  0  0  0
  7  1  1  0  0  0  0
  8  1  1  0  0  0  0
 12  2  1  0  0  0  0
 13  3  1  0  0  0  0
 16  6  1  0  0  0  0
M  END
>  <HBA>
0

>  <HBD>
0

>  <TPSA>
0.0

>  <cid>
11600

>  <dipole>
0.0

>  <excitation_energy_1>
5.527

>  <excitation_energy_2>
5.537

>  <excitation_energy_3>
5.613

>  <excitation_energy_4>
5.684

>  <homo_energy>
-5.649

>  <homo_lumo_gap>
5.415

>  <logP>
2.139

>  <lumo_energy>
-0.234

>  <melting_point>
-6.98

>  <molecular_refractivity>
30.01

>  <oscillator_strength_1>
0.8924

>  <oscillator_strength_2>
0.0029

>  <oscillator_strength_3>
0.0005

>  <oscillator_strength_4>
0.0

>  <open_babel_can_smiles>
C/C=C/C=C/C

>  <mulliken_charges>
16
1   -0.488729
2   -0.488791
3   -0.10916
4   -0.109114
5   -0.099926
6   -0.09995
7   0.155743
8   0.155448
9   0.152407
10   0.155743
11   0.15547
12   0.152421
13   0.12065
14   0.12065
15   0.11357
16   0.113569

>  <lowdin_charges>
16
1   -0.438703
2   -0.43871
3   -0.161114
4   -0.16112
5   -0.164501
6   -0.164516
7   0.157954
8   0.156226
9   0.154428
10   0.156274
11   0.157815
12   0.154526
13   0.147637
14   0.14765
15   0.148073
16   0.148081

$$$$

