PCCDB-ID:  37589
public computational chemistry database (PCCDB) project, http://pccdb.org

 32 34  0  0  1  0  0  0  0  0999 V2000
    1.2420    0.1883   -0.0967 C   0  0  0  0  0  0  0  0  0  0  0  0
    3.9827   -6.0735    5.8451 C   0  0  0  0  0  0  0  0  0  0  0  0
    4.5335   -4.9070    6.3880 C   0  0  0  0  0  0  0  0  0  0  0  0
    3.3797   -6.0563    4.5826 C   0  0  0  0  0  0  0  0  0  0  0  0
    4.4913   -3.7046    5.6804 C   0  0  0  0  0  0  0  0  0  0  0  0
    3.7572   -0.4162    2.4336 C   0  0  0  0  0  0  0  0  0  0  0  0
    4.0673   -1.2457    3.5144 C   0  0  0  0  0  0  0  0  0  0  0  0
    2.7243   -2.2644    1.2568 C   0  0  0  0  0  0  0  0  0  0  0  0
    2.7492   -4.5735    2.5043 C   0  0  0  0  0  0  0  0  0  0  0  0
    2.7507    0.0229    0.1387 C   0  0  1  0  0  0  0  0  0  0  0  0
    3.0854   -0.9035    1.3007 C   0  0  0  0  0  0  0  0  0  0  0  0
    3.3350   -4.8615    3.8728 C   0  0  0  0  0  0  0  0  0  0  0  0
    3.0289   -3.0944    2.3254 C   0  0  0  0  0  0  0  0  0  0  0  0
    3.8902   -3.6858    4.4198 C   0  0  0  0  0  0  0  0  0  0  0  0
    3.7012   -2.5902    3.4606 C   0  0  0  0  0  0  0  0  0  0  0  0
    3.4606   -0.3910   -1.1672 C   0  0  0  0  0  0  0  0  0  0  0  0
    2.9740   -0.2797   -2.2649 O   0  0  0  0  0  0  0  0  0  0  0  0
    4.7282   -0.8527   -1.0222 O   0  0  0  0  0  0  0  0  0  0  0  0
    0.7636    0.6049    0.7951 H   0  0  0  0  0  0  0  0  0  0  0  0
    0.7704   -0.7734   -0.3217 H   0  0  0  0  0  0  0  0  0  0  0  0
    1.0631    0.8516   -0.9461 H   0  0  0  0  0  0  0  0  0  0  0  0
    4.0239   -7.0013    6.4092 H   0  0  0  0  0  0  0  0  0  0  0  0
    4.9983   -4.9379    7.3698 H   0  0  0  0  0  0  0  0  0  0  0  0
    2.9542   -6.9668    4.1672 H   0  0  0  0  0  0  0  0  0  0  0  0
    4.9203   -2.8016    6.1073 H   0  0  0  0  0  0  0  0  0  0  0  0
    4.0338    0.6353    2.4729 H   0  0  0  0  0  0  0  0  0  0  0  0
    4.5854   -0.8403    4.3795 H   0  0  0  0  0  0  0  0  0  0  0  0
    2.2101   -2.6594    0.3828 H   0  0  0  0  0  0  0  0  0  0  0  0
    1.6740   -4.7956    2.4601 H   0  0  0  0  0  0  0  0  0  0  0  0
    3.2222   -5.1774    1.7175 H   0  0  0  0  0  0  0  0  0  0  0  0
    3.1677    1.0130    0.3780 H   0  0  0  0  0  0  0  0  0  0  0  0
    4.9251   -0.9501   -0.0729 H   0  0  0  0  0  0  0  0  0  0  0  0
  1 10  1  0  0  0  0
  1 19  1  0  0  0  0
  2  3  1  0  0  0  0
  2 22  1  0  0  0  0
  3 23  1  0  0  0  0
  4  2  2  0  0  0  0
  5 25  1  0  0  0  0
  5  3  2  0  0  0  0
  6 26  1  0  0  0  0
  6  7  2  0  0  0  0
  7 27  1  0  0  0  0
  8 11  2  0  0  0  0
  8 13  1  0  0  0  0
  9 12  1  0  0  0  0
 10 31  1  1  0  0  0
 10 11  1  0  0  0  0
 11  6  1  0  0  0  0
 12 14  2  0  0  0  0
 12  4  1  0  0  0  0
 13  9  1  0  0  0  0
 13 15  2  0  0  0  0
 14  5  1  0  0  0  0
 15  7  1  0  0  0  0
 15 14  1  0  0  0  0
 16 18  1  0  0  0  0
 16 10  1  0  0  0  0
 17 16  2  0  0  0  0
 18 32  1  0  0  0  0
 20  1  1  0  0  0  0
 21  1  1  0  0  0  0
 24  4  1  0  0  0  0
 28  8  1  0  0  0  0
 29  9  1  0  0  0  0
 30  9  1  0  0  0  0
M  END
>  <HBA>
2

>  <HBD>
1

>  <TPSA>
37.3

>  <cid>
37589

>  <dipole>
4.7

>  <excitation_energy_1>
4.406

>  <excitation_energy_2>
4.59

>  <excitation_energy_3>
4.785

>  <excitation_energy_4>
5.265

>  <homo_energy>
-6.065

>  <homo_lumo_gap>
4.895

>  <logP>
3.446

>  <lumo_energy>
-1.17

>  <melting_point>
154.18

>  <molecular_refractivity>
71.24

>  <oscillator_strength_1>
0.3245

>  <oscillator_strength_2>
0.2666

>  <oscillator_strength_3>
0.0104

>  <oscillator_strength_4>
0.0044

>  <open_babel_can_smiles>
OC(=O)[C@H](c1ccc2c(c1)Cc1c2cccc1)C

>  <mulliken_charges>
32
1   -0.433836
2   -0.128011
3   -0.137299
4   -0.20122
5   -0.18954
6   -0.209441
7   -0.187135
8   -0.247149
9   -0.41994
10   -0.279399
11   0.106549
12   0.105534
13   0.108085
14   0.087612
15   0.086332
16   0.606258
17   -0.448618
18   -0.570919
19   0.147715
20   0.156935
21   0.175366
22   0.13158
23   0.131791
24   0.12936
25   0.131048
26   0.132401
27   0.13651
28   0.141824
29   0.177989
30   0.179278
31   0.167559
32   0.412782

>  <lowdin_charges>
32
1   -0.435773
2   -0.154841
3   -0.153398
4   -0.162896
5   -0.160525
6   -0.173607
7   -0.160246
8   -0.168615
9   -0.275392
10   -0.163185
11   -0.029816
12   -0.001882
13   0.00174
14   -0.0141
15   -0.00807
16   0.189888
17   -0.240529
18   -0.354945
19   0.15475
20   0.156074
21   0.16917
22   0.159661
23   0.158521
24   0.158999
25   0.158745
26   0.156482
27   0.161927
28   0.163509
29   0.170511
30   0.173744
31   0.166319
32   0.357779

$$$$

