PCCDB-ID:  65955
public computational chemistry database (PCCDB) project, http://pccdb.org

 18 19  0  0  1  0  0  0  0  0999 V2000
    1.2432   -1.2511   -0.1960 C   0  0  0  0  0  0  0  0  0  0  0  0
    2.1724   -0.0253   -0.0803 C   0  0  0  0  0  0  0  0  0  0  0  0
   -1.2723    1.1890    0.2900 C   0  0  0  0  0  0  0  0  0  0  0  0
   -0.0274   -0.8277    0.5753 C   0  0  2  0  0  0  0  0  0  0  0  0
   -1.9567   -0.0907   -0.1902 C   0  0  0  0  0  0  0  0  0  0  0  0
    1.1949    1.1495    0.0124 C   0  0  0  0  0  0  0  0  0  0  0  0
   -1.2980   -1.1701   -0.0485 N   0  0  0  0  0  0  0  0  0  0  0  0
    0.0407    0.6559    0.5946 N   0  0  0  0  0  0  0  0  0  0  0  0
   -3.2004   -0.0782   -0.7107 O   0  0  0  0  0  0  0  0  0  0  0  0
    1.3563    2.2960   -0.3643 O   0  0  0  0  0  0  0  0  0  0  0  0
    1.6786   -2.1750    0.1930 H   0  0  0  0  0  0  0  0  0  0  0  0
    0.9682   -1.4215   -1.2423 H   0  0  0  0  0  0  0  0  0  0  0  0
    2.8437    0.1148   -0.9302 H   0  0  0  0  0  0  0  0  0  0  0  0
    2.7865   -0.0610    0.8287 H   0  0  0  0  0  0  0  0  0  0  0  0
   -1.7844    1.6082    1.1686 H   0  0  0  0  0  0  0  0  0  0  0  0
   -1.2011    1.9752   -0.4723 H   0  0  0  0  0  0  0  0  0  0  0  0
   -0.0214   -1.2276    1.5986 H   0  0  0  0  0  0  0  0  0  0  0  0
   -3.5134    0.8370   -0.7804 H   0  0  0  0  0  0  0  0  0  0  0  0
  1  2  1  0  0  0  0
  1 11  1  0  0  0  0
  1  4  1  0  0  0  0
  2  6  1  0  0  0  0
  2 14  1  0  0  0  0
  3  8  1  0  0  0  0
  3 15  1  0  0  0  0
  4  8  1  0  0  0  0
  4 17  1  1  0  0  0
  5  7  2  0  0  0  0
  5  3  1  0  0  0  0
  6  8  1  0  0  0  0
  7  4  1  0  0  0  0
  9  5  1  0  0  0  0
 10  6  2  0  0  0  0
 12  1  1  0  0  0  0
 13  2  1  0  0  0  0
 16  3  1  0  0  0  0
 18  9  1  0  0  0  0
M  END
>  <HBA>
4

>  <HBD>
1

>  <TPSA>
49.41

>  <cid>
65955

>  <dipole>
1.31

>  <excitation_energy_1>
5.413

>  <excitation_energy_2>
5.809

>  <excitation_energy_3>
5.981

>  <excitation_energy_4>
6.036

>  <homo_energy>
-6.814

>  <homo_lumo_gap>
7.07

>  <logP>
-0.669

>  <lumo_energy>
0.256

>  <melting_point>
91.19

>  <molecular_refractivity>
40.66

>  <oscillator_strength_1>
0.001

>  <oscillator_strength_2>
0.0035

>  <oscillator_strength_3>
0.0009

>  <oscillator_strength_4>
0.025

>  <open_babel_can_smiles>
OC1=N[C@@H]2N(C1)C(=O)CC2

>  <mulliken_charges>
18
1   -0.298969
2   -0.368352
3   -0.229369
4   0.161378
5   0.490874
6   0.569287
7   -0.423848
8   -0.442093
9   -0.57699
10   -0.498483
11   0.155497
12   0.167722
13   0.177498
14   0.174747
15   0.177111
16   0.190401
17   0.154089
18   0.4195

>  <lowdin_charges>
18
1   -0.28439
2   -0.306025
3   -0.233737
4   0.004061
5   0.11699
6   0.153442
7   -0.201681
8   -0.130955
9   -0.338678
10   -0.284512
11   0.158362
12   0.160835
13   0.172016
14   0.168902
15   0.162819
16   0.173607
17   0.143372
18   0.365572

$$$$

