PCCDB-ID:  57913
public computational chemistry database (PCCDB) project, http://pccdb.org

 20 19  0  0  0  0  0  0  0  0999 V2000
    0.7802    0.6185    0.5695 C   0  0  0  0  0  0  0  0  0  0  0  0
    5.7898   -2.0169   -2.7204 C   0  0  0  0  0  0  0  0  0  0  0  0
    2.1551    0.2895    0.0603 C   0  0  0  0  0  0  0  0  0  0  0  0
    1.7019    0.3140   -2.4328 C   0  0  0  0  0  0  0  0  0  0  0  0
    4.0145   -0.1969   -1.5028 C   0  0  0  0  0  0  0  0  0  0  0  0
    2.5729    0.1425   -1.2083 C   0  0  0  0  0  0  0  0  0  0  0  0
    2.1578    1.3902   -3.2624 O   0  0  0  0  0  0  0  0  0  0  0  0
    4.1873   -2.0104   -1.8413 S   0  0  0  0  0  0  0  0  0  0  0  0
    0.8089    1.5142    1.2045 H   0  0  0  0  0  0  0  0  0  0  0  0
    0.3998   -0.1962    1.2004 H   0  0  0  0  0  0  0  0  0  0  0  0
    0.0496    0.7913   -0.2245 H   0  0  0  0  0  0  0  0  0  0  0  0
    6.0040   -3.0555   -2.9866 H   0  0  0  0  0  0  0  0  0  0  0  0
    6.5979   -1.6451   -2.0829 H   0  0  0  0  0  0  0  0  0  0  0  0
    5.7401   -1.4207   -3.6367 H   0  0  0  0  0  0  0  0  0  0  0  0
    2.9004    0.1474    0.8452 H   0  0  0  0  0  0  0  0  0  0  0  0
    0.6471    0.4492   -2.1631 H   0  0  0  0  0  0  0  0  0  0  0  0
    1.7687   -0.5764   -3.0659 H   0  0  0  0  0  0  0  0  0  0  0  0
    4.6661    0.0739   -0.6662 H   0  0  0  0  0  0  0  0  0  0  0  0
    4.3437    0.3418   -2.3973 H   0  0  0  0  0  0  0  0  0  0  0  0
    2.1158    2.1970   -2.7246 H   0  0  0  0  0  0  0  0  0  0  0  0
  1 10  1  0  0  0  0
  1  9  1  0  0  0  0
  2 13  1  0  0  0  0
  2  8  1  0  0  0  0
  3  1  1  0  0  0  0
  3 15  1  0  0  0  0
  4 16  1  0  0  0  0
  4  6  1  0  0  0  0
  5  6  1  0  0  0  0
  5 18  1  0  0  0  0
  6  3  2  0  0  0  0
  7 20  1  0  0  0  0
  7  4  1  0  0  0  0
  8  5  1  0  0  0  0
 11  1  1  0  0  0  0
 12  2  1  0  0  0  0
 14  2  1  0  0  0  0
 17  4  1  0  0  0  0
 19  5  1  0  0  0  0
M  END
>  <HBA>
2

>  <HBD>
1

>  <TPSA>
45.53

>  <cid>
57913

>  <dipole>
2.11

>  <excitation_energy_1>
4.814

>  <excitation_energy_2>
5.106

>  <excitation_energy_3>
5.283

>  <excitation_energy_4>
5.754

>  <homo_energy>
-5.831

>  <homo_lumo_gap>
5.938

>  <logP>
1.288

>  <lumo_energy>
0.106

>  <melting_point>
14.24

>  <molecular_refractivity>
39.23

>  <oscillator_strength_1>
0.0058

>  <oscillator_strength_2>
0.0019

>  <oscillator_strength_3>
0.003

>  <oscillator_strength_4>
0.0052

>  <open_babel_can_smiles>
CSC/C(=C/C)/CO

>  <mulliken_charges>
20
1   -0.492519
2   -0.584629
3   -0.141761
4   -0.102314
5   -0.472163
6   0.130539
7   -0.611978
8   0.083996
9   0.157887
10   0.166633
11   0.156988
12   0.182214
13   0.174226
14   0.17917
15   0.129844
16   0.129802
17   0.174577
18   0.168343
19   0.186503
20   0.384641

>  <lowdin_charges>
20
1   -0.446518
2   -0.547446
3   -0.162797
4   -0.136478
5   -0.370634
6   -0.049064
7   -0.468515
8   0.086864
9   0.15929
10   0.164827
11   0.156037
12   0.174448
13   0.160815
14   0.162515
15   0.15401
16   0.133384
17   0.163683
18   0.157291
19   0.168213
20   0.340075

$$$$

