PCCDB-ID:  72903
public computational chemistry database (PCCDB) project, http://pccdb.org

 16 16  0  0  0  0  0  0  0  0999 V2000
   -1.3771   -0.0471    0.0434 C   0  0  0  0  0  0  0  0  0  0  0  0
   -0.8449    1.1968   -0.2975 C   0  0  0  0  0  0  0  0  0  0  0  0
   -0.5231   -1.1191    0.3173 C   0  0  0  0  0  0  0  0  0  0  0  0
    0.5395    1.3706   -0.3648 C   0  0  0  0  0  0  0  0  0  0  0  0
    0.8579   -0.9405    0.2485 C   0  0  0  0  0  0  0  0  0  0  0  0
    1.4075    0.3061   -0.0934 C   0  0  0  0  0  0  0  0  0  0  0  0
    3.6906    0.0416    1.3051 O   0  0  0  0  0  0  0  0  0  0  0  0
    3.6468   -0.6332   -1.2479 O   0  0  0  0  0  0  0  0  0  0  0  0
    3.2394    0.5952   -0.1994 P   0  0  0  0  0  0  0  0  0  0  0  0
   -2.4537   -0.1836    0.0966 H   0  0  0  0  0  0  0  0  0  0  0  0
   -1.5068    2.0320   -0.5102 H   0  0  0  0  0  0  0  0  0  0  0  0
   -0.9341   -2.0895    0.5833 H   0  0  0  0  0  0  0  0  0  0  0  0
    0.9510    2.3417   -0.6307 H   0  0  0  0  0  0  0  0  0  0  0  0
    1.5061   -1.7913    0.4663 H   0  0  0  0  0  0  0  0  0  0  0  0
    3.1313   -0.6704    1.6616 H   0  0  0  0  0  0  0  0  0  0  0  0
    3.0757   -1.4191   -1.1937 H   0  0  0  0  0  0  0  0  0  0  0  0
  1 10  1  0  0  0  0
  1  3  2  0  0  0  0
  2  1  1  0  0  0  0
  3 12  1  0  0  0  0
  4  2  2  0  0  0  0
  4  6  1  0  0  0  0
  5  3  1  0  0  0  0
  5 14  1  0  0  0  0
  6  5  2  0  0  0  0
  7 15  1  0  0  0  0
  8 16  1  0  0  0  0
  8  9  1  0  0  0  0
  9  6  1  0  0  0  0
  9  7  1  0  0  0  0
 11  2  1  0  0  0  0
 13  4  1  0  0  0  0
M  END
>  <HBA>
2

>  <HBD>
2

>  <TPSA>
54.05

>  <cid>
72903

>  <dipole>
4.37

>  <excitation_energy_1>
5.013

>  <excitation_energy_2>
5.242

>  <excitation_energy_3>
5.402

>  <excitation_energy_4>
5.786

>  <homo_energy>
-6.936

>  <homo_lumo_gap>
6.085

>  <logP>
0.608

>  <lumo_energy>
-0.852

>  <melting_point>
82.9

>  <molecular_refractivity>
37.43

>  <oscillator_strength_1>
0.0015

>  <oscillator_strength_2>
0.0047

>  <oscillator_strength_3>
0.0005

>  <oscillator_strength_4>
0.0566

>  <open_babel_can_smiles>
OP(c1ccccc1)O

>  <mulliken_charges>
16
1   -0.130739
2   -0.113989
3   -0.11399
4   -0.17039
5   -0.192314
6   -0.12306
7   -0.692631
8   -0.693182
9   0.752436
10   0.140319
11   0.140904
12   0.138588
13   0.149443
14   0.11049
15   0.399023
16   0.399093

>  <lowdin_charges>
16
1   -0.14393
2   -0.149224
3   -0.149492
4   -0.146752
5   -0.176288
6   -0.192004
7   -0.598807
8   -0.59719
9   0.665254
10   0.160832
11   0.164068
12   0.161399
13   0.16767
14   0.144229
15   0.345274
16   0.344961

$$$$

