PCCDB-ID:  52193
public computational chemistry database (PCCDB) project, http://pccdb.org

 35 35  0  0  1  0  0  0  0  0999 V2000
    2.0242    1.7352   -1.8727 C   0  0  0  0  0  0  0  0  0  0  0  0
    2.2235   -0.7419   -1.7187 C   0  0  0  0  0  0  0  0  0  0  0  0
    8.1880    1.6521    0.1550 C   0  0  0  0  0  0  0  0  0  0  0  0
    7.7445    0.8699    2.5102 C   0  0  0  0  0  0  0  0  0  0  0  0
    3.5076    0.8329   -0.1050 C   0  0  0  0  0  0  0  0  0  0  0  0
    5.8028    1.0389    0.9360 C   0  0  0  0  0  0  0  0  0  0  0  0
    2.5642    0.6638   -1.2809 C   0  0  0  0  0  0  0  0  0  0  0  0
    7.3156    0.7452    1.0381 C   0  0  0  0  0  0  0  0  0  0  0  0
    5.4439    1.5609   -1.5426 C   0  0  0  0  0  0  0  0  0  0  0  0
    5.3808   -0.7441   -0.8054 C   0  0  0  0  0  0  0  0  0  0  0  0
    6.1366   -0.1721   -2.9329 C   0  0  0  0  0  0  0  0  0  0  0  0
    5.0522    0.6690   -0.3875 C   0  0  2  0  0  0  0  0  0  0  0  0
    5.9126    1.2051   -2.6783 N   0  0  0  0  0  0  0  0  0  0  0  0
    5.8678   -1.1347   -1.9214 N   0  0  0  0  0  0  0  0  0  0  0  0
    5.2391    2.8658   -1.2978 O   0  0  0  0  0  0  0  0  0  0  0  0
    5.1083   -1.6547    0.1468 O   0  0  0  0  0  0  0  0  0  0  0  0
    6.5610   -0.5306   -4.0081 O   0  0  0  0  0  0  0  0  0  0  0  0
    1.3299    1.6376   -2.7033 H   0  0  0  0  0  0  0  0  0  0  0  0
    2.2596    2.7463   -1.5511 H   0  0  0  0  0  0  0  0  0  0  0  0
    1.4476   -0.7360   -2.4897 H   0  0  0  0  0  0  0  0  0  0  0  0
    1.8605   -1.3392   -0.8717 H   0  0  0  0  0  0  0  0  0  0  0  0
    3.0930   -1.2692   -2.1288 H   0  0  0  0  0  0  0  0  0  0  0  0
    9.2494    1.4384    0.3244 H   0  0  0  0  0  0  0  0  0  0  0  0
    8.0192    2.7099    0.3936 H   0  0  0  0  0  0  0  0  0  0  0  0
    7.9971    1.5128   -0.9127 H   0  0  0  0  0  0  0  0  0  0  0  0
    8.8097    0.6410    2.6269 H   0  0  0  0  0  0  0  0  0  0  0  0
    7.1808    0.1844    3.1538 H   0  0  0  0  0  0  0  0  0  0  0  0
    7.5817    1.8899    2.8818 H   0  0  0  0  0  0  0  0  0  0  0  0
    3.2601    0.1104    0.6813 H   0  0  0  0  0  0  0  0  0  0  0  0
    3.3833    1.8339    0.3177 H   0  0  0  0  0  0  0  0  0  0  0  0
    5.6258    2.1047    1.1220 H   0  0  0  0  0  0  0  0  0  0  0  0
    5.2936    0.4878    1.7343 H   0  0  0  0  0  0  0  0  0  0  0  0
    7.4862   -0.2974    0.7347 H   0  0  0  0  0  0  0  0  0  0  0  0
    5.5011    3.3322   -2.1159 H   0  0  0  0  0  0  0  0  0  0  0  0
    5.3591   -2.5195   -0.2339 H   0  0  0  0  0  0  0  0  0  0  0  0
  1 19  1  0  0  0  0
  1  7  2  0  0  0  0
  2  7  1  0  0  0  0
  2 21  1  0  0  0  0
  3 23  1  0  0  0  0
  3 24  1  0  0  0  0
  3  8  1  0  0  0  0
  4 26  1  0  0  0  0
  4 28  1  0  0  0  0
  4 27  1  0  0  0  0
  5 30  1  0  0  0  0
  5 29  1  0  0  0  0
  6  8  1  0  0  0  0
  6 31  1  0  0  0  0
  6 32  1  0  0  0  0
  7  5  1  0  0  0  0
  8  4  1  0  0  0  0
  9 15  1  0  0  0  0
  9 12  1  0  0  0  0
 10 12  1  0  0  0  0
 10 16  1  0  0  0  0
 11 13  2  0  0  0  0
 11 14  1  0  0  0  0
 12  5  1  1  0  0  0
 12  6  1  0  0  0  0
 13  9  2  0  0  0  0
 14 10  2  0  0  0  0
 17 11  2  0  0  0  0
 18  1  1  0  0  0  0
 20  2  1  0  0  0  0
 22  2  1  0  0  0  0
 25  3  1  0  0  0  0
 33  8  1  0  0  0  0
 34 15  1  0  0  0  0
 35 16  1  0  0  0  0
M  END
>  <HBA>
5

>  <HBD>
2

>  <TPSA>
75.27

>  <cid>
52193

>  <dipole>
5.27

>  <excitation_energy_1>
4.11

>  <excitation_energy_2>
4.436

>  <excitation_energy_3>
4.606

>  <excitation_energy_4>
5.475

>  <homo_energy>
-6.942

>  <homo_lumo_gap>
5.467

>  <logP>
2.009

>  <lumo_energy>
-1.475

>  <melting_point>
122.4

>  <molecular_refractivity>
71.37

>  <oscillator_strength_1>
0.0

>  <oscillator_strength_2>
0.0005

>  <oscillator_strength_3>
0.0118

>  <oscillator_strength_4>
0.0012

>  <open_babel_can_smiles>
CC(C[C@]1(CC(=C)C)C(=N[C](=[N]=C1O)=O)O)C

>  <mulliken_charges>
35
1   -0.387422
2   -0.523105
3   -0.45759
4   -0.446176
5   -0.349279
6   -0.269105
7   0.213671
8   -0.087339
9   0.590144
10   0.574774
11   0.626354
12   -0.091373
13   -0.526973
14   -0.527269
15   -0.60131
16   -0.602929
17   -0.442467
18   0.142379
19   0.142187
20   0.159876
21   0.154521
22   0.174486
23   0.148499
24   0.14286
25   0.160164
26   0.148473
27   0.144959
28   0.143225
29   0.169186
30   0.171449
31   0.161576
32   0.157996
33   0.139783
34   0.423393
35   0.422385

>  <lowdin_charges>
35
1   -0.345966
2   -0.449883
3   -0.448867
4   -0.44197
5   -0.262866
6   -0.267542
7   -0.003211
8   -0.123844
9   0.161573
10   0.152483
11   0.173297
12   -0.03299
13   -0.225627
14   -0.227842
15   -0.335471
16   -0.337039
17   -0.218782
18   0.159379
19   0.15702
20   0.161885
21   0.157528
22   0.166255
23   0.152384
24   0.146663
25   0.155218
26   0.151395
27   0.150848
28   0.146883
29   0.16418
30   0.166041
31   0.157188
32   0.159704
33   0.141791
34   0.370617
35   0.369566

$$$$

