PCCDB-ID:  21395
public computational chemistry database (PCCDB) project, http://pccdb.org

 29 28  0  0  0  0  0  0  0  0999 V2000
    0.7227    0.1437   -1.0013 C   0  0  0  0  0  0  0  0  0  0  0  0
    0.6123   -3.2643   -0.5712 C   0  0  0  0  0  0  0  0  0  0  0  0
    4.0981   -3.1104   -0.0218 C   0  0  0  0  0  0  0  0  0  0  0  0
    2.7045   -2.5249    2.9563 C   0  0  0  0  0  0  0  0  0  0  0  0
    3.2765   -1.8507   -0.3874 C   0  0  0  0  0  0  0  0  0  0  0  0
    2.6848   -1.2568    2.0675 C   0  0  0  0  0  0  0  0  0  0  0  0
    5.0063   -3.4787   -1.1128 C   0  0  0  0  0  0  0  0  0  0  0  0
    3.4357   -2.2807    4.2036 C   0  0  0  0  0  0  0  0  0  0  0  0
    1.7378    0.0077    0.1165 C   0  0  0  0  0  0  0  0  0  0  0  0
    0.8913   -2.3252    0.5911 C   0  0  0  0  0  0  0  0  0  0  0  0
    2.1548   -1.4333    0.6131 C   0  0  0  0  0  0  0  0  0  0  0  0
    5.7099   -3.7567   -1.9928 N   0  0  0  0  0  0  0  0  0  0  0  0
    4.0236   -2.0764    5.1833 N   0  0  0  0  0  0  0  0  0  0  0  0
    2.2653    0.9795    0.6102 O   0  0  0  0  0  0  0  0  0  0  0  0
    0.0993   -2.2421    1.5138 O   0  0  0  0  0  0  0  0  0  0  0  0
    0.6234    1.1993   -1.2602 H   0  0  0  0  0  0  0  0  0  0  0  0
   -0.2518   -0.2442   -0.6824 H   0  0  0  0  0  0  0  0  0  0  0  0
    1.0271   -0.4198   -1.8907 H   0  0  0  0  0  0  0  0  0  0  0  0
    0.6726   -2.7590   -1.5405 H   0  0  0  0  0  0  0  0  0  0  0  0
   -0.3857   -3.6869   -0.4418 H   0  0  0  0  0  0  0  0  0  0  0  0
    1.3411   -4.0836   -0.5954 H   0  0  0  0  0  0  0  0  0  0  0  0
    3.4526   -3.9717    0.1865 H   0  0  0  0  0  0  0  0  0  0  0  0
    4.6984   -2.9335    0.8769 H   0  0  0  0  0  0  0  0  0  0  0  0
    3.1700   -3.3841    2.4613 H   0  0  0  0  0  0  0  0  0  0  0  0
    1.6805   -2.8187    3.2041 H   0  0  0  0  0  0  0  0  0  0  0  0
    2.8516   -1.9933   -1.3859 H   0  0  0  0  0  0  0  0  0  0  0  0
    3.9783   -1.0136   -0.4695 H   0  0  0  0  0  0  0  0  0  0  0  0
    3.6897   -0.8283    2.0097 H   0  0  0  0  0  0  0  0  0  0  0  0
    2.0730   -0.5102    2.5762 H   0  0  0  0  0  0  0  0  0  0  0  0
  1 17  1  0  0  0  0
  1  9  1  0  0  0  0
  2 20  1  0  0  0  0
  2 10  1  0  0  0  0
  3 22  1  0  0  0  0
  3 23  1  0  0  0  0
  4 25  1  0  0  0  0
  4  8  1  0  0  0  0
  5  3  1  0  0  0  0
  5 11  1  0  0  0  0
  6 29  1  0  0  0  0
  6  4  1  0  0  0  0
  7  3  1  0  0  0  0
  8 13  3  0  0  0  0
  9 14  2  0  0  0  0
  9 11  1  0  0  0  0
 10 11  1  0  0  0  0
 10 15  2  0  0  0  0
 11  6  1  0  0  0  0
 12  7  3  0  0  0  0
 16  1  1  0  0  0  0
 18  1  1  0  0  0  0
 19  2  1  0  0  0  0
 21  2  1  0  0  0  0
 24  4  1  0  0  0  0
 26  5  1  0  0  0  0
 27  5  1  0  0  0  0
 28  6  1  0  0  0  0
M  END
>  <HBA>
4

>  <HBD>
0

>  <TPSA>
81.72

>  <cid>
21395

>  <dipole>
5.74

>  <excitation_energy_1>
4.116

>  <excitation_energy_2>
4.338

>  <excitation_energy_3>
5.14

>  <excitation_energy_4>
5.437

>  <homo_energy>
-7.423

>  <homo_lumo_gap>
5.744

>  <logP>
1.758

>  <lumo_energy>
-1.679

>  <melting_point>
99.39

>  <molecular_refractivity>
54.63

>  <oscillator_strength_1>
0.0014

>  <oscillator_strength_2>
0.0017

>  <oscillator_strength_3>
0.0269

>  <oscillator_strength_4>
0.0196

>  <open_babel_can_smiles>
N#CCCC(C(=O)C)(C(=O)C)CCC#N

>  <mulliken_charges>
29
1   -0.553101
2   -0.550715
3   -0.355154
4   -0.365084
5   -0.301667
6   -0.274925
7   0.351969
8   0.344963
9   0.462946
10   0.443598
11   -0.086181
12   -0.458575
13   -0.466591
14   -0.415326
15   -0.439391
16   0.198535
17   0.196298
18   0.175728
19   0.177698
20   0.196484
21   0.17993
22   0.192795
23   0.213212
24   0.179191
25   0.22726
26   0.164872
27   0.190679
28   0.175969
29   0.194583

>  <lowdin_charges>
29
1   -0.475653
2   -0.477632
3   -0.278497
4   -0.286545
5   -0.270337
6   -0.262426
7   -0.01921
8   -0.017949
9   0.179789
10   0.161264
11   -0.062098
12   -0.113316
13   -0.122792
14   -0.204186
15   -0.228884
16   0.182943
17   0.183966
18   0.171646
19   0.171208
20   0.182113
21   0.174759
22   0.176435
23   0.188759
24   0.171732
25   0.195384
26   0.158694
27   0.173653
28   0.166374
29   0.180808

$$$$

