PCCDB-ID:  35127
public computational chemistry database (PCCDB) project, http://pccdb.org

 26 26  0  0  1  0  0  0  0  0999 V2000
    0.5310   -0.0866   -1.2874 C   0  0  0  0  0  0  0  0  0  0  0  0
    1.9830   -0.1360   -0.8014 C   0  0  0  0  0  0  0  0  0  0  0  0
    2.9907    0.2157   -1.9066 C   0  0  0  0  0  0  0  0  0  0  0  0
    4.4320    0.1516   -1.3957 C   0  0  0  0  0  0  0  0  0  0  0  0
    8.4676    0.0412   -0.0784 C   0  0  0  0  0  0  0  0  0  0  0  0
    9.5352    0.6994   -2.2450 C   0  0  0  0  0  0  0  0  0  0  0  0
    7.1442    0.4627   -1.9242 C   0  0  2  0  0  0  0  0  0  0  0  0
    8.5561   -0.2911    1.1526 N   0  0  0  0  0  0  0  0  0  0  0  0
   10.4914    0.9780   -3.0448 N   0  0  0  0  0  0  0  0  0  0  0  0
    9.5840    0.3377   -0.9066 N   0  0  0  0  0  0  0  0  0  0  0  0
    7.2163    0.1308   -0.6821 N   0  0  0  0  0  0  0  0  0  0  0  0
    8.2259    0.7463   -2.7232 N   0  0  0  0  0  0  0  0  0  0  0  0
    5.5857    0.5946   -2.7609 S   0  0  0  0  0  0  0  0  0  0  0  0
   -0.1649   -0.3379   -0.4794 H   0  0  0  0  0  0  0  0  0  0  0  0
    0.3618   -0.7963   -2.1062 H   0  0  0  0  0  0  0  0  0  0  0  0
    0.2689    0.9130   -1.6546 H   0  0  0  0  0  0  0  0  0  0  0  0
    2.2073   -1.1385   -0.4120 H   0  0  0  0  0  0  0  0  0  0  0  0
    2.1133    0.5566    0.0412 H   0  0  0  0  0  0  0  0  0  0  0  0
    2.7752    1.2224   -2.2893 H   0  0  0  0  0  0  0  0  0  0  0  0
    2.8629   -0.4756   -2.7504 H   0  0  0  0  0  0  0  0  0  0  0  0
    4.6961   -0.8490   -1.0458 H   0  0  0  0  0  0  0  0  0  0  0  0
    4.6045    0.8500   -0.5737 H   0  0  0  0  0  0  0  0  0  0  0  0
    9.5319   -0.3159    1.4605 H   0  0  0  0  0  0  0  0  0  0  0  0
   11.4008    0.9132   -2.5871 H   0  0  0  0  0  0  0  0  0  0  0  0
   10.5029    0.2798   -0.4887 H   0  0  0  0  0  0  0  0  0  0  0  0
    8.1270    1.0039   -3.6968 H   0  0  0  0  0  0  0  0  0  0  0  0
  1  2  1  0  0  0  0
  1 14  1  0  0  0  0
  2 17  1  0  0  0  0
  2 18  1  0  0  0  0
  3  4  1  0  0  0  0
  3  2  1  0  0  0  0
  4 21  1  0  0  0  0
  4 22  1  0  0  0  0
  5  8  1  0  0  0  0
  6 10  1  0  0  0  0
  7 13  1  1  0  0  0
  7 11  1  0  0  0  0
  8 23  1  0  0  0  0
  9 24  1  0  0  0  0
  9  6  2  0  0  0  0
 10 25  1  0  0  0  0
 10  5  1  0  0  0  0
 11  5  2  0  0  0  0
 12  6  1  0  0  0  0
 12  7  1  0  0  0  0
 13  4  1  0  0  0  0
 15  1  1  0  0  0  0
 16  1  1  0  0  0  0
 19  3  1  0  0  0  0
 20  3  1  0  0  0  0
 26 12  1  0  0  0  0
M  RAD  2   7   2   8   2
M  END
>  <HBA>
6

>  <HBD>
2

>  <TPSA>
116.01

>  <cid>
35127

>  <dipole>
0.76

>  <excitation_energy_1>
5.161

>  <excitation_energy_2>
5.25

>  <excitation_energy_3>
5.339

>  <excitation_energy_4>
5.368

>  <homo_energy>
-6.411

>  <homo_lumo_gap>
5.766

>  <logP>
2.091

>  <lumo_energy>
-0.645

>  <melting_point>
160.97

>  <molecular_refractivity>
54.78

>  <oscillator_strength_1>
0.2249

>  <oscillator_strength_2>
0.0331

>  <oscillator_strength_3>
0.002

>  <oscillator_strength_4>
0.0017

>  <open_babel_can_smiles>
CCCCS[C]1NC(=N)NC(=N1)[NH]

>  <mulliken_charges>
26
1   -0.442846
2   -0.25285
3   -0.274456
4   -0.401858
5   0.602092
6   0.690955
7   0.326912
8   -0.603955
9   -0.649366
10   -0.694431
11   -0.469057
12   -0.64181
13   0.141267
14   0.149092
15   0.145388
16   0.145371
17   0.141739
18   0.141799
19   0.150997
20   0.150725
21   0.201414
22   0.202076
23   0.265309
24   0.281095
25   0.329008
26   0.365389

>  <lowdin_charges>
26
1   -0.444261
2   -0.270285
3   -0.279253
4   -0.353879
5   0.125922
6   0.142734
7   0.000382
8   -0.406192
9   -0.457078
10   -0.280293
11   -0.212112
12   -0.227653
13   0.167316
14   0.154239
15   0.149102
16   0.148041
17   0.144175
18   0.145256
19   0.149073
20   0.150012
21   0.174756
22   0.176385
23   0.243388
24   0.258038
25   0.290151
26   0.312035

$$$$

