PCCDB-ID:  39039
public computational chemistry database (PCCDB) project, http://pccdb.org

 25 25  0  0  0  0  0  0  0  0999 V2000
    3.5844    0.0846    0.9874 C   0  0  0  0  0  0  0  0  0  0  0  0
    2.8752   -0.9325   -3.3086 C   0  0  0  0  0  0  0  0  0  0  0  0
    2.4946    2.9325   -0.3512 C   0  0  0  0  0  0  0  0  0  0  0  0
    2.5513   -0.0730   -0.1348 C   0  0  0  0  0  0  0  0  0  0  0  0
    1.4995    1.0967   -3.3628 C   0  0  0  0  0  0  0  0  0  0  0  0
    1.2238    2.1643   -2.3141 C   0  0  0  0  0  0  0  0  0  0  0  0
    2.8614    0.6889   -1.4477 C   0  0  0  0  0  0  0  0  0  0  0  0
    2.1228    0.0515   -2.5567 N   0  0  0  0  0  0  0  0  0  0  0  0
    2.4532    2.1037   -1.5357 N   0  0  0  0  0  0  0  0  0  0  0  0
    3.3457   -0.5763    1.8285 H   0  0  0  0  0  0  0  0  0  0  0  0
    3.6342    1.1052    1.3787 H   0  0  0  0  0  0  0  0  0  0  0  0
    4.5889   -0.1819    0.6344 H   0  0  0  0  0  0  0  0  0  0  0  0
    2.2175   -1.4156   -4.0400 H   0  0  0  0  0  0  0  0  0  0  0  0
    3.2533   -1.7131   -2.6390 H   0  0  0  0  0  0  0  0  0  0  0  0
    3.7378   -0.5013   -3.8541 H   0  0  0  0  0  0  0  0  0  0  0  0
    2.2431    3.9610   -0.6359 H   0  0  0  0  0  0  0  0  0  0  0  0
    3.5070    2.9462    0.0669 H   0  0  0  0  0  0  0  0  0  0  0  0
    1.7942    2.6291    0.4495 H   0  0  0  0  0  0  0  0  0  0  0  0
    1.5477    0.2051    0.2122 H   0  0  0  0  0  0  0  0  0  0  0  0
    2.4873   -1.1352   -0.4023 H   0  0  0  0  0  0  0  0  0  0  0  0
    2.1757    1.4983   -4.1406 H   0  0  0  0  0  0  0  0  0  0  0  0
    0.5936    0.7200   -3.8533 H   0  0  0  0  0  0  0  0  0  0  0  0
    0.3159    1.9141   -1.7314 H   0  0  0  0  0  0  0  0  0  0  0  0
    1.0885    3.1651   -2.7410 H   0  0  0  0  0  0  0  0  0  0  0  0
    3.9552    0.6393   -1.6197 H   0  0  0  0  0  0  0  0  0  0  0  0
  1 11  1  0  0  0  0
  1 10  1  0  0  0  0
  2 14  1  0  0  0  0
  2  8  1  0  0  0  0
  3 17  1  0  0  0  0
  3 18  1  0  0  0  0
  4 19  1  0  0  0  0
  4  1  1  0  0  0  0
  5  8  1  0  0  0  0
  5  6  1  0  0  0  0
  6 23  1  0  0  0  0
  6  9  1  0  0  0  0
  7  4  1  0  0  0  0
  8  7  1  0  0  0  0
  9  7  1  0  0  0  0
  9  3  1  0  0  0  0
 12  1  1  0  0  0  0
 13  2  1  0  0  0  0
 15  2  1  0  0  0  0
 16  3  1  0  0  0  0
 20  4  1  0  0  0  0
 21  5  1  0  0  0  0
 22  5  1  0  0  0  0
 24  6  1  0  0  0  0
 25  7  1  0  0  0  0
M  END
>  <HBA>
2

>  <HBD>
0

>  <TPSA>
6.48

>  <cid>
39039

>  <dipole>
0.09

>  <excitation_energy_1>
4.949

>  <excitation_energy_2>
5.17

>  <excitation_energy_3>
5.328

>  <excitation_energy_4>
5.387

>  <homo_energy>
-5.263

>  <homo_lumo_gap>
7.587

>  <logP>
0.475

>  <lumo_energy>
2.324

>  <melting_point>
0.62

>  <molecular_refractivity>
47.27

>  <oscillator_strength_1>
0.0165

>  <oscillator_strength_2>
0.001

>  <oscillator_strength_3>
0.0066

>  <oscillator_strength_4>
0.0002

>  <open_babel_can_smiles>
CCC1N(C)CCN1C

>  <mulliken_charges>
25
1   -0.459835
2   -0.299087
3   -0.296797
4   -0.251054
5   -0.108468
6   -0.126982
7   0.228564
8   -0.430512
9   -0.426369
10   0.143695
11   0.147575
12   0.141634
13   0.149484
14   0.148479
15   0.122611
16   0.146722
17   0.151998
18   0.123681
19   0.136416
20   0.139813
21   0.11895
22   0.136849
23   0.118342
24   0.137636
25   0.106655

>  <lowdin_charges>
25
1   -0.451963
2   -0.358371
3   -0.354167
4   -0.292809
5   -0.201684
6   -0.199697
7   0.010297
8   -0.190506
9   -0.19319
10   0.151676
11   0.147535
12   0.145297
13   0.151775
14   0.149529
15   0.123121
16   0.14921
17   0.14941
18   0.123822
19   0.144674
20   0.149233
21   0.124234
22   0.143536
23   0.120137
24   0.143971
25   0.11493

$$$$

