PCCDB-ID:  26975
public computational chemistry database (PCCDB) project, http://pccdb.org

 28 28  0  0  0  0  0  0  0  0999 V2000
    0.8997    0.0221   -0.0006 C   0  0  0  0  0  0  0  0  0  0  0  0
    2.4316    0.0022   -0.0138 C   0  0  0  0  0  0  0  0  0  0  0  0
    3.0584    1.3493    0.3678 C   0  0  0  0  0  0  0  0  0  0  0  0
    4.5918    1.3371    0.3503 C   0  0  0  0  0  0  0  0  0  0  0  0
    5.2169    2.6907    0.7433 C   0  0  0  0  0  0  0  0  0  0  0  0
    7.4381    3.0075   -0.4459 C   0  0  0  0  0  0  0  0  0  0  0  0
    7.4748    2.3108    1.8469 C   0  0  0  0  0  0  0  0  0  0  0  0
    8.8321    2.9630   -0.4884 C   0  0  0  0  0  0  0  0  0  0  0  0
    8.8657    2.2606    1.8241 C   0  0  0  0  0  0  0  0  0  0  0  0
    6.7307    2.6821    0.7170 C   0  0  0  0  0  0  0  0  0  0  0  0
    9.5511    2.5875    0.6498 C   0  0  0  0  0  0  0  0  0  0  0  0
   10.9196    2.5276    0.6775 O   0  0  0  0  0  0  0  0  0  0  0  0
    0.4842   -0.9544   -0.2750 H   0  0  0  0  0  0  0  0  0  0  0  0
    0.5064    0.7620   -0.7087 H   0  0  0  0  0  0  0  0  0  0  0  0
    0.5147    0.2800    0.9937 H   0  0  0  0  0  0  0  0  0  0  0  0
    2.7851   -0.2918   -1.0124 H   0  0  0  0  0  0  0  0  0  0  0  0
    2.7938   -0.7732    0.6762 H   0  0  0  0  0  0  0  0  0  0  0  0
    2.7078    1.6411    1.3694 H   0  0  0  0  0  0  0  0  0  0  0  0
    2.6918    2.1271   -0.3190 H   0  0  0  0  0  0  0  0  0  0  0  0
    4.9478    1.0556   -0.6509 H   0  0  0  0  0  0  0  0  0  0  0  0
    4.9627    0.5596    1.0330 H   0  0  0  0  0  0  0  0  0  0  0  0
    4.8676    2.9652    1.7479 H   0  0  0  0  0  0  0  0  0  0  0  0
    4.8401    3.4669    0.0635 H   0  0  0  0  0  0  0  0  0  0  0  0
    6.8927    3.3065   -1.3387 H   0  0  0  0  0  0  0  0  0  0  0  0
    6.9537    2.0586    2.7682 H   0  0  0  0  0  0  0  0  0  0  0  0
    9.3596    3.2259   -1.4042 H   0  0  0  0  0  0  0  0  0  0  0  0
    9.4353    1.9775    2.7039 H   0  0  0  0  0  0  0  0  0  0  0  0
   11.2608    2.7750   -0.1957 H   0  0  0  0  0  0  0  0  0  0  0  0
  1 15  1  0  0  0  0
  2  1  1  0  0  0  0
  2  3  1  0  0  0  0
  2 17  1  0  0  0  0
  3 18  1  0  0  0  0
  4  3  1  0  0  0  0
  4  5  1  0  0  0  0
  4 21  1  0  0  0  0
  5 22  1  0  0  0  0
  6 10  1  0  0  0  0
  7 25  1  0  0  0  0
  8  6  2  0  0  0  0
  8 11  1  0  0  0  0
  9  7  1  0  0  0  0
  9 27  1  0  0  0  0
 10  5  1  0  0  0  0
 10  7  2  0  0  0  0
 11 12  1  0  0  0  0
 11  9  2  0  0  0  0
 13  1  1  0  0  0  0
 14  1  1  0  0  0  0
 16  2  1  0  0  0  0
 19  3  1  0  0  0  0
 20  4  1  0  0  0  0
 23  5  1  0  0  0  0
 24  6  1  0  0  0  0
 26  8  1  0  0  0  0
 28 12  1  0  0  0  0
M  END
>  <HBA>
1

>  <HBD>
1

>  <TPSA>
20.23

>  <cid>
26975

>  <dipole>
1.36

>  <excitation_energy_1>
4.932

>  <excitation_energy_2>
5.059

>  <excitation_energy_3>
5.495

>  <excitation_energy_4>
5.679

>  <homo_energy>
-5.733

>  <homo_lumo_gap>
5.807

>  <logP>
3.125

>  <lumo_energy>
0.073

>  <melting_point>
45.47

>  <molecular_refractivity>
52.66

>  <oscillator_strength_1>
0.0327

>  <oscillator_strength_2>
0.0003

>  <oscillator_strength_3>
0.0477

>  <oscillator_strength_4>
0.0512

>  <open_babel_can_smiles>
CCCCCc1ccc(cc1)O

>  <mulliken_charges>
28
1   -0.441472
2   -0.246843
3   -0.24473
4   -0.246596
5   -0.350213
6   -0.188183
7   -0.187945
8   -0.193243
9   -0.157507
10   0.173079
11   0.346994
12   -0.645121
13   0.141767
14   0.140889
15   0.141189
16   0.130621
17   0.131174
18   0.12661
19   0.12607
20   0.132469
21   0.13361
22   0.137487
23   0.136415
24   0.122451
25   0.123128
26   0.115269
27   0.137064
28   0.405565

>  <lowdin_charges>
28
1   -0.445127
2   -0.272089
3   -0.276079
4   -0.273092
5   -0.272337
6   -0.157036
7   -0.155285
8   -0.21525
9   -0.186481
10   -0.01998
11   0.101141
12   -0.383443
13   0.149059
14   0.147043
15   0.145719
16   0.138538
17   0.140307
18   0.136654
19   0.137881
20   0.140201
21   0.142293
22   0.145559
23   0.14657
24   0.155165
25   0.155474
26   0.152022
27   0.166795
28   0.355776

$$$$

