PCCDB-ID:  21327
public computational chemistry database (PCCDB) project, http://pccdb.org

 23 24  0  0  1  0  0  0  0  0999 V2000
    0.1494    2.4683   -1.0883 C   0  0  0  0  0  0  0  0  0  0  0  0
    1.8130    1.4244    0.3480 C   0  0  0  0  0  0  0  0  0  0  0  0
   -0.4517    1.2304   -1.2994 C   0  0  0  0  0  0  0  0  0  0  0  0
    1.2154    0.1931    0.1402 C   0  0  0  0  0  0  0  0  0  0  0  0
   -1.5976   -1.3568   -1.6166 C   0  0  0  0  0  0  0  0  0  0  0  0
   -1.5362   -3.7643   -2.5852 C   0  0  0  0  0  0  0  0  0  0  0  0
    1.2719    2.5564   -0.2697 C   0  0  0  0  0  0  0  0  0  0  0  0
    0.0802    0.0864   -0.6839 C   0  0  0  0  0  0  0  0  0  0  0  0
   -1.9526   -2.8214   -1.5397 C   0  0  2  0  0  0  0  0  0  0  0  0
    1.8987    3.8597   -0.0522 N   0  0  0  0  0  0  0  0  0  0  0  0
    1.3938    4.8403   -0.6026 O   0  0  0  0  0  0  0  0  0  0  0  0
    2.8969    3.9028    0.6696 O   0  0  0  0  0  0  0  0  0  0  0  0
   -0.4235   -1.1653   -0.8249 O   0  0  0  0  0  0  0  0  0  0  0  0
   -2.8787   -3.2583   -2.5365 O   0  0  0  0  0  0  0  0  0  0  0  0
   -0.2422    3.3657   -1.5514 H   0  0  0  0  0  0  0  0  0  0  0  0
    2.6879    1.5285    0.9777 H   0  0  0  0  0  0  0  0  0  0  0  0
   -1.3228    1.1669   -1.9403 H   0  0  0  0  0  0  0  0  0  0  0  0
    1.6063   -0.7066    0.6034 H   0  0  0  0  0  0  0  0  0  0  0  0
   -2.4217   -0.7458   -1.2235 H   0  0  0  0  0  0  0  0  0  0  0  0
   -1.4181   -1.0694   -2.6606 H   0  0  0  0  0  0  0  0  0  0  0  0
   -1.4280   -4.8212   -2.3441 H   0  0  0  0  0  0  0  0  0  0  0  0
   -0.9329   -3.4094   -3.4210 H   0  0  0  0  0  0  0  0  0  0  0  0
   -2.1415   -3.2005   -0.5342 H   0  0  0  0  0  0  0  0  0  0  0  0
  1  7  1  0  0  0  0
  2 16  1  0  0  0  0
  3  1  2  0  0  0  0
  3  8  1  0  0  0  0
  4  2  1  0  0  0  0
  4 18  1  0  0  0  0
  5  9  1  0  0  0  0
  5 19  1  0  0  0  0
  5 13  1  0  0  0  0
  6 14  1  0  0  0  0
  6 21  1  0  0  0  0
  6  9  1  0  0  0  0
  7 10  1  0  0  0  0
  7  2  2  0  0  0  0
  8  4  2  0  0  0  0
  9 23  1  1  0  0  0
 10 12  2  0  0  0  0
 11 10  2  0  0  0  0
 13  8  1  0  0  0  0
 14  9  1  0  0  0  0
 15  1  1  0  0  0  0
 17  3  1  0  0  0  0
 20  5  1  0  0  0  0
 22  6  1  0  0  0  0
M  END
>  <HBA>
2

>  <HBD>
0

>  <TPSA>
67.58

>  <cid>
21327

>  <dipole>
4.99

>  <excitation_energy_1>
3.77

>  <excitation_energy_2>
4.132

>  <excitation_energy_3>
4.316

>  <excitation_energy_4>
4.47

>  <homo_energy>
-6.874

>  <homo_lumo_gap>
4.64

>  <logP>
1.896

>  <lumo_energy>
-2.234

>  <melting_point>
60.52

>  <molecular_refractivity>
50.34

>  <oscillator_strength_1>
0.0001

>  <oscillator_strength_2>
0.3268

>  <oscillator_strength_3>
0.0003

>  <oscillator_strength_4>
0.0131

>  <open_babel_can_smiles>
O=N(=O)c1ccc(cc1)OC[C@H]1OC1

>  <mulliken_charges>
23
1   -0.158012
2   -0.150377
3   -0.204197
4   -0.187264
5   -0.065317
6   -0.103337
7   0.273322
8   0.404949
9   0.087079
10   0.374595
11   -0.403198
12   -0.401475
13   -0.515309
14   -0.439914
15   0.186024
16   0.185027
17   0.155198
18   0.156095
19   0.163105
20   0.158789
21   0.163078
22   0.158135
23   0.163004

>  <lowdin_charges>
23
1   -0.124298
2   -0.127013
3   -0.20594
4   -0.175787
5   -0.13086
6   -0.156917
7   -0.017865
8   0.120626
9   -0.026792
10   0.309796
11   -0.25623
12   -0.254318
13   -0.185446
14   -0.277034
15   0.189734
16   0.189414
17   0.172626
18   0.17628
19   0.15385
20   0.150947
21   0.159692
22   0.15755
23   0.157985

$$$$

