PCCDB-ID:  12292
public computational chemistry database (PCCDB) project, http://pccdb.org

 23 22  0  0  1  0  0  0  0  0999 V2000
    1.6177    1.1511   -0.9673 C   0  0  0  0  0  0  0  0  0  0  0  0
    2.2858   -0.7200    0.5893 C   0  0  0  0  0  0  0  0  0  0  0  0
    3.1649   -1.9486    0.9256 C   0  0  0  0  0  0  0  0  0  0  0  0
    2.6399   -0.9696   -1.9675 C   0  0  0  0  0  0  0  0  0  0  0  0
    2.5989   -0.0104   -0.7446 C   0  0  1  0  0  0  0  0  0  0  0  0
    4.6488   -1.6198    0.9000 C   0  0  0  0  0  0  0  0  0  0  0  0
    1.3509   -1.7567   -2.1465 C   0  0  0  0  0  0  0  0  0  0  0  0
    5.3314   -1.6509   -0.0968 O   0  0  0  0  0  0  0  0  0  0  0  0
    5.2006   -1.2101    2.0764 O   0  0  0  0  0  0  0  0  0  0  0  0
    1.0732   -2.7479   -1.5126 O   0  0  0  0  0  0  0  0  0  0  0  0
    0.4506   -1.2638   -3.0425 O   0  0  0  0  0  0  0  0  0  0  0  0
    1.6328    1.8470   -0.1209 H   0  0  0  0  0  0  0  0  0  0  0  0
    0.5871    0.7923   -1.0803 H   0  0  0  0  0  0  0  0  0  0  0  0
    1.8783    1.7239   -1.8661 H   0  0  0  0  0  0  0  0  0  0  0  0
    2.3732    0.0242    1.3928 H   0  0  0  0  0  0  0  0  0  0  0  0
    1.2441   -1.0606    0.5894 H   0  0  0  0  0  0  0  0  0  0  0  0
    2.9763   -2.7368    0.1940 H   0  0  0  0  0  0  0  0  0  0  0  0
    2.8667   -2.3398    1.9070 H   0  0  0  0  0  0  0  0  0  0  0  0
    3.4567   -1.6829   -1.8345 H   0  0  0  0  0  0  0  0  0  0  0  0
    2.8707   -0.3808   -2.8650 H   0  0  0  0  0  0  0  0  0  0  0  0
    3.6112    0.4076   -0.6786 H   0  0  0  0  0  0  0  0  0  0  0  0
    4.5391   -1.2550    2.7856 H   0  0  0  0  0  0  0  0  0  0  0  0
    0.8182   -0.4799   -3.4812 H   0  0  0  0  0  0  0  0  0  0  0  0
  1  5  1  0  0  0  0
  1 12  1  0  0  0  0
  2 16  1  0  0  0  0
  2  3  1  0  0  0  0
  2 15  1  0  0  0  0
  3 18  1  0  0  0  0
  4 19  1  0  0  0  0
  4  5  1  0  0  0  0
  5 21  1  1  0  0  0
  5  2  1  0  0  0  0
  6  3  1  0  0  0  0
  6  9  1  0  0  0  0
  7  4  1  0  0  0  0
  7 10  2  0  0  0  0
  8  6  2  0  0  0  0
  9 22  1  0  0  0  0
 11  7  1  0  0  0  0
 13  1  1  0  0  0  0
 14  1  1  0  0  0  0
 17  3  1  0  0  0  0
 20  4  1  0  0  0  0
 23 11  1  0  0  0  0
M  END
>  <HBA>
4

>  <HBD>
2

>  <TPSA>
74.6

>  <cid>
12292

>  <dipole>
3.67

>  <excitation_energy_1>
5.573

>  <excitation_energy_2>
5.587

>  <excitation_energy_3>
6.439

>  <excitation_energy_4>
6.471

>  <homo_energy>
-7.402

>  <homo_lumo_gap>
7.399

>  <logP>
0.962

>  <lumo_energy>
-0.003

>  <melting_point>
127.09

>  <molecular_refractivity>
39.31

>  <oscillator_strength_1>
0.0009

>  <oscillator_strength_2>
0.0013

>  <oscillator_strength_3>
0.0098

>  <oscillator_strength_4>
0.021

>  <open_babel_can_smiles>
OC(=O)CC[C@@H](CC(=O)O)C

>  <mulliken_charges>
23
1   -0.468463
2   -0.268841
3   -0.387149
4   -0.384813
5   -0.086896
6   0.592093
7   0.591995
8   -0.446449
9   -0.561327
10   -0.447358
11   -0.561917
12   0.154628
13   0.156559
14   0.14046
15   0.132986
16   0.169595
17   0.210297
18   0.139709
19   0.209929
20   0.134719
21   0.161281
22   0.409384
23   0.409578

>  <lowdin_charges>
23
1   -0.452423
2   -0.272933
3   -0.322018
4   -0.323633
5   -0.118711
6   0.198911
7   0.195416
8   -0.250899
9   -0.359078
10   -0.249961
11   -0.35587
12   0.156642
13   0.151165
14   0.148025
15   0.143355
16   0.160276
17   0.187546
18   0.151938
19   0.18892
20   0.149709
21   0.155391
22   0.359406
23   0.358825

$$$$

