PCCDB-ID:  16010
public computational chemistry database (PCCDB) project, http://pccdb.org

 29 29  0  0  0  0  0  0  0  0999 V2000
    4.8126    2.3724    0.0274 C   0  0  0  0  0  0  0  0  0  0  0  0
    0.7684    5.8488   -7.7202 C   0  0  0  0  0  0  0  0  0  0  0  0
    0.2324    7.3432   -5.7756 C   0  0  0  0  0  0  0  0  0  0  0  0
    2.0448    3.6353   -1.1919 C   0  0  0  0  0  0  0  0  0  0  0  0
    2.1053    1.9951   -2.9644 C   0  0  0  0  0  0  0  0  0  0  0  0
    1.6183    4.5950   -2.1065 C   0  0  0  0  0  0  0  0  0  0  0  0
    1.6948    2.9556   -3.8773 C   0  0  0  0  0  0  0  0  0  0  0  0
    3.7014    1.3449    0.0136 C   0  0  0  0  0  0  0  0  0  0  0  0
    2.3096    2.3198   -1.6091 C   0  0  0  0  0  0  0  0  0  0  0  0
    1.4487    4.2772   -3.4598 C   0  0  0  0  0  0  0  0  0  0  0  0
    2.6658    1.2993   -0.7171 N   0  0  0  0  0  0  0  0  0  0  0  0
    1.0203    5.3380   -4.2940 N   0  0  0  0  0  0  0  0  0  0  0  0
    0.9657    5.0371   -5.5237 N   0  0  0  0  0  0  0  0  0  0  0  0
    0.4814    6.0125   -6.3076 N   0  0  0  0  0  0  0  0  0  0  0  0
    3.8655    0.3117    0.8914 O   0  0  0  0  0  0  0  0  0  0  0  0
    4.6697    3.1190   -0.7545 H   0  0  0  0  0  0  0  0  0  0  0  0
    5.7798    1.8777   -0.1300 H   0  0  0  0  0  0  0  0  0  0  0  0
    4.8560    2.8873    0.9954 H   0  0  0  0  0  0  0  0  0  0  0  0
   -0.0605    6.2436   -8.3170 H   0  0  0  0  0  0  0  0  0  0  0  0
    0.8809    4.7818   -7.9197 H   0  0  0  0  0  0  0  0  0  0  0  0
    1.6936    6.3649   -8.0209 H   0  0  0  0  0  0  0  0  0  0  0  0
   -0.2630    7.9339   -6.5498 H   0  0  0  0  0  0  0  0  0  0  0  0
    1.1655    7.8400   -5.4719 H   0  0  0  0  0  0  0  0  0  0  0  0
   -0.4081    7.2703   -4.8943 H   0  0  0  0  0  0  0  0  0  0  0  0
    2.1466    3.8917   -0.1408 H   0  0  0  0  0  0  0  0  0  0  0  0
    2.2772    0.9706   -3.2819 H   0  0  0  0  0  0  0  0  0  0  0  0
    1.4073    5.6112   -1.7864 H   0  0  0  0  0  0  0  0  0  0  0  0
    1.5486    2.6952   -4.9198 H   0  0  0  0  0  0  0  0  0  0  0  0
    4.7043    0.4257    1.3640 H   0  0  0  0  0  0  0  0  0  0  0  0
  1 18  1  0  0  0  0
  2 14  1  0  0  0  0
  3 23  1  0  0  0  0
  3 24  1  0  0  0  0
  4 25  1  0  0  0  0
  5  9  2  0  0  0  0
  6 27  1  0  0  0  0
  6  4  2  0  0  0  0
  7 10  2  0  0  0  0
  7  5  1  0  0  0  0
  8  1  1  0  0  0  0
  8 15  1  0  0  0  0
  9  4  1  0  0  0  0
  9 11  1  0  0  0  0
 10  6  1  0  0  0  0
 11  8  2  0  0  0  0
 12 10  1  0  0  0  0
 13 12  1  0  0  0  0
 14  3  1  0  0  0  0
 14 13  1  0  0  0  0
 15 29  1  0  0  0  0
 16  1  1  0  0  0  0
 17  1  1  0  0  0  0
 19  2  1  0  0  0  0
 20  2  1  0  0  0  0
 21  2  1  0  0  0  0
 22  3  1  0  0  0  0
 26  5  1  0  0  0  0
 28  7  1  0  0  0  0
M  RAD  2  12   2  13   2
M  END
>  <HBA>
5

>  <HBD>
1

>  <TPSA>
57.06

>  <cid>
16010

>  <dipole>
4.03

>  <excitation_energy_1>
3.799

>  <excitation_energy_2>
3.973

>  <excitation_energy_3>
4.349

>  <excitation_energy_4>
4.487

>  <homo_energy>
-5.072

>  <homo_lumo_gap>
4.207

>  <logP>
2.278

>  <lumo_energy>
-0.865

>  <melting_point>
84.47

>  <molecular_refractivity>
58.84

>  <oscillator_strength_1>
0.609

>  <oscillator_strength_2>
0.0907

>  <oscillator_strength_3>
0.032

>  <oscillator_strength_4>
0.0041

>  <open_babel_can_smiles>
CN([N][N]c1ccc(cc1)/N=C(/O)\C)C

>  <mulliken_charges>
29
1   -0.555589
2   -0.29739
3   -0.300349
4   -0.168579
5   -0.167416
6   -0.162634
7   -0.147874
8   0.481714
9   0.245787
10   0.287516
11   -0.467686
12   -0.390459
13   -0.054398
14   -0.202483
15   -0.570229
16   0.200013
17   0.168552
18   0.175503
19   0.15809
20   0.182624
21   0.152415
22   0.151947
23   0.160359
24   0.189407
25   0.121977
26   0.132436
27   0.128841
28   0.141046
29   0.406859

>  <lowdin_charges>
29
1   -0.483555
2   -0.35177
3   -0.368545
4   -0.188942
5   -0.167349
6   -0.15868
7   -0.163004
8   0.144488
9   0.041888
10   0.009364
11   -0.168237
12   -0.165834
13   -0.044493
14   -0.04818
15   -0.360861
16   0.185586
17   0.166354
18   0.169512
19   0.155157
20   0.170383
21   0.144385
22   0.158377
23   0.153403
24   0.17423
25   0.154069
26   0.161267
27   0.160854
28   0.164802
29   0.355331

$$$$

