PCCDB-ID:  25846
public computational chemistry database (PCCDB) project, http://pccdb.org

 28 29  0  0  0  0  0  0  0  0999 V2000
   -0.1012    1.2710   -1.3710 C   0  0  0  0  0  0  0  0  0  0  0  0
    1.1812    0.5245   -0.9715 C   0  0  0  0  0  0  0  0  0  0  0  0
   -1.2453    0.9784   -0.3874 C   0  0  0  0  0  0  0  0  0  0  0  0
    0.9292   -0.9842   -0.8301 C   0  0  0  0  0  0  0  0  0  0  0  0
   -1.4906   -0.5316   -0.2461 C   0  0  0  0  0  0  0  0  0  0  0  0
   -0.7022   -3.7806    3.5250 C   0  0  0  0  0  0  0  0  0  0  0  0
    0.7151   -4.0668    3.2064 C   0  0  0  0  0  0  0  0  0  0  0  0
   -0.2163   -1.3065    0.1540 C   0  0  0  0  0  0  0  0  0  0  0  0
    0.2364   -1.7577    2.4463 C   0  0  0  0  0  0  0  0  0  0  0  0
    0.1835   -0.9130    1.5044 N   0  0  0  0  0  0  0  0  0  0  0  0
   -0.0622   -3.1399    2.3549 N   0  0  0  0  0  0  0  0  0  0  0  0
    0.6148   -1.3441    3.6954 O   0  0  0  0  0  0  0  0  0  0  0  0
   -0.4034    0.9572   -2.3821 H   0  0  0  0  0  0  0  0  0  0  0  0
    0.0878    2.3512   -1.4242 H   0  0  0  0  0  0  0  0  0  0  0  0
    1.5459    0.9161   -0.0135 H   0  0  0  0  0  0  0  0  0  0  0  0
    1.9723    0.7030   -1.7116 H   0  0  0  0  0  0  0  0  0  0  0  0
   -2.1668    1.4770   -0.7154 H   0  0  0  0  0  0  0  0  0  0  0  0
   -0.9917    1.3923    0.5967 H   0  0  0  0  0  0  0  0  0  0  0  0
    1.8425   -1.4984   -0.5053 H   0  0  0  0  0  0  0  0  0  0  0  0
    0.6600   -1.4049   -1.8102 H   0  0  0  0  0  0  0  0  0  0  0  0
   -1.8453   -0.9369   -1.2052 H   0  0  0  0  0  0  0  0  0  0  0  0
   -2.2802   -0.7261    0.4905 H   0  0  0  0  0  0  0  0  0  0  0  0
   -0.9034   -3.1564    4.3910 H   0  0  0  0  0  0  0  0  0  0  0  0
   -1.4808   -4.4934    3.2647 H   0  0  0  0  0  0  0  0  0  0  0  0
    0.9920   -4.9928    2.7086 H   0  0  0  0  0  0  0  0  0  0  0  0
    1.4704   -3.6360    3.8574 H   0  0  0  0  0  0  0  0  0  0  0  0
   -0.4278   -2.3824    0.1126 H   0  0  0  0  0  0  0  0  0  0  0  0
    0.7829   -0.3891    3.6033 H   0  0  0  0  0  0  0  0  0  0  0  0
  1  2  1  0  0  0  0
  1  3  1  0  0  0  0
  2  4  1  0  0  0  0
  2 15  1  0  0  0  0
  3  5  1  0  0  0  0
  3 18  1  0  0  0  0
  4 19  1  0  0  0  0
  4  8  1  0  0  0  0
  5  8  1  0  0  0  0
  5 22  1  0  0  0  0
  6 23  1  0  0  0  0
  7  6  1  0  0  0  0
  7 26  1  0  0  0  0
  8 10  1  0  0  0  0
  9 12  1  0  0  0  0
 10  9  2  0  0  0  0
 11  9  1  0  0  0  0
 11  7  1  0  0  0  0
 11  6  1  0  0  0  0
 13  1  1  0  0  0  0
 14  1  1  0  0  0  0
 16  2  1  0  0  0  0
 17  3  1  0  0  0  0
 20  4  1  0  0  0  0
 21  5  1  0  0  0  0
 24  6  1  0  0  0  0
 25  7  1  0  0  0  0
 27  8  1  0  0  0  0
 28 12  1  0  0  0  0
M  END
>  <HBA>
3

>  <HBD>
1

>  <TPSA>
32.11

>  <cid>
25846

>  <dipole>
1.62

>  <excitation_energy_1>
5.865

>  <excitation_energy_2>
6.121

>  <excitation_energy_3>
6.201

>  <excitation_energy_4>
6.271

>  <homo_energy>
-6.661

>  <homo_lumo_gap>
7.366

>  <logP>
1.673

>  <lumo_energy>
0.705

>  <melting_point>
64.22

>  <molecular_refractivity>
51.35

>  <oscillator_strength_1>
0.0016

>  <oscillator_strength_2>
0.0011

>  <oscillator_strength_3>
0.0359

>  <oscillator_strength_4>
0.0006

>  <open_babel_can_smiles>
O/C(=N/C1CCCCC1)/N1CC1

>  <mulliken_charges>
28
1   -0.257657
2   -0.252761
3   -0.252474
4   -0.254312
5   -0.254539
6   -0.194434
7   -0.194017
8   0.006249
9   0.634731
10   -0.470191
11   -0.42473
12   -0.609974
13   0.12062
14   0.124624
15   0.141107
16   0.122119
17   0.122097
18   0.140884
19   0.128172
20   0.123164
21   0.123357
22   0.128046
23   0.181275
24   0.167193
25   0.167129
26   0.181883
27   0.140658
28   0.411781

>  <lowdin_charges>
28
1   -0.274617
2   -0.280477
3   -0.279785
4   -0.280238
5   -0.280603
6   -0.226687
7   -0.226946
8   -0.061772
9   0.151828
10   -0.233177
11   -0.189318
12   -0.38765
13   0.1325
14   0.138578
15   0.144688
16   0.140169
17   0.139784
18   0.144171
19   0.143404
20   0.138089
21   0.138462
22   0.143622
23   0.167606
24   0.164715
25   0.164062
26   0.168611
27   0.139712
28   0.361268

$$$$

