PCCDB-ID:  23583
public computational chemistry database (PCCDB) project, http://pccdb.org

 28 28  0  0  0  0  0  0  0  0999 V2000
    3.6037   -0.6439   -1.4010 C   0  0  0  0  0  0  0  0  0  0  0  0
    3.7546   -5.7121    1.4629 C   0  0  0  0  0  0  0  0  0  0  0  0
    2.5684   -0.4612   -0.2740 C   0  0  0  0  0  0  0  0  0  0  0  0
    2.6963   -4.8915    2.2220 C   0  0  0  0  0  0  0  0  0  0  0  0
    3.4556   -0.6359    2.0903 C   0  0  0  0  0  0  0  0  0  0  0  0
    3.5254   -2.7397    3.2774 C   0  0  0  0  0  0  0  0  0  0  0  0
    2.8879   -1.2542    0.9786 C   0  0  0  0  0  0  0  0  0  0  0  0
    2.9581   -3.4009    2.1908 C   0  0  0  0  0  0  0  0  0  0  0  0
    3.7803   -1.3614    3.2417 C   0  0  0  0  0  0  0  0  0  0  0  0
    2.6462   -2.6415    1.0463 C   0  0  0  0  0  0  0  0  0  0  0  0
    4.3763   -0.6307    4.3812 C   0  0  0  0  0  0  0  0  0  0  0  0
    2.0894   -3.3275    0.0005 O   0  0  0  0  0  0  0  0  0  0  0  0
    4.6537   -1.4318    5.4467 O   0  0  0  0  0  0  0  0  0  0  0  0
    4.6115    0.5632    4.4054 O   0  0  0  0  0  0  0  0  0  0  0  0
    3.3301   -0.0557   -2.2841 H   0  0  0  0  0  0  0  0  0  0  0  0
    3.6918   -1.6932   -1.7069 H   0  0  0  0  0  0  0  0  0  0  0  0
    4.5944   -0.3191   -1.0670 H   0  0  0  0  0  0  0  0  0  0  0  0
    3.5284   -6.7830    1.5220 H   0  0  0  0  0  0  0  0  0  0  0  0
    4.7529   -5.5519    1.8855 H   0  0  0  0  0  0  0  0  0  0  0  0
    3.7833   -5.4294    0.4061 H   0  0  0  0  0  0  0  0  0  0  0  0
    1.5641   -0.7169   -0.6493 H   0  0  0  0  0  0  0  0  0  0  0  0
    2.5090    0.6000   -0.0095 H   0  0  0  0  0  0  0  0  0  0  0  0
    2.6641   -5.2190    3.2679 H   0  0  0  0  0  0  0  0  0  0  0  0
    1.7091   -5.0983    1.7926 H   0  0  0  0  0  0  0  0  0  0  0  0
    3.6536    0.4318    2.0787 H   0  0  0  0  0  0  0  0  0  0  0  0
    3.7696   -3.3034    4.1720 H   0  0  0  0  0  0  0  0  0  0  0  0
    1.8645   -2.7072   -0.7089 H   0  0  0  0  0  0  0  0  0  0  0  0
    5.0364   -0.8398    6.1199 H   0  0  0  0  0  0  0  0  0  0  0  0
  1 17  1  0  0  0  0
  1  3  1  0  0  0  0
  2 18  1  0  0  0  0
  2 19  1  0  0  0  0
  2  4  1  0  0  0  0
  3 22  1  0  0  0  0
  3  7  1  0  0  0  0
  4 23  1  0  0  0  0
  5  9  2  0  0  0  0
  6 26  1  0  0  0  0
  7 10  2  0  0  0  0
  7  5  1  0  0  0  0
  8  4  1  0  0  0  0
  8  6  2  0  0  0  0
  9  6  1  0  0  0  0
  9 11  1  0  0  0  0
 10  8  1  0  0  0  0
 11 14  2  0  0  0  0
 11 13  1  0  0  0  0
 12 10  1  0  0  0  0
 13 28  1  0  0  0  0
 15  1  1  0  0  0  0
 16  1  1  0  0  0  0
 20  2  1  0  0  0  0
 21  3  1  0  0  0  0
 24  4  1  0  0  0  0
 25  5  1  0  0  0  0
 27 12  1  0  0  0  0
M  END
>  <HBA>
3

>  <HBD>
2

>  <TPSA>
57.53

>  <cid>
23583

>  <dipole>
2.25

>  <excitation_energy_1>
4.729

>  <excitation_energy_2>
4.864

>  <excitation_energy_3>
5.006

>  <excitation_energy_4>
5.313

>  <homo_energy>
-6.158

>  <homo_lumo_gap>
5.23

>  <logP>
2.215

>  <lumo_energy>
-0.928

>  <melting_point>
143.97

>  <molecular_refractivity>
54.97

>  <oscillator_strength_1>
0.0147

>  <oscillator_strength_2>
0.2358

>  <oscillator_strength_3>
0.0001

>  <oscillator_strength_4>
0.0233

>  <open_babel_can_smiles>
CCc1cc(cc(c1O)CC)C(=O)O

>  <mulliken_charges>
28
1   -0.44047
2   -0.440533
3   -0.387744
4   -0.326026
5   -0.248521
6   -0.247765
7   0.167292
8   0.150231
9   0.08936
10   0.220446
11   0.533245
12   -0.644562
13   -0.588358
14   -0.486038
15   0.152064
16   0.145627
17   0.165159
18   0.142743
19   0.145983
20   0.16099
21   0.136292
22   0.165401
23   0.14105
24   0.1571
25   0.156181
26   0.152654
27   0.419651
28   0.40855

>  <lowdin_charges>
28
1   -0.445038
2   -0.438091
3   -0.277637
4   -0.266158
5   -0.132874
6   -0.142459
7   -0.051843
8   -0.029114
9   -0.067445
10   0.101171
11   0.191801
12   -0.373489
13   -0.367363
14   -0.282976
15   0.154167
16   0.145759
17   0.159339
18   0.147788
19   0.148055
20   0.154079
21   0.139335
22   0.160934
23   0.147699
24   0.156869
25   0.172049
26   0.171653
27   0.361386
28   0.362402

$$$$

