PCCDB-ID:  34661
public computational chemistry database (PCCDB) project, http://pccdb.org

 18 18  0  0  0  0  0  0  0  0999 V2000
   -0.6807    1.1645   -0.1680 C   0  0  0  0  0  0  0  0  0  0  0  0
   -0.6158   -1.2502   -0.0299 C   0  0  0  0  0  0  0  0  0  0  0  0
    1.4541    0.0208    0.0542 C   0  0  0  0  0  0  0  0  0  0  0  0
   -2.8605   -0.1040   -0.2176 C   0  0  0  0  0  0  0  0  0  0  0  0
   -1.3454   -0.0642   -0.1443 C   0  0  0  0  0  0  0  0  0  0  0  0
    0.7150    1.1982   -0.0685 C   0  0  0  0  0  0  0  0  0  0  0  0
    0.7800   -1.2001    0.0757 C   0  0  0  0  0  0  0  0  0  0  0  0
   -3.4249    0.9520   -0.9846 O   0  0  0  0  0  0  0  0  0  0  0  0
    1.4170    2.3711   -0.0881 O   0  0  0  0  0  0  0  0  0  0  0  0
    1.5431   -2.3287    0.1925 O   0  0  0  0  0  0  0  0  0  0  0  0
   -1.2557    2.0820   -0.2657 H   0  0  0  0  0  0  0  0  0  0  0  0
   -1.1292   -2.2107   -0.0268 H   0  0  0  0  0  0  0  0  0  0  0  0
    2.5350    0.0540    0.1288 H   0  0  0  0  0  0  0  0  0  0  0  0
   -3.2896    0.0160    0.7844 H   0  0  0  0  0  0  0  0  0  0  0  0
   -3.1872   -1.0885   -0.5894 H   0  0  0  0  0  0  0  0  0  0  0  0
   -3.0290    0.9060   -1.8696 H   0  0  0  0  0  0  0  0  0  0  0  0
    0.7897    3.1078   -0.1534 H   0  0  0  0  0  0  0  0  0  0  0  0
    0.9579   -3.1016    0.2068 H   0  0  0  0  0  0  0  0  0  0  0  0
  1  5  2  0  0  0  0
  1  6  1  0  0  0  0
  2 12  1  0  0  0  0
  2  7  2  0  0  0  0
  3  7  1  0  0  0  0
  3 13  1  0  0  0  0
  4  5  1  0  0  0  0
  4 14  1  0  0  0  0
  5  2  1  0  0  0  0
  6  3  2  0  0  0  0
  7 10  1  0  0  0  0
  8  4  1  0  0  0  0
  9  6  1  0  0  0  0
 10 18  1  0  0  0  0
 11  1  1  0  0  0  0
 15  4  1  0  0  0  0
 16  8  1  0  0  0  0
 17  9  1  0  0  0  0
M  END
>  <HBA>
3

>  <HBD>
3

>  <TPSA>
60.69

>  <cid>
34661

>  <dipole>
1.73

>  <excitation_energy_1>
4.91

>  <excitation_energy_2>
5.121

>  <excitation_energy_3>
5.395

>  <excitation_energy_4>
5.473

>  <homo_energy>
-5.91

>  <homo_lumo_gap>
5.889

>  <logP>
0.59

>  <lumo_energy>
-0.022

>  <melting_point>
107.72

>  <molecular_refractivity>
36.62

>  <oscillator_strength_1>
0.0209

>  <oscillator_strength_2>
0.0007

>  <oscillator_strength_3>
0.0022

>  <oscillator_strength_4>
0.0135

>  <open_babel_can_smiles>
OCc1cc(O)cc(c1)O

>  <mulliken_charges>
18
1   -0.258484
2   -0.263714
3   -0.203531
4   -0.091188
5   0.098163
6   0.362941
7   0.363227
8   -0.608999
9   -0.64454
10   -0.645029
11   0.129091
12   0.108421
13   0.148854
14   0.167558
15   0.130155
16   0.389956
17   0.409089
18   0.40803

>  <lowdin_charges>
18
1   -0.247583
2   -0.249318
3   -0.217604
4   -0.130017
5   -0.010727
6   0.11524
7   0.114786
8   -0.458928
9   -0.376744
10   -0.376436
11   0.160699
12   0.149735
13   0.175064
14   0.158664
15   0.132755
16   0.342698
17   0.359304
18   0.358412

$$$$

