PCCDB-ID:  10908
public computational chemistry database (PCCDB) project, http://pccdb.org

 20 19  0  0  0  0  0  0  0  0999 V2000
    1.2230    2.0371    0.1257 C   0  0  0  0  0  0  0  0  0  0  0  0
    5.3625    0.8886    1.0200 C   0  0  0  0  0  0  0  0  0  0  0  0
    5.1843    0.1781   -1.3928 C   0  0  0  0  0  0  0  0  0  0  0  0
    5.4576    2.6229   -0.8407 C   0  0  0  0  0  0  0  0  0  0  0  0
    2.7093    2.2031    0.3674 C   0  0  0  0  0  0  0  0  0  0  0  0
    4.8758    1.2826   -0.3788 C   0  0  0  0  0  0  0  0  0  0  0  0
    3.1920    3.0029    1.1416 O   0  0  0  0  0  0  0  0  0  0  0  0
    3.4015    1.3380   -0.4033 O   0  0  0  0  0  0  0  0  0  0  0  0
    0.6724    2.7216    0.7719 H   0  0  0  0  0  0  0  0  0  0  0  0
    0.9193    1.0049    0.3279 H   0  0  0  0  0  0  0  0  0  0  0  0
    0.9872    2.2459   -0.9232 H   0  0  0  0  0  0  0  0  0  0  0  0
    6.4467    0.7305    0.9998 H   0  0  0  0  0  0  0  0  0  0  0  0
    4.8891   -0.0468    1.3382 H   0  0  0  0  0  0  0  0  0  0  0  0
    5.1350    1.6665    1.7504 H   0  0  0  0  0  0  0  0  0  0  0  0
    6.2667    0.0329   -1.4746 H   0  0  0  0  0  0  0  0  0  0  0  0
    4.7941    0.4408   -2.3814 H   0  0  0  0  0  0  0  0  0  0  0  0
    4.7297   -0.7688   -1.0840 H   0  0  0  0  0  0  0  0  0  0  0  0
    6.5458    2.5370   -0.9377 H   0  0  0  0  0  0  0  0  0  0  0  0
    5.2309    3.4175   -0.1283 H   0  0  0  0  0  0  0  0  0  0  0  0
    5.0505    2.8969   -1.8203 H   0  0  0  0  0  0  0  0  0  0  0  0
  1 10  1  0  0  0  0
  1  5  1  0  0  0  0
  1  9  1  0  0  0  0
  2 13  1  0  0  0  0
  2 14  1  0  0  0  0
  3 17  1  0  0  0  0
  3  6  1  0  0  0  0
  4  6  1  0  0  0  0
  4 19  1  0  0  0  0
  5  7  2  0  0  0  0
  6  2  1  0  0  0  0
  8  6  1  0  0  0  0
  8  5  1  0  0  0  0
 11  1  1  0  0  0  0
 12  2  1  0  0  0  0
 15  3  1  0  0  0  0
 16  3  1  0  0  0  0
 18  4  1  0  0  0  0
 20  4  1  0  0  0  0
M  END
>  <HBA>
2

>  <HBD>
0

>  <TPSA>
26.3

>  <cid>
10908

>  <dipole>
1.89

>  <excitation_energy_1>
5.665

>  <excitation_energy_2>
6.731

>  <excitation_energy_3>
7.253

>  <excitation_energy_4>
7.535

>  <homo_energy>
-7.059

>  <homo_lumo_gap>
7.529

>  <logP>
1.348

>  <lumo_energy>
0.471

>  <melting_point>
-3.1

>  <molecular_refractivity>
32.28

>  <oscillator_strength_1>
0.0012

>  <oscillator_strength_2>
0.0372

>  <oscillator_strength_3>
0.0054

>  <oscillator_strength_4>
0.0081

>  <open_babel_can_smiles>
CC(=O)OC(C)(C)C

>  <mulliken_charges>
20
1   -0.519183
2   -0.465444
3   -0.448718
4   -0.465486
5   0.612152
6   0.311378
7   -0.475989
8   -0.485431
9   0.179268
10   0.177852
11   0.178398
12   0.14261
13   0.146167
14   0.186477
15   0.145152
16   0.152827
17   0.15286
18   0.142689
19   0.186306
20   0.146114

>  <lowdin_charges>
20
1   -0.46433
2   -0.455793
3   -0.441737
4   -0.455223
5   0.202473
6   0.146492
7   -0.273259
8   -0.20423
9   0.174842
10   0.174393
11   0.174643
12   0.152784
13   0.153407
14   0.172925
15   0.152386
16   0.155653
17   0.156117
18   0.152745
19   0.172802
20   0.152911

$$$$

