PCCDB-ID:  50259
public computational chemistry database (PCCDB) project, http://pccdb.org

 40 40  0  0  1  0  0  0  0  0999 V2000
    1.7427   -1.2179    2.8250 C   0  0  0  0  0  0  0  0  0  0  0  0
    2.4920    3.3583    0.0665 C   0  0  0  0  0  0  0  0  0  0  0  0
    4.5340    6.6961    2.7214 C   0  0  0  0  0  0  0  0  0  0  0  0
    5.8433    6.1569    0.6563 C   0  0  0  0  0  0  0  0  0  0  0  0
    3.3806    6.6421    0.4992 C   0  0  0  0  0  0  0  0  0  0  0  0
    3.2517    0.4746    1.7091 C   0  0  0  0  0  0  0  0  0  0  0  0
    4.7239    2.1916    0.5166 C   0  0  0  0  0  0  0  0  0  0  0  0
    3.7544   -0.2309    3.9676 C   0  0  0  0  0  0  0  0  0  0  0  0
    4.1959    4.4776    1.6242 C   0  0  0  0  0  0  0  0  0  0  0  0
    2.9465   -0.3080    2.8518 C   0  0  0  0  0  0  0  0  0  0  0  0
    3.9809    3.5583    0.3907 C   0  0  2  0  0  0  0  0  0  0  0  0
    4.3397    1.3265    1.6932 C   0  0  0  0  0  0  0  0  0  0  0  0
    4.9038    0.6115    3.9995 C   0  0  0  0  0  0  0  0  0  0  0  0
    4.4794    5.9834    1.3547 C   0  0  0  0  0  0  0  0  0  0  0  0
    5.1049    1.3541    2.8150 N   0  0  0  0  0  0  0  0  0  0  0  0
    5.7454    0.7800    4.9026 O   0  0  0  0  0  0  0  0  0  0  0  0
    6.2430    2.1407    2.8663 O   0  0  0  0  0  0  0  0  0  0  0  0
    0.8251   -0.6488    2.6326 H   0  0  0  0  0  0  0  0  0  0  0  0
    1.6204   -1.7508    3.7719 H   0  0  0  0  0  0  0  0  0  0  0  0
    1.8326   -1.9625    2.0244 H   0  0  0  0  0  0  0  0  0  0  0  0
    2.3572    2.7466   -0.8348 H   0  0  0  0  0  0  0  0  0  0  0  0
    1.9939    4.3167   -0.1055 H   0  0  0  0  0  0  0  0  0  0  0  0
    1.9716    2.8607    0.8928 H   0  0  0  0  0  0  0  0  0  0  0  0
    4.7723    7.7602    2.6014 H   0  0  0  0  0  0  0  0  0  0  0  0
    5.2996    6.2527    3.3698 H   0  0  0  0  0  0  0  0  0  0  0  0
    3.5720    6.6257    3.2440 H   0  0  0  0  0  0  0  0  0  0  0  0
    6.0726    7.2200    0.5133 H   0  0  0  0  0  0  0  0  0  0  0  0
    5.8634    5.6846   -0.3329 H   0  0  0  0  0  0  0  0  0  0  0  0
    6.6514    5.7176    1.2537 H   0  0  0  0  0  0  0  0  0  0  0  0
    3.5792    7.7142    0.3778 H   0  0  0  0  0  0  0  0  0  0  0  0
    2.3939    6.5392    0.9674 H   0  0  0  0  0  0  0  0  0  0  0  0
    3.3259    6.2064   -0.5049 H   0  0  0  0  0  0  0  0  0  0  0  0
    2.6340    0.4096    0.8207 H   0  0  0  0  0  0  0  0  0  0  0  0
    5.8009    2.3748    0.5524 H   0  0  0  0  0  0  0  0  0  0  0  0
    4.5234    1.6115   -0.3922 H   0  0  0  0  0  0  0  0  0  0  0  0
    3.5573   -0.8165    4.8586 H   0  0  0  0  0  0  0  0  0  0  0  0
    5.0363    4.1002    2.2168 H   0  0  0  0  0  0  0  0  0  0  0  0
    3.3125    4.4032    2.2748 H   0  0  0  0  0  0  0  0  0  0  0  0
    4.4462    4.0307   -0.4848 H   0  0  0  0  0  0  0  0  0  0  0  0
    6.5411    1.8988    3.7936 H   0  0  0  0  0  0  0  0  0  0  0  0
  1 10  1  0  0  0  0
  1 19  1  0  0  0  0
  2 11  1  0  0  0  0
  2 23  1  0  0  0  0
  3 26  1  0  0  0  0
  3 25  1  0  0  0  0
  4 29  1  0  0  0  0
  4 14  1  0  0  0  0
  5 31  1  0  0  0  0
  5 14  1  0  0  0  0
  6 10  1  0  0  0  0
  7 34  1  0  0  0  0
  7 12  1  0  0  0  0
  8 13  1  0  0  0  0
  8 36  1  0  0  0  0
  9 37  1  0  0  0  0
  9 38  1  0  0  0  0
 10  8  2  0  0  0  0
 11 39  1  6  0  0  0
 11  7  1  0  0  0  0
 11  9  1  0  0  0  0
 12  6  2  0  0  0  0
 12 15  1  0  0  0  0
 13 16  2  0  0  0  0
 14  9  1  0  0  0  0
 14  3  1  0  0  0  0
 15 17  1  0  0  0  0
 15 13  1  0  0  0  0
 17 40  1  0  0  0  0
 18  1  1  0  0  0  0
 20  1  1  0  0  0  0
 21  2  1  0  0  0  0
 22  2  1  0  0  0  0
 24  3  1  0  0  0  0
 27  4  1  0  0  0  0
 28  4  1  0  0  0  0
 30  5  1  0  0  0  0
 32  5  1  0  0  0  0
 33  6  1  0  0  0  0
 35  7  1  0  0  0  0
M  END
>  <HBA>
3

>  <HBD>
1

>  <TPSA>
42.23

>  <cid>
50259

>  <dipole>
3.82

>  <excitation_energy_1>
4.35

>  <excitation_energy_2>
5.229

>  <excitation_energy_3>
5.395

>  <excitation_energy_4>
5.398

>  <homo_energy>
-5.766

>  <homo_lumo_gap>
4.884

>  <logP>
3.009

>  <lumo_energy>
-0.882

>  <melting_point>
119.21

>  <molecular_refractivity>
71.57

>  <oscillator_strength_1>
0.1293

>  <oscillator_strength_2>
0.0258

>  <oscillator_strength_3>
0.013

>  <oscillator_strength_4>
0.0003

>  <open_babel_can_smiles>
C[C@@H](CC(C)(C)C)Cc1cc(C)cc(=O)n1O

>  <mulliken_charges>
40
1   -0.531311
2   -0.462903
3   -0.442073
4   -0.446625
5   -0.445457
6   -0.309944
7   -0.364173
8   -0.298015
9   -0.285118
10   0.230987
11   -0.064885
12   0.423787
13   0.628803
14   0.095
15   -0.284278
16   -0.603243
17   -0.51928
18   0.169258
19   0.166307
20   0.169855
21   0.133129
22   0.154966
23   0.149037
24   0.136299
25   0.142694
26   0.137741
27   0.138585
28   0.137589
29   0.144017
30   0.138005
31   0.13799
32   0.140218
33   0.135948
34   0.182691
35   0.15391
36   0.146381
37   0.162881
38   0.127063
39   0.134445
40   0.439719

>  <lowdin_charges>
40
1   -0.440499
2   -0.455279
3   -0.440886
4   -0.444501
5   -0.44259
6   -0.234241
7   -0.280345
8   -0.227866
9   -0.290805
10   0.036637
11   -0.118209
12   0.069591
13   0.137575
14   0.016797
15   0.094619
16   -0.360895
17   -0.364816
18   0.165847
19   0.162872
20   0.166554
21   0.143499
22   0.155687
23   0.150954
24   0.144456
25   0.149952
26   0.145995
27   0.146216
28   0.143577
29   0.150443
30   0.145937
31   0.145362
32   0.145169
33   0.167018
34   0.169914
35   0.159924
36   0.174312
37   0.157231
38   0.14224
39   0.143873
40   0.368683

$$$$

