PCCDB-ID:  45286
public computational chemistry database (PCCDB) project, http://pccdb.org

 38 38  0  0  1  0  0  0  0  0999 V2000
    1.1316    0.2406   -0.0509 C   0  0  0  0  0  0  0  0  0  0  0  0
    9.0762   -5.7348   -6.1797 C   0  0  0  0  0  0  0  0  0  0  0  0
    7.6899   -2.2285    0.4946 C   0  0  0  0  0  0  0  0  0  0  0  0
    2.6485    0.1668   -0.2509 C   0  0  0  0  0  0  0  0  0  0  0  0
    3.2084   -1.2537   -0.0999 C   0  0  0  0  0  0  0  0  0  0  0  0
    4.7251   -1.3414   -0.3127 C   0  0  0  0  0  0  0  0  0  0  0  0
    5.2598   -2.7709   -0.1533 C   0  0  0  0  0  0  0  0  0  0  0  0
    7.0766   -3.5143   -3.9839 C   0  0  0  0  0  0  0  0  0  0  0  0
    7.1061   -4.8275   -1.7610 C   0  0  0  0  0  0  0  0  0  0  0  0
    8.7464   -4.4961   -5.3809 C   0  0  0  0  0  0  0  0  0  0  0  0
    7.5779   -3.6036   -2.5478 C   0  0  2  0  0  0  0  0  0  0  0  0
    6.7532   -2.9561   -0.4638 C   0  0  2  0  0  0  0  0  0  0  0  0
    9.4324   -3.5023   -5.3049 O   0  0  0  0  0  0  0  0  0  0  0  0
    7.5474   -4.6391   -4.7556 O   0  0  0  0  0  0  0  0  0  0  0  0
    7.0869   -4.3486   -0.4237 O   0  0  0  0  0  0  0  0  0  0  0  0
    6.9997   -2.5247   -1.8163 O   0  0  0  0  0  0  0  0  0  0  0  0
    0.7614    1.2664   -0.1621 H   0  0  0  0  0  0  0  0  0  0  0  0
    0.8455   -0.1096    0.9487 H   0  0  0  0  0  0  0  0  0  0  0  0
    0.6046   -0.3843   -0.7826 H   0  0  0  0  0  0  0  0  0  0  0  0
   10.0759   -5.6373   -6.6039 H   0  0  0  0  0  0  0  0  0  0  0  0
    8.3447   -5.8625   -6.9850 H   0  0  0  0  0  0  0  0  0  0  0  0
    9.0214   -6.6246   -5.5449 H   0  0  0  0  0  0  0  0  0  0  0  0
    7.5379   -2.5866    1.5181 H   0  0  0  0  0  0  0  0  0  0  0  0
    7.5126   -1.1500    0.4677 H   0  0  0  0  0  0  0  0  0  0  0  0
    8.7275   -2.4211    0.2083 H   0  0  0  0  0  0  0  0  0  0  0  0
    3.1462    0.8311    0.4699 H   0  0  0  0  0  0  0  0  0  0  0  0
    2.9068    0.5529   -1.2474 H   0  0  0  0  0  0  0  0  0  0  0  0
    2.7029   -1.9188   -0.8160 H   0  0  0  0  0  0  0  0  0  0  0  0
    2.9562   -1.6376    0.9004 H   0  0  0  0  0  0  0  0  0  0  0  0
    5.2262   -0.6703    0.3984 H   0  0  0  0  0  0  0  0  0  0  0  0
    4.9801   -0.9772   -1.3162 H   0  0  0  0  0  0  0  0  0  0  0  0
    4.7051   -3.4409   -0.8234 H   0  0  0  0  0  0  0  0  0  0  0  0
    5.0836   -3.1315    0.8687 H   0  0  0  0  0  0  0  0  0  0  0  0
    7.4058   -2.5821   -4.4467 H   0  0  0  0  0  0  0  0  0  0  0  0
    5.9861   -3.5781   -4.0065 H   0  0  0  0  0  0  0  0  0  0  0  0
    7.7873   -5.6803   -1.8126 H   0  0  0  0  0  0  0  0  0  0  0  0
    6.1059   -5.1495   -2.0918 H   0  0  0  0  0  0  0  0  0  0  0  0
    8.6747   -3.5322   -2.5348 H   0  0  0  0  0  0  0  0  0  0  0  0
  1 18  1  0  0  0  0
  2 22  1  0  0  0  0
  2 10  1  0  0  0  0
  3 23  1  0  0  0  0
  4  5  1  0  0  0  0
  4  1  1  0  0  0  0
  4 26  1  0  0  0  0
  5 29  1  0  0  0  0
  6  7  1  0  0  0  0
  6  5  1  0  0  0  0
  6 30  1  0  0  0  0
  7 33  1  0  0  0  0
  8 11  1  0  0  0  0
  9 15  1  0  0  0  0
 10 13  2  0  0  0  0
 10 14  1  0  0  0  0
 11 38  1  1  0  0  0
 11 16  1  0  0  0  0
 11  9  1  0  0  0  0
 12 15  1  0  0  0  0
 12  7  1  1  0  0  0
 12  3  1  0  0  0  0
 14  8  1  0  0  0  0
 16 12  1  0  0  0  0
 17  1  1  0  0  0  0
 19  1  1  0  0  0  0
 20  2  1  0  0  0  0
 21  2  1  0  0  0  0
 24  3  1  0  0  0  0
 25  3  1  0  0  0  0
 27  4  1  0  0  0  0
 28  5  1  0  0  0  0
 31  6  1  0  0  0  0
 32  7  1  0  0  0  0
 34  8  1  0  0  0  0
 35  8  1  0  0  0  0
 36  9  1  0  0  0  0
 37  9  1  0  0  0  0
M  END
>  <HBA>
4

>  <HBD>
0

>  <TPSA>
44.76

>  <cid>
45286

>  <dipole>
1.96

>  <excitation_energy_1>
5.812

>  <excitation_energy_2>
6.272

>  <excitation_energy_3>
6.499

>  <excitation_energy_4>
6.655

>  <homo_energy>
-6.817

>  <homo_lumo_gap>
7.002

>  <logP>
2.261

>  <lumo_energy>
0.185

>  <melting_point>
-2.4

>  <molecular_refractivity>
61.18

>  <oscillator_strength_1>
0.0012

>  <oscillator_strength_2>
0.0074

>  <oscillator_strength_3>
0.0051

>  <oscillator_strength_4>
0.0134

>  <open_babel_can_smiles>
CCCCC[C@@]1(C)OC[C@H](O1)COC(=O)C

>  <mulliken_charges>
38
1   -0.441324
2   -0.523174
3   -0.456577
4   -0.247333
5   -0.247016
6   -0.265491
7   -0.267343
8   -0.072658
9   -0.043011
10   0.59841
11   0.119922
12   0.533237
13   -0.459775
14   -0.459402
15   -0.512854
16   -0.536715
17   0.141969
18   0.141107
19   0.140871
20   0.185383
21   0.185688
22   0.180906
23   0.151875
24   0.156949
25   0.155387
26   0.130422
27   0.131571
28   0.126105
29   0.126775
30   0.130562
31   0.149575
32   0.129616
33   0.137834
34   0.186059
35   0.156193
36   0.154623
37   0.130857
38   0.150774

>  <lowdin_charges>
38
1   -0.444391
2   -0.464652
3   -0.449859
4   -0.272817
5   -0.274117
6   -0.279787
7   -0.288752
8   -0.138021
9   -0.14523
10   0.202432
11   -0.01782
12   0.225119
13   -0.25905
14   -0.20245
15   -0.265754
16   -0.271728
17   0.148516
18   0.145594
19   0.147267
20   0.176679
21   0.180872
22   0.177502
23   0.158397
24   0.158445
25   0.15987
26   0.140218
27   0.139043
28   0.138161
29   0.136444
30   0.140701
31   0.148418
32   0.146885
33   0.148174
34   0.169347
35   0.154153
36   0.157645
37   0.132401
38   0.142147

$$$$

