PCCDB-ID:  39914
public computational chemistry database (PCCDB) project, http://pccdb.org

 28 28  0  0  1  0  0  0  0  0999 V2000
    1.2475   -0.8841    1.5328 C   0  0  0  0  0  0  0  0  0  0  0  0
    2.6296   -0.5928    0.9398 C   0  0  0  0  0  0  0  0  0  0  0  0
    3.5122    0.2643    1.8564 C   0  0  0  0  0  0  0  0  0  0  0  0
    4.8997    0.5513    1.2689 C   0  0  0  0  0  0  0  0  0  0  0  0
    8.6197    1.8157    3.6517 C   0  0  0  0  0  0  0  0  0  0  0  0
    5.7748    1.4094    2.1915 C   0  0  0  0  0  0  0  0  0  0  0  0
    8.0275    2.6042    2.5174 C   0  0  0  0  0  0  0  0  0  0  0  0
    8.8113    0.4965    3.5350 C   0  0  0  0  0  0  0  0  0  0  0  0
    7.1655    1.7088    1.6170 C   0  0  1  0  0  0  0  0  0  0  0  0
    8.5077   -0.2226    2.2757 C   0  0  0  0  0  0  0  0  0  0  0  0
    8.8568   -1.3629    2.0645 O   0  0  0  0  0  0  0  0  0  0  0  0
    7.8559    0.4709    1.2981 O   0  0  0  0  0  0  0  0  0  0  0  0
    0.6419   -1.4957    0.8544 H   0  0  0  0  0  0  0  0  0  0  0  0
    0.6950    0.0437    1.7273 H   0  0  0  0  0  0  0  0  0  0  0  0
    1.3300   -1.4247    2.4838 H   0  0  0  0  0  0  0  0  0  0  0  0
    2.5137   -0.0855   -0.0286 H   0  0  0  0  0  0  0  0  0  0  0  0
    3.1448   -1.5398    0.7266 H   0  0  0  0  0  0  0  0  0  0  0  0
    3.6253   -0.2427    2.8263 H   0  0  0  0  0  0  0  0  0  0  0  0
    2.9987    1.2144    2.0691 H   0  0  0  0  0  0  0  0  0  0  0  0
    4.7868    1.0614    0.3005 H   0  0  0  0  0  0  0  0  0  0  0  0
    5.4150   -0.3934    1.0579 H   0  0  0  0  0  0  0  0  0  0  0  0
    8.9142    2.3417    4.5578 H   0  0  0  0  0  0  0  0  0  0  0  0
    5.8809    0.9209    3.1691 H   0  0  0  0  0  0  0  0  0  0  0  0
    5.2782    2.3727    2.3783 H   0  0  0  0  0  0  0  0  0  0  0  0
    8.8401    3.0596    1.9319 H   0  0  0  0  0  0  0  0  0  0  0  0
    7.4199    3.4353    2.8952 H   0  0  0  0  0  0  0  0  0  0  0  0
    9.2565   -0.1095    4.3168 H   0  0  0  0  0  0  0  0  0  0  0  0
    7.0449    2.1861    0.6391 H   0  0  0  0  0  0  0  0  0  0  0  0
  1 14  1  0  0  0  0
  1 15  1  0  0  0  0
  2  1  1  0  0  0  0
  2  3  1  0  0  0  0
  3 19  1  0  0  0  0
  3 18  1  0  0  0  0
  4  3  1  0  0  0  0
  4  6  1  0  0  0  0
  5 22  1  0  0  0  0
  6 24  1  0  0  0  0
  6 23  1  0  0  0  0
  7 26  1  0  0  0  0
  7  5  1  0  0  0  0
  8  5  2  0  0  0  0
  8 27  1  0  0  0  0
  9 28  1  6  0  0  0
  9  6  1  0  0  0  0
  9  7  1  0  0  0  0
 10  8  1  0  0  0  0
 11 10  2  0  0  0  0
 12  9  1  0  0  0  0
 12 10  1  0  0  0  0
 13  1  1  0  0  0  0
 16  2  1  0  0  0  0
 17  2  1  0  0  0  0
 20  4  1  0  0  0  0
 21  4  1  0  0  0  0
 25  7  1  0  0  0  0
M  END
>  <HBA>
2

>  <HBD>
0

>  <TPSA>
26.3

>  <cid>
39914

>  <dipole>
4.82

>  <excitation_energy_1>
4.458

>  <excitation_energy_2>
5.536

>  <excitation_energy_3>
6.086

>  <excitation_energy_4>
6.22

>  <homo_energy>
-7.102

>  <homo_lumo_gap>
5.859

>  <logP>
2.438

>  <lumo_energy>
-1.244

>  <melting_point>
15.59

>  <molecular_refractivity>
48.88

>  <oscillator_strength_1>
0.0003

>  <oscillator_strength_2>
0.013

>  <oscillator_strength_3>
0.1866

>  <oscillator_strength_4>
0.0515

>  <open_babel_can_smiles>
CCCCC[C@H]1CC=CC(=O)O1

>  <mulliken_charges>
28
1   -0.441899
2   -0.247973
3   -0.248215
4   -0.259482
5   -0.103659
6   -0.274394
7   -0.326576
8   -0.167436
9   0.11275
10   0.594839
11   -0.463644
12   -0.476651
13   0.143353
14   0.139746
15   0.14228
16   0.130479
17   0.137002
18   0.129412
19   0.123495
20   0.127409
21   0.163346
22   0.152307
23   0.144115
24   0.132133
25   0.173983
26   0.158158
27   0.158024
28   0.147098

>  <lowdin_charges>
28
1   -0.445825
2   -0.271633
3   -0.273682
4   -0.276584
5   -0.121964
6   -0.288836
7   -0.290465
8   -0.20575
9   0.009525
10   0.186904
11   -0.241313
12   -0.196775
13   0.151557
14   0.145625
15   0.146537
16   0.138678
17   0.142388
18   0.138191
19   0.135189
20   0.138261
21   0.155347
22   0.166023
23   0.148333
24   0.145285
25   0.169161
26   0.164091
27   0.179363
28   0.152368

$$$$

