PCCDB-ID:  62117
public computational chemistry database (PCCDB) project, http://pccdb.org

 28 28  0  0  1  0  0  0  0  0999 V2000
    0.9394   -0.0599    0.7916 C   0  0  0  0  0  0  0  0  0  0  0  0
    3.3864    0.4874    1.0878 C   0  0  0  0  0  0  0  0  0  0  0  0
    2.0609   -2.5399   -0.2854 C   0  0  0  0  0  0  0  0  0  0  0  0
    3.9927   -1.3718   -1.3408 C   0  0  0  0  0  0  0  0  0  0  0  0
    2.4389   -3.8828   -0.8729 C   0  0  0  0  0  0  0  0  0  0  0  0
    4.1548   -2.6220   -2.2183 C   0  0  0  0  0  0  0  0  0  0  0  0
    2.3162   -0.0558    0.1153 C   0  0  0  0  0  0  0  0  0  0  0  0
    2.7377   -1.3934   -0.4825 C   0  0  0  0  0  0  0  0  0  0  0  0
    3.8729   -3.9261   -1.4372 C   0  0  1  0  0  0  0  0  0  0  0  0
    4.9565   -4.1641   -0.3786 C   0  0  0  0  0  0  0  0  0  0  0  0
    5.9485   -4.8179   -0.5931 O   0  0  0  0  0  0  0  0  0  0  0  0
    4.7778   -3.5745    0.8332 O   0  0  0  0  0  0  0  0  0  0  0  0
    0.6777    0.9541    1.1131 H   0  0  0  0  0  0  0  0  0  0  0  0
    0.9292   -0.6988    1.6830 H   0  0  0  0  0  0  0  0  0  0  0  0
    0.1538   -0.4100    0.1133 H   0  0  0  0  0  0  0  0  0  0  0  0
    3.0955    1.4756    1.4616 H   0  0  0  0  0  0  0  0  0  0  0  0
    4.3663    0.5892    0.6111 H   0  0  0  0  0  0  0  0  0  0  0  0
    3.4989   -0.1794    1.9515 H   0  0  0  0  0  0  0  0  0  0  0  0
    1.1550   -2.5323    0.3161 H   0  0  0  0  0  0  0  0  0  0  0  0
    3.9785   -0.4765   -1.9774 H   0  0  0  0  0  0  0  0  0  0  0  0
    4.8755   -1.2550   -0.6964 H   0  0  0  0  0  0  0  0  0  0  0  0
    1.7353   -4.1282   -1.6825 H   0  0  0  0  0  0  0  0  0  0  0  0
    2.2977   -4.6713   -0.1212 H   0  0  0  0  0  0  0  0  0  0  0  0
    5.1607   -2.6554   -2.6505 H   0  0  0  0  0  0  0  0  0  0  0  0
    3.4455   -2.5742   -3.0546 H   0  0  0  0  0  0  0  0  0  0  0  0
    2.2648    0.6512   -0.7286 H   0  0  0  0  0  0  0  0  0  0  0  0
    3.9724   -4.7717   -2.1235 H   0  0  0  0  0  0  0  0  0  0  0  0
    3.9493   -3.0560    0.8343 H   0  0  0  0  0  0  0  0  0  0  0  0
  1 13  1  0  0  0  0
  1 14  1  0  0  0  0
  2 16  1  0  0  0  0
  2 18  1  0  0  0  0
  3 19  1  0  0  0  0
  4 21  1  0  0  0  0
  4  8  1  0  0  0  0
  5  3  1  0  0  0  0
  5 23  1  0  0  0  0
  6  9  1  0  0  0  0
  6  4  1  0  0  0  0
  7  1  1  0  0  0  0
  7  2  1  0  0  0  0
  8  3  2  0  0  0  0
  8  7  1  0  0  0  0
  9 27  1  6  0  0  0
  9  5  1  0  0  0  0
  9 10  1  0  0  0  0
 10 12  1  0  0  0  0
 11 10  2  0  0  0  0
 12 28  1  0  0  0  0
 15  1  1  0  0  0  0
 17  2  1  0  0  0  0
 20  4  1  0  0  0  0
 22  5  1  0  0  0  0
 24  6  1  0  0  0  0
 25  6  1  0  0  0  0
 26  7  1  0  0  0  0
M  END
>  <HBA>
2

>  <HBD>
1

>  <TPSA>
37.3

>  <cid>
62117

>  <dipole>
5.1

>  <excitation_energy_1>
5.542

>  <excitation_energy_2>
6.01

>  <excitation_energy_3>
6.216

>  <excitation_energy_4>
6.339

>  <homo_energy>
-6.917

>  <homo_lumo_gap>
6.95

>  <logP>
2.454

>  <lumo_energy>
0.033

>  <melting_point>
83.73

>  <molecular_refractivity>
49.37

>  <oscillator_strength_1>
0.0006

>  <oscillator_strength_2>
0.0141

>  <oscillator_strength_3>
0.0847

>  <oscillator_strength_4>
0.0024

>  <open_babel_can_smiles>
OC(=O)[C@@H]1CCC(=CC1)C(C)C

>  <mulliken_charges>
28
1   -0.453587
2   -0.449753
3   -0.23514
4   -0.358926
5   -0.319924
6   -0.270729
7   -0.1354
8   0.18024
9   -0.200629
10   0.587569
11   -0.455252
12   -0.583628
13   0.14741
14   0.146547
15   0.149659
16   0.149032
17   0.153499
18   0.149024
19   0.134645
20   0.151012
21   0.170316
22   0.163237
23   0.160622
24   0.161691
25   0.147804
26   0.135182
27   0.164097
28   0.411381

>  <lowdin_charges>
28
1   -0.446647
2   -0.443341
3   -0.216696
4   -0.290575
5   -0.288153
6   -0.268345
7   -0.120222
8   -0.01704
9   -0.16565
10   0.188307
11   -0.248565
12   -0.366785
13   0.153523
14   0.14915
15   0.153199
16   0.152619
17   0.152835
18   0.150807
19   0.159174
20   0.156232
21   0.158984
22   0.162376
23   0.157364
24   0.158263
25   0.15026
26   0.145909
27   0.169594
28   0.353424

$$$$

