PCCDB-ID:  6417
public computational chemistry database (PCCDB) project, http://pccdb.org

 17 16  0  0  0  0  0  0  0  0999 V2000
    1.0437    0.1769    0.0933 C   0  0  0  0  0  0  0  0  0  0  0  0
    3.0057   -1.1970   -0.6924 C   0  0  0  0  0  0  0  0  0  0  0  0
    3.1782    1.3173   -0.6581 C   0  0  0  0  0  0  0  0  0  0  0  0
    3.1306    0.0064    1.4946 C   0  0  0  0  0  0  0  0  0  0  0  0
    2.5864    0.0788    0.0538 C   0  0  0  0  0  0  0  0  0  0  0  0
    3.7708   -0.9130    1.9400 O   0  0  0  0  0  0  0  0  0  0  0  0
    2.8504    1.0731    2.2977 O   0  0  0  0  0  0  0  0  0  0  0  0
    0.6456    0.1874   -0.9274 H   0  0  0  0  0  0  0  0  0  0  0  0
    0.6896    1.0900    0.5885 H   0  0  0  0  0  0  0  0  0  0  0  0
    0.6063   -0.6787    0.6191 H   0  0  0  0  0  0  0  0  0  0  0  0
    2.6289   -1.1695   -1.7212 H   0  0  0  0  0  0  0  0  0  0  0  0
    2.6091   -2.0888   -0.1993 H   0  0  0  0  0  0  0  0  0  0  0  0
    4.0946   -1.2949   -0.7223 H   0  0  0  0  0  0  0  0  0  0  0  0
    2.8284    1.3515   -1.6958 H   0  0  0  0  0  0  0  0  0  0  0  0
    4.2729    1.2811   -0.6707 H   0  0  0  0  0  0  0  0  0  0  0  0
    2.8806    2.2618   -0.1852 H   0  0  0  0  0  0  0  0  0  0  0  0
    2.3328    1.7337    1.8098 H   0  0  0  0  0  0  0  0  0  0  0  0
  1  9  1  0  0  0  0
  1 10  1  0  0  0  0
  2 12  1  0  0  0  0
  2  5  1  0  0  0  0
  3 16  1  0  0  0  0
  3  5  1  0  0  0  0
  4  6  2  0  0  0  0
  4  7  1  0  0  0  0
  5  1  1  0  0  0  0
  5  4  1  0  0  0  0
  8  1  1  0  0  0  0
 11  2  1  0  0  0  0
 13  2  1  0  0  0  0
 14  3  1  0  0  0  0
 15  3  1  0  0  0  0
 17  7  1  0  0  0  0
M  END
>  <HBA>
2

>  <HBD>
1

>  <TPSA>
37.3

>  <cid>
6417

>  <dipole>
4.23

>  <excitation_energy_1>
5.622

>  <excitation_energy_2>
6.405

>  <excitation_energy_3>
7.284

>  <excitation_energy_4>
7.526

>  <homo_energy>
-7.187

>  <homo_lumo_gap>
7.535

>  <logP>
1.117

>  <lumo_energy>
0.348

>  <melting_point>
69.95

>  <molecular_refractivity>
27.66

>  <oscillator_strength_1>
0.0018

>  <oscillator_strength_2>
0.0113

>  <oscillator_strength_3>
0.0219

>  <oscillator_strength_4>
0.003

>  <open_babel_can_smiles>
OC(=O)C(C)(C)C

>  <mulliken_charges>
17
1   -0.450868
2   -0.43182
3   -0.451468
4   0.617178
5   -0.040947
6   -0.445125
7   -0.578245
8   0.15857
9   0.129563
10   0.16828
11   0.135022
12   0.162397
13   0.162059
14   0.158715
15   0.168281
16   0.129361
17   0.409047

>  <lowdin_charges>
17
1   -0.442149
2   -0.432696
3   -0.438747
4   0.193764
5   -0.026246
6   -0.237124
7   -0.360633
8   0.157482
9   0.141799
10   0.162709
11   0.146095
12   0.162248
13   0.159672
14   0.157227
15   0.1598
16   0.141329
17   0.355469

$$$$

