PCCDB-ID:  69701
public computational chemistry database (PCCDB) project, http://pccdb.org

 21 21  0  0  0  0  0  0  0  0999 V2000
    2.1461    0.5433    1.4192 C   0  0  0  0  0  0  0  0  0  0  0  0
    6.3314   -2.2684    2.4980 C   0  0  0  0  0  0  0  0  0  0  0  0
    2.5411   -0.1541    0.1064 C   0  0  0  0  0  0  0  0  0  0  0  0
    2.9555   -1.5874    0.3192 C   0  0  0  0  0  0  0  0  0  0  0  0
    2.5859   -3.8573    0.0125 C   0  0  0  0  0  0  0  0  0  0  0  0
    4.4575   -2.9925    1.2586 C   0  0  0  0  0  0  0  0  0  0  0  0
    1.9895   -4.9041   -0.4100 N   0  0  0  0  0  0  0  0  0  0  0  0
    2.2131   -2.5318   -0.1901 N   0  0  0  0  0  0  0  0  0  0  0  0
    4.1105   -1.7505    1.0665 N   0  0  0  0  0  0  0  0  0  0  0  0
    3.7641   -4.0448    0.7776 N   0  0  0  0  0  0  0  0  0  0  0  0
    5.5414   -3.3412    1.9511 O   0  0  0  0  0  0  0  0  0  0  0  0
    1.8847    1.5901    1.2314 H   0  0  0  0  0  0  0  0  0  0  0  0
    2.9720    0.5171    2.1366 H   0  0  0  0  0  0  0  0  0  0  0  0
    1.2789    0.0545    1.8770 H   0  0  0  0  0  0  0  0  0  0  0  0
    7.1527   -2.7626    3.0168 H   0  0  0  0  0  0  0  0  0  0  0  0
    5.7358   -1.6716    3.1922 H   0  0  0  0  0  0  0  0  0  0  0  0
    6.7064   -1.6254    1.6988 H   0  0  0  0  0  0  0  0  0  0  0  0
    3.3873    0.3812   -0.3439 H   0  0  0  0  0  0  0  0  0  0  0  0
    1.7109   -0.1413   -0.6043 H   0  0  0  0  0  0  0  0  0  0  0  0
    1.1671   -4.6115   -0.9402 H   0  0  0  0  0  0  0  0  0  0  0  0
    4.0700   -4.9947    0.9523 H   0  0  0  0  0  0  0  0  0  0  0  0
  1 14  1  0  0  0  0
  1 13  1  0  0  0  0
  2 15  1  0  0  0  0
  2 16  1  0  0  0  0
  3  4  1  0  0  0  0
  3  1  1  0  0  0  0
  4  9  1  0  0  0  0
  5 10  1  0  0  0  0
  6 11  1  0  0  0  0
  7  5  1  0  0  0  0
  8  5  2  0  0  0  0
  8  4  2  0  0  0  0
  9  6  2  0  0  0  0
 10 21  1  0  0  0  0
 10  6  1  0  0  0  0
 11  2  1  0  0  0  0
 12  1  1  0  0  0  0
 17  2  1  0  0  0  0
 18  3  1  0  0  0  0
 19  3  1  0  0  0  0
 20  7  1  0  0  0  0
M  RAD  1   7   2
M  END
>  <HBA>
5

>  <HBD>
1

>  <TPSA>
73.92

>  <cid>
69701

>  <dipole>
4.09

>  <excitation_energy_1>
4.416

>  <excitation_energy_2>
4.815

>  <excitation_energy_3>
5.361

>  <excitation_energy_4>
5.614

>  <homo_energy>
-6.128

>  <homo_lumo_gap>
5.222

>  <logP>
0.606

>  <lumo_energy>
-0.906

>  <melting_point>
109.27

>  <molecular_refractivity>
40.5

>  <oscillator_strength_1>
0.0469

>  <oscillator_strength_2>
0.0013

>  <oscillator_strength_3>
0.0037

>  <oscillator_strength_4>
0.0017

>  <open_babel_can_smiles>
CCC1=[N]=C(NC(=N1)OC)[NH]

>  <mulliken_charges>
21
1   -0.450436
2   -0.213382
3   -0.30864
4   0.433821
5   0.601114
6   0.786086
7   -0.659186
8   -0.491988
9   -0.543327
10   -0.645785
11   -0.483815
12   0.149668
13   0.161644
14   0.154757
15   0.174023
16   0.180352
17   0.180972
18   0.155772
19   0.164665
20   0.296395
21   0.357289

>  <lowdin_charges>
21
1   -0.439312
2   -0.273328
3   -0.276302
4   0.123322
5   0.115651
6   0.194999
7   -0.440431
8   -0.222279
9   -0.264466
10   -0.209339
11   -0.172515
12   0.152453
13   0.156923
14   0.15372
15   0.166674
16   0.166662
17   0.166887
18   0.1611
19   0.163395
20   0.265502
21   0.310681

$$$$

