PCCDB-ID:  62530
public computational chemistry database (PCCDB) project, http://pccdb.org

 37 37  0  0  0  0  0  0  0  0999 V2000
    2.9572    2.9732   -3.5169 C   0  0  0  0  0  0  0  0  0  0  0  0
    4.7301    4.4565   -2.5761 C   0  0  0  0  0  0  0  0  0  0  0  0
    2.9362    3.5359   -1.0856 C   0  0  0  0  0  0  0  0  0  0  0  0
    4.8420    1.3531    0.3846 C   0  0  0  0  0  0  0  0  0  0  0  0
    6.3781    0.2880   -1.2233 C   0  0  0  0  0  0  0  0  0  0  0  0
    7.8612    4.3313    0.7958 C   0  0  0  0  0  0  0  0  0  0  0  0
    8.7677    4.6517   -0.2088 C   0  0  0  0  0  0  0  0  0  0  0  0
    6.8709    3.3753    0.5523 C   0  0  0  0  0  0  0  0  0  0  0  0
    8.6652    4.0139   -1.4434 C   0  0  0  0  0  0  0  0  0  0  0  0
    4.6974    1.9168   -2.1079 C   0  0  0  0  0  0  0  0  0  0  0  0
    6.7311    2.7126   -0.6758 C   0  0  0  0  0  0  0  0  0  0  0  0
    7.6678    3.0638   -1.6758 C   0  0  0  0  0  0  0  0  0  0  0  0
    3.8552    3.2209   -2.2820 C   0  0  0  0  0  0  0  0  0  0  0  0
    5.6568    1.6282   -0.8995 C   0  0  0  0  0  0  0  0  0  0  0  0
    7.5778    2.4591   -2.9089 O   0  0  0  0  0  0  0  0  0  0  0  0
    2.3511    3.8595   -3.7413 H   0  0  0  0  0  0  0  0  0  0  0  0
    2.2718    2.1325   -3.3516 H   0  0  0  0  0  0  0  0  0  0  0  0
    3.5572    2.7446   -4.4064 H   0  0  0  0  0  0  0  0  0  0  0  0
    4.0964    5.3114   -2.8459 H   0  0  0  0  0  0  0  0  0  0  0  0
    5.4132    4.2686   -3.4126 H   0  0  0  0  0  0  0  0  0  0  0  0
    5.3311    4.7489   -1.7112 H   0  0  0  0  0  0  0  0  0  0  0  0
    2.2342    4.3376   -1.3494 H   0  0  0  0  0  0  0  0  0  0  0  0
    3.5026    3.8796   -0.2144 H   0  0  0  0  0  0  0  0  0  0  0  0
    2.3434    2.6628   -0.7878 H   0  0  0  0  0  0  0  0  0  0  0  0
    4.0923    0.5819    0.1751 H   0  0  0  0  0  0  0  0  0  0  0  0
    4.3122    2.2275    0.7666 H   0  0  0  0  0  0  0  0  0  0  0  0
    5.4870    0.9730    1.1850 H   0  0  0  0  0  0  0  0  0  0  0  0
    5.6405   -0.5129   -1.3567 H   0  0  0  0  0  0  0  0  0  0  0  0
    7.0380    0.0018   -0.3958 H   0  0  0  0  0  0  0  0  0  0  0  0
    6.9772    0.3561   -2.1330 H   0  0  0  0  0  0  0  0  0  0  0  0
    7.9193    4.8127    1.7677 H   0  0  0  0  0  0  0  0  0  0  0  0
    9.5480    5.3895   -0.0436 H   0  0  0  0  0  0  0  0  0  0  0  0
    6.1830    3.1427    1.3564 H   0  0  0  0  0  0  0  0  0  0  0  0
    9.3637    4.2545   -2.2442 H   0  0  0  0  0  0  0  0  0  0  0  0
    5.2901    1.8102   -3.0216 H   0  0  0  0  0  0  0  0  0  0  0  0
    3.9857    1.0776   -2.1146 H   0  0  0  0  0  0  0  0  0  0  0  0
    8.2811    2.8127   -3.4756 H   0  0  0  0  0  0  0  0  0  0  0  0
  1 17  1  0  0  0  0
  1 13  1  0  0  0  0
  2 13  1  0  0  0  0
  2 21  1  0  0  0  0
  3 24  1  0  0  0  0
  3 23  1  0  0  0  0
  4 26  1  0  0  0  0
  4 27  1  0  0  0  0
  5 14  1  0  0  0  0
  5 29  1  0  0  0  0
  6 31  1  0  0  0  0
  7 32  1  0  0  0  0
  7  6  2  0  0  0  0
  8  6  1  0  0  0  0
  8 33  1  0  0  0  0
  9  7  1  0  0  0  0
 10 14  1  0  0  0  0
 11  8  2  0  0  0  0
 12  9  2  0  0  0  0
 12 11  1  0  0  0  0
 13 10  1  0  0  0  0
 13  3  1  0  0  0  0
 14 11  1  0  0  0  0
 14  4  1  0  0  0  0
 15 12  1  0  0  0  0
 16  1  1  0  0  0  0
 18  1  1  0  0  0  0
 19  2  1  0  0  0  0
 20  2  1  0  0  0  0
 22  3  1  0  0  0  0
 25  4  1  0  0  0  0
 28  5  1  0  0  0  0
 30  5  1  0  0  0  0
 34  9  1  0  0  0  0
 35 10  1  0  0  0  0
 36 10  1  0  0  0  0
 37 15  1  0  0  0  0
M  END
>  <HBA>
1

>  <HBD>
1

>  <TPSA>
20.23

>  <cid>
62530

>  <dipole>
1.46

>  <excitation_energy_1>
4.996

>  <excitation_energy_2>
5.112

>  <excitation_energy_3>
5.658

>  <excitation_energy_4>
5.693

>  <homo_energy>
-5.859

>  <homo_lumo_gap>
5.94

>  <logP>
4.106

>  <lumo_energy>
0.082

>  <melting_point>
69.11

>  <molecular_refractivity>
66.7

>  <oscillator_strength_1>
0.0444

>  <oscillator_strength_2>
0.0008

>  <oscillator_strength_3>
0.0173

>  <oscillator_strength_4>
0.0026

>  <open_babel_can_smiles>
Oc1ccccc1C(CC(C)(C)C)(C)C

>  <mulliken_charges>
37
1   -0.440385
2   -0.448309
3   -0.446256
4   -0.464778
5   -0.453538
6   -0.131727
7   -0.136215
8   -0.207559
9   -0.191781
10   -0.260918
11   0.137155
12   0.302877
13   0.101486
14   0.016122
15   -0.648832
16   0.133918
17   0.134736
18   0.136487
19   0.127436
20   0.13515
21   0.154967
22   0.132756
23   0.144524
24   0.134825
25   0.139238
26   0.150369
27   0.141218
28   0.132801
29   0.137951
30   0.169295
31   0.124065
32   0.128408
33   0.128737
34   0.113398
35   0.150698
36   0.114636
37   0.407043

>  <lowdin_charges>
37
1   -0.442736
2   -0.450105
3   -0.446757
4   -0.449793
5   -0.446245
6   -0.179072
7   -0.150789
8   -0.164542
9   -0.214134
10   -0.280988
11   -0.026263
12   0.099577
13   0.016435
14   0.017735
15   -0.38233
16   0.144676
17   0.144349
18   0.1457
19   0.142501
20   0.146092
21   0.156334
22   0.145694
23   0.147578
24   0.145631
25   0.15027
26   0.152071
27   0.148364
28   0.144794
29   0.147508
30   0.160134
31   0.156006
32   0.158308
33   0.162731
34   0.151249
35   0.154311
36   0.138268
37   0.357435

$$$$

