PCCDB-ID:  11250
public computational chemistry database (PCCDB) project, http://pccdb.org

 18 17  0  0  0  0  0  0  0  0999 V2000
    0.8915   -0.0494    0.0033 C   0  0  0  0  0  0  0  0  0  0  0  0
    3.1417    0.4558    1.2002 C   0  0  0  0  0  0  0  0  0  0  0  0
    2.3470   -1.0309   -2.3188 C   0  0  0  0  0  0  0  0  0  0  0  0
    4.5971   -0.5256   -1.1219 C   0  0  0  0  0  0  0  0  0  0  0  0
    2.4075   -0.0605   -0.0219 C   0  0  0  0  0  0  0  0  0  0  0  0
    3.0812   -0.5149   -1.0966 C   0  0  0  0  0  0  0  0  0  0  0  0
    0.5059    0.3480    0.9469 H   0  0  0  0  0  0  0  0  0  0  0  0
    0.4711   -1.0568   -0.1239 H   0  0  0  0  0  0  0  0  0  0  0  0
    0.4715    0.5639   -0.8063 H   0  0  0  0  0  0  0  0  0  0  0  0
    2.4478    0.7837    1.9800 H   0  0  0  0  0  0  0  0  0  0  0  0
    3.7907    1.3096    0.9594 H   0  0  0  0  0  0  0  0  0  0  0  0
    3.7931   -0.3109    1.6428 H   0  0  0  0  0  0  0  0  0  0  0  0
    3.0409   -1.3576   -3.0992 H   0  0  0  0  0  0  0  0  0  0  0  0
    1.6948   -0.2644   -2.7606 H   0  0  0  0  0  0  0  0  0  0  0  0
    1.6988   -1.8854   -2.0786 H   0  0  0  0  0  0  0  0  0  0  0  0
    4.9828   -0.9217   -2.0661 H   0  0  0  0  0  0  0  0  0  0  0  0
    5.0174   -1.1400   -0.3132 H   0  0  0  0  0  0  0  0  0  0  0  0
    5.0174    0.4817   -0.9934 H   0  0  0  0  0  0  0  0  0  0  0  0
  1  7  1  0  0  0  0
  2 12  1  0  0  0  0
  2 10  1  0  0  0  0
  3 15  1  0  0  0  0
  3  6  1  0  0  0  0
  4  6  1  0  0  0  0
  4 18  1  0  0  0  0
  4 17  1  0  0  0  0
  5  1  1  0  0  0  0
  5  2  1  0  0  0  0
  6  5  2  0  0  0  0
  8  1  1  0  0  0  0
  9  1  1  0  0  0  0
 11  2  1  0  0  0  0
 13  3  1  0  0  0  0
 14  3  1  0  0  0  0
 16  4  1  0  0  0  0
M  END
>  <HBA>
0

>  <HBD>
0

>  <TPSA>
0.0

>  <cid>
11250

>  <dipole>
0.0

>  <excitation_energy_1>
5.299

>  <excitation_energy_2>
5.846

>  <excitation_energy_3>
5.869

>  <excitation_energy_4>
6.33

>  <homo_energy>
-5.72

>  <homo_lumo_gap>
6.547

>  <logP>
2.363

>  <lumo_energy>
0.827

>  <melting_point>
-9.93

>  <molecular_refractivity>
30.48

>  <oscillator_strength_1>
0.0074

>  <oscillator_strength_2>
0.0

>  <oscillator_strength_3>
0.0

>  <oscillator_strength_4>
0.0

>  <open_babel_can_smiles>
CC(=C(C)C)C

>  <mulliken_charges>
18
1   -0.510659
2   -0.510783
3   -0.510798
4   -0.51076
5   0.117658
6   0.117731
7   0.143132
8   0.154374
9   0.154358
10   0.143177
11   0.154379
12   0.154368
13   0.143184
14   0.15437
15   0.154384
16   0.14314
17   0.154367
18   0.15438

>  <lowdin_charges>
18
1   -0.445242
2   -0.446658
3   -0.446654
4   -0.445252
5   -0.033066
6   -0.033061
7   0.151411
8   0.154289
9   0.155762
10   0.152212
11   0.155327
12   0.155965
13   0.152212
14   0.155963
15   0.155325
16   0.151407
17   0.155768
18   0.154291

$$$$

