PCCDB-ID:  31386
public computational chemistry database (PCCDB) project, http://pccdb.org

 25 26  0  0  0  0  0  0  0  0999 V2000
   -1.5459   -0.3721    0.2959 C   0  0  0  0  0  0  0  0  0  0  0  0
    3.1423    2.3895   -4.5122 C   0  0  0  0  0  0  0  0  0  0  0  0
   -0.8000   -1.3537   -0.3610 C   0  0  0  0  0  0  0  0  0  0  0  0
   -0.9329    0.8050    0.7322 C   0  0  0  0  0  0  0  0  0  0  0  0
    3.0654    3.1455   -3.3400 C   0  0  0  0  0  0  0  0  0  0  0  0
    3.1612    0.9939   -4.4513 C   0  0  0  0  0  0  0  0  0  0  0  0
    0.5617   -1.1594   -0.5932 C   0  0  0  0  0  0  0  0  0  0  0  0
    0.4281    1.0106    0.5059 C   0  0  0  0  0  0  0  0  0  0  0  0
    2.9974    2.5095   -2.1002 C   0  0  0  0  0  0  0  0  0  0  0  0
    3.0942    0.3467   -3.2176 C   0  0  0  0  0  0  0  0  0  0  0  0
    1.1591    0.0264   -0.1622 C   0  0  0  0  0  0  0  0  0  0  0  0
    3.0055    1.1142   -2.0547 C   0  0  0  0  0  0  0  0  0  0  0  0
    3.3975    1.2374    0.5579 O   0  0  0  0  0  0  0  0  0  0  0  0
    3.5345   -1.0444   -0.6245 O   0  0  0  0  0  0  0  0  0  0  0  0
    2.9203    0.2828   -0.4562 S   0  0  0  0  0  0  0  0  0  0  0  0
   -2.6060   -0.5283    0.4755 H   0  0  0  0  0  0  0  0  0  0  0  0
    3.1962    2.8891   -5.4755 H   0  0  0  0  0  0  0  0  0  0  0  0
   -1.2760   -2.2743   -0.6863 H   0  0  0  0  0  0  0  0  0  0  0  0
   -1.5123    1.5602    1.2557 H   0  0  0  0  0  0  0  0  0  0  0  0
    3.0656    4.2306   -3.3896 H   0  0  0  0  0  0  0  0  0  0  0  0
    3.2358    0.4088   -5.3635 H   0  0  0  0  0  0  0  0  0  0  0  0
    1.1627   -1.9204   -1.0794 H   0  0  0  0  0  0  0  0  0  0  0  0
    0.9268    1.9070    0.8589 H   0  0  0  0  0  0  0  0  0  0  0  0
    2.9609    3.0794   -1.1777 H   0  0  0  0  0  0  0  0  0  0  0  0
    3.1330   -0.7354   -3.1492 H   0  0  0  0  0  0  0  0  0  0  0  0
  1 16  1  0  0  0  0
  1  4  2  0  0  0  0
  2  6  2  0  0  0  0
  2  5  1  0  0  0  0
  3  1  1  0  0  0  0
  4 19  1  0  0  0  0
  5  9  2  0  0  0  0
  6 10  1  0  0  0  0
  7  3  2  0  0  0  0
  7 11  1  0  0  0  0
  8  4  1  0  0  0  0
  8 23  1  0  0  0  0
  9 12  1  0  0  0  0
  9 24  1  0  0  0  0
 10 25  1  0  0  0  0
 10 12  2  0  0  0  0
 11  8  2  0  0  0  0
 12 15  1  0  0  0  0
 14 15  2  0  0  0  0
 15 11  1  0  0  0  0
 15 13  2  0  0  0  0
 17  2  1  0  0  0  0
 18  3  1  0  0  0  0
 20  5  1  0  0  0  0
 21  6  1  0  0  0  0
 22  7  1  0  0  0  0
M  END
>  <HBA>
2

>  <HBD>
0

>  <TPSA>
42.52

>  <cid>
31386

>  <dipole>
5.44

>  <excitation_energy_1>
5.024

>  <excitation_energy_2>
5.121

>  <excitation_energy_3>
5.157

>  <excitation_energy_4>
5.42

>  <homo_energy>
-7.11

>  <homo_lumo_gap>
5.744

>  <logP>
3.6

>  <lumo_energy>
-1.366

>  <melting_point>
67.86

>  <molecular_refractivity>
58.38

>  <oscillator_strength_1>
0.0

>  <oscillator_strength_2>
0.1686

>  <oscillator_strength_3>
0.0211

>  <oscillator_strength_4>
0.0955

>  <open_babel_can_smiles>
O=S(=O)(c1ccccc1)c1ccccc1

>  <mulliken_charges>
25
1   -0.119223
2   -0.119168
3   -0.127292
4   -0.127382
5   -0.127337
6   -0.127419
7   -0.139842
8   -0.139397
9   -0.139884
10   -0.139358
11   -0.141315
12   -0.141447
13   -0.556693
14   -0.556673
15   1.134941
16   0.143583
17   0.143467
18   0.144963
19   0.144965
20   0.144903
21   0.144906
22   0.175402
23   0.174972
24   0.17542
25   0.174908

>  <lowdin_charges>
25
1   -0.136428
2   -0.138493
3   -0.149992
4   -0.151072
5   -0.147115
6   -0.150499
7   -0.139208
8   -0.138061
9   -0.137987
10   -0.134948
11   -0.185273
12   -0.184671
13   -0.59653
14   -0.595498
15   1.27374
16   0.162782
17   0.164313
18   0.165669
19   0.166741
20   0.163287
21   0.165797
22   0.182232
23   0.181206
24   0.181331
25   0.178677

$$$$

