PCCDB-ID:  11511
public computational chemistry database (PCCDB) project, http://pccdb.org

 26 25  0  0  1  0  0  0  0  0999 V2000
    3.9500    2.9820   -2.0821 C   0  0  0  0  0  0  0  0  0  0  0  0
    6.9135    3.3910    1.6779 C   0  0  0  0  0  0  0  0  0  0  0  0
    7.2587    1.0280    0.8604 C   0  0  0  0  0  0  0  0  0  0  0  0
    2.5214    2.7452    0.7456 C   0  0  0  0  0  0  0  0  0  0  0  0
    4.1577    3.8799   -0.8551 C   0  0  0  0  0  0  0  0  0  0  0  0
    4.9413    2.0265    0.7773 C   0  0  0  0  0  0  0  0  0  0  0  0
    6.4519    2.3226    0.6751 C   0  0  0  0  0  0  0  0  0  0  0  0
    3.9731    3.2021    0.5227 C   0  0  2  0  0  0  0  0  0  0  0  0
    4.0778    3.5588   -3.0053 H   0  0  0  0  0  0  0  0  0  0  0  0
    2.9446    2.5467   -2.1055 H   0  0  0  0  0  0  0  0  0  0  0  0
    4.6691    2.1553   -2.1118 H   0  0  0  0  0  0  0  0  0  0  0  0
    7.9931    3.5651    1.5954 H   0  0  0  0  0  0  0  0  0  0  0  0
    6.7067    3.0739    2.7089 H   0  0  0  0  0  0  0  0  0  0  0  0
    6.4118    4.3517    1.5190 H   0  0  0  0  0  0  0  0  0  0  0  0
    8.3340    1.2089    0.7436 H   0  0  0  0  0  0  0  0  0  0  0  0
    6.9655    0.2654    0.1288 H   0  0  0  0  0  0  0  0  0  0  0  0
    7.0999    0.6059    1.8616 H   0  0  0  0  0  0  0  0  0  0  0  0
    1.8161    3.5696    0.5837 H   0  0  0  0  0  0  0  0  0  0  0  0
    2.3784    2.3795    1.7694 H   0  0  0  0  0  0  0  0  0  0  0  0
    2.2432    1.9304    0.0664 H   0  0  0  0  0  0  0  0  0  0  0  0
    3.4586    4.7261   -0.9127 H   0  0  0  0  0  0  0  0  0  0  0  0
    5.1616    4.3217   -0.9064 H   0  0  0  0  0  0  0  0  0  0  0  0
    4.7370    1.6278    1.7831 H   0  0  0  0  0  0  0  0  0  0  0  0
    4.6985    1.2099    0.0820 H   0  0  0  0  0  0  0  0  0  0  0  0
    6.6632    2.6976   -0.3372 H   0  0  0  0  0  0  0  0  0  0  0  0
    4.1793    3.9765    1.2759 H   0  0  0  0  0  0  0  0  0  0  0  0
  1  5  1  0  0  0  0
  2 13  1  0  0  0  0
  3 17  1  0  0  0  0
  4 19  1  0  0  0  0
  5  8  1  0  0  0  0
  6 23  1  0  0  0  0
  7  6  1  0  0  0  0
  7  3  1  0  0  0  0
  7  2  1  0  0  0  0
  8  4  1  0  0  0  0
  8  6  1  0  0  0  0
  8 26  1  1  0  0  0
  9  1  1  0  0  0  0
 10  1  1  0  0  0  0
 11  1  1  0  0  0  0
 12  2  1  0  0  0  0
 14  2  1  0  0  0  0
 15  3  1  0  0  0  0
 16  3  1  0  0  0  0
 18  4  1  0  0  0  0
 20  4  1  0  0  0  0
 21  5  1  0  0  0  0
 22  5  1  0  0  0  0
 24  6  1  0  0  0  0
 25  7  1  0  0  0  0
M  END
>  <HBA>
0

>  <HBD>
0

>  <TPSA>
0.0

>  <cid>
11511

>  <dipole>
0.11

>  <excitation_energy_1>
7.574

>  <excitation_energy_2>
7.642

>  <excitation_energy_3>
7.802

>  <excitation_energy_4>
7.95

>  <homo_energy>
-8.085

>  <homo_lumo_gap>
10.131

>  <logP>
3.079

>  <lumo_energy>
2.046

>  <melting_point>
-27.89

>  <molecular_refractivity>
40.57

>  <oscillator_strength_1>
0.0371

>  <oscillator_strength_2>
0.0208

>  <oscillator_strength_3>
0.0076

>  <oscillator_strength_4>
0.0022

>  <open_babel_can_smiles>
CC[C@H](CC(C)C)C

>  <mulliken_charges>
26
1   -0.451083
2   -0.445848
3   -0.442016
4   -0.449637
5   -0.255684
6   -0.248287
7   -0.072994
8   -0.071891
9   0.141603
10   0.145534
11   0.14575
12   0.138585
13   0.137212
14   0.145237
15   0.138028
16   0.138245
17   0.137731
18   0.137277
19   0.139137
20   0.141598
21   0.126838
22   0.133174
23   0.120177
24   0.124952
25   0.125212
26   0.12115

>  <lowdin_charges>
26
1   -0.449788
2   -0.443964
3   -0.441969
4   -0.446695
5   -0.277433
6   -0.279099
7   -0.122394
8   -0.127488
9   0.15038
10   0.147019
11   0.147306
12   0.14599
13   0.143803
14   0.147885
15   0.145007
16   0.147323
17   0.144091
18   0.147037
19   0.146857
20   0.146267
21   0.140559
22   0.139807
23   0.137311
24   0.139279
25   0.135097
26   0.13781

$$$$

