PCCDB-ID:  61270
public computational chemistry database (PCCDB) project, http://pccdb.org

 34 34  0  0  1  0  0  0  0  0999 V2000
    0.7689    0.2182    0.8400 C   0  0  0  0  0  0  0  0  0  0  0  0
    6.2338    1.5020   -5.8430 C   0  0  0  0  0  0  0  0  0  0  0  0
    3.4018    2.0485    1.7183 C   0  0  0  0  0  0  0  0  0  0  0  0
    2.4139    2.4506   -0.5448 C   0  0  0  0  0  0  0  0  0  0  0  0
    2.9886   -0.9611    0.5291 C   0  0  0  0  0  0  0  0  0  0  0  0
    4.4430   -0.6769    0.2566 C   0  0  0  0  0  0  0  0  0  0  0  0
    4.5430    0.8632   -1.7830 C   0  0  0  0  0  0  0  0  0  0  0  0
    5.9400    0.4997   -2.2826 C   0  0  0  0  0  0  0  0  0  0  0  0
    2.2416    0.1473    0.5587 C   0  0  0  0  0  0  0  0  0  0  0  0
    6.2199    1.6723   -4.3410 C   0  0  0  0  0  0  0  0  0  0  0  0
    4.4358    0.7983   -0.2471 C   0  0  1  0  0  0  0  0  0  0  0  0
    3.1020    1.3994    0.3444 C   0  0  0  0  0  0  0  0  0  0  0  0
    6.3874    2.7196   -3.7539 O   0  0  0  0  0  0  0  0  0  0  0  0
    5.9930    0.4860   -3.7296 O   0  0  0  0  0  0  0  0  0  0  0  0
    0.3559   -0.7761    1.0389 H   0  0  0  0  0  0  0  0  0  0  0  0
    0.2144    0.6494   -0.0039 H   0  0  0  0  0  0  0  0  0  0  0  0
    0.5529    0.8515    1.7114 H   0  0  0  0  0  0  0  0  0  0  0  0
    6.4732    2.4558   -6.3143 H   0  0  0  0  0  0  0  0  0  0  0  0
    5.2544    1.1545   -6.1885 H   0  0  0  0  0  0  0  0  0  0  0  0
    6.9693    0.7448   -6.1327 H   0  0  0  0  0  0  0  0  0  0  0  0
    2.4777    2.3502    2.2257 H   0  0  0  0  0  0  0  0  0  0  0  0
    4.0209    2.9461    1.5961 H   0  0  0  0  0  0  0  0  0  0  0  0
    3.9338    1.3548    2.3790 H   0  0  0  0  0  0  0  0  0  0  0  0
    1.5191    2.8420   -0.0470 H   0  0  0  0  0  0  0  0  0  0  0  0
    2.1013    2.0394   -1.5102 H   0  0  0  0  0  0  0  0  0  0  0  0
    3.0765    3.3026   -0.7373 H   0  0  0  0  0  0  0  0  0  0  0  0
    2.6108   -1.9645    0.7124 H   0  0  0  0  0  0  0  0  0  0  0  0
    4.8731   -1.3689   -0.4794 H   0  0  0  0  0  0  0  0  0  0  0  0
    5.0481   -0.7955    1.1684 H   0  0  0  0  0  0  0  0  0  0  0  0
    3.8084    0.1895   -2.2434 H   0  0  0  0  0  0  0  0  0  0  0  0
    4.3284    1.8753   -2.1376 H   0  0  0  0  0  0  0  0  0  0  0  0
    6.2333   -0.5124   -1.9944 H   0  0  0  0  0  0  0  0  0  0  0  0
    6.6818    1.2111   -1.9090 H   0  0  0  0  0  0  0  0  0  0  0  0
    5.2884    1.3532    0.1670 H   0  0  0  0  0  0  0  0  0  0  0  0
  1 15  1  0  0  0  0
  1 17  1  0  0  0  0
  2 10  1  0  0  0  0
  3 21  1  0  0  0  0
  3 23  1  0  0  0  0
  4 24  1  0  0  0  0
  4 12  1  0  0  0  0
  5  9  2  0  0  0  0
  5 27  1  0  0  0  0
  6  5  1  0  0  0  0
  6 29  1  0  0  0  0
  7 11  1  0  0  0  0
  8 32  1  0  0  0  0
  8 33  1  0  0  0  0
  8  7  1  0  0  0  0
  9  1  1  0  0  0  0
 10 13  2  0  0  0  0
 10 14  1  0  0  0  0
 11 34  1  1  0  0  0
 11  6  1  0  0  0  0
 11 12  1  0  0  0  0
 12  9  1  0  0  0  0
 12  3  1  0  0  0  0
 14  8  1  0  0  0  0
 16  1  1  0  0  0  0
 18  2  1  0  0  0  0
 19  2  1  0  0  0  0
 20  2  1  0  0  0  0
 22  3  1  0  0  0  0
 25  4  1  0  0  0  0
 26  4  1  0  0  0  0
 28  6  1  0  0  0  0
 30  7  1  0  0  0  0
 31  7  1  0  0  0  0
M  END
>  <HBA>
2

>  <HBD>
0

>  <TPSA>
26.3

>  <cid>
61270

>  <dipole>
1.64

>  <excitation_energy_1>
5.661

>  <excitation_energy_2>
5.808

>  <excitation_energy_3>
5.949

>  <excitation_energy_4>
5.988

>  <homo_energy>
-6.182

>  <homo_lumo_gap>
6.645

>  <logP>
2.932

>  <lumo_energy>
0.463

>  <melting_point>
36.37

>  <molecular_refractivity>
58.23

>  <oscillator_strength_1>
0.0032

>  <oscillator_strength_2>
0.0011

>  <oscillator_strength_3>
0.0027

>  <oscillator_strength_4>
0.001

>  <open_babel_can_smiles>
CC(=O)OCC[C@@H]1CC=C(C1(C)C)C

>  <mulliken_charges>
34
1   -0.528738
2   -0.52238
3   -0.452809
4   -0.470767
5   -0.174975
6   -0.316684
7   -0.292726
8   -0.049118
9   0.193074
10   0.60123
11   -0.116742
12   0.044963
13   -0.471219
14   -0.456607
15   0.153941
16   0.157475
17   0.154469
18   0.180966
19   0.180993
20   0.180181
21   0.139326
22   0.142717
23   0.14551
24   0.141145
25   0.148372
26   0.149834
27   0.114316
28   0.136391
29   0.142905
30   0.144181
31   0.164284
32   0.150817
33   0.164887
34   0.120792

>  <lowdin_charges>
34
1   -0.443191
2   -0.465764
3   -0.443684
4   -0.447984
5   -0.194192
6   -0.281459
7   -0.291286
8   -0.132525
9   -0.01346
10   0.200641
11   -0.123803
12   0.01105
13   -0.270402
14   -0.200144
15   0.157847
16   0.158487
17   0.155926
18   0.17476
19   0.177231
20   0.177473
21   0.146787
22   0.14815
23   0.151512
24   0.150175
25   0.150685
26   0.153051
27   0.148219
28   0.145154
29   0.147008
30   0.148863
31   0.158844
32   0.149087
33   0.156908
34   0.140035

$$$$

