PCCDB-ID:  72628
public computational chemistry database (PCCDB) project, http://pccdb.org

 29 31  0  0  0  0  0  0  0  0999 V2000
    1.0119    0.0364   -0.5798 C   0  0  0  0  0  0  0  0  0  0  0  0
    3.5033    0.0377   -1.0468 C   0  0  0  0  0  0  0  0  0  0  0  0
    5.1044   -2.3655    3.3012 C   0  0  0  0  0  0  0  0  0  0  0  0
    5.0975    2.4882    3.2773 C   0  0  0  0  0  0  0  0  0  0  0  0
    5.6301   -1.1838    3.7789 C   0  0  0  0  0  0  0  0  0  0  0  0
    5.6266    1.3128    3.7666 C   0  0  0  0  0  0  0  0  0  0  0  0
    4.0809   -2.3767    2.3299 C   0  0  0  0  0  0  0  0  0  0  0  0
    4.0739    2.4869    2.3060 C   0  0  0  0  0  0  0  0  0  0  0  0
    5.1395    0.0615    3.3023 C   0  0  0  0  0  0  0  0  0  0  0  0
    3.5767   -1.1809    1.8404 C   0  0  0  0  0  0  0  0  0  0  0  0
    3.5731    1.2850    1.8283 C   0  0  0  0  0  0  0  0  0  0  0  0
    4.1043    0.0552    2.3188 C   0  0  0  0  0  0  0  0  0  0  0  0
    2.4096    0.0415    0.0464 C   0  0  0  0  0  0  0  0  0  0  0  0
    2.5212   -1.1278    0.9286 N   0  0  0  0  0  0  0  0  0  0  0  0
    2.5178    1.2198    0.9170 N   0  0  0  0  0  0  0  0  0  0  0  0
    0.8738   -0.8501   -1.2097 H   0  0  0  0  0  0  0  0  0  0  0  0
    0.8709    0.9168   -1.2175 H   0  0  0  0  0  0  0  0  0  0  0  0
    0.2528    0.0387    0.2061 H   0  0  0  0  0  0  0  0  0  0  0  0
    3.4170   -0.8520   -1.6825 H   0  0  0  0  0  0  0  0  0  0  0  0
    4.4992    0.0411   -0.5936 H   0  0  0  0  0  0  0  0  0  0  0  0
    3.4148    0.9210   -1.6910 H   0  0  0  0  0  0  0  0  0  0  0  0
    5.4843   -3.3146    3.6711 H   0  0  0  0  0  0  0  0  0  0  0  0
    5.4747    3.4420    3.6378 H   0  0  0  0  0  0  0  0  0  0  0  0
    6.4189   -1.1897    4.5263 H   0  0  0  0  0  0  0  0  0  0  0  0
    6.4154    1.3284    4.5137 H   0  0  0  0  0  0  0  0  0  0  0  0
    3.6828   -3.3219    1.9677 H   0  0  0  0  0  0  0  0  0  0  0  0
    3.6731    3.4274    1.9346 H   0  0  0  0  0  0  0  0  0  0  0  0
    2.3509   -2.0017    0.4441 H   0  0  0  0  0  0  0  0  0  0  0  0
    2.3450    2.0884    0.4239 H   0  0  0  0  0  0  0  0  0  0  0  0
  1 13  1  0  0  0  0
  1 18  1  0  0  0  0
  2 20  1  0  0  0  0
  2 13  1  0  0  0  0
  3 22  1  0  0  0  0
  3  5  1  0  0  0  0
  4 23  1  0  0  0  0
  4  6  2  0  0  0  0
  5 24  1  0  0  0  0
  6 25  1  0  0  0  0
  7  3  2  0  0  0  0
  8  4  1  0  0  0  0
  9  6  1  0  0  0  0
  9  5  2  0  0  0  0
 10 12  2  0  0  0  0
 10  7  1  0  0  0  0
 11  8  2  0  0  0  0
 11 12  1  0  0  0  0
 12  9  1  0  0  0  0
 13 15  1  0  0  0  0
 13 14  1  0  0  0  0
 14 10  1  0  0  0  0
 15 11  1  0  0  0  0
 16  1  1  0  0  0  0
 17  1  1  0  0  0  0
 19  2  1  0  0  0  0
 21  2  1  0  0  0  0
 26  7  1  0  0  0  0
 27  8  1  0  0  0  0
 28 14  1  0  0  0  0
 29 15  1  0  0  0  0
M  END
>  <HBA>
2

>  <HBD>
2

>  <TPSA>
24.06

>  <cid>
72628

>  <dipole>
3.16

>  <excitation_energy_1>
3.842

>  <excitation_energy_2>
3.963

>  <excitation_energy_3>
4.153

>  <excitation_energy_4>
4.486

>  <homo_energy>
-4.672

>  <homo_lumo_gap>
4.335

>  <logP>
3.689

>  <lumo_energy>
-0.337

>  <melting_point>
151.7

>  <molecular_refractivity>
71.16

>  <oscillator_strength_1>
0.14

>  <oscillator_strength_2>
0.0744

>  <oscillator_strength_3>
0.0106

>  <oscillator_strength_4>
0.0032

>  <open_babel_can_smiles>
CC1(C)Nc2cccc3c2c(N1)ccc3

>  <mulliken_charges>
29
1   -0.462497
2   -0.435327
3   -0.132621
4   -0.132636
5   -0.211363
6   -0.211408
7   -0.216258
8   -0.216245
9   0.135821
10   0.314842
11   0.314848
12   0.042288
13   0.312616
14   -0.662276
15   -0.662291
16   0.142287
17   0.142288
18   0.176628
19   0.13739
20   0.171151
21   0.137396
22   0.121837
23   0.121836
24   0.118202
25   0.118204
26   0.108927
27   0.108928
28   0.308713
29   0.308718

>  <lowdin_charges>
29
1   -0.448893
2   -0.467035
3   -0.1464
4   -0.146342
5   -0.190773
6   -0.190773
7   -0.222209
8   -0.222246
9   0.015298
10   0.061231
11   0.061232
12   -0.056505
13   0.128964
14   -0.28935
15   -0.289445
16   0.152305
17   0.152341
18   0.168869
19   0.149594
20   0.165119
21   0.149627
22   0.155547
23   0.155493
24   0.154293
25   0.154294
26   0.150372
27   0.150424
28   0.272456
29   0.272512

$$$$

