PCCDB-ID:  13365
public computational chemistry database (PCCDB) project, http://pccdb.org

 32 31  0  0  1  0  0  0  0  0999 V2000
    1.8978    1.7362   -0.5285 C   0  0  0  0  0  0  0  0  0  0  0  0
    5.1759   -1.1442    5.6904 C   0  0  0  0  0  0  0  0  0  0  0  0
    1.4774   -1.3571    1.8396 C   0  0  0  0  0  0  0  0  0  0  0  0
    6.0223    1.9325    3.3981 C   0  0  0  0  0  0  0  0  0  0  0  0
    1.3499    0.4215    0.0303 C   0  0  0  0  0  0  0  0  0  0  0  0
    5.3838    0.3092    5.2550 C   0  0  0  0  0  0  0  0  0  0  0  0
    2.1350   -0.0995    1.2472 C   0  0  2  0  0  0  0  0  0  0  0  0
    5.6408    0.4869    3.7498 C   0  0  1  0  0  0  0  0  0  0  0  0
    4.4742   -0.2903    1.6661 C   0  0  0  0  0  0  0  0  0  0  0  0
    3.5038   -0.3826    0.8379 N   0  0  0  0  0  0  0  0  0  0  0  0
    4.4572    0.0310    3.0034 N   0  0  0  0  0  0  0  0  0  0  0  0
    5.7333   -0.5787    1.2293 O   0  0  0  0  0  0  0  0  0  0  0  0
    1.3351    2.0586   -1.4121 H   0  0  0  0  0  0  0  0  0  0  0  0
    2.9485    1.6213   -0.8128 H   0  0  0  0  0  0  0  0  0  0  0  0
    1.8366    2.5405    0.2163 H   0  0  0  0  0  0  0  0  0  0  0  0
    4.9923   -1.2081    6.7687 H   0  0  0  0  0  0  0  0  0  0  0  0
    6.0609   -1.7516    5.4654 H   0  0  0  0  0  0  0  0  0  0  0  0
    4.3250   -1.5967    5.1715 H   0  0  0  0  0  0  0  0  0  0  0  0
    0.4440   -1.1567    2.1472 H   0  0  0  0  0  0  0  0  0  0  0  0
    2.0338   -1.7168    2.7124 H   0  0  0  0  0  0  0  0  0  0  0  0
    1.4675   -2.1607    1.0948 H   0  0  0  0  0  0  0  0  0  0  0  0
    6.9339    2.2353    3.9267 H   0  0  0  0  0  0  0  0  0  0  0  0
    5.2222    2.6294    3.6788 H   0  0  0  0  0  0  0  0  0  0  0  0
    6.2027    2.0308    2.3232 H   0  0  0  0  0  0  0  0  0  0  0  0
    1.3791   -0.3529   -0.7478 H   0  0  0  0  0  0  0  0  0  0  0  0
    0.2969    0.5479    0.3173 H   0  0  0  0  0  0  0  0  0  0  0  0
    6.2370    0.7390    5.7953 H   0  0  0  0  0  0  0  0  0  0  0  0
    4.5107    0.9159    5.5419 H   0  0  0  0  0  0  0  0  0  0  0  0
    2.0964    0.7013    2.0149 H   0  0  0  0  0  0  0  0  0  0  0  0
    6.4608   -0.1748    3.4557 H   0  0  0  0  0  0  0  0  0  0  0  0
    3.5810    0.4343    3.3122 H   0  0  0  0  0  0  0  0  0  0  0  0
    5.6034   -0.8295    0.2971 H   0  0  0  0  0  0  0  0  0  0  0  0
  1  5  1  0  0  0  0
  1 15  1  0  0  0  0
  2 16  1  0  0  0  0
  3 19  1  0  0  0  0
  3 20  1  0  0  0  0
  4 23  1  0  0  0  0
  4  8  1  0  0  0  0
  4 22  1  0  0  0  0
  5 26  1  0  0  0  0
  5  7  1  0  0  0  0
  6 28  1  0  0  0  0
  6  2  1  0  0  0  0
  6 27  1  0  0  0  0
  7  3  1  0  0  0  0
  7 29  1  1  0  0  0
  8 30  1  6  0  0  0
  8  6  1  0  0  0  0
  9 11  1  0  0  0  0
 10  7  1  0  0  0  0
 10  9  2  0  0  0  0
 11 31  1  0  0  0  0
 11  8  1  0  0  0  0
 12  9  1  0  0  0  0
 13  1  1  0  0  0  0
 14  1  1  0  0  0  0
 17  2  1  0  0  0  0
 18  2  1  0  0  0  0
 21  3  1  0  0  0  0
 24  4  1  0  0  0  0
 25  5  1  0  0  0  0
 32 12  1  0  0  0  0
M  END
>  <HBA>
3

>  <HBD>
2

>  <TPSA>
41.13

>  <cid>
13365

>  <dipole>
1.87

>  <excitation_energy_1>
5.332

>  <excitation_energy_2>
5.663

>  <excitation_energy_3>
5.862

>  <excitation_energy_4>
6.005

>  <homo_energy>
-5.845

>  <homo_lumo_gap>
7.505

>  <logP>
2.664

>  <lumo_energy>
1.66

>  <melting_point>
57.53

>  <molecular_refractivity>
51.57

>  <oscillator_strength_1>
0.0051

>  <oscillator_strength_2>
0.0076

>  <oscillator_strength_3>
0.0443

>  <oscillator_strength_4>
0.0092

>  <open_babel_can_smiles>
CC[C@@H](N/C(=N\[C@@H](CC)C)/O)C

>  <mulliken_charges>
32
1   -0.444363
2   -0.441658
3   -0.439319
4   -0.445536
5   -0.23523
6   -0.266252
7   0.022955
8   0.048855
9   0.69297
10   -0.502244
11   -0.623235
12   -0.616701
13   0.136131
14   0.157702
15   0.128882
16   0.142867
17   0.146166
18   0.158148
19   0.133672
20   0.14132
21   0.151987
22   0.143967
23   0.135782
24   0.163278
25   0.135798
26   0.119453
27   0.140883
28   0.124685
29   0.085179
30   0.167205
31   0.324681
32   0.411974

>  <lowdin_charges>
32
1   -0.44686
2   -0.445661
3   -0.450838
4   -0.454917
5   -0.27293
6   -0.279389
7   -0.055086
8   -0.054821
9   0.162063
10   -0.299601
11   -0.293511
12   -0.380927
13   0.147398
14   0.153163
15   0.14067
16   0.148814
17   0.150275
18   0.154809
19   0.144687
20   0.148455
21   0.154416
22   0.152596
23   0.146184
24   0.158511
25   0.145392
26   0.135077
27   0.149353
28   0.137005
29   0.106888
30   0.160346
31   0.276942
32   0.361498

$$$$

