PCCDB-ID:  70966
public computational chemistry database (PCCDB) project, http://pccdb.org

 22 22  0  0  0  0  0  0  0  0999 V2000
    4.1190   -0.5887   -0.2255 C   0  0  0  0  0  0  0  0  0  0  0  0
    4.8117    4.3472    0.2816 C   0  0  0  0  0  0  0  0  0  0  0  0
    5.7947    3.3796    0.4895 C   0  0  0  0  0  0  0  0  0  0  0  0
    3.1307    2.6330    0.3584 C   0  0  0  0  0  0  0  0  0  0  0  0
    2.3838    5.0205   -0.0398 C   0  0  0  0  0  0  0  0  0  0  0  0
    3.4627    3.9854    0.2161 C   0  0  0  0  0  0  0  0  0  0  0  0
    5.4552    2.0334    0.6377 C   0  0  0  0  0  0  0  0  0  0  0  0
    4.1019    1.6539    0.5616 C   0  0  0  0  0  0  0  0  0  0  0  0
    2.6932    6.2969    0.6165 N   0  0  0  0  0  0  0  0  0  0  0  0
    6.3860    1.0534    0.8717 O   0  0  0  0  0  0  0  0  0  0  0  0
    3.6983    0.3548    0.7620 O   0  0  0  0  0  0  0  0  0  0  0  0
    3.6700   -1.5430    0.0601 H   0  0  0  0  0  0  0  0  0  0  0  0
    5.2084   -0.6890   -0.2497 H   0  0  0  0  0  0  0  0  0  0  0  0
    3.7544   -0.3010   -1.2211 H   0  0  0  0  0  0  0  0  0  0  0  0
    5.0848    5.3928    0.1838 H   0  0  0  0  0  0  0  0  0  0  0  0
    6.8424    3.6727    0.5512 H   0  0  0  0  0  0  0  0  0  0  0  0
    2.0938    2.3079    0.3244 H   0  0  0  0  0  0  0  0  0  0  0  0
    1.4081    4.5893    0.2471 H   0  0  0  0  0  0  0  0  0  0  0  0
    2.3189    5.2259   -1.1181 H   0  0  0  0  0  0  0  0  0  0  0  0
    2.6582    6.1762    1.6280 H   0  0  0  0  0  0  0  0  0  0  0  0
    1.9804    6.9854    0.3810 H   0  0  0  0  0  0  0  0  0  0  0  0
    7.2619    1.4677    0.9125 H   0  0  0  0  0  0  0  0  0  0  0  0
  1 12  1  0  0  0  0
  1 11  1  0  0  0  0
  2  3  1  0  0  0  0
  3 16  1  0  0  0  0
  3  7  2  0  0  0  0
  4  8  2  0  0  0  0
  5  6  1  0  0  0  0
  5 18  1  0  0  0  0
  5  9  1  0  0  0  0
  6  2  2  0  0  0  0
  6  4  1  0  0  0  0
  7 10  1  0  0  0  0
  8  7  1  0  0  0  0
  8 11  1  0  0  0  0
  9 20  1  0  0  0  0
 10 22  1  0  0  0  0
 13  1  1  0  0  0  0
 14  1  1  0  0  0  0
 15  2  1  0  0  0  0
 17  4  1  0  0  0  0
 19  5  1  0  0  0  0
 21  9  1  0  0  0  0
M  END
>  <HBA>
3

>  <HBD>
2

>  <TPSA>
55.48

>  <cid>
70966

>  <dipole>
1.1

>  <excitation_energy_1>
4.874

>  <excitation_energy_2>
4.959

>  <excitation_energy_3>
5.226

>  <excitation_energy_4>
5.582

>  <homo_energy>
-5.603

>  <homo_lumo_gap>
5.826

>  <logP>
1.56

>  <lumo_energy>
0.223

>  <melting_point>
108.48

>  <molecular_refractivity>
42.63

>  <oscillator_strength_1>
0.0418

>  <oscillator_strength_2>
0.0015

>  <oscillator_strength_3>
0.0513

>  <oscillator_strength_4>
0.0206

>  <open_babel_can_smiles>
COc1cc(CN)ccc1O

>  <mulliken_charges>
22
1   -0.212493
2   -0.172479
3   -0.201115
4   -0.244253
5   -0.208369
6   0.141248
7   0.312188
8   0.333366
9   -0.716353
10   -0.64452
11   -0.522537
12   0.156294
13   0.167576
14   0.136467
15   0.149559
16   0.116684
17   0.126704
18   0.123107
19   0.154511
20   0.298507
21   0.297782
22   0.408128

>  <lowdin_charges>
22
1   -0.273561
2   -0.158948
3   -0.206704
4   -0.179462
5   -0.197955
6   -0.029105
7   0.072401
8   0.067973
9   -0.553454
10   -0.377925
11   -0.225607
12   0.154652
13   0.149728
14   0.136456
15   0.169031
16   0.15038
17   0.161134
18   0.124525
19   0.148437
20   0.253288
21   0.256556
22   0.35816

$$$$

