PCCDB-ID:  60608
public computational chemistry database (PCCDB) project, http://pccdb.org

 27 27  0  0  0  0  0  0  0  0999 V2000
   -3.0638    1.5351    2.3688 C   0  0  0  0  0  0  0  0  0  0  0  0
    1.5046   -1.9303    0.0542 C   0  0  0  0  0  0  0  0  0  0  0  0
   -2.8325    0.5764    1.3867 C   0  0  0  0  0  0  0  0  0  0  0  0
    1.6727   -3.2393   -0.7168 C   0  0  0  0  0  0  0  0  0  0  0  0
   -2.6760    1.2511    3.6799 C   0  0  0  0  0  0  0  0  0  0  0  0
    0.3861   -2.0031    1.1049 C   0  0  0  0  0  0  0  0  0  0  0  0
   -1.8696   -0.8060    3.0935 C   0  0  0  0  0  0  0  0  0  0  0  0
   -2.2109   -0.6289    1.7438 C   0  0  0  0  0  0  0  0  0  0  0  0
    2.6846   -3.1404   -1.8338 C   0  0  0  0  0  0  0  0  0  0  0  0
   -1.9519   -1.6903    0.7206 C   0  0  0  0  0  0  0  0  0  0  0  0
   -2.0949    0.1024    4.0473 N   0  0  0  0  0  0  0  0  0  0  0  0
   -0.8806   -2.3138    0.4657 N   0  0  0  0  0  0  0  0  0  0  0  0
    3.2220   -2.1283   -2.2291 O   0  0  0  0  0  0  0  0  0  0  0  0
    2.9387   -4.3560   -2.3858 O   0  0  0  0  0  0  0  0  0  0  0  0
   -3.0393   -1.9885   -0.0627 O   0  0  0  0  0  0  0  0  0  0  0  0
   -3.5324    2.4842    2.1268 H   0  0  0  0  0  0  0  0  0  0  0  0
    1.2882   -1.1204   -0.6509 H   0  0  0  0  0  0  0  0  0  0  0  0
    2.4439   -1.6643    0.5544 H   0  0  0  0  0  0  0  0  0  0  0  0
   -3.1140    0.7594    0.3527 H   0  0  0  0  0  0  0  0  0  0  0  0
    0.7116   -3.5428   -1.1501 H   0  0  0  0  0  0  0  0  0  0  0  0
    1.9715   -4.0624   -0.0547 H   0  0  0  0  0  0  0  0  0  0  0  0
   -2.8416    1.9777    4.4733 H   0  0  0  0  0  0  0  0  0  0  0  0
    0.3724   -1.0651    1.6800 H   0  0  0  0  0  0  0  0  0  0  0  0
    0.6178   -2.8102    1.8161 H   0  0  0  0  0  0  0  0  0  0  0  0
   -1.4074   -1.7362    3.4176 H   0  0  0  0  0  0  0  0  0  0  0  0
    3.5823   -4.1933   -3.1008 H   0  0  0  0  0  0  0  0  0  0  0  0
   -3.8366   -1.6390    0.3657 H   0  0  0  0  0  0  0  0  0  0  0  0
  1  5  2  0  0  0  0
  2 18  1  0  0  0  0
  2  6  1  0  0  0  0
  3  8  2  0  0  0  0
  3  1  1  0  0  0  0
  4 21  1  0  0  0  0
  4  2  1  0  0  0  0
  5 11  1  0  0  0  0
  5 22  1  0  0  0  0
  6 23  1  0  0  0  0
  6 24  1  0  0  0  0
  7 25  1  0  0  0  0
  7 11  2  0  0  0  0
  8  7  1  0  0  0  0
  9  4  1  0  0  0  0
 10  8  1  0  0  0  0
 12 10  2  0  0  0  0
 12  6  1  0  0  0  0
 13  9  2  0  0  0  0
 14  9  1  0  0  0  0
 15 27  1  0  0  0  0
 15 10  1  0  0  0  0
 16  1  1  0  0  0  0
 17  2  1  0  0  0  0
 19  3  1  0  0  0  0
 20  4  1  0  0  0  0
 26 14  1  0  0  0  0
M  END
>  <HBA>
5

>  <HBD>
2

>  <TPSA>
79.29

>  <cid>
60608

>  <dipole>
3.31

>  <excitation_energy_1>
4.458

>  <excitation_energy_2>
4.699

>  <excitation_energy_3>
4.819

>  <excitation_energy_4>
4.955

>  <homo_energy>
-6.876

>  <homo_lumo_gap>
5.472

>  <logP>
1.067

>  <lumo_energy>
-1.404

>  <melting_point>
156.06

>  <molecular_refractivity>
53.43

>  <oscillator_strength_1>
0.0041

>  <oscillator_strength_2>
0.0156

>  <oscillator_strength_3>
0.0031

>  <oscillator_strength_4>
0.0707

>  <open_babel_can_smiles>
OC(=O)CCC/N=C(\c1cccnc1)/O

>  <mulliken_charges>
27
1   -0.139733
2   -0.248516
3   -0.144468
4   -0.351756
5   0.04666
6   -0.164795
7   0.019532
8   0.019333
9   0.574728
10   0.420924
11   -0.405626
12   -0.40349
13   -0.467619
14   -0.57096
15   -0.579584
16   0.150383
17   0.159502
18   0.14323
19   0.163763
20   0.208701
21   0.165226
22   0.154043
23   0.133951
24   0.143824
25   0.163513
26   0.404863
27   0.404371

>  <lowdin_charges>
27
1   -0.168964
2   -0.273519
3   -0.132315
4   -0.307533
5   -0.080351
6   -0.202304
7   -0.083134
8   -0.06655
9   0.19855
10   0.124846
11   -0.139075
12   -0.19288
13   -0.272136
14   -0.36608
15   -0.368601
16   0.170236
17   0.157811
18   0.150777
19   0.170547
20   0.187462
21   0.167033
22   0.164058
23   0.135377
24   0.145453
25   0.166994
26   0.35889
27   0.355409

$$$$

