PCCDB-ID:  11265
public computational chemistry database (PCCDB) project, http://pccdb.org

 19 18  0  0  0  0  0  0  0  0999 V2000
    2.9357    0.5288    0.7556 C   0  0  0  0  0  0  0  0  0  0  0  0
    2.3624   -2.0136   -3.5603 C   0  0  0  0  0  0  0  0  0  0  0  0
    0.3721   -0.5668   -2.9254 C   0  0  0  0  0  0  0  0  0  0  0  0
    2.7332    0.5817   -0.7567 C   0  0  0  0  0  0  0  0  0  0  0  0
    1.9049   -0.7352   -2.8475 C   0  0  0  0  0  0  0  0  0  0  0  0
    2.3156   -0.7497   -1.3694 C   0  0  0  0  0  0  0  0  0  0  0  0
    2.2840   -1.7758   -0.7145 O   0  0  0  0  0  0  0  0  0  0  0  0
    3.2513    1.5045    1.1398 H   0  0  0  0  0  0  0  0  0  0  0  0
    3.6956   -0.2120    1.0202 H   0  0  0  0  0  0  0  0  0  0  0  0
    2.0107    0.2401    1.2644 H   0  0  0  0  0  0  0  0  0  0  0  0
    2.0232   -2.0171   -4.6022 H   0  0  0  0  0  0  0  0  0  0  0  0
    1.9552   -2.8941   -3.0548 H   0  0  0  0  0  0  0  0  0  0  0  0
    3.4545   -2.1033   -3.5581 H   0  0  0  0  0  0  0  0  0  0  0  0
    0.0466   -0.5298   -3.9709 H   0  0  0  0  0  0  0  0  0  0  0  0
    0.0348    0.3545   -2.4361 H   0  0  0  0  0  0  0  0  0  0  0  0
   -0.1279   -1.4122   -2.4400 H   0  0  0  0  0  0  0  0  0  0  0  0
    3.6576    0.8942   -1.2672 H   0  0  0  0  0  0  0  0  0  0  0  0
    1.9872    1.3399   -1.0373 H   0  0  0  0  0  0  0  0  0  0  0  0
    2.3679    0.1394   -3.3255 H   0  0  0  0  0  0  0  0  0  0  0  0
  1  9  1  0  0  0  0
  1  8  1  0  0  0  0
  1 10  1  0  0  0  0
  2 13  1  0  0  0  0
  2 12  1  0  0  0  0
  2  5  1  0  0  0  0
  3  5  1  0  0  0  0
  3 16  1  0  0  0  0
  3 15  1  0  0  0  0
  4  1  1  0  0  0  0
  5  6  1  0  0  0  0
  6  4  1  0  0  0  0
  6  7  2  0  0  0  0
 11  2  1  0  0  0  0
 14  3  1  0  0  0  0
 17  4  1  0  0  0  0
 18  4  1  0  0  0  0
 19  5  1  0  0  0  0
M  END
>  <HBA>
1

>  <HBD>
0

>  <TPSA>
17.07

>  <cid>
11265

>  <dipole>
2.53

>  <excitation_energy_1>
4.369

>  <excitation_energy_2>
5.937

>  <excitation_energy_3>
6.621

>  <excitation_energy_4>
6.73

>  <homo_energy>
-6.498

>  <homo_lumo_gap>
6.256

>  <logP>
1.621

>  <lumo_energy>
-0.242

>  <melting_point>
-5.17

>  <molecular_refractivity>
31.16

>  <oscillator_strength_1>
0.0004

>  <oscillator_strength_2>
0.0037

>  <oscillator_strength_3>
0.0092

>  <oscillator_strength_4>
0.0015

>  <open_babel_can_smiles>
CCC(=O)C(C)C

>  <mulliken_charges>
19
1   -0.433128
2   -0.440888
3   -0.451428
4   -0.356169
5   -0.150907
6   0.4621
7   -0.455416
8   0.139314
9   0.16417
10   0.157849
11   0.138942
12   0.170215
13   0.145317
14   0.152671
15   0.145088
16   0.165492
17   0.162002
18   0.156672
19   0.128104

>  <lowdin_charges>
19
1   -0.441359
2   -0.437706
3   -0.438224
4   -0.310772
5   -0.154185
6   0.165621
7   -0.240733
8   0.149714
9   0.161438
10   0.157559
11   0.147679
12   0.163346
13   0.149601
14   0.153636
15   0.149447
16   0.159732
17   0.162988
18   0.159236
19   0.142982

$$$$

