PCCDB-ID:  11710
public computational chemistry database (PCCDB) project, http://pccdb.org

 27 26  0  0  1  0  0  0  0  0999 V2000
    2.0425   -1.4476    2.8096 C   0  0  0  0  0  0  0  0  0  0  0  0
    4.1025    3.9115    4.1699 C   0  0  0  0  0  0  0  0  0  0  0  0
    5.1475    3.9393    1.1754 C   0  0  0  0  0  0  0  0  0  0  0  0
    2.2765   -0.1521    2.0261 C   0  0  0  0  0  0  0  0  0  0  0  0
    5.1930    3.0275    3.5531 C   0  0  0  0  0  0  0  0  0  0  0  0
    3.5059    0.6278    2.5116 C   0  0  0  0  0  0  0  0  0  0  0  0
    3.7329    1.9285    1.7302 C   0  0  0  0  0  0  0  0  0  0  0  0
    5.0374    2.6824    2.0540 C   0  0  1  0  0  0  0  0  0  0  0  0
    6.0923    1.7700    1.6895 O   0  0  0  0  0  0  0  0  0  0  0  0
    1.1613   -1.9866    2.4427 H   0  0  0  0  0  0  0  0  0  0  0  0
    1.8870   -1.2434    3.8763 H   0  0  0  0  0  0  0  0  0  0  0  0
    2.9047   -2.1203    2.7249 H   0  0  0  0  0  0  0  0  0  0  0  0
    4.3213    4.1080    5.2254 H   0  0  0  0  0  0  0  0  0  0  0  0
    3.1182    3.4322    4.1229 H   0  0  0  0  0  0  0  0  0  0  0  0
    4.0252    4.8812    3.6657 H   0  0  0  0  0  0  0  0  0  0  0  0
    4.3316    4.6467    1.3606 H   0  0  0  0  0  0  0  0  0  0  0  0
    5.1244    3.6585    0.1174 H   0  0  0  0  0  0  0  0  0  0  0  0
    6.0931    4.4637    1.3676 H   0  0  0  0  0  0  0  0  0  0  0  0
    1.3842    0.4866    2.1002 H   0  0  0  0  0  0  0  0  0  0  0  0
    2.3935   -0.3854    0.9583 H   0  0  0  0  0  0  0  0  0  0  0  0
    5.2638    2.0857    4.1091 H   0  0  0  0  0  0  0  0  0  0  0  0
    6.1670    3.5267    3.6769 H   0  0  0  0  0  0  0  0  0  0  0  0
    4.4000   -0.0008    2.4223 H   0  0  0  0  0  0  0  0  0  0  0  0
    3.3838    0.8464    3.5820 H   0  0  0  0  0  0  0  0  0  0  0  0
    2.8836    2.6078    1.8821 H   0  0  0  0  0  0  0  0  0  0  0  0
    3.7558    1.6987    0.6565 H   0  0  0  0  0  0  0  0  0  0  0  0
    6.9341    2.2004    1.9096 H   0  0  0  0  0  0  0  0  0  0  0  0
  1 11  1  0  0  0  0
  2 13  1  0  0  0  0
  3 16  1  0  0  0  0
  3 18  1  0  0  0  0
  3  8  1  0  0  0  0
  4 19  1  0  0  0  0
  4  6  1  0  0  0  0
  4  1  1  0  0  0  0
  5 22  1  0  0  0  0
  5 21  1  0  0  0  0
  5  2  1  0  0  0  0
  6 24  1  0  0  0  0
  7 25  1  0  0  0  0
  7  8  1  0  0  0  0
  7  6  1  0  0  0  0
  8  9  1  6  0  0  0
  8  5  1  0  0  0  0
  9 27  1  0  0  0  0
 10  1  1  0  0  0  0
 12  1  1  0  0  0  0
 14  2  1  0  0  0  0
 15  2  1  0  0  0  0
 17  3  1  0  0  0  0
 20  4  1  0  0  0  0
 23  6  1  0  0  0  0
 26  7  1  0  0  0  0
M  END
>  <HBA>
1

>  <HBD>
1

>  <TPSA>
20.23

>  <cid>
11710

>  <dipole>
1.48

>  <excitation_energy_1>
6.366

>  <excitation_energy_2>
7.032

>  <excitation_energy_3>
7.192

>  <excitation_energy_4>
7.338

>  <homo_energy>
-6.985

>  <homo_lumo_gap>
8.879

>  <logP>
2.338

>  <lumo_energy>
1.894

>  <melting_point>
1.75

>  <molecular_refractivity>
41.77

>  <oscillator_strength_1>
0.0161

>  <oscillator_strength_2>
0.011

>  <oscillator_strength_3>
0.0083

>  <oscillator_strength_4>
0.0086

>  <open_babel_can_smiles>
CCCC[C@@](CC)(O)C

>  <mulliken_charges>
27
1   -0.441164
2   -0.456189
3   -0.460342
4   -0.249315
5   -0.274499
6   -0.259274
7   -0.261893
8   0.312206
9   -0.643068
10   0.139653
11   0.138887
12   0.143006
13   0.145745
14   0.151353
15   0.146549
16   0.142713
17   0.154086
18   0.126311
19   0.125423
20   0.131715
21   0.149878
22   0.112792
23   0.155479
24   0.124627
25   0.126573
26   0.137232
27   0.381516

>  <lowdin_charges>
27
1   -0.443805
2   -0.44671
3   -0.457079
4   -0.269951
5   -0.290114
6   -0.277496
7   -0.278928
8   0.120429
9   -0.464686
10   0.148655
11   0.143318
12   0.147575
13   0.151643
14   0.149758
15   0.148047
16   0.151699
17   0.155178
18   0.142322
19   0.136211
20   0.137568
21   0.150654
22   0.133404
23   0.152338
24   0.134053
25   0.142095
26   0.146571
27   0.33725

$$$$

