PCCDB-ID:  25864
public computational chemistry database (PCCDB) project, http://pccdb.org

 32 32  0  0  1  0  0  0  0  0999 V2000
    0.3489   -2.1346    0.0088 C   0  0  0  0  0  0  0  0  0  0  0  0
    6.4564    0.0437    2.5836 C   0  0  0  0  0  0  0  0  0  0  0  0
    1.6206   -1.2921    0.1525 C   0  0  0  0  0  0  0  0  0  0  0  0
    2.7732   -2.0466    0.8276 C   0  0  0  0  0  0  0  0  0  0  0  0
    4.0522   -1.2101    0.9706 C   0  0  0  0  0  0  0  0  0  0  0  0
    5.1923   -1.9721    1.6583 C   0  0  0  0  0  0  0  0  0  0  0  0
    9.9637   -2.4963    2.8681 C   0  0  0  0  0  0  0  0  0  0  0  0
    9.6197   -1.0926    3.3041 C   0  0  0  0  0  0  0  0  0  0  0  0
    6.5344   -1.2225    1.7241 C   0  0  2  0  0  0  0  0  0  0  0  0
    8.9161   -1.7140    2.1207 C   0  0  0  0  0  0  0  0  0  0  0  0
    7.5474   -2.1433    2.2684 N   0  0  0  0  0  0  0  0  0  0  0  0
   -0.4551   -1.5676   -0.4745 H   0  0  0  0  0  0  0  0  0  0  0  0
   -0.0194   -2.4663    0.9875 H   0  0  0  0  0  0  0  0  0  0  0  0
    0.5335   -3.0315   -0.5952 H   0  0  0  0  0  0  0  0  0  0  0  0
    5.7305    0.7532    2.1732 H   0  0  0  0  0  0  0  0  0  0  0  0
    7.4256    0.5490    2.6292 H   0  0  0  0  0  0  0  0  0  0  0  0
    6.1582   -0.2106    3.6076 H   0  0  0  0  0  0  0  0  0  0  0  0
    1.3954   -0.3846    0.7304 H   0  0  0  0  0  0  0  0  0  0  0  0
    1.9455   -0.9473   -0.8396 H   0  0  0  0  0  0  0  0  0  0  0  0
    2.9961   -2.9575    0.2522 H   0  0  0  0  0  0  0  0  0  0  0  0
    2.4486   -2.3887    1.8217 H   0  0  0  0  0  0  0  0  0  0  0  0
    3.8188   -0.2966    1.5333 H   0  0  0  0  0  0  0  0  0  0  0  0
    4.3808   -0.8799   -0.0263 H   0  0  0  0  0  0  0  0  0  0  0  0
    5.3521   -2.9186    1.1180 H   0  0  0  0  0  0  0  0  0  0  0  0
    4.8968   -2.2492    2.6799 H   0  0  0  0  0  0  0  0  0  0  0  0
    9.6104   -3.3107    3.4943 H   0  0  0  0  0  0  0  0  0  0  0  0
   10.9187   -2.6770    2.3825 H   0  0  0  0  0  0  0  0  0  0  0  0
   10.3393   -0.2988    3.1203 H   0  0  0  0  0  0  0  0  0  0  0  0
    9.0386   -0.9844    4.2145 H   0  0  0  0  0  0  0  0  0  0  0  0
    6.8009   -0.9137    0.6923 H   0  0  0  0  0  0  0  0  0  0  0  0
    9.2105   -1.3309    1.1358 H   0  0  0  0  0  0  0  0  0  0  0  0
    7.4432   -3.0452    1.8039 H   0  0  0  0  0  0  0  0  0  0  0  0
  1  3  1  0  0  0  0
  1 13  1  0  0  0  0
  2 16  1  0  0  0  0
  2 17  1  0  0  0  0
  3 18  1  0  0  0  0
  3  4  1  0  0  0  0
  4  5  1  0  0  0  0
  4 21  1  0  0  0  0
  5 22  1  0  0  0  0
  5  6  1  0  0  0  0
  6  9  1  0  0  0  0
  6 25  1  0  0  0  0
  7  8  1  0  0  0  0
  7 26  1  0  0  0  0
  8 29  1  0  0  0  0
  9 30  1  6  0  0  0
  9 11  1  0  0  0  0
  9  2  1  0  0  0  0
 10 11  1  0  0  0  0
 10  7  1  0  0  0  0
 10  8  1  0  0  0  0
 12  1  1  0  0  0  0
 14  1  1  0  0  0  0
 15  2  1  0  0  0  0
 19  3  1  0  0  0  0
 20  4  1  0  0  0  0
 23  5  1  0  0  0  0
 24  6  1  0  0  0  0
 27  7  1  0  0  0  0
 28  8  1  0  0  0  0
 31 10  1  0  0  0  0
 32 11  1  0  0  0  0
M  END
>  <HBA>
1

>  <HBD>
1

>  <TPSA>
12.03

>  <cid>
25864

>  <dipole>
0.92

>  <excitation_energy_1>
5.507

>  <excitation_energy_2>
5.887

>  <excitation_energy_3>
6.039

>  <excitation_energy_4>
6.189

>  <homo_energy>
-5.902

>  <homo_lumo_gap>
8.324

>  <logP>
3.098

>  <lumo_energy>
2.422

>  <melting_point>
20.54

>  <molecular_refractivity>
50.87

>  <oscillator_strength_1>
0.0126

>  <oscillator_strength_2>
0.0494

>  <oscillator_strength_3>
0.0217

>  <oscillator_strength_4>
0.0259

>  <open_babel_can_smiles>
CCCCC[C@H](NC1CC1)C

>  <mulliken_charges>
32
1   -0.44133
2   -0.444803
3   -0.247055
4   -0.246057
5   -0.260327
6   -0.272087
7   -0.332443
8   -0.296713
9   0.067683
10   0.031802
11   -0.57186
12   0.14149
13   0.141481
14   0.140917
15   0.139881
16   0.153938
17   0.145559
18   0.13031
19   0.129655
20   0.125796
21   0.128371
22   0.13517
23   0.127321
24   0.117461
25   0.140514
26   0.156653
27   0.146752
28   0.143396
29   0.158835
30   0.097976
31   0.119193
32   0.292517

>  <lowdin_charges>
32
1   -0.445507
2   -0.450688
3   -0.272127
4   -0.273579
5   -0.275553
6   -0.277958
7   -0.321139
8   -0.32037
9   -0.055143
10   -0.096811
11   -0.349662
12   0.15015
13   0.146139
14   0.146275
15   0.149512
16   0.156218
17   0.149605
18   0.139043
19   0.138097
20   0.136809
21   0.137794
22   0.141341
23   0.13718
24   0.134564
25   0.144612
26   0.163335
27   0.156902
28   0.155573
29   0.164035
30   0.110699
31   0.128471
32   0.252183

$$$$

