PCCDB-ID:  65926
public computational chemistry database (PCCDB) project, http://pccdb.org

 31 32  0  0  1  0  0  0  0  0999 V2000
    1.9320    1.9604   -2.9334 C   0  0  0  0  0  0  0  0  0  0  0  0
    3.0595    2.3603   -2.2170 C   0  0  0  0  0  0  0  0  0  0  0  0
    1.2575    0.7911   -2.5680 C   0  0  0  0  0  0  0  0  0  0  0  0
    3.5126    1.5917   -1.1412 C   0  0  0  0  0  0  0  0  0  0  0  0
    1.7108    0.0272   -1.4941 C   0  0  0  0  0  0  0  0  0  0  0  0
    3.9342   -4.0678   -0.2309 C   0  0  0  0  0  0  0  0  0  0  0  0
    4.5009   -3.4863   -2.6511 C   0  0  0  0  0  0  0  0  0  0  0  0
    3.3284   -0.4270    0.3948 C   0  0  0  0  0  0  0  0  0  0  0  0
    5.0594   -1.9644   -0.6916 C   0  0  0  0  0  0  0  0  0  0  0  0
    2.8457    0.4206   -0.7693 C   0  0  0  0  0  0  0  0  0  0  0  0
    4.9634   -3.4309   -1.1844 C   0  0  1  0  0  0  0  0  0  0  0  0
    3.1047   -2.8952    0.2885 C   0  0  0  0  0  0  0  0  0  0  0  0
    4.3279   -4.8703   -3.0975 N   0  0  0  0  0  0  0  0  0  0  0  0
    3.7917   -1.7438   -0.0111 N   0  0  0  0  0  0  0  0  0  0  0  0
    2.0327   -2.9439    0.8751 O   0  0  0  0  0  0  0  0  0  0  0  0
    1.5771    2.5560   -3.7703 H   0  0  0  0  0  0  0  0  0  0  0  0
    3.5888    3.2685   -2.4938 H   0  0  0  0  0  0  0  0  0  0  0  0
    0.3735    0.4788   -3.1180 H   0  0  0  0  0  0  0  0  0  0  0  0
    4.3906    1.9091   -0.5822 H   0  0  0  0  0  0  0  0  0  0  0  0
    1.1830   -0.8771   -1.2006 H   0  0  0  0  0  0  0  0  0  0  0  0
    4.4084   -4.5599    0.6277 H   0  0  0  0  0  0  0  0  0  0  0  0
    3.3060   -4.8092   -0.7296 H   0  0  0  0  0  0  0  0  0  0  0  0
    5.2113   -2.9020   -3.2639 H   0  0  0  0  0  0  0  0  0  0  0  0
    3.5295   -2.9818   -2.7335 H   0  0  0  0  0  0  0  0  0  0  0  0
    2.5134   -0.6064    1.1032 H   0  0  0  0  0  0  0  0  0  0  0  0
    4.1361    0.0924    0.9282 H   0  0  0  0  0  0  0  0  0  0  0  0
    5.1817   -1.2545   -1.5195 H   0  0  0  0  0  0  0  0  0  0  0  0
    5.9034   -1.8159   -0.0001 H   0  0  0  0  0  0  0  0  0  0  0  0
    5.9415   -3.9207   -1.1078 H   0  0  0  0  0  0  0  0  0  0  0  0
    5.2379   -5.3160   -3.2085 H   0  0  0  0  0  0  0  0  0  0  0  0
    3.8865   -4.8895   -4.0145 H   0  0  0  0  0  0  0  0  0  0  0  0
  1  3  2  0  0  0  0
  1  2  1  0  0  0  0
  2  4  2  0  0  0  0
  3  5  1  0  0  0  0
  4 10  1  0  0  0  0
  4 19  1  0  0  0  0
  5 20  1  0  0  0  0
  5 10  2  0  0  0  0
  6 12  1  0  0  0  0
  6 21  1  0  0  0  0
  7 11  1  0  0  0  0
  8 26  1  0  0  0  0
  8 25  1  0  0  0  0
  9 14  1  0  0  0  0
  9 28  1  0  0  0  0
 10  8  1  0  0  0  0
 11 29  1  1  0  0  0
 11  9  1  0  0  0  0
 11  6  1  0  0  0  0
 12 15  2  0  0  0  0
 13  7  1  0  0  0  0
 14 12  1  0  0  0  0
 14  8  1  0  0  0  0
 16  1  1  0  0  0  0
 17  2  1  0  0  0  0
 18  3  1  0  0  0  0
 22  6  1  0  0  0  0
 23  7  1  0  0  0  0
 24  7  1  0  0  0  0
 27  9  1  0  0  0  0
 30 13  1  0  0  0  0
 31 13  1  0  0  0  0
M  END
>  <HBA>
3

>  <HBD>
1

>  <TPSA>
46.33

>  <cid>
65926

>  <dipole>
4.91

>  <excitation_energy_1>
5.239

>  <excitation_energy_2>
5.297

>  <excitation_energy_3>
5.496

>  <excitation_energy_4>
5.558

>  <homo_energy>
-6.237

>  <homo_lumo_gap>
6.117

>  <logP>
1.632

>  <lumo_energy>
-0.12

>  <melting_point>
104.68

>  <molecular_refractivity>
63.05

>  <oscillator_strength_1>
0.0033

>  <oscillator_strength_2>
0.011

>  <oscillator_strength_3>
0.0159

>  <oscillator_strength_4>
0.0323

>  <open_babel_can_smiles>
NC[C@H]1CN(C(=O)C1)Cc1ccccc1

>  <mulliken_charges>
31
1   -0.129469
2   -0.127586
3   -0.130703
4   -0.190299
5   -0.181183
6   -0.37068
7   -0.146414
8   -0.241942
9   -0.125907
10   0.165362
11   -0.116365
12   0.59053
13   -0.71534
14   -0.407932
15   -0.533504
16   0.129231
17   0.128889
18   0.131898
19   0.1224
20   0.156312
21   0.163758
22   0.200058
23   0.118494
24   0.153143
25   0.194996
26   0.143137
27   0.153385
28   0.140299
29   0.127242
30   0.294978
31   0.303212

>  <lowdin_charges>
31
1   -0.15898
2   -0.156918
3   -0.154527
4   -0.171393
5   -0.158859
6   -0.307772
7   -0.209868
8   -0.197949
9   -0.196684
10   -0.015168
11   -0.134918
12   0.145617
13   -0.552529
14   -0.106152
15   -0.31367
16   0.158228
17   0.15748
18   0.15885
19   0.153882
20   0.169453
21   0.167017
22   0.183348
23   0.12264
24   0.148383
25   0.181162
26   0.14817
27   0.149353
28   0.138829
29   0.141493
30   0.252726
31   0.258757

$$$$

