PCCDB-ID:  610
public computational chemistry database (PCCDB) project, http://pccdb.org

 23 23  0  0  1  0  0  0  0  0999 V2000
    0.7202    1.3537   -0.2108 C   0  0  2  0  0  0  0  0  0  0  0  0
    1.5408    0.1588    0.2849 C   0  0  2  0  0  0  0  0  0  0  0  0
   -0.7764    1.1155    0.0137 C   0  0  2  0  0  0  0  0  0  0  0  0
    0.9638   -1.1480   -0.2864 C   0  0  1  0  0  0  0  0  0  0  0  0
    1.6046   -2.3724    0.3722 C   0  0  0  0  0  0  0  0  0  0  0  0
   -1.2168   -0.2074   -0.6216 C   0  0  2  0  0  0  0  0  0  0  0  0
    0.9810    1.4993   -1.6010 O   0  0  0  0  0  0  0  0  0  0  0  0
    1.5055    0.1774    1.7013 O   0  0  0  0  0  0  0  0  0  0  0  0
   -1.4657    2.1997   -0.5966 O   0  0  0  0  0  0  0  0  0  0  0  0
    2.7442   -2.3691    0.7807 O   0  0  0  0  0  0  0  0  0  0  0  0
    0.8135   -3.4515    0.4495 O   0  0  0  0  0  0  0  0  0  0  0  0
   -2.5703   -0.4675   -0.3943 O   0  0  0  0  0  0  0  0  0  0  0  0
   -0.4497   -1.2773   -0.0744 O   0  0  0  0  0  0  0  0  0  0  0  0
    1.0326    2.2473    0.3475 H   0  0  0  0  0  0  0  0  0  0  0  0
    2.5652    0.2654   -0.0946 H   0  0  0  0  0  0  0  0  0  0  0  0
   -0.9749    1.0633    1.0958 H   0  0  0  0  0  0  0  0  0  0  0  0
    1.1779   -1.1813   -1.3666 H   0  0  0  0  0  0  0  0  0  0  0  0
   -1.0932   -0.1652   -1.7103 H   0  0  0  0  0  0  0  0  0  0  0  0
    0.3083    2.1225   -1.9271 H   0  0  0  0  0  0  0  0  0  0  0  0
    2.1623   -0.4749    1.9989 H   0  0  0  0  0  0  0  0  0  0  0  0
   -2.3985    1.9363   -0.6724 H   0  0  0  0  0  0  0  0  0  0  0  0
   -0.0790   -3.1797    0.1523 H   0  0  0  0  0  0  0  0  0  0  0  0
   -2.6882   -0.5681    0.5670 H   0  0  0  0  0  0  0  0  0  0  0  0
  1  3  1  0  0  0  0
  1  2  1  0  0  0  0
  1 14  1  1  0  0  0
  2 15  1  6  0  0  0
  2  8  1  0  0  0  0
  3 16  1  1  0  0  0
  4 17  1  6  0  0  0
  4 13  1  0  0  0  0
  4  2  1  0  0  0  0
  4  5  1  0  0  0  0
  5 11  1  0  0  0  0
  5 10  2  0  0  0  0
  6 18  1  6  0  0  0
  6 12  1  0  0  0  0
  6 13  1  0  0  0  0
  6  3  1  0  0  0  0
  7  1  1  0  0  0  0
  8 20  1  0  0  0  0
  9  3  1  0  0  0  0
 12 23  1  0  0  0  0
 19  7  1  0  0  0  0
 21  9  1  0  0  0  0
 22 11  1  0  0  0  0
M  END
>  <HBA>
7

>  <HBD>
5

>  <TPSA>
127.45

>  <cid>
610

>  <dipole>
3.62

>  <excitation_energy_1>
5.666

>  <excitation_energy_2>
6.167

>  <excitation_energy_3>
6.458

>  <excitation_energy_4>
6.616

>  <homo_energy>
-7.347

>  <homo_lumo_gap>
7.159

>  <logP>
-3.129

>  <lumo_energy>
-0.188

>  <melting_point>
138.7

>  <molecular_refractivity>
36.35

>  <oscillator_strength_1>
0.0005

>  <oscillator_strength_2>
0.0101

>  <oscillator_strength_3>
0.001

>  <oscillator_strength_4>
0.0016

>  <open_babel_can_smiles>
O[C@@H]1O[C@H](C(=O)O)[C@@H]([C@H]([C@H]1O)O)O

>  <mulliken_charges>
23
1   0.101085
2   0.117211
3   0.088135
4   0.024851
5   0.600253
6   0.326314
7   -0.6487
8   -0.644739
9   -0.648317
10   -0.467763
11   -0.567467
12   -0.610214
13   -0.5445
14   0.154983
15   0.161922
16   0.141534
17   0.184999
18   0.15181
19   0.414346
20   0.418438
21   0.407693
22   0.436527
23   0.401596

>  <lowdin_charges>
23
1   -0.014533
2   -0.016231
3   -0.052598
4   -0.050923
5   0.18555
6   0.078994
7   -0.466099
8   -0.4616
9   -0.456653
10   -0.254656
11   -0.329238
12   -0.420452
13   -0.285413
14   0.152027
15   0.157457
16   0.143024
17   0.166373
18   0.143297
19   0.354221
20   0.358008
21   0.351766
22   0.368258
23   0.349424

$$$$

