PCCDB-ID:  60029
public computational chemistry database (PCCDB) project, http://pccdb.org

 35 35  0  0  1  0  0  0  0  0999 V2000
    2.2716   -0.9973   -0.0588 C   0  0  0  0  0  0  0  0  0  0  0  0
    6.0501   -0.4182   -2.3955 C   0  0  0  0  0  0  0  0  0  0  0  0
    3.7584   -0.9050   -0.4194 C   0  0  0  0  0  0  0  0  0  0  0  0
    8.5647    4.9396   -3.9411 C   0  0  0  0  0  0  0  0  0  0  0  0
    8.2676    3.7180   -3.3365 C   0  0  0  0  0  0  0  0  0  0  0  0
    8.2226    6.1423   -3.3273 C   0  0  0  0  0  0  0  0  0  0  0  0
    4.0790    0.3663   -1.2145 C   0  0  0  0  0  0  0  0  0  0  0  0
    7.2688    4.9038   -1.4823 C   0  0  0  0  0  0  0  0  0  0  0  0
    5.8291    1.9261   -1.8746 C   0  0  0  0  0  0  0  0  0  0  0  0
    7.6103    3.6990   -2.1000 C   0  0  0  0  0  0  0  0  0  0  0  0
    7.5674    6.1372   -2.0844 C   0  0  0  0  0  0  0  0  0  0  0  0
    7.2375    2.3751   -1.4460 C   0  0  1  0  0  0  0  0  0  0  0  0
    7.1650    7.3349   -1.4842 N   0  0  0  0  0  0  0  0  0  0  0  0
    5.5088    0.5605   -1.4625 N   0  0  0  0  0  0  0  0  0  0  0  0
    7.2218    2.4589   -0.0225 O   0  0  0  0  0  0  0  0  0  0  0  0
    2.0570   -1.9122    0.5047 H   0  0  0  0  0  0  0  0  0  0  0  0
    1.6425   -1.0055   -0.9576 H   0  0  0  0  0  0  0  0  0  0  0  0
    1.9574   -0.1459    0.5575 H   0  0  0  0  0  0  0  0  0  0  0  0
    5.9307   -1.4316   -2.0029 H   0  0  0  0  0  0  0  0  0  0  0  0
    7.1226   -0.2508   -2.5355 H   0  0  0  0  0  0  0  0  0  0  0  0
    5.5674   -0.3746   -3.3937 H   0  0  0  0  0  0  0  0  0  0  0  0
    4.0419   -1.7976   -0.9909 H   0  0  0  0  0  0  0  0  0  0  0  0
    4.3718   -0.9049    0.4901 H   0  0  0  0  0  0  0  0  0  0  0  0
    9.0808    4.9587   -4.8978 H   0  0  0  0  0  0  0  0  0  0  0  0
    8.5491    2.7846   -3.8180 H   0  0  0  0  0  0  0  0  0  0  0  0
    8.4573    7.0896   -3.8079 H   0  0  0  0  0  0  0  0  0  0  0  0
    3.7302    1.2268   -0.6312 H   0  0  0  0  0  0  0  0  0  0  0  0
    3.4919    0.3651   -2.1582 H   0  0  0  0  0  0  0  0  0  0  0  0
    6.7662    4.8772   -0.5187 H   0  0  0  0  0  0  0  0  0  0  0  0
    5.7306    2.0656   -2.9677 H   0  0  0  0  0  0  0  0  0  0  0  0
    5.1238    2.6162   -1.3996 H   0  0  0  0  0  0  0  0  0  0  0  0
    7.9668    1.6147   -1.7686 H   0  0  0  0  0  0  0  0  0  0  0  0
    7.7106    8.1472   -1.7444 H   0  0  0  0  0  0  0  0  0  0  0  0
    7.0331    7.2839   -0.4816 H   0  0  0  0  0  0  0  0  0  0  0  0
    8.1033    2.7555    0.2537 H   0  0  0  0  0  0  0  0  0  0  0  0
  1 16  1  0  0  0  0
  1 18  1  0  0  0  0
  2 19  1  0  0  0  0
  2 14  1  0  0  0  0
  3  1  1  0  0  0  0
  3 23  1  0  0  0  0
  4  5  2  0  0  0  0
  4  6  1  0  0  0  0
  5 10  1  0  0  0  0
  6 11  2  0  0  0  0
  7 27  1  0  0  0  0
  7  3  1  0  0  0  0
  8 29  1  0  0  0  0
  9 14  1  0  0  0  0
  9 12  1  0  0  0  0
  9 31  1  0  0  0  0
 10  8  2  0  0  0  0
 10 12  1  0  0  0  0
 11 13  1  0  0  0  0
 11  8  1  0  0  0  0
 12 32  1  6  0  0  0
 12 15  1  0  0  0  0
 13 34  1  0  0  0  0
 14  7  1  0  0  0  0
 15 35  1  0  0  0  0
 17  1  1  0  0  0  0
 20  2  1  0  0  0  0
 21  2  1  0  0  0  0
 22  3  1  0  0  0  0
 24  4  1  0  0  0  0
 25  5  1  0  0  0  0
 26  6  1  0  0  0  0
 28  7  1  0  0  0  0
 30  9  1  0  0  0  0
 33 13  1  0  0  0  0
M  END
>  <HBA>
3

>  <HBD>
2

>  <TPSA>
49.49

>  <cid>
60029

>  <dipole>
2.16

>  <excitation_energy_1>
4.666

>  <excitation_energy_2>
4.747

>  <excitation_energy_3>
4.758

>  <excitation_energy_4>
5.01

>  <homo_energy>
-5.434

>  <homo_lumo_gap>
5.562

>  <logP>
2.225

>  <lumo_energy>
0.128

>  <melting_point>
75.24

>  <molecular_refractivity>
63.91

>  <oscillator_strength_1>
0.035

>  <oscillator_strength_2>
0.0036

>  <oscillator_strength_3>
0.0156

>  <oscillator_strength_4>
0.0127

>  <open_babel_can_smiles>
CCCN(C[C@@H](c1cccc(c1)N)O)C

>  <mulliken_charges>
35
1   -0.447064
2   -0.308071
3   -0.259369
4   -0.136449
5   -0.191018
6   -0.172141
7   -0.102743
8   -0.234569
9   -0.11881
10   0.102438
11   0.315623
12   0.068388
13   -0.788141
14   -0.370144
15   -0.618497
16   0.143634
17   0.141683
18   0.142888
19   0.154448
20   0.145655
21   0.114006
22   0.132482
23   0.149202
24   0.125063
25   0.114585
26   0.114429
27   0.137671
28   0.101387
29   0.128542
30   0.120974
31   0.147984
32   0.120547
33   0.318298
34   0.319696
35   0.387393

>  <lowdin_charges>
35
1   -0.445584
2   -0.35645
3   -0.279846
4   -0.143237
5   -0.201159
6   -0.204834
7   -0.198387
8   -0.211252
9   -0.202324
10   -0.01819
11   0.061755
12   -0.005427
13   -0.487389
14   -0.178651
15   -0.453652
16   0.150993
17   0.146484
18   0.147354
19   0.150648
20   0.145296
21   0.117
22   0.139973
23   0.149659
24   0.155406
25   0.151943
26   0.151782
27   0.145449
28   0.11168
29   0.158116
30   0.125666
31   0.156012
32   0.1321
33   0.274955
34   0.272917
35   0.341194

$$$$

