PCCDB-ID:  33837
public computational chemistry database (PCCDB) project, http://pccdb.org

 34 34  0  0  1  0  0  0  0  0999 V2000
    0.8755   -0.1790   -0.0689 C   0  0  0  0  0  0  0  0  0  0  0  0
    4.5337   -0.5981    5.3987 C   0  0  0  0  0  0  0  0  0  0  0  0
    3.2480    6.9846    1.3632 C   0  0  0  0  0  0  0  0  0  0  0  0
    1.9275    5.8981    3.2350 C   0  0  0  0  0  0  0  0  0  0  0  0
    2.3609    0.1623   -0.2901 C   0  0  0  0  0  0  0  0  0  0  0  0
    5.0737   -0.1378    4.0404 C   0  0  0  0  0  0  0  0  0  0  0  0
    3.0256    5.7039    2.1757 C   0  0  0  0  0  0  0  0  0  0  0  0
    2.8948    1.1031    0.7620 C   0  0  2  0  0  0  0  0  0  0  0  0
    4.0024    1.5281    2.7495 C   0  0  0  0  0  0  0  0  0  0  0  0
    2.9722    3.4232    1.5133 C   0  0  0  0  0  0  0  0  0  0  0  0
    4.6902    1.2423    3.7852 N   0  0  0  0  0  0  0  0  0  0  0  0
    2.6578    4.6328    1.2535 N   0  0  0  0  0  0  0  0  0  0  0  0
    3.5611    0.6362    1.7689 N   0  0  0  0  0  0  0  0  0  0  0  0
    2.5966    2.4298    0.5955 N   0  0  0  0  0  0  0  0  0  0  0  0
    3.6463    2.8895    2.5897 N   0  0  0  0  0  0  0  0  0  0  0  0
    0.5284   -0.8764   -0.8380 H   0  0  0  0  0  0  0  0  0  0  0  0
    0.2425    0.7143   -0.1133 H   0  0  0  0  0  0  0  0  0  0  0  0
    0.7320   -0.6479    0.9096 H   0  0  0  0  0  0  0  0  0  0  0  0
    4.8868   -1.6096    5.6324 H   0  0  0  0  0  0  0  0  0  0  0  0
    3.4378   -0.6102    5.3966 H   0  0  0  0  0  0  0  0  0  0  0  0
    4.8620    0.0783    6.1951 H   0  0  0  0  0  0  0  0  0  0  0  0
    3.5269    7.8200    2.0158 H   0  0  0  0  0  0  0  0  0  0  0  0
    2.3321    7.2524    0.8244 H   0  0  0  0  0  0  0  0  0  0  0  0
    4.0433    6.8402    0.6246 H   0  0  0  0  0  0  0  0  0  0  0  0
    2.1790    6.7226    3.9124 H   0  0  0  0  0  0  0  0  0  0  0  0
    1.7874    4.9922    3.8359 H   0  0  0  0  0  0  0  0  0  0  0  0
    0.9740    6.1290    2.7473 H   0  0  0  0  0  0  0  0  0  0  0  0
    2.4998    0.6059   -1.2850 H   0  0  0  0  0  0  0  0  0  0  0  0
    2.9650   -0.7467   -0.2433 H   0  0  0  0  0  0  0  0  0  0  0  0
    4.7398   -0.8206    3.2490 H   0  0  0  0  0  0  0  0  0  0  0  0
    6.1722   -0.1758    4.0664 H   0  0  0  0  0  0  0  0  0  0  0  0
    3.9743    5.4812    2.6986 H   0  0  0  0  0  0  0  0  0  0  0  0
    2.0992    2.7689   -0.2169 H   0  0  0  0  0  0  0  0  0  0  0  0
    3.9839    3.5029    3.3184 H   0  0  0  0  0  0  0  0  0  0  0  0
  1 18  1  0  0  0  0
  2 19  1  0  0  0  0
  2 21  1  0  0  0  0
  3 22  1  0  0  0  0
  3  7  1  0  0  0  0
  4 26  1  0  0  0  0
  4 25  1  0  0  0  0
  5 29  1  0  0  0  0
  5  1  1  0  0  0  0
  6 31  1  0  0  0  0
  6  2  1  0  0  0  0
  7 32  1  0  0  0  0
  7  4  1  0  0  0  0
  8  5  1  1  0  0  0
  8 13  1  0  0  0  0
  9 11  1  0  0  0  0
 10 15  1  0  0  0  0
 11  6  1  0  0  0  0
 12 10  2  0  0  0  0
 12  7  1  0  0  0  0
 13  9  2  0  0  0  0
 14  8  1  0  0  0  0
 14 10  1  0  0  0  0
 15  9  1  0  0  0  0
 15 34  1  0  0  0  0
 16  1  1  0  0  0  0
 17  1  1  0  0  0  0
 20  2  1  0  0  0  0
 23  3  1  0  0  0  0
 24  3  1  0  0  0  0
 27  4  1  0  0  0  0
 28  5  1  0  0  0  0
 30  6  1  0  0  0  0
 33 14  1  0  0  0  0
M  RAD  2   8   2  11   2
M  END
>  <HBA>
5

>  <HBD>
2

>  <TPSA>
62.73

>  <cid>
33837

>  <dipole>
2.85

>  <excitation_energy_1>
4.648

>  <excitation_energy_2>
4.77

>  <excitation_energy_3>
4.827

>  <excitation_energy_4>
5.403

>  <homo_energy>
-5.973

>  <homo_lumo_gap>
5.317

>  <logP>
1.832

>  <lumo_energy>
-0.656

>  <melting_point>
122.13

>  <molecular_refractivity>
62.63

>  <oscillator_strength_1>
0.0456

>  <oscillator_strength_2>
0.015

>  <oscillator_strength_3>
0.1271

>  <oscillator_strength_4>
0.0001

>  <open_babel_can_smiles>
CC[N]C1=N[C](N/C(=N/C(C)C)/N1)CC

>  <mulliken_charges>
34
1   -0.447619
2   -0.432993
3   -0.428555
4   -0.434905
5   -0.338389
6   -0.138129
7   0.01481
8   0.525683
9   0.65502
10   0.753482
11   -0.501011
12   -0.505513
13   -0.519859
14   -0.678002
15   -0.714557
16   0.160538
17   0.150366
18   0.172877
19   0.132689
20   0.141809
21   0.149138
22   0.133931
23   0.148621
24   0.146279
25   0.141188
26   0.142024
27   0.153444
28   0.149698
29   0.184567
30   0.149455
31   0.134058
32   0.104169
33   0.346544
34   0.34914

>  <lowdin_charges>
34
1   -0.439421
2   -0.444061
3   -0.444816
4   -0.450877
5   -0.27968
6   -0.196299
7   -0.053659
8   0.125566
9   0.118035
10   0.13182
11   -0.238475
12   -0.267712
13   -0.22857
14   -0.227549
15   -0.257912
16   0.160216
17   0.150906
18   0.162651
19   0.145154
20   0.144965
21   0.151827
22   0.146632
23   0.152898
24   0.153098
25   0.15065
26   0.148499
27   0.154424
28   0.152728
29   0.175489
30   0.142234
31   0.138344
32   0.116915
33   0.303769
34   0.302213

$$$$

