PCCDB-ID:  6811
public computational chemistry database (PCCDB) project, http://pccdb.org

 15 16  0  0  0  0  0  0  0  0999 V2000
    1.9980    1.0750    0.0004 C   0  0  0  0  0  0  0  0  0  0  0  0
    2.2502   -0.3058    0.0003 C   0  0  0  0  0  0  0  0  0  0  0  0
    0.6910    1.5731    0.0004 C   0  0  0  0  0  0  0  0  0  0  0  0
    1.2037   -1.2338   -0.0005 C   0  0  0  0  0  0  0  0  0  0  0  0
   -0.3406    0.6420   -0.0003 C   0  0  0  0  0  0  0  0  0  0  0  0
   -0.0905   -0.7274   -0.0006 C   0  0  0  0  0  0  0  0  0  0  0  0
   -1.8116    0.8335    0.0002 C   0  0  0  0  0  0  0  0  0  0  0  0
   -1.3990   -1.4264   -0.0006 C   0  0  0  0  0  0  0  0  0  0  0  0
   -2.4678    1.8365    0.0002 O   0  0  0  0  0  0  0  0  0  0  0  0
   -1.6584   -2.5966   -0.0013 O   0  0  0  0  0  0  0  0  0  0  0  0
   -2.3929   -0.4402    0.0008 O   0  0  0  0  0  0  0  0  0  0  0  0
    2.8352    1.7669    0.0007 H   0  0  0  0  0  0  0  0  0  0  0  0
    3.2780   -0.6571    0.0008 H   0  0  0  0  0  0  0  0  0  0  0  0
    0.4846    2.6386    0.0010 H   0  0  0  0  0  0  0  0  0  0  0  0
    1.3872   -2.3035   -0.0009 H   0  0  0  0  0  0  0  0  0  0  0  0
  1 12  1  0  0  0  0
  2  1  2  0  0  0  0
  2 13  1  0  0  0  0
  3  1  1  0  0  0  0
  3 14  1  0  0  0  0
  4  2  1  0  0  0  0
  5  7  1  0  0  0  0
  5  3  2  0  0  0  0
  6  8  1  0  0  0  0
  6  4  2  0  0  0  0
  6  5  1  0  0  0  0
  7 11  1  0  0  0  0
  8 11  1  0  0  0  0
  9  7  2  0  0  0  0
 10  8  2  0  0  0  0
 15  4  1  0  0  0  0
M  END
>  <HBA>
3

>  <HBD>
0

>  <TPSA>
43.37

>  <cid>
6811

>  <dipole>
5.74

>  <excitation_energy_1>
4.032

>  <excitation_energy_2>
4.596

>  <excitation_energy_3>
4.601

>  <excitation_energy_4>
4.799

>  <homo_energy>
-7.897

>  <homo_lumo_gap>
5.29

>  <logP>
0.997

>  <lumo_energy>
-2.607

>  <melting_point>
89.07

>  <molecular_refractivity>
36.19

>  <oscillator_strength_1>
0.0001

>  <oscillator_strength_2>
0.0001

>  <oscillator_strength_3>
0.0487

>  <oscillator_strength_4>
0.0476

>  <open_babel_can_smiles>
O=C1OC(=O)c2c1cccc2

>  <mulliken_charges>
15
1   -0.125113
2   -0.125401
3   -0.170731
4   -0.170896
5   0.039022
6   0.039652
7   0.586138
8   0.586051
9   -0.422042
10   -0.422045
11   -0.47969
12   0.157202
13   0.157226
14   0.175309
15   0.175319

>  <lowdin_charges>
15
1   -0.132744
2   -0.13065
3   -0.120854
4   -0.120355
5   -0.041861
6   -0.041545
7   0.213857
8   0.208105
9   -0.188357
10   -0.185967
11   -0.163527
12   0.172296
13   0.170503
14   0.180584
15   0.180514

$$$$

