PCCDB-ID:  7426
public computational chemistry database (PCCDB) project, http://pccdb.org

 20 20  0  0  0  0  0  0  0  0999 V2000
    1.0363    0.0555    0.0740 C   0  0  0  0  0  0  0  0  0  0  0  0
    5.4297    2.5853   -0.0915 C   0  0  0  0  0  0  0  0  0  0  0  0
    3.2749    1.2474   -0.0082 C   0  0  0  0  0  0  0  0  0  0  0  0
    3.2514   -1.1567    0.0354 C   0  0  0  0  0  0  0  0  0  0  0  0
    5.3661    0.0613   -0.0501 C   0  0  0  0  0  0  0  0  0  0  0  0
    2.5469    0.0506    0.0342 C   0  0  0  0  0  0  0  0  0  0  0  0
    4.6754    1.2765   -0.0506 C   0  0  0  0  0  0  0  0  0  0  0  0
    4.6422   -1.1266   -0.0072 C   0  0  0  0  0  0  0  0  0  0  0  0
    5.3779   -2.4037   -0.0063 N   0  0  0  0  0  0  0  0  0  0  0  0
    4.7210   -3.4441    0.0331 O   0  0  0  0  0  0  0  0  0  0  0  0
    6.6075   -2.3575   -0.0450 O   0  0  0  0  0  0  0  0  0  0  0  0
    0.6420    1.0745    0.1293 H   0  0  0  0  0  0  0  0  0  0  0  0
    0.6593   -0.4992    0.9413 H   0  0  0  0  0  0  0  0  0  0  0  0
    0.6140   -0.4189   -0.8202 H   0  0  0  0  0  0  0  0  0  0  0  0
    4.7465    3.4388   -0.1349 H   0  0  0  0  0  0  0  0  0  0  0  0
    6.0891    2.6370   -0.9659 H   0  0  0  0  0  0  0  0  0  0  0  0
    6.0619    2.7071    0.7964 H   0  0  0  0  0  0  0  0  0  0  0  0
    2.7317    2.1901   -0.0091 H   0  0  0  0  0  0  0  0  0  0  0  0
    2.7410   -2.1121    0.0678 H   0  0  0  0  0  0  0  0  0  0  0  0
    6.4486    0.0230   -0.0820 H   0  0  0  0  0  0  0  0  0  0  0  0
  1 12  1  0  0  0  0
  1 13  1  0  0  0  0
  2  7  1  0  0  0  0
  2 17  1  0  0  0  0
  3  6  2  0  0  0  0
  4 19  1  0  0  0  0
  5  8  1  0  0  0  0
  6  4  1  0  0  0  0
  6  1  1  0  0  0  0
  7  5  2  0  0  0  0
  7  3  1  0  0  0  0
  8  9  1  0  0  0  0
  8  4  2  0  0  0  0
  9 10  2  0  0  0  0
 11  9  2  0  0  0  0
 14  1  1  0  0  0  0
 15  2  1  0  0  0  0
 16  2  1  0  0  0  0
 18  3  1  0  0  0  0
 20  5  1  0  0  0  0
M  END
>  <HBA>
0

>  <HBD>
0

>  <TPSA>
45.82

>  <cid>
7426

>  <dipole>
4.98

>  <excitation_energy_1>
3.743

>  <excitation_energy_2>
3.866

>  <excitation_energy_3>
4.268

>  <excitation_energy_4>
4.491

>  <homo_energy>
-7.029

>  <homo_lumo_gap>
4.754

>  <logP>
2.735

>  <lumo_energy>
-2.275

>  <melting_point>
51.79

>  <molecular_refractivity>
45.2

>  <oscillator_strength_1>
0.0

>  <oscillator_strength_2>
0.0156

>  <oscillator_strength_3>
0.0003

>  <oscillator_strength_4>
0.1835

>  <open_babel_can_smiles>
Cc1cc(cc(c1)C)N(=O)=O

>  <mulliken_charges>
20
1   -0.530618
2   -0.530628
3   -0.217541
4   -0.207096
5   -0.207423
6   0.17031
7   0.170587
8   0.278353
9   0.379723
10   -0.396143
11   -0.396214
12   0.160017
13   0.172053
14   0.173185
15   0.159965
16   0.172144
17   0.173107
18   0.129376
19   0.173373
20   0.17347

>  <lowdin_charges>
20
1   -0.442109
2   -0.442399
3   -0.158717
4   -0.154062
5   -0.151885
6   0.009877
7   0.009193
8   0.006303
9   0.305897
10   -0.248658
11   -0.246377
12   0.159013
13   0.167278
14   0.167585
15   0.160175
16   0.166976
17   0.167345
18   0.158948
19   0.183794
20   0.181824

$$$$

