PCCDB-ID:  18379
public computational chemistry database (PCCDB) project, http://pccdb.org

 32 31  0  0  0  0  0  0  0  0999 V2000
    4.1677    2.7468    1.3705 C   0  0  0  0  0  0  0  0  0  0  0  0
    5.0528   -6.3081    4.3052 C   0  0  0  0  0  0  0  0  0  0  0  0
    4.8728    1.4659    0.9135 C   0  0  0  0  0  0  0  0  0  0  0  0
    4.9385   -5.0267    3.4725 C   0  0  0  0  0  0  0  0  0  0  0  0
    4.9241    0.3838    2.0001 C   0  0  0  0  0  0  0  0  0  0  0  0
    6.2961   -4.5369    2.9487 C   0  0  0  0  0  0  0  0  0  0  0  0
    5.6240   -0.9004    1.5366 C   0  0  0  0  0  0  0  0  0  0  0  0
    6.2304   -3.3314    1.9964 C   0  0  0  0  0  0  0  0  0  0  0  0
    5.6517   -2.0242    2.5920 C   0  0  0  0  0  0  0  0  0  0  0  0
    6.5006   -1.6001    3.7781 C   0  0  0  0  0  0  0  0  0  0  0  0
    7.6341   -1.1742    3.7123 O   0  0  0  0  0  0  0  0  0  0  0  0
    5.8621   -1.7690    4.9655 O   0  0  0  0  0  0  0  0  0  0  0  0
    4.1455    3.4972    0.5720 H   0  0  0  0  0  0  0  0  0  0  0  0
    4.6766    3.1940    2.2332 H   0  0  0  0  0  0  0  0  0  0  0  0
    3.1309    2.5447    1.6667 H   0  0  0  0  0  0  0  0  0  0  0  0
    4.0733   -6.6356    4.6718 H   0  0  0  0  0  0  0  0  0  0  0  0
    5.7004   -6.1557    5.1774 H   0  0  0  0  0  0  0  0  0  0  0  0
    5.4802   -7.1287    3.7158 H   0  0  0  0  0  0  0  0  0  0  0  0
    5.8969    1.7044    0.5938 H   0  0  0  0  0  0  0  0  0  0  0  0
    4.3626    1.0640    0.0265 H   0  0  0  0  0  0  0  0  0  0  0  0
    4.4723   -4.2433    4.0830 H   0  0  0  0  0  0  0  0  0  0  0  0
    4.2639   -5.2014    2.6216 H   0  0  0  0  0  0  0  0  0  0  0  0
    3.9000    0.1465    2.3248 H   0  0  0  0  0  0  0  0  0  0  0  0
    5.4408    0.7879    2.8824 H   0  0  0  0  0  0  0  0  0  0  0  0
    6.7884   -5.3613    2.4137 H   0  0  0  0  0  0  0  0  0  0  0  0
    6.9504   -4.3037    3.8010 H   0  0  0  0  0  0  0  0  0  0  0  0
    6.6572   -0.6732    1.2450 H   0  0  0  0  0  0  0  0  0  0  0  0
    5.1182   -1.2873    0.6414 H   0  0  0  0  0  0  0  0  0  0  0  0
    5.6193   -3.5950    1.1221 H   0  0  0  0  0  0  0  0  0  0  0  0
    7.2386   -3.1138    1.6220 H   0  0  0  0  0  0  0  0  0  0  0  0
    4.6334   -2.2067    2.9515 H   0  0  0  0  0  0  0  0  0  0  0  0
    6.4984   -1.4930    5.6533 H   0  0  0  0  0  0  0  0  0  0  0  0
  1 15  1  0  0  0  0
  1 14  1  0  0  0  0
  2 16  1  0  0  0  0
  2 17  1  0  0  0  0
  3  1  1  0  0  0  0
  3  5  1  0  0  0  0
  4 21  1  0  0  0  0
  4  2  1  0  0  0  0
  5 23  1  0  0  0  0
  5 24  1  0  0  0  0
  6  4  1  0  0  0  0
  6 26  1  0  0  0  0
  7  5  1  0  0  0  0
  7  9  1  0  0  0  0
  8  9  1  0  0  0  0
  8  6  1  0  0  0  0
  9 31  1  0  0  0  0
  9 10  1  0  0  0  0
 10 12  1  0  0  0  0
 11 10  2  0  0  0  0
 12 32  1  0  0  0  0
 13  1  1  0  0  0  0
 18  2  1  0  0  0  0
 19  3  1  0  0  0  0
 20  3  1  0  0  0  0
 22  4  1  0  0  0  0
 25  6  1  0  0  0  0
 27  7  1  0  0  0  0
 28  7  1  0  0  0  0
 29  8  1  0  0  0  0
 30  8  1  0  0  0  0
M  END
>  <HBA>
2

>  <HBD>
1

>  <TPSA>
37.3

>  <cid>
18379

>  <dipole>
1.36

>  <excitation_energy_1>
5.754

>  <excitation_energy_2>
6.858

>  <excitation_energy_3>
7.351

>  <excitation_energy_4>
7.42

>  <homo_energy>
-7.366

>  <homo_lumo_gap>
7.657

>  <logP>
3.068

>  <lumo_energy>
0.291

>  <melting_point>
47.94

>  <molecular_refractivity>
51.96

>  <oscillator_strength_1>
0.0014

>  <oscillator_strength_2>
0.0619

>  <oscillator_strength_3>
0.0147

>  <oscillator_strength_4>
0.0036

>  <open_babel_can_smiles>
CCCCC(C(=O)O)CCCC

>  <mulliken_charges>
32
1   -0.442218
2   -0.442235
3   -0.248174
4   -0.253175
5   -0.258969
6   -0.260342
7   -0.265003
8   -0.272209
9   -0.154883
10   0.581365
11   -0.476439
12   -0.570042
13   0.142627
14   0.143559
15   0.141016
16   0.142275
17   0.142793
18   0.141102
19   0.136026
20   0.12985
21   0.14705
22   0.12742
23   0.128586
24   0.139855
25   0.132691
26   0.138159
27   0.155586
28   0.131244
29   0.135297
30   0.152502
31   0.150579
32   0.404107

>  <lowdin_charges>
32
1   -0.444431
2   -0.444614
3   -0.270941
4   -0.279163
5   -0.277732
6   -0.280963
7   -0.26995
8   -0.269101
9   -0.151459
10   0.194626
11   -0.273012
12   -0.360653
13   0.15038
14   0.148078
15   0.144989
16   0.149415
17   0.147445
18   0.146757
19   0.14092
20   0.13894
21   0.146566
22   0.137824
23   0.137196
24   0.143705
25   0.145078
26   0.14285
27   0.152502
28   0.143753
29   0.145089
30   0.153073
31   0.154197
32   0.358635

$$$$

