PCCDB-ID:  7802
public computational chemistry database (PCCDB) project, http://pccdb.org

 22 21  0  0  0  0  0  0  0  0999 V2000
    1.1670    0.5448    0.5016 C   0  0  0  0  0  0  0  0  0  0  0  0
    6.6962   -2.5445   -3.8310 C   0  0  0  0  0  0  0  0  0  0  0  0
    2.6690    0.5011    0.2027 C   0  0  0  0  0  0  0  0  0  0  0  0
    6.3869   -1.5499   -2.7137 C   0  0  0  0  0  0  0  0  0  0  0  0
    3.0246   -0.4668   -0.9324 C   0  0  0  0  0  0  0  0  0  0  0  0
    4.5244   -0.5165   -1.2295 C   0  0  0  0  0  0  0  0  0  0  0  0
    4.9056   -1.4779   -2.3515 C   0  0  0  0  0  0  0  0  0  0  0  0
    4.0736   -2.1536   -2.9285 O   0  0  0  0  0  0  0  0  0  0  0  0
    0.9417    1.2397    1.3185 H   0  0  0  0  0  0  0  0  0  0  0  0
    0.7923   -0.4445    0.7914 H   0  0  0  0  0  0  0  0  0  0  0  0
    0.5977    0.8680   -0.3784 H   0  0  0  0  0  0  0  0  0  0  0  0
    7.7693   -2.5603   -4.0484 H   0  0  0  0  0  0  0  0  0  0  0  0
    6.1607   -2.2812   -4.7480 H   0  0  0  0  0  0  0  0  0  0  0  0
    6.3842   -3.5553   -3.5521 H   0  0  0  0  0  0  0  0  0  0  0  0
    3.2146    0.2138    1.1133 H   0  0  0  0  0  0  0  0  0  0  0  0
    3.0196    1.5113   -0.0540 H   0  0  0  0  0  0  0  0  0  0  0  0
    6.7167   -0.5362   -2.9862 H   0  0  0  0  0  0  0  0  0  0  0  0
    6.9487   -1.7950   -1.8002 H   0  0  0  0  0  0  0  0  0  0  0  0
    2.4872   -0.1836   -1.8463 H   0  0  0  0  0  0  0  0  0  0  0  0
    2.6746   -1.4769   -0.6850 H   0  0  0  0  0  0  0  0  0  0  0  0
    5.0903   -0.8055   -0.3301 H   0  0  0  0  0  0  0  0  0  0  0  0
    4.9043    0.4830   -1.4921 H   0  0  0  0  0  0  0  0  0  0  0  0
  1 10  1  0  0  0  0
  1  9  1  0  0  0  0
  2 14  1  0  0  0  0
  2  4  1  0  0  0  0
  3  1  1  0  0  0  0
  3 15  1  0  0  0  0
  4  7  1  0  0  0  0
  4 18  1  0  0  0  0
  5 20  1  0  0  0  0
  5  3  1  0  0  0  0
  6  5  1  0  0  0  0
  6 21  1  0  0  0  0
  7  6  1  0  0  0  0
  8  7  2  0  0  0  0
 11  1  1  0  0  0  0
 12  2  1  0  0  0  0
 13  2  1  0  0  0  0
 16  3  1  0  0  0  0
 17  4  1  0  0  0  0
 19  5  1  0  0  0  0
 22  6  1  0  0  0  0
M  END
>  <HBA>
1

>  <HBD>
0

>  <TPSA>
17.07

>  <cid>
7802

>  <dipole>
2.53

>  <excitation_energy_1>
4.445

>  <excitation_energy_2>
6.113

>  <excitation_energy_3>
6.743

>  <excitation_energy_4>
6.779

>  <homo_energy>
-6.572

>  <homo_lumo_gap>
6.354

>  <logP>
2.156

>  <lumo_energy>
-0.218

>  <melting_point>
-5.84

>  <molecular_refractivity>
35.96

>  <oscillator_strength_1>
0.0

>  <oscillator_strength_2>
0.0121

>  <oscillator_strength_3>
0.0011

>  <oscillator_strength_4>
0.0005

>  <open_babel_can_smiles>
CCCCC(=O)CC

>  <mulliken_charges>
22
1   -0.441361
2   -0.432303
3   -0.251005
4   -0.34844
5   -0.238052
6   -0.358494
7   0.455129
8   -0.445394
9   0.141504
10   0.144289
11   0.144184
12   0.138942
13   0.160707
14   0.160353
15   0.128189
16   0.128187
17   0.157016
18   0.156381
19   0.145679
20   0.146952
21   0.154288
22   0.153247

>  <lowdin_charges>
22
1   -0.445017
2   -0.437861
3   -0.272519
4   -0.309176
5   -0.270098
6   -0.312305
7   0.164734
8   -0.236977
9   0.149956
10   0.147632
11   0.148541
12   0.148088
13   0.158965
14   0.157835
15   0.137795
16   0.136729
17   0.158984
18   0.15957
19   0.149534
20   0.149118
21   0.159056
22   0.157418

$$$$

