PCCDB-ID:  48720
public computational chemistry database (PCCDB) project, http://pccdb.org

 40 41  0  0  0  0  0  0  0  0999 V2000
    8.4071   -7.3304    2.1772 C   0  0  0  0  0  0  0  0  0  0  0  0
    8.0979   -2.1272   -5.5757 C   0  0  0  0  0  0  0  0  0  0  0  0
    7.6337   -6.0971    2.6594 C   0  0  0  0  0  0  0  0  0  0  0  0
    7.3933   -5.0341    1.5746 C   0  0  0  0  0  0  0  0  0  0  0  0
    8.6726   -4.3847    1.0242 C   0  0  0  0  0  0  0  0  0  0  0  0
    8.2316    0.8641   -1.8229 C   0  0  0  0  0  0  0  0  0  0  0  0
    8.7705   -0.1264   -0.9961 C   0  0  0  0  0  0  0  0  0  0  0  0
    7.9404    0.5966   -3.1544 C   0  0  0  0  0  0  0  0  0  0  0  0
    8.3571   -3.2471    0.0417 C   0  0  0  0  0  0  0  0  0  0  0  0
    8.7263   -1.6775   -2.8472 C   0  0  0  0  0  0  0  0  0  0  0  0
   10.6351   -3.4543   -1.2124 C   0  0  0  0  0  0  0  0  0  0  0  0
   10.6757   -2.0986    0.4067 C   0  0  0  0  0  0  0  0  0  0  0  0
    9.0252   -1.4042   -1.5022 C   0  0  0  0  0  0  0  0  0  0  0  0
    8.1879   -0.6833   -3.6710 C   0  0  0  0  0  0  0  0  0  0  0  0
    9.5553   -2.5051   -0.6024 C   0  0  0  0  0  0  0  0  0  0  0  0
   11.4361   -3.3112    0.0252 N   0  0  0  0  0  0  0  0  0  0  0  0
    7.8718   -0.8566   -4.9896 O   0  0  0  0  0  0  0  0  0  0  0  0
    8.4882   -8.0807    2.9724 H   0  0  0  0  0  0  0  0  0  0  0  0
    9.4247   -7.0756    1.8612 H   0  0  0  0  0  0  0  0  0  0  0  0
    7.9020   -7.8032    1.3252 H   0  0  0  0  0  0  0  0  0  0  0  0
    7.7793   -2.0385   -6.6161 H   0  0  0  0  0  0  0  0  0  0  0  0
    7.5085   -2.9120   -5.0828 H   0  0  0  0  0  0  0  0  0  0  0  0
    9.1603   -2.4045   -5.5454 H   0  0  0  0  0  0  0  0  0  0  0  0
    8.1694   -5.6372    3.5021 H   0  0  0  0  0  0  0  0  0  0  0  0
    6.6615   -6.4186    3.0575 H   0  0  0  0  0  0  0  0  0  0  0  0
    6.7453   -4.2484    1.9901 H   0  0  0  0  0  0  0  0  0  0  0  0
    6.8271   -5.4851    0.7458 H   0  0  0  0  0  0  0  0  0  0  0  0
    9.2935   -5.1410    0.5320 H   0  0  0  0  0  0  0  0  0  0  0  0
    9.2705   -4.0038    1.8623 H   0  0  0  0  0  0  0  0  0  0  0  0
    8.0409    1.8567   -1.4226 H   0  0  0  0  0  0  0  0  0  0  0  0
    8.9911    0.0998    0.0439 H   0  0  0  0  0  0  0  0  0  0  0  0
    7.5275    1.3543   -3.8128 H   0  0  0  0  0  0  0  0  0  0  0  0
    7.7356   -2.4964    0.5504 H   0  0  0  0  0  0  0  0  0  0  0  0
    7.7344   -3.6422   -0.7748 H   0  0  0  0  0  0  0  0  0  0  0  0
    8.9202   -2.6698   -3.2403 H   0  0  0  0  0  0  0  0  0  0  0  0
   11.0992   -3.0219   -2.1107 H   0  0  0  0  0  0  0  0  0  0  0  0
   10.3321   -4.4857   -1.4359 H   0  0  0  0  0  0  0  0  0  0  0  0
   10.4069   -2.0509    1.4698 H   0  0  0  0  0  0  0  0  0  0  0  0
   11.1548   -1.1507    0.1222 H   0  0  0  0  0  0  0  0  0  0  0  0
   12.4311   -3.1591   -0.1267 H   0  0  0  0  0  0  0  0  0  0  0  0
  1  3  1  0  0  0  0
  1 18  1  0  0  0  0
  2 23  1  0  0  0  0
  2 22  1  0  0  0  0
  2 17  1  0  0  0  0
  3 25  1  0  0  0  0
  3 24  1  0  0  0  0
  4 26  1  0  0  0  0
  4  3  1  0  0  0  0
  5  4  1  0  0  0  0
  5 29  1  0  0  0  0
  6 30  1  0  0  0  0
  6  7  2  0  0  0  0
  7 31  1  0  0  0  0
  8  6  1  0  0  0  0
  9 33  1  0  0  0  0
  9  5  1  0  0  0  0
 10 13  2  0  0  0  0
 11 15  1  0  0  0  0
 11 16  1  0  0  0  0
 12 38  1  0  0  0  0
 13  7  1  0  0  0  0
 13 15  1  0  0  0  0
 14  8  2  0  0  0  0
 14 10  1  0  0  0  0
 15  9  1  0  0  0  0
 15 12  1  0  0  0  0
 16 12  1  0  0  0  0
 17 14  1  0  0  0  0
 19  1  1  0  0  0  0
 20  1  1  0  0  0  0
 21  2  1  0  0  0  0
 27  4  1  0  0  0  0
 28  5  1  0  0  0  0
 32  8  1  0  0  0  0
 34  9  1  0  0  0  0
 35 10  1  0  0  0  0
 36 11  1  0  0  0  0
 37 11  1  0  0  0  0
 39 12  1  0  0  0  0
 40 16  1  0  0  0  0
M  END
>  <HBA>
2

>  <HBD>
1

>  <TPSA>
21.26

>  <cid>
48720

>  <dipole>
1.16

>  <excitation_energy_1>
4.969

>  <excitation_energy_2>
5.241

>  <excitation_energy_3>
5.306

>  <excitation_energy_4>
5.4

>  <homo_energy>
-5.763

>  <homo_lumo_gap>
5.848

>  <logP>
3.445

>  <lumo_energy>
0.084

>  <melting_point>
65.31

>  <molecular_refractivity>
76.03

>  <oscillator_strength_1>
0.0462

>  <oscillator_strength_2>
0.0039

>  <oscillator_strength_3>
0.0019

>  <oscillator_strength_4>
0.0029

>  <open_babel_can_smiles>
CCCCCC1(CNC1)c1cccc(c1)OC

>  <mulliken_charges>
40
1   -0.444769
2   -0.21256
3   -0.248068
4   -0.250107
5   -0.257263
6   -0.133843
7   -0.188535
8   -0.173888
9   -0.26753
10   -0.256886
11   -0.141205
12   -0.14126
13   0.133708
14   0.380368
15   -0.011307
16   -0.567047
17   -0.509499
18   0.139828
19   0.152402
20   0.137479
21   0.168745
22   0.151104
23   0.149927
24   0.129771
25   0.128224
26   0.124805
27   0.122938
28   0.148758
29   0.139823
30   0.128367
31   0.12256
32   0.134587
33   0.13404
34   0.130216
35   0.128403
36   0.12641
37   0.133296
38   0.135626
39   0.129194
40   0.293193

>  <lowdin_charges>
40
1   -0.448568
2   -0.27622
3   -0.273331
4   -0.277507
5   -0.281537
6   -0.144903
7   -0.190752
8   -0.189803
9   -0.270469
10   -0.226629
11   -0.208172
12   -0.205487
13   0.008176
14   0.104932
15   0.002124
16   -0.373757
17   -0.201075
18   0.149167
19   0.149384
20   0.145104
21   0.160854
22   0.145678
23   0.142426
24   0.139451
25   0.140196
26   0.139439
27   0.136234
28   0.149576
29   0.145792
30   0.157219
31   0.153821
32   0.166686
33   0.145366
34   0.143209
35   0.159668
36   0.132848
37   0.13416
38   0.134849
39   0.133872
40   0.247978

$$$$

