PCCDB-ID:  15321
public computational chemistry database (PCCDB) project, http://pccdb.org

 24 25  0  0  0  0  0  0  0  0999 V2000
   -0.7568    1.2023    0.0835 C   0  0  0  0  0  0  0  0  0  0  0  0
    1.4056    0.1199   -0.1253 C   0  0  0  0  0  0  0  0  0  0  0  0
   -1.3415   -4.9123    0.4063 C   0  0  0  0  0  0  0  0  0  0  0  0
   -3.1449   -3.9441   -0.8980 C   0  0  0  0  0  0  0  0  0  0  0  0
   -1.3767   -0.0402    0.0290 C   0  0  0  0  0  0  0  0  0  0  0  0
    0.7743   -1.1169   -0.1777 C   0  0  0  0  0  0  0  0  0  0  0  0
   -0.7210   -3.6701    0.4587 C   0  0  0  0  0  0  0  0  0  0  0  0
   -2.5154   -2.7068   -0.8377 C   0  0  0  0  0  0  0  0  0  0  0  0
    1.2881    2.5708    0.0606 C   0  0  0  0  0  0  0  0  0  0  0  0
   -3.2056   -6.3385   -0.3331 C   0  0  0  0  0  0  0  0  0  0  0  0
    0.6428    1.2920    0.0062 C   0  0  0  0  0  0  0  0  0  0  0  0
   -2.5612   -5.0595   -0.2747 C   0  0  0  0  0  0  0  0  0  0  0  0
   -0.6259   -1.2219   -0.1021 C   0  0  0  0  0  0  0  0  0  0  0  0
   -1.2936   -2.5450   -0.1607 C   0  0  0  0  0  0  0  0  0  0  0  0
    1.8118    3.6087    0.1046 N   0  0  0  0  0  0  0  0  0  0  0  0
   -3.7284   -7.3768   -0.3804 N   0  0  0  0  0  0  0  0  0  0  0  0
   -1.3475    2.1061    0.1925 H   0  0  0  0  0  0  0  0  0  0  0  0
    2.4865    0.1876   -0.1929 H   0  0  0  0  0  0  0  0  0  0  0  0
   -0.8928   -5.7709    0.8953 H   0  0  0  0  0  0  0  0  0  0  0  0
   -4.0835   -4.0570   -1.4308 H   0  0  0  0  0  0  0  0  0  0  0  0
   -2.4573   -0.0976    0.1174 H   0  0  0  0  0  0  0  0  0  0  0  0
    1.3737   -2.0127   -0.3077 H   0  0  0  0  0  0  0  0  0  0  0  0
    0.2074   -3.5646    1.0116 H   0  0  0  0  0  0  0  0  0  0  0  0
   -2.9634   -1.8589   -1.3467 H   0  0  0  0  0  0  0  0  0  0  0  0
  1 17  1  0  0  0  0
  2 11  1  0  0  0  0
  3  7  1  0  0  0  0
  3 19  1  0  0  0  0
  4  8  2  0  0  0  0
  4 12  1  0  0  0  0
  5  1  1  0  0  0  0
  5 21  1  0  0  0  0
  6  2  2  0  0  0  0
  6 13  1  0  0  0  0
  7 23  1  0  0  0  0
  8 14  1  0  0  0  0
  9 15  3  0  0  0  0
 10 12  1  0  0  0  0
 11  9  1  0  0  0  0
 11  1  2  0  0  0  0
 12  3  2  0  0  0  0
 13  5  2  0  0  0  0
 14 13  1  0  0  0  0
 14  7  2  0  0  0  0
 16 10  3  0  0  0  0
 18  2  1  0  0  0  0
 20  4  1  0  0  0  0
 22  6  1  0  0  0  0
 24  8  1  0  0  0  0
M  END
>  <HBA>
2

>  <HBD>
0

>  <TPSA>
47.58

>  <cid>
15321

>  <dipole>
0.01

>  <excitation_energy_1>
4.299

>  <excitation_energy_2>
4.653

>  <excitation_energy_3>
4.699

>  <excitation_energy_4>
5.098

>  <homo_energy>
-6.969

>  <homo_lumo_gap>
4.645

>  <logP>
3.097

>  <lumo_energy>
-2.324

>  <melting_point>
118.07

>  <molecular_refractivity>
61.31

>  <oscillator_strength_1>
0.8983

>  <oscillator_strength_2>
0.0015

>  <oscillator_strength_3>
0.0141

>  <oscillator_strength_4>
0.0

>  <open_babel_can_smiles>
N#Cc1ccc(cc1)c1ccc(cc1)C#N

>  <mulliken_charges>
24
1   -0.140133
2   -0.140079
3   -0.140071
4   -0.140209
5   -0.178067
6   -0.177941
7   -0.177964
8   -0.177797
9   0.239109
10   0.239095
11   0.135287
12   0.135373
13   0.099396
14   0.099349
15   -0.472156
16   -0.472136
17   0.165654
18   0.165591
19   0.165568
20   0.16557
21   0.151656
22   0.151681
23   0.151626
24   0.151598

>  <lowdin_charges>
24
1   -0.128797
2   -0.125838
3   -0.129098
4   -0.127259
5   -0.150312
6   -0.153604
7   -0.151829
8   -0.153904
9   -0.014018
10   -0.014022
11   -0.017256
12   -0.017504
13   0.010752
14   0.010665
15   -0.111384
16   -0.111387
17   0.177957
18   0.175465
19   0.178268
20   0.17711
21   0.167201
22   0.169782
23   0.168928
24   0.170084

$$$$

