PCCDB-ID:  8348
public computational chemistry database (PCCDB) project, http://pccdb.org

 25 26  0  0  0  0  0  0  0  0999 V2000
   -2.0082    2.1702    0.3275 C   0  0  0  0  0  0  0  0  0  0  0  0
   -1.7368    1.0178   -0.4161 C   0  0  0  0  0  0  0  0  0  0  0  0
   -0.9784    3.0630    0.6314 C   0  0  0  0  0  0  0  0  0  0  0  0
    5.4102    2.8509   -0.5796 C   0  0  0  0  0  0  0  0  0  0  0  0
    5.2534    4.1077   -1.1680 C   0  0  0  0  0  0  0  0  0  0  0  0
   -0.4399    0.7593   -0.8494 C   0  0  0  0  0  0  0  0  0  0  0  0
    0.3172    2.8141    0.1810 C   0  0  0  0  0  0  0  0  0  0  0  0
    4.3280    1.9765   -0.5466 C   0  0  0  0  0  0  0  0  0  0  0  0
    4.0284    4.4758   -1.7194 C   0  0  0  0  0  0  0  0  0  0  0  0
    0.5972    1.6613   -0.5658 C   0  0  0  0  0  0  0  0  0  0  0  0
    3.0734    2.3360   -1.0607 C   0  0  0  0  0  0  0  0  0  0  0  0
    2.9395    3.5972   -1.6731 C   0  0  0  0  0  0  0  0  0  0  0  0
    1.9825    1.2996   -1.0021 C   0  0  0  0  0  0  0  0  0  0  0  0
    1.7404    3.9157   -2.2452 O   0  0  0  0  0  0  0  0  0  0  0  0
    2.2626    0.1333   -1.2553 O   0  0  0  0  0  0  0  0  0  0  0  0
   -3.0197    2.3695    0.6720 H   0  0  0  0  0  0  0  0  0  0  0  0
   -2.5366    0.3206   -0.6509 H   0  0  0  0  0  0  0  0  0  0  0  0
   -1.1847    3.9533    1.2194 H   0  0  0  0  0  0  0  0  0  0  0  0
    6.3664    2.5552   -0.1590 H   0  0  0  0  0  0  0  0  0  0  0  0
    6.0872    4.8033   -1.2084 H   0  0  0  0  0  0  0  0  0  0  0  0
   -0.2039   -0.1396   -1.4095 H   0  0  0  0  0  0  0  0  0  0  0  0
    1.1158    3.5079    0.4233 H   0  0  0  0  0  0  0  0  0  0  0  0
    4.4310    0.9858   -0.1149 H   0  0  0  0  0  0  0  0  0  0  0  0
    3.9123    5.4460   -2.2000 H   0  0  0  0  0  0  0  0  0  0  0  0
    1.8099    4.7916   -2.6560 H   0  0  0  0  0  0  0  0  0  0  0  0
  1  3  1  0  0  0  0
  1 16  1  0  0  0  0
  2  1  2  0  0  0  0
  3 18  1  0  0  0  0
  4  8  1  0  0  0  0
  4 19  1  0  0  0  0
  5  4  2  0  0  0  0
  6 10  2  0  0  0  0
  6  2  1  0  0  0  0
  7 22  1  0  0  0  0
  7  3  2  0  0  0  0
  8 23  1  0  0  0  0
  9 12  2  0  0  0  0
  9  5  1  0  0  0  0
 10  7  1  0  0  0  0
 11 13  1  0  0  0  0
 11  8  2  0  0  0  0
 12 11  1  0  0  0  0
 13 10  1  0  0  0  0
 14 12  1  0  0  0  0
 15 13  2  0  0  0  0
 17  2  1  0  0  0  0
 20  5  1  0  0  0  0
 21  6  1  0  0  0  0
 24  9  1  0  0  0  0
 25 14  1  0  0  0  0
M  END
>  <HBA>
2

>  <HBD>
1

>  <TPSA>
37.3

>  <cid>
8348

>  <dipole>
4.07

>  <excitation_energy_1>
3.612

>  <excitation_energy_2>
3.995

>  <excitation_energy_3>
4.495

>  <excitation_energy_4>
4.679

>  <homo_energy>
-6.27

>  <homo_lumo_gap>
4.743

>  <logP>
2.623

>  <lumo_energy>
-1.527

>  <melting_point>
104.73

>  <molecular_refractivity>
58.34

>  <oscillator_strength_1>
0.004

>  <oscillator_strength_2>
0.0439

>  <oscillator_strength_3>
0.0183

>  <oscillator_strength_4>
0.2231

>  <open_babel_can_smiles>
Oc1ccccc1C(=O)c1ccccc1

>  <mulliken_charges>
25
1   -0.11951
2   -0.135952
3   -0.140317
4   -0.137605
5   -0.126852
6   -0.154419
7   -0.153692
8   -0.161429
9   -0.194876
10   0.095903
11   0.034336
12   0.308899
13   0.325178
14   -0.635521
15   -0.46188
16   0.133327
17   0.134462
18   0.131057
19   0.134486
20   0.137288
21   0.158583
22   0.138881
23   0.156508
24   0.122127
25   0.41102

>  <lowdin_charges>
25
1   -0.141385
2   -0.159393
3   -0.160488
4   -0.177771
5   -0.135434
6   -0.1284
7   -0.138892
8   -0.120943
9   -0.213431
10   -0.038842
11   -0.070865
12   0.104617
13   0.162809
14   -0.367392
15   -0.242897
16   0.158521
17   0.160859
18   0.158462
19   0.161572
20   0.162638
21   0.174343
22   0.165422
23   0.172673
24   0.15462
25   0.359598

$$$$

