PCCDB-ID:  41858
public computational chemistry database (PCCDB) project, http://pccdb.org

 31 33  0  0  1  0  0  0  0  0999 V2000
   -0.2132    1.3170   -1.6443 C   0  0  0  0  0  0  0  0  0  0  0  0
    0.5501    0.2059   -2.0120 C   0  0  0  0  0  0  0  0  0  0  0  0
    0.3181    2.2690   -0.7716 C   0  0  0  0  0  0  0  0  0  0  0  0
    1.8412    0.0491   -1.5111 C   0  0  0  0  0  0  0  0  0  0  0  0
    1.6177    2.1242   -0.2853 C   0  0  0  0  0  0  0  0  0  0  0  0
    5.8933    1.6891    0.6953 C   0  0  0  0  0  0  0  0  0  0  0  0
    4.6685    3.0221   -0.8589 C   0  0  0  0  0  0  0  0  0  0  0  0
    5.6051    3.7592    2.2304 C   0  0  0  0  0  0  0  0  0  0  0  0
    5.0693    5.1640    0.5270 C   0  0  0  0  0  0  0  0  0  0  0  0
    2.3917    1.0174   -0.6623 C   0  0  0  0  0  0  0  0  0  0  0  0
    6.3019    3.1374    0.9871 C   0  0  2  0  0  0  0  0  0  0  0  0
    5.7029    3.9675   -0.1940 C   0  0  1  0  0  0  0  0  0  0  0  0
    3.7603    0.7720   -0.0906 C   0  0  0  0  0  0  0  0  0  0  0  0
    4.6061    1.8491    0.0247 N   0  0  0  0  0  0  0  0  0  0  0  0
    4.0847   -0.3439    0.3116 O   0  0  0  0  0  0  0  0  0  0  0  0
    4.5820    4.6315    1.7505 O   0  0  0  0  0  0  0  0  0  0  0  0
   -1.2231    1.4348   -2.0282 H   0  0  0  0  0  0  0  0  0  0  0  0
    0.1340   -0.5440   -2.6794 H   0  0  0  0  0  0  0  0  0  0  0  0
   -0.2818    3.1213   -0.4638 H   0  0  0  0  0  0  0  0  0  0  0  0
    2.4340   -0.8252   -1.7617 H   0  0  0  0  0  0  0  0  0  0  0  0
    2.0247    2.8506    0.4134 H   0  0  0  0  0  0  0  0  0  0  0  0
    5.7738    1.0659    1.5839 H   0  0  0  0  0  0  0  0  0  0  0  0
    6.6263    1.1922    0.0403 H   0  0  0  0  0  0  0  0  0  0  0  0
    5.0089    2.7273   -1.8628 H   0  0  0  0  0  0  0  0  0  0  0  0
    3.6885    3.4878   -0.9670 H   0  0  0  0  0  0  0  0  0  0  0  0
    6.3327    4.3269    2.8316 H   0  0  0  0  0  0  0  0  0  0  0  0
    5.1267    3.0160    2.8744 H   0  0  0  0  0  0  0  0  0  0  0  0
    4.2259    5.6144   -0.0050 H   0  0  0  0  0  0  0  0  0  0  0  0
    5.8251    5.9477    0.7103 H   0  0  0  0  0  0  0  0  0  0  0  0
    7.3885    3.2367    1.0618 H   0  0  0  0  0  0  0  0  0  0  0  0
    6.4601    4.2837   -0.9171 H   0  0  0  0  0  0  0  0  0  0  0  0
  1  3  1  0  0  0  0
  2  1  2  0  0  0  0
  2  4  1  0  0  0  0
  3 19  1  0  0  0  0
  3  5  2  0  0  0  0
  4 10  2  0  0  0  0
  5 21  1  0  0  0  0
  6 11  1  0  0  0  0
  6 22  1  0  0  0  0
  7 12  1  0  0  0  0
  7 14  1  0  0  0  0
  8 26  1  0  0  0  0
  8 27  1  0  0  0  0
  9 29  1  0  0  0  0
  9 16  1  0  0  0  0
 10  5  1  0  0  0  0
 10 13  1  0  0  0  0
 11 30  1  1  0  0  0
 11  8  1  0  0  0  0
 12 31  1  6  0  0  0
 12  9  1  0  0  0  0
 12 11  1  0  0  0  0
 13 14  1  0  0  0  0
 13 15  2  0  0  0  0
 14  6  1  0  0  0  0
 16  8  1  0  0  0  0
 17  1  1  0  0  0  0
 18  2  1  0  0  0  0
 20  4  1  0  0  0  0
 23  6  1  0  0  0  0
 24  7  1  0  0  0  0
 25  7  1  0  0  0  0
 28  9  1  0  0  0  0
M  END
>  <HBA>
3

>  <HBD>
0

>  <TPSA>
29.54

>  <cid>
41858

>  <dipole>
3.72

>  <excitation_energy_1>
4.541

>  <excitation_energy_2>
4.962

>  <excitation_energy_3>
5.097

>  <excitation_energy_4>
5.364

>  <homo_energy>
-6.245

>  <homo_lumo_gap>
5.535

>  <logP>
1.343

>  <lumo_energy>
-0.71

>  <melting_point>
73.73

>  <molecular_refractivity>
64.34

>  <oscillator_strength_1>
0.0063

>  <oscillator_strength_2>
0.0945

>  <oscillator_strength_3>
0.0072

>  <oscillator_strength_4>
0.0

>  <open_babel_can_smiles>
O=C(c1ccccc1)N1C[C@@H]2[C@H](C1)COC2

>  <mulliken_charges>
31
1   -0.121254
2   -0.137807
3   -0.137341
4   -0.150961
5   -0.178074
6   -0.125792
7   -0.126417
8   -0.020463
9   -0.035549
10   0.07299
11   -0.15812
12   -0.144847
13   0.503837
14   -0.439768
15   -0.512231
16   -0.469367
17   0.132858
18   0.13442
19   0.133973
20   0.151587
21   0.157952
22   0.176654
23   0.145719
24   0.148024
25   0.165779
26   0.127941
27   0.154153
28   0.147706
29   0.124402
30   0.14011
31   0.139886

>  <lowdin_charges>
31
1   -0.148224
2   -0.156656
3   -0.158613
4   -0.138175
5   -0.159229
6   -0.192951
7   -0.195543
8   -0.139919
9   -0.136869
10   -0.034301
11   -0.151579
12   -0.152552
13   0.154734
14   -0.116465
15   -0.302333
16   -0.27428
17   0.15834
18   0.161028
19   0.160376
20   0.171379
21   0.169199
22   0.166993
23   0.143108
24   0.141293
25   0.160364
26   0.133867
27   0.155303
28   0.150725
29   0.128626
30   0.149266
31   0.153092

$$$$

