PCCDB-ID:  70141
public computational chemistry database (PCCDB) project, http://pccdb.org

 24 24  0  0  0  0  0  0  0  0999 V2000
    0.6367    0.7848    0.1592 C   0  0  0  0  0  0  0  0  0  0  0  0
    6.3934   -0.1284   -0.5484 C   0  0  0  0  0  0  0  0  0  0  0  0
    5.3835   -4.3385   -0.1644 C   0  0  0  0  0  0  0  0  0  0  0  0
    2.9784    1.5999   -0.3905 C   0  0  0  0  0  0  0  0  0  0  0  0
    4.3453    1.3763   -0.5619 C   0  0  0  0  0  0  0  0  0  0  0  0
    2.6818   -0.7048    0.1934 C   0  0  0  0  0  0  0  0  0  0  0  0
    2.1215    0.5624   -0.0103 C   0  0  0  0  0  0  0  0  0  0  0  0
    4.9172    0.1153   -0.3654 C   0  0  0  0  0  0  0  0  0  0  0  0
    4.8771   -3.0260   -0.7127 C   0  0  0  0  0  0  0  0  0  0  0  0
    4.0433   -0.9115    0.0128 C   0  0  0  0  0  0  0  0  0  0  0  0
    4.7790   -2.7343   -1.8790 O   0  0  0  0  0  0  0  0  0  0  0  0
    4.5461   -2.1874    0.3185 O   0  0  0  0  0  0  0  0  0  0  0  0
    0.3996    1.8510    0.2314 H   0  0  0  0  0  0  0  0  0  0  0  0
    0.2567    0.2926    1.0618 H   0  0  0  0  0  0  0  0  0  0  0  0
    0.0731    0.3791   -0.6912 H   0  0  0  0  0  0  0  0  0  0  0  0
    6.9307    0.8166   -0.6716 H   0  0  0  0  0  0  0  0  0  0  0  0
    6.5813   -0.7444   -1.4357 H   0  0  0  0  0  0  0  0  0  0  0  0
    6.8227   -0.6548    0.3122 H   0  0  0  0  0  0  0  0  0  0  0  0
    5.5667   -5.0287   -0.9883 H   0  0  0  0  0  0  0  0  0  0  0  0
    4.6564   -4.7663    0.5327 H   0  0  0  0  0  0  0  0  0  0  0  0
    6.3122   -4.1747    0.3930 H   0  0  0  0  0  0  0  0  0  0  0  0
    2.5753    2.5971   -0.5501 H   0  0  0  0  0  0  0  0  0  0  0  0
    4.9897    2.2028   -0.8525 H   0  0  0  0  0  0  0  0  0  0  0  0
    2.0632   -1.5441    0.4996 H   0  0  0  0  0  0  0  0  0  0  0  0
  1 13  1  0  0  0  0
  1 14  1  0  0  0  0
  2  8  1  0  0  0  0
  2 18  1  0  0  0  0
  3 21  1  0  0  0  0
  3 20  1  0  0  0  0
  4  7  1  0  0  0  0
  5  4  2  0  0  0  0
  5  8  1  0  0  0  0
  6 24  1  0  0  0  0
  7  1  1  0  0  0  0
  7  6  2  0  0  0  0
  8 10  2  0  0  0  0
  9  3  1  0  0  0  0
  9 12  1  0  0  0  0
 10  6  1  0  0  0  0
 10 12  1  0  0  0  0
 11  9  2  0  0  0  0
 15  1  1  0  0  0  0
 16  2  1  0  0  0  0
 17  2  1  0  0  0  0
 19  3  1  0  0  0  0
 22  4  1  0  0  0  0
 23  5  1  0  0  0  0
M  END
>  <HBA>
2

>  <HBD>
0

>  <TPSA>
26.3

>  <cid>
70141

>  <dipole>
1.59

>  <excitation_energy_1>
5.141

>  <excitation_energy_2>
5.537

>  <excitation_energy_3>
5.709

>  <excitation_energy_4>
5.796

>  <homo_energy>
-6.294

>  <homo_lumo_gap>
6.253

>  <logP>
2.229

>  <lumo_energy>
-0.041

>  <melting_point>
38.83

>  <molecular_refractivity>
47.87

>  <oscillator_strength_1>
0.0131

>  <oscillator_strength_2>
0.007

>  <oscillator_strength_3>
0.0014

>  <oscillator_strength_4>
0.0271

>  <open_babel_can_smiles>
CC(=O)Oc1cc(C)ccc1C

>  <mulliken_charges>
24
1   -0.53002
2   -0.544497
3   -0.526237
4   -0.168056
5   -0.201661
6   -0.203886
7   0.165507
8   0.179346
9   0.595674
10   0.296834
11   -0.447327
12   -0.525449
13   0.156094
14   0.159392
15   0.168004
16   0.154163
17   0.18394
18   0.160418
19   0.184514
20   0.183163
21   0.18455
22   0.12171
23   0.126056
24   0.127767

>  <lowdin_charges>
24
1   -0.441411
2   -0.445688
3   -0.46602
4   -0.169937
5   -0.159998
6   -0.177743
7   0.004
8   -0.011342
9   0.206133
10   0.095787
11   -0.244146
12   -0.173186
13   0.156237
14   0.159831
15   0.163934
16   0.158341
17   0.171196
18   0.160833
19   0.177429
20   0.179479
21   0.179747
22   0.155057
23   0.157883
24   0.163586

$$$$

