PCCDB-ID:  1755
public computational chemistry database (PCCDB) project, http://pccdb.org

 31 30  0  0  0  0  0  0  0  0999 V2000
    0.6898    0.4978   -0.3748 C   0  0  0  0  0  0  0  0  0  0  0  0
    0.3915   -0.7566    0.4616 C   0  0  0  0  0  0  0  0  0  0  0  0
    0.5369    1.8231    0.3852 C   0  0  0  0  0  0  0  0  0  0  0  0
   -1.0734   -0.8838    0.8905 C   0  0  0  0  0  0  0  0  0  0  0  0
    0.9187    3.0434   -0.4782 C   0  0  0  0  0  0  0  0  0  0  0  0
   -2.7630   -2.2590    2.2881 C   0  0  0  0  0  0  0  0  0  0  0  0
   -3.2448   -3.6828    2.6331 C   0  0  0  0  0  0  0  0  0  0  0  0
   -1.3932   -2.1695    1.6324 C   0  0  0  0  0  0  0  0  0  0  0  0
    0.6940    4.3607    0.2537 C   0  0  0  0  0  0  0  0  0  0  0  0
   -2.6544   -4.2760    3.9180 C   0  0  0  0  0  0  0  0  0  0  0  0
   -0.5851   -3.0880    1.6893 O   0  0  0  0  0  0  0  0  0  0  0  0
   -0.1998    5.1302    0.0101 O   0  0  0  0  0  0  0  0  0  0  0  0
    1.5615    4.6259    1.2731 O   0  0  0  0  0  0  0  0  0  0  0  0
   -3.3341   -4.5420    4.8813 O   0  0  0  0  0  0  0  0  0  0  0  0
   -1.3265   -4.4936    3.9138 O   0  0  0  0  0  0  0  0  0  0  0  0
    0.0393    0.5128   -1.2610 H   0  0  0  0  0  0  0  0  0  0  0  0
    1.7178    0.4235   -0.7551 H   0  0  0  0  0  0  0  0  0  0  0  0
    1.0312   -0.7701    1.3535 H   0  0  0  0  0  0  0  0  0  0  0  0
    0.6640   -1.6485   -0.1129 H   0  0  0  0  0  0  0  0  0  0  0  0
    1.1580    1.7943    1.2923 H   0  0  0  0  0  0  0  0  0  0  0  0
   -0.4978    1.9528    0.7266 H   0  0  0  0  0  0  0  0  0  0  0  0
   -1.7377   -0.8468    0.0121 H   0  0  0  0  0  0  0  0  0  0  0  0
   -1.3935   -0.0429    1.5216 H   0  0  0  0  0  0  0  0  0  0  0  0
    0.3046    3.0731   -1.3818 H   0  0  0  0  0  0  0  0  0  0  0  0
    1.9691    2.9633   -0.7929 H   0  0  0  0  0  0  0  0  0  0  0  0
   -2.7389   -1.6284    3.1898 H   0  0  0  0  0  0  0  0  0  0  0  0
   -3.4890   -1.7737    1.6229 H   0  0  0  0  0  0  0  0  0  0  0  0
   -3.0254   -4.3534    1.7923 H   0  0  0  0  0  0  0  0  0  0  0  0
   -4.3267   -3.6680    2.7764 H   0  0  0  0  0  0  0  0  0  0  0  0
    2.2367    3.9301    1.3290 H   0  0  0  0  0  0  0  0  0  0  0  0
   -0.9425   -4.1854    3.0609 H   0  0  0  0  0  0  0  0  0  0  0  0
  1  3  1  0  0  0  0
  1  2  1  0  0  0  0
  2  4  1  0  0  0  0
  2 18  1  0  0  0  0
  3 21  1  0  0  0  0
  3 20  1  0  0  0  0
  4 23  1  0  0  0  0
  4  8  1  0  0  0  0
  5  9  1  0  0  0  0
  5  3  1  0  0  0  0
  6  7  1  0  0  0  0
  6 26  1  0  0  0  0
  7 29  1  0  0  0  0
  7 10  1  0  0  0  0
  8 11  2  0  0  0  0
  8  6  1  0  0  0  0
  9 13  1  0  0  0  0
 10 14  2  0  0  0  0
 12  9  2  0  0  0  0
 13 30  1  0  0  0  0
 15 10  1  0  0  0  0
 16  1  1  0  0  0  0
 17  1  1  0  0  0  0
 19  2  1  0  0  0  0
 22  4  1  0  0  0  0
 24  5  1  0  0  0  0
 25  5  1  0  0  0  0
 27  6  1  0  0  0  0
 28  7  1  0  0  0  0
 31 15  1  0  0  0  0
M  END
>  <HBA>
5

>  <HBD>
2

>  <TPSA>
91.67

>  <cid>
1755

>  <dipole>
5.47

>  <excitation_energy_1>
4.531

>  <excitation_energy_2>
4.993

>  <excitation_energy_3>
5.535

>  <excitation_energy_4>
5.596

>  <homo_energy>
-6.988

>  <homo_lumo_gap>
5.516

>  <logP>
1.455

>  <lumo_energy>
-1.472

>  <melting_point>
146.49

>  <molecular_refractivity>
53.93

>  <oscillator_strength_1>
0.0002

>  <oscillator_strength_2>
0.0009

>  <oscillator_strength_3>
0.0019

>  <oscillator_strength_4>
0.0023

>  <open_babel_can_smiles>
O=C(CCC(=O)O)CCCCCC(=O)O

>  <mulliken_charges>
31
1   -0.262463
2   -0.255985
3   -0.273429
4   -0.366518
5   -0.376159
6   -0.374527
7   -0.376288
8   0.473696
9   0.587111
10   0.576244
11   -0.469938
12   -0.432199
13   -0.56158
14   -0.447484
15   -0.586705
16   0.140355
17   0.141811
18   0.149803
19   0.163506
20   0.131463
21   0.161039
22   0.174955
23   0.172372
24   0.180896
25   0.152084
26   0.198461
27   0.175623
28   0.172779
29   0.182403
30   0.408629
31   0.440046

>  <lowdin_charges>
31
1   -0.274292
2   -0.272776
3   -0.274542
4   -0.31032
5   -0.314222
6   -0.311015
7   -0.3143
8   0.184914
9   0.194776
10   0.187987
11   -0.245511
12   -0.235204
13   -0.361586
14   -0.254966
15   -0.370074
16   0.144591
17   0.146827
18   0.151345
19   0.161029
20   0.138323
21   0.150791
22   0.171092
23   0.167059
24   0.173577
25   0.153336
26   0.182575
27   0.172541
28   0.167704
29   0.175641
30   0.358086
31   0.356612

$$$$

