PCCDB-ID:  69667
public computational chemistry database (PCCDB) project, http://pccdb.org

 16 17  0  0  0  0  0  0  0  0999 V2000
   -1.4504   -0.1101    0.0243 C   0  0  0  0  0  0  0  0  0  0  0  0
   -0.6834   -1.2836    0.0555 C   0  0  0  0  0  0  0  0  0  0  0  0
   -0.8546    1.1590   -0.0567 C   0  0  0  0  0  0  0  0  0  0  0  0
    0.7197   -1.2497    0.0068 C   0  0  0  0  0  0  0  0  0  0  0  0
    1.7526    2.0849   -0.1872 C   0  0  0  0  0  0  0  0  0  0  0  0
    2.6177    0.7613   -0.1527 C   0  0  0  0  0  0  0  0  0  0  0  0
    0.5320    1.1783   -0.1041 C   0  0  0  0  0  0  0  0  0  0  0  0
    1.2955    0.0102   -0.0732 C   0  0  0  0  0  0  0  0  0  0  0  0
   -2.5341   -0.1887    0.0658 H   0  0  0  0  0  0  0  0  0  0  0  0
   -1.1917   -2.2427    0.1183 H   0  0  0  0  0  0  0  0  0  0  0  0
   -1.4631    2.0598   -0.0810 H   0  0  0  0  0  0  0  0  0  0  0  0
    1.3005   -2.1685    0.0317 H   0  0  0  0  0  0  0  0  0  0  0  0
    1.8509    2.6705   -1.1085 H   0  0  0  0  0  0  0  0  0  0  0  0
    1.9087    2.7543    0.6665 H   0  0  0  0  0  0  0  0  0  0  0  0
    3.2734    0.6672    0.7205 H   0  0  0  0  0  0  0  0  0  0  0  0
    3.2147    0.5827   -1.0543 H   0  0  0  0  0  0  0  0  0  0  0  0
  1  2  1  0  0  0  0
  1  9  1  0  0  0  0
  2 10  1  0  0  0  0
  3  1  2  0  0  0  0
  4 12  1  0  0  0  0
  4  2  2  0  0  0  0
  5  6  1  0  0  0  0
  5  7  1  0  0  0  0
  5 14  1  0  0  0  0
  6  8  1  0  0  0  0
  6 15  1  0  0  0  0
  7  8  2  0  0  0  0
  7  3  1  0  0  0  0
  8  4  1  0  0  0  0
 11  3  1  0  0  0  0
 13  5  1  0  0  0  0
 16  6  1  0  0  0  0
M  END
>  <HBA>
0

>  <HBD>
0

>  <TPSA>
0.0

>  <cid>
69667

>  <dipole>
0.4

>  <excitation_energy_1>
5.207

>  <excitation_energy_2>
5.881

>  <excitation_energy_3>
6.061

>  <excitation_energy_4>
6.294

>  <homo_energy>
-6.297

>  <homo_lumo_gap>
6.305

>  <logP>
1.785

>  <lumo_energy>
0.008

>  <melting_point>
34.57

>  <molecular_refractivity>
34.26

>  <oscillator_strength_1>
0.031

>  <oscillator_strength_2>
0.0015

>  <oscillator_strength_3>
0.0078

>  <oscillator_strength_4>
0.0006

>  <open_babel_can_smiles>
c1ccc2c(c1)CC2

>  <mulliken_charges>
16
1   -0.135595
2   -0.135783
3   -0.208607
4   -0.208606
5   -0.355788
6   -0.355751
7   0.142412
8   0.142507
9   0.125325
10   0.125315
11   0.127651
12   0.127655
13   0.152278
14   0.152379
15   0.152324
16   0.152284

>  <lowdin_charges>
16
1   -0.155949
2   -0.158628
3   -0.167959
4   -0.16812
5   -0.276019
6   -0.276501
7   -0.018141
8   -0.017188
9   0.153491
10   0.155546
11   0.157378
12   0.157217
13   0.153511
14   0.153918
15   0.153762
16   0.153682

$$$$

