PCCDB-ID:  12059
public computational chemistry database (PCCDB) project, http://pccdb.org

 22 22  0  0  0  0  0  0  0  0999 V2000
    0.9632   -0.1903    0.0222 C   0  0  0  0  0  0  0  0  0  0  0  0
    3.2595   -0.9079    0.8348 C   0  0  0  0  0  0  0  0  0  0  0  0
    3.9586    1.0721   -3.4591 C   0  0  0  0  0  0  0  0  0  0  0  0
    3.5142    1.1277   -2.1381 C   0  0  0  0  0  0  0  0  0  0  0  0
    3.8674   -0.1117   -4.1898 C   0  0  0  0  0  0  0  0  0  0  0  0
    2.8787   -1.1940   -2.2579 C   0  0  0  0  0  0  0  0  0  0  0  0
    2.4804    0.0558   -0.0796 C   0  0  0  0  0  0  0  0  0  0  0  0
    2.9681   -0.0075   -1.5220 C   0  0  0  0  0  0  0  0  0  0  0  0
    3.3235   -1.2477   -3.5811 C   0  0  0  0  0  0  0  0  0  0  0  0
    3.2002   -2.4457   -4.2345 O   0  0  0  0  0  0  0  0  0  0  0  0
    0.6220   -0.0784    1.0584 H   0  0  0  0  0  0  0  0  0  0  0  0
    0.7023   -1.2029   -0.3075 H   0  0  0  0  0  0  0  0  0  0  0  0
    0.4044    0.5170   -0.6003 H   0  0  0  0  0  0  0  0  0  0  0  0
    2.9423   -0.7912    1.8780 H   0  0  0  0  0  0  0  0  0  0  0  0
    4.3374   -0.7201    0.7822 H   0  0  0  0  0  0  0  0  0  0  0  0
    3.0889   -1.9530    0.5504 H   0  0  0  0  0  0  0  0  0  0  0  0
    4.3808    1.9576   -3.9272 H   0  0  0  0  0  0  0  0  0  0  0  0
    3.5901    2.0573   -1.5798 H   0  0  0  0  0  0  0  0  0  0  0  0
    4.2147   -0.1555   -5.2207 H   0  0  0  0  0  0  0  0  0  0  0  0
    2.4631   -2.0978   -1.8222 H   0  0  0  0  0  0  0  0  0  0  0  0
    2.6728    1.0762    0.2786 H   0  0  0  0  0  0  0  0  0  0  0  0
    3.5444   -2.3468   -5.1356 H   0  0  0  0  0  0  0  0  0  0  0  0
  1 11  1  0  0  0  0
  2 14  1  0  0  0  0
  3  4  2  0  0  0  0
  4 18  1  0  0  0  0
  4  8  1  0  0  0  0
  5  9  2  0  0  0  0
  5  3  1  0  0  0  0
  6 20  1  0  0  0  0
  6  8  2  0  0  0  0
  7  1  1  0  0  0  0
  7 21  1  0  0  0  0
  7  2  1  0  0  0  0
  8  7  1  0  0  0  0
  9  6  1  0  0  0  0
 10  9  1  0  0  0  0
 12  1  1  0  0  0  0
 13  1  1  0  0  0  0
 15  2  1  0  0  0  0
 16  2  1  0  0  0  0
 17  3  1  0  0  0  0
 19  5  1  0  0  0  0
 22 10  1  0  0  0  0
M  END
>  <HBA>
1

>  <HBD>
1

>  <TPSA>
20.23

>  <cid>
12059

>  <dipole>
1.12

>  <excitation_energy_1>
5.029

>  <excitation_energy_2>
5.179

>  <excitation_energy_3>
5.703

>  <excitation_energy_4>
5.773

>  <homo_energy>
-5.875

>  <homo_lumo_gap>
5.951

>  <logP>
2.516

>  <lumo_energy>
0.076

>  <melting_point>
46.8

>  <molecular_refractivity>
43.05

>  <oscillator_strength_1>
0.0382

>  <oscillator_strength_2>
0.0

>  <oscillator_strength_3>
0.004

>  <oscillator_strength_4>
0.0133

>  <open_babel_can_smiles>
Oc1cccc(c1)C(C)C

>  <mulliken_charges>
22
1   -0.437936
2   -0.438533
3   -0.129885
4   -0.202034
5   -0.198028
6   -0.220636
7   -0.159767
8   0.18248
9   0.35188
10   -0.644895
11   0.139952
12   0.145629
13   0.149203
14   0.140049
15   0.149394
16   0.145465
17   0.128041
18   0.118742
19   0.11456
20   0.132835
21   0.127788
22   0.405697

>  <lowdin_charges>
22
1   -0.441144
2   -0.437135
3   -0.145541
4   -0.194484
5   -0.218549
6   -0.197521
7   -0.11654
8   0.0128
9   0.103564
10   -0.380967
11   0.14676
12   0.147916
13   0.154022
14   0.146674
15   0.150966
16   0.147181
17   0.158114
18   0.15359
19   0.150279
20   0.163733
21   0.140678
22   0.355605

$$$$

