PCCDB-ID:  12119
public computational chemistry database (PCCDB) project, http://pccdb.org

 21 21  0  0  0  0  0  0  0  0999 V2000
    1.4137    2.0626    1.4456 C   0  0  0  0  0  0  0  0  0  0  0  0
    2.8998    2.4091    1.4892 C   0  0  0  0  0  0  0  0  0  0  0  0
    5.8330    0.1113    1.0587 C   0  0  0  0  0  0  0  0  0  0  0  0
    5.8215    2.5116    1.2382 C   0  0  0  0  0  0  0  0  0  0  0  0
    7.2247    0.1132    1.0824 C   0  0  0  0  0  0  0  0  0  0  0  0
    7.2157    2.5144    1.2553 C   0  0  0  0  0  0  0  0  0  0  0  0
    5.1004    1.3089    1.1343 C   0  0  0  0  0  0  0  0  0  0  0  0
    7.9282    1.3177    1.1784 C   0  0  0  0  0  0  0  0  0  0  0  0
    3.7005    1.2703    1.0618 N   0  0  0  0  0  0  0  0  0  0  0  0
    9.3019    1.3828    1.2059 O   0  0  0  0  0  0  0  0  0  0  0  0
    0.8080    2.9301    1.7263 H   0  0  0  0  0  0  0  0  0  0  0  0
    1.1746    1.2509    2.1447 H   0  0  0  0  0  0  0  0  0  0  0  0
    1.1189    1.7452    0.4397 H   0  0  0  0  0  0  0  0  0  0  0  0
    3.1774    2.7538    2.5017 H   0  0  0  0  0  0  0  0  0  0  0  0
    3.0945    3.2482    0.8091 H   0  0  0  0  0  0  0  0  0  0  0  0
    5.3023   -0.8351    0.9759 H   0  0  0  0  0  0  0  0  0  0  0  0
    5.2970    3.4585    1.3070 H   0  0  0  0  0  0  0  0  0  0  0  0
    7.7643   -0.8311    1.0249 H   0  0  0  0  0  0  0  0  0  0  0  0
    7.7641    3.4480    1.3357 H   0  0  0  0  0  0  0  0  0  0  0  0
    3.3189    0.3858    1.3775 H   0  0  0  0  0  0  0  0  0  0  0  0
    9.6551    0.4826    1.1408 H   0  0  0  0  0  0  0  0  0  0  0  0
  1  2  1  0  0  0  0
  1 11  1  0  0  0  0
  1 12  1  0  0  0  0
  2 14  1  0  0  0  0
  3  5  2  0  0  0  0
  3  7  1  0  0  0  0
  4  6  1  0  0  0  0
  4 17  1  0  0  0  0
  5  8  1  0  0  0  0
  6 19  1  0  0  0  0
  7  4  2  0  0  0  0
  8 10  1  0  0  0  0
  8  6  2  0  0  0  0
  9  7  1  0  0  0  0
  9 20  1  0  0  0  0
  9  2  1  0  0  0  0
 13  1  1  0  0  0  0
 15  2  1  0  0  0  0
 16  3  1  0  0  0  0
 18  5  1  0  0  0  0
 21 10  1  0  0  0  0
M  END
>  <HBA>
2

>  <HBD>
2

>  <TPSA>
32.26

>  <cid>
12119

>  <dipole>
2.18

>  <excitation_energy_1>
4.21

>  <excitation_energy_2>
4.381

>  <excitation_energy_3>
4.563

>  <excitation_energy_4>
4.827

>  <homo_energy>
-4.819

>  <homo_lumo_gap>
5.001

>  <logP>
1.897

>  <lumo_energy>
0.182

>  <melting_point>
78.18

>  <molecular_refractivity>
42.58

>  <oscillator_strength_1>
0.0464

>  <oscillator_strength_2>
0.0024

>  <oscillator_strength_3>
0.0069

>  <oscillator_strength_4>
0.015

>  <open_babel_can_smiles>
CCNc1ccc(cc1)O

>  <mulliken_charges>
21
1   -0.468617
2   -0.102795
3   -0.194848
4   -0.18632
5   -0.197818
6   -0.170374
7   0.347355
8   0.34332
9   -0.654876
10   -0.653941
11   0.154175
12   0.143599
13   0.162088
14   0.131476
15   0.151
16   0.115839
17   0.125543
18   0.113269
19   0.134383
20   0.305305
21   0.402237

>  <lowdin_charges>
21
1   -0.449416
2   -0.192358
3   -0.188006
4   -0.19474
5   -0.204722
6   -0.177405
7   0.043019
8   0.082202
9   -0.310902
10   -0.393009
11   0.159073
12   0.147804
13   0.156597
14   0.127047
15   0.146337
16   0.152239
17   0.159227
18   0.151175
19   0.165206
20   0.26755
21   0.353085

$$$$

