PCCDB-ID:  8095
public computational chemistry database (PCCDB) project, http://pccdb.org

 21 20  0  0  0  0  0  0  0  0999 V2000
    1.4609   -0.0334   -0.5167 C   0  0  0  0  0  0  0  0  0  0  0  0
    8.0233    4.2834    1.4725 C   0  0  0  0  0  0  0  0  0  0  0  0
    2.9385    0.3177   -0.5677 C   0  0  0  0  0  0  0  0  0  0  0  0
    4.5688    1.6476    0.5137 C   0  0  0  0  0  0  0  0  0  0  0  0
    4.6849    2.6833    1.6264 C   0  0  0  0  0  0  0  0  0  0  0  0
    6.5845    4.0207    1.0940 C   0  0  0  0  0  0  0  0  0  0  0  0
    5.9673    4.6018    0.2295 O   0  0  0  0  0  0  0  0  0  0  0  0
    3.2154    1.2456    0.4700 O   0  0  0  0  0  0  0  0  0  0  0  0
    6.0650    3.0283    1.8605 O   0  0  0  0  0  0  0  0  0  0  0  0
    1.2117   -0.7515   -1.3056 H   0  0  0  0  0  0  0  0  0  0  0  0
    0.8486    0.8633   -0.6565 H   0  0  0  0  0  0  0  0  0  0  0  0
    1.2044   -0.4768    0.4508 H   0  0  0  0  0  0  0  0  0  0  0  0
    8.4030    5.1253    0.8929 H   0  0  0  0  0  0  0  0  0  0  0  0
    8.6301    3.3937    1.2722 H   0  0  0  0  0  0  0  0  0  0  0  0
    8.1020    4.4963    2.5431 H   0  0  0  0  0  0  0  0  0  0  0  0
    3.2010    0.7560   -1.5452 H   0  0  0  0  0  0  0  0  0  0  0  0
    3.5577   -0.5869   -0.4402 H   0  0  0  0  0  0  0  0  0  0  0  0
    5.2321    0.7928    0.7287 H   0  0  0  0  0  0  0  0  0  0  0  0
    4.8838    2.0900   -0.4439 H   0  0  0  0  0  0  0  0  0  0  0  0
    4.3232    2.2658    2.5683 H   0  0  0  0  0  0  0  0  0  0  0  0
    4.1147    3.5795    1.3739 H   0  0  0  0  0  0  0  0  0  0  0  0
  1 12  1  0  0  0  0
  2 15  1  0  0  0  0
  3  1  1  0  0  0  0
  3 17  1  0  0  0  0
  3  8  1  0  0  0  0
  4 18  1  0  0  0  0
  4  5  1  0  0  0  0
  5  9  1  0  0  0  0
  5 20  1  0  0  0  0
  6  2  1  0  0  0  0
  6  9  1  0  0  0  0
  7  6  2  0  0  0  0
  8  4  1  0  0  0  0
 10  1  1  0  0  0  0
 11  1  1  0  0  0  0
 13  2  1  0  0  0  0
 14  2  1  0  0  0  0
 16  3  1  0  0  0  0
 19  4  1  0  0  0  0
 21  5  1  0  0  0  0
M  END
>  <HBA>
3

>  <HBD>
0

>  <TPSA>
35.53

>  <cid>
8095

>  <dipole>
1.92

>  <excitation_energy_1>
5.812

>  <excitation_energy_2>
6.523

>  <excitation_energy_3>
6.742

>  <excitation_energy_4>
6.926

>  <homo_energy>
-6.991

>  <homo_lumo_gap>
7.312

>  <logP>
0.586

>  <lumo_energy>
0.321

>  <melting_point>
-23.07

>  <molecular_refractivity>
33.33

>  <oscillator_strength_1>
0.0011

>  <oscillator_strength_2>
0.0015

>  <oscillator_strength_3>
0.0188

>  <oscillator_strength_4>
0.0015

>  <open_babel_can_smiles>
CCOCCOC(=O)C

>  <mulliken_charges>
21
1   -0.454399
2   -0.52291
3   -0.003653
4   -0.023509
5   -0.063747
6   0.598244
7   -0.463949
8   -0.478306
9   -0.456238
10   0.1443
11   0.160634
12   0.158231
13   0.183296
14   0.182233
15   0.182543
16   0.124345
17   0.119886
18   0.125846
19   0.144297
20   0.163423
21   0.179429

>  <lowdin_charges>
21
1   -0.449385
2   -0.464582
3   -0.122895
4   -0.140815
5   -0.136451
6   0.201261
7   -0.263631
8   -0.2749
9   -0.199042
10   0.15565
11   0.158517
12   0.156834
13   0.176924
14   0.178733
15   0.176464
16   0.127538
17   0.125705
18   0.130068
19   0.139764
20   0.159464
21   0.164781

$$$$

