PCCDB-ID:  7039
public computational chemistry database (PCCDB) project, http://pccdb.org

 24 24  0  0  0  0  0  0  0  0999 V2000
    0.8277    0.1453   -0.1716 C   0  0  0  0  0  0  0  0  0  0  0  0
    3.1110    1.2455   -0.0858 C   0  0  0  0  0  0  0  0  0  0  0  0
    3.0111   -1.1441   -0.2067 C   0  0  0  0  0  0  0  0  0  0  0  0
    5.3170    2.4756   -0.1151 C   0  0  0  0  0  0  0  0  0  0  0  0
    5.1286   -2.5641   -0.1769 C   0  0  0  0  0  0  0  0  0  0  0  0
    2.3379    0.0857   -0.1563 C   0  0  0  0  0  0  0  0  0  0  0  0
    4.5104    1.2035   -0.0718 C   0  0  0  0  0  0  0  0  0  0  0  0
    4.4009   -1.2343   -0.1676 C   0  0  0  0  0  0  0  0  0  0  0  0
    5.1465   -0.0458   -0.0995 C   0  0  0  0  0  0  0  0  0  0  0  0
    6.4346    2.3695    0.7955 O   0  0  0  0  0  0  0  0  0  0  0  0
    6.0712   -2.6920   -1.2341 O   0  0  0  0  0  0  0  0  0  0  0  0
    6.5146   -0.1605   -0.0750 O   0  0  0  0  0  0  0  0  0  0  0  0
    0.4702    1.1794   -0.2133 H   0  0  0  0  0  0  0  0  0  0  0  0
    0.3957   -0.3169    0.7254 H   0  0  0  0  0  0  0  0  0  0  0  0
    0.4120   -0.3853   -1.0371 H   0  0  0  0  0  0  0  0  0  0  0  0
    2.6169    2.2151   -0.0510 H   0  0  0  0  0  0  0  0  0  0  0  0
    2.4323   -2.0645   -0.2660 H   0  0  0  0  0  0  0  0  0  0  0  0
    4.6876    3.3319    0.1594 H   0  0  0  0  0  0  0  0  0  0  0  0
    5.6975    2.6514   -1.1340 H   0  0  0  0  0  0  0  0  0  0  0  0
    4.4079   -3.3770   -0.3090 H   0  0  0  0  0  0  0  0  0  0  0  0
    5.6185   -2.7148    0.7997 H   0  0  0  0  0  0  0  0  0  0  0  0
    7.0383    3.1076    0.6176 H   0  0  0  0  0  0  0  0  0  0  0  0
    6.7159   -1.9775   -1.0972 H   0  0  0  0  0  0  0  0  0  0  0  0
    6.8693    0.6886    0.2687 H   0  0  0  0  0  0  0  0  0  0  0  0
  1  6  1  0  0  0  0
  1 14  1  0  0  0  0
  2  7  1  0  0  0  0
  2 16  1  0  0  0  0
  3  8  2  0  0  0  0
  3  6  1  0  0  0  0
  4  7  1  0  0  0  0
  4 18  1  0  0  0  0
  4 10  1  0  0  0  0
  5  8  1  0  0  0  0
  5 21  1  0  0  0  0
  6  2  2  0  0  0  0
  8  9  1  0  0  0  0
  9 12  1  0  0  0  0
  9  7  2  0  0  0  0
 11 23  1  0  0  0  0
 11  5  1  0  0  0  0
 12 24  1  0  0  0  0
 13  1  1  0  0  0  0
 15  1  1  0  0  0  0
 17  3  1  0  0  0  0
 19  4  1  0  0  0  0
 20  5  1  0  0  0  0
 22 10  1  0  0  0  0
M  END
>  <HBA>
3

>  <HBD>
3

>  <TPSA>
60.69

>  <cid>
7039

>  <dipole>
4.5

>  <excitation_energy_1>
4.556

>  <excitation_energy_2>
5.059

>  <excitation_energy_3>
5.419

>  <excitation_energy_4>
5.583

>  <homo_energy>
-5.742

>  <homo_lumo_gap>
5.576

>  <logP>
0.685

>  <lumo_energy>
-0.166

>  <melting_point>
95.04

>  <molecular_refractivity>
45.69

>  <oscillator_strength_1>
0.0443

>  <oscillator_strength_2>
0.0047

>  <oscillator_strength_3>
0.0096

>  <oscillator_strength_4>
0.0091

>  <open_babel_can_smiles>
OCc1cc(C)cc(c1O)CO

>  <mulliken_charges>
24
1   -0.53275
2   -0.2655
3   -0.255312
4   -0.138306
5   -0.101287
6   0.198734
7   0.139537
8   0.139454
9   0.231016
10   -0.628893
11   -0.631314
12   -0.700436
13   0.151248
14   0.161117
15   0.160823
16   0.113748
17   0.119948
18   0.151552
19   0.153416
20   0.142443
21   0.13306
22   0.407617
23   0.413245
24   0.436836

>  <lowdin_charges>
24
1   -0.441608
2   -0.169169
3   -0.161045
4   -0.129962
5   -0.127961
6   -0.015458
7   -0.064633
8   -0.043805
9   0.096355
10   -0.46864
11   -0.476264
12   -0.413114
13   0.153693
14   0.159532
15   0.160008
16   0.150992
17   0.15509
18   0.148506
19   0.142522
20   0.14938
21   0.135474
22   0.35424
23   0.345573
24   0.360295

$$$$

