PCCDB-ID:  69389
public computational chemistry database (PCCDB) project, http://pccdb.org

 13 12  0  0  0  0  0  0  0  0999 V2000
    1.7021   -1.0765   -0.0211 C   0  0  0  0  0  0  0  0  0  0  0  0
    2.3970    0.0644   -0.0406 C   0  0  0  0  0  0  0  0  0  0  0  0
    3.1909    0.5711   -1.2145 C   0  0  0  0  0  0  0  0  0  0  0  0
    4.7017    0.3529   -1.0020 C   0  0  0  0  0  0  0  0  0  0  0  0
    5.0395   -1.0203   -0.9156 O   0  0  0  0  0  0  0  0  0  0  0  0
    1.1772   -1.4133    0.8691 H   0  0  0  0  0  0  0  0  0  0  0  0
    1.6136   -1.7045   -0.9055 H   0  0  0  0  0  0  0  0  0  0  0  0
    2.4528    0.6641    0.8700 H   0  0  0  0  0  0  0  0  0  0  0  0
    3.0056    1.6439   -1.3646 H   0  0  0  0  0  0  0  0  0  0  0  0
    2.8893    0.0483   -2.1299 H   0  0  0  0  0  0  0  0  0  0  0  0
    5.0327    0.9056   -0.1057 H   0  0  0  0  0  0  0  0  0  0  0  0
    5.2591    0.7503   -1.8564 H   0  0  0  0  0  0  0  0  0  0  0  0
    4.4421   -1.4136   -0.2570 H   0  0  0  0  0  0  0  0  0  0  0  0
  1  6  1  0  0  0  0
  2  1  2  0  0  0  0
  2  8  1  0  0  0  0
  3  4  1  0  0  0  0
  3  2  1  0  0  0  0
  4  5  1  0  0  0  0
  4 11  1  0  0  0  0
  5 13  1  0  0  0  0
  7  1  1  0  0  0  0
  9  3  1  0  0  0  0
 10  3  1  0  0  0  0
 12  4  1  0  0  0  0
M  END
>  <HBA>
1

>  <HBD>
1

>  <TPSA>
20.23

>  <cid>
69389

>  <dipole>
1.77

>  <excitation_energy_1>
6.223

>  <excitation_energy_2>
6.585

>  <excitation_energy_3>
6.969

>  <excitation_energy_4>
7.065

>  <homo_energy>
-6.942

>  <homo_lumo_gap>
7.187

>  <logP>
0.555

>  <lumo_energy>
0.245

>  <melting_point>
-27.22

>  <molecular_refractivity>
22.03

>  <oscillator_strength_1>
0.0539

>  <oscillator_strength_2>
0.0113

>  <oscillator_strength_3>
0.0774

>  <oscillator_strength_4>
0.1036

>  <open_babel_can_smiles>
OCCC=C

>  <mulliken_charges>
13
1   -0.340039
2   -0.07324
3   -0.318566
4   -0.022402
5   -0.617469
6   0.145151
7   0.147585
8   0.1322
9   0.14112
10   0.153343
11   0.117396
12   0.147196
13   0.387725

>  <lowdin_charges>
13
1   -0.344942
2   -0.15241
3   -0.292691
4   -0.131509
5   -0.472193
6   0.161359
7   0.159743
8   0.152036
9   0.152335
10   0.154888
11   0.123612
12   0.149197
13   0.340575

$$$$

