PCCDB-ID:  18234
public computational chemistry database (PCCDB) project, http://pccdb.org

 17 17  0  0  0  0  0  0  0  0999 V2000
   -1.4962    0.2618    0.0406 C   0  0  0  0  0  0  0  0  0  0  0  0
   -0.8035    1.4106   -0.3415 C   0  0  0  0  0  0  0  0  0  0  0  0
   -0.7940   -0.9069    0.3456 C   0  0  0  0  0  0  0  0  0  0  0  0
    0.5902    1.3925   -0.4192 C   0  0  0  0  0  0  0  0  0  0  0  0
    0.5974   -0.9286    0.2691 C   0  0  0  0  0  0  0  0  0  0  0  0
    3.4366    0.1681    1.1560 C   0  0  0  0  0  0  0  0  0  0  0  0
    3.3431   -0.8785   -1.0253 C   0  0  0  0  0  0  0  0  0  0  0  0
    1.2909    0.2238   -0.1143 C   0  0  0  0  0  0  0  0  0  0  0  0
    2.8252    0.2224   -0.1885 C   0  0  0  0  0  0  0  0  0  0  0  0
    3.8955    0.1411    2.2208 N   0  0  0  0  0  0  0  0  0  0  0  0
    3.7323   -1.7422   -1.6942 N   0  0  0  0  0  0  0  0  0  0  0  0
   -2.5808    0.2751    0.0998 H   0  0  0  0  0  0  0  0  0  0  0  0
   -1.3440    2.3216   -0.5815 H   0  0  0  0  0  0  0  0  0  0  0  0
   -1.3296   -1.8038    0.6429 H   0  0  0  0  0  0  0  0  0  0  0  0
    1.1286    2.2894   -0.7157 H   0  0  0  0  0  0  0  0  0  0  0  0
    1.1420   -1.8395    0.5028 H   0  0  0  0  0  0  0  0  0  0  0  0
    3.1532    1.1619   -0.6533 H   0  0  0  0  0  0  0  0  0  0  0  0
  1 12  1  0  0  0  0
  1  3  2  0  0  0  0
  2  1  1  0  0  0  0
  3 14  1  0  0  0  0
  4  2  2  0  0  0  0
  4  8  1  0  0  0  0
  5  3  1  0  0  0  0
  5 16  1  0  0  0  0
  6 10  3  0  0  0  0
  7  9  1  0  0  0  0
  8  5  2  0  0  0  0
  9  8  1  0  0  0  0
  9  6  1  0  0  0  0
 11  7  3  0  0  0  0
 13  2  1  0  0  0  0
 15  4  1  0  0  0  0
 17  9  1  0  0  0  0
M  END
>  <HBA>
2

>  <HBD>
0

>  <TPSA>
47.58

>  <cid>
18234

>  <dipole>
4.79

>  <excitation_energy_1>
5.303

>  <excitation_energy_2>
5.899

>  <excitation_energy_3>
6.155

>  <excitation_energy_4>
6.218

>  <homo_energy>
-7.494

>  <homo_lumo_gap>
6.482

>  <logP>
1.817

>  <lumo_energy>
-1.012

>  <melting_point>
73.62

>  <molecular_refractivity>
40.52

>  <oscillator_strength_1>
0.0015

>  <oscillator_strength_2>
0.0251

>  <oscillator_strength_3>
0.0018

>  <oscillator_strength_4>
0.0028

>  <open_babel_can_smiles>
N#CC(c1ccccc1)C#N

>  <mulliken_charges>
17
1   -0.119958
2   -0.127734
3   -0.130767
4   -0.170104
5   -0.155271
6   0.387268
7   0.380293
8   0.166313
9   -0.329102
10   -0.441726
11   -0.44201
12   0.145471
13   0.145922
14   0.149187
15   0.141191
16   0.16072
17   0.240308

>  <lowdin_charges>
17
1   -0.139957
2   -0.146338
3   -0.14293
4   -0.158586
5   -0.146732
6   -0.009189
7   -0.007764
8   -0.002507
9   -0.109493
10   -0.090681
11   -0.090601
12   0.163805
13   0.166642
14   0.168153
15   0.162903
16   0.173186
17   0.210089

$$$$

