PCCDB-ID:  23634
public computational chemistry database (PCCDB) project, http://pccdb.org

 27 28  0  0  0  0  0  0  0  0999 V2000
    1.9761    0.9232    1.2047 C   0  0  0  0  0  0  0  0  0  0  0  0
    2.2037    0.0375   -0.0241 C   0  0  0  0  0  0  0  0  0  0  0  0
    7.0841    1.4688    0.3494 C   0  0  0  0  0  0  0  0  0  0  0  0
    6.5393    0.8768    1.4889 C   0  0  0  0  0  0  0  0  0  0  0  0
    6.4525    1.2922   -0.8837 C   0  0  0  0  0  0  0  0  0  0  0  0
    5.3742    0.1122    1.3953 C   0  0  0  0  0  0  0  0  0  0  0  0
    5.2880    0.5300   -0.9716 C   0  0  0  0  0  0  0  0  0  0  0  0
    3.4027   -1.9578   -1.0813 C   0  0  0  0  0  0  0  0  0  0  0  0
    3.2446   -2.0825    1.0152 C   0  0  0  0  0  0  0  0  0  0  0  0
    4.7309   -0.0764    0.1648 C   0  0  0  0  0  0  0  0  0  0  0  0
    3.4504   -0.8763    0.0458 C   0  0  0  0  0  0  0  0  0  0  0  0
    2.7532   -2.8875   -0.1282 N   0  0  0  0  0  0  0  0  0  0  0  0
    1.0502    1.4992    1.0964 H   0  0  0  0  0  0  0  0  0  0  0  0
    2.7979    1.6324    1.3484 H   0  0  0  0  0  0  0  0  0  0  0  0
    1.8856    0.3267    2.1205 H   0  0  0  0  0  0  0  0  0  0  0  0
    2.2952    0.6727   -0.9162 H   0  0  0  0  0  0  0  0  0  0  0  0
    1.3295   -0.6060   -0.1843 H   0  0  0  0  0  0  0  0  0  0  0  0
    7.9921    2.0615    0.4198 H   0  0  0  0  0  0  0  0  0  0  0  0
    7.0210    1.0072    2.4547 H   0  0  0  0  0  0  0  0  0  0  0  0
    6.8685    1.7470   -1.7792 H   0  0  0  0  0  0  0  0  0  0  0  0
    4.9627   -0.3440    2.2921 H   0  0  0  0  0  0  0  0  0  0  0  0
    4.8067    0.3979   -1.9383 H   0  0  0  0  0  0  0  0  0  0  0  0
    4.4112   -2.2598   -1.4010 H   0  0  0  0  0  0  0  0  0  0  0  0
    2.8010   -1.7278   -1.9706 H   0  0  0  0  0  0  0  0  0  0  0  0
    2.5169   -1.9640    1.8278 H   0  0  0  0  0  0  0  0  0  0  0  0
    4.1960   -2.4341    1.4408 H   0  0  0  0  0  0  0  0  0  0  0  0
    3.1038   -3.8427   -0.1583 H   0  0  0  0  0  0  0  0  0  0  0  0
  1 14  1  0  0  0  0
  1 15  1  0  0  0  0
  2 11  1  0  0  0  0
  2  1  1  0  0  0  0
  3 18  1  0  0  0  0
  3  4  2  0  0  0  0
  4 19  1  0  0  0  0
  5  3  1  0  0  0  0
  6  4  1  0  0  0  0
  6 21  1  0  0  0  0
  7  5  2  0  0  0  0
  7 10  1  0  0  0  0
  8 12  1  0  0  0  0
  8 11  1  0  0  0  0
  9 26  1  0  0  0  0
  9 25  1  0  0  0  0
 10  6  2  0  0  0  0
 11 10  1  0  0  0  0
 11  9  1  0  0  0  0
 12  9  1  0  0  0  0
 13  1  1  0  0  0  0
 16  2  1  0  0  0  0
 17  2  1  0  0  0  0
 20  5  1  0  0  0  0
 22  7  1  0  0  0  0
 23  8  1  0  0  0  0
 24  8  1  0  0  0  0
 27 12  1  0  0  0  0
M  END
>  <HBA>
1

>  <HBD>
1

>  <TPSA>
12.03

>  <cid>
23634

>  <dipole>
1.08

>  <excitation_energy_1>
5.125

>  <excitation_energy_2>
5.238

>  <excitation_energy_3>
5.366

>  <excitation_energy_4>
5.463

>  <homo_energy>
-5.943

>  <homo_lumo_gap>
5.959

>  <logP>
2.266

>  <lumo_energy>
0.016

>  <melting_point>
61.2

>  <molecular_refractivity>
55.12

>  <oscillator_strength_1>
0.0034

>  <oscillator_strength_2>
0.014

>  <oscillator_strength_3>
0.0001

>  <oscillator_strength_4>
0.0001

>  <open_babel_can_smiles>
CCC1(CNC1)c1ccccc1

>  <mulliken_charges>
27
1   -0.454165
2   -0.257995
3   -0.130347
4   -0.131075
5   -0.130715
6   -0.183148
7   -0.179695
8   -0.138088
9   -0.141498
10   0.140788
11   -0.012883
12   -0.5647
13   0.143781
14   0.156137
15   0.14105
16   0.132491
17   0.153851
18   0.127354
19   0.127997
20   0.128165
21   0.127793
22   0.126563
23   0.127503
24   0.134576
25   0.138158
26   0.125463
27   0.292639

>  <lowdin_charges>
27
1   -0.450525
2   -0.267748
3   -0.161314
4   -0.155828
5   -0.155719
6   -0.171355
7   -0.167731
8   -0.204056
9   -0.208429
10   -0.001421
11   7.6e-05
12   -0.376753
13   0.151778
14   0.154543
15   0.145561
16   0.142557
17   0.154239
18   0.156663
19   0.156553
20   0.157383
21   0.156918
22   0.155393
23   0.131465
24   0.137871
25   0.13926
26   0.131833
27   0.248785

$$$$

