PCCDB-ID:  7057
public computational chemistry database (PCCDB) project, http://pccdb.org

 20 21  0  0  0  0  0  0  0  0999 V2000
    2.4308    0.7479    0.0303 C   0  0  0  0  0  0  0  0  0  0  0  0
    2.4501   -0.6684    0.0304 C   0  0  0  0  0  0  0  0  0  0  0  0
    1.2276    1.4180    0.0065 C   0  0  0  0  0  0  0  0  0  0  0  0
    1.2743   -1.3850    0.0073 C   0  0  0  0  0  0  0  0  0  0  0  0
   -1.2619    1.3649   -0.0418 C   0  0  0  0  0  0  0  0  0  0  0  0
   -2.4363    0.6548   -0.0652 C   0  0  0  0  0  0  0  0  0  0  0  0
   -1.2115   -1.4340   -0.0369 C   0  0  0  0  0  0  0  0  0  0  0  0
   -0.0013    0.7094   -0.0182 C   0  0  0  0  0  0  0  0  0  0  0  0
    0.0150   -0.7241   -0.0183 C   0  0  0  0  0  0  0  0  0  0  0  0
   -2.4275   -0.7709   -0.0628 C   0  0  0  0  0  0  0  0  0  0  0  0
   -3.6421   -1.4593   -0.1439 N   0  0  0  0  0  0  0  0  0  0  0  0
    3.3659    1.3009    0.0480 H   0  0  0  0  0  0  0  0  0  0  0  0
    3.4027   -1.1918    0.0490 H   0  0  0  0  0  0  0  0  0  0  0  0
    1.2027    2.5057    0.0053 H   0  0  0  0  0  0  0  0  0  0  0  0
    1.2942   -2.4725    0.0068 H   0  0  0  0  0  0  0  0  0  0  0  0
   -1.2875    2.4523   -0.0421 H   0  0  0  0  0  0  0  0  0  0  0  0
   -3.3908    1.1760   -0.0942 H   0  0  0  0  0  0  0  0  0  0  0  0
   -1.1883   -2.5223   -0.0362 H   0  0  0  0  0  0  0  0  0  0  0  0
   -4.4352   -0.9687    0.2510 H   0  0  0  0  0  0  0  0  0  0  0  0
   -3.6073   -2.4190    0.1777 H   0  0  0  0  0  0  0  0  0  0  0  0
  1  2  1  0  0  0  0
  1 12  1  0  0  0  0
  2 13  1  0  0  0  0
  3  1  2  0  0  0  0
  4  2  2  0  0  0  0
  5  8  2  0  0  0  0
  6 10  2  0  0  0  0
  6  5  1  0  0  0  0
  7 18  1  0  0  0  0
  7  9  2  0  0  0  0
  8  3  1  0  0  0  0
  9  8  1  0  0  0  0
  9  4  1  0  0  0  0
 10  7  1  0  0  0  0
 11 10  1  0  0  0  0
 11 20  1  0  0  0  0
 11 19  1  0  0  0  0
 14  3  1  0  0  0  0
 15  4  1  0  0  0  0
 16  5  1  0  0  0  0
 17  6  1  0  0  0  0
M  END
>  <HBA>
1

>  <HBD>
1

>  <TPSA>
26.02

>  <cid>
7057

>  <dipole>
1.98

>  <excitation_energy_1>
3.875

>  <excitation_energy_2>
4.422

>  <excitation_energy_3>
4.611

>  <excitation_energy_4>
5.115

>  <homo_energy>
-5.178

>  <homo_lumo_gap>
4.449

>  <logP>
3.003

>  <lumo_energy>
-0.729

>  <melting_point>
97.81

>  <molecular_refractivity>
48.35

>  <oscillator_strength_1>
0.0478

>  <oscillator_strength_2>
0.0132

>  <oscillator_strength_3>
0.0037

>  <oscillator_strength_4>
0.0129

>  <open_babel_can_smiles>
Nc1ccc2c(c1)cccc2

>  <mulliken_charges>
20
1   -0.141411
2   -0.134727
3   -0.192192
4   -0.197668
5   -0.200604
6   -0.16875
7   -0.258825
8   0.133624
9   0.140611
10   0.313973
11   -0.79011
12   0.123745
13   0.124756
14   0.124272
15   0.122243
16   0.12867
17   0.119918
18   0.112888
19   0.319269
20   0.320318

>  <lowdin_charges>
20
1   -0.172342
2   -0.157107
3   -0.152171
4   -0.164184
5   -0.143956
6   -0.188527
7   -0.212663
8   -0.016966
9   0.010717
10   0.058078
11   -0.48677
12   0.156119
13   0.156124
14   0.152715
15   0.151951
16   0.15534
17   0.154425
18   0.148878
19   0.276021
20   0.274319

$$$$

