PCCDB-ID:  60976
public computational chemistry database (PCCDB) project, http://pccdb.org

 32 34  0  0  1  0  0  0  0  0999 V2000
    3.1143   -3.1377    0.8945 C   0  0  0  0  0  0  0  0  0  0  0  0
    7.3558   -1.5155    3.2061 C   0  0  0  0  0  0  0  0  0  0  0  0
    6.8659   -1.2868   -1.8054 C   0  0  0  0  0  0  0  0  0  0  0  0
    2.4917   -0.8149    1.9572 C   0  0  0  0  0  0  0  0  0  0  0  0
    6.7145    1.0020    2.8156 C   0  0  0  0  0  0  0  0  0  0  0  0
    5.1524    0.6996   -1.6678 C   0  0  0  0  0  0  0  0  0  0  0  0
    3.4807   -1.8804    1.6465 C   0  0  2  0  0  0  0  0  0  0  0  0
    6.9984   -0.3631    2.2974 C   0  0  2  0  0  0  0  0  0  0  0  0
    5.5697   -0.6846   -1.3176 C   0  0  2  0  0  0  0  0  0  0  0  0
    3.4769   -0.6147    0.8866 N   0  0  0  0  0  0  0  0  0  0  0  0
    5.6138    0.1395    2.3677 N   0  0  0  0  0  0  0  0  0  0  0  0
    5.6701    0.4019   -0.3256 N   0  0  0  0  0  0  0  0  0  0  0  0
    4.1002    1.9659    1.1549 O   0  0  0  0  0  0  0  0  0  0  0  0
    4.6634    0.5966    1.0315 P   0  0  0  0  0  0  0  0  0  0  0  0
    3.9694   -3.5230    0.3259 H   0  0  0  0  0  0  0  0  0  0  0  0
    2.2943   -2.9493    0.1942 H   0  0  0  0  0  0  0  0  0  0  0  0
    2.7993   -3.9213    1.5942 H   0  0  0  0  0  0  0  0  0  0  0  0
    8.4400   -1.5556    3.3657 H   0  0  0  0  0  0  0  0  0  0  0  0
    7.0463   -2.4734    2.7703 H   0  0  0  0  0  0  0  0  0  0  0  0
    6.8647   -1.4089    4.1785 H   0  0  0  0  0  0  0  0  0  0  0  0
    7.2501   -2.0282   -1.0943 H   0  0  0  0  0  0  0  0  0  0  0  0
    7.6281   -0.5120   -1.9351 H   0  0  0  0  0  0  0  0  0  0  0  0
    6.7155   -1.7916   -2.7672 H   0  0  0  0  0  0  0  0  0  0  0  0
    2.6183   -0.2519    2.8802 H   0  0  0  0  0  0  0  0  0  0  0  0
    1.4631   -0.9090    1.6139 H   0  0  0  0  0  0  0  0  0  0  0  0
    6.9781    1.8556    2.1939 H   0  0  0  0  0  0  0  0  0  0  0  0
    6.7336    1.1921    3.8874 H   0  0  0  0  0  0  0  0  0  0  0  0
    4.0889    0.9075   -1.7688 H   0  0  0  0  0  0  0  0  0  0  0  0
    5.8033    1.3265   -2.2747 H   0  0  0  0  0  0  0  0  0  0  0  0
    4.2785   -1.9840    2.3816 H   0  0  0  0  0  0  0  0  0  0  0  0
    7.4361   -0.3938    1.2999 H   0  0  0  0  0  0  0  0  0  0  0  0
    4.7488   -1.3847   -1.1645 H   0  0  0  0  0  0  0  0  0  0  0  0
  1 17  1  0  0  0  0
  1  7  1  0  0  0  0
  2 18  1  0  0  0  0
  2 20  1  0  0  0  0
  3  9  1  0  0  0  0
  3 21  1  0  0  0  0
  4 24  1  0  0  0  0
  5 27  1  0  0  0  0
  6  9  1  0  0  0  0
  6 12  1  0  0  0  0
  7  4  1  0  0  0  0
  7 30  1  1  0  0  0
  8 31  1  6  0  0  0
  8 11  1  0  0  0  0
  8  5  1  0  0  0  0
  8  2  1  0  0  0  0
  9 32  1  1  0  0  0
  9 12  1  0  0  0  0
 10 14  1  0  0  0  0
 10  7  1  0  0  0  0
 10  4  1  0  0  0  0
 11  5  1  0  0  0  0
 12 14  1  0  0  0  0
 14 13  2  0  0  0  0
 14 11  1  0  0  0  0
 15  1  1  0  0  0  0
 16  1  1  0  0  0  0
 19  2  1  0  0  0  0
 22  3  1  0  0  0  0
 23  3  1  0  0  0  0
 25  4  1  0  0  0  0
 26  5  1  0  0  0  0
 28  6  1  0  0  0  0
 29  6  1  0  0  0  0
M  END
>  <HBA>
4

>  <HBD>
0

>  <TPSA>
35.91

>  <cid>
60976

>  <dipole>
4.78

>  <excitation_energy_1>
6.242

>  <excitation_energy_2>
6.339

>  <excitation_energy_3>
6.374

>  <excitation_energy_4>
6.643

>  <homo_energy>
-6.789

>  <homo_lumo_gap>
8.563

>  <logP>
1.02

>  <lumo_energy>
1.774

>  <melting_point>
16.05

>  <molecular_refractivity>
68.13

>  <oscillator_strength_1>
0.0155

>  <oscillator_strength_2>
0.0076

>  <oscillator_strength_3>
0.0082

>  <oscillator_strength_4>
0.0176

>  <open_babel_can_smiles>
C[C@@H]1CN1P(=O)(N1C[C@H]1C)N1C[C@H]1C

>  <mulliken_charges>
32
1   -0.453724
2   -0.453427
3   -0.45298
4   -0.193928
5   -0.191787
6   -0.192672
7   -0.007105
8   -0.004979
9   -0.007256
10   -0.514038
11   -0.520669
12   -0.515466
13   -0.548333
14   1.127334
15   0.149524
16   0.160169
17   0.153108
18   0.153217
19   0.148903
20   0.159608
21   0.149418
22   0.159909
23   0.153098
24   0.180036
25   0.161688
26   0.18146
27   0.160458
28   0.181729
29   0.161343
30   0.171684
31   0.171937
32   0.171742

>  <lowdin_charges>
32
1   -0.443975
2   -0.439665
3   -0.442587
4   -0.214354
5   -0.215143
6   -0.214547
7   -0.077648
8   -0.07392
9   -0.077857
10   -0.368405
11   -0.370481
12   -0.369566
13   -0.594952
14   1.011827
15   0.153995
16   0.161335
17   0.158745
18   0.156096
19   0.152909
20   0.160094
21   0.154508
22   0.16135
23   0.157601
24   0.169949
25   0.160006
26   0.171468
27   0.158588
28   0.169289
29   0.162405
30   0.161152
31   0.160324
32   0.161459

$$$$

