PCCDB-ID:  41049
public computational chemistry database (PCCDB) project, http://pccdb.org

 40 41  0  0  1  0  0  0  0  0999 V2000
    0.5447    0.4556   -0.6735 C   0  0  0  0  0  0  0  0  0  0  0  0
    5.2835   -0.5909   -0.7026 C   0  0  0  0  0  0  0  0  0  0  0  0
    2.0550    0.3406   -0.4311 C   0  0  0  0  0  0  0  0  0  0  0  0
    2.1364   -1.0348    2.4014 C   0  0  0  0  0  0  0  0  0  0  0  0
    3.5913   -1.5021    2.5774 C   0  0  0  0  0  0  0  0  0  0  0  0
    1.4233    4.6727    1.6027 C   0  0  0  0  0  0  0  0  0  0  0  0
    1.6260    3.2978    1.7364 C   0  0  0  0  0  0  0  0  0  0  0  0
    1.8939    5.3636    0.4897 C   0  0  0  0  0  0  0  0  0  0  0  0
    1.9350    0.4634    2.1258 C   0  0  0  0  0  0  0  0  0  0  0  0
    4.3794   -1.6392    1.2728 C   0  0  0  0  0  0  0  0  0  0  0  0
    2.7827    3.2786   -0.3673 C   0  0  0  0  0  0  0  0  0  0  0  0
    4.1516    0.8776    0.9600 C   0  0  0  0  0  0  0  0  0  0  0  0
    2.3123    2.5700    0.7497 C   0  0  0  0  0  0  0  0  0  0  0  0
    2.5778    4.6525   -0.5008 C   0  0  0  0  0  0  0  0  0  0  0  0
    2.5860    1.0502    0.8474 C   0  0  1  0  0  0  0  0  0  0  0  0
    4.7852   -0.3917    0.6422 N   0  0  0  0  0  0  0  0  0  0  0  0
    3.0743    5.2506   -1.6295 O   0  0  0  0  0  0  0  0  0  0  0  0
    0.2736   -0.0242   -1.6210 H   0  0  0  0  0  0  0  0  0  0  0  0
    0.2254    1.5019   -0.7250 H   0  0  0  0  0  0  0  0  0  0  0  0
   -0.0366   -0.0327    0.1168 H   0  0  0  0  0  0  0  0  0  0  0  0
    6.1122   -1.3133   -0.6840 H   0  0  0  0  0  0  0  0  0  0  0  0
    5.6754    0.3493   -1.1040 H   0  0  0  0  0  0  0  0  0  0  0  0
    4.5317   -0.9810   -1.4155 H   0  0  0  0  0  0  0  0  0  0  0  0
    2.5831    0.7406   -1.3045 H   0  0  0  0  0  0  0  0  0  0  0  0
    2.3303   -0.7183   -0.3846 H   0  0  0  0  0  0  0  0  0  0  0  0
    1.5839   -1.2674    3.3217 H   0  0  0  0  0  0  0  0  0  0  0  0
    1.6652   -1.6379    1.6127 H   0  0  0  0  0  0  0  0  0  0  0  0
    3.5798   -2.4954    3.0445 H   0  0  0  0  0  0  0  0  0  0  0  0
    4.1247   -0.8443    3.2769 H   0  0  0  0  0  0  0  0  0  0  0  0
    0.8889    5.2132    2.3799 H   0  0  0  0  0  0  0  0  0  0  0  0
    1.2372    2.8042    2.6180 H   0  0  0  0  0  0  0  0  0  0  0  0
    1.7339    6.4357    0.3891 H   0  0  0  0  0  0  0  0  0  0  0  0
    2.3344    1.0129    2.9894 H   0  0  0  0  0  0  0  0  0  0  0  0
    0.8565    0.6621    2.1147 H   0  0  0  0  0  0  0  0  0  0  0  0
    3.7696   -2.2545    0.5796 H   0  0  0  0  0  0  0  0  0  0  0  0
    5.2881   -2.2327    1.4666 H   0  0  0  0  0  0  0  0  0  0  0  0
    3.3214    2.7794   -1.1662 H   0  0  0  0  0  0  0  0  0  0  0  0
    4.4213    1.1708    1.9855 H   0  0  0  0  0  0  0  0  0  0  0  0
    4.6304    1.6152    0.3110 H   0  0  0  0  0  0  0  0  0  0  0  0
    2.8686    6.1976   -1.5969 H   0  0  0  0  0  0  0  0  0  0  0  0
  1  3  1  0  0  0  0
  1 20  1  0  0  0  0
  2 21  1  0  0  0  0
  2 16  1  0  0  0  0
  3 25  1  0  0  0  0
  4  5  1  0  0  0  0
  4 26  1  0  0  0  0
  5 28  1  0  0  0  0
  5 29  1  0  0  0  0
  6  7  1  0  0  0  0
  6 30  1  0  0  0  0
  7 31  1  0  0  0  0
  8  6  2  0  0  0  0
  9  4  1  0  0  0  0
  9 33  1  0  0  0  0
 10 36  1  0  0  0  0
 10  5  1  0  0  0  0
 11 13  1  0  0  0  0
 12 38  1  0  0  0  0
 13 15  1  0  0  0  0
 13  7  2  0  0  0  0
 14 11  2  0  0  0  0
 14  8  1  0  0  0  0
 15  3  1  6  0  0  0
 15 12  1  0  0  0  0
 15  9  1  0  0  0  0
 16 12  1  0  0  0  0
 16 10  1  0  0  0  0
 17 40  1  0  0  0  0
 17 14  1  0  0  0  0
 18  1  1  0  0  0  0
 19  1  1  0  0  0  0
 22  2  1  0  0  0  0
 23  2  1  0  0  0  0
 24  3  1  0  0  0  0
 27  4  1  0  0  0  0
 32  8  1  0  0  0  0
 34  9  1  0  0  0  0
 35 10  1  0  0  0  0
 37 11  1  0  0  0  0
 39 12  1  0  0  0  0
M  END
>  <HBA>
2

>  <HBD>
1

>  <TPSA>
23.47

>  <cid>
41049

>  <dipole>
1.2

>  <excitation_energy_1>
4.225

>  <excitation_energy_2>
4.564

>  <excitation_energy_3>
4.755

>  <excitation_energy_4>
4.777

>  <homo_energy>
-5.031

>  <homo_lumo_gap>
5.029

>  <logP>
3.094

>  <lumo_energy>
-0.003

>  <melting_point>
74.97

>  <molecular_refractivity>
76.47

>  <oscillator_strength_1>
0.0381

>  <oscillator_strength_2>
0.015

>  <oscillator_strength_3>
0.0043

>  <oscillator_strength_4>
0.0086

>  <open_babel_can_smiles>
CC[C@]1(CCCCN(C1)C)c1cccc(c1)O

>  <mulliken_charges>
40
1   -0.452966
2   -0.294066
3   -0.272044
4   -0.26532
5   -0.28069
6   -0.139003
7   -0.194096
8   -0.194875
9   -0.296208
10   -0.101254
11   -0.225754
12   -0.150061
13   0.148203
14   0.349799
15   0.032454
16   -0.376202
17   -0.645655
18   0.139673
19   0.156933
20   0.142638
21   0.140982
22   0.144901
23   0.120525
24   0.136524
25   0.143242
26   0.130854
27   0.134652
28   0.135488
29   0.141053
30   0.127664
31   0.123961
32   0.114823
33   0.132819
34   0.138586
35   0.107607
36   0.127907
37   0.135353
38   0.133708
39   0.142086
40   0.405759

>  <lowdin_charges>
40
1   -0.449844
2   -0.353393
3   -0.274136
4   -0.28071
5   -0.283798
6   -0.147076
7   -0.197704
8   -0.217289
9   -0.282318
10   -0.196597
11   -0.200969
12   -0.203833
13   0.011787
14   0.102063
15   -0.008608
16   -0.189432
17   -0.380913
18   0.149636
19   0.153649
20   0.146847
21   0.14277
22   0.149096
23   0.121622
24   0.144542
25   0.144774
26   0.145567
27   0.141504
28   0.149663
29   0.146316
30   0.158263
31   0.160112
32   0.149991
33   0.141958
34   0.143353
35   0.116808
36   0.135417
37   0.164392
38   0.137662
39   0.154097
40   0.354731

$$$$

