PCCDB-ID:  13409
public computational chemistry database (PCCDB) project, http://pccdb.org

 25 27  0  0  1  0  0  0  0  0999 V2000
    0.9116    0.0474    0.1330 C   0  0  0  0  0  0  0  0  0  0  0  0
    2.9286    1.1252   -0.8892 C   0  0  0  0  0  0  0  0  0  0  0  0
    2.8006   -2.0112   -1.6228 C   0  0  0  0  0  0  0  0  0  0  0  0
    2.7328   -2.2273    0.9995 C   0  0  0  0  0  0  0  0  0  0  0  0
    3.2376   -1.2282    2.0431 C   0  0  1  0  0  0  0  0  0  0  0  0
    4.4543   -0.5235    1.4323 C   0  0  2  0  0  0  0  0  0  0  0  0
    3.0809    0.1482    1.4690 C   0  0  1  0  0  0  0  0  0  0  0  0
    4.5582   -1.0969    0.0538 C   0  0  0  0  0  0  0  0  0  0  0  0
    2.4463    0.0240    0.0704 C   0  0  0  0  0  0  0  0  0  0  0  0
    3.0686   -1.3892   -0.2683 C   0  0  1  0  0  0  0  0  0  0  0  0
    5.5323   -1.3066   -0.6347 O   0  0  0  0  0  0  0  0  0  0  0  0
    0.5644    1.0425    0.4378 H   0  0  0  0  0  0  0  0  0  0  0  0
    0.5060   -0.6715    0.8506 H   0  0  0  0  0  0  0  0  0  0  0  0
    0.4719   -0.1652   -0.8488 H   0  0  0  0  0  0  0  0  0  0  0  0
    2.5951    2.1094   -0.5387 H   0  0  0  0  0  0  0  0  0  0  0  0
    2.5193    0.9798   -1.8955 H   0  0  0  0  0  0  0  0  0  0  0  0
    4.0201    1.1535   -0.9732 H   0  0  0  0  0  0  0  0  0  0  0  0
    3.3348   -2.9626   -1.7189 H   0  0  0  0  0  0  0  0  0  0  0  0
    3.1501   -1.3630   -2.4330 H   0  0  0  0  0  0  0  0  0  0  0  0
    1.7326   -2.2053   -1.7734 H   0  0  0  0  0  0  0  0  0  0  0  0
    1.6676   -2.4606    1.0988 H   0  0  0  0  0  0  0  0  0  0  0  0
    3.2909   -3.1718    1.0147 H   0  0  0  0  0  0  0  0  0  0  0  0
    3.1959   -1.4174    3.1106 H   0  0  0  0  0  0  0  0  0  0  0  0
    5.3080   -0.1887    2.0084 H   0  0  0  0  0  0  0  0  0  0  0  0
    2.9170    1.0203    2.0954 H   0  0  0  0  0  0  0  0  0  0  0  0
  1 12  1  0  0  0  0
  1 13  1  0  0  0  0
  2 15  1  0  0  0  0
  2  9  1  0  0  0  0
  4 22  1  0  0  0  0
  4 21  1  0  0  0  0
  4  5  1  0  0  0  0
  5 23  1  1  0  0  0
  6  7  1  0  0  0  0
  6 24  1  1  0  0  0
  6  5  1  0  0  0  0
  7  5  1  0  0  0  0
  7 25  1  1  0  0  0
  8  6  1  0  0  0  0
  9  1  1  0  0  0  0
  9  7  1  0  0  0  0
 10  3  1  6  0  0  0
 10  8  1  0  0  0  0
 10  9  1  0  0  0  0
 10  4  1  0  0  0  0
 11  8  2  0  0  0  0
 14  1  1  0  0  0  0
 16  2  1  0  0  0  0
 17  2  1  0  0  0  0
 18  3  1  0  0  0  0
 19  3  1  0  0  0  0
 20  3  1  0  0  0  0
M  END
>  <HBA>
1

>  <HBD>
0

>  <TPSA>
17.07

>  <cid>
13409

>  <dipole>
3.22

>  <excitation_energy_1>
4.362

>  <excitation_energy_2>
5.845

>  <excitation_energy_3>
6.105

>  <excitation_energy_4>
6.283

>  <homo_energy>
-6.215

>  <homo_lumo_gap>
6.114

>  <logP>
1.867

>  <lumo_energy>
-0.101

>  <melting_point>
97.28

>  <molecular_refractivity>
43.52

>  <oscillator_strength_1>
0.0001

>  <oscillator_strength_2>
0.0022

>  <oscillator_strength_3>
0.0034

>  <oscillator_strength_4>
0.0057

>  <open_babel_can_smiles>
O=C1[C@@H]2[C@H]3[C@@H]2C([C@]1(C)C3)(C)C

>  <mulliken_charges>
25
1   -0.462486
2   -0.465137
3   -0.476345
4   -0.26149
5   -0.139259
6   -0.192554
7   -0.142509
8   0.476394
9   0.126182
10   -0.066777
11   -0.477753
12   0.14371
13   0.148121
14   0.147545
15   0.141451
16   0.148166
17   0.162285
18   0.157518
19   0.159314
20   0.141894
21   0.145078
22   0.148402
23   0.146189
24   0.149954
25   0.142109

>  <lowdin_charges>
25
1   -0.446142
2   -0.443277
3   -0.439032
4   -0.268162
5   -0.145872
6   -0.199161
7   -0.149734
8   0.158737
9   0.01774
10   -0.031661
11   -0.233493
12   0.151431
13   0.152629
14   0.151614
15   0.149981
16   0.151517
17   0.157785
18   0.161091
19   0.160901
20   0.149438
21   0.146392
22   0.151161
23   0.161774
24   0.172097
25   0.162246

$$$$

