PCCDB-ID:  7769
public computational chemistry database (PCCDB) project, http://pccdb.org

 28 27  0  0  0  0  0  0  0  0999 V2000
    2.1214    0.2933   -2.1666 C   0  0  0  0  0  0  0  0  0  0  0  0
    1.1247   -0.4886    0.0501 C   0  0  0  0  0  0  0  0  0  0  0  0
    8.6530   -0.9393   -4.1467 C   0  0  0  0  0  0  0  0  0  0  0  0
    9.7793   -3.2266   -4.0134 C   0  0  0  0  0  0  0  0  0  0  0  0
    2.3845   -0.2264   -0.7586 C   0  0  0  0  0  0  0  0  0  0  0  0
    8.4742   -2.4459   -4.0070 C   0  0  0  0  0  0  0  0  0  0  0  0
    4.3876   -1.4648   -1.0438 C   0  0  0  0  0  0  0  0  0  0  0  0
    6.5256   -2.6058   -2.6627 C   0  0  0  0  0  0  0  0  0  0  0  0
    5.1109   -0.5072   -1.0947 O   0  0  0  0  0  0  0  0  0  0  0  0
    5.7523   -2.3450   -3.5440 O   0  0  0  0  0  0  0  0  0  0  0  0
    3.0756   -1.5200   -0.8473 O   0  0  0  0  0  0  0  0  0  0  0  0
    7.8465   -2.7355   -2.7114 O   0  0  0  0  0  0  0  0  0  0  0  0
    4.7790   -2.7874   -1.1808 O   0  0  0  0  0  0  0  0  0  0  0  0
    6.1989   -2.8458   -1.3373 O   0  0  0  0  0  0  0  0  0  0  0  0
    1.5995    1.2552   -2.1156 H   0  0  0  0  0  0  0  0  0  0  0  0
    1.4977   -0.4111   -2.7274 H   0  0  0  0  0  0  0  0  0  0  0  0
    3.0612    0.4408   -2.7057 H   0  0  0  0  0  0  0  0  0  0  0  0
    0.5711    0.4475    0.1798 H   0  0  0  0  0  0  0  0  0  0  0  0
    1.3691   -0.8866    1.0395 H   0  0  0  0  0  0  0  0  0  0  0  0
    0.4750   -1.2056   -0.4629 H   0  0  0  0  0  0  0  0  0  0  0  0
    9.1303   -0.7085   -5.1053 H   0  0  0  0  0  0  0  0  0  0  0  0
    9.2853   -0.5504   -3.3414 H   0  0  0  0  0  0  0  0  0  0  0  0
    7.6855   -0.4309   -4.1129 H   0  0  0  0  0  0  0  0  0  0  0  0
   10.2914   -3.0782   -4.9698 H   0  0  0  0  0  0  0  0  0  0  0  0
    9.5954   -4.2969   -3.8802 H   0  0  0  0  0  0  0  0  0  0  0  0
   10.4401   -2.8845   -3.2099 H   0  0  0  0  0  0  0  0  0  0  0  0
    3.0561    0.4540   -0.2277 H   0  0  0  0  0  0  0  0  0  0  0  0
    7.7950   -2.8175   -4.7794 H   0  0  0  0  0  0  0  0  0  0  0  0
  1 15  1  0  0  0  0
  1  5  1  0  0  0  0
  2 18  1  0  0  0  0
  2 19  1  0  0  0  0
  3 23  1  0  0  0  0
  3  6  1  0  0  0  0
  3 22  1  0  0  0  0
  4  6  1  0  0  0  0
  4 25  1  0  0  0  0
  4 26  1  0  0  0  0
  5 27  1  0  0  0  0
  5  2  1  0  0  0  0
  6 12  1  0  0  0  0
  7 11  1  0  0  0  0
  8 14  1  0  0  0  0
  9  7  2  0  0  0  0
 10  8  2  0  0  0  0
 11  5  1  0  0  0  0
 12  8  1  0  0  0  0
 13  7  1  0  0  0  0
 14 13  1  0  0  0  0
 16  1  1  0  0  0  0
 17  1  1  0  0  0  0
 20  2  1  0  0  0  0
 21  3  1  0  0  0  0
 24  4  1  0  0  0  0
 28  6  1  0  0  0  0
M  END
>  <HBA>
6

>  <HBD>
0

>  <TPSA>
71.06

>  <cid>
7769

>  <dipole>
1.49

>  <excitation_energy_1>
6.481

>  <excitation_energy_2>
6.541

>  <excitation_energy_3>
6.789

>  <excitation_energy_4>
6.986

>  <homo_energy>
-8.071

>  <homo_lumo_gap>
7.81

>  <logP>
2.025

>  <lumo_energy>
-0.261

>  <melting_point>
4.45

>  <molecular_refractivity>
46.09

>  <oscillator_strength_1>
0.0004

>  <oscillator_strength_2>
0.0023

>  <oscillator_strength_3>
0.0004

>  <oscillator_strength_4>
0.0006

>  <open_babel_can_smiles>
CC(OC(=O)OOC(=O)OC(C)C)C

>  <mulliken_charges>
28
1   -0.459997
2   -0.453764
3   -0.459677
4   -0.453826
5   0.11906
6   0.119139
7   0.843108
8   0.84298
9   -0.466356
10   -0.466215
11   -0.464897
12   -0.464716
13   -0.264617
14   -0.264566
15   0.152097
16   0.161307
17   0.181674
18   0.154486
19   0.164864
20   0.163491
21   0.152039
22   0.161311
23   0.181396
24   0.154407
25   0.164775
26   0.16343
27   0.169656
28   0.16941

>  <lowdin_charges>
28
1   -0.455003
2   -0.447211
3   -0.454421
4   -0.445783
5   0.01949
6   0.019855
7   0.237788
8   0.23872
9   -0.258529
10   -0.25856
11   -0.170815
12   -0.170659
13   -0.061649
14   -0.061989
15   0.159875
16   0.16087
17   0.170696
18   0.160634
19   0.162299
20   0.161987
21   0.159958
22   0.160508
23   0.170264
24   0.160396
25   0.161109
26   0.161541
27   0.159607
28   0.159023

$$$$

