PCCDB-ID:  7813
public computational chemistry database (PCCDB) project, http://pccdb.org

 17 17  0  0  0  0  0  0  0  0999 V2000
    1.0124   -0.1009    0.0808 C   0  0  0  0  0  0  0  0  0  0  0  0
    3.2436   -1.3092   -0.0733 C   0  0  0  0  0  0  0  0  0  0  0  0
    3.2540    1.0820   -0.0617 C   0  0  0  0  0  0  0  0  0  0  0  0
    4.6342   -1.3231   -0.1706 C   0  0  0  0  0  0  0  0  0  0  0  0
    4.6419    1.0851   -0.1580 C   0  0  0  0  0  0  0  0  0  0  0  0
    2.5209   -0.1125   -0.0173 C   0  0  0  0  0  0  0  0  0  0  0  0
    5.3582   -0.1226   -0.2146 C   0  0  0  0  0  0  0  0  0  0  0  0
    6.7599   -0.1252   -0.2487 N   0  0  0  0  0  0  0  0  0  0  0  0
    0.6134   -1.1162    0.1763 H   0  0  0  0  0  0  0  0  0  0  0  0
    0.5500    0.3524   -0.8059 H   0  0  0  0  0  0  0  0  0  0  0  0
    0.6672    0.4733    0.9500 H   0  0  0  0  0  0  0  0  0  0  0  0
    2.7093   -2.2566   -0.0423 H   0  0  0  0  0  0  0  0  0  0  0  0
    2.7276    2.0338   -0.0214 H   0  0  0  0  0  0  0  0  0  0  0  0
    5.1653   -2.2721   -0.2082 H   0  0  0  0  0  0  0  0  0  0  0  0
    5.1818    2.0296   -0.1860 H   0  0  0  0  0  0  0  0  0  0  0  0
    7.1662   -0.9595   -0.6554 H   0  0  0  0  0  0  0  0  0  0  0  0
    7.1695    0.7081   -0.6540 H   0  0  0  0  0  0  0  0  0  0  0  0
  1  9  1  0  0  0  0
  1 11  1  0  0  0  0
  2 12  1  0  0  0  0
  2  6  2  0  0  0  0
  3 13  1  0  0  0  0
  3  6  1  0  0  0  0
  4  2  1  0  0  0  0
  5  3  2  0  0  0  0
  6  1  1  0  0  0  0
  7  4  2  0  0  0  0
  7  5  1  0  0  0  0
  8  7  1  0  0  0  0
 10  1  1  0  0  0  0
 14  4  1  0  0  0  0
 15  5  1  0  0  0  0
 16  8  1  0  0  0  0
 17  8  1  0  0  0  0
M  END
>  <HBA>
1

>  <HBD>
1

>  <TPSA>
26.02

>  <cid>
7813

>  <dipole>
1.54

>  <excitation_energy_1>
4.596

>  <excitation_energy_2>
4.648

>  <excitation_energy_3>
5.217

>  <excitation_energy_4>
5.335

>  <homo_energy>
-5.227

>  <homo_lumo_gap>
5.494

>  <logP>
2.158

>  <lumo_energy>
0.267

>  <melting_point>
57.31

>  <molecular_refractivity>
35.81

>  <oscillator_strength_1>
0.0343

>  <oscillator_strength_2>
0.0045

>  <oscillator_strength_3>
0.0195

>  <oscillator_strength_4>
0.1449

>  <open_babel_can_smiles>
Cc1ccc(cc1)N

>  <mulliken_charges>
17
1   -0.529983
2   -0.191213
3   -0.185513
4   -0.169967
5   -0.16986
6   0.175828
7   0.301891
8   -0.786733
9   0.150253
10   0.156032
11   0.156067
12   0.116787
13   0.117089
14   0.112848
15   0.113535
16   0.316541
17   0.316398

>  <lowdin_charges>
17
1   -0.442198
2   -0.158732
3   -0.155917
4   -0.201623
5   -0.198611
6   -0.025582
7   0.05687
8   -0.495471
9   0.153493
10   0.156478
11   0.156944
12   0.152235
13   0.152458
14   0.150952
15   0.151061
16   0.273838
17   0.273806

$$$$

