PCCDB-ID:  67495
public computational chemistry database (PCCDB) project, http://pccdb.org

 24 26  0  0  0  0  0  0  0  0999 V2000
    3.5223    0.8219   -0.5610 C   0  0  0  0  0  0  0  0  0  0  0  0
   -3.5213    0.8240   -0.5619 C   0  0  0  0  0  0  0  0  0  0  0  0
    3.6229   -0.5657   -0.6744 C   0  0  0  0  0  0  0  0  0  0  0  0
   -3.6218   -0.5635   -0.6776 C   0  0  0  0  0  0  0  0  0  0  0  0
    2.3450    1.3956   -0.0795 C   0  0  0  0  0  0  0  0  0  0  0  0
   -2.3438    1.3970   -0.0802 C   0  0  0  0  0  0  0  0  0  0  0  0
    2.5422   -1.3741   -0.3232 C   0  0  0  0  0  0  0  0  0  0  0  0
   -2.5413   -1.3724   -0.3270 C   0  0  0  0  0  0  0  0  0  0  0  0
    0.0005    1.1918    0.9010 C   0  0  0  0  0  0  0  0  0  0  0  0
    1.2624    0.6009    0.3091 C   0  0  0  0  0  0  0  0  0  0  0  0
   -1.2615    0.6018    0.3079 C   0  0  0  0  0  0  0  0  0  0  0  0
    1.3685   -0.7921    0.1667 C   0  0  0  0  0  0  0  0  0  0  0  0
   -1.3682   -0.7911    0.1654 C   0  0  0  0  0  0  0  0  0  0  0  0
   -0.0005   -1.8440    0.6353 S   0  0  0  0  0  0  0  0  0  0  0  0
    4.3563    1.4559   -0.8487 H   0  0  0  0  0  0  0  0  0  0  0  0
   -4.3558    1.4583   -0.8474 H   0  0  0  0  0  0  0  0  0  0  0  0
    4.5342   -1.0204   -1.0530 H   0  0  0  0  0  0  0  0  0  0  0  0
   -4.5330   -1.0176   -1.0571 H   0  0  0  0  0  0  0  0  0  0  0  0
    2.2668    2.4764    0.0141 H   0  0  0  0  0  0  0  0  0  0  0  0
   -2.2657    2.4778    0.0146 H   0  0  0  0  0  0  0  0  0  0  0  0
    2.6012   -2.4525   -0.4401 H   0  0  0  0  0  0  0  0  0  0  0  0
   -2.6004   -2.4507   -0.4448 H   0  0  0  0  0  0  0  0  0  0  0  0
    0.0008    2.2810    0.7900 H   0  0  0  0  0  0  0  0  0  0  0  0
   -0.0004    0.9839    1.9844 H   0  0  0  0  0  0  0  0  0  0  0  0
  1  5  1  0  0  0  0
  2  6  1  0  0  0  0
  3  1  2  0  0  0  0
  3  7  1  0  0  0  0
  4  2  2  0  0  0  0
  4  8  1  0  0  0  0
  5 19  1  0  0  0  0
  5 10  2  0  0  0  0
  6 20  1  0  0  0  0
  6 11  2  0  0  0  0
  7 12  2  0  0  0  0
  8 13  2  0  0  0  0
  9 24  1  0  0  0  0
 10  9  1  0  0  0  0
 11  9  1  0  0  0  0
 12 10  1  0  0  0  0
 12 14  1  0  0  0  0
 13 11  1  0  0  0  0
 13 14  1  0  0  0  0
 15  1  1  0  0  0  0
 16  2  1  0  0  0  0
 17  3  1  0  0  0  0
 18  4  1  0  0  0  0
 21  7  1  0  0  0  0
 22  8  1  0  0  0  0
 23  9  1  0  0  0  0
M  END
>  <HBA>
1

>  <HBD>
0

>  <TPSA>
25.3

>  <cid>
67495

>  <dipole>
1.43

>  <excitation_energy_1>
4.456

>  <excitation_energy_2>
4.544

>  <excitation_energy_3>
4.792

>  <excitation_energy_4>
4.88

>  <homo_energy>
-5.655

>  <homo_lumo_gap>
5.407

>  <logP>
3.742

>  <lumo_energy>
-0.248

>  <melting_point>
80.12

>  <molecular_refractivity>
60.02

>  <oscillator_strength_1>
0.0063

>  <oscillator_strength_2>
0.1346

>  <oscillator_strength_3>
0.0241

>  <oscillator_strength_4>
0.0392

>  <open_babel_can_smiles>
c1ccc2c(c1)Sc1c(C2)cccc1

>  <mulliken_charges>
24
1   -0.132589
2   -0.132567
3   -0.120211
4   -0.120216
5   -0.175147
6   -0.175193
7   -0.162816
8   -0.162765
9   -0.445264
10   0.163376
11   0.16334
12   -0.127851
13   -0.127891
14   0.14936
15   0.131516
16   0.131514
17   0.133042
18   0.133039
19   0.126688
20   0.126679
21   0.14421
22   0.144207
23   0.152231
24   0.183306

>  <lowdin_charges>
24
1   -0.159907
2   -0.159891
3   -0.155335
4   -0.155348
5   -0.15895
6   -0.158962
7   -0.158335
8   -0.158333
9   -0.265378
10   -0.008419
11   -0.008403
12   -0.127064
13   -0.127098
14   0.196467
15   0.160232
16   0.160227
17   0.160687
18   0.160684
19   0.154966
20   0.154968
21   0.164294
22   0.164298
23   0.155313
24   0.169287

$$$$

