PCCDB-ID:  31139
public computational chemistry database (PCCDB) project, http://pccdb.org

 23 22  0  0  0  0  0  0  0  0999 V2000
    1.0908    0.3853    1.5499 C   0  0  0  0  0  0  0  0  0  0  0  0
    5.2477   -0.2834   -0.3820 C   0  0  0  0  0  0  0  0  0  0  0  0
    7.8623    2.4431    2.2930 C   0  0  0  0  0  0  0  0  0  0  0  0
    2.5917    0.0868    1.4856 C   0  0  0  0  0  0  0  0  0  0  0  0
    3.3615    1.1189    0.6323 C   0  0  0  0  0  0  0  0  0  0  0  0
    5.7105    1.5869    1.2615 C   0  0  0  0  0  0  0  0  0  0  0  0
    4.8468    0.8389    0.5382 C   0  0  0  0  0  0  0  0  0  0  0  0
    7.1872    1.4648    1.3393 C   0  0  0  0  0  0  0  0  0  0  0  0
    7.8577    0.6553    0.7093 O   0  0  0  0  0  0  0  0  0  0  0  0
    0.5666   -0.3536    2.1662 H   0  0  0  0  0  0  0  0  0  0  0  0
    0.6391    0.3676    0.5505 H   0  0  0  0  0  0  0  0  0  0  0  0
    0.9004    1.3754    1.9819 H   0  0  0  0  0  0  0  0  0  0  0  0
    5.0006   -0.0112   -1.4182 H   0  0  0  0  0  0  0  0  0  0  0  0
    4.6723   -1.1908   -0.1575 H   0  0  0  0  0  0  0  0  0  0  0  0
    6.3122   -0.4995   -0.3196 H   0  0  0  0  0  0  0  0  0  0  0  0
    7.6193    3.4788    2.0239 H   0  0  0  0  0  0  0  0  0  0  0  0
    8.9438    2.2996    2.2599 H   0  0  0  0  0  0  0  0  0  0  0  0
    7.5040    2.2873    3.3189 H   0  0  0  0  0  0  0  0  0  0  0  0
    2.7467   -0.9206    1.0793 H   0  0  0  0  0  0  0  0  0  0  0  0
    3.0144    0.0795    2.4987 H   0  0  0  0  0  0  0  0  0  0  0  0
    3.1953    2.1180    1.0544 H   0  0  0  0  0  0  0  0  0  0  0  0
    2.9305    1.1259   -0.3800 H   0  0  0  0  0  0  0  0  0  0  0  0
    5.2910    2.3816    1.8781 H   0  0  0  0  0  0  0  0  0  0  0  0
  1 12  1  0  0  0  0
  1 10  1  0  0  0  0
  2 15  1  0  0  0  0
  2 14  1  0  0  0  0
  2  7  1  0  0  0  0
  3 18  1  0  0  0  0
  4  1  1  0  0  0  0
  4 20  1  0  0  0  0
  5 21  1  0  0  0  0
  5  4  1  0  0  0  0
  6  8  1  0  0  0  0
  6 23  1  0  0  0  0
  7  5  1  0  0  0  0
  7  6  2  0  0  0  0
  8  3  1  0  0  0  0
  9  8  2  0  0  0  0
 11  1  1  0  0  0  0
 13  2  1  0  0  0  0
 16  3  1  0  0  0  0
 17  3  1  0  0  0  0
 19  4  1  0  0  0  0
 22  5  1  0  0  0  0
M  END
>  <HBA>
1

>  <HBD>
0

>  <TPSA>
17.07

>  <cid>
31139

>  <dipole>
2.96

>  <excitation_energy_1>
3.619

>  <excitation_energy_2>
5.395

>  <excitation_energy_3>
5.959

>  <excitation_energy_4>
6.334

>  <homo_energy>
-6.365

>  <homo_lumo_gap>
5.151

>  <logP>
2.322

>  <lumo_energy>
-1.214

>  <melting_point>
6.71

>  <molecular_refractivity>
40.3

>  <oscillator_strength_1>
0.0004

>  <oscillator_strength_2>
0.4441

>  <oscillator_strength_3>
0.0239

>  <oscillator_strength_4>
0.0033

>  <open_babel_can_smiles>
CCC/C(=C/C(=O)C)/C

>  <mulliken_charges>
23
1   -0.442279
2   -0.539456
3   -0.536397
4   -0.251951
5   -0.326341
6   -0.252258
7   0.214553
8   0.443318
9   -0.466922
10   0.148176
11   0.145122
12   0.144695
13   0.158641
14   0.15556
15   0.21508
16   0.164762
17   0.175148
18   0.166429
19   0.141894
20   0.142799
21   0.142818
22   0.141979
23   0.11463

>  <lowdin_charges>
23
1   -0.444156
2   -0.456544
3   -0.47116
4   -0.267996
5   -0.273622
6   -0.247888
7   0.063903
8   0.160679
9   -0.257504
10   0.154284
11   0.147729
12   0.147513
13   0.162462
14   0.159087
15   0.18654
16   0.165447
17   0.168414
18   0.166755
19   0.142906
20   0.144474
21   0.147801
22   0.148414
23   0.152464

$$$$

