PCCDB-ID:  68843
public computational chemistry database (PCCDB) project, http://pccdb.org

 23 23  0  0  1  0  0  0  0  0999 V2000
    0.9182    0.0051   -0.0721 C   0  0  0  0  0  0  0  0  0  0  0  0
    4.8432    2.5231    1.3977 C   0  0  0  0  0  0  0  0  0  0  0  0
    4.5057   -1.3136    0.7376 C   0  0  0  0  0  0  0  0  0  0  0  0
    2.9730   -1.3271    0.6409 C   0  0  0  0  0  0  0  0  0  0  0  0
    5.0051   -0.0230    1.4037 C   0  0  0  0  0  0  0  0  0  0  0  0
    2.4456   -0.0448   -0.0337 C   0  0  2  0  0  0  0  0  0  0  0  0
    4.4246    1.2247    0.7080 C   0  0  1  0  0  0  0  0  0  0  0  0
    2.9581    1.1857    0.5905 N   0  0  0  0  0  0  0  0  0  0  0  0
    0.5090   -0.8623   -0.6022 H   0  0  0  0  0  0  0  0  0  0  0  0
    0.5762    0.9165   -0.5724 H   0  0  0  0  0  0  0  0  0  0  0  0
    0.5019   -0.0013    0.9444 H   0  0  0  0  0  0  0  0  0  0  0  0
    5.9343    2.6177    1.4294 H   0  0  0  0  0  0  0  0  0  0  0  0
    4.4783    2.5509    2.4336 H   0  0  0  0  0  0  0  0  0  0  0  0
    4.4302    3.3888    0.8704 H   0  0  0  0  0  0  0  0  0  0  0  0
    4.9316   -1.3851   -0.2743 H   0  0  0  0  0  0  0  0  0  0  0  0
    4.8640   -2.1932    1.2871 H   0  0  0  0  0  0  0  0  0  0  0  0
    2.5390   -1.3991    1.6505 H   0  0  0  0  0  0  0  0  0  0  0  0
    2.6316   -2.2129    0.0879 H   0  0  0  0  0  0  0  0  0  0  0  0
    6.1030    0.0144    1.3929 H   0  0  0  0  0  0  0  0  0  0  0  0
    4.6993   -0.0110    2.4618 H   0  0  0  0  0  0  0  0  0  0  0  0
    2.8174   -0.0354   -1.0706 H   0  0  0  0  0  0  0  0  0  0  0  0
    4.8108    1.2426   -0.3235 H   0  0  0  0  0  0  0  0  0  0  0  0
    2.5551    1.2666    1.5270 H   0  0  0  0  0  0  0  0  0  0  0  0
  1  6  1  0  0  0  0
  1 11  1  0  0  0  0
  2 12  1  0  0  0  0
  2 13  1  0  0  0  0
  3 16  1  0  0  0  0
  3  5  1  0  0  0  0
  4  3  1  0  0  0  0
  4 17  1  0  0  0  0
  5 20  1  0  0  0  0
  6 21  1  6  0  0  0
  6  8  1  0  0  0  0
  6  4  1  0  0  0  0
  7 22  1  6  0  0  0
  7  2  1  0  0  0  0
  7  5  1  0  0  0  0
  8  7  1  0  0  0  0
  8 23  1  0  0  0  0
  9  1  1  0  0  0  0
 10  1  1  0  0  0  0
 14  2  1  0  0  0  0
 15  3  1  0  0  0  0
 18  4  1  0  0  0  0
 19  5  1  0  0  0  0
M  END
>  <HBA>
1

>  <HBD>
1

>  <TPSA>
12.03

>  <cid>
68843

>  <dipole>
0.97

>  <excitation_energy_1>
5.419

>  <excitation_energy_2>
5.497

>  <excitation_energy_3>
5.829

>  <excitation_energy_4>
5.852

>  <homo_energy>
-5.668

>  <homo_lumo_gap>
7.987

>  <logP>
1.866

>  <lumo_energy>
2.318

>  <melting_point>
22.53

>  <molecular_refractivity>
40.37

>  <oscillator_strength_1>
0.0183

>  <oscillator_strength_2>
0.013

>  <oscillator_strength_3>
0.0005

>  <oscillator_strength_4>
0.0051

>  <open_babel_can_smiles>
C[C@@H]1CCC[C@@H](N1)C

>  <mulliken_charges>
23
1   -0.448784
2   -0.448942
3   -0.266825
4   -0.253455
5   -0.253534
6   0.041347
7   0.041512
8   -0.542597
9   0.141023
10   0.15679
11   0.132357
12   0.141052
13   0.132346
14   0.156804
15   0.127826
16   0.131372
17   0.117839
18   0.126211
19   0.126192
20   0.117778
21   0.124022
22   0.124015
23   0.275653

>  <lowdin_charges>
23
1   -0.446978
2   -0.44384
3   -0.279448
4   -0.293674
5   -0.28957
6   -0.062945
7   -0.063109
8   -0.360538
9   0.151325
10   0.157883
11   0.142222
12   0.148676
13   0.141824
14   0.158109
15   0.137002
16   0.144294
17   0.133181
18   0.143472
19   0.140713
20   0.132305
21   0.133204
22   0.133477
23   0.242415

$$$$

