PCCDB-ID:  8820
public computational chemistry database (PCCDB) project, http://pccdb.org

 12 11  0  0  1  0  0  0  0  0999 V2000
    1.0278    0.5392   -0.3566 C   0  0  0  0  0  0  0  0  0  0  0  0
    0.3220   -0.5332   -1.0547 C   0  0  0  0  0  0  0  0  0  0  0  0
    2.5337    0.2874   -0.2533 C   0  0  1  0  0  0  0  0  0  0  0  0
   -0.1832   -1.4291   -1.5945 N   0  0  0  0  0  0  0  0  0  0  0  0
    2.8265    2.5151    0.0586 N   0  0  0  0  0  0  0  0  0  0  0  0
    3.3945    1.2061   -0.0607 N   0  0  0  0  0  0  0  0  0  0  0  0
    2.9859   -0.9861   -0.3310 O   0  0  0  0  0  0  0  0  0  0  0  0
    0.5899    0.6464    0.6457 H   0  0  0  0  0  0  0  0  0  0  0  0
    0.8913    1.5037   -0.8611 H   0  0  0  0  0  0  0  0  0  0  0  0
    2.4332    2.6161    0.9979 H   0  0  0  0  0  0  0  0  0  0  0  0
    3.6258    3.1448    0.0374 H   0  0  0  0  0  0  0  0  0  0  0  0
    2.2867   -1.5687   -0.6734 H   0  0  0  0  0  0  0  0  0  0  0  0
  1  3  1  0  0  0  0
  1  8  1  0  0  0  0
  2  1  1  0  0  0  0
  3  7  1  1  0  0  0
  3  6  1  0  0  0  0
  4  2  3  0  0  0  0
  5 10  1  0  0  0  0
  6  5  1  0  0  0  0
  9  1  1  0  0  0  0
 11  5  1  0  0  0  0
 12  7  1  0  0  0  0
M  RAD  2   3   2   6   2
M  END
>  <HBA>
4

>  <HBD>
2

>  <TPSA>
78.91

>  <cid>
8820

>  <dipole>
3.54

>  <excitation_energy_1>
5.154

>  <excitation_energy_2>
5.226

>  <excitation_energy_3>
5.783

>  <excitation_energy_4>
5.865

>  <homo_energy>
-6.278

>  <homo_lumo_gap>
6.237

>  <logP>
-0.019

>  <lumo_energy>
-0.041

>  <melting_point>
112.15

>  <molecular_refractivity>
21.99

>  <oscillator_strength_1>
0.0044

>  <oscillator_strength_2>
0.0106

>  <oscillator_strength_3>
0.0504

>  <oscillator_strength_4>
0.0081

>  <open_babel_can_smiles>
N[N][C](CC#N)O

>  <mulliken_charges>
12
1   -0.424887
2   0.335813
3   0.526484
4   -0.465326
5   -0.599419
6   -0.336659
7   -0.581011
8   0.219394
9   0.251577
10   0.310519
11   0.335013
12   0.428504

>  <lowdin_charges>
12
1   -0.309965
2   -0.024474
3   0.11324
4   -0.114102
5   -0.463219
6   -0.158178
7   -0.352097
8   0.197537
9   0.214303
10   0.25525
11   0.272656
12   0.36905

$$$$

