PCCDB-ID:  7558
public computational chemistry database (PCCDB) project, http://pccdb.org

 32 32  0  0  1  0  0  0  0  0999 V2000
    2.4765    0.5746   -0.2033 C   0  0  0  0  0  0  0  0  0  0  0  0
   -0.0629   -0.1526    1.3495 C   0  0  0  0  0  0  0  0  0  0  0  0
   -0.3583    2.6418   -5.1902 C   0  0  0  0  0  0  0  0  0  0  0  0
   -0.5471    3.0582   -3.7233 C   0  0  0  0  0  0  0  0  0  0  0  0
    0.3719    1.2945   -5.3011 C   0  0  0  0  0  0  0  0  0  0  0  0
    0.7891    3.0665   -2.9603 C   0  0  0  0  0  0  0  0  0  0  0  0
    1.7067    1.3218   -4.5382 C   0  0  0  0  0  0  0  0  0  0  0  0
    0.9142    0.5891   -2.2191 C   0  0  0  0  0  0  0  0  0  0  0  0
    1.0281    0.7212   -0.6872 C   0  0  1  0  0  0  0  0  0  0  0  0
    1.5526    1.7227   -3.0524 C   0  0  0  0  0  0  0  0  0  0  0  0
    0.1923   -0.3250   -0.0773 N   0  0  0  0  0  0  0  0  0  0  0  0
    3.1227    1.3416   -0.6422 H   0  0  0  0  0  0  0  0  0  0  0  0
    2.8655   -0.4126   -0.4780 H   0  0  0  0  0  0  0  0  0  0  0  0
    2.5501    0.6769    0.8844 H   0  0  0  0  0  0  0  0  0  0  0  0
   -0.8162   -0.8807    1.6684 H   0  0  0  0  0  0  0  0  0  0  0  0
   -0.4207    0.8578    1.6271 H   0  0  0  0  0  0  0  0  0  0  0  0
    0.8449   -0.3521    1.9282 H   0  0  0  0  0  0  0  0  0  0  0  0
    0.2316    3.4128   -5.7087 H   0  0  0  0  0  0  0  0  0  0  0  0
   -1.3284    2.5961   -5.7018 H   0  0  0  0  0  0  0  0  0  0  0  0
   -1.2526    2.3688   -3.2384 H   0  0  0  0  0  0  0  0  0  0  0  0
   -1.0085    4.0527   -3.6686 H   0  0  0  0  0  0  0  0  0  0  0  0
    0.5522    1.0472   -6.3553 H   0  0  0  0  0  0  0  0  0  0  0  0
   -0.2706    0.4959   -4.9043 H   0  0  0  0  0  0  0  0  0  0  0  0
    0.6223    3.3429   -1.9118 H   0  0  0  0  0  0  0  0  0  0  0  0
    1.4280    3.8544   -3.3855 H   0  0  0  0  0  0  0  0  0  0  0  0
    2.3726    2.0480   -5.0274 H   0  0  0  0  0  0  0  0  0  0  0  0
    2.2058    0.3463   -4.6103 H   0  0  0  0  0  0  0  0  0  0  0  0
   -0.1516    0.5043   -2.4757 H   0  0  0  0  0  0  0  0  0  0  0  0
    1.3680   -0.3699   -2.5045 H   0  0  0  0  0  0  0  0  0  0  0  0
    0.6706    1.7272   -0.3875 H   0  0  0  0  0  0  0  0  0  0  0  0
    2.5653    1.8900   -2.6616 H   0  0  0  0  0  0  0  0  0  0  0  0
   -0.7033   -0.3371   -0.5620 H   0  0  0  0  0  0  0  0  0  0  0  0
  1 14  1  0  0  0  0
  2 16  1  0  0  0  0
  2 15  1  0  0  0  0
  2 17  1  0  0  0  0
  3  4  1  0  0  0  0
  4 21  1  0  0  0  0
  4 20  1  0  0  0  0
  4  6  1  0  0  0  0
  5  3  1  0  0  0  0
  5 23  1  0  0  0  0
  5  7  1  0  0  0  0
  6 24  1  0  0  0  0
  7 10  1  0  0  0  0
  8  9  1  0  0  0  0
  9 30  1  1  0  0  0
  9  1  1  0  0  0  0
  9 11  1  0  0  0  0
 10  6  1  0  0  0  0
 10 31  1  0  0  0  0
 10  8  1  0  0  0  0
 11  2  1  0  0  0  0
 12  1  1  0  0  0  0
 13  1  1  0  0  0  0
 18  3  1  0  0  0  0
 19  3  1  0  0  0  0
 22  5  1  0  0  0  0
 25  6  1  0  0  0  0
 26  7  1  0  0  0  0
 27  7  1  0  0  0  0
 28  8  1  0  0  0  0
 29  8  1  0  0  0  0
 32 11  1  0  0  0  0
M  END
>  <HBA>
1

>  <HBD>
1

>  <TPSA>
12.03

>  <cid>
7558

>  <dipole>
0.95

>  <excitation_energy_1>
5.293

>  <excitation_energy_2>
5.747

>  <excitation_energy_3>
5.874

>  <excitation_energy_4>
5.985

>  <homo_energy>
-5.823

>  <homo_lumo_gap>
7.84

>  <logP>
2.956

>  <lumo_energy>
2.016

>  <melting_point>
20.54

>  <molecular_refractivity>
50.87

>  <oscillator_strength_1>
0.0019

>  <oscillator_strength_2>
0.0176

>  <oscillator_strength_3>
0.0132

>  <oscillator_strength_4>
0.0358

>  <open_babel_can_smiles>
CN[C@H](CC1CCCCC1)C

>  <mulliken_charges>
32
1   -0.446287
2   -0.304143
3   -0.253766
4   -0.259422
5   -0.260513
6   -0.269168
7   -0.265008
8   -0.277838
9   0.059335
10   -0.082533
11   -0.548985
12   0.142606
13   0.151088
14   0.142485
15   0.145249
16   0.116818
17   0.154212
18   0.125886
19   0.127776
20   0.127847
21   0.129439
22   0.129502
23   0.131742
24   0.13234
25   0.126067
26   0.124431
27   0.127795
28   0.120863
29   0.139355
30   0.102116
31   0.121017
32   0.289697

>  <lowdin_charges>
32
1   -0.450293
2   -0.362677
3   -0.278709
4   -0.280873
5   -0.280053
6   -0.282359
7   -0.279326
8   -0.281037
9   -0.05891
10   -0.130185
11   -0.364682
12   0.150148
13   0.152795
14   0.147731
15   0.151083
16   0.118457
17   0.148154
18   0.137645
19   0.141622
20   0.137208
21   0.142752
22   0.141871
23   0.139222
24   0.140148
25   0.140299
26   0.139136
27   0.141133
28   0.13379
29   0.146977
30   0.111476
31   0.138598
32   0.248861

$$$$

