PCCDB-ID:  44526
public computational chemistry database (PCCDB) project, http://pccdb.org

 35 35  0  0  1  0  0  0  0  0999 V2000
    0.4913   -2.2596    0.8044 C   0  0  0  0  0  0  0  0  0  0  0  0
    1.0471    0.3949   -0.5275 C   0  0  0  0  0  0  0  0  0  0  0  0
   -0.7838    0.6481    1.0076 C   0  0  0  0  0  0  0  0  0  0  0  0
    2.9942    0.0959    2.7072 C   0  0  0  0  0  0  0  0  0  0  0  0
    4.4968    0.0022    2.9951 C   0  0  0  0  0  0  0  0  0  0  0  0
    5.0758    4.3794    1.9609 C   0  0  0  0  0  0  0  0  0  0  0  0
    2.4769   -1.0568    1.8391 C   0  0  0  0  0  0  0  0  0  0  0  0
    5.0388    1.1595    3.8592 C   0  0  0  0  0  0  0  0  0  0  0  0
    5.4297    2.9897    2.0002 C   0  0  0  0  0  0  0  0  0  0  0  0
    4.4381    4.6382    3.1337 C   0  0  0  0  0  0  0  0  0  0  0  0
    0.9684   -0.9850    1.5306 C   0  0  1  0  0  0  0  0  0  0  0  0
    4.9815    2.5007    3.1944 C   0  0  0  0  0  0  0  0  0  0  0  0
    0.6151    0.2805    0.8584 N   0  0  0  0  0  0  0  0  0  0  0  0
    4.3708    3.5080    3.8961 O   0  0  0  0  0  0  0  0  0  0  0  0
    0.6465   -3.1410    1.4373 H   0  0  0  0  0  0  0  0  0  0  0  0
    1.0414   -2.4233   -0.1297 H   0  0  0  0  0  0  0  0  0  0  0  0
   -0.5764   -2.2104    0.5622 H   0  0  0  0  0  0  0  0  0  0  0  0
    0.9106    1.4308   -0.8595 H   0  0  0  0  0  0  0  0  0  0  0  0
    0.4904   -0.2548   -1.2296 H   0  0  0  0  0  0  0  0  0  0  0  0
    2.1113    0.1580   -0.6184 H   0  0  0  0  0  0  0  0  0  0  0  0
   -0.9338    1.6652    0.6264 H   0  0  0  0  0  0  0  0  0  0  0  0
   -1.0585    0.6428    2.0682 H   0  0  0  0  0  0  0  0  0  0  0  0
   -1.4900   -0.0135    0.4680 H   0  0  0  0  0  0  0  0  0  0  0  0
    2.7638    1.0468    2.2150 H   0  0  0  0  0  0  0  0  0  0  0  0
    2.4448    0.1045    3.6608 H   0  0  0  0  0  0  0  0  0  0  0  0
    5.0533   -0.0321    2.0478 H   0  0  0  0  0  0  0  0  0  0  0  0
    4.7180   -0.9431    3.5104 H   0  0  0  0  0  0  0  0  0  0  0  0
    5.2718    5.0836    1.1640 H   0  0  0  0  0  0  0  0  0  0  0  0
    2.6705   -2.0150    2.3423 H   0  0  0  0  0  0  0  0  0  0  0  0
    3.0481   -1.0976    0.9004 H   0  0  0  0  0  0  0  0  0  0  0  0
    6.0755    0.9339    4.1471 H   0  0  0  0  0  0  0  0  0  0  0  0
    4.4669    1.2227    4.7927 H   0  0  0  0  0  0  0  0  0  0  0  0
    5.9524    2.4305    1.2362 H   0  0  0  0  0  0  0  0  0  0  0  0
    3.9911    5.5213    3.5641 H   0  0  0  0  0  0  0  0  0  0  0  0
    0.4502   -0.9444    2.4991 H   0  0  0  0  0  0  0  0  0  0  0  0
  1 15  1  0  0  0  0
  1 11  1  0  0  0  0
  2 13  1  0  0  0  0
  3 22  1  0  0  0  0
  4  5  1  0  0  0  0
  4 25  1  0  0  0  0
  5 27  1  0  0  0  0
  5  8  1  0  0  0  0
  6  9  1  0  0  0  0
  6 10  2  0  0  0  0
  7 29  1  0  0  0  0
  7  4  1  0  0  0  0
  8 31  1  0  0  0  0
  8 32  1  0  0  0  0
  9 12  2  0  0  0  0
 10 34  1  0  0  0  0
 10 14  1  0  0  0  0
 11  7  1  0  0  0  0
 11 35  1  1  0  0  0
 12  8  1  0  0  0  0
 12 14  1  0  0  0  0
 13  3  1  0  0  0  0
 13 11  1  0  0  0  0
 16  1  1  0  0  0  0
 17  1  1  0  0  0  0
 18  2  1  0  0  0  0
 19  2  1  0  0  0  0
 20  2  1  0  0  0  0
 21  3  1  0  0  0  0
 23  3  1  0  0  0  0
 24  4  1  0  0  0  0
 26  5  1  0  0  0  0
 28  6  1  0  0  0  0
 30  7  1  0  0  0  0
 33  9  1  0  0  0  0
M  END
>  <HBA>
2

>  <HBD>
0

>  <TPSA>
16.38

>  <cid>
44526

>  <dipole>
1.01

>  <excitation_energy_1>
4.921

>  <excitation_energy_2>
5.221

>  <excitation_energy_3>
5.31

>  <excitation_energy_4>
5.316

>  <homo_energy>
-5.418

>  <homo_lumo_gap>
6.15

>  <logP>
2.942

>  <lumo_energy>
0.732

>  <melting_point>
4.37

>  <molecular_refractivity>
60.22

>  <oscillator_strength_1>
0.007

>  <oscillator_strength_2>
0.0019

>  <oscillator_strength_3>
0.0003

>  <oscillator_strength_4>
0.0199

>  <open_babel_can_smiles>
C[C@H](N(C)C)CCCCc1ccco1

>  <mulliken_charges>
35
1   -0.459515
2   -0.3034
3   -0.294315
4   -0.248684
5   -0.256803
6   -0.179568
7   -0.262761
8   -0.358265
9   -0.210838
10   0.076313
11   0.048185
12   0.354319
13   -0.364189
14   -0.438063
15   0.141227
16   0.143589
17   0.145503
18   0.147866
19   0.119802
20   0.149334
21   0.146097
22   0.146406
23   0.116273
24   0.166498
25   0.120952
26   0.131259
27   0.127816
28   0.134653
29   0.124851
30   0.125128
31   0.153263
32   0.15761
33   0.130574
34   0.147966
35   0.120921

>  <lowdin_charges>
35
1   -0.461149
2   -0.358056
3   -0.354657
4   -0.278472
5   -0.270753
6   -0.206199
7   -0.280043
8   -0.277353
9   -0.229266
10   -0.091228
11   -0.058788
12   0.067491
13   -0.183514
14   -0.102386
15   0.151725
16   0.148361
17   0.148423
18   0.148772
19   0.122403
20   0.148053
21   0.147586
22   0.146932
23   0.119185
24   0.157001
25   0.136356
26   0.139278
27   0.139575
28   0.166695
29   0.140206
30   0.136782
31   0.155744
32   0.160224
33   0.165051
34   0.168486
35   0.137537

$$$$

