PCCDB-ID:  68161
public computational chemistry database (PCCDB) project, http://pccdb.org

 15 15  0  0  0  0  0  0  0  0999 V2000
    0.4168    1.4119   -0.3062 C   0  0  0  0  0  0  0  0  0  0  0  0
   -1.0090    1.0683    0.1434 C   0  0  0  0  0  0  0  0  0  0  0  0
    1.3892    0.3741    0.2656 C   0  0  0  0  0  0  0  0  0  0  0  0
   -1.2811   -0.4210    0.0684 C   0  0  0  0  0  0  0  0  0  0  0  0
    0.9862   -1.0333   -0.1950 C   0  0  0  0  0  0  0  0  0  0  0  0
   -0.4388   -1.3625   -0.0868 N   0  0  0  0  0  0  0  0  0  0  0  0
    0.6868    2.4272    0.0066 H   0  0  0  0  0  0  0  0  0  0  0  0
    0.4692    1.3925   -1.4033 H   0  0  0  0  0  0  0  0  0  0  0  0
   -1.7600    1.5967   -0.4591 H   0  0  0  0  0  0  0  0  0  0  0  0
   -1.1788    1.3962    1.1810 H   0  0  0  0  0  0  0  0  0  0  0  0
    1.3649    0.4194    1.3635 H   0  0  0  0  0  0  0  0  0  0  0  0
    2.4217    0.5852   -0.0385 H   0  0  0  0  0  0  0  0  0  0  0  0
   -2.3324   -0.7195    0.1543 H   0  0  0  0  0  0  0  0  0  0  0  0
    1.5359   -1.7961    0.3704 H   0  0  0  0  0  0  0  0  0  0  0  0
    1.2663   -1.1850   -1.2481 H   0  0  0  0  0  0  0  0  0  0  0  0
  1  7  1  0  0  0  0
  1  2  1  0  0  0  0
  1  3  1  0  0  0  0
  2 10  1  0  0  0  0
  3 11  1  0  0  0  0
  4  2  1  0  0  0  0
  4 13  1  0  0  0  0
  5  6  1  0  0  0  0
  5  3  1  0  0  0  0
  5 14  1  0  0  0  0
  6  4  2  0  0  0  0
  8  1  1  0  0  0  0
  9  2  1  0  0  0  0
 12  3  1  0  0  0  0
 15  5  1  0  0  0  0
M  END
>  <HBA>
1

>  <HBD>
0

>  <TPSA>
12.36

>  <cid>
68161

>  <dipole>
2.06

>  <excitation_energy_1>
4.888

>  <excitation_energy_2>
5.835

>  <excitation_energy_3>
6.391

>  <excitation_energy_4>
6.467

>  <homo_energy>
-6.259

>  <homo_lumo_gap>
6.55

>  <logP>
0.677

>  <lumo_energy>
0.291

>  <melting_point>
14.54

>  <molecular_refractivity>
31.05

>  <oscillator_strength_1>
0.0028

>  <oscillator_strength_2>
0.0078

>  <oscillator_strength_3>
0.03

>  <oscillator_strength_4>
0.0014

>  <open_babel_can_smiles>
C1CCC=NC1

>  <mulliken_charges>
15
1   -0.263881
2   -0.312217
3   -0.279837
4   0.063097
5   -0.147633
6   -0.348022
7   0.137707
8   0.140719
9   0.151086
10   0.156346
11   0.138604
12   0.135878
13   0.129742
14   0.149458
15   0.148952

>  <lowdin_charges>
15
1   -0.273506
2   -0.302531
3   -0.287802
4   -0.085231
5   -0.212741
6   -0.173636
7   0.146304
8   0.141779
9   0.158478
10   0.156448
11   0.140665
12   0.147395
13   0.143781
14   0.152571
15   0.148027

$$$$

