PCCDB-ID:  53234
public computational chemistry database (PCCDB) project, http://pccdb.org

 32 33  0  0  0  0  0  0  0  0999 V2000
   -2.3587    0.0172    0.8031 C   0  0  0  0  0  0  0  0  0  0  0  0
   -1.4036    0.8803    1.3436 C   0  0  0  0  0  0  0  0  0  0  0  0
   -1.9748   -0.9095   -0.1677 C   0  0  0  0  0  0  0  0  0  0  0  0
   -0.0775    0.8160    0.9179 C   0  0  0  0  0  0  0  0  0  0  0  0
   -0.6490   -0.9721   -0.5937 C   0  0  0  0  0  0  0  0  0  0  0  0
    3.8293    0.9133   -1.1091 C   0  0  0  0  0  0  0  0  0  0  0  0
    3.6682   -1.4766   -1.2392 C   0  0  0  0  0  0  0  0  0  0  0  0
    2.5073    0.9819   -0.6755 C   0  0  0  0  0  0  0  0  0  0  0  0
    2.3464   -1.4128   -0.8055 C   0  0  0  0  0  0  0  0  0  0  0  0
    5.8826   -0.3922   -1.8343 C   0  0  0  0  0  0  0  0  0  0  0  0
    6.8469   -0.5536   -0.6469 C   0  0  0  0  0  0  0  0  0  0  0  0
    4.4361   -0.3155   -1.3990 C   0  0  0  0  0  0  0  0  0  0  0  0
    0.3247   -0.1114   -0.0587 C   0  0  0  0  0  0  0  0  0  0  0  0
    1.7364   -0.1810   -0.5142 C   0  0  0  0  0  0  0  0  0  0  0  0
    9.1986   -0.7350   -0.0657 N   0  0  0  0  0  0  0  0  0  0  0  0
    8.2261   -0.6804   -1.1128 N   0  0  0  0  0  0  0  0  0  0  0  0
   -3.3921    0.0663    1.1354 H   0  0  0  0  0  0  0  0  0  0  0  0
   -1.6892    1.5995    2.1068 H   0  0  0  0  0  0  0  0  0  0  0  0
   -2.7112   -1.5806   -0.6021 H   0  0  0  0  0  0  0  0  0  0  0  0
    0.6624    1.4745    1.3645 H   0  0  0  0  0  0  0  0  0  0  0  0
   -0.3669   -1.6795   -1.3685 H   0  0  0  0  0  0  0  0  0  0  0  0
    4.3955    1.8333   -1.2405 H   0  0  0  0  0  0  0  0  0  0  0  0
    4.1141   -2.4455   -1.4545 H   0  0  0  0  0  0  0  0  0  0  0  0
    2.0561    1.9526   -0.4888 H   0  0  0  0  0  0  0  0  0  0  0  0
    1.7834   -2.3325   -0.6720 H   0  0  0  0  0  0  0  0  0  0  0  0
    6.0359   -1.2360   -2.5168 H   0  0  0  0  0  0  0  0  0  0  0  0
    6.1502    0.5173   -2.3898 H   0  0  0  0  0  0  0  0  0  0  0  0
    6.5919   -1.4658   -0.0916 H   0  0  0  0  0  0  0  0  0  0  0  0
    6.7107    0.2922    0.0571 H   0  0  0  0  0  0  0  0  0  0  0  0
    9.2438   -1.7032    0.2480 H   0  0  0  0  0  0  0  0  0  0  0  0
    8.8872   -0.1829    0.7425 H   0  0  0  0  0  0  0  0  0  0  0  0
    8.4703    0.1268   -1.6836 H   0  0  0  0  0  0  0  0  0  0  0  0
  1 17  1  0  0  0  0
  1  2  2  0  0  0  0
  2 18  1  0  0  0  0
  3  1  1  0  0  0  0
  4  2  1  0  0  0  0
  4 20  1  0  0  0  0
  5  3  2  0  0  0  0
  5 13  1  0  0  0  0
  6  8  2  0  0  0  0
  7  9  1  0  0  0  0
  8 14  1  0  0  0  0
  8 24  1  0  0  0  0
  9 25  1  0  0  0  0
  9 14  2  0  0  0  0
 10 12  1  0  0  0  0
 10 11  1  0  0  0  0
 11 28  1  0  0  0  0
 11 29  1  0  0  0  0
 12  7  2  0  0  0  0
 12  6  1  0  0  0  0
 13  4  2  0  0  0  0
 14 13  1  0  0  0  0
 15 30  1  0  0  0  0
 15 31  1  0  0  0  0
 16 11  1  0  0  0  0
 16 15  1  0  0  0  0
 19  3  1  0  0  0  0
 21  5  1  0  0  0  0
 22  6  1  0  0  0  0
 23  7  1  0  0  0  0
 26 10  1  0  0  0  0
 27 10  1  0  0  0  0
 32 16  1  0  0  0  0
M  END
>  <HBA>
2

>  <HBD>
2

>  <TPSA>
38.05

>  <cid>
53234

>  <dipole>
1.63

>  <excitation_energy_1>
4.748

>  <excitation_energy_2>
4.833

>  <excitation_energy_3>
4.926

>  <excitation_energy_4>
5.086

>  <homo_energy>
-5.962

>  <homo_lumo_gap>
5.246

>  <logP>
3.451

>  <lumo_energy>
-0.716

>  <melting_point>
126.19

>  <molecular_refractivity>
67.16

>  <oscillator_strength_1>
0.5966

>  <oscillator_strength_2>
0.0002

>  <oscillator_strength_3>
0.0001

>  <oscillator_strength_4>
0.0002

>  <open_babel_can_smiles>
NNCCc1ccc(cc1)c1ccccc1

>  <mulliken_charges>
32
1   -0.127156
2   -0.133597
3   -0.133542
4   -0.174075
5   -0.173725
6   -0.18632
7   -0.187308
8   -0.173966
9   -0.174283
10   -0.364856
11   -0.116802
12   0.173964
13   0.089088
14   0.087531
15   -0.58422
16   -0.444056
17   0.129334
18   0.129925
19   0.130191
20   0.130986
21   0.131951
22   0.122577
23   0.126989
24   0.132184
25   0.13236
26   0.161428
27   0.139587
28   0.14204
29   0.112527
30   0.311816
31   0.281139
32   0.308287

>  <lowdin_charges>
32
1   -0.157372
2   -0.1547
3   -0.156093
4   -0.163804
5   -0.162008
6   -0.166926
7   -0.164786
8   -0.160043
9   -0.160419
10   -0.277768
11   -0.214353
12   -0.000743
13   -0.001288
14   -0.003736
15   -0.482545
16   -0.309317
17   0.156699
18   0.158449
19   0.159227
20   0.159967
21   0.159698
22   0.154725
23   0.156232
24   0.159249
25   0.159883
26   0.159501
27   0.147484
28   0.142128
29   0.116679
30   0.256065
31   0.235002
32   0.254913

$$$$

