PCCDB-ID:  66929
public computational chemistry database (PCCDB) project, http://pccdb.org

 28 27  0  0  0  0  0  0  0  0999 V2000
    5.3708    2.6559    0.3801 C   0  0  0  0  0  0  0  0  0  0  0  0
    8.0983   -0.9863   -5.7402 C   0  0  0  0  0  0  0  0  0  0  0  0
    3.8585   -1.7482   -3.5840 C   0  0  0  0  0  0  0  0  0  0  0  0
    4.5389    1.9192   -0.6739 C   0  0  0  0  0  0  0  0  0  0  0  0
    7.3892    0.2813   -5.2556 C   0  0  0  0  0  0  0  0  0  0  0  0
    5.2602    0.6961   -1.2254 C   0  0  0  0  0  0  0  0  0  0  0  0
    5.9979    0.0134   -4.6910 C   0  0  0  0  0  0  0  0  0  0  0  0
    4.9735   -1.0799   -2.7876 C   0  0  0  0  0  0  0  0  0  0  0  0
    4.4291    0.0857   -2.2111 O   0  0  0  0  0  0  0  0  0  0  0  0
    6.1449   -0.8171   -3.5374 O   0  0  0  0  0  0  0  0  0  0  0  0
    4.8349    3.5290    0.7677 H   0  0  0  0  0  0  0  0  0  0  0  0
    6.3217    3.0093   -0.0372 H   0  0  0  0  0  0  0  0  0  0  0  0
    5.6044    2.0064    1.2327 H   0  0  0  0  0  0  0  0  0  0  0  0
    9.0991   -0.7587   -6.1240 H   0  0  0  0  0  0  0  0  0  0  0  0
    7.5329   -1.4700   -6.5467 H   0  0  0  0  0  0  0  0  0  0  0  0
    8.2000   -1.7063   -4.9226 H   0  0  0  0  0  0  0  0  0  0  0  0
    3.0756   -2.0954   -2.9033 H   0  0  0  0  0  0  0  0  0  0  0  0
    4.2549   -2.6066   -4.1352 H   0  0  0  0  0  0  0  0  0  0  0  0
    3.4037   -1.0470   -4.2893 H   0  0  0  0  0  0  0  0  0  0  0  0
    4.3059    2.5914   -1.5094 H   0  0  0  0  0  0  0  0  0  0  0  0
    3.5780    1.6017   -0.2501 H   0  0  0  0  0  0  0  0  0  0  0  0
    7.2874    0.9999   -6.0804 H   0  0  0  0  0  0  0  0  0  0  0  0
    7.9899    0.7724   -4.4792 H   0  0  0  0  0  0  0  0  0  0  0  0
    5.4681   -0.0264   -0.4182 H   0  0  0  0  0  0  0  0  0  0  0  0
    6.2257    0.9830   -1.6647 H   0  0  0  0  0  0  0  0  0  0  0  0
    5.3781   -0.4883   -5.4501 H   0  0  0  0  0  0  0  0  0  0  0  0
    5.4993    0.9526   -4.4166 H   0  0  0  0  0  0  0  0  0  0  0  0
    5.3330   -1.7548   -1.9966 H   0  0  0  0  0  0  0  0  0  0  0  0
  1 11  1  0  0  0  0
  1 13  1  0  0  0  0
  2  5  1  0  0  0  0
  2 16  1  0  0  0  0
  3 17  1  0  0  0  0
  3  8  1  0  0  0  0
  4 21  1  0  0  0  0
  4  1  1  0  0  0  0
  5  7  1  0  0  0  0
  5 23  1  0  0  0  0
  6  4  1  0  0  0  0
  6 24  1  0  0  0  0
  7 27  1  0  0  0  0
  7 10  1  0  0  0  0
  8  9  1  0  0  0  0
  8 28  1  0  0  0  0
  9  6  1  0  0  0  0
 10  8  1  0  0  0  0
 12  1  1  0  0  0  0
 14  2  1  0  0  0  0
 15  2  1  0  0  0  0
 18  3  1  0  0  0  0
 19  3  1  0  0  0  0
 20  4  1  0  0  0  0
 22  5  1  0  0  0  0
 25  6  1  0  0  0  0
 26  7  1  0  0  0  0
M  END
>  <HBA>
2

>  <HBD>
0

>  <TPSA>
18.46

>  <cid>
66929

>  <dipole>
0.31

>  <excitation_energy_1>
6.738

>  <excitation_energy_2>
6.898

>  <excitation_energy_3>
7.006

>  <excitation_energy_4>
7.07

>  <homo_energy>
-7.01

>  <homo_lumo_gap>
9.415

>  <logP>
2.186

>  <lumo_energy>
2.406

>  <melting_point>
-45.79

>  <molecular_refractivity>
42.74

>  <oscillator_strength_1>
0.0023

>  <oscillator_strength_2>
0.0061

>  <oscillator_strength_3>
0.0076

>  <oscillator_strength_4>
0.0019

>  <open_babel_can_smiles>
CCCOC(OCCC)C

>  <mulliken_charges>
28
1   -0.451807
2   -0.441383
3   -0.478029
4   -0.266796
5   -0.26713
6   -0.008242
7   -0.02188
8   0.36966
9   -0.487959
10   -0.488186
11   0.14913
12   0.145002
13   0.144587
14   0.139677
15   0.136153
16   0.164777
17   0.156746
18   0.153907
19   0.160776
20   0.144855
21   0.144483
22   0.131078
23   0.142755
24   0.11687
25   0.136472
26   0.12146
27   0.136826
28   0.116201

>  <lowdin_charges>
28
1   -0.446081
2   -0.447581
3   -0.4645
4   -0.278739
5   -0.279325
6   -0.132561
7   -0.13494
8   0.097731
9   -0.269953
10   -0.276661
11   0.154297
12   0.147982
13   0.148274
14   0.147848
15   0.145253
16   0.158393
17   0.163356
18   0.159569
19   0.161143
20   0.1484
21   0.147324
22   0.144944
23   0.147749
24   0.12688
25   0.134538
26   0.129442
27   0.136938
28   0.130281

$$$$

