PCCDB-ID:  12126
public computational chemistry database (PCCDB) project, http://pccdb.org

 22 22  0  0  0  0  0  0  0  0999 V2000
    2.6129    1.0637   -0.1107 C   0  0  0  0  0  0  0  0  0  0  0  0
    4.0360    1.3853   -0.5301 C   0  0  0  0  0  0  0  0  0  0  0  0
    7.6060   -1.0017   -2.7246 C   0  0  0  0  0  0  0  0  0  0  0  0
    8.4570    0.1051   -2.6502 C   0  0  0  0  0  0  0  0  0  0  0  0
    6.3211   -0.9407   -2.2014 C   0  0  0  0  0  0  0  0  0  0  0  0
    6.6987    1.3572   -1.5339 C   0  0  0  0  0  0  0  0  0  0  0  0
    8.0023    1.2818   -2.0453 C   0  0  0  0  0  0  0  0  0  0  0  0
    5.8571    0.2446   -1.6046 C   0  0  0  0  0  0  0  0  0  0  0  0
    8.8445    2.5187   -1.9315 C   0  0  0  0  0  0  0  0  0  0  0  0
    8.3864    3.6247   -1.7643 O   0  0  0  0  0  0  0  0  0  0  0  0
   10.1922    2.3507   -2.0230 O   0  0  0  0  0  0  0  0  0  0  0  0
    4.5838    0.2066   -1.1303 O   0  0  0  0  0  0  0  0  0  0  0  0
    2.1511    1.9431    0.3506 H   0  0  0  0  0  0  0  0  0  0  0  0
    2.5991    0.2436    0.6140 H   0  0  0  0  0  0  0  0  0  0  0  0
    2.0121    0.7698   -0.9770 H   0  0  0  0  0  0  0  0  0  0  0  0
    4.6466    1.6765    0.3358 H   0  0  0  0  0  0  0  0  0  0  0  0
    4.0579    2.2122   -1.2530 H   0  0  0  0  0  0  0  0  0  0  0  0
    7.9475   -1.9156   -3.2022 H   0  0  0  0  0  0  0  0  0  0  0  0
    9.4420    0.0490   -3.1069 H   0  0  0  0  0  0  0  0  0  0  0  0
    5.6501   -1.7925   -2.2493 H   0  0  0  0  0  0  0  0  0  0  0  0
    6.3808    2.2942   -1.0948 H   0  0  0  0  0  0  0  0  0  0  0  0
   10.4084    1.4045   -1.9978 H   0  0  0  0  0  0  0  0  0  0  0  0
  1 13  1  0  0  0  0
  1 14  1  0  0  0  0
  2  1  1  0  0  0  0
  2 16  1  0  0  0  0
  3  4  2  0  0  0  0
  3  5  1  0  0  0  0
  4  7  1  0  0  0  0
  5  8  2  0  0  0  0
  6 21  1  0  0  0  0
  7  9  1  0  0  0  0
  7  6  2  0  0  0  0
  8  6  1  0  0  0  0
  8 12  1  0  0  0  0
  9 10  2  0  0  0  0
 11 22  1  0  0  0  0
 11  9  1  0  0  0  0
 12  2  1  0  0  0  0
 15  1  1  0  0  0  0
 17  2  1  0  0  0  0
 18  3  1  0  0  0  0
 19  4  1  0  0  0  0
 20  5  1  0  0  0  0
M  END
>  <HBA>
3

>  <HBD>
1

>  <TPSA>
46.53

>  <cid>
12126

>  <dipole>
3.81

>  <excitation_energy_1>
4.42

>  <excitation_energy_2>
4.741

>  <excitation_energy_3>
5.267

>  <excitation_energy_4>
5.68

>  <homo_energy>
-6.406

>  <homo_lumo_gap>
5.113

>  <logP>
1.784

>  <lumo_energy>
-1.293

>  <melting_point>
100.09

>  <molecular_refractivity>
44.7

>  <oscillator_strength_1>
0.056

>  <oscillator_strength_2>
0.0107

>  <oscillator_strength_3>
0.0491

>  <oscillator_strength_4>
0.0506

>  <open_babel_can_smiles>
CCOc1cccc(c1)C(=O)O

>  <mulliken_charges>
22
1   -0.458133
2   -0.036344
3   -0.134528
4   -0.208422
5   -0.163065
6   -0.231203
7   0.052096
8   0.385435
9   0.551903
10   -0.450019
11   -0.575968
12   -0.517196
13   0.153788
14   0.164345
15   0.165167
16   0.148212
17   0.152246
18   0.141204
19   0.130088
20   0.147803
21   0.171404
22   0.411185

>  <lowdin_charges>
22
1   -0.448706
2   -0.125257
3   -0.143978
4   -0.187409
5   -0.166743
6   -0.189405
7   -0.047386
8   0.107689
9   0.196345
10   -0.243309
11   -0.355619
12   -0.198078
13   0.160848
14   0.160935
15   0.161593
16   0.143084
17   0.145019
18   0.164553
19   0.155217
20   0.172191
21   0.183178
22   0.355238

$$$$

