PCCDB-ID:  37505
public computational chemistry database (PCCDB) project, http://pccdb.org

 34 34  0  0  1  0  0  0  0  0999 V2000
    2.7118   -0.2544    3.8466 C   0  0  0  0  0  0  0  0  0  0  0  0
    4.4534   -1.4555    2.5028 C   0  0  0  0  0  0  0  0  0  0  0  0
    2.4402   -0.4525    1.3517 C   0  0  0  0  0  0  0  0  0  0  0  0
    4.3575    5.6837    2.9515 C   0  0  0  0  0  0  0  0  0  0  0  0
    5.0635    4.4844    2.8472 C   0  0  0  0  0  0  0  0  0  0  0  0
    3.7168    6.2342    1.8424 C   0  0  0  0  0  0  0  0  0  0  0  0
    4.4972    4.3728    0.5014 C   0  0  0  0  0  0  0  0  0  0  0  0
    4.9189    1.3166    1.1799 C   0  0  0  0  0  0  0  0  0  0  0  0
    5.1327    3.8187    1.6180 C   0  0  0  0  0  0  0  0  0  0  0  0
    3.7932    5.5739    0.6108 C   0  0  0  0  0  0  0  0  0  0  0  0
    5.8828    2.4913    1.4812 C   0  0  1  0  0  0  0  0  0  0  0  0
    3.4564   -0.2841    2.5013 C   0  0  0  0  0  0  0  0  0  0  0  0
    4.2004    0.9978    2.4170 N   0  0  0  0  0  0  0  0  0  0  0  0
    3.1967    6.0577   -0.5237 O   0  0  0  0  0  0  0  0  0  0  0  0
    6.6392    2.1668    2.6321 O   0  0  0  0  0  0  0  0  0  0  0  0
    2.1643   -1.1887    4.0104 H   0  0  0  0  0  0  0  0  0  0  0  0
    1.9837    0.5668    3.8756 H   0  0  0  0  0  0  0  0  0  0  0  0
    3.4165   -0.1136    4.6730 H   0  0  0  0  0  0  0  0  0  0  0  0
    3.9258   -2.4004    2.6735 H   0  0  0  0  0  0  0  0  0  0  0  0
    5.1967   -1.3252    3.2965 H   0  0  0  0  0  0  0  0  0  0  0  0
    4.9847   -1.5475    1.5495 H   0  0  0  0  0  0  0  0  0  0  0  0
    1.8613   -1.3758    1.4719 H   0  0  0  0  0  0  0  0  0  0  0  0
    2.9393   -0.4994    0.3774 H   0  0  0  0  0  0  0  0  0  0  0  0
    1.7332    0.3861    1.3301 H   0  0  0  0  0  0  0  0  0  0  0  0
    4.3073    6.2008    3.9064 H   0  0  0  0  0  0  0  0  0  0  0  0
    5.5863    4.0677    3.7003 H   0  0  0  0  0  0  0  0  0  0  0  0
    3.1682    7.1709    1.9273 H   0  0  0  0  0  0  0  0  0  0  0  0
    4.5456    3.8909   -0.4718 H   0  0  0  0  0  0  0  0  0  0  0  0
    5.5226    0.4502    0.8946 H   0  0  0  0  0  0  0  0  0  0  0  0
    4.2649    1.5660    0.3304 H   0  0  0  0  0  0  0  0  0  0  0  0
    6.5874    2.5787    0.6436 H   0  0  0  0  0  0  0  0  0  0  0  0
    3.5529    1.7608    2.6158 H   0  0  0  0  0  0  0  0  0  0  0  0
    2.7631    6.8993   -0.3138 H   0  0  0  0  0  0  0  0  0  0  0  0
    6.0164    1.6311    3.1680 H   0  0  0  0  0  0  0  0  0  0  0  0
  1 17  1  0  0  0  0
  1 16  1  0  0  0  0
  1 18  1  0  0  0  0
  2 19  1  0  0  0  0
  2 20  1  0  0  0  0
  3 22  1  0  0  0  0
  3 12  1  0  0  0  0
  4 25  1  0  0  0  0
  5  4  1  0  0  0  0
  5 26  1  0  0  0  0
  6 27  1  0  0  0  0
  6  4  2  0  0  0  0
  7 10  2  0  0  0  0
  7  9  1  0  0  0  0
  8 11  1  0  0  0  0
  8 13  1  0  0  0  0
  9  5  2  0  0  0  0
 10  6  1  0  0  0  0
 11 31  1  6  0  0  0
 11  9  1  0  0  0  0
 11 15  1  0  0  0  0
 12  2  1  0  0  0  0
 12  1  1  0  0  0  0
 13 12  1  0  0  0  0
 13 32  1  0  0  0  0
 14 33  1  0  0  0  0
 14 10  1  0  0  0  0
 15 34  1  0  0  0  0
 21  2  1  0  0  0  0
 23  3  1  0  0  0  0
 24  3  1  0  0  0  0
 28  7  1  0  0  0  0
 29  8  1  0  0  0  0
 30  8  1  0  0  0  0
M  END
>  <HBA>
3

>  <HBD>
3

>  <TPSA>
52.49

>  <cid>
37505

>  <dipole>
2.99

>  <excitation_energy_1>
4.977

>  <excitation_energy_2>
5.184

>  <excitation_energy_3>
5.407

>  <excitation_energy_4>
5.663

>  <homo_energy>
-5.905

>  <homo_lumo_gap>
5.891

>  <logP>
2.205

>  <lumo_energy>
-0.014

>  <melting_point>
101.63

>  <molecular_refractivity>
61.47

>  <oscillator_strength_1>
0.0466

>  <oscillator_strength_2>
0.0001

>  <oscillator_strength_3>
0.0061

>  <oscillator_strength_4>
0.002

>  <open_babel_can_smiles>
Oc1cccc(c1)[C@H](CNC(C)(C)C)O

>  <mulliken_charges>
34
1   -0.450967
2   -0.441716
3   -0.446338
4   -0.134535
5   -0.188101
6   -0.195642
7   -0.218921
8   -0.153821
9   0.119337
10   0.350322
11   0.073611
12   0.217614
13   -0.598521
14   -0.645746
15   -0.644909
16   0.144782
17   0.136961
18   0.153662
19   0.142118
20   0.152707
21   0.144751
22   0.142567
23   0.146401
24   0.138355
25   0.129274
26   0.138007
27   0.114706
28   0.129951
29   0.153855
30   0.134122
31   0.142769
32   0.30569
33   0.406092
34   0.401562

>  <lowdin_charges>
34
1   -0.446108
2   -0.4472
3   -0.456611
4   -0.144451
5   -0.191343
6   -0.218814
7   -0.203875
8   -0.223848
9   -0.013947
10   0.102255
11   -0.007768
12   0.071846
13   -0.361519
14   -0.381862
15   -0.465797
16   0.152488
17   0.146586
18   0.155824
19   0.151907
20   0.155867
21   0.149242
22   0.151897
23   0.150295
24   0.148174
25   0.157542
26   0.166579
27   0.15123
28   0.161522
29   0.151752
30   0.134067
31   0.15028
32   0.259679
33   0.356673
34   0.337436

$$$$

