PCCDB-ID:  6544
public computational chemistry database (PCCDB) project, http://pccdb.org

 24 24  0  0  0  0  0  0  0  0999 V2000
    1.0222   -0.0385   -0.1790 C   0  0  0  0  0  0  0  0  0  0  0  0
    4.8739   -1.6608   -1.4346 C   0  0  0  0  0  0  0  0  0  0  0  0
    5.3822   -2.4168    0.9007 C   0  0  0  0  0  0  0  0  0  0  0  0
    3.2105    1.1417   -0.3973 C   0  0  0  0  0  0  0  0  0  0  0  0
    3.2185   -1.2142    0.4311 C   0  0  0  0  0  0  0  0  0  0  0  0
    5.3855    0.0462    0.3616 C   0  0  0  0  0  0  0  0  0  0  0  0
    2.5206    0.0294   -0.0752 C   0  0  0  0  0  0  0  0  0  0  0  0
    4.6760    1.2385   -0.2719 C   0  0  0  0  0  0  0  0  0  0  0  0
    4.7177   -1.3135    0.0603 C   0  0  0  0  0  0  0  0  0  0  0  0
    5.2866    2.2411   -0.6179 O   0  0  0  0  0  0  0  0  0  0  0  0
    0.5882    0.9200   -0.4779 H   0  0  0  0  0  0  0  0  0  0  0  0
    0.5783   -0.3351    0.7813 H   0  0  0  0  0  0  0  0  0  0  0  0
    0.7177   -0.8005   -0.9096 H   0  0  0  0  0  0  0  0  0  0  0  0
    4.4248   -2.6369   -1.6549 H   0  0  0  0  0  0  0  0  0  0  0  0
    5.9338   -1.7118   -1.7102 H   0  0  0  0  0  0  0  0  0  0  0  0
    4.3966   -0.9171   -2.0812 H   0  0  0  0  0  0  0  0  0  0  0  0
    4.9114   -3.3906    0.7164 H   0  0  0  0  0  0  0  0  0  0  0  0
    5.3053   -2.2036    1.9739 H   0  0  0  0  0  0  0  0  0  0  0  0
    6.4464   -2.5093    0.6529 H   0  0  0  0  0  0  0  0  0  0  0  0
    2.7073    2.0336   -0.7641 H   0  0  0  0  0  0  0  0  0  0  0  0
    2.6863   -2.1047    0.0670 H   0  0  0  0  0  0  0  0  0  0  0  0
    3.1099   -1.2405    1.5281 H   0  0  0  0  0  0  0  0  0  0  0  0
    5.3844    0.2171    1.4499 H   0  0  0  0  0  0  0  0  0  0  0  0
    6.4328    0.0618    0.0410 H   0  0  0  0  0  0  0  0  0  0  0  0
  1  7  1  0  0  0  0
  1 12  1  0  0  0  0
  2  9  1  0  0  0  0
  3 18  1  0  0  0  0
  4  8  1  0  0  0  0
  4  7  2  0  0  0  0
  5 22  1  0  0  0  0
  6 23  1  0  0  0  0
  7  5  1  0  0  0  0
  8  6  1  0  0  0  0
  9  6  1  0  0  0  0
  9  5  1  0  0  0  0
  9  3  1  0  0  0  0
 10  8  2  0  0  0  0
 11  1  1  0  0  0  0
 13  1  1  0  0  0  0
 14  2  1  0  0  0  0
 15  2  1  0  0  0  0
 16  2  1  0  0  0  0
 17  3  1  0  0  0  0
 19  3  1  0  0  0  0
 20  4  1  0  0  0  0
 21  5  1  0  0  0  0
 24  6  1  0  0  0  0
M  END
>  <HBA>
1

>  <HBD>
0

>  <TPSA>
17.07

>  <cid>
6544

>  <dipole>
4.11

>  <excitation_energy_1>
3.648

>  <excitation_energy_2>
5.591

>  <excitation_energy_3>
5.836

>  <excitation_energy_4>
6.224

>  <homo_energy>
-6.275

>  <homo_lumo_gap>
5.116

>  <logP>
2.322

>  <lumo_energy>
-1.159

>  <melting_point>
47.31

>  <molecular_refractivity>
42.73

>  <oscillator_strength_1>
0.0002

>  <oscillator_strength_2>
0.3212

>  <oscillator_strength_3>
0.0206

>  <oscillator_strength_4>
0.0036

>  <open_babel_can_smiles>
CC1=CC(=O)CC(C1)(C)C

>  <mulliken_charges>
24
1   -0.521631
2   -0.450738
3   -0.448765
4   -0.226924
5   -0.333277
6   -0.352368
7   0.185262
8   0.442923
9   0.077618
10   -0.483827
11   0.166998
12   0.163864
13   0.165652
14   0.139021
15   0.14775
16   0.154859
17   0.140876
18   0.139086
19   0.146744
20   0.135561
21   0.143605
22   0.152868
23   0.155665
24   0.159176

>  <lowdin_charges>
24
1   -0.44142
2   -0.446673
3   -0.437778
4   -0.224735
5   -0.27798
6   -0.300869
7   0.035902
8   0.148249
9   0.013734
10   -0.253275
11   0.162759
12   0.162976
13   0.164754
14   0.147266
15   0.151008
16   0.156496
17   0.148251
18   0.145104
19   0.150536
20   0.165649
21   0.152228
22   0.155749
23   0.160503
24   0.161566

$$$$

