PCCDB-ID:  17355
public computational chemistry database (PCCDB) project, http://pccdb.org

 23 23  0  0  0  0  0  0  0  0999 V2000
    3.6545    0.5371    0.8744 C   0  0  0  0  0  0  0  0  0  0  0  0
    5.3578   -3.8571   -5.0988 C   0  0  0  0  0  0  0  0  0  0  0  0
    4.9271   -2.5515   -5.3414 C   0  0  0  0  0  0  0  0  0  0  0  0
    4.9684   -4.5026   -3.9238 C   0  0  0  0  0  0  0  0  0  0  0  0
    4.1150   -1.8984   -4.4134 C   0  0  0  0  0  0  0  0  0  0  0  0
    4.1562   -3.8444   -2.9994 C   0  0  0  0  0  0  0  0  0  0  0  0
    3.7140   -1.0391   -1.1792 C   0  0  0  0  0  0  0  0  0  0  0  0
    2.8683   -1.8082   -2.2064 C   0  0  0  0  0  0  0  0  0  0  0  0
    2.8844   -0.3000   -0.1348 C   0  0  0  0  0  0  0  0  0  0  0  0
    3.7191   -2.5324   -3.2277 C   0  0  0  0  0  0  0  0  0  0  0  0
    1.6701   -0.3720   -0.1097 O   0  0  0  0  0  0  0  0  0  0  0  0
    4.1827    1.3536    0.3657 H   0  0  0  0  0  0  0  0  0  0  0  0
    4.4158   -0.0662    1.3839 H   0  0  0  0  0  0  0  0  0  0  0  0
    2.9644    0.9566    1.6094 H   0  0  0  0  0  0  0  0  0  0  0  0
    5.9865   -4.3694   -5.8222 H   0  0  0  0  0  0  0  0  0  0  0  0
    5.2182   -2.0427   -6.2569 H   0  0  0  0  0  0  0  0  0  0  0  0
    5.2919   -5.5220   -3.7291 H   0  0  0  0  0  0  0  0  0  0  0  0
    3.7767   -0.8835   -4.6136 H   0  0  0  0  0  0  0  0  0  0  0  0
    3.8503   -4.3573   -2.0895 H   0  0  0  0  0  0  0  0  0  0  0  0
    4.3721   -0.3150   -1.6816 H   0  0  0  0  0  0  0  0  0  0  0  0
    4.3974   -1.7229   -0.6537 H   0  0  0  0  0  0  0  0  0  0  0  0
    2.1925   -1.1038   -2.7041 H   0  0  0  0  0  0  0  0  0  0  0  0
    2.2260   -2.5172   -1.6728 H   0  0  0  0  0  0  0  0  0  0  0  0
  1 13  1  0  0  0  0
  1 14  1  0  0  0  0
  2  4  1  0  0  0  0
  3  2  2  0  0  0  0
  3  5  1  0  0  0  0
  4 17  1  0  0  0  0
  4  6  2  0  0  0  0
  5 10  2  0  0  0  0
  6 19  1  0  0  0  0
  7 21  1  0  0  0  0
  7  9  1  0  0  0  0
  8 23  1  0  0  0  0
  8  7  1  0  0  0  0
  9 11  2  0  0  0  0
  9  1  1  0  0  0  0
 10  6  1  0  0  0  0
 10  8  1  0  0  0  0
 12  1  1  0  0  0  0
 15  2  1  0  0  0  0
 16  3  1  0  0  0  0
 18  5  1  0  0  0  0
 20  7  1  0  0  0  0
 22  8  1  0  0  0  0
M  END
>  <HBA>
1

>  <HBD>
0

>  <TPSA>
17.07

>  <cid>
17355

>  <dipole>
2.59

>  <excitation_energy_1>
4.391

>  <excitation_energy_2>
5.259

>  <excitation_energy_3>
5.525

>  <excitation_energy_4>
5.688

>  <homo_energy>
-6.384

>  <homo_lumo_gap>
6.014

>  <logP>
2.208

>  <lumo_energy>
-0.37

>  <melting_point>
26.55

>  <molecular_refractivity>
46.03

>  <oscillator_strength_1>
0.0004

>  <oscillator_strength_2>
0.002

>  <oscillator_strength_3>
0.001

>  <oscillator_strength_4>
0.0003

>  <open_babel_can_smiles>
CC(=O)CCc1ccccc1

>  <mulliken_charges>
23
1   -0.528814
2   -0.131509
3   -0.12784
4   -0.12768
5   -0.181574
6   -0.18207
7   -0.353165
8   -0.344923
9   0.45666
10   0.167488
11   -0.435517
12   0.170016
13   0.166559
14   0.180403
15   0.127686
16   0.128177
17   0.128218
18   0.121895
19   0.122461
20   0.160992
21   0.163365
22   0.158509
23   0.160662

>  <lowdin_charges>
23
1   -0.478297
2   -0.163123
3   -0.155375
4   -0.153686
5   -0.167875
6   -0.169451
7   -0.311227
8   -0.271087
9   0.163556
10   -0.001544
11   -0.234304
12   0.171744
13   0.169331
14   0.174312
15   0.158196
16   0.157105
17   0.155822
18   0.15255
19   0.154099
20   0.16319
21   0.164898
22   0.159985
23   0.16118

$$$$

