PCCDB-ID:  20314
public computational chemistry database (PCCDB) project, http://pccdb.org

 15 15  0  0  0  0  0  0  0  0999 V2000
   -0.7552    1.1784    0.0151 C   0  0  0  0  0  0  0  0  0  0  0  0
   -1.4000   -0.0179   -0.0299 C   0  0  0  0  0  0  0  0  0  0  0  0
    1.3668    0.0893   -0.0572 C   0  0  0  0  0  0  0  0  0  0  0  0
    0.6800    1.2670   -0.0052 C   0  0  0  0  0  0  0  0  0  0  0  0
   -0.6810   -1.2851   -0.0760 C   0  0  0  0  0  0  0  0  0  0  0  0
    1.2964    2.5388    0.1113 N   0  0  0  0  0  0  0  0  0  0  0  0
   -1.1358   -2.4951   -0.1177 N   0  0  0  0  0  0  0  0  0  0  0  0
    0.7066   -1.1156   -0.0649 N   0  0  0  0  0  0  0  0  0  0  0  0
   -1.3264    2.1024    0.0776 H   0  0  0  0  0  0  0  0  0  0  0  0
   -2.4849   -0.0623   -0.0200 H   0  0  0  0  0  0  0  0  0  0  0  0
    2.4503    0.0330   -0.0754 H   0  0  0  0  0  0  0  0  0  0  0  0
    0.9446    3.2011   -0.5760 H   0  0  0  0  0  0  0  0  0  0  0  0
    2.3064    2.4884    0.0171 H   0  0  0  0  0  0  0  0  0  0  0  0
   -2.1564   -2.4800   -0.1157 H   0  0  0  0  0  0  0  0  0  0  0  0
    1.2329   -1.9797   -0.0887 H   0  0  0  0  0  0  0  0  0  0  0  0
  1  9  1  0  0  0  0
  2 10  1  0  0  0  0
  2  1  2  0  0  0  0
  3  4  2  0  0  0  0
  4  1  1  0  0  0  0
  4  6  1  0  0  0  0
  5  8  1  0  0  0  0
  5  2  1  0  0  0  0
  7 14  1  0  0  0  0
  7  5  2  0  0  0  0
  8  3  1  0  0  0  0
 11  3  1  0  0  0  0
 12  6  1  0  0  0  0
 13  6  1  0  0  0  0
 15  8  1  0  0  0  0
M  END
>  <HBA>
3

>  <HBD>
2

>  <TPSA>
64.93

>  <cid>
20314

>  <dipole>
3.76

>  <excitation_energy_1>
3.304

>  <excitation_energy_2>
3.933

>  <excitation_energy_3>
4.343

>  <excitation_energy_4>
4.599

>  <homo_energy>
-4.64

>  <homo_lumo_gap>
3.88

>  <logP>
1.408

>  <lumo_energy>
-0.759

>  <melting_point>
118.13

>  <molecular_refractivity>
33.05

>  <oscillator_strength_1>
0.0532

>  <oscillator_strength_2>
0.0019

>  <oscillator_strength_3>
0.0047

>  <oscillator_strength_4>
0.0004

>  <open_babel_can_smiles>
Nc1ccc(=N)[nH]c1

>  <mulliken_charges>
15
1   -0.103444
2   -0.206994
3   0.051918
4   0.217742
5   0.496298
6   -0.785947
7   -0.687805
8   -0.636943
9   0.138968
10   0.135695
11   0.147848
12   0.314746
13   0.31085
14   0.270728
15   0.336341

>  <lowdin_charges>
15
1   -0.140348
2   -0.19176
3   -0.126976
4   -0.00779
5   0.082001
6   -0.502734
7   -0.486522
8   -0.193037
9   0.163912
10   0.162484
11   0.160898
12   0.271453
13   0.265876
14   0.245683
15   0.296859

$$$$

