PCCDB-ID:  65083
public computational chemistry database (PCCDB) project, http://pccdb.org

 18 18  0  0  0  0  0  0  0  0999 V2000
   -1.4070    0.0022   -0.0849 C   0  0  0  0  0  0  0  0  0  0  0  0
   -0.7465    1.2324   -0.0858 C   0  0  0  0  0  0  0  0  0  0  0  0
    0.7365   -1.1201    0.0207 C   0  0  0  0  0  0  0  0  0  0  0  0
   -0.6629   -1.1825   -0.0421 C   0  0  0  0  0  0  0  0  0  0  0  0
    1.4129    0.0997    0.0178 C   0  0  0  0  0  0  0  0  0  0  0  0
    0.6424    1.2853   -0.0446 C   0  0  0  0  0  0  0  0  0  0  0  0
   -1.2885   -2.5404   -0.0320 C   0  0  0  0  0  0  0  0  0  0  0  0
    2.7944    0.1954    0.1290 N   0  0  0  0  0  0  0  0  0  0  0  0
    1.3575    2.4549   -0.0615 O   0  0  0  0  0  0  0  0  0  0  0  0
   -0.7220   -3.5396    0.3465 O   0  0  0  0  0  0  0  0  0  0  0  0
   -2.5720   -2.6255   -0.4869 O   0  0  0  0  0  0  0  0  0  0  0  0
   -2.4936   -0.0072   -0.0671 H   0  0  0  0  0  0  0  0  0  0  0  0
   -1.3169    2.1590   -0.1126 H   0  0  0  0  0  0  0  0  0  0  0  0
    1.2917   -2.0514    0.0785 H   0  0  0  0  0  0  0  0  0  0  0  0
    3.3135   -0.6167   -0.1772 H   0  0  0  0  0  0  0  0  0  0  0  0
    3.1891    1.0679   -0.1967 H   0  0  0  0  0  0  0  0  0  0  0  0
    0.7456    3.2052   -0.1107 H   0  0  0  0  0  0  0  0  0  0  0  0
   -2.8240   -1.7888   -0.9097 H   0  0  0  0  0  0  0  0  0  0  0  0
  1 12  1  0  0  0  0
  1  4  1  0  0  0  0
  2  1  2  0  0  0  0
  2  6  1  0  0  0  0
  3 14  1  0  0  0  0
  4  7  1  0  0  0  0
  4  3  2  0  0  0  0
  5  3  1  0  0  0  0
  5  8  1  0  0  0  0
  6  5  2  0  0  0  0
  7 10  2  0  0  0  0
  9  6  1  0  0  0  0
 11  7  1  0  0  0  0
 13  2  1  0  0  0  0
 15  8  1  0  0  0  0
 16  8  1  0  0  0  0
 17  9  1  0  0  0  0
 18 11  1  0  0  0  0
M  END
>  <HBA>
4

>  <HBD>
3

>  <TPSA>
83.55

>  <cid>
65083

>  <dipole>
6.25

>  <excitation_energy_1>
4.169

>  <excitation_energy_2>
4.683

>  <excitation_energy_3>
4.771

>  <excitation_energy_4>
4.909

>  <homo_energy>
-5.69

>  <homo_lumo_gap>
4.778

>  <logP>
1.254

>  <lumo_energy>
-0.912

>  <melting_point>
185.78

>  <molecular_refractivity>
39.83

>  <oscillator_strength_1>
0.0629

>  <oscillator_strength_2>
0.0047

>  <oscillator_strength_3>
0.0356

>  <oscillator_strength_4>
0.0328

>  <open_babel_can_smiles>
OC(=O)c1ccc(c(c1)N)O

>  <mulliken_charges>
18
1   -0.219843
2   -0.197457
3   -0.223744
4   0.056171
5   0.296717
6   0.324943
7   0.544109
8   -0.793868
9   -0.657459
10   -0.453781
11   -0.580363
12   0.128362
13   0.125348
14   0.157913
15   0.327556
16   0.342079
17   0.415623
18   0.407693

>  <lowdin_charges>
18
1   -0.183337
2   -0.203557
3   -0.170357
4   -0.06554
5   0.042547
6   0.082242
7   0.197432
8   -0.481127
9   -0.383089
10   -0.24924
11   -0.36405
12   0.153851
13   0.15753
14   0.176981
15   0.2826
16   0.287728
17   0.364708
18   0.35468

$$$$

