PCCDB-ID:  3868
public computational chemistry database (PCCDB) project, http://pccdb.org

 20 20  0  0  1  0  0  0  0  0999 V2000
   -0.7898   -0.7827   -0.3816 C   0  0  0  0  0  0  0  0  0  0  0  0
    1.0052    0.8227   -0.3754 C   0  0  0  0  0  0  0  0  0  0  0  0
    0.7554   -0.6891   -0.3038 C   0  0  2  0  0  0  0  0  0  0  0  0
   -1.2323    0.4283    0.4564 C   0  0  1  0  0  0  0  0  0  0  0  0
    1.4544   -1.4664   -1.4119 C   0  0  0  0  0  0  0  0  0  0  0  0
   -1.4498    0.0308    1.9372 C   0  0  0  0  0  0  0  0  0  0  0  0
   -0.1369    1.4251    0.3587 N   0  0  0  0  0  0  0  0  0  0  0  0
    1.9832   -0.9638   -2.3718 O   0  0  0  0  0  0  0  0  0  0  0  0
    1.4211   -2.8180   -1.2800 O   0  0  0  0  0  0  0  0  0  0  0  0
   -2.1888   -0.8692    2.2644 O   0  0  0  0  0  0  0  0  0  0  0  0
   -0.7448    0.7719    2.7985 O   0  0  0  0  0  0  0  0  0  0  0  0
   -1.2083   -1.7122    0.0117 H   0  0  0  0  0  0  0  0  0  0  0  0
   -1.1138   -0.6683   -1.4220 H   0  0  0  0  0  0  0  0  0  0  0  0
    1.0325    1.1310   -1.4266 H   0  0  0  0  0  0  0  0  0  0  0  0
    1.9559    1.1092    0.0842 H   0  0  0  0  0  0  0  0  0  0  0  0
    1.0875   -1.0769    0.6700 H   0  0  0  0  0  0  0  0  0  0  0  0
   -2.1836    0.8374    0.0994 H   0  0  0  0  0  0  0  0  0  0  0  0
   -0.4471    2.2827   -0.0875 H   0  0  0  0  0  0  0  0  0  0  0  0
    0.9693   -3.0682   -0.4566 H   0  0  0  0  0  0  0  0  0  0  0  0
   -0.2132    1.3769    2.2126 H   0  0  0  0  0  0  0  0  0  0  0  0
  1  3  1  0  0  0  0
  1 12  1  0  0  0  0
  1  4  1  0  0  0  0
  2  3  1  0  0  0  0
  2 15  1  0  0  0  0
  2  7  1  0  0  0  0
  3 16  1  1  0  0  0
  4 17  1  6  0  0  0
  4  6  1  0  0  0  0
  5  9  1  0  0  0  0
  5  3  1  0  0  0  0
  6 10  2  0  0  0  0
  6 11  1  0  0  0  0
  7  4  1  0  0  0  0
  8  5  2  0  0  0  0
  9 19  1  0  0  0  0
 13  1  1  0  0  0  0
 14  2  1  0  0  0  0
 18  7  1  0  0  0  0
 20 11  1  0  0  0  0
M  END
>  <HBA>
5

>  <HBD>
3

>  <TPSA>
86.63

>  <cid>
3868

>  <dipole>
2.36

>  <excitation_energy_1>
5.318

>  <excitation_energy_2>
5.633

>  <excitation_energy_3>
5.864

>  <excitation_energy_4>
5.952

>  <homo_energy>
-6.934

>  <homo_lumo_gap>
6.659

>  <logP>
-0.537

>  <lumo_energy>
-0.275

>  <melting_point>
177.51

>  <molecular_refractivity>
39.1

>  <oscillator_strength_1>
0.001

>  <oscillator_strength_2>
0.0005

>  <oscillator_strength_3>
0.0009

>  <oscillator_strength_4>
0.0005

>  <open_babel_can_smiles>
OC(=O)[C@H]1NC[C@@H](C1)C(=O)O

>  <mulliken_charges>
20
1   -0.293903
2   -0.116655
3   -0.264881
4   -0.073776
5   0.621371
6   0.598141
7   -0.639901
8   -0.439878
9   -0.565752
10   -0.467439
11   -0.575335
12   0.183629
13   0.167689
14   0.17682
15   0.167268
16   0.168923
17   0.179083
18   0.327008
19   0.417005
20   0.430584

>  <lowdin_charges>
20
1   -0.27761
2   -0.199344
3   -0.180834
4   -0.107763
5   0.199167
6   0.164274
7   -0.370889
8   -0.234676
9   -0.349884
10   -0.262184
11   -0.352137
12   0.170728
13   0.159142
14   0.157169
15   0.158038
16   0.160695
17   0.171266
18   0.27367
19   0.362782
20   0.358389

$$$$

