PCCDB-ID:  12524
public computational chemistry database (PCCDB) project, http://pccdb.org

 12 11  0  0  0  0  0  0  0  0999 V2000
    1.2877    0.0778   -0.0711 C   0  0  0  0  0  0  0  0  0  0  0  0
    1.2905    1.3088    0.8278 C   0  0  0  0  0  0  0  0  0  0  0  0
    2.6450   -0.2545   -0.6426 C   0  0  0  0  0  0  0  0  0  0  0  0
   -0.0670    1.6421    1.3979 C   0  0  0  0  0  0  0  0  0  0  0  0
    3.6562    0.3796   -0.4318 O   0  0  0  0  0  0  0  0  0  0  0  0
   -1.0808    1.0157    1.1767 O   0  0  0  0  0  0  0  0  0  0  0  0
    0.5840    0.2003   -0.9071 H   0  0  0  0  0  0  0  0  0  0  0  0
    0.9159   -0.8056    0.4679 H   0  0  0  0  0  0  0  0  0  0  0  0
    1.6622    2.1918    0.2881 H   0  0  0  0  0  0  0  0  0  0  0  0
    1.9942    1.1871    1.6639 H   0  0  0  0  0  0  0  0  0  0  0  0
    2.6668   -1.1540   -1.2979 H   0  0  0  0  0  0  0  0  0  0  0  0
   -0.0867    2.5352    2.0621 H   0  0  0  0  0  0  0  0  0  0  0  0
  1  8  1  0  0  0  0
  1  2  1  0  0  0  0
  2  4  1  0  0  0  0
  2 10  1  0  0  0  0
  3  5  2  0  0  0  0
  3  1  1  0  0  0  0
  4 12  1  0  0  0  0
  6  4  2  0  0  0  0
  7  1  1  0  0  0  0
  9  2  1  0  0  0  0
 11  3  1  0  0  0  0
M  END
>  <HBA>
2

>  <HBD>
0

>  <TPSA>
34.14

>  <cid>
12524

>  <dipole>
0.02

>  <excitation_energy_1>
4.357

>  <excitation_energy_2>
4.364

>  <excitation_energy_3>
5.578

>  <excitation_energy_4>
5.581

>  <homo_energy>
-7.146

>  <homo_lumo_gap>
6.313

>  <logP>
0.164

>  <lumo_energy>
-0.833

>  <melting_point>
38.21

>  <molecular_refractivity>
21.74

>  <oscillator_strength_1>
0.0

>  <oscillator_strength_2>
0.0003

>  <oscillator_strength_3>
0.0

>  <oscillator_strength_4>
0.0

>  <open_babel_can_smiles>
O=CCCC=O

>  <mulliken_charges>
12
1   -0.344598
2   -0.344751
3   0.248849
4   0.248882
5   -0.383781
6   -0.383775
7   0.183468
8   0.182899
9   0.183454
10   0.182919
11   0.113219
12   0.113216

>  <lowdin_charges>
12
1   -0.311191
2   -0.3112
3   0.058055
4   0.058011
5   -0.221338
6   -0.221324
7   0.177385
8   0.177121
9   0.177459
10   0.177047
11   0.119975
12   0.120001

$$$$

