PCCDB-ID:  8070
public computational chemistry database (PCCDB) project, http://pccdb.org

 18 17  0  0  0  0  0  0  0  0999 V2000
    1.4621   -0.1292    0.8101 C   0  0  0  0  0  0  0  0  0  0  0  0
    5.2175   -0.3788   -3.5044 C   0  0  0  0  0  0  0  0  0  0  0  0
    3.1237    0.9189   -0.6346 C   0  0  0  0  0  0  0  0  0  0  0  0
    4.3859    0.6553   -1.4579 C   0  0  0  0  0  0  0  0  0  0  0  0
    2.5241   -0.3329   -0.1708 N   0  0  0  0  0  0  0  0  0  0  0  0
    4.1178   -0.2818   -2.5493 N   0  0  0  0  0  0  0  0  0  0  0  0
    0.9985   -1.0917    1.0516 H   0  0  0  0  0  0  0  0  0  0  0  0
    0.6652    0.5644    0.4819 H   0  0  0  0  0  0  0  0  0  0  0  0
    1.8922    0.2746    1.7342 H   0  0  0  0  0  0  0  0  0  0  0  0
    4.9902   -1.1520   -4.2460 H   0  0  0  0  0  0  0  0  0  0  0  0
    6.1978   -0.6157   -3.0495 H   0  0  0  0  0  0  0  0  0  0  0  0
    5.3220    0.5736   -4.0375 H   0  0  0  0  0  0  0  0  0  0  0  0
    2.4185    1.5291   -1.2290 H   0  0  0  0  0  0  0  0  0  0  0  0
    3.3979    1.5122    0.2475 H   0  0  0  0  0  0  0  0  0  0  0  0
    5.1943    0.3047   -0.7896 H   0  0  0  0  0  0  0  0  0  0  0  0
    4.7215    1.6032   -1.8983 H   0  0  0  0  0  0  0  0  0  0  0  0
    2.1224   -0.7979   -0.9836 H   0  0  0  0  0  0  0  0  0  0  0  0
    3.9735   -1.2009   -2.1338 H   0  0  0  0  0  0  0  0  0  0  0  0
  1  7  1  0  0  0  0
  1  9  1  0  0  0  0
  2 11  1  0  0  0  0
  2  6  1  0  0  0  0
  3  5  1  0  0  0  0
  3 14  1  0  0  0  0
  4 15  1  0  0  0  0
  4  3  1  0  0  0  0
  5  1  1  0  0  0  0
  6 18  1  0  0  0  0
  6  4  1  0  0  0  0
  8  1  1  0  0  0  0
 10  2  1  0  0  0  0
 12  2  1  0  0  0  0
 13  3  1  0  0  0  0
 16  4  1  0  0  0  0
 17  5  1  0  0  0  0
M  END
>  <HBA>
2

>  <HBD>
2

>  <TPSA>
24.06

>  <cid>
8070

>  <dipole>
0.05

>  <excitation_energy_1>
5.373

>  <excitation_energy_2>
5.632

>  <excitation_energy_3>
5.844

>  <excitation_energy_4>
5.924

>  <homo_energy>
-5.758

>  <homo_lumo_gap>
8.055

>  <logP>
0.207

>  <lumo_energy>
2.297

>  <melting_point>
29.12

>  <molecular_refractivity>
26.95

>  <oscillator_strength_1>
0.0002

>  <oscillator_strength_2>
0.0123

>  <oscillator_strength_3>
0.0123

>  <oscillator_strength_4>
0.077

>  <open_babel_can_smiles>
CNCCNC

>  <mulliken_charges>
18
1   -0.29761
2   -0.297674
3   -0.11853
4   -0.118914
5   -0.554035
6   -0.553869
7   0.146312
8   0.120753
9   0.150561
10   0.146373
11   0.120782
12   0.150575
13   0.119331
14   0.132258
15   0.119431
16   0.132286
17   0.30099
18   0.300978

>  <lowdin_charges>
18
1   -0.360313
2   -0.35919
3   -0.208505
4   -0.207618
5   -0.370786
6   -0.36959
7   0.149456
8   0.122426
9   0.147399
10   0.150047
11   0.121202
12   0.147153
13   0.123436
14   0.142875
15   0.122775
16   0.142248
17   0.254136
18   0.252851

$$$$

