PCCDB-ID:  62612
public computational chemistry database (PCCDB) project, http://pccdb.org

 21 22  0  0  1  0  0  0  0  0999 V2000
    1.3398    0.2488   -0.1280 C   0  0  0  0  0  0  0  0  0  0  0  0
   -0.2828    1.5583   -1.6569 C   0  0  0  0  0  0  0  0  0  0  0  0
   -1.0706    0.6708    0.6504 C   0  0  0  0  0  0  0  0  0  0  0  0
    0.5633    3.4078   -0.6805 C   0  0  0  0  0  0  0  0  0  0  0  0
   -0.7035    2.7622    1.3546 C   0  0  0  0  0  0  0  0  0  0  0  0
    0.1136    1.1708   -0.1968 C   0  0  1  0  0  0  0  0  0  0  0  0
    0.4300    2.4891    0.4427 N   0  0  1  0  0  0  0  0  0  0  0  0
    1.8511    0.1655    1.1869 O   0  0  0  0  0  0  0  0  0  0  0  0
   -0.3367    2.9802   -1.6910 O   0  0  0  0  0  0  0  0  0  0  0  0
   -1.7470    1.8607    1.0376 O   0  0  0  0  0  0  0  0  0  0  0  0
    2.1058    0.6124   -0.8335 H   0  0  0  0  0  0  0  0  0  0  0  0
    1.0722   -0.7696   -0.4345 H   0  0  0  0  0  0  0  0  0  0  0  0
   -1.2665    1.1804   -1.9481 H   0  0  0  0  0  0  0  0  0  0  0  0
    0.4656    1.1828   -2.3739 H   0  0  0  0  0  0  0  0  0  0  0  0
   -0.6994    0.1196    1.5274 H   0  0  0  0  0  0  0  0  0  0  0  0
   -1.7711    0.0437    0.0939 H   0  0  0  0  0  0  0  0  0  0  0  0
    1.6003    3.3705   -1.0502 H   0  0  0  0  0  0  0  0  0  0  0  0
    0.3189    4.4355   -0.4009 H   0  0  0  0  0  0  0  0  0  0  0  0
   -1.0772    3.7847    1.2487 H   0  0  0  0  0  0  0  0  0  0  0  0
   -0.3691    2.6001    2.3907 H   0  0  0  0  0  0  0  0  0  0  0  0
    1.9319    1.0941    1.4734 H   0  0  0  0  0  0  0  0  0  0  0  0
  1  8  1  0  0  0  0
  2  6  1  0  0  0  0
  3 10  1  0  0  0  0
  3 15  1  0  0  0  0
  4 18  1  0  0  0  0
  5 20  1  0  0  0  0
  6  1  1  1  0  0  0
  6  7  1  0  0  0  0
  6  3  1  0  0  0  0
  7  4  1  6  0  0  0
  7  5  1  0  0  0  0
  8 21  1  0  0  0  0
  9  2  1  0  0  0  0
  9  4  1  0  0  0  0
 10  5  1  0  0  0  0
 11  1  1  0  0  0  0
 12  1  1  0  0  0  0
 13  2  1  0  0  0  0
 14  2  1  0  0  0  0
 16  3  1  0  0  0  0
 17  4  1  0  0  0  0
 19  5  1  0  0  0  0
M  END
>  <HBA>
4

>  <HBD>
1

>  <TPSA>
41.93

>  <cid>
62612

>  <dipole>
0.87

>  <excitation_energy_1>
6.29

>  <excitation_energy_2>
6.531

>  <excitation_energy_3>
6.634

>  <excitation_energy_4>
6.751

>  <homo_energy>
-6.8

>  <homo_lumo_gap>
8.792

>  <logP>
-1.067

>  <lumo_energy>
1.992

>  <melting_point>
32.97

>  <molecular_refractivity>
36.91

>  <oscillator_strength_1>
0.0063

>  <oscillator_strength_2>
0.0114

>  <oscillator_strength_3>
0.0046

>  <oscillator_strength_4>
0.0176

>  <open_babel_can_smiles>
OC[C@]12COCN2COC1

>  <mulliken_charges>
21
1   -0.033503
2   -0.044402
3   -0.064153
4   0.080076
5   0.106531
6   0.13065
7   -0.475006
8   -0.618883
9   -0.46731
10   -0.46592
11   0.122722
12   0.146355
13   0.156576
14   0.132797
15   0.154728
16   0.153278
17   0.138851
18   0.15619
19   0.152459
20   0.137218
21   0.400747

>  <lowdin_charges>
21
1   -0.142332
2   -0.144651
3   -0.144396
4   -0.078823
5   -0.072273
6   0.012445
7   -0.208874
8   -0.462774
9   -0.271575
10   -0.263385
11   0.130769
12   0.14826
13   0.156204
14   0.135704
15   0.146621
16   0.156815
17   0.130178
18   0.152084
19   0.15014
20   0.130015
21   0.339846

$$$$

