PCCDB-ID:  26421
public computational chemistry database (PCCDB) project, http://pccdb.org

 25 25  0  0  0  0  0  0  0  0999 V2000
    3.9021   -0.7495   -0.3120 C   0  0  0  0  0  0  0  0  0  0  0  0
    2.6844   -0.2445   -1.0857 C   0  0  0  0  0  0  0  0  0  0  0  0
   -0.5609    3.4180   -2.5452 C   0  0  0  0  0  0  0  0  0  0  0  0
    0.7950    4.0385   -2.1739 C   0  0  0  0  0  0  0  0  0  0  0  0
   -0.6359    1.9544   -2.0854 C   0  0  0  0  0  0  0  0  0  0  0  0
    1.9557    3.1787   -2.6900 C   0  0  0  0  0  0  0  0  0  0  0  0
    0.5667    1.1506   -2.6053 C   0  0  0  0  0  0  0  0  0  0  0  0
    2.8595    1.2104   -1.5373 C   0  0  0  0  0  0  0  0  0  0  0  0
    1.8251    1.7929   -2.2346 N   0  0  0  0  0  0  0  0  0  0  0  0
    3.8901    1.8270   -1.2791 O   0  0  0  0  0  0  0  0  0  0  0  0
    3.7535   -1.7914   -0.0078 H   0  0  0  0  0  0  0  0  0  0  0  0
    4.0748   -0.1450    0.5826 H   0  0  0  0  0  0  0  0  0  0  0  0
    4.8065   -0.6889   -0.9231 H   0  0  0  0  0  0  0  0  0  0  0  0
    1.7823   -0.3292   -0.4648 H   0  0  0  0  0  0  0  0  0  0  0  0
    2.5058   -0.8784   -1.9652 H   0  0  0  0  0  0  0  0  0  0  0  0
   -0.6918    3.4599   -3.6368 H   0  0  0  0  0  0  0  0  0  0  0  0
   -1.3829    3.9978   -2.1084 H   0  0  0  0  0  0  0  0  0  0  0  0
    0.8768    4.1268   -1.0823 H   0  0  0  0  0  0  0  0  0  0  0  0
    0.8809    5.0512   -2.5871 H   0  0  0  0  0  0  0  0  0  0  0  0
   -1.5638    1.4839   -2.4348 H   0  0  0  0  0  0  0  0  0  0  0  0
   -0.6420    1.9108   -0.9878 H   0  0  0  0  0  0  0  0  0  0  0  0
    2.9210    3.5436   -2.3399 H   0  0  0  0  0  0  0  0  0  0  0  0
    1.9634    3.1904   -3.7920 H   0  0  0  0  0  0  0  0  0  0  0  0
    0.5114    1.0838   -3.7044 H   0  0  0  0  0  0  0  0  0  0  0  0
    0.5393    0.1311   -2.2212 H   0  0  0  0  0  0  0  0  0  0  0  0
  1 11  1  0  0  0  0
  1 12  1  0  0  0  0
  2 14  1  0  0  0  0
  2  1  1  0  0  0  0
  3  4  1  0  0  0  0
  3 17  1  0  0  0  0
  3  5  1  0  0  0  0
  4 18  1  0  0  0  0
  5 21  1  0  0  0  0
  6 22  1  0  0  0  0
  6  9  1  0  0  0  0
  6  4  1  0  0  0  0
  7  9  1  0  0  0  0
  7 25  1  0  0  0  0
  7  5  1  0  0  0  0
  8 10  2  0  0  0  0
  8  2  1  0  0  0  0
  9  8  1  0  0  0  0
 13  1  1  0  0  0  0
 15  2  1  0  0  0  0
 16  3  1  0  0  0  0
 19  4  1  0  0  0  0
 20  5  1  0  0  0  0
 23  6  1  0  0  0  0
 24  7  1  0  0  0  0
M  END
>  <HBA>
2

>  <HBD>
0

>  <TPSA>
20.31

>  <cid>
26421

>  <dipole>
3.61

>  <excitation_energy_1>
5.562

>  <excitation_energy_2>
5.617

>  <excitation_energy_3>
6.063

>  <excitation_energy_4>
6.099

>  <homo_energy>
-6.223

>  <homo_lumo_gap>
7.173

>  <logP>
1.347

>  <lumo_energy>
0.95

>  <melting_point>
18.71

>  <molecular_refractivity>
45.47

>  <oscillator_strength_1>
0.0068

>  <oscillator_strength_2>
0.031

>  <oscillator_strength_3>
0.0266

>  <oscillator_strength_4>
0.0478

>  <open_babel_can_smiles>
CCC(=O)N1CCCCC1

>  <mulliken_charges>
25
1   -0.427141
2   -0.371233
3   -0.266616
4   -0.261545
5   -0.256519
6   -0.147911
7   -0.146593
8   0.598053
9   -0.425736
10   -0.520093
11   0.131534
12   0.161519
13   0.162959
14   0.156429
15   0.157771
16   0.130719
17   0.139671
18   0.144408
19   0.137823
20   0.136426
21   0.140027
22   0.19363
23   0.13359
24   0.140697
25   0.158132

>  <lowdin_charges>
25
1   -0.436618
2   -0.308513
3   -0.279599
4   -0.28012
5   -0.282794
6   -0.198088
7   -0.195646
8   0.158065
9   -0.114007
10   -0.317316
11   0.144422
12   0.159823
13   0.160472
14   0.155945
15   0.156991
16   0.136809
17   0.148793
18   0.144686
19   0.148214
20   0.148298
21   0.142345
22   0.17868
23   0.134171
24   0.136462
25   0.158524

$$$$

