PCCDB-ID:  51569
public computational chemistry database (PCCDB) project, http://pccdb.org

 30 30  0  0  0  0  0  0  0  0999 V2000
    0.8930   -0.0037    0.3244 C   0  0  0  0  0  0  0  0  0  0  0  0
    7.4775    0.7754    0.5071 C   0  0  0  0  0  0  0  0  0  0  0  0
    7.3434   -1.2895   -0.8880 C   0  0  0  0  0  0  0  0  0  0  0  0
    7.0410    0.9300   -1.9868 C   0  0  0  0  0  0  0  0  0  0  0  0
    3.0812    1.1595    0.0077 C   0  0  0  0  0  0  0  0  0  0  0  0
    4.5354   -1.1281   -0.3755 C   0  0  0  0  0  0  0  0  0  0  0  0
    2.3786   -0.0457    0.0638 C   0  0  0  0  0  0  0  0  0  0  0  0
    5.2371    0.0723   -0.4323 C   0  0  0  0  0  0  0  0  0  0  0  0
    3.1574   -1.2011   -0.1363 C   0  0  0  0  0  0  0  0  0  0  0  0
    4.4571    1.2358   -0.2292 C   0  0  0  0  0  0  0  0  0  0  0  0
    6.7545    0.1224   -0.6968 C   0  0  0  0  0  0  0  0  0  0  0  0
    2.5760   -2.5457   -0.1066 N   0  0  0  0  0  0  0  0  0  0  0  0
    5.0698    2.4544   -0.2684 O   0  0  0  0  0  0  0  0  0  0  0  0
    3.3225   -3.5070   -0.3092 O   0  0  0  0  0  0  0  0  0  0  0  0
    1.3680   -2.6602    0.1209 O   0  0  0  0  0  0  0  0  0  0  0  0
    0.5644    1.0356    0.4250 H   0  0  0  0  0  0  0  0  0  0  0  0
    0.6287   -0.5481    1.2351 H   0  0  0  0  0  0  0  0  0  0  0  0
    0.3288   -0.4759   -0.4844 H   0  0  0  0  0  0  0  0  0  0  0  0
    8.5581    0.8003    0.3218 H   0  0  0  0  0  0  0  0  0  0  0  0
    7.3066    0.1974    1.4228 H   0  0  0  0  0  0  0  0  0  0  0  0
    7.1391    1.7994    0.6783 H   0  0  0  0  0  0  0  0  0  0  0  0
    8.4187   -1.2070   -1.0799 H   0  0  0  0  0  0  0  0  0  0  0  0
    6.8965   -1.8113   -1.7418 H   0  0  0  0  0  0  0  0  0  0  0  0
    7.2154   -1.9146    0.0029 H   0  0  0  0  0  0  0  0  0  0  0  0
    8.1211    0.9562   -2.1747 H   0  0  0  0  0  0  0  0  0  0  0  0
    6.6841    1.9592   -1.9115 H   0  0  0  0  0  0  0  0  0  0  0  0
    6.5610    0.4604   -2.8534 H   0  0  0  0  0  0  0  0  0  0  0  0
    2.5295    2.0868    0.1553 H   0  0  0  0  0  0  0  0  0  0  0  0
    5.0468   -2.0684   -0.5175 H   0  0  0  0  0  0  0  0  0  0  0  0
    4.4081    3.1472   -0.1129 H   0  0  0  0  0  0  0  0  0  0  0  0
  1 16  1  0  0  0  0
  1 17  1  0  0  0  0
  2 21  1  0  0  0  0
  2 20  1  0  0  0  0
  3 11  1  0  0  0  0
  3 24  1  0  0  0  0
  4 26  1  0  0  0  0
  4 11  1  0  0  0  0
  5  7  1  0  0  0  0
  5 28  1  0  0  0  0
  6  9  1  0  0  0  0
  7  1  1  0  0  0  0
  8  6  2  0  0  0  0
  8 10  1  0  0  0  0
  9 12  1  0  0  0  0
  9  7  2  0  0  0  0
 10  5  2  0  0  0  0
 11  8  1  0  0  0  0
 11  2  1  0  0  0  0
 12 15  2  0  0  0  0
 13 10  1  0  0  0  0
 13 30  1  0  0  0  0
 14 12  2  0  0  0  0
 18  1  1  0  0  0  0
 19  2  1  0  0  0  0
 22  3  1  0  0  0  0
 23  3  1  0  0  0  0
 25  4  1  0  0  0  0
 27  4  1  0  0  0  0
 29  6  1  0  0  0  0
M  END
>  <HBA>
1

>  <HBD>
1

>  <TPSA>
66.05

>  <cid>
51569

>  <dipole>
5.38

>  <excitation_energy_1>
3.735

>  <excitation_energy_2>
4.059

>  <excitation_energy_3>
4.286

>  <excitation_energy_4>
4.332

>  <homo_energy>
-6.634

>  <homo_lumo_gap>
4.588

>  <logP>
3.429

>  <lumo_energy>
-2.046

>  <melting_point>
97.72

>  <molecular_refractivity>
61.52

>  <oscillator_strength_1>
0.0001

>  <oscillator_strength_2>
0.1317

>  <oscillator_strength_3>
0.13

>  <oscillator_strength_4>
0.0007

>  <open_babel_can_smiles>
O=N(=O)c1cc(c(cc1C)O)C(C)(C)C

>  <mulliken_charges>
30
1   -0.502323
2   -0.452507
3   -0.458462
4   -0.453184
5   -0.274916
6   -0.261924
7   0.166042
8   0.146599
9   0.228836
10   0.334179
11   0.026023
12   0.373263
13   -0.63423
14   -0.408526
15   -0.414922
16   0.142347
17   0.186153
18   0.185637
19   0.139728
20   0.142886
21   0.16729
22   0.145858
23   0.151138
24   0.150889
25   0.139631
26   0.167855
27   0.142836
28   0.122455
29   0.185447
30   0.415901

>  <lowdin_charges>
30
1   -0.437783
2   -0.44322
3   -0.443908
4   -0.444011
5   -0.219908
6   -0.143542
7   0.033769
8   -0.025841
9   -0.028606
10   0.117817
11   0.022724
12   0.306639
13   -0.359552
14   -0.26148
15   -0.253913
16   0.148477
17   0.176893
18   0.177346
19   0.146586
20   0.149439
21   0.158584
22   0.151953
23   0.152961
24   0.152369
25   0.146635
26   0.158729
27   0.149918
28   0.156095
29   0.191537
30   0.363294

$$$$

