PCCDB-ID:  37580
public computational chemistry database (PCCDB) project, http://pccdb.org

 23 23  0  0  0  0  0  0  0  0999 V2000
    3.3642    0.3361    1.0573 C   0  0  0  0  0  0  0  0  0  0  0  0
    2.7200   -4.7255   -1.6083 C   0  0  0  0  0  0  0  0  0  0  0  0
    4.6254   -1.1989   -4.3471 C   0  0  0  0  0  0  0  0  0  0  0  0
    2.2990    0.0739   -0.0231 C   0  0  0  0  0  0  0  0  0  0  0  0
    2.5056   -2.3183   -0.8465 C   0  0  0  0  0  0  0  0  0  0  0  0
    3.4427   -0.5857   -2.1916 C   0  0  0  0  0  0  0  0  0  0  0  0
    2.9658   -3.2456   -1.7875 C   0  0  0  0  0  0  0  0  0  0  0  0
    3.8728   -1.5679   -3.0902 C   0  0  0  0  0  0  0  0  0  0  0  0
    2.7440   -0.9549   -1.0391 C   0  0  0  0  0  0  0  0  0  0  0  0
    3.6376   -2.8753   -2.8902 N   0  0  0  0  0  0  0  0  0  0  0  0
    3.0130    1.0843    1.7767 H   0  0  0  0  0  0  0  0  0  0  0  0
    4.2947    0.7032    0.6102 H   0  0  0  0  0  0  0  0  0  0  0  0
    3.5995   -0.5818    1.6073 H   0  0  0  0  0  0  0  0  0  0  0  0
    3.1590   -5.0931   -0.6725 H   0  0  0  0  0  0  0  0  0  0  0  0
    3.1631   -5.2742   -2.4421 H   0  0  0  0  0  0  0  0  0  0  0  0
    1.6466   -4.9501   -1.5716 H   0  0  0  0  0  0  0  0  0  0  0  0
    5.5515   -0.6585   -4.1147 H   0  0  0  0  0  0  0  0  0  0  0  0
    4.0252   -0.5476   -4.9947 H   0  0  0  0  0  0  0  0  0  0  0  0
    4.8785   -2.1049   -4.9019 H   0  0  0  0  0  0  0  0  0  0  0  0
    2.0632    1.0155   -0.5344 H   0  0  0  0  0  0  0  0  0  0  0  0
    1.3725   -0.2639    0.4579 H   0  0  0  0  0  0  0  0  0  0  0  0
    1.9608   -2.6604    0.0310 H   0  0  0  0  0  0  0  0  0  0  0  0
    3.6499    0.4631   -2.3942 H   0  0  0  0  0  0  0  0  0  0  0  0
  1 13  1  0  0  0  0
  1 11  1  0  0  0  0
  2 16  1  0  0  0  0
  2 14  1  0  0  0  0
  3 17  1  0  0  0  0
  3  8  1  0  0  0  0
  4 21  1  0  0  0  0
  4  1  1  0  0  0  0
  5 22  1  0  0  0  0
  6  9  2  0  0  0  0
  7  2  1  0  0  0  0
  7  5  2  0  0  0  0
  8 10  2  0  0  0  0
  8  6  1  0  0  0  0
  9  5  1  0  0  0  0
  9  4  1  0  0  0  0
 10  7  1  0  0  0  0
 12  1  1  0  0  0  0
 15  2  1  0  0  0  0
 18  3  1  0  0  0  0
 19  3  1  0  0  0  0
 20  4  1  0  0  0  0
 23  6  1  0  0  0  0
M  END
>  <HBA>
1

>  <HBD>
0

>  <TPSA>
12.89

>  <cid>
37580

>  <dipole>
1.98

>  <excitation_energy_1>
5.053

>  <excitation_energy_2>
5.088

>  <excitation_energy_3>
5.25

>  <excitation_energy_4>
5.806

>  <homo_energy>
-6.438

>  <homo_lumo_gap>
6.223

>  <logP>
2.261

>  <lumo_energy>
-0.215

>  <melting_point>
31.67

>  <molecular_refractivity>
43.94

>  <oscillator_strength_1>
0.0042

>  <oscillator_strength_2>
0.0

>  <oscillator_strength_3>
0.0377

>  <oscillator_strength_4>
0.0529

>  <open_babel_can_smiles>
CCc1cc(C)nc(c1)C

>  <mulliken_charges>
23
1   -0.43572
2   -0.521953
3   -0.521928
4   -0.340305
5   -0.224115
6   -0.224026
7   0.311246
8   0.311138
9   0.201579
10   -0.517762
11   0.147236
12   0.15208
13   0.152072
14   0.157522
15   0.174254
16   0.158351
17   0.157437
18   0.158416
19   0.174259
20   0.146429
21   0.146428
22   0.118701
23   0.118662

>  <lowdin_charges>
23
1   -0.440364
2   -0.44918
3   -0.451437
4   -0.271668
5   -0.201728
6   -0.200731
7   0.05771
8   0.058246
9   0.025751
10   -0.176041
11   0.152466
12   0.152249
13   0.152376
14   0.159946
15   0.170194
16   0.158705
17   0.159912
18   0.161634
19   0.169726
20   0.151099
21   0.151175
22   0.155858
23   0.154103

$$$$

