PCCDB-ID:  61155
public computational chemistry database (PCCDB) project, http://pccdb.org

 22 22  0  0  0  0  0  0  0  0999 V2000
    1.4007   -1.5281    0.4366 C   0  0  0  0  0  0  0  0  0  0  0  0
    5.4074   -3.5455   -2.3739 C   0  0  0  0  0  0  0  0  0  0  0  0
    7.4762   -0.0995   -1.0251 C   0  0  0  0  0  0  0  0  0  0  0  0
    6.7661    0.8803   -0.3374 C   0  0  0  0  0  0  0  0  0  0  0  0
    6.8328   -1.2452   -1.5050 C   0  0  0  0  0  0  0  0  0  0  0  0
    5.3955    0.7085   -0.1203 C   0  0  0  0  0  0  0  0  0  0  0  0
    2.9105   -1.4792    0.4594 C   0  0  0  0  0  0  0  0  0  0  0  0
    5.4611   -1.4190   -1.2972 C   0  0  0  0  0  0  0  0  0  0  0  0
    4.7560   -0.4270   -0.5910 C   0  0  0  0  0  0  0  0  0  0  0  0
    3.6208   -2.1471    1.1669 O   0  0  0  0  0  0  0  0  0  0  0  0
    4.7263   -2.4778   -1.7331 O   0  0  0  0  0  0  0  0  0  0  0  0
    3.3751   -0.5452   -0.4333 O   0  0  0  0  0  0  0  0  0  0  0  0
    1.0217   -1.2659    1.4295 H   0  0  0  0  0  0  0  0  0  0  0  0
    1.0854   -2.5548    0.2272 H   0  0  0  0  0  0  0  0  0  0  0  0
    0.9796   -0.8525   -0.3090 H   0  0  0  0  0  0  0  0  0  0  0  0
    4.6436   -4.2904   -2.6032 H   0  0  0  0  0  0  0  0  0  0  0  0
    6.1638   -3.9901   -1.7148 H   0  0  0  0  0  0  0  0  0  0  0  0
    5.8849   -3.2173   -3.3065 H   0  0  0  0  0  0  0  0  0  0  0  0
    8.5424    0.0186   -1.1979 H   0  0  0  0  0  0  0  0  0  0  0  0
    7.2672    1.7691    0.0333 H   0  0  0  0  0  0  0  0  0  0  0  0
    7.4035   -1.9950   -2.0409 H   0  0  0  0  0  0  0  0  0  0  0  0
    4.8092    1.4499    0.4138 H   0  0  0  0  0  0  0  0  0  0  0  0
  1  7  1  0  0  0  0
  1 13  1  0  0  0  0
  2 11  1  0  0  0  0
  2 17  1  0  0  0  0
  3  4  2  0  0  0  0
  4  6  1  0  0  0  0
  4 20  1  0  0  0  0
  5  8  2  0  0  0  0
  5  3  1  0  0  0  0
  6 22  1  0  0  0  0
  7 10  2  0  0  0  0
  8  9  1  0  0  0  0
  9 12  1  0  0  0  0
  9  6  2  0  0  0  0
 11  8  1  0  0  0  0
 12  7  1  0  0  0  0
 14  1  1  0  0  0  0
 15  1  1  0  0  0  0
 16  2  1  0  0  0  0
 18  2  1  0  0  0  0
 19  3  1  0  0  0  0
 21  5  1  0  0  0  0
M  END
>  <HBA>
3

>  <HBD>
0

>  <TPSA>
35.53

>  <cid>
61155

>  <dipole>
1.73

>  <excitation_energy_1>
5.006

>  <excitation_energy_2>
5.412

>  <excitation_energy_3>
5.588

>  <excitation_energy_4>
5.73

>  <homo_energy>
-5.959

>  <homo_lumo_gap>
5.902

>  <logP>
1.621

>  <lumo_energy>
-0.057

>  <melting_point>
35.26

>  <molecular_refractivity>
44.43

>  <oscillator_strength_1>
0.0494

>  <oscillator_strength_2>
0.0027

>  <oscillator_strength_3>
0.0004

>  <oscillator_strength_4>
0.0269

>  <open_babel_can_smiles>
COc1ccccc1OC(=O)C

>  <mulliken_charges>
22
1   -0.536051
2   -0.215593
3   -0.128098
4   -0.145069
5   -0.207861
6   -0.161321
7   0.612234
8   0.377038
9   0.309855
10   -0.445911
11   -0.509803
12   -0.524465
13   0.186183
14   0.188314
15   0.179438
16   0.171876
17   0.159839
18   0.151881
19   0.130875
20   0.131049
21   0.136211
22   0.139381

>  <lowdin_charges>
22
1   -0.465741
2   -0.27752
3   -0.147799
4   -0.17152
5   -0.208721
6   -0.161037
7   0.214082
8   0.092174
9   0.077668
10   -0.246454
11   -0.189667
12   -0.16483
13   0.180116
14   0.180821
15   0.173487
16   0.165323
17   0.151224
18   0.145161
19   0.157671
20   0.160596
21   0.165625
22   0.169341

$$$$

