PCCDB-ID:  65401
public computational chemistry database (PCCDB) project, http://pccdb.org

 12 11  0  0  0  0  0  0  0  0999 V2000
    1.1355    0.0563    0.3162 C   0  0  0  0  0  0  0  0  0  0  0  0
    0.4672   -0.6593   -0.5004 N   0  0  0  0  0  0  0  0  0  0  0  0
   -0.7193    0.8942    1.5352 N   0  0  0  0  0  0  0  0  0  0  0  0
    0.6699    0.9462    1.2920 N   0  0  0  0  0  0  0  0  0  0  0  0
    2.5433    0.0051    0.2998 N   0  0  0  0  0  0  0  0  0  0  0  0
    3.0290   -0.8071   -0.7594 O   0  0  0  0  0  0  0  0  0  0  0  0
   -0.5327   -0.5671   -0.3220 H   0  0  0  0  0  0  0  0  0  0  0  0
   -1.0523    1.8392    1.7046 H   0  0  0  0  0  0  0  0  0  0  0  0
   -0.9279    0.3221    2.3534 H   0  0  0  0  0  0  0  0  0  0  0  0
    1.2695    0.9753    2.1139 H   0  0  0  0  0  0  0  0  0  0  0  0
    2.9361    0.9359    0.1553 H   0  0  0  0  0  0  0  0  0  0  0  0
    2.1956   -1.0560   -1.2286 H   0  0  0  0  0  0  0  0  0  0  0  0
  1  4  1  0  0  0  0
  2  7  1  0  0  0  0
  2  1  2  0  0  0  0
  3  8  1  0  0  0  0
  3  9  1  0  0  0  0
  4  3  1  0  0  0  0
  4 10  1  0  0  0  0
  5  1  1  0  0  0  0
  6  5  1  0  0  0  0
 11  5  1  0  0  0  0
 12  6  1  0  0  0  0
M  END
>  <HBA>
5

>  <HBD>
4

>  <TPSA>
96.66

>  <cid>
65401

>  <dipole>
5.14

>  <excitation_energy_1>
5.304

>  <excitation_energy_2>
5.822

>  <excitation_energy_3>
5.85

>  <excitation_energy_4>
6.082

>  <homo_energy>
-6.014

>  <homo_lumo_gap>
7.138

>  <logP>
-0.055

>  <lumo_energy>
1.124

>  <melting_point>
184.2

>  <molecular_refractivity>
19.55

>  <oscillator_strength_1>
0.0016

>  <oscillator_strength_2>
0.0095

>  <oscillator_strength_3>
0.0058

>  <oscillator_strength_4>
0.0268

>  <open_babel_can_smiles>
NNC(=N)NO

>  <mulliken_charges>
12
1   0.631644
2   -0.693477
3   -0.581832
4   -0.512142
5   -0.351958
6   -0.542128
7   0.315166
8   0.331717
9   0.318091
10   0.325274
11   0.332984
12   0.426662

>  <lowdin_charges>
12
1   0.105692
2   -0.463072
3   -0.45937
4   -0.272529
5   -0.192455
6   -0.416112
7   0.271048
8   0.270379
9   0.260006
10   0.27134
11   0.274989
12   0.350085

$$$$

