PCCDB-ID:  17090
public computational chemistry database (PCCDB) project, http://pccdb.org

 28 27  0  0  1  0  0  0  0  0999 V2000
    1.1889    0.7878    0.7841 C   0  0  0  0  0  0  0  0  0  0  0  0
    8.1201   -2.7002    0.5054 C   0  0  0  0  0  0  0  0  0  0  0  0
    9.3363   -0.4735    0.5384 C   0  0  0  0  0  0  0  0  0  0  0  0
    2.7841   -2.3907    0.9909 C   0  0  0  0  0  0  0  0  0  0  0  0
    2.0680   -0.0940    0.3072 C   0  0  0  0  0  0  0  0  0  0  0  0
    5.6073   -1.1360    1.5962 C   0  0  0  0  0  0  0  0  0  0  0  0
    6.9702   -0.5812    1.2764 C   0  0  0  0  0  0  0  0  0  0  0  0
    4.5031   -0.5026    0.7242 C   0  0  0  0  0  0  0  0  0  0  0  0
    8.0519   -1.2226    0.8075 C   0  0  0  0  0  0  0  0  0  0  0  0
    3.0586   -0.8805    1.1305 C   0  0  2  0  0  0  0  0  0  0  0  0
    0.5019    1.3229    0.1335 H   0  0  0  0  0  0  0  0  0  0  0  0
    1.1211    1.0099    1.8477 H   0  0  0  0  0  0  0  0  0  0  0  0
    8.8900   -3.1872    1.1204 H   0  0  0  0  0  0  0  0  0  0  0  0
    8.4102   -2.8672   -0.5414 H   0  0  0  0  0  0  0  0  0  0  0  0
    7.1766   -3.2231    0.6776 H   0  0  0  0  0  0  0  0  0  0  0  0
   10.1651   -0.8785    1.1366 H   0  0  0  0  0  0  0  0  0  0  0  0
    9.2433    0.5928    0.7677 H   0  0  0  0  0  0  0  0  0  0  0  0
    9.6384   -0.5700   -0.5141 H   0  0  0  0  0  0  0  0  0  0  0  0
    1.7508   -2.6243    1.2688 H   0  0  0  0  0  0  0  0  0  0  0  0
    3.4464   -2.9842    1.6303 H   0  0  0  0  0  0  0  0  0  0  0  0
    2.9342   -2.7205   -0.0455 H   0  0  0  0  0  0  0  0  0  0  0  0
    2.0976   -0.2847   -0.7684 H   0  0  0  0  0  0  0  0  0  0  0  0
    5.3753   -0.9283    2.6530 H   0  0  0  0  0  0  0  0  0  0  0  0
    5.5920   -2.2247    1.4887 H   0  0  0  0  0  0  0  0  0  0  0  0
    7.0643    0.4940    1.4436 H   0  0  0  0  0  0  0  0  0  0  0  0
    4.6714   -0.7791   -0.3266 H   0  0  0  0  0  0  0  0  0  0  0  0
    4.5986    0.5905    0.7705 H   0  0  0  0  0  0  0  0  0  0  0  0
    2.9202   -0.6005    2.1854 H   0  0  0  0  0  0  0  0  0  0  0  0
  1 12  1  0  0  0  0
  2 15  1  0  0  0  0
  2  9  1  0  0  0  0
  2 13  1  0  0  0  0
  3 17  1  0  0  0  0
  3  9  1  0  0  0  0
  3 16  1  0  0  0  0
  4 10  1  0  0  0  0
  4 19  1  0  0  0  0
  4 20  1  0  0  0  0
  5  1  2  0  0  0  0
  5 10  1  0  0  0  0
  6 23  1  0  0  0  0
  7 25  1  0  0  0  0
  7  6  1  0  0  0  0
  8 27  1  0  0  0  0
  8 10  1  0  0  0  0
  8  6  1  0  0  0  0
  9  7  2  0  0  0  0
 10 28  1  1  0  0  0
 11  1  1  0  0  0  0
 14  2  1  0  0  0  0
 18  3  1  0  0  0  0
 21  4  1  0  0  0  0
 22  5  1  0  0  0  0
 24  6  1  0  0  0  0
 26  8  1  0  0  0  0
M  END
>  <HBA>
0

>  <HBD>
0

>  <TPSA>
0.0

>  <cid>
17090

>  <dipole>
0.54

>  <excitation_energy_1>
5.671

>  <excitation_energy_2>
5.931

>  <excitation_energy_3>
6.151

>  <excitation_energy_4>
6.218

>  <homo_energy>
-6.15

>  <homo_lumo_gap>
6.789

>  <logP>
3.555

>  <lumo_energy>
0.639

>  <melting_point>
-36.61

>  <molecular_refractivity>
49.24

>  <oscillator_strength_1>
0.0011

>  <oscillator_strength_2>
0.0852

>  <oscillator_strength_3>
0.073

>  <oscillator_strength_4>
0.0299

>  <open_babel_can_smiles>
C=C[C@H](CCC=C(C)C)C

>  <mulliken_charges>
28
1   -0.348842
2   -0.513533
3   -0.505689
4   -0.451551
5   -0.036531
6   -0.307523
7   -0.160964
8   -0.252949
9   0.187761
10   -0.117604
11   0.136517
12   0.13324
13   0.15172
14   0.150768
15   0.153872
16   0.14816
17   0.150732
18   0.148084
19   0.150293
20   0.146833
21   0.139474
22   0.119357
23   0.136728
24   0.14079
25   0.109681
26   0.131151
27   0.137866
28   0.122158

>  <lowdin_charges>
28
1   -0.347248
2   -0.44489
3   -0.437167
4   -0.445257
5   -0.138977
6   -0.272131
7   -0.1879
8   -0.269351
9   -0.01084
10   -0.120022
11   0.158326
12   0.151176
13   0.156045
14   0.153331
15   0.154819
16   0.152626
17   0.152458
18   0.150544
19   0.152722
20   0.151123
21   0.14529
22   0.145445
23   0.144095
24   0.143479
25   0.142186
26   0.139307
27   0.143131
28   0.137677

$$$$

