PCCDB-ID:  37271
public computational chemistry database (PCCDB) project, http://pccdb.org

 32 33  0  0  1  0  0  0  0  0999 V2000
    0.5406    0.3025    0.2416 C   0  0  0  0  0  0  0  0  0  0  0  0
    4.5357    1.1809    3.2630 C   0  0  0  0  0  0  0  0  0  0  0  0
    4.2417    2.1129    2.2660 C   0  0  0  0  0  0  0  0  0  0  0  0
    4.0284   -0.1165    3.1677 C   0  0  0  0  0  0  0  0  0  0  0  0
    3.4430    1.7511    1.1796 C   0  0  0  0  0  0  0  0  0  0  0  0
    3.2300   -0.4782    2.0819 C   0  0  0  0  0  0  0  0  0  0  0  0
    3.1416    0.0674   -3.4230 C   0  0  0  0  0  0  0  0  0  0  0  0
    3.2894   -1.3683   -1.3158 C   0  0  0  0  0  0  0  0  0  0  0  0
    2.9313    0.4524    1.0799 C   0  0  0  0  0  0  0  0  0  0  0  0
    3.3830    0.0600   -1.9216 C   0  0  2  0  0  0  0  0  0  0  0  0
    4.4369    1.8487   -4.2838 C   0  0  0  0  0  0  0  0  0  0  0  0
    2.0085    0.0617   -0.0822 C   0  0  1  0  0  0  0  0  0  0  0  0
    5.5088    1.1918   -4.0735 N   0  0  0  0  0  0  0  0  0  0  0  0
    4.2722    3.0847   -4.8220 O   0  0  0  0  0  0  0  0  0  0  0  0
    3.2165    1.3855   -3.9900 O   0  0  0  0  0  0  0  0  0  0  0  0
    2.1774   -1.3097   -0.4277 O   0  0  0  0  0  0  0  0  0  0  0  0
    2.3347    0.7807   -1.2661 O   0  0  0  0  0  0  0  0  0  0  0  0
    0.2499   -0.2815    1.1193 H   0  0  0  0  0  0  0  0  0  0  0  0
   -0.0714    0.0047   -0.6141 H   0  0  0  0  0  0  0  0  0  0  0  0
    0.3739    1.3618    0.4559 H   0  0  0  0  0  0  0  0  0  0  0  0
    5.1580    1.4626    4.1084 H   0  0  0  0  0  0  0  0  0  0  0  0
    4.6364    3.1236    2.3322 H   0  0  0  0  0  0  0  0  0  0  0  0
    4.2574   -0.8496    3.9370 H   0  0  0  0  0  0  0  0  0  0  0  0
    3.2180    2.4701    0.3975 H   0  0  0  0  0  0  0  0  0  0  0  0
    2.8404   -1.4884    1.9983 H   0  0  0  0  0  0  0  0  0  0  0  0
    2.1218   -0.2653   -3.6319 H   0  0  0  0  0  0  0  0  0  0  0  0
    3.8661   -0.5821   -3.9222 H   0  0  0  0  0  0  0  0  0  0  0  0
    4.2115   -1.6335   -0.7840 H   0  0  0  0  0  0  0  0  0  0  0  0
    3.0784   -2.1415   -2.0627 H   0  0  0  0  0  0  0  0  0  0  0  0
    4.3526    0.5186   -1.7018 H   0  0  0  0  0  0  0  0  0  0  0  0
    6.3420    1.6936   -4.3776 H   0  0  0  0  0  0  0  0  0  0  0  0
    5.1472    3.4465   -5.0299 H   0  0  0  0  0  0  0  0  0  0  0  0
  1 20  1  0  0  0  0
  1 18  1  0  0  0  0
  2 21  1  0  0  0  0
  3 22  1  0  0  0  0
  3  2  2  0  0  0  0
  4  2  1  0  0  0  0
  4 23  1  0  0  0  0
  5  3  1  0  0  0  0
  6  4  2  0  0  0  0
  7 10  1  0  0  0  0
  8 28  1  0  0  0  0
  8 16  1  0  0  0  0
  9  5  2  0  0  0  0
  9  6  1  0  0  0  0
 10 30  1  1  0  0  0
 10  8  1  0  0  0  0
 10 17  1  0  0  0  0
 11 13  2  0  0  0  0
 11 15  1  0  0  0  0
 12  1  1  1  0  0  0
 12  9  1  0  0  0  0
 14 11  1  0  0  0  0
 15  7  1  0  0  0  0
 16 12  1  0  0  0  0
 17 12  1  0  0  0  0
 19  1  1  0  0  0  0
 24  5  1  0  0  0  0
 25  6  1  0  0  0  0
 26  7  1  0  0  0  0
 27  7  1  0  0  0  0
 29  8  1  0  0  0  0
 31 13  1  0  0  0  0
 32 14  1  0  0  0  0
M  END
>  <HBA>
5

>  <HBD>
1

>  <TPSA>
70.78

>  <cid>
37271

>  <dipole>
2.52

>  <excitation_energy_1>
5.328

>  <excitation_energy_2>
5.86

>  <excitation_energy_3>
5.902

>  <excitation_energy_4>
5.943

>  <homo_energy>
-6.604

>  <homo_lumo_gap>
6.58

>  <logP>
2.07

>  <lumo_energy>
-0.024

>  <melting_point>
92.48

>  <molecular_refractivity>
59.76

>  <oscillator_strength_1>
0.0003

>  <oscillator_strength_2>
0.0087

>  <oscillator_strength_3>
0.0028

>  <oscillator_strength_4>
0.0179

>  <open_babel_can_smiles>
OC(=N)OC[C@@H]1CO[C@@](O1)(C)c1ccccc1

>  <mulliken_charges>
32
1   -0.446956
2   -0.125208
3   -0.134807
4   -0.134599
5   -0.172539
6   -0.171893
7   -0.050306
8   -0.068359
9   0.098638
10   0.110018
11   0.647444
12   0.453116
13   -0.634042
14   -0.564844
15   -0.439753
16   -0.500135
17   -0.512392
18   0.157654
19   0.160833
20   0.160235
21   0.12799
22   0.128576
23   0.1289
24   0.146486
25   0.142976
26   0.164904
27   0.172933
28   0.150497
29   0.150412
30   0.167342
31   0.277917
32   0.408962

>  <lowdin_charges>
32
1   -0.441807
2   -0.157489
3   -0.155479
4   -0.157998
5   -0.162745
6   -0.161254
7   -0.135556
8   -0.146669
9   -0.035588
10   -0.02365
11   0.192207
12   0.213714
13   -0.479688
14   -0.359112
15   -0.167619
16   -0.259393
17   -0.255173
18   0.163891
19   0.163755
20   0.16338
21   0.15739
22   0.15599
23   0.157983
24   0.167386
25   0.164
26   0.16135
27   0.16518
28   0.146064
29   0.152063
30   0.154809
31   0.258857
32   0.3612

$$$$

