PCCDB-ID:  8191
public computational chemistry database (PCCDB) project, http://pccdb.org

 34 33  0  0  0  0  0  0  0  0999 V2000
    5.1918   -3.5938    4.1738 C   0  0  0  0  0  0  0  0  0  0  0  0
    6.2809    4.8067   -2.2683 C   0  0  0  0  0  0  0  0  0  0  0  0
    4.2323   -4.4562    3.3455 C   0  0  0  0  0  0  0  0  0  0  0  0
    6.4661    3.3129   -2.5525 C   0  0  0  0  0  0  0  0  0  0  0  0
    3.6273   -3.7446    2.1235 C   0  0  0  0  0  0  0  0  0  0  0  0
    5.1563    2.5167   -2.4791 C   0  0  0  0  0  0  0  0  0  0  0  0
    4.6512   -3.3732    1.0381 C   0  0  0  0  0  0  0  0  0  0  0  0
    5.3423    1.0196   -2.7665 C   0  0  0  0  0  0  0  0  0  0  0  0
    3.9842   -2.7309   -0.1818 C   0  0  0  0  0  0  0  0  0  0  0  0
    4.0298    0.2423   -2.6809 C   0  0  0  0  0  0  0  0  0  0  0  0
    5.2786   -2.3137   -1.4373 S   0  0  0  0  0  0  0  0  0  0  0  0
    4.1737   -1.5662   -3.0371 S   0  0  0  0  0  0  0  0  0  0  0  0
    5.5460   -4.1389    5.0560 H   0  0  0  0  0  0  0  0  0  0  0  0
    4.6978   -2.6788    4.5242 H   0  0  0  0  0  0  0  0  0  0  0  0
    6.0748   -3.2945    3.5983 H   0  0  0  0  0  0  0  0  0  0  0  0
    7.2328    5.3461   -2.3325 H   0  0  0  0  0  0  0  0  0  0  0  0
    5.8716    4.9726   -1.2641 H   0  0  0  0  0  0  0  0  0  0  0  0
    5.5897    5.2646   -2.9866 H   0  0  0  0  0  0  0  0  0  0  0  0
    3.4105   -4.7956    3.9901 H   0  0  0  0  0  0  0  0  0  0  0  0
    4.7516   -5.3658    3.0120 H   0  0  0  0  0  0  0  0  0  0  0  0
    7.1865    2.8892   -1.8387 H   0  0  0  0  0  0  0  0  0  0  0  0
    6.9131    3.1819   -3.5480 H   0  0  0  0  0  0  0  0  0  0  0  0
    3.1042   -2.8357    2.4559 H   0  0  0  0  0  0  0  0  0  0  0  0
    2.8603   -4.3939    1.6788 H   0  0  0  0  0  0  0  0  0  0  0  0
    4.4339    2.9417   -3.1919 H   0  0  0  0  0  0  0  0  0  0  0  0
    4.7097    2.6455   -1.4818 H   0  0  0  0  0  0  0  0  0  0  0  0
    5.1925   -4.2761    0.7238 H   0  0  0  0  0  0  0  0  0  0  0  0
    5.4006   -2.6835    1.4459 H   0  0  0  0  0  0  0  0  0  0  0  0
    6.0562    0.5930   -2.0503 H   0  0  0  0  0  0  0  0  0  0  0  0
    5.7779    0.8811   -3.7645 H   0  0  0  0  0  0  0  0  0  0  0  0
    3.4559   -1.8148    0.1018 H   0  0  0  0  0  0  0  0  0  0  0  0
    3.2644   -3.4137   -0.6433 H   0  0  0  0  0  0  0  0  0  0  0  0
    3.3153    0.5904   -3.4385 H   0  0  0  0  0  0  0  0  0  0  0  0
    3.5525    0.3705   -1.7033 H   0  0  0  0  0  0  0  0  0  0  0  0
  1 14  1  0  0  0  0
  1 13  1  0  0  0  0
  2 17  1  0  0  0  0
  3 19  1  0  0  0  0
  3  1  1  0  0  0  0
  4  6  1  0  0  0  0
  4  2  1  0  0  0  0
  4 21  1  0  0  0  0
  5 23  1  0  0  0  0
  5  3  1  0  0  0  0
  6 26  1  0  0  0  0
  7 28  1  0  0  0  0
  7  5  1  0  0  0  0
  8 10  1  0  0  0  0
  8  6  1  0  0  0  0
  8 29  1  0  0  0  0
  9 31  1  0  0  0  0
  9  7  1  0  0  0  0
 10 34  1  0  0  0  0
 11  9  1  0  0  0  0
 12 10  1  0  0  0  0
 12 11  1  0  0  0  0
 15  1  1  0  0  0  0
 16  2  1  0  0  0  0
 18  2  1  0  0  0  0
 20  3  1  0  0  0  0
 22  4  1  0  0  0  0
 24  5  1  0  0  0  0
 25  6  1  0  0  0  0
 27  7  1  0  0  0  0
 30  8  1  0  0  0  0
 32  9  1  0  0  0  0
 33 10  1  0  0  0  0
M  END
>  <HBA>
2

>  <HBD>
0

>  <TPSA>
50.6

>  <cid>
8191

>  <dipole>
2.39

>  <excitation_energy_1>
4.55

>  <excitation_energy_2>
4.611

>  <excitation_energy_3>
5.727

>  <excitation_energy_4>
5.806

>  <homo_energy>
-6.275

>  <homo_lumo_gap>
5.823

>  <logP>
4.748

>  <lumo_energy>
-0.452

>  <melting_point>
-11.28

>  <molecular_refractivity>
65.37

>  <oscillator_strength_1>
0.0074

>  <oscillator_strength_2>
0.0029

>  <oscillator_strength_3>
0.0026

>  <oscillator_strength_4>
0.0153

>  <open_babel_can_smiles>
CCCCCSSCCCCC

>  <mulliken_charges>
34
1   -0.445364
2   -0.441814
3   -0.249296
4   -0.247238
5   -0.251426
6   -0.249813
7   -0.272246
8   -0.250172
9   -0.407554
10   -0.424046
11   0.003459
12   0.005185
13   0.14545
14   0.141627
15   0.148541
16   0.143797
17   0.14153
18   0.141795
19   0.134649
20   0.134038
21   0.13459
22   0.133725
23   0.130486
24   0.133851
25   0.128207
26   0.128283
27   0.15247
28   0.154312
29   0.160356
30   0.146743
31   0.168775
32   0.180902
33   0.174452
34   0.171745

>  <lowdin_charges>
34
1   -0.448887
2   -0.444952
3   -0.273595
4   -0.271737
5   -0.275602
6   -0.275862
7   -0.282733
8   -0.282253
9   -0.377478
10   -0.380702
11   0.016299
12   0.027312
13   0.152261
14   0.14672
15   0.148849
16   0.150383
17   0.145726
18   0.147688
19   0.144952
20   0.141249
21   0.142247
22   0.140149
23   0.139595
24   0.144307
25   0.138726
26   0.137425
27   0.151217
28   0.151777
29   0.155297
30   0.148521
31   0.155345
32   0.163482
33   0.167632
34   0.156644

$$$$

