PCCDB-ID:  5504
public computational chemistry database (PCCDB) project, http://pccdb.org

 24 25  0  0  1  0  0  0  0  0999 V2000
   -1.9675   -1.7897   -0.5720 C   0  0  0  0  0  0  0  0  0  0  0  0
   -1.2565   -1.4503   -1.7228 C   0  0  0  0  0  0  0  0  0  0  0  0
   -1.3034   -1.8533    0.6563 C   0  0  0  0  0  0  0  0  0  0  0  0
    0.1115   -1.1756   -1.6453 C   0  0  0  0  0  0  0  0  0  0  0  0
    0.0614   -1.5798    0.7303 C   0  0  0  0  0  0  0  0  0  0  0  0
    4.4341   -3.5423    1.1419 C   0  0  0  0  0  0  0  0  0  0  0  0
    3.6631   -4.3715    0.0789 C   0  0  0  0  0  0  0  0  0  0  0  0
    2.2767   -0.9492   -0.3256 C   0  0  0  0  0  0  0  0  0  0  0  0
    0.7862   -1.2352   -0.4205 C   0  0  0  0  0  0  0  0  0  0  0  0
    3.0763   -2.1581    0.0876 C   0  0  3  0  0  0  0  0  0  0  0  0
    3.8093   -2.2057    1.1400 N   0  0  0  0  0  0  0  0  0  0  0  0
    3.0737   -3.2926   -0.7287 N   0  0  0  0  0  0  0  0  0  0  0  0
   -3.0318   -2.0015   -0.6292 H   0  0  0  0  0  0  0  0  0  0  0  0
   -1.7640   -1.3970   -2.6825 H   0  0  0  0  0  0  0  0  0  0  0  0
   -1.8509   -2.1152    1.5580 H   0  0  0  0  0  0  0  0  0  0  0  0
    0.6594   -0.9035   -2.5451 H   0  0  0  0  0  0  0  0  0  0  0  0
    0.5779   -1.6328    1.6859 H   0  0  0  0  0  0  0  0  0  0  0  0
    5.4938   -3.4389    0.8700 H   0  0  0  0  0  0  0  0  0  0  0  0
    4.3950   -3.9880    2.1411 H   0  0  0  0  0  0  0  0  0  0  0  0
    2.8848   -4.9974    0.5412 H   0  0  0  0  0  0  0  0  0  0  0  0
    4.3118   -5.0153   -0.5227 H   0  0  0  0  0  0  0  0  0  0  0  0
    2.4778   -0.1662    0.4115 H   0  0  0  0  0  0  0  0  0  0  0  0
    2.6454   -0.5948   -1.2962 H   0  0  0  0  0  0  0  0  0  0  0  0
    2.2079   -3.4931   -1.2175 H   0  0  0  0  0  0  0  0  0  0  0  0
  1  3  2  0  0  0  0
  2  4  2  0  0  0  0
  2  1  1  0  0  0  0
  3  5  1  0  0  0  0
  3 15  1  0  0  0  0
  4  9  1  0  0  0  0
  5 17  1  0  0  0  0
  6 19  1  0  0  0  0
  7 20  1  0  0  0  0
  7  6  1  0  0  0  0
  8 10  1  0  0  0  0
  8 22  1  0  0  0  0
  9  8  1  0  0  0  0
  9  5  2  0  0  0  0
 10 11  1  0  0  0  0
 11  6  1  0  0  0  0
 12  7  1  0  0  0  0
 12 10  1  0  0  0  0
 13  1  1  0  0  0  0
 14  2  1  0  0  0  0
 16  4  1  0  0  0  0
 18  6  1  0  0  0  0
 21  7  1  0  0  0  0
 23  8  1  0  0  0  0
 24 12  1  0  0  0  0
M  RAD  2  10   2  11   2
M  END
>  <HBA>
2

>  <HBD>
1

>  <TPSA>
24.39

>  <cid>
5504

>  <dipole>
2.63

>  <excitation_energy_1>
4.893

>  <excitation_energy_2>
4.978

>  <excitation_energy_3>
5.29

>  <excitation_energy_4>
5.293

>  <homo_energy>
-5.834

>  <homo_lumo_gap>
5.657

>  <logP>
0.995

>  <lumo_energy>
-0.177

>  <melting_point>
72.78

>  <molecular_refractivity>
57.44

>  <oscillator_strength_1>
0.0013

>  <oscillator_strength_2>
0.0044

>  <oscillator_strength_3>
0.0004

>  <oscillator_strength_4>
0.0043

>  <open_babel_can_smiles>
C1CN[C]([N]1)Cc1ccccc1

>  <mulliken_charges>
24
1   -0.130695
2   -0.126378
3   -0.128103
4   -0.199691
5   -0.175993
6   -0.160573
7   -0.148455
8   -0.41702
9   0.148126
10   0.489668
11   -0.470822
12   -0.60048
13   0.131019
14   0.131431
15   0.132826
16   0.12796
17   0.14565
18   0.15021
19   0.146787
20   0.139791
21   0.149204
22   0.183579
23   0.163505
24   0.318453

>  <lowdin_charges>
24
1   -0.156654
2   -0.155376
3   -0.153561
4   -0.175541
5   -0.162587
6   -0.208386
7   -0.214334
8   -0.279136
9   -0.008064
10   0.082882
11   -0.244794
12   -0.319903
13   0.156672
14   0.158433
15   0.159604
16   0.156487
17   0.164743
18   0.144892
19   0.148507
20   0.136732
21   0.150926
22   0.179175
23   0.164341
24   0.274941

$$$$

