PCCDB-ID:  37868
public computational chemistry database (PCCDB) project, http://pccdb.org

 28 28  0  0  0  0  0  0  0  0999 V2000
    4.4365   -2.9942   -1.8730 C   0  0  0  0  0  0  0  0  0  0  0  0
    5.0864   -2.4760   -0.6037 C   0  0  0  0  0  0  0  0  0  0  0  0
    1.5369    4.9822   -2.7693 C   0  0  0  0  0  0  0  0  0  0  0  0
    2.8707    4.6023   -2.9398 C   0  0  0  0  0  0  0  0  0  0  0  0
    0.8541    4.6000   -1.6143 C   0  0  0  0  0  0  0  0  0  0  0  0
    3.5180    3.8502   -1.9600 C   0  0  0  0  0  0  0  0  0  0  0  0
    1.5030    3.8416   -0.6376 C   0  0  0  0  0  0  0  0  0  0  0  0
    3.5510    2.6702    0.2831 C   0  0  0  0  0  0  0  0  0  0  0  0
    2.8412    3.4633   -0.7944 C   0  0  0  0  0  0  0  0  0  0  0  0
    5.2669   -0.3487    0.5150 C   0  0  0  0  0  0  0  0  0  0  0  0
    4.3147    1.5665   -0.3033 N   0  0  0  0  0  0  0  0  0  0  0  0
    5.0388    0.8891    0.6967 N   0  0  0  0  0  0  0  0  0  0  0  0
    6.0223   -1.0576    1.3947 O   0  0  0  0  0  0  0  0  0  0  0  0
    4.8030   -1.0616   -0.5301 O   0  0  0  0  0  0  0  0  0  0  0  0
    4.6203   -4.0696   -1.9716 H   0  0  0  0  0  0  0  0  0  0  0  0
    4.8465   -2.4900   -2.7536 H   0  0  0  0  0  0  0  0  0  0  0  0
    3.3546   -2.8286   -1.8523 H   0  0  0  0  0  0  0  0  0  0  0  0
    6.1709   -2.6246   -0.6168 H   0  0  0  0  0  0  0  0  0  0  0  0
    4.6856   -2.9729    0.2863 H   0  0  0  0  0  0  0  0  0  0  0  0
    1.0333    5.5693   -3.5330 H   0  0  0  0  0  0  0  0  0  0  0  0
    3.4085    4.8938   -3.8385 H   0  0  0  0  0  0  0  0  0  0  0  0
   -0.1853    4.8862   -1.4748 H   0  0  0  0  0  0  0  0  0  0  0  0
    4.5516    3.5447   -2.0926 H   0  0  0  0  0  0  0  0  0  0  0  0
    0.9645    3.5393    0.2582 H   0  0  0  0  0  0  0  0  0  0  0  0
    2.8223    2.3316    1.0395 H   0  0  0  0  0  0  0  0  0  0  0  0
    4.2764    3.3012    0.8120 H   0  0  0  0  0  0  0  0  0  0  0  0
    3.6893    0.9287   -0.8000 H   0  0  0  0  0  0  0  0  0  0  0  0
    6.2923   -0.4161    2.0747 H   0  0  0  0  0  0  0  0  0  0  0  0
  1 17  1  0  0  0  0
  1  2  1  0  0  0  0
  2 14  1  0  0  0  0
  2 19  1  0  0  0  0
  3  5  1  0  0  0  0
  4  3  2  0  0  0  0
  4  6  1  0  0  0  0
  5 22  1  0  0  0  0
  5  7  2  0  0  0  0
  6  9  2  0  0  0  0
  7 24  1  0  0  0  0
  8 26  1  0  0  0  0
  8 25  1  0  0  0  0
  9  7  1  0  0  0  0
  9  8  1  0  0  0  0
 10 12  2  0  0  0  0
 10 13  1  0  0  0  0
 11  8  1  0  0  0  0
 11 12  1  0  0  0  0
 13 28  1  0  0  0  0
 14 10  1  0  0  0  0
 15  1  1  0  0  0  0
 16  1  1  0  0  0  0
 18  2  1  0  0  0  0
 20  3  1  0  0  0  0
 21  4  1  0  0  0  0
 23  6  1  0  0  0  0
 27 11  1  0  0  0  0
M  END
>  <HBA>
4

>  <HBD>
2

>  <TPSA>
50.36

>  <cid>
37868

>  <dipole>
2.41

>  <excitation_energy_1>
4.445

>  <excitation_energy_2>
4.575

>  <excitation_energy_3>
4.672

>  <excitation_energy_4>
5.083

>  <homo_energy>
-5.113

>  <homo_lumo_gap>
5.252

>  <logP>
2.219

>  <lumo_energy>
0.139

>  <melting_point>
82.29

>  <molecular_refractivity>
53.11

>  <oscillator_strength_1>
0.0108

>  <oscillator_strength_2>
0.0058

>  <oscillator_strength_3>
0.0038

>  <oscillator_strength_4>
0.0033

>  <open_babel_can_smiles>
CCO/C(=N\NCc1ccccc1)/O

>  <mulliken_charges>
28
1   -0.461542
2   -0.02339
3   -0.129274
4   -0.13173
5   -0.129089
6   -0.162817
7   -0.186766
8   -0.175849
9   0.128285
10   0.739539
11   -0.444426
12   -0.388602
13   -0.613331
14   -0.490682
15   0.153283
16   0.167475
17   0.163025
18   0.160841
19   0.157023
20   0.12533
21   0.126749
22   0.125514
23   0.146489
24   0.121538
25   0.124241
26   0.165186
27   0.308365
28   0.424615

>  <lowdin_charges>
28
1   -0.445831
2   -0.112569
3   -0.161808
4   -0.157258
5   -0.156785
6   -0.156228
7   -0.169082
8   -0.199975
9   -0.01532
10   0.158798
11   -0.27448
12   -0.20973
13   -0.374051
14   -0.206264
15   0.158437
16   0.162359
17   0.157781
18   0.149231
19   0.149702
20   0.156777
21   0.15635
22   0.154279
23   0.165479
24   0.153827
25   0.128392
26   0.160097
27   0.253808
28   0.374065

$$$$

