PCCDB-ID:  61951
public computational chemistry database (PCCDB) project, http://pccdb.org

 18 19  0  0  0  0  0  0  0  0999 V2000
    1.0764   -0.0557    0.0162 C   0  0  0  0  0  0  0  0  0  0  0  0
    4.5227   -1.2885   -0.0172 C   0  0  0  0  0  0  0  0  0  0  0  0
    6.7700    0.0165   -0.0029 C   0  0  0  0  0  0  0  0  0  0  0  0
    5.3464    2.3479    0.0459 C   0  0  0  0  0  0  0  0  0  0  0  0
    2.5810   -0.0806    0.0091 C   0  0  0  0  0  0  0  0  0  0  0  0
    5.2737   -0.1168    0.0006 C   0  0  0  0  0  0  0  0  0  0  0  0
    4.5402    1.0723    0.0240 C   0  0  0  0  0  0  0  0  0  0  0  0
    3.1842   -1.2798   -0.0134 N   0  0  0  0  0  0  0  0  0  0  0  0
    3.2089    1.1097    0.0283 N   0  0  0  0  0  0  0  0  0  0  0  0
    7.1231    1.8419    0.0272 S   0  0  0  0  0  0  0  0  0  0  0  0
    0.6801   -1.0713   -0.0327 H   0  0  0  0  0  0  0  0  0  0  0  0
    0.7010    0.5257   -0.8332 H   0  0  0  0  0  0  0  0  0  0  0  0
    0.7087    0.4338    0.9253 H   0  0  0  0  0  0  0  0  0  0  0  0
    4.9988   -2.2687   -0.0354 H   0  0  0  0  0  0  0  0  0  0  0  0
    7.2217   -0.4238   -0.8982 H   0  0  0  0  0  0  0  0  0  0  0  0
    7.2290   -0.4554    0.8724 H   0  0  0  0  0  0  0  0  0  0  0  0
    5.1240    2.9322    0.9443 H   0  0  0  0  0  0  0  0  0  0  0  0
    5.1156    2.9687   -0.8255 H   0  0  0  0  0  0  0  0  0  0  0  0
  1 13  1  0  0  0  0
  2  8  1  0  0  0  0
  2  6  2  0  0  0  0
  3  6  1  0  0  0  0
  3 10  1  0  0  0  0
  3 16  1  0  0  0  0
  4 17  1  0  0  0  0
  5  1  1  0  0  0  0
  5  9  1  0  0  0  0
  6  7  1  0  0  0  0
  7  9  2  0  0  0  0
  7  4  1  0  0  0  0
  8  5  2  0  0  0  0
 10  4  1  0  0  0  0
 11  1  1  0  0  0  0
 12  1  1  0  0  0  0
 14  2  1  0  0  0  0
 15  3  1  0  0  0  0
 18  4  1  0  0  0  0
M  END
>  <HBA>
3

>  <HBD>
0

>  <TPSA>
51.08

>  <cid>
61951

>  <dipole>
0.71

>  <excitation_energy_1>
4.062

>  <excitation_energy_2>
4.264

>  <excitation_energy_3>
4.647

>  <excitation_energy_4>
4.825

>  <homo_energy>
-6.21

>  <homo_lumo_gap>
4.993

>  <logP>
1.532

>  <lumo_energy>
-1.216

>  <melting_point>
79.39

>  <molecular_refractivity>
42.41

>  <oscillator_strength_1>
0.0006

>  <oscillator_strength_2>
0.0045

>  <oscillator_strength_3>
0.0058

>  <oscillator_strength_4>
0.0004

>  <open_babel_can_smiles>
Cc1ncc2c(n1)CSC2

>  <mulliken_charges>
18
1   -0.501975
2   0.013831
3   -0.504192
4   -0.476985
5   0.418282
6   0.126668
7   0.268927
8   -0.430548
9   -0.47536
10   0.098778
11   0.174089
12   0.172946
13   0.17313
14   0.150627
15   0.194522
16   0.19443
17   0.201408
18   0.201422

>  <lowdin_charges>
18
1   -0.44693
2   -0.065544
3   -0.365612
4   -0.370581
5   0.100373
6   -0.055038
7   0.059797
8   -0.165252
9   -0.165469
10   0.095419
11   0.168582
12   0.171929
13   0.171757
14   0.161526
15   0.172657
16   0.172748
17   0.179705
18   0.179935

$$$$

