PCCDB-ID:  10250
public computational chemistry database (PCCDB) project, http://pccdb.org

 16 17  0  0  0  0  0  0  0  0999 V2000
    2.2906   -0.7055   -0.0018 C   0  0  0  0  0  0  0  0  0  0  0  0
    2.2658    0.7137   -0.0060 C   0  0  0  0  0  0  0  0  0  0  0  0
    0.0310   -0.6919    0.0015 C   0  0  0  0  0  0  0  0  0  0  0  0
   -0.0076    0.7249   -0.0019 C   0  0  0  0  0  0  0  0  0  0  0  0
   -1.2365   -1.3727    0.0048 C   0  0  0  0  0  0  0  0  0  0  0  0
   -2.2695    0.6293    0.0016 C   0  0  0  0  0  0  0  0  0  0  0  0
    1.1714   -1.4102    0.0022 N   0  0  0  0  0  0  0  0  0  0  0  0
    1.1563    1.4301   -0.0058 N   0  0  0  0  0  0  0  0  0  0  0  0
   -1.1865    1.3907   -0.0016 N   0  0  0  0  0  0  0  0  0  0  0  0
   -2.3723   -0.7238    0.0048 N   0  0  0  0  0  0  0  0  0  0  0  0
   -1.2518   -2.7046    0.0084 O   0  0  0  0  0  0  0  0  0  0  0  0
   -3.4545    1.2525    0.0017 O   0  0  0  0  0  0  0  0  0  0  0  0
    3.2334   -1.2466   -0.0015 H   0  0  0  0  0  0  0  0  0  0  0  0
    3.2056    1.2644   -0.0097 H   0  0  0  0  0  0  0  0  0  0  0  0
   -0.3141   -2.9913    0.0050 H   0  0  0  0  0  0  0  0  0  0  0  0
   -3.2553    2.2065   -0.0004 H   0  0  0  0  0  0  0  0  0  0  0  0
  1 13  1  0  0  0  0
  1  7  1  0  0  0  0
  2  8  1  0  0  0  0
  2  1  2  0  0  0  0
  3  7  2  0  0  0  0
  3  5  1  0  0  0  0
  4  9  1  0  0  0  0
  4  3  1  0  0  0  0
  5 10  2  0  0  0  0
  5 11  1  0  0  0  0
  6 12  1  0  0  0  0
  6 10  2  0  0  0  0
  8  4  2  0  0  0  0
  9  6  2  0  0  0  0
 14  2  1  0  0  0  0
 15 11  1  0  0  0  0
 16 12  1  0  0  0  0
M  END
>  <HBA>
4

>  <HBD>
2

>  <TPSA>
91.5

>  <cid>
10250

>  <dipole>
3.79

>  <excitation_energy_1>
3.369

>  <excitation_energy_2>
3.923

>  <excitation_energy_3>
4.259

>  <excitation_energy_4>
4.626

>  <homo_energy>
-7.029

>  <homo_lumo_gap>
4.474

>  <logP>
-0.994

>  <lumo_energy>
-2.555

>  <melting_point>
244.1

>  <molecular_refractivity>
40.78

>  <oscillator_strength_1>
0.0007

>  <oscillator_strength_2>
0.1039

>  <oscillator_strength_3>
0.0037

>  <oscillator_strength_4>
0.0008

>  <open_babel_can_smiles>
OC1=[N]=[C](=Nc2c1nccn2)O

>  <mulliken_charges>
16
1   0.032731
2   0.037898
3   0.245412
4   0.458961
5   0.527193
6   0.636334
7   -0.516578
8   -0.429722
9   -0.544422
10   -0.484065
11   -0.58166
12   -0.571851
13   0.1633
14   0.164616
15   0.437472
16   0.424379

>  <lowdin_charges>
16
1   -0.113081
2   -0.080414
3   -0.050579
4   0.084608
5   0.158105
6   0.172813
7   -0.123918
8   -0.110048
9   -0.219301
10   -0.168979
11   -0.310024
12   -0.317721
13   0.170583
14   0.170268
15   0.369308
16   0.368379

$$$$

