PCCDB-ID:  69415
public computational chemistry database (PCCDB) project, http://pccdb.org

 19 18  0  0  0  0  0  0  0  0999 V2000
    0.8594    0.8879   -0.0691 C   0  0  0  0  0  0  0  0  0  0  0  0
    2.2646    0.4396    0.3428 C   0  0  0  0  0  0  0  0  0  0  0  0
    3.3509    0.8882   -0.6435 C   0  0  0  0  0  0  0  0  0  0  0  0
    4.7582    0.4556   -0.2185 C   0  0  0  0  0  0  0  0  0  0  0  0
    5.8659    0.8390   -1.2130 C   0  0  0  0  0  0  0  0  0  0  0  0
    5.7924    3.4066   -1.2211 C   0  0  0  0  0  0  0  0  0  0  0  0
    6.0039    2.2506   -1.3958 N   0  0  0  0  0  0  0  0  0  0  0  0
    5.5790    4.9823   -1.0602 S   0  0  0  0  0  0  0  0  0  0  0  0
    0.1068    0.5523    0.6530 H   0  0  0  0  0  0  0  0  0  0  0  0
    0.5832    0.4830   -1.0505 H   0  0  0  0  0  0  0  0  0  0  0  0
    0.7962    1.9808   -0.1331 H   0  0  0  0  0  0  0  0  0  0  0  0
    2.2894   -0.6556    0.4361 H   0  0  0  0  0  0  0  0  0  0  0  0
    2.4981    0.8345    1.3416 H   0  0  0  0  0  0  0  0  0  0  0  0
    3.3171    1.9809   -0.7461 H   0  0  0  0  0  0  0  0  0  0  0  0
    3.1288    0.4791   -1.6405 H   0  0  0  0  0  0  0  0  0  0  0  0
    4.7969   -0.6371   -0.1084 H   0  0  0  0  0  0  0  0  0  0  0  0
    5.0041    0.8782    0.7645 H   0  0  0  0  0  0  0  0  0  0  0  0
    5.6643    0.3929   -2.1956 H   0  0  0  0  0  0  0  0  0  0  0  0
    6.8325    0.4456   -0.8759 H   0  0  0  0  0  0  0  0  0  0  0  0
  1  2  1  0  0  0  0
  1  9  1  0  0  0  0
  2 12  1  0  0  0  0
  2 13  1  0  0  0  0
  3  4  1  0  0  0  0
  3  2  1  0  0  0  0
  4 16  1  0  0  0  0
  4 17  1  0  0  0  0
  5 19  1  0  0  0  0
  5  4  1  0  0  0  0
  6  8  2  0  0  0  0
  7  6  2  0  0  0  0
  7  5  1  0  0  0  0
 10  1  1  0  0  0  0
 11  1  1  0  0  0  0
 14  3  1  0  0  0  0
 15  3  1  0  0  0  0
 18  5  1  0  0  0  0
M  END
>  <HBA>
2

>  <HBD>
0

>  <TPSA>
44.45

>  <cid>
69415

>  <dipole>
4.1

>  <excitation_energy_1>
4.907

>  <excitation_energy_2>
5.295

>  <excitation_energy_3>
5.497

>  <excitation_energy_4>
5.83

>  <homo_energy>
-6.534

>  <homo_lumo_gap>
6.487

>  <logP>
2.279

>  <lumo_energy>
-0.046

>  <melting_point>
22.85

>  <molecular_refractivity>
40.12

>  <oscillator_strength_1>
0.0

>  <oscillator_strength_2>
0.007

>  <oscillator_strength_3>
0.0005

>  <oscillator_strength_4>
0.0263

>  <open_babel_can_smiles>
CCCCCN=C=S

>  <mulliken_charges>
19
1   -0.443688
2   -0.249699
3   -0.255167
4   -0.270756
5   -0.160431
6   0.203832
7   -0.320104
8   -0.149794
9   0.145623
10   0.143194
11   0.149581
12   0.131395
13   0.136753
14   0.155949
15   0.131288
16   0.144758
17   0.154404
18   0.175554
19   0.177305

>  <lowdin_charges>
19
1   -0.442661
2   -0.268188
3   -0.275749
4   -0.275262
5   -0.170254
6   -0.051213
7   -0.094489
8   -0.068894
9   0.152587
10   0.147065
11   0.148541
12   0.136743
13   0.141419
14   0.149598
15   0.139522
16   0.149703
17   0.15193
18   0.163169
19   0.166432

$$$$

