PCCDB-ID:  14525
public computational chemistry database (PCCDB) project, http://pccdb.org

 27 28  0  0  1  0  0  0  0  0999 V2000
    0.9967   -0.0321   -0.0853 C   0  0  0  0  0  0  0  0  0  0  0  0
    2.9405    0.5160   -1.5510 C   0  0  0  0  0  0  0  0  0  0  0  0
    4.1910   -2.6116    2.1187 C   0  0  0  0  0  0  0  0  0  0  0  0
    4.6586    1.0162    0.9031 C   0  0  0  0  0  0  0  0  0  0  0  0
    5.1944   -0.4379    1.0802 C   0  0  0  0  0  0  0  0  0  0  0  0
    3.0885   -0.2017    2.2003 C   0  0  0  0  0  0  0  0  0  0  0  0
    3.1284    0.8431    1.0577 C   0  0  2  0  0  0  0  0  0  0  0  0
    3.1299   -1.3630    0.1439 C   0  0  0  0  0  0  0  0  0  0  0  0
    2.5388    0.0392   -0.1450 C   0  0  0  0  0  0  0  0  0  0  0  0
    3.9218   -1.2738    1.4534 C   0  0  2  0  0  0  0  0  0  0  0  0
    2.9921   -2.3457   -0.5549 O   0  0  0  0  0  0  0  0  0  0  0  0
    0.5662    0.9463   -0.3302 H   0  0  0  0  0  0  0  0  0  0  0  0
    0.6220   -0.3255    0.9002 H   0  0  0  0  0  0  0  0  0  0  0  0
    0.6290   -0.7627   -0.8131 H   0  0  0  0  0  0  0  0  0  0  0  0
    2.5639    1.5289   -1.7388 H   0  0  0  0  0  0  0  0  0  0  0  0
    2.5098   -0.1549   -2.3012 H   0  0  0  0  0  0  0  0  0  0  0  0
    4.0235    0.5224   -1.7049 H   0  0  0  0  0  0  0  0  0  0  0  0
    4.7984   -2.4867    3.0227 H   0  0  0  0  0  0  0  0  0  0  0  0
    4.7227   -3.2816    1.4345 H   0  0  0  0  0  0  0  0  0  0  0  0
    3.2560   -3.1089    2.4001 H   0  0  0  0  0  0  0  0  0  0  0  0
    4.9531    1.4704   -0.0463 H   0  0  0  0  0  0  0  0  0  0  0  0
    5.0371    1.6683    1.6981 H   0  0  0  0  0  0  0  0  0  0  0  0
    5.9176   -0.5054    1.9012 H   0  0  0  0  0  0  0  0  0  0  0  0
    5.6889   -0.8278    0.1837 H   0  0  0  0  0  0  0  0  0  0  0  0
    2.0844   -0.5462    2.4679 H   0  0  0  0  0  0  0  0  0  0  0  0
    3.5845    0.1500    3.1127 H   0  0  0  0  0  0  0  0  0  0  0  0
    2.5949    1.7799    1.2479 H   0  0  0  0  0  0  0  0  0  0  0  0
  1 13  1  0  0  0  0
  2  9  1  0  0  0  0
  3 20  1  0  0  0  0
  3 18  1  0  0  0  0
  4  7  1  0  0  0  0
  4  5  1  0  0  0  0
  4 22  1  0  0  0  0
  5 10  1  0  0  0  0
  5 23  1  0  0  0  0
  6 25  1  0  0  0  0
  6 26  1  0  0  0  0
  7 27  1  1  0  0  0
  7  6  1  0  0  0  0
  8 10  1  0  0  0  0
  9  1  1  0  0  0  0
  9  8  1  0  0  0  0
  9  7  1  0  0  0  0
 10  3  1  1  0  0  0
 10  6  1  0  0  0  0
 11  8  2  0  0  0  0
 12  1  1  0  0  0  0
 14  1  1  0  0  0  0
 15  2  1  0  0  0  0
 16  2  1  0  0  0  0
 17  2  1  0  0  0  0
 19  3  1  0  0  0  0
 21  4  1  0  0  0  0
 24  5  1  0  0  0  0
M  END
>  <HBA>
1

>  <HBD>
0

>  <TPSA>
17.07

>  <cid>
14525

>  <dipole>
2.74

>  <excitation_energy_1>
4.181

>  <excitation_energy_2>
5.806

>  <excitation_energy_3>
6.153

>  <excitation_energy_4>
6.174

>  <homo_energy>
-6.18

>  <homo_lumo_gap>
5.951

>  <logP>
2.402

>  <lumo_energy>
-0.229

>  <melting_point>
74.7

>  <molecular_refractivity>
45.64

>  <oscillator_strength_1>
0.0

>  <oscillator_strength_2>
0.0069

>  <oscillator_strength_3>
0.0157

>  <oscillator_strength_4>
0.0107

>  <open_babel_can_smiles>
O=C1[C@@]2(C)CC[C@@H](C1(C)C)C2

>  <mulliken_charges>
27
1   -0.459911
2   -0.459155
3   -0.467493
4   -0.28011
5   -0.293303
6   -0.297645
7   -0.120153
8   0.442853
9   0.043463
10   0.02621
11   -0.478238
12   0.145377
13   0.147046
14   0.166357
15   0.142115
16   0.165252
17   0.147209
18   0.137149
19   0.162841
20   0.148928
21   0.14357
22   0.139569
23   0.146777
24   0.15158
25   0.143383
26   0.138169
27   0.118158

>  <lowdin_charges>
27
1   -0.437428
2   -0.437527
3   -0.440362
4   -0.288068
5   -0.280957
6   -0.283344
7   -0.134912
8   0.156452
9   -0.022975
10   -0.02608
11   -0.235659
12   0.151053
13   0.14962
14   0.162665
15   0.149317
16   0.163754
17   0.149042
18   0.149176
19   0.163517
20   0.155357
21   0.148452
22   0.148545
23   0.151929
24   0.151414
25   0.146276
26   0.147952
27   0.142792

$$$$

