PCCDB-ID:  70275
public computational chemistry database (PCCDB) project, http://pccdb.org

 19 20  0  0  0  0  0  0  0  0999 V2000
    0.9613   -0.0659   -0.0723 C   0  0  0  0  0  0  0  0  0  0  0  0
    4.6079    1.1662   -0.1476 C   0  0  0  0  0  0  0  0  0  0  0  0
    3.1971    1.1514   -0.1377 C   0  0  0  0  0  0  0  0  0  0  0  0
    5.3396   -0.0114   -0.1037 C   0  0  0  0  0  0  0  0  0  0  0  0
    5.0483   -2.6144    0.0065 C   0  0  0  0  0  0  0  0  0  0  0  0
    3.9043   -3.3667    0.0450 C   0  0  0  0  0  0  0  0  0  0  0  0
    2.4691   -0.0343   -0.0836 C   0  0  0  0  0  0  0  0  0  0  0  0
    4.6480   -1.2353   -0.0474 C   0  0  0  0  0  0  0  0  0  0  0  0
    3.2265   -1.2170   -0.0383 C   0  0  0  0  0  0  0  0  0  0  0  0
    2.8023   -2.5313    0.0179 N   0  0  0  0  0  0  0  0  0  0  0  0
    0.5465    0.9449   -0.1290 H   0  0  0  0  0  0  0  0  0  0  0  0
    0.5700   -0.5318    0.8431 H   0  0  0  0  0  0  0  0  0  0  0  0
    0.5589   -0.6357   -0.9216 H   0  0  0  0  0  0  0  0  0  0  0  0
    5.1247    2.1212   -0.1910 H   0  0  0  0  0  0  0  0  0  0  0  0
    2.6569    2.0948   -0.1745 H   0  0  0  0  0  0  0  0  0  0  0  0
    6.4263    0.0087   -0.1117 H   0  0  0  0  0  0  0  0  0  0  0  0
    6.0599   -2.9966    0.0157 H   0  0  0  0  0  0  0  0  0  0  0  0
    3.7761   -4.4394    0.0892 H   0  0  0  0  0  0  0  0  0  0  0  0
    1.8420   -2.8350    0.0387 H   0  0  0  0  0  0  0  0  0  0  0  0
  1 12  1  0  0  0  0
  2  3  2  0  0  0  0
  2  4  1  0  0  0  0
  3  7  1  0  0  0  0
  4  8  2  0  0  0  0
  5 17  1  0  0  0  0
  5  6  2  0  0  0  0
  6 18  1  0  0  0  0
  7  1  1  0  0  0  0
  7  9  2  0  0  0  0
  8  9  1  0  0  0  0
  8  5  1  0  0  0  0
  9 10  1  0  0  0  0
 10 19  1  0  0  0  0
 10  6  1  0  0  0  0
 11  1  1  0  0  0  0
 13  1  1  0  0  0  0
 14  2  1  0  0  0  0
 15  3  1  0  0  0  0
 16  4  1  0  0  0  0
M  END
>  <HBA>
0

>  <HBD>
1

>  <TPSA>
15.79

>  <cid>
70275

>  <dipole>
2.3

>  <excitation_energy_1>
4.674

>  <excitation_energy_2>
4.756

>  <excitation_energy_3>
4.864

>  <excitation_energy_4>
5.118

>  <homo_energy>
-5.323

>  <homo_lumo_gap>
5.323

>  <logP>
2.476

>  <lumo_energy>
0.0

>  <melting_point>
99.76

>  <molecular_refractivity>
43.26

>  <oscillator_strength_1>
0.0

>  <oscillator_strength_2>
0.091

>  <oscillator_strength_3>
0.0454

>  <oscillator_strength_4>
0.0051

>  <open_babel_can_smiles>
Cc1cccc2c1[nH]cc2

>  <mulliken_charges>
19
1   -0.545757
2   -0.130279
3   -0.222275
4   -0.2129
5   -0.229385
6   0.04939
7   0.190052
8   0.134835
9   0.22936
10   -0.685508
11   0.16268
12   0.154192
13   0.153181
14   0.117356
15   0.112495
16   0.121515
17   0.127519
18   0.146821
19   0.326709

>  <lowdin_charges>
19
1   -0.444923
2   -0.176054
3   -0.179258
4   -0.162692
5   -0.22348
6   -0.122349
7   -0.025204
8   -0.026787
9   0.019389
10   -0.200093
11   0.161822
12   0.154307
13   0.154224
14   0.153452
15   0.151462
16   0.153034
17   0.161959
18   0.161958
19   0.289233

$$$$

