PCCDB-ID:  43776
public computational chemistry database (PCCDB) project, http://pccdb.org

 18 17  0  0  1  0  0  0  0  0999 V2000
    1.3025    0.0642   -0.0623 C   0  0  0  0  0  0  0  0  0  0  0  0
    2.3521   -2.8489   -0.2301 C   0  0  0  0  0  0  0  0  0  0  0  0
    4.7073   -0.2542   -1.3895 C   0  0  0  0  0  0  0  0  0  0  0  0
    2.7672   -0.3469   -0.0173 C   0  0  1  0  0  0  0  0  0  0  0  0
    3.7978   -2.0480    1.4690 N   0  0  0  0  0  0  0  0  0  0  0  0
    2.9426   -1.7227    0.4744 N   0  0  0  0  0  0  0  0  0  0  0  0
    4.3508   -1.1119    2.0346 O   0  0  0  0  0  0  0  0  0  0  0  0
    3.2872   -0.2196   -1.3251 O   0  0  0  0  0  0  0  0  0  0  0  0
    0.8448   -0.0427    0.9258 H   0  0  0  0  0  0  0  0  0  0  0  0
    0.7443   -0.5409   -0.7833 H   0  0  0  0  0  0  0  0  0  0  0  0
    1.2323    1.1104   -0.3734 H   0  0  0  0  0  0  0  0  0  0  0  0
    1.2644   -2.8726   -0.0998 H   0  0  0  0  0  0  0  0  0  0  0  0
    2.7830   -3.7591    0.1907 H   0  0  0  0  0  0  0  0  0  0  0  0
    2.5803   -2.7879   -1.2986 H   0  0  0  0  0  0  0  0  0  0  0  0
    4.9736   -0.1248   -2.4410 H   0  0  0  0  0  0  0  0  0  0  0  0
    5.1105   -1.2113   -1.0309 H   0  0  0  0  0  0  0  0  0  0  0  0
    5.1539    0.5568   -0.7974 H   0  0  0  0  0  0  0  0  0  0  0  0
    3.3290    0.2724    0.6894 H   0  0  0  0  0  0  0  0  0  0  0  0
  1  4  1  0  0  0  0
  1  9  1  0  0  0  0
  2 12  1  0  0  0  0
  2 13  1  0  0  0  0
  2  6  1  0  0  0  0
  3  8  1  0  0  0  0
  3 16  1  0  0  0  0
  3 17  1  0  0  0  0
  4  6  1  0  0  0  0
  4 18  1  1  0  0  0
  5  7  2  0  0  0  0
  6  5  1  0  0  0  0
  8  4  1  0  0  0  0
 10  1  1  0  0  0  0
 11  1  1  0  0  0  0
 14  2  1  0  0  0  0
 15  3  1  0  0  0  0
M  END
>  <HBA>
4

>  <HBD>
0

>  <TPSA>
41.9

>  <cid>
43776

>  <dipole>
2.73

>  <excitation_energy_1>
3.247

>  <excitation_energy_2>
5.584

>  <excitation_energy_3>
5.784

>  <excitation_energy_4>
5.853

>  <homo_energy>
-6.065

>  <homo_lumo_gap>
5.075

>  <logP>
0.592

>  <lumo_energy>
-0.991

>  <melting_point>
-12.5

>  <molecular_refractivity>
30.06

>  <oscillator_strength_1>
0.0006

>  <oscillator_strength_2>
0.0595

>  <oscillator_strength_3>
0.0429

>  <oscillator_strength_4>
0.0541

>  <open_babel_can_smiles>
CO[C@H](N(N=O)C)C

>  <mulliken_charges>
18
1   -0.460137
2   -0.316827
3   -0.211261
4   0.24543
5   0.153571
6   -0.234712
7   -0.373492
8   -0.462685
9   0.161697
10   0.160862
11   0.169932
12   0.166783
13   0.187718
14   0.179238
15   0.162441
16   0.148481
17   0.149791
18   0.17317

>  <lowdin_charges>
18
1   -0.44832
2   -0.355895
3   -0.282226
4   0.038839
5   0.056998
6   -0.062524
7   -0.269119
8   -0.264647
9   0.16265
10   0.161068
11   0.166642
12   0.154427
13   0.176025
14   0.16212
15   0.156965
16   0.141343
17   0.144942
18   0.160712

$$$$

