PCCDB-ID:  49656
public computational chemistry database (PCCDB) project, http://pccdb.org

 27 27  0  0  1  0  0  0  0  0999 V2000
    2.6962    1.3643    1.3740 C   0  0  0  0  0  0  0  0  0  0  0  0
    3.6436   -5.5711    1.6387 C   0  0  0  0  0  0  0  0  0  0  0  0
    4.4823   -4.5890    1.1138 C   0  0  0  0  0  0  0  0  0  0  0  0
    2.3028   -5.2525    1.8738 C   0  0  0  0  0  0  0  0  0  0  0  0
    4.0046   -3.3099    0.8239 C   0  0  0  0  0  0  0  0  0  0  0  0
    1.8166   -3.9810    1.5925 C   0  0  0  0  0  0  0  0  0  0  0  0
    2.7380   -0.7534   -0.0714 C   0  0  0  0  0  0  0  0  0  0  0  0
    2.1497    0.6553    0.1297 C   0  0  1  0  0  0  0  0  0  0  0  0
    2.6590   -2.9806    1.0663 C   0  0  0  0  0  0  0  0  0  0  0  0
    0.1076    1.8831   -0.1659 N   0  0  0  0  0  0  0  0  0  0  0  0
    2.1293   -1.7022    0.8527 N   0  0  0  0  0  0  0  0  0  0  0  0
    0.6702    0.5448    0.1218 N   0  0  0  0  0  0  0  0  0  0  0  0
    3.7681    1.5743    1.2763 H   0  0  0  0  0  0  0  0  0  0  0  0
    2.5576    0.7360    2.2623 H   0  0  0  0  0  0  0  0  0  0  0  0
    2.1721    2.3137    1.5199 H   0  0  0  0  0  0  0  0  0  0  0  0
    4.0232   -6.5645    1.8589 H   0  0  0  0  0  0  0  0  0  0  0  0
    5.5281   -4.8149    0.9194 H   0  0  0  0  0  0  0  0  0  0  0  0
    1.6269   -6.0017    2.2789 H   0  0  0  0  0  0  0  0  0  0  0  0
    4.6857   -2.5742    0.4101 H   0  0  0  0  0  0  0  0  0  0  0  0
    0.7719   -3.7439    1.7856 H   0  0  0  0  0  0  0  0  0  0  0  0
    3.8139   -0.7044    0.1176 H   0  0  0  0  0  0  0  0  0  0  0  0
    2.6003   -1.0650   -1.1202 H   0  0  0  0  0  0  0  0  0  0  0  0
    2.4147    1.2414   -0.7594 H   0  0  0  0  0  0  0  0  0  0  0  0
   -0.8851    1.7938    0.0641 H   0  0  0  0  0  0  0  0  0  0  0  0
    0.1032    1.9249   -1.1883 H   0  0  0  0  0  0  0  0  0  0  0  0
    1.1246   -1.7283    0.7097 H   0  0  0  0  0  0  0  0  0  0  0  0
    0.4049    0.3870    1.0965 H   0  0  0  0  0  0  0  0  0  0  0  0
  1 15  1  0  0  0  0
  1 14  1  0  0  0  0
  2 16  1  0  0  0  0
  2  4  1  0  0  0  0
  3  2  2  0  0  0  0
  4 18  1  0  0  0  0
  5  9  2  0  0  0  0
  5  3  1  0  0  0  0
  6 20  1  0  0  0  0
  6  4  2  0  0  0  0
  7 21  1  0  0  0  0
  7  8  1  0  0  0  0
  7 11  1  0  0  0  0
  8 23  1  6  0  0  0
  8  1  1  0  0  0  0
  9  6  1  0  0  0  0
 10 24  1  0  0  0  0
 10 12  1  0  0  0  0
 11  9  1  0  0  0  0
 12  8  1  0  0  0  0
 12 27  1  0  0  0  0
 13  1  1  0  0  0  0
 17  3  1  0  0  0  0
 19  5  1  0  0  0  0
 22  7  1  0  0  0  0
 25 10  1  0  0  0  0
 26 11  1  0  0  0  0
M  END
>  <HBA>
3

>  <HBD>
3

>  <TPSA>
50.08

>  <cid>
49656

>  <dipole>
2.01

>  <excitation_energy_1>
4.555

>  <excitation_energy_2>
4.72

>  <excitation_energy_3>
4.904

>  <excitation_energy_4>
4.976

>  <homo_energy>
-5.159

>  <homo_lumo_gap>
5.475

>  <logP>
2.115

>  <lumo_energy>
0.316

>  <melting_point>
117.97

>  <molecular_refractivity>
50.87

>  <oscillator_strength_1>
0.03

>  <oscillator_strength_2>
0.0181

>  <oscillator_strength_3>
0.0054

>  <oscillator_strength_4>
0.0323

>  <open_babel_can_smiles>
NN[C@H](CNc1ccccc1)C

>  <mulliken_charges>
27
1   -0.46676
2   -0.138437
3   -0.138037
4   -0.133424
5   -0.180556
6   -0.190034
7   -0.11429
8   0.04855
9   0.354456
10   -0.587586
11   -0.677588
12   -0.496964
13   0.139324
14   0.154022
15   0.170733
16   0.118562
17   0.122456
18   0.122571
19   0.12068
20   0.111851
21   0.149884
22   0.135642
23   0.13193
24   0.303771
25   0.311174
26   0.320584
27   0.307487

>  <lowdin_charges>
27
1   -0.463511
2   -0.188797
3   -0.144862
4   -0.149721
5   -0.209665
6   -0.198659
7   -0.196048
8   -0.072501
9   0.060163
10   -0.485488
11   -0.304718
12   -0.325775
13   0.148051
14   0.153175
15   0.16277
16   0.15319
17   0.152872
18   0.156001
19   0.156076
20   0.148275
21   0.14897
22   0.132544
23   0.144183
24   0.25274
25   0.252912
26   0.267792
27   0.250029

$$$$

