PCCDB-ID:  21818
public computational chemistry database (PCCDB) project, http://pccdb.org

 39 39  0  0  1  0  0  0  0  0999 V2000
    0.9612   -4.1733    2.2200 C   0  0  0  0  0  0  0  0  0  0  0  0
    1.2060   -0.8738   -0.8282 C   0  0  0  0  0  0  0  0  0  0  0  0
    4.4404   -7.1735   -0.6174 C   0  0  0  0  0  0  0  0  0  0  0  0
    7.9233   -5.9831   -0.8444 C   0  0  0  0  0  0  0  0  0  0  0  0
    1.2538   -3.7625    0.7705 C   0  0  0  0  0  0  0  0  0  0  0  0
    1.6301   -1.2916    0.5822 C   0  0  0  0  0  0  0  0  0  0  0  0
    5.0617   -6.7107    0.7080 C   0  0  0  0  0  0  0  0  0  0  0  0
    7.3716   -5.7004    0.5557 C   0  0  0  0  0  0  0  0  0  0  0  0
    5.6404   -2.0323   -0.2114 C   0  0  0  0  0  0  0  0  0  0  0  0
    3.5231   -2.8127    0.3669 C   0  0  2  0  0  0  0  0  0  0  0  0
    5.4145   -4.2718    0.3479 C   0  0  2  0  0  0  0  0  0  0  0  0
    6.4283   -1.0830   -0.5647 N   0  0  0  0  0  0  0  0  0  0  0  0
    4.2558   -1.8212   -0.0196 N   0  0  0  0  0  0  0  0  0  0  0  0
    6.1871   -3.3136   -0.0332 N   0  0  0  0  0  0  0  0  0  0  0  0
    4.0283   -4.1111    0.5169 N   0  0  0  0  0  0  0  0  0  0  0  0
    2.1912   -2.6466    0.6515 N   0  0  0  0  0  0  0  0  0  0  0  0
    5.9129   -5.5240    0.6232 N   0  0  0  0  0  0  0  0  0  0  0  0
    0.2198   -4.9803    2.2484 H   0  0  0  0  0  0  0  0  0  0  0  0
    0.5660   -3.3278    2.7929 H   0  0  0  0  0  0  0  0  0  0  0  0
    1.8640   -4.5231    2.7353 H   0  0  0  0  0  0  0  0  0  0  0  0
    0.7754    0.1341   -0.8089 H   0  0  0  0  0  0  0  0  0  0  0  0
    0.4506   -1.5524   -1.2427 H   0  0  0  0  0  0  0  0  0  0  0  0
    2.0746   -0.8673   -1.4917 H   0  0  0  0  0  0  0  0  0  0  0  0
    3.8145   -8.0583   -0.4502 H   0  0  0  0  0  0  0  0  0  0  0  0
    5.2152   -7.4352   -1.3438 H   0  0  0  0  0  0  0  0  0  0  0  0
    3.8157   -6.3898   -1.0569 H   0  0  0  0  0  0  0  0  0  0  0  0
    9.0146   -6.0786   -0.7988 H   0  0  0  0  0  0  0  0  0  0  0  0
    7.6806   -5.1557   -1.5161 H   0  0  0  0  0  0  0  0  0  0  0  0
    7.5248   -6.9141   -1.2638 H   0  0  0  0  0  0  0  0  0  0  0  0
    0.3196   -3.4635    0.2815 H   0  0  0  0  0  0  0  0  0  0  0  0
    1.6297   -4.6149    0.1946 H   0  0  0  0  0  0  0  0  0  0  0  0
    0.7752   -1.2618    1.2681 H   0  0  0  0  0  0  0  0  0  0  0  0
    2.3879   -0.6029    0.9600 H   0  0  0  0  0  0  0  0  0  0  0  0
    5.6862   -7.5081    1.1212 H   0  0  0  0  0  0  0  0  0  0  0  0
    4.2674   -6.5574    1.4545 H   0  0  0  0  0  0  0  0  0  0  0  0
    7.8213   -4.7830    0.9396 H   0  0  0  0  0  0  0  0  0  0  0  0
    7.6252   -6.5168    1.2424 H   0  0  0  0  0  0  0  0  0  0  0  0
    5.8629   -0.2336   -0.6517 H   0  0  0  0  0  0  0  0  0  0  0  0
    3.5584   -4.7290    1.1623 H   0  0  0  0  0  0  0  0  0  0  0  0
  1 18  1  0  0  0  0
  1 20  1  0  0  0  0
  1 19  1  0  0  0  0
  2 21  1  0  0  0  0
  2  6  1  0  0  0  0
  3 24  1  0  0  0  0
  3  7  1  0  0  0  0
  4 27  1  0  0  0  0
  4  8  1  0  0  0  0
  5  1  1  0  0  0  0
  6 16  1  0  0  0  0
  6 33  1  0  0  0  0
  6 32  1  0  0  0  0
  7 34  1  0  0  0  0
  7 35  1  0  0  0  0
  8 17  1  0  0  0  0
  8 36  1  0  0  0  0
  8 37  1  0  0  0  0
  9 14  2  0  0  0  0
  9 13  2  0  0  0  0
 10 15  1  0  0  0  0
 10 16  1  6  0  0  0
 11 15  1  0  0  0  0
 11 17  1  1  0  0  0
 12  9  1  0  0  0  0
 13 10  1  0  0  0  0
 14 11  1  0  0  0  0
 15 39  1  0  0  0  0
 16  5  1  0  0  0  0
 17  7  1  0  0  0  0
 22  2  1  0  0  0  0
 23  2  1  0  0  0  0
 25  3  1  0  0  0  0
 26  3  1  0  0  0  0
 28  4  1  0  0  0  0
 29  4  1  0  0  0  0
 30  5  1  0  0  0  0
 31  5  1  0  0  0  0
 38 12  1  0  0  0  0
M  RAD  3  10   2  11   2  12   2
M  END
>  <HBA>
6

>  <HBD>
1

>  <TPSA>
71.17

>  <cid>
21818

>  <dipole>
8.78

>  <excitation_energy_1>
4.282

>  <excitation_energy_2>
4.891

>  <excitation_energy_3>
4.909

>  <excitation_energy_4>
5.01

>  <homo_energy>
-5.222

>  <homo_lumo_gap>
5.663

>  <logP>
1.727

>  <lumo_energy>
0.441

>  <melting_point>
117.03

>  <molecular_refractivity>
71.87

>  <oscillator_strength_1>
0.0032

>  <oscillator_strength_2>
0.015

>  <oscillator_strength_3>
0.0368

>  <oscillator_strength_4>
0.0117

>  <open_babel_can_smiles>
CCN([C]1N[C](N=[C](=N1)[NH])N(CC)CC)CC

>  <mulliken_charges>
39
1   -0.444205
2   -0.449433
3   -0.447464
4   -0.449724
5   -0.173356
6   -0.136807
7   -0.154071
8   -0.132944
9   0.517295
10   0.752691
11   0.744827
12   -0.636624
13   -0.554034
14   -0.519901
15   -0.74085
16   -0.467092
17   -0.474212
18   0.153443
19   0.166075
20   0.144598
21   0.146918
22   0.137187
23   0.186099
24   0.145482
25   0.168592
26   0.164942
27   0.146555
28   0.191068
29   0.134048
30   0.164824
31   0.159519
32   0.137212
33   0.18679
34   0.16127
35   0.131106
36   0.194071
37   0.132624
38   0.268622
39   0.344857

>  <lowdin_charges>
39
1   -0.45712
2   -0.455215
3   -0.461066
4   -0.454186
5   -0.203582
6   -0.192511
7   -0.196787
8   -0.189749
9   0.101694
10   0.146689
11   0.144561
12   -0.42113
13   -0.273968
14   -0.235573
15   -0.278975
16   -0.109577
17   -0.114002
18   0.15731
19   0.16079
20   0.146081
21   0.154214
22   0.144896
23   0.170259
24   0.154173
25   0.161172
26   0.158322
27   0.153226
28   0.173344
29   0.141483
30   0.157482
31   0.152836
32   0.143039
33   0.173859
34   0.160517
35   0.134782
36   0.176387
37   0.141413
38   0.244726
39   0.290184

$$$$

