PCCDB-ID:  26970
public computational chemistry database (PCCDB) project, http://pccdb.org

 22 22  0  0  1  0  0  0  0  0999 V2000
    0.8491   -0.8433   -0.8408 C   0  0  0  0  0  0  0  0  0  0  0  0
    5.3708   -5.5475    1.7290 C   0  0  0  0  0  0  0  0  0  0  0  0
    1.8868   -0.7786    0.2840 C   0  0  0  0  0  0  0  0  0  0  0  0
    2.8792   -1.9486    0.2666 C   0  0  0  0  0  0  0  0  0  0  0  0
    3.9143   -1.8701    1.3982 C   0  0  0  0  0  0  0  0  0  0  0  0
    4.7785   -4.2259    2.1492 C   0  0  2  0  0  0  0  0  0  0  0  0
    4.9257   -2.9935    1.3593 C   0  0  2  0  0  0  0  0  0  0  0  0
    5.7082   -3.2017    2.5471 O   0  0  0  0  0  0  0  0  0  0  0  0
    0.1610    0.0083   -0.7957 H   0  0  0  0  0  0  0  0  0  0  0  0
    0.2496   -1.7599   -0.7771 H   0  0  0  0  0  0  0  0  0  0  0  0
    1.3305   -0.8316   -1.8265 H   0  0  0  0  0  0  0  0  0  0  0  0
    4.6235   -6.1622    1.2127 H   0  0  0  0  0  0  0  0  0  0  0  0
    5.7236   -6.1081    2.6027 H   0  0  0  0  0  0  0  0  0  0  0  0
    6.2217   -5.3937    1.0580 H   0  0  0  0  0  0  0  0  0  0  0  0
    1.3723   -0.7573    1.2551 H   0  0  0  0  0  0  0  0  0  0  0  0
    2.4449    0.1659    0.2148 H   0  0  0  0  0  0  0  0  0  0  0  0
    3.3954   -1.9723   -0.7047 H   0  0  0  0  0  0  0  0  0  0  0  0
    2.3276   -2.8973    0.3394 H   0  0  0  0  0  0  0  0  0  0  0  0
    3.4103   -1.8859    2.3733 H   0  0  0  0  0  0  0  0  0  0  0  0
    4.4513   -0.9123    1.3406 H   0  0  0  0  0  0  0  0  0  0  0  0
    3.9045   -4.2932    2.8033 H   0  0  0  0  0  0  0  0  0  0  0  0
    5.5085   -3.0631    0.4358 H   0  0  0  0  0  0  0  0  0  0  0  0
  1  9  1  0  0  0  0
  1 10  1  0  0  0  0
  1  3  1  0  0  0  0
  2  6  1  0  0  0  0
  2 13  1  0  0  0  0
  3 15  1  0  0  0  0
  4  3  1  0  0  0  0
  4 18  1  0  0  0  0
  4  5  1  0  0  0  0
  5 19  1  0  0  0  0
  6  8  1  0  0  0  0
  6 21  1  1  0  0  0
  7 22  1  6  0  0  0
  7  5  1  0  0  0  0
  7  6  1  0  0  0  0
  7  8  1  0  0  0  0
 11  1  1  0  0  0  0
 12  2  1  0  0  0  0
 14  2  1  0  0  0  0
 16  3  1  0  0  0  0
 17  4  1  0  0  0  0
 20  5  1  0  0  0  0
M  END
>  <HBA>
1

>  <HBD>
0

>  <TPSA>
12.53

>  <cid>
26970

>  <dipole>
2.01

>  <excitation_energy_1>
6.773

>  <excitation_energy_2>
7.014

>  <excitation_energy_3>
7.123

>  <excitation_energy_4>
7.216

>  <homo_energy>
-6.977

>  <homo_lumo_gap>
9.388

>  <logP>
1.964

>  <lumo_energy>
2.411

>  <melting_point>
-13.6

>  <molecular_refractivity>
34.73

>  <oscillator_strength_1>
0.0078

>  <oscillator_strength_2>
0.0092

>  <oscillator_strength_3>
0.0038

>  <oscillator_strength_4>
0.0168

>  <open_babel_can_smiles>
CCCC[C@H]1O[C@@H]1C

>  <mulliken_charges>
22
1   -0.442451
2   -0.467164
3   -0.24658
4   -0.254781
5   -0.283468
6   0.097883
7   0.094756
8   -0.468338
9   0.144155
10   0.141965
11   0.142214
12   0.148177
13   0.159753
14   0.158111
15   0.133225
16   0.133719
17   0.130438
18   0.131568
19   0.141699
20   0.143559
21   0.132131
22   0.12943

>  <lowdin_charges>
22
1   -0.44447
2   -0.449086
3   -0.270991
4   -0.274442
5   -0.278169
6   -0.02549
7   -0.026477
8   -0.295788
9   0.151131
10   0.146762
11   0.146221
12   0.15763
13   0.160513
14   0.160294
15   0.140029
16   0.140452
17   0.138504
18   0.139363
19   0.149549
20   0.149257
21   0.143145
22   0.142061

$$$$

