PCCDB-ID:  8459
public computational chemistry database (PCCDB) project, http://pccdb.org

 30 29  0  0  0  0  0  0  0  0999 V2000
    3.0765    1.7748   -0.1736 C   0  0  0  0  0  0  0  0  0  0  0  0
    1.1760    0.1905    0.3583 C   0  0  0  0  0  0  0  0  0  0  0  0
    5.3033   -0.8750    0.7305 C   0  0  0  0  0  0  0  0  0  0  0  0
    5.1725   -2.1344   -1.4166 C   0  0  0  0  0  0  0  0  0  0  0  0
    2.9567    0.0002   -3.1523 C   0  0  0  0  0  0  0  0  0  0  0  0
    2.5952   -0.9364   -1.9805 C   0  0  0  0  0  0  0  0  0  0  0  0
    2.6964    0.3210    0.1868 C   0  0  0  0  0  0  0  0  0  0  0  0
    4.7222   -0.8528   -0.6942 C   0  0  0  0  0  0  0  0  0  0  0  0
    2.2139   -0.4317   -4.3445 N   0  0  0  0  0  0  0  0  0  0  0  0
    3.2496   -0.7362   -0.6860 N   0  0  0  0  0  0  0  0  0  0  0  0
    2.7872    2.4529    0.6390 H   0  0  0  0  0  0  0  0  0  0  0  0
    2.5678    2.1162   -1.0816 H   0  0  0  0  0  0  0  0  0  0  0  0
    4.1554    1.8875   -0.3283 H   0  0  0  0  0  0  0  0  0  0  0  0
    0.8507    0.8075    1.2036 H   0  0  0  0  0  0  0  0  0  0  0  0
    0.8974   -0.8483    0.5644 H   0  0  0  0  0  0  0  0  0  0  0  0
    0.6199    0.5314   -0.5221 H   0  0  0  0  0  0  0  0  0  0  0  0
    6.3747   -1.0974    0.6834 H   0  0  0  0  0  0  0  0  0  0  0  0
    4.8175   -1.6535    1.3308 H   0  0  0  0  0  0  0  0  0  0  0  0
    5.1976    0.0800    1.2531 H   0  0  0  0  0  0  0  0  0  0  0  0
    6.2584   -2.2446   -1.3266 H   0  0  0  0  0  0  0  0  0  0  0  0
    4.9374   -2.1281   -2.4848 H   0  0  0  0  0  0  0  0  0  0  0  0
    4.6983   -3.0139   -0.9653 H   0  0  0  0  0  0  0  0  0  0  0  0
    4.0520    0.0264   -3.2931 H   0  0  0  0  0  0  0  0  0  0  0  0
    2.6466    1.0252   -2.9252 H   0  0  0  0  0  0  0  0  0  0  0  0
    2.7923   -1.9664   -2.3053 H   0  0  0  0  0  0  0  0  0  0  0  0
    1.5134   -0.8864   -1.8407 H   0  0  0  0  0  0  0  0  0  0  0  0
    3.1174    0.1229    1.1775 H   0  0  0  0  0  0  0  0  0  0  0  0
    5.1935   -0.0005   -1.2214 H   0  0  0  0  0  0  0  0  0  0  0  0
    2.5553   -1.3441   -4.6466 H   0  0  0  0  0  0  0  0  0  0  0  0
    2.4002    0.2044   -5.1181 H   0  0  0  0  0  0  0  0  0  0  0  0
  1  7  1  0  0  0  0
  1 11  1  0  0  0  0
  2 15  1  0  0  0  0
  2 14  1  0  0  0  0
  3 19  1  0  0  0  0
  3 18  1  0  0  0  0
  4 20  1  0  0  0  0
  4 22  1  0  0  0  0
  4  8  1  0  0  0  0
  5 24  1  0  0  0  0
  5  6  1  0  0  0  0
  6 26  1  0  0  0  0
  6 10  1  0  0  0  0
  7  2  1  0  0  0  0
  7 27  1  0  0  0  0
  8 10  1  0  0  0  0
  8  3  1  0  0  0  0
  9  5  1  0  0  0  0
 10  7  1  0  0  0  0
 12  1  1  0  0  0  0
 13  1  1  0  0  0  0
 16  2  1  0  0  0  0
 17  3  1  0  0  0  0
 21  4  1  0  0  0  0
 23  5  1  0  0  0  0
 25  6  1  0  0  0  0
 28  8  1  0  0  0  0
 29  9  1  0  0  0  0
 30  9  1  0  0  0  0
M  END
>  <HBA>
2

>  <HBD>
1

>  <TPSA>
29.26

>  <cid>
8459

>  <dipole>
1.53

>  <excitation_energy_1>
4.653

>  <excitation_energy_2>
5.002

>  <excitation_energy_3>
5.139

>  <excitation_energy_4>
5.314

>  <homo_energy>
-5.184

>  <homo_lumo_gap>
7.1

>  <logP>
1.764

>  <lumo_energy>
1.916

>  <melting_point>
28.99

>  <molecular_refractivity>
46.17

>  <oscillator_strength_1>
0.0068

>  <oscillator_strength_2>
0.0065

>  <oscillator_strength_3>
0.0038

>  <oscillator_strength_4>
0.0067

>  <open_babel_can_smiles>
NCCN(C(C)C)C(C)C

>  <mulliken_charges>
30
1   -0.456903
2   -0.463732
3   -0.464461
4   -0.459382
5   -0.151716
6   -0.136738
7   0.059435
8   0.085674
9   -0.719858
10   -0.407612
11   0.136535
12   0.145497
13   0.144224
14   0.14019
15   0.153873
16   0.148584
17   0.139484
18   0.151467
19   0.14869
20   0.139781
21   0.142104
22   0.152107
23   0.115932
24   0.141833
25   0.13101
26   0.157308
27   0.135081
28   0.105253
29   0.290708
30   0.295634

>  <lowdin_charges>
30
1   -0.465807
2   -0.451475
3   -0.451974
4   -0.447009
5   -0.222426
6   -0.211008
7   -0.055722
8   -0.051889
9   -0.560134
10   -0.194069
11   0.149556
12   0.147215
13   0.146937
14   0.152121
15   0.15442
16   0.148867
17   0.149374
18   0.15354
19   0.14984
20   0.148884
21   0.145644
22   0.153366
23   0.115411
24   0.140909
25   0.137922
26   0.154686
27   0.143458
28   0.114146
29   0.249805
30   0.255412

$$$$

