PCCDB-ID:  16541
public computational chemistry database (PCCDB) project, http://pccdb.org

 39 38  0  0  0  0  0  0  0  0999 V2000
    1.9286    1.5013   -0.3908 C   0  0  0  0  0  0  0  0  0  0  0  0
   13.4240   -1.8313   -8.0324 C   0  0  0  0  0  0  0  0  0  0  0  0
    2.2231    0.0493   -0.7816 C   0  0  0  0  0  0  0  0  0  0  0  0
   12.7389   -0.6857   -7.9987 C   0  0  0  0  0  0  0  0  0  0  0  0
    3.2719   -0.0774   -1.8944 C   0  0  0  0  0  0  0  0  0  0  0  0
    3.5628   -1.5317   -2.2917 C   0  0  0  0  0  0  0  0  0  0  0  0
    4.5503   -1.6960   -3.4594 C   0  0  0  0  0  0  0  0  0  0  0  0
    5.9931   -1.2734   -3.1471 C   0  0  0  0  0  0  0  0  0  0  0  0
    6.9568   -1.5098   -4.3173 C   0  0  0  0  0  0  0  0  0  0  0  0
    8.4040   -1.1035   -4.0090 C   0  0  0  0  0  0  0  0  0  0  0  0
    9.3579   -1.3334   -5.1891 C   0  0  0  0  0  0  0  0  0  0  0  0
   10.7895   -0.9240   -4.8577 C   0  0  0  0  0  0  0  0  0  0  0  0
   11.7947   -0.2941   -6.9223 C   0  0  0  0  0  0  0  0  0  0  0  0
   11.1825    0.7570   -6.9277 O   0  0  0  0  0  0  0  0  0  0  0  0
   11.6970   -1.2233   -5.9431 O   0  0  0  0  0  0  0  0  0  0  0  0
    1.1772    1.5578    0.4052 H   0  0  0  0  0  0  0  0  0  0  0  0
    1.5503    2.0730   -1.2473 H   0  0  0  0  0  0  0  0  0  0  0  0
    2.8334    2.0068   -0.0311 H   0  0  0  0  0  0  0  0  0  0  0  0
   14.1010   -2.0576   -8.8514 H   0  0  0  0  0  0  0  0  0  0  0  0
   13.3266   -2.5732   -7.2465 H   0  0  0  0  0  0  0  0  0  0  0  0
    1.2924   -0.4387   -1.1043 H   0  0  0  0  0  0  0  0  0  0  0  0
    2.5654   -0.5057    0.1036 H   0  0  0  0  0  0  0  0  0  0  0  0
   12.8317    0.0608   -8.7822 H   0  0  0  0  0  0  0  0  0  0  0  0
    4.1978    0.4166   -1.5684 H   0  0  0  0  0  0  0  0  0  0  0  0
    2.9274    0.4764   -2.7810 H   0  0  0  0  0  0  0  0  0  0  0  0
    2.6147   -2.0176   -2.5635 H   0  0  0  0  0  0  0  0  0  0  0  0
    3.9426   -2.0787   -1.4157 H   0  0  0  0  0  0  0  0  0  0  0  0
    4.1844   -1.1233   -4.3247 H   0  0  0  0  0  0  0  0  0  0  0  0
    4.5536   -2.7496   -3.7733 H   0  0  0  0  0  0  0  0  0  0  0  0
    6.3483   -1.8284   -2.2656 H   0  0  0  0  0  0  0  0  0  0  0  0
    6.0215   -0.2106   -2.8699 H   0  0  0  0  0  0  0  0  0  0  0  0
    6.6046   -0.9516   -5.1970 H   0  0  0  0  0  0  0  0  0  0  0  0
    6.9313   -2.5723   -4.6013 H   0  0  0  0  0  0  0  0  0  0  0  0
    8.7596   -1.6664   -3.1330 H   0  0  0  0  0  0  0  0  0  0  0  0
    8.4285   -0.0423   -3.7215 H   0  0  0  0  0  0  0  0  0  0  0  0
    9.0204   -0.7570   -6.0585 H   0  0  0  0  0  0  0  0  0  0  0  0
    9.3495   -2.3926   -5.4787 H   0  0  0  0  0  0  0  0  0  0  0  0
   11.1796   -1.4967   -4.0115 H   0  0  0  0  0  0  0  0  0  0  0  0
   10.8502    0.1439   -4.6310 H   0  0  0  0  0  0  0  0  0  0  0  0
  1 18  1  0  0  0  0
  1 16  1  0  0  0  0
  2  4  2  0  0  0  0
  2 20  1  0  0  0  0
  3  1  1  0  0  0  0
  3 22  1  0  0  0  0
  4 13  1  0  0  0  0
  5 24  1  0  0  0  0
  5  3  1  0  0  0  0
  6  5  1  0  0  0  0
  6 27  1  0  0  0  0
  7  8  1  0  0  0  0
  7  6  1  0  0  0  0
  8 31  1  0  0  0  0
  8 30  1  0  0  0  0
  9 10  1  0  0  0  0
  9  8  1  0  0  0  0
 10 35  1  0  0  0  0
 10 34  1  0  0  0  0
 11 12  1  0  0  0  0
 11 10  1  0  0  0  0
 12 39  1  0  0  0  0
 12 38  1  0  0  0  0
 13 15  1  0  0  0  0
 14 13  2  0  0  0  0
 15 12  1  0  0  0  0
 17  1  1  0  0  0  0
 19  2  1  0  0  0  0
 21  3  1  0  0  0  0
 23  4  1  0  0  0  0
 25  5  1  0  0  0  0
 26  6  1  0  0  0  0
 28  7  1  0  0  0  0
 29  7  1  0  0  0  0
 32  9  1  0  0  0  0
 33  9  1  0  0  0  0
 36 11  1  0  0  0  0
 37 11  1  0  0  0  0
M  END
>  <HBA>
2

>  <HBD>
0

>  <TPSA>
26.3

>  <cid>
16541

>  <dipole>
2.03

>  <excitation_energy_1>
4.698

>  <excitation_energy_2>
5.831

>  <excitation_energy_3>
6.407

>  <excitation_energy_4>
6.552

>  <homo_energy>
-7.328

>  <homo_lumo_gap>
6.144

>  <logP>
3.856

>  <lumo_energy>
-1.184

>  <melting_point>
-39.37

>  <molecular_refractivity>
65.42

>  <oscillator_strength_1>
0.0001

>  <oscillator_strength_2>
0.0933

>  <oscillator_strength_3>
0.322

>  <oscillator_strength_4>
0.0411

>  <open_babel_can_smiles>
CCCCCCCCCCOC(=O)C=C

>  <mulliken_charges>
39
1   -0.441818
2   -0.311256
3   -0.246533
4   -0.129842
5   -0.247542
6   -0.254351
7   -0.25501
8   -0.255155
9   -0.252186
10   -0.264914
11   -0.278367
12   -0.044863
13   0.611294
14   -0.489465
15   -0.479051
16   0.141225
17   0.141377
18   0.140909
19   0.157233
20   0.175296
21   0.12967
22   0.129721
23   0.157634
24   0.131442
25   0.125936
26   0.126878
27   0.125471
28   0.127431
29   0.126395
30   0.125523
31   0.134299
32   0.133264
33   0.128325
34   0.12819
35   0.137048
36   0.161326
37   0.140236
38   0.146958
39   0.167273

>  <lowdin_charges>
39
1   -0.446447
2   -0.277669
3   -0.27268
4   -0.178809
5   -0.27795
6   -0.275975
7   -0.274216
8   -0.275691
9   -0.271283
10   -0.273103
11   -0.286047
12   -0.130209
13   0.191967
14   -0.268818
15   -0.193761
16   0.149476
17   0.147018
18   0.146439
19   0.168996
20   0.176163
21   0.138548
22   0.139119
23   0.174276
24   0.138697
25   0.137487
26   0.14023
27   0.137664
28   0.138576
29   0.138451
30   0.13725
31   0.138405
32   0.141336
33   0.136554
34   0.138366
35   0.14064
36   0.156716
37   0.143908
38   0.150737
39   0.15564

$$$$

