PCCDB-ID:  44993
public computational chemistry database (PCCDB) project, http://pccdb.org

 16 15  0  0  0  0  0  0  0  0999 V2000
    0.5828   -0.2665    0.1452 C   0  0  0  0  0  0  0  0  0  0  0  0
   -0.8824   -0.2675   -0.2921 C   0  0  0  0  0  0  0  0  0  0  0  0
    0.6405   -1.0306    2.4918 C   0  0  0  0  0  0  0  0  0  0  0  0
    0.1165    0.0809    2.8555 N   0  0  0  0  0  0  0  0  0  0  0  0
    1.1178   -2.0631    3.3154 N   0  0  0  0  0  0  0  0  0  0  0  0
    0.8268   -1.3235    1.1385 N   0  0  0  0  0  0  0  0  0  0  0  0
   -1.2617   -1.5262   -0.8314 O   0  0  0  0  0  0  0  0  0  0  0  0
    0.8609    0.7141    0.5482 H   0  0  0  0  0  0  0  0  0  0  0  0
    1.2110   -0.4913   -0.7228 H   0  0  0  0  0  0  0  0  0  0  0  0
   -1.0302    0.4732   -1.0853 H   0  0  0  0  0  0  0  0  0  0  0  0
   -1.5156    0.0146    0.5609 H   0  0  0  0  0  0  0  0  0  0  0  0
   -0.0293    0.1070    3.8658 H   0  0  0  0  0  0  0  0  0  0  0  0
    0.8264   -1.9803    4.2819 H   0  0  0  0  0  0  0  0  0  0  0  0
    0.9390   -2.9956    2.9570 H   0  0  0  0  0  0  0  0  0  0  0  0
    1.6746   -1.8535    0.9748 H   0  0  0  0  0  0  0  0  0  0  0  0
   -0.9871   -2.1767   -0.1631 H   0  0  0  0  0  0  0  0  0  0  0  0
  1  8  1  0  0  0  0
  1  6  1  0  0  0  0
  2  1  1  0  0  0  0
  2 11  1  0  0  0  0
  3  4  1  0  0  0  0
  3  5  2  0  0  0  0
  4 12  1  0  0  0  0
  5 13  1  0  0  0  0
  6  3  1  0  0  0  0
  7  2  1  0  0  0  0
  7 16  1  0  0  0  0
  9  1  1  0  0  0  0
 10  2  1  0  0  0  0
 14  5  1  0  0  0  0
 15  6  1  0  0  0  0
M  RAD  1   4   2
M  END
>  <HBA>
4

>  <HBD>
3

>  <TPSA>
84.63

>  <cid>
44993

>  <dipole>
3.73

>  <excitation_energy_1>
5.348

>  <excitation_energy_2>
5.768

>  <excitation_energy_3>
6.168

>  <excitation_energy_4>
6.323

>  <homo_energy>
-6.324

>  <homo_lumo_gap>
7.557

>  <logP>
-0.347

>  <lumo_energy>
1.233

>  <melting_point>
120.41

>  <molecular_refractivity>
26.8

>  <oscillator_strength_1>
0.0038

>  <oscillator_strength_2>
0.0096

>  <oscillator_strength_3>
0.0079

>  <oscillator_strength_4>
0.0046

>  <open_babel_can_smiles>
[NH]C(=[NH2])NCCO

>  <mulliken_charges>
16
1   -0.140047
2   -0.027826
3   0.578198
4   -0.633126
5   -0.753988
6   -0.621559
7   -0.626061
8   0.169639
9   0.139346
10   0.139075
11   0.150285
12   0.268753
13   0.322087
14   0.322051
15   0.325433
16   0.387741

>  <lowdin_charges>
16
1   -0.215756
2   -0.142435
3   0.123364
4   -0.469128
5   -0.508464
6   -0.320412
7   -0.478335
8   0.159757
9   0.148866
10   0.146996
11   0.142017
12   0.247379
13   0.276229
14   0.277265
15   0.277149
16   0.335511

$$$$

