PCCDB-ID:  67441
public computational chemistry database (PCCDB) project, http://pccdb.org

 32 33  0  0  0  0  0  0  0  0999 V2000
   -2.4414    0.2670   -0.9424 C   0  0  0  0  0  0  0  0  0  0  0  0
   -2.5230   -1.1985   -0.4776 C   0  0  0  0  0  0  0  0  0  0  0  0
   -2.3073    1.3141    0.1857 C   0  0  0  0  0  0  0  0  0  0  0  0
   -1.5537   -1.6410    0.6265 C   0  0  0  0  0  0  0  0  0  0  0  0
   -0.8797    1.8124    0.4857 C   0  0  0  0  0  0  0  0  0  0  0  0
   -0.0457   -1.6474    0.3236 C   0  0  0  0  0  0  0  0  0  0  0  0
    0.1796    0.8528    1.0704 C   0  0  0  0  0  0  0  0  0  0  0  0
    1.1164    0.1232   -1.2352 C   0  0  0  0  0  0  0  0  0  0  0  0
    2.4972    0.8044   -1.0967 C   0  0  0  0  0  0  0  0  0  0  0  0
    2.1947   -0.5860    0.7141 C   0  0  0  0  0  0  0  0  0  0  0  0
    0.7535   -0.3142    0.2116 C   0  0  0  0  0  0  0  0  0  0  0  0
    3.0063    0.4560    0.1969 O   0  0  0  0  0  0  0  0  0  0  0  0
   -3.3511    0.4760   -1.5203 H   0  0  0  0  0  0  0  0  0  0  0  0
   -1.6162    0.3919   -1.6519 H   0  0  0  0  0  0  0  0  0  0  0  0
   -2.4053   -1.8565   -1.3508 H   0  0  0  0  0  0  0  0  0  0  0  0
   -3.5398   -1.3809   -0.1014 H   0  0  0  0  0  0  0  0  0  0  0  0
   -2.7730    0.9364    1.1070 H   0  0  0  0  0  0  0  0  0  0  0  0
   -2.8923    2.2011   -0.0914 H   0  0  0  0  0  0  0  0  0  0  0  0
   -1.8218   -2.6721    0.8955 H   0  0  0  0  0  0  0  0  0  0  0  0
   -1.7413   -1.0529    1.5333 H   0  0  0  0  0  0  0  0  0  0  0  0
   -0.9700    2.6378    1.2056 H   0  0  0  0  0  0  0  0  0  0  0  0
   -0.4792    2.2754   -0.4271 H   0  0  0  0  0  0  0  0  0  0  0  0
    0.1344   -2.2456   -0.5810 H   0  0  0  0  0  0  0  0  0  0  0  0
    0.4119   -2.2197    1.1445 H   0  0  0  0  0  0  0  0  0  0  0  0
   -0.1930    0.4369    2.0170 H   0  0  0  0  0  0  0  0  0  0  0  0
    1.0335    1.4847    1.3447 H   0  0  0  0  0  0  0  0  0  0  0  0
    1.1953   -0.7665   -1.8708 H   0  0  0  0  0  0  0  0  0  0  0  0
    0.3868    0.7873   -1.7010 H   0  0  0  0  0  0  0  0  0  0  0  0
    2.4375    1.8983   -1.1481 H   0  0  0  0  0  0  0  0  0  0  0  0
    3.1941    0.4689   -1.8779 H   0  0  0  0  0  0  0  0  0  0  0  0
    2.5410   -1.5714    0.3563 H   0  0  0  0  0  0  0  0  0  0  0  0
    2.2776   -0.5691    1.8068 H   0  0  0  0  0  0  0  0  0  0  0  0
  1  2  1  0  0  0  0
  1  3  1  0  0  0  0
  2 16  1  0  0  0  0
  2  4  1  0  0  0  0
  3  5  1  0  0  0  0
  3 17  1  0  0  0  0
  4 19  1  0  0  0  0
  4 20  1  0  0  0  0
  5  7  1  0  0  0  0
  5 21  1  0  0  0  0
  6  4  1  0  0  0  0
  6 24  1  0  0  0  0
  7 26  1  0  0  0  0
  7 25  1  0  0  0  0
  8  9  1  0  0  0  0
  8 11  1  0  0  0  0
  9 12  1  0  0  0  0
 10 32  1  0  0  0  0
 11  6  1  0  0  0  0
 11 10  1  0  0  0  0
 11  7  1  0  0  0  0
 12 10  1  0  0  0  0
 13  1  1  0  0  0  0
 14  1  1  0  0  0  0
 15  2  1  0  0  0  0
 18  3  1  0  0  0  0
 22  5  1  0  0  0  0
 23  6  1  0  0  0  0
 27  8  1  0  0  0  0
 28  8  1  0  0  0  0
 29  9  1  0  0  0  0
 30  9  1  0  0  0  0
 31 10  1  0  0  0  0
M  END
>  <HBA>
1

>  <HBD>
0

>  <TPSA>
9.23

>  <cid>
67441

>  <dipole>
1.71

>  <excitation_energy_1>
6.115

>  <excitation_energy_2>
6.417

>  <excitation_energy_3>
6.457

>  <excitation_energy_4>
6.599

>  <homo_energy>
-6.525

>  <homo_lumo_gap>
8.555

>  <logP>
3.137

>  <lumo_energy>
2.03

>  <melting_point>
25.01

>  <molecular_refractivity>
51.59

>  <oscillator_strength_1>
0.0089

>  <oscillator_strength_2>
0.002

>  <oscillator_strength_3>
0.0171

>  <oscillator_strength_4>
0.0003

>  <open_babel_can_smiles>
C1CCCCC2(CC1)COCC2

>  <mulliken_charges>
32
1   -0.262238
2   -0.256947
3   -0.25774
4   -0.259864
5   -0.269255
6   -0.294331
7   -0.290983
8   -0.338237
9   -0.014399
10   -0.042666
11   0.105415
12   -0.486978
13   0.130502
14   0.137066
15   0.125684
16   0.129444
17   0.130766
18   0.129932
19   0.129413
20   0.135437
21   0.130859
22   0.129992
23   0.128477
24   0.13248
25   0.129341
26   0.152478
27   0.13847
28   0.152177
29   0.137201
30   0.130713
31   0.117914
32   0.139877

>  <lowdin_charges>
32
1   -0.28696
2   -0.277548
3   -0.282042
4   -0.281475
5   -0.279055
6   -0.280196
7   -0.286001
8   -0.306693
9   -0.132952
10   -0.137003
11   -0.011087
12   -0.283003
13   0.144051
14   0.141987
15   0.139612
16   0.139897
17   0.139088
18   0.14493
19   0.144435
20   0.140888
21   0.145983
22   0.138103
23   0.141437
24   0.145985
25   0.141135
26   0.156339
27   0.14636
28   0.153264
29   0.136965
30   0.136675
31   0.12392
32   0.142962

$$$$

