PCCDB-ID:  55763
public computational chemistry database (PCCDB) project, http://pccdb.org

 35 36  0  0  1  0  0  0  0  0999 V2000
    3.0036   -3.3906    2.3191 C   0  0  0  0  0  0  0  0  0  0  0  0
    8.3898   -2.8239   -1.8499 C   0  0  0  0  0  0  0  0  0  0  0  0
    2.8132   -1.9670    1.8172 C   0  0  0  0  0  0  0  0  0  0  0  0
    7.9018   -4.0979    3.9211 C   0  0  0  0  0  0  0  0  0  0  0  0
    7.0022   -3.1872    4.4780 C   0  0  0  0  0  0  0  0  0  0  0  0
    8.3791   -3.9053    2.6274 C   0  0  0  0  0  0  0  0  0  0  0  0
    6.6135   -2.0758    3.7309 C   0  0  0  0  0  0  0  0  0  0  0  0
    6.9535   -1.1170   -0.6910 C   0  0  0  0  0  0  0  0  0  0  0  0
    7.5978   -2.5044   -0.5791 C   0  0  2  0  0  0  0  0  0  0  0  0
    7.9893   -2.7911    1.8638 C   0  0  0  0  0  0  0  0  0  0  0  0
    7.1018   -1.8543    2.4397 C   0  0  0  0  0  0  0  0  0  0  0  0
    6.0690   -0.6867    0.4926 C   0  0  1  0  0  0  0  0  0  0  0  0
    4.7700   -1.5021    0.5510 C   0  0  0  0  0  0  0  0  0  0  0  0
    8.5244   -2.5889    0.5747 N   0  0  0  0  0  0  0  0  0  0  0  0
    6.7353   -0.6185    1.7978 N   0  0  0  0  0  0  0  0  0  0  0  0
    4.3801   -2.2153   -0.3525 O   0  0  0  0  0  0  0  0  0  0  0  0
    4.0797   -1.2758    1.6811 O   0  0  0  0  0  0  0  0  0  0  0  0
    2.0258   -3.8521    2.5003 H   0  0  0  0  0  0  0  0  0  0  0  0
    3.5717   -3.4003    3.2544 H   0  0  0  0  0  0  0  0  0  0  0  0
    3.5366   -3.9923    1.5783 H   0  0  0  0  0  0  0  0  0  0  0  0
    7.7421   -2.7705   -2.7303 H   0  0  0  0  0  0  0  0  0  0  0  0
    8.8140   -3.8352   -1.8097 H   0  0  0  0  0  0  0  0  0  0  0  0
    9.2133   -2.1119   -1.9823 H   0  0  0  0  0  0  0  0  0  0  0  0
    2.2584   -1.3597    2.5365 H   0  0  0  0  0  0  0  0  0  0  0  0
    2.2971   -1.9511    0.8538 H   0  0  0  0  0  0  0  0  0  0  0  0
    8.2235   -4.9688    4.4864 H   0  0  0  0  0  0  0  0  0  0  0  0
    6.6181   -3.3340    5.4835 H   0  0  0  0  0  0  0  0  0  0  0  0
    9.0652   -4.6293    2.1906 H   0  0  0  0  0  0  0  0  0  0  0  0
    5.9340   -1.3328    4.1363 H   0  0  0  0  0  0  0  0  0  0  0  0
    6.3490   -1.0868   -1.6041 H   0  0  0  0  0  0  0  0  0  0  0  0
    7.7542   -0.3725   -0.7983 H   0  0  0  0  0  0  0  0  0  0  0  0
    6.7943   -3.2484   -0.4734 H   0  0  0  0  0  0  0  0  0  0  0  0
    5.7315    0.3406    0.2826 H   0  0  0  0  0  0  0  0  0  0  0  0
    9.2277   -3.2976    0.3861 H   0  0  0  0  0  0  0  0  0  0  0  0
    7.5659   -0.0365    1.6929 H   0  0  0  0  0  0  0  0  0  0  0  0
  1 18  1  0  0  0  0
  1 19  1  0  0  0  0
  2 22  1  0  0  0  0
  2  9  1  0  0  0  0
  3  1  1  0  0  0  0
  3 24  1  0  0  0  0
  4  5  1  0  0  0  0
  4 26  1  0  0  0  0
  5 27  1  0  0  0  0
  6  4  2  0  0  0  0
  7 29  1  0  0  0  0
  7  5  2  0  0  0  0
  8  9  1  0  0  0  0
  8 12  1  0  0  0  0
  9 32  1  1  0  0  0
  9 14  1  0  0  0  0
 10 11  2  0  0  0  0
 10  6  1  0  0  0  0
 11  7  1  0  0  0  0
 12 33  1  6  0  0  0
 12 13  1  0  0  0  0
 12 15  1  0  0  0  0
 13 17  1  0  0  0  0
 14 10  1  0  0  0  0
 15 11  1  0  0  0  0
 16 13  2  0  0  0  0
 17  3  1  0  0  0  0
 20  1  1  0  0  0  0
 21  2  1  0  0  0  0
 23  2  1  0  0  0  0
 25  3  1  0  0  0  0
 28  6  1  0  0  0  0
 30  8  1  0  0  0  0
 31  8  1  0  0  0  0
 34 14  1  0  0  0  0
 35 15  1  0  0  0  0
M  END
>  <HBA>
4

>  <HBD>
2

>  <TPSA>
50.36

>  <cid>
55763

>  <dipole>
0.64

>  <excitation_energy_1>
4.522

>  <excitation_energy_2>
4.845

>  <excitation_energy_3>
4.971

>  <excitation_energy_4>
5.051

>  <homo_energy>
-5.516

>  <homo_lumo_gap>
5.513

>  <logP>
2.51

>  <lumo_energy>
-0.003

>  <melting_point>
105.13

>  <molecular_refractivity>
74.13

>  <oscillator_strength_1>
0.0313

>  <oscillator_strength_2>
0.0018

>  <oscillator_strength_3>
0.007

>  <oscillator_strength_4>
0.0322

>  <open_babel_can_smiles>
CCOC(=O)[C@@H]1C[C@@H](C)Nc2c(N1)cccc2

>  <mulliken_charges>
35
1   -0.464027
2   -0.473291
3   -0.044554
4   -0.128945
5   -0.147624
6   -0.201429
7   -0.143801
8   -0.239416
9   0.037206
10   0.296285
11   0.187284
12   -0.082814
13   0.638519
14   -0.653362
15   -0.615033
16   -0.494127
17   -0.4438
18   0.14591
19   0.165525
20   0.176974
21   0.160215
22   0.140524
23   0.153687
24   0.152449
25   0.166029
26   0.125137
27   0.122647
28   0.115046
29   0.137338
30   0.149335
31   0.127211
32   0.150875
33   0.165043
34   0.306922
35   0.312062

>  <lowdin_charges>
35
1   -0.456683
2   -0.448194
3   -0.127591
4   -0.151578
5   -0.180981
6   -0.198477
7   -0.150293
8   -0.29353
9   -0.057195
10   0.033841
11   -0.002355
12   -0.089425
13   0.193853
14   -0.320774
15   -0.331723
16   -0.274701
17   -0.173769
18   0.15642
19   0.160486
20   0.167246
21   0.161276
22   0.146855
23   0.153523
24   0.15414
25   0.156059
26   0.156803
27   0.154755
28   0.151391
29   0.167445
30   0.159426
31   0.144429
32   0.141587
33   0.165446
34   0.264431
35   0.267858

$$$$

