PCCDB-ID:  31261
public computational chemistry database (PCCDB) project, http://pccdb.org

 15 14  0  0  0  0  0  0  0  0999 V2000
    0.7820    0.5547   -1.0495 C   0  0  0  0  0  0  0  0  0  0  0  0
    1.3856    0.7492    3.3748 C   0  0  0  0  0  0  0  0  0  0  0  0
    2.3686    0.7435    0.9833 C   0  0  0  0  0  0  0  0  0  0  0  0
    1.3816   -0.1097    0.1697 C   0  0  0  0  0  0  0  0  0  0  0  0
    1.5609    1.4821    2.0634 C   0  0  0  0  0  0  0  0  0  0  0  0
    1.0783   -1.2274    0.5380 O   0  0  0  0  0  0  0  0  0  0  0  0
    1.0616    2.5653    1.8311 O   0  0  0  0  0  0  0  0  0  0  0  0
    0.3841    1.5394   -0.7749 H   0  0  0  0  0  0  0  0  0  0  0  0
   -0.0058   -0.0715   -1.4727 H   0  0  0  0  0  0  0  0  0  0  0  0
    1.5608    0.7255   -1.8039 H   0  0  0  0  0  0  0  0  0  0  0  0
    1.0496   -0.2772    3.1835 H   0  0  0  0  0  0  0  0  0  0  0  0
    0.6700    1.2754    4.0094 H   0  0  0  0  0  0  0  0  0  0  0  0
    2.3507    0.6773    3.8930 H   0  0  0  0  0  0  0  0  0  0  0  0
    2.8567    1.4896    0.3511 H   0  0  0  0  0  0  0  0  0  0  0  0
    3.1066    0.0755    1.4353 H   0  0  0  0  0  0  0  0  0  0  0  0
  1  8  1  0  0  0  0
  1  4  1  0  0  0  0
  2 13  1  0  0  0  0
  2 12  1  0  0  0  0
  3 15  1  0  0  0  0
  3  5  1  0  0  0  0
  4  6  2  0  0  0  0
  4  3  1  0  0  0  0
  5  2  1  0  0  0  0
  7  5  2  0  0  0  0
  9  1  1  0  0  0  0
 10  1  1  0  0  0  0
 11  2  1  0  0  0  0
 14  3  1  0  0  0  0
M  END
>  <HBA>
2

>  <HBD>
0

>  <TPSA>
34.14

>  <cid>
31261

>  <dipole>
1.56

>  <excitation_energy_1>
4.13

>  <excitation_energy_2>
4.336

>  <excitation_energy_3>
5.521

>  <excitation_energy_4>
6.035

>  <homo_energy>
-6.833

>  <homo_lumo_gap>
5.614

>  <logP>
0.554

>  <lumo_energy>
-1.219

>  <melting_point>
16.88

>  <molecular_refractivity>
26.55

>  <oscillator_strength_1>
0.0107

>  <oscillator_strength_2>
0.0001

>  <oscillator_strength_3>
0.0

>  <oscillator_strength_4>
0.06

>  <open_babel_can_smiles>
CC(=O)CC(=O)C

>  <mulliken_charges>
15
1   -0.530394
2   -0.531272
3   -0.414575
4   0.440574
5   0.441071
6   -0.426549
7   -0.426492
8   0.194165
9   0.181326
10   0.174324
11   0.195066
12   0.18101
13   0.174269
14   0.173306
15   0.174171

>  <lowdin_charges>
15
1   -0.474595
2   -0.473849
3   -0.34179
4   0.17048
5   0.169571
6   -0.232029
7   -0.231576
8   0.182432
9   0.174841
10   0.175045
11   0.182151
12   0.174972
13   0.174332
14   0.174672
15   0.175344

$$$$

