PCCDB-ID:  58049
public computational chemistry database (PCCDB) project, http://pccdb.org

 30 30  0  0  1  0  0  0  0  0999 V2000
    4.3083    3.0028    2.1799 C   0  0  0  0  0  0  0  0  0  0  0  0
    6.2628    1.5668    2.9513 C   0  0  0  0  0  0  0  0  0  0  0  0
    3.9438    1.1457    3.8432 C   0  0  0  0  0  0  0  0  0  0  0  0
    3.6826    1.7632   -2.1061 C   0  0  0  0  0  0  0  0  0  0  0  0
    4.2275    0.0509   -3.8861 C   0  0  0  0  0  0  0  0  0  0  0  0
    4.0254   -1.4640   -3.9824 C   0  0  0  0  0  0  0  0  0  0  0  0
    4.4540   -0.5422   -1.5842 C   0  0  2  0  0  0  0  0  0  0  0  0
    4.9732    0.6479    0.3841 C   0  0  0  0  0  0  0  0  0  0  0  0
    4.7630    1.6108    2.6355 C   0  0  0  0  0  0  0  0  0  0  0  0
    4.6062   -0.4887   -0.3089 N   0  0  0  0  0  0  0  0  0  0  0  0
    4.0481    0.4044   -2.4800 N   0  0  0  0  0  0  0  0  0  0  0  0
    5.7358    1.5212   -0.0135 O   0  0  0  0  0  0  0  0  0  0  0  0
    4.4282    0.6049    1.6209 O   0  0  0  0  0  0  0  0  0  0  0  0
    4.7119   -2.1147   -2.4093 S   0  0  0  0  0  0  0  0  0  0  0  0
    4.4376    3.7209    2.9979 H   0  0  0  0  0  0  0  0  0  0  0  0
    3.2457    2.9855    1.9113 H   0  0  0  0  0  0  0  0  0  0  0  0
    4.8874    3.3416    1.3195 H   0  0  0  0  0  0  0  0  0  0  0  0
    6.4833    2.2355    3.7915 H   0  0  0  0  0  0  0  0  0  0  0  0
    6.8553    1.8773    2.0894 H   0  0  0  0  0  0  0  0  0  0  0  0
    6.5595    0.5518    3.2378 H   0  0  0  0  0  0  0  0  0  0  0  0
    4.1067    1.8181    4.6923 H   0  0  0  0  0  0  0  0  0  0  0  0
    4.2356    0.1330    4.1388 H   0  0  0  0  0  0  0  0  0  0  0  0
    2.8753    1.1380    3.6044 H   0  0  0  0  0  0  0  0  0  0  0  0
    4.5587    2.4072   -1.9807 H   0  0  0  0  0  0  0  0  0  0  0  0
    3.1347    1.7419   -1.1609 H   0  0  0  0  0  0  0  0  0  0  0  0
    3.0226    2.1672   -2.8794 H   0  0  0  0  0  0  0  0  0  0  0  0
    3.4939    0.5903   -4.4946 H   0  0  0  0  0  0  0  0  0  0  0  0
    5.2332    0.3337   -4.2307 H   0  0  0  0  0  0  0  0  0  0  0  0
    4.5621   -1.8957   -4.8291 H   0  0  0  0  0  0  0  0  0  0  0  0
    2.9652   -1.7226   -4.0561 H   0  0  0  0  0  0  0  0  0  0  0  0
  1  9  1  0  0  0  0
  1 15  1  0  0  0  0
  2 20  1  0  0  0  0
  2 18  1  0  0  0  0
  3 22  1  0  0  0  0
  3 21  1  0  0  0  0
  4 24  1  0  0  0  0
  4 25  1  0  0  0  0
  5 11  1  0  0  0  0
  6  5  1  0  0  0  0
  6 14  1  0  0  0  0
  7 10  1  1  0  0  0
  8 13  1  0  0  0  0
  9  2  1  0  0  0  0
  9  3  1  0  0  0  0
 10  8  1  0  0  0  0
 11  4  1  0  0  0  0
 11  7  1  0  0  0  0
 12  8  2  0  0  0  0
 13  9  1  0  0  0  0
 14  7  1  0  0  0  0
 16  1  1  0  0  0  0
 17  1  1  0  0  0  0
 19  2  1  0  0  0  0
 23  3  1  0  0  0  0
 26  4  1  0  0  0  0
 27  5  1  0  0  0  0
 28  5  1  0  0  0  0
 29  6  1  0  0  0  0
 30  6  1  0  0  0  0
M  RAD  2   7   2  10   2
M  END
>  <HBA>
5

>  <HBD>
0

>  <TPSA>
67.2

>  <cid>
58049

>  <dipole>
4.52

>  <excitation_energy_1>
4.883

>  <excitation_energy_2>
5.179

>  <excitation_energy_3>
5.435

>  <excitation_energy_4>
5.483

>  <homo_energy>
-6.242

>  <homo_lumo_gap>
6.046

>  <logP>
1.894

>  <lumo_energy>
-0.196

>  <melting_point>
57.29

>  <molecular_refractivity>
63.06

>  <oscillator_strength_1>
0.0052

>  <oscillator_strength_2>
0.0006

>  <oscillator_strength_3>
0.1478

>  <oscillator_strength_4>
0.0648

>  <open_babel_can_smiles>
O=C(OC(C)(C)C)[N][C]1SCCN1C

>  <mulliken_charges>
30
1   -0.466681
2   -0.466748
3   -0.447594
4   -0.3235
5   -0.12732
6   -0.446451
7   0.326201
8   0.703884
9   0.322103
10   -0.502511
11   -0.373571
12   -0.519885
13   -0.488594
14   0.178067
15   0.138698
16   0.139184
17   0.180406
18   0.136416
19   0.184884
20   0.149646
21   0.139134
22   0.156259
23   0.149992
24   0.202558
25   0.184619
26   0.152477
27   0.16179
28   0.174482
29   0.189095
30   0.192959

>  <lowdin_charges>
30
1   -0.458757
2   -0.458359
3   -0.441975
4   -0.351108
5   -0.19071
6   -0.379576
7   0.024186
8   0.206143
9   0.144515
10   -0.231214
11   -0.094432
12   -0.326146
13   -0.194202
14   0.187492
15   0.152697
16   0.147453
17   0.16947
18   0.151825
19   0.172236
20   0.154166
21   0.15136
22   0.157234
23   0.153122
24   0.173507
25   0.171661
26   0.155864
27   0.158474
28   0.153061
29   0.17685
30   0.165166

$$$$

