PCCDB-ID:  29960
public computational chemistry database (PCCDB) project, http://pccdb.org

 22 22  0  0  0  0  0  0  0  0999 V2000
    5.9555   -2.4774   -0.7398 C   0  0  0  0  0  0  0  0  0  0  0  0
    6.5043    1.5343    3.5538 C   0  0  0  0  0  0  0  0  0  0  0  0
    6.1181   -0.5811    4.6535 C   0  0  0  0  0  0  0  0  0  0  0  0
    5.6428    1.1566    2.5266 C   0  0  0  0  0  0  0  0  0  0  0  0
    5.2556   -0.9579    3.6281 C   0  0  0  0  0  0  0  0  0  0  0  0
    6.7574    0.6703    4.6319 C   0  0  0  0  0  0  0  0  0  0  0  0
    5.0247   -0.0880    2.5674 C   0  0  0  0  0  0  0  0  0  0  0  0
    4.4893   -1.1940    0.5500 C   0  0  0  0  0  0  0  0  0  0  0  0
    7.5784    1.0725    5.6941 N   0  0  0  0  0  0  0  0  0  0  0  0
    5.6634   -1.6525    0.4198 N   0  0  0  0  0  0  0  0  0  0  0  0
    3.4097   -1.3579   -0.2570 O   0  0  0  0  0  0  0  0  0  0  0  0
    4.0884   -0.4163    1.5789 O   0  0  0  0  0  0  0  0  0  0  0  0
    6.9742   -2.8657   -0.6544 H   0  0  0  0  0  0  0  0  0  0  0  0
    5.9052   -1.9122   -1.6854 H   0  0  0  0  0  0  0  0  0  0  0  0
    5.2880   -3.3524   -0.8325 H   0  0  0  0  0  0  0  0  0  0  0  0
    6.9826    2.5107    3.5241 H   0  0  0  0  0  0  0  0  0  0  0  0
    6.2958   -1.2601    5.4843 H   0  0  0  0  0  0  0  0  0  0  0  0
    5.4452    1.8248    1.6944 H   0  0  0  0  0  0  0  0  0  0  0  0
    4.7624   -1.9244    3.6472 H   0  0  0  0  0  0  0  0  0  0  0  0
    8.2721    1.7679    5.4464 H   0  0  0  0  0  0  0  0  0  0  0  0
    8.0017    0.3090    6.2079 H   0  0  0  0  0  0  0  0  0  0  0  0
    3.6752   -1.9125   -1.0073 H   0  0  0  0  0  0  0  0  0  0  0  0
  1 13  1  0  0  0  0
  1 10  1  0  0  0  0
  2  6  2  0  0  0  0
  3 17  1  0  0  0  0
  4  7  2  0  0  0  0
  4  2  1  0  0  0  0
  5 19  1  0  0  0  0
  5  3  2  0  0  0  0
  6  3  1  0  0  0  0
  6  9  1  0  0  0  0
  7  5  1  0  0  0  0
  8 12  1  0  0  0  0
  9 21  1  0  0  0  0
 10  8  2  0  0  0  0
 11  8  1  0  0  0  0
 12  7  1  0  0  0  0
 14  1  1  0  0  0  0
 15  1  1  0  0  0  0
 16  2  1  0  0  0  0
 18  4  1  0  0  0  0
 20  9  1  0  0  0  0
 22 11  1  0  0  0  0
M  END
>  <HBA>
4

>  <HBD>
2

>  <TPSA>
64.35

>  <cid>
29960

>  <dipole>
2.61

>  <excitation_energy_1>
4.63

>  <excitation_energy_2>
4.743

>  <excitation_energy_3>
4.941

>  <excitation_energy_4>
5.391

>  <homo_energy>
-5.358

>  <homo_lumo_gap>
5.478

>  <logP>
1.959

>  <lumo_energy>
0.12

>  <melting_point>
116.82

>  <molecular_refractivity>
45.54

>  <oscillator_strength_1>
0.0327

>  <oscillator_strength_2>
0.0053

>  <oscillator_strength_3>
0.004

>  <oscillator_strength_4>
0.1507

>  <open_babel_can_smiles>
C/N=C(/Oc1ccc(cc1)N)\O

>  <mulliken_charges>
22
1   -0.357745
2   -0.186861
3   -0.187418
4   -0.152632
5   -0.142581
6   0.317227
7   0.355699
8   0.658739
9   -0.788841
10   -0.426477
11   -0.589036
12   -0.526731
13   0.173022
14   0.144325
15   0.133596
16   0.120717
17   0.120763
18   0.136796
19   0.136574
20   0.318563
21   0.318582
22   0.423717

>  <lowdin_charges>
22
1   -0.365553
2   -0.193806
3   -0.194535
4   -0.155299
5   -0.14996
6   0.058408
7   0.086417
8   0.186511
9   -0.492965
10   -0.265562
11   -0.360186
12   -0.148404
13   0.162162
14   0.138598
15   0.132379
16   0.154139
17   0.155321
18   0.167499
19   0.166633
20   0.275254
21   0.27546
22   0.36749

$$$$

