PCCDB-ID:  47388
public computational chemistry database (PCCDB) project, http://pccdb.org

 43 42  0  0  0  0  0  0  0  0999 V2000
    0.7518    1.7714    1.2142 C   0  0  0  0  0  0  0  0  0  0  0  0
    7.2503   -2.0335    1.8214 C   0  0  0  0  0  0  0  0  0  0  0  0
    5.3088    1.4032   -2.5607 C   0  0  0  0  0  0  0  0  0  0  0  0
    5.7905    1.5948    4.8705 C   0  0  0  0  0  0  0  0  0  0  0  0
    5.3555    3.2157    2.2381 C   0  0  0  0  0  0  0  0  0  0  0  0
    2.2551    2.0758    1.2262 C   0  0  0  0  0  0  0  0  0  0  0  0
    6.7623   -0.6351    1.4255 C   0  0  0  0  0  0  0  0  0  0  0  0
    4.8119    0.7035   -1.2894 C   0  0  0  0  0  0  0  0  0  0  0  0
    4.7092    1.4891    3.7882 C   0  0  0  0  0  0  0  0  0  0  0  0
    3.1000    0.8001    1.3602 C   0  0  0  0  0  0  0  0  0  0  0  0
    5.2359   -0.5028    1.5033 C   0  0  0  0  0  0  0  0  0  0  0  0
    5.1263    1.5241   -0.0281 C   0  0  0  0  0  0  0  0  0  0  0  0
    4.6561    0.9356    1.3308 C   0  0  0  0  0  0  0  0  0  0  0  0
    5.2123    1.7780    2.4408 N   0  0  0  0  0  0  0  0  0  0  0  0
    0.1587    2.6883    1.1192 H   0  0  0  0  0  0  0  0  0  0  0  0
    0.4410    1.2681    2.1383 H   0  0  0  0  0  0  0  0  0  0  0  0
    0.4867    1.1145    0.3764 H   0  0  0  0  0  0  0  0  0  0  0  0
    8.3413   -2.1111    1.7470 H   0  0  0  0  0  0  0  0  0  0  0  0
    6.8184   -2.8079    1.1746 H   0  0  0  0  0  0  0  0  0  0  0  0
    6.9702   -2.2749    2.8545 H   0  0  0  0  0  0  0  0  0  0  0  0
    5.0864    0.8091   -3.4544 H   0  0  0  0  0  0  0  0  0  0  0  0
    6.3937    1.5623   -2.5279 H   0  0  0  0  0  0  0  0  0  0  0  0
    4.8352    2.3847   -2.6867 H   0  0  0  0  0  0  0  0  0  0  0  0
    5.3664    1.3571    5.8537 H   0  0  0  0  0  0  0  0  0  0  0  0
    6.2190    2.6008    4.9340 H   0  0  0  0  0  0  0  0  0  0  0  0
    6.6078    0.8952    4.6664 H   0  0  0  0  0  0  0  0  0  0  0  0
    5.9018    3.6350    3.0889 H   0  0  0  0  0  0  0  0  0  0  0  0
    4.4014    3.7687    2.1620 H   0  0  0  0  0  0  0  0  0  0  0  0
    5.9490    3.4380    1.3501 H   0  0  0  0  0  0  0  0  0  0  0  0
    2.4752    2.7582    2.0554 H   0  0  0  0  0  0  0  0  0  0  0  0
    2.5164    2.6156    0.3067 H   0  0  0  0  0  0  0  0  0  0  0  0
    7.1105   -0.4141    0.4076 H   0  0  0  0  0  0  0  0  0  0  0  0
    7.2148    0.1202    2.0780 H   0  0  0  0  0  0  0  0  0  0  0  0
    5.2742   -0.2891   -1.2273 H   0  0  0  0  0  0  0  0  0  0  0  0
    3.7310    0.5348   -1.3759 H   0  0  0  0  0  0  0  0  0  0  0  0
    3.8625    2.1504    4.0546 H   0  0  0  0  0  0  0  0  0  0  0  0
    4.3133    0.4716    3.8126 H   0  0  0  0  0  0  0  0  0  0  0  0
    2.8045    0.1030    0.5643 H   0  0  0  0  0  0  0  0  0  0  0  0
    2.8126    0.2975    2.2935 H   0  0  0  0  0  0  0  0  0  0  0  0
    4.9033   -0.9014    2.4709 H   0  0  0  0  0  0  0  0  0  0  0  0
    4.7736   -1.1587    0.7541 H   0  0  0  0  0  0  0  0  0  0  0  0
    4.6881    2.5191   -0.1671 H   0  0  0  0  0  0  0  0  0  0  0  0
    6.2116    1.6773    0.0219 H   0  0  0  0  0  0  0  0  0  0  0  0
  1  6  1  0  0  0  0
  1 16  1  0  0  0  0
  2 20  1  0  0  0  0
  3 22  1  0  0  0  0
  3  8  1  0  0  0  0
  4 25  1  0  0  0  0
  4 24  1  0  0  0  0
  5 14  1  0  0  0  0
  5 27  1  0  0  0  0
  6 10  1  0  0  0  0
  6 30  1  0  0  0  0
  7 11  1  0  0  0  0
  7  2  1  0  0  0  0
  7 33  1  0  0  0  0
  8 34  1  0  0  0  0
  8 12  1  0  0  0  0
  9 37  1  0  0  0  0
  9 36  1  0  0  0  0
  9  4  1  0  0  0  0
 10 39  1  0  0  0  0
 11 40  1  0  0  0  0
 12 43  1  0  0  0  0
 12 13  1  0  0  0  0
 13 10  1  0  0  0  0
 13 11  1  0  0  0  0
 13 14  1  0  0  0  0
 14  9  1  0  0  0  0
 15  1  1  0  0  0  0
 17  1  1  0  0  0  0
 18  2  1  0  0  0  0
 19  2  1  0  0  0  0
 21  3  1  0  0  0  0
 23  3  1  0  0  0  0
 26  4  1  0  0  0  0
 28  5  1  0  0  0  0
 29  5  1  0  0  0  0
 31  6  1  0  0  0  0
 32  7  1  0  0  0  0
 35  8  1  0  0  0  0
 38 10  1  0  0  0  0
 41 11  1  0  0  0  0
 42 12  1  0  0  0  0
M  END
>  <HBA>
1

>  <HBD>
0

>  <TPSA>
3.24

>  <cid>
47388

>  <dipole>
0.55

>  <excitation_energy_1>
4.792

>  <excitation_energy_2>
4.996

>  <excitation_energy_3>
5.121

>  <excitation_energy_4>
5.141

>  <homo_energy>
-5.206

>  <homo_lumo_gap>
7.2

>  <logP>
4.077

>  <lumo_energy>
1.995

>  <melting_point>
-17.55

>  <molecular_refractivity>
67.54

>  <oscillator_strength_1>
0.0085

>  <oscillator_strength_2>
0.0053

>  <oscillator_strength_3>
0.016

>  <oscillator_strength_4>
0.0193

>  <open_babel_can_smiles>
CCCC(N(CC)C)(CCC)CCC

>  <mulliken_charges>
43
1   -0.442876
2   -0.444272
3   -0.44348
4   -0.440805
5   -0.306368
6   -0.262223
7   -0.255624
8   -0.263422
9   -0.123833
10   -0.26076
11   -0.260968
12   -0.299067
13   0.222819
14   -0.403931
15   0.140944
16   0.141346
17   0.140322
18   0.139262
19   0.137291
20   0.13864
21   0.141864
22   0.142372
23   0.140818
24   0.134739
25   0.144822
26   0.15286
27   0.144786
28   0.119469
29   0.15255
30   0.142724
31   0.133294
32   0.128076
33   0.151736
34   0.140446
35   0.136542
36   0.114069
37   0.141902
38   0.127193
39   0.123383
40   0.123188
41   0.127317
42   0.138126
43   0.14473

>  <lowdin_charges>
43
1   -0.445063
2   -0.441914
3   -0.441239
4   -0.449521
5   -0.362243
6   -0.278605
7   -0.279658
8   -0.273904
9   -0.197761
10   -0.291819
11   -0.284015
12   -0.281324
13   0.069355
14   -0.193163
15   0.148889
16   0.146219
17   0.146085
18   0.14575
19   0.144607
20   0.143107
21   0.14964
22   0.144652
23   0.145215
24   0.147028
25   0.146321
26   0.152481
27   0.148975
28   0.120485
29   0.152765
30   0.143781
31   0.139787
32   0.136317
33   0.149937
34   0.142652
35   0.139411
36   0.120786
37   0.144844
38   0.141772
39   0.140178
40   0.138596
41   0.141291
42   0.143681
43   0.145621

$$$$

