PCCDB-ID:  12530
public computational chemistry database (PCCDB) project, http://pccdb.org

 41 40  0  0  0  0  0  0  0  0999 V2000
    6.4922    5.6766    2.3023 C   0  0  0  0  0  0  0  0  0  0  0  0
    5.3925    4.6292    2.5122 C   0  0  0  0  0  0  0  0  0  0  0  0
    5.7876    3.4745    3.4507 C   0  0  0  0  0  0  0  0  0  0  0  0
    6.9565    2.5889    2.9816 C   0  0  0  0  0  0  0  0  0  0  0  0
    6.6759    1.7953    1.6966 C   0  0  0  0  0  0  0  0  0  0  0  0
    7.8470    0.9204    1.2168 C   0  0  0  0  0  0  0  0  0  0  0  0
    8.2102   -0.2446    2.1490 C   0  0  0  0  0  0  0  0  0  0  0  0
    9.3294   -1.1366    1.5945 C   0  0  0  0  0  0  0  0  0  0  0  0
    9.7147   -2.2844    2.5390 C   0  0  0  0  0  0  0  0  0  0  0  0
   10.8943   -3.1490    2.0597 C   0  0  0  0  0  0  0  0  0  0  0  0
   10.6623   -3.9570    0.7699 C   0  0  0  0  0  0  0  0  0  0  0  0
    9.5822   -5.0414    0.8750 C   0  0  0  0  0  0  0  0  0  0  0  0
    9.9816   -6.2136    1.7672 C   0  0  0  0  0  0  0  0  0  0  0  0
   11.0887   -6.4084    2.2016 O   0  0  0  0  0  0  0  0  0  0  0  0
    8.9823   -7.1000    2.0426 O   0  0  0  0  0  0  0  0  0  0  0  0
    6.1343    6.5041    1.6789 H   0  0  0  0  0  0  0  0  0  0  0  0
    7.3735    5.2520    1.8081 H   0  0  0  0  0  0  0  0  0  0  0  0
    6.8223    6.0997    3.2595 H   0  0  0  0  0  0  0  0  0  0  0  0
    5.0767    4.2307    1.5388 H   0  0  0  0  0  0  0  0  0  0  0  0
    4.5063    5.1230    2.9332 H   0  0  0  0  0  0  0  0  0  0  0  0
    4.9068    2.8369    3.6148 H   0  0  0  0  0  0  0  0  0  0  0  0
    6.0424    3.8969    4.4335 H   0  0  0  0  0  0  0  0  0  0  0  0
    7.1983    1.8914    3.7941 H   0  0  0  0  0  0  0  0  0  0  0  0
    7.8570    3.2030    2.8378 H   0  0  0  0  0  0  0  0  0  0  0  0
    6.4136    2.4909    0.8885 H   0  0  0  0  0  0  0  0  0  0  0  0
    5.7888    1.1619    1.8504 H   0  0  0  0  0  0  0  0  0  0  0  0
    8.7345    1.5539    1.0687 H   0  0  0  0  0  0  0  0  0  0  0  0
    7.5986    0.5138    0.2258 H   0  0  0  0  0  0  0  0  0  0  0  0
    7.3133   -0.8566    2.3298 H   0  0  0  0  0  0  0  0  0  0  0  0
    8.5169    0.1416    3.1305 H   0  0  0  0  0  0  0  0  0  0  0  0
   10.2197   -0.5210    1.3966 H   0  0  0  0  0  0  0  0  0  0  0  0
    9.0162   -1.5366    0.6195 H   0  0  0  0  0  0  0  0  0  0  0  0
    8.8314   -2.9134    2.7254 H   0  0  0  0  0  0  0  0  0  0  0  0
    9.9799   -1.8600    3.5174 H   0  0  0  0  0  0  0  0  0  0  0  0
   11.1826   -3.8444    2.8562 H   0  0  0  0  0  0  0  0  0  0  0  0
   11.7627   -2.4954    1.8979 H   0  0  0  0  0  0  0  0  0  0  0  0
   11.6023   -4.4445    0.4893 H   0  0  0  0  0  0  0  0  0  0  0  0
   10.3969   -3.2846   -0.0549 H   0  0  0  0  0  0  0  0  0  0  0  0
    9.3676   -5.4566   -0.1210 H   0  0  0  0  0  0  0  0  0  0  0  0
    8.6323   -4.6241    1.2371 H   0  0  0  0  0  0  0  0  0  0  0  0
    8.1548   -6.8051    1.6277 H   0  0  0  0  0  0  0  0  0  0  0  0
  1  2  1  0  0  0  0
  1 18  1  0  0  0  0
  2 20  1  0  0  0  0
  2  3  1  0  0  0  0
  3 21  1  0  0  0  0
  3 22  1  0  0  0  0
  4  3  1  0  0  0  0
  4 23  1  0  0  0  0
  5 26  1  0  0  0  0
  5  4  1  0  0  0  0
  6  5  1  0  0  0  0
  6  7  1  0  0  0  0
  7 29  1  0  0  0  0
  7 30  1  0  0  0  0
  8  7  1  0  0  0  0
  8  9  1  0  0  0  0
  9 33  1  0  0  0  0
  9 34  1  0  0  0  0
 10  9  1  0  0  0  0
 10 35  1  0  0  0  0
 11 12  1  0  0  0  0
 11 10  1  0  0  0  0
 12 40  1  0  0  0  0
 12 13  1  0  0  0  0
 13 15  1  0  0  0  0
 13 14  2  0  0  0  0
 16  1  1  0  0  0  0
 17  1  1  0  0  0  0
 19  2  1  0  0  0  0
 24  4  1  0  0  0  0
 25  5  1  0  0  0  0
 27  6  1  0  0  0  0
 28  6  1  0  0  0  0
 31  8  1  0  0  0  0
 32  8  1  0  0  0  0
 36 10  1  0  0  0  0
 37 11  1  0  0  0  0
 38 11  1  0  0  0  0
 39 12  1  0  0  0  0
 41 15  1  0  0  0  0
M  END
>  <HBA>
2

>  <HBD>
1

>  <TPSA>
37.3

>  <cid>
12530

>  <dipole>
4.07

>  <excitation_energy_1>
5.701

>  <excitation_energy_2>
6.371

>  <excitation_energy_3>
7.197

>  <excitation_energy_4>
7.275

>  <homo_energy>
-7.35

>  <homo_lumo_gap>
7.636

>  <logP>
4.382

>  <lumo_energy>
0.286

>  <melting_point>
45.95

>  <molecular_refractivity>
66.38

>  <oscillator_strength_1>
0.0006

>  <oscillator_strength_2>
0.0137

>  <oscillator_strength_3>
0.0011

>  <oscillator_strength_4>
0.0012

>  <open_babel_can_smiles>
CCCCCCCCCCCCC(=O)O

>  <mulliken_charges>
41
1   -0.443282
2   -0.2506
3   -0.25223
4   -0.257902
5   -0.255611
6   -0.255021
7   -0.253737
8   -0.253644
9   -0.26007
10   -0.268815
11   -0.25362
12   -0.404639
13   0.608021
14   -0.437795
15   -0.567165
16   0.141646
17   0.145051
18   0.140869
19   0.134048
20   0.130727
21   0.125714
22   0.126147
23   0.132636
24   0.130038
25   0.132156
26   0.123874
27   0.127059
28   0.124355
29   0.122768
30   0.134989
31   0.129624
32   0.125601
33   0.120387
34   0.134428
35   0.160132
36   0.132226
37   0.160636
38   0.135367
39   0.172258
40   0.155932
41   0.407441

>  <lowdin_charges>
41
1   -0.448814
2   -0.276693
3   -0.276635
4   -0.281632
5   -0.278743
6   -0.274897
7   -0.27649
8   -0.277089
9   -0.279049
10   -0.282143
11   -0.275242
12   -0.326159
13   0.195113
14   -0.237295
15   -0.360322
16   0.150402
17   0.147124
18   0.146063
19   0.13898
20   0.14265
21   0.13977
22   0.139229
23   0.142792
24   0.13852
25   0.142409
26   0.136523
27   0.138161
28   0.138134
29   0.135838
30   0.139672
31   0.139384
32   0.134801
33   0.132715
34   0.144
35   0.156994
36   0.144915
37   0.160494
38   0.14576
39   0.168158
40   0.155312
41   0.357289

$$$$

