PCCDB-ID:  8144
public computational chemistry database (PCCDB) project, http://pccdb.org

 27 26  0  0  0  0  0  0  0  0999 V2000
    1.5239   -0.2523   -0.3936 C   0  0  0  0  0  0  0  0  0  0  0  0
    3.0332   -0.0635   -0.5755 C   0  0  0  0  0  0  0  0  0  0  0  0
    3.7896    0.0688    0.7525 C   0  0  0  0  0  0  0  0  0  0  0  0
    5.3028    0.2622    0.5862 C   0  0  0  0  0  0  0  0  0  0  0  0
    6.0394    0.3754    1.9294 C   0  0  0  0  0  0  0  0  0  0  0  0
    7.5307    0.7549    1.8729 C   0  0  0  0  0  0  0  0  0  0  0  0
    8.4724   -0.2750    1.2176 C   0  0  0  0  0  0  0  0  0  0  0  0
    8.6433   -0.1784   -0.3058 C   0  0  0  0  0  0  0  0  0  0  0  0
    9.4543    1.3683   -0.9076 S   0  0  0  0  0  0  0  0  0  0  0  0
    1.0115   -0.3415   -1.3583 H   0  0  0  0  0  0  0  0  0  0  0  0
    1.0803    0.5963    0.1417 H   0  0  0  0  0  0  0  0  0  0  0  0
    1.3044   -1.1583    0.1850 H   0  0  0  0  0  0  0  0  0  0  0  0
    3.2195    0.8298   -1.1888 H   0  0  0  0  0  0  0  0  0  0  0  0
    3.4426   -0.9115   -1.1431 H   0  0  0  0  0  0  0  0  0  0  0  0
    3.6030   -0.8262    1.3654 H   0  0  0  0  0  0  0  0  0  0  0  0
    3.3779    0.9162    1.3210 H   0  0  0  0  0  0  0  0  0  0  0  0
    5.4904    1.1657   -0.0131 H   0  0  0  0  0  0  0  0  0  0  0  0
    5.7027   -0.5815    0.0062 H   0  0  0  0  0  0  0  0  0  0  0  0
    5.9316   -0.5739    2.4760 H   0  0  0  0  0  0  0  0  0  0  0  0
    5.5257    1.1317    2.5404 H   0  0  0  0  0  0  0  0  0  0  0  0
    7.8650    0.9090    2.9071 H   0  0  0  0  0  0  0  0  0  0  0  0
    7.6531    1.7243    1.3717 H   0  0  0  0  0  0  0  0  0  0  0  0
    8.1228   -1.2927    1.4507 H   0  0  0  0  0  0  0  0  0  0  0  0
    9.4691   -0.1935    1.6709 H   0  0  0  0  0  0  0  0  0  0  0  0
    7.6795   -0.1874   -0.8211 H   0  0  0  0  0  0  0  0  0  0  0  0
    9.2151   -1.0334   -0.6794 H   0  0  0  0  0  0  0  0  0  0  0  0
   10.6346    1.1827   -0.2755 H   0  0  0  0  0  0  0  0  0  0  0  0
  1 11  1  0  0  0  0
  1 12  1  0  0  0  0
  2  1  1  0  0  0  0
  2  3  1  0  0  0  0
  3 16  1  0  0  0  0
  3 15  1  0  0  0  0
  4  3  1  0  0  0  0
  4  5  1  0  0  0  0
  5 19  1  0  0  0  0
  5 20  1  0  0  0  0
  6  5  1  0  0  0  0
  6 21  1  0  0  0  0
  7 23  1  0  0  0  0
  7 24  1  0  0  0  0
  7  6  1  0  0  0  0
  8  7  1  0  0  0  0
  9  8  1  0  0  0  0
  9 27  1  0  0  0  0
 10  1  1  0  0  0  0
 13  2  1  0  0  0  0
 14  2  1  0  0  0  0
 17  4  1  0  0  0  0
 18  4  1  0  0  0  0
 22  6  1  0  0  0  0
 25  8  1  0  0  0  0
 26  8  1  0  0  0  0
M  END
>  <HBA>
1

>  <HBD>
1

>  <TPSA>
38.8

>  <cid>
8144

>  <dipole>
1.76

>  <excitation_energy_1>
5.207

>  <excitation_energy_2>
5.811

>  <excitation_energy_3>
6.215

>  <excitation_energy_4>
6.324

>  <homo_energy>
-6.346

>  <homo_lumo_gap>
7.159

>  <logP>
3.277

>  <lumo_energy>
0.814

>  <melting_point>
-7.63

>  <molecular_refractivity>
48.5

>  <oscillator_strength_1>
0.0102

>  <oscillator_strength_2>
0.0263

>  <oscillator_strength_3>
0.0063

>  <oscillator_strength_4>
0.0101

>  <open_babel_can_smiles>
CCCCCCCCS

>  <mulliken_charges>
27
1   -0.441262
2   -0.247695
3   -0.246649
4   -0.257289
5   -0.255959
6   -0.26284
7   -0.250774
8   -0.415229
9   -0.091549
10   0.141993
11   0.14173
12   0.140786
13   0.131684
14   0.128756
15   0.126326
16   0.128095
17   0.132673
18   0.128072
19   0.125448
20   0.130165
21   0.130872
22   0.159485
23   0.138253
24   0.135786
25   0.184402
26   0.17405
27   0.09067

>  <lowdin_charges>
27
1   -0.445476
2   -0.273501
3   -0.27569
4   -0.280785
5   -0.275895
6   -0.280872
7   -0.278821
8   -0.374151
9   -0.094986
10   0.149248
11   0.147297
12   0.146253
13   0.139846
14   0.138868
15   0.137519
16   0.138808
17   0.140193
18   0.136936
19   0.135922
20   0.142915
21   0.144284
22   0.153772
23   0.144819
24   0.144299
25   0.168586
26   0.160587
27   0.110023

$$$$

