PCCDB-ID:  41236
public computational chemistry database (PCCDB) project, http://pccdb.org

 43 44  0  0  1  0  0  0  0  0999 V2000
    0.3599   -1.2933   -0.8767 C   0  0  0  0  0  0  0  0  0  0  0  0
    0.6961   -0.2252   -1.9240 C   0  0  0  0  0  0  0  0  0  0  0  0
    5.7316   -0.8722    0.9793 C   0  0  0  0  0  0  0  0  0  0  0  0
    4.4960   -1.7433    0.7046 C   0  0  0  0  0  0  0  0  0  0  0  0
    6.0481    0.0421   -0.2141 C   0  0  0  0  0  0  0  0  0  0  0  0
    1.9838   -0.1796   -5.6200 C   0  0  0  0  0  0  0  0  0  0  0  0
    3.2568   -1.0263   -5.4784 C   0  0  0  0  0  0  0  0  0  0  0  0
    4.6423   -2.5383   -0.6047 C   0  0  0  0  0  0  0  0  0  0  0  0
    6.1987   -0.7704   -1.5109 C   0  0  0  0  0  0  0  0  0  0  0  0
    1.5075    0.3595   -4.2622 C   0  0  0  0  0  0  0  0  0  0  0  0
    3.0832   -2.1253   -4.4180 C   0  0  0  0  0  0  0  0  0  0  0  0
    3.7643   -0.7969   -2.3123 C   0  0  0  0  0  0  0  0  0  0  0  0
    4.9650   -1.6475   -1.8284 C   0  0  0  0  0  0  0  0  0  0  0  0
    1.3272   -0.7655   -3.2228 C   0  0  1  0  0  0  0  0  0  0  0  0
    2.6424   -1.5812   -3.0363 C   0  0  1  0  0  0  0  0  0  0  0  0
   -0.1706   -0.8526   -0.0249 H   0  0  0  0  0  0  0  0  0  0  0  0
    1.2579   -1.7837   -0.4848 H   0  0  0  0  0  0  0  0  0  0  0  0
   -0.2849   -2.0733   -1.3012 H   0  0  0  0  0  0  0  0  0  0  0  0
    1.3441    0.5397   -1.4751 H   0  0  0  0  0  0  0  0  0  0  0  0
   -0.2289    0.3005   -2.1998 H   0  0  0  0  0  0  0  0  0  0  0  0
    6.5969   -1.5251    1.1697 H   0  0  0  0  0  0  0  0  0  0  0  0
    5.5833   -0.2775    1.8900 H   0  0  0  0  0  0  0  0  0  0  0  0
    3.6052   -1.1010    0.6569 H   0  0  0  0  0  0  0  0  0  0  0  0
    4.3272   -2.4356    1.5395 H   0  0  0  0  0  0  0  0  0  0  0  0
    6.9683    0.6092   -0.0230 H   0  0  0  0  0  0  0  0  0  0  0  0
    5.2470    0.7856   -0.3281 H   0  0  0  0  0  0  0  0  0  0  0  0
    1.1868   -0.8008   -6.0550 H   0  0  0  0  0  0  0  0  0  0  0  0
    2.1510    0.6483   -6.3213 H   0  0  0  0  0  0  0  0  0  0  0  0
    4.1012   -0.3759   -5.2111 H   0  0  0  0  0  0  0  0  0  0  0  0
    3.5170   -1.4817   -6.4428 H   0  0  0  0  0  0  0  0  0  0  0  0
    3.7376   -3.1325   -0.7867 H   0  0  0  0  0  0  0  0  0  0  0  0
    5.4606   -3.2628   -0.4821 H   0  0  0  0  0  0  0  0  0  0  0  0
    7.0770   -1.4252   -1.4104 H   0  0  0  0  0  0  0  0  0  0  0  0
    6.4075   -0.1014   -2.3565 H   0  0  0  0  0  0  0  0  0  0  0  0
    0.5572    0.8959   -4.3878 H   0  0  0  0  0  0  0  0  0  0  0  0
    2.2279    1.1000   -3.8852 H   0  0  0  0  0  0  0  0  0  0  0  0
    4.0096   -2.7055   -4.3265 H   0  0  0  0  0  0  0  0  0  0  0  0
    2.3174   -2.8329   -4.7685 H   0  0  0  0  0  0  0  0  0  0  0  0
    4.1497   -0.0133   -2.9774 H   0  0  0  0  0  0  0  0  0  0  0  0
    3.3331   -0.2657   -1.4565 H   0  0  0  0  0  0  0  0  0  0  0  0
    5.2531   -2.3149   -2.6521 H   0  0  0  0  0  0  0  0  0  0  0  0
    0.5961   -1.4740   -3.6484 H   0  0  0  0  0  0  0  0  0  0  0  0
    2.3955   -2.4528   -2.4152 H   0  0  0  0  0  0  0  0  0  0  0  0
  1 17  1  0  0  0  0
  1 16  1  0  0  0  0
  2 19  1  0  0  0  0
  2  1  1  0  0  0  0
  3 21  1  0  0  0  0
  3 22  1  0  0  0  0
  4  3  1  0  0  0  0
  4 24  1  0  0  0  0
  5 25  1  0  0  0  0
  5  3  1  0  0  0  0
  6  7  1  0  0  0  0
  6 10  1  0  0  0  0
  7 29  1  0  0  0  0
  7 11  1  0  0  0  0
  8 32  1  0  0  0  0
  8  4  1  0  0  0  0
  9 33  1  0  0  0  0
  9  5  1  0  0  0  0
 10 36  1  0  0  0  0
 10 14  1  0  0  0  0
 11 37  1  0  0  0  0
 11 15  1  0  0  0  0
 12 13  1  0  0  0  0
 12 40  1  0  0  0  0
 13  9  1  0  0  0  0
 13  8  1  0  0  0  0
 14 42  1  6  0  0  0
 14 15  1  0  0  0  0
 14  2  1  0  0  0  0
 15 43  1  1  0  0  0
 15 12  1  0  0  0  0
 18  1  1  0  0  0  0
 20  2  1  0  0  0  0
 23  4  1  0  0  0  0
 26  5  1  0  0  0  0
 27  6  1  0  0  0  0
 28  6  1  0  0  0  0
 30  7  1  0  0  0  0
 31  8  1  0  0  0  0
 34  9  1  0  0  0  0
 35 10  1  0  0  0  0
 38 11  1  0  0  0  0
 39 12  1  0  0  0  0
 41 13  1  0  0  0  0
M  END
>  <HBA>
0

>  <HBD>
0

>  <TPSA>
0.0

>  <cid>
41236

>  <dipole>
0.03

>  <excitation_energy_1>
6.946

>  <excitation_energy_2>
7.033

>  <excitation_energy_3>
7.155

>  <excitation_energy_4>
7.175

>  <homo_energy>
-7.502

>  <homo_lumo_gap>
9.35

>  <logP>
5.173

>  <lumo_energy>
1.848

>  <melting_point>
12.62

>  <molecular_refractivity>
69.99

>  <oscillator_strength_1>
0.0013

>  <oscillator_strength_2>
0.0033

>  <oscillator_strength_3>
0.0

>  <oscillator_strength_4>
0.0012

>  <open_babel_can_smiles>
CC[C@H]1CCCC[C@H]1CC1CCCCC1

>  <mulliken_charges>
43
1   -0.455322
2   -0.257822
3   -0.254614
4   -0.26313
5   -0.258975
6   -0.258462
7   -0.259656
8   -0.269652
9   -0.266343
10   -0.264925
11   -0.273405
12   -0.281972
13   -0.080758
14   -0.074256
15   -0.089786
16   0.141012
17   0.152106
18   0.140346
19   0.130871
20   0.127363
21   0.125329
22   0.127483
23   0.133739
24   0.128654
25   0.128225
26   0.131186
27   0.125344
28   0.126876
29   0.131225
30   0.128137
31   0.132265
32   0.125326
33   0.123386
34   0.12487
35   0.124963
36   0.129069
37   0.131788
38   0.124586
39   0.128933
40   0.136444
41   0.11983
42   0.108745
43   0.120974

>  <lowdin_charges>
43
1   -0.451089
2   -0.278072
3   -0.278358
4   -0.282477
5   -0.280971
6   -0.279013
7   -0.280929
8   -0.282738
9   -0.280014
10   -0.281205
11   -0.282242
12   -0.289193
13   -0.131519
14   -0.131081
15   -0.13438
16   0.150543
17   0.148681
18   0.147076
19   0.139381
20   0.141276
21   0.136622
22   0.141931
23   0.137883
24   0.143707
25   0.142749
26   0.138666
27   0.13737
28   0.142264
29   0.138318
30   0.142669
31   0.141273
32   0.139472
33   0.137521
34   0.140357
35   0.140775
36   0.138825
37   0.141468
38   0.139297
39   0.140747
40   0.143798
41   0.138606
42   0.133031
43   0.138975

$$$$

