PCCDB-ID:  69719
public computational chemistry database (PCCDB) project, http://pccdb.org

 24 24  0  0  0  0  0  0  0  0999 V2000
   -1.5850   -0.5108    0.1317 C   0  0  0  0  0  0  0  0  0  0  0  0
   -0.7738   -1.2842   -0.7028 C   0  0  0  0  0  0  0  0  0  0  0  0
   -1.0071    0.4664    0.9423 C   0  0  0  0  0  0  0  0  0  0  0  0
    5.5878   -2.2802   -0.1153 C   0  0  0  0  0  0  0  0  0  0  0  0
    0.6049   -1.0774   -0.7303 C   0  0  0  0  0  0  0  0  0  0  0  0
    0.3747    0.6670    0.9181 C   0  0  0  0  0  0  0  0  0  0  0  0
    7.0474   -2.1598   -0.1396 C   0  0  0  0  0  0  0  0  0  0  0  0
    4.8869   -0.9161    0.0388 C   0  0  0  0  0  0  0  0  0  0  0  0
    2.6890    0.1484    0.0305 C   0  0  0  0  0  0  0  0  0  0  0  0
    1.1944   -0.0967    0.0798 C   0  0  0  0  0  0  0  0  0  0  0  0
    8.2023   -2.0441   -0.1577 N   0  0  0  0  0  0  0  0  0  0  0  0
    3.4433   -1.1088    0.0404 N   0  0  0  0  0  0  0  0  0  0  0  0
   -2.6596   -0.6721    0.1516 H   0  0  0  0  0  0  0  0  0  0  0  0
   -1.2175   -2.0478   -1.3365 H   0  0  0  0  0  0  0  0  0  0  0  0
   -1.6289    1.0688    1.5994 H   0  0  0  0  0  0  0  0  0  0  0  0
    5.3076   -2.9449    0.7124 H   0  0  0  0  0  0  0  0  0  0  0  0
    5.2452   -2.7595   -1.0391 H   0  0  0  0  0  0  0  0  0  0  0  0
    1.2399   -1.6798   -1.3731 H   0  0  0  0  0  0  0  0  0  0  0  0
    0.8212    1.4263    1.5567 H   0  0  0  0  0  0  0  0  0  0  0  0
    5.1468   -0.2830   -0.8176 H   0  0  0  0  0  0  0  0  0  0  0  0
    5.2712   -0.4036    0.9394 H   0  0  0  0  0  0  0  0  0  0  0  0
    2.9752    0.8271    0.8553 H   0  0  0  0  0  0  0  0  0  0  0  0
    2.9507    0.6727   -0.9003 H   0  0  0  0  0  0  0  0  0  0  0  0
    3.1690   -1.6451    0.8635 H   0  0  0  0  0  0  0  0  0  0  0  0
  1 13  1  0  0  0  0
  1  3  2  0  0  0  0
  2  1  1  0  0  0  0
  3 15  1  0  0  0  0
  4  8  1  0  0  0  0
  4 16  1  0  0  0  0
  5  2  2  0  0  0  0
  5 10  1  0  0  0  0
  6  3  1  0  0  0  0
  6 19  1  0  0  0  0
  7  4  1  0  0  0  0
  8 12  1  0  0  0  0
  8 21  1  0  0  0  0
  9 12  1  0  0  0  0
  9 10  1  0  0  0  0
  9 22  1  0  0  0  0
 10  6  2  0  0  0  0
 11  7  3  0  0  0  0
 12 24  1  0  0  0  0
 14  2  1  0  0  0  0
 17  4  1  0  0  0  0
 18  5  1  0  0  0  0
 20  8  1  0  0  0  0
 23  9  1  0  0  0  0
M  END
>  <HBA>
2

>  <HBD>
1

>  <TPSA>
35.82

>  <cid>
69719

>  <dipole>
3.99

>  <excitation_energy_1>
5.267

>  <excitation_energy_2>
5.357

>  <excitation_energy_3>
5.622

>  <excitation_energy_4>
5.721

>  <homo_energy>
-6.517

>  <homo_lumo_gap>
6.332

>  <logP>
2.081

>  <lumo_energy>
-0.185

>  <melting_point>
66.24

>  <molecular_refractivity>
48.38

>  <oscillator_strength_1>
0.0003

>  <oscillator_strength_2>
0.0018

>  <oscillator_strength_3>
0.0179

>  <oscillator_strength_4>
0.0018

>  <open_babel_can_smiles>
N#CCCNCc1ccccc1

>  <mulliken_charges>
24
1   -0.128002
2   -0.131048
3   -0.128513
4   -0.345052
5   -0.163914
6   -0.185825
7   0.347444
8   -0.115748
9   -0.18848
10   0.127634
11   -0.470938
12   -0.561063
13   0.1303
14   0.130873
15   0.130624
16   0.188403
17   0.206923
18   0.141812
19   0.124343
20   0.165016
21   0.139965
22   0.125104
23   0.16058
24   0.299561

>  <lowdin_charges>
24
1   -0.155688
2   -0.155342
3   -0.157106
4   -0.276605
5   -0.160941
6   -0.16837
7   -0.019433
8   -0.194032
9   -0.197606
10   -0.017158
11   -0.12665
12   -0.360644
13   0.156156
14   0.158949
15   0.159587
16   0.178731
17   0.188245
18   0.166149
19   0.155664
20   0.156515
21   0.132378
22   0.127387
23   0.153749
24   0.256067

$$$$

