PCCDB-ID:  23752
public computational chemistry database (PCCDB) project, http://pccdb.org

 28 27  0  0  0  0  0  0  0  0999 V2000
    5.5028    0.5233    0.0565 C   0  0  0  0  0  0  0  0  0  0  0  0
    5.1551   -0.2401    2.3656 C   0  0  0  0  0  0  0  0  0  0  0  0
   -1.8624   -1.6415    0.6158 C   0  0  0  0  0  0  0  0  0  0  0  0
   -2.1906   -2.4661    2.9064 C   0  0  0  0  0  0  0  0  0  0  0  0
    2.3616   -0.8691    1.7523 C   0  0  0  0  0  0  0  0  0  0  0  0
    0.9548   -1.0931    1.2020 C   0  0  0  0  0  0  0  0  0  0  0  0
    3.2901   -0.2986    0.6794 C   0  0  0  0  0  0  0  0  0  0  0  0
    0.0326   -1.6850    2.2690 C   0  0  0  0  0  0  0  0  0  0  0  0
    4.5911   -0.0365    1.0427 N   0  0  0  0  0  0  0  0  0  0  0  0
   -1.2758   -1.9212    1.9148 N   0  0  0  0  0  0  0  0  0  0  0  0
    2.8833   -0.0861   -0.4618 O   0  0  0  0  0  0  0  0  0  0  0  0
    0.4514   -1.9381    3.3976 O   0  0  0  0  0  0  0  0  0  0  0  0
    6.3547   -0.1504   -0.1073 H   0  0  0  0  0  0  0  0  0  0  0  0
    5.8925    1.4917    0.3987 H   0  0  0  0  0  0  0  0  0  0  0  0
    4.9593    0.6581   -0.8774 H   0  0  0  0  0  0  0  0  0  0  0  0
    6.0507   -0.8732    2.3024 H   0  0  0  0  0  0  0  0  0  0  0  0
    4.4443   -0.7254    3.0318 H   0  0  0  0  0  0  0  0  0  0  0  0
    5.4526    0.7179    2.8159 H   0  0  0  0  0  0  0  0  0  0  0  0
   -2.3178   -2.5510    0.2006 H   0  0  0  0  0  0  0  0  0  0  0  0
   -1.1154   -1.2839   -0.0904 H   0  0  0  0  0  0  0  0  0  0  0  0
   -2.6507   -0.8798    0.6995 H   0  0  0  0  0  0  0  0  0  0  0  0
   -2.6225   -3.4115    2.5517 H   0  0  0  0  0  0  0  0  0  0  0  0
   -3.0135   -1.7644    3.1004 H   0  0  0  0  0  0  0  0  0  0  0  0
   -1.6361   -2.6400    3.8273 H   0  0  0  0  0  0  0  0  0  0  0  0
    2.7570   -1.8150    2.1391 H   0  0  0  0  0  0  0  0  0  0  0  0
    2.3159   -0.1990    2.6180 H   0  0  0  0  0  0  0  0  0  0  0  0
    1.0039   -1.7524    0.3281 H   0  0  0  0  0  0  0  0  0  0  0  0
    0.5508   -0.1458    0.8280 H   0  0  0  0  0  0  0  0  0  0  0  0
  1 14  1  0  0  0  0
  1  9  1  0  0  0  0
  2 18  1  0  0  0  0
  2 17  1  0  0  0  0
  3 21  1  0  0  0  0
  3 10  1  0  0  0  0
  4 23  1  0  0  0  0
  4 24  1  0  0  0  0
  5 25  1  0  0  0  0
  5 26  1  0  0  0  0
  6  5  1  0  0  0  0
  6  8  1  0  0  0  0
  7  9  1  0  0  0  0
  7  5  1  0  0  0  0
  8 12  2  0  0  0  0
  9  2  1  0  0  0  0
 10  8  1  0  0  0  0
 10  4  1  0  0  0  0
 11  7  2  0  0  0  0
 13  1  1  0  0  0  0
 15  1  1  0  0  0  0
 16  2  1  0  0  0  0
 19  3  1  0  0  0  0
 20  3  1  0  0  0  0
 22  4  1  0  0  0  0
 27  6  1  0  0  0  0
 28  6  1  0  0  0  0
M  END
>  <HBA>
4

>  <HBD>
0

>  <TPSA>
40.62

>  <cid>
23752

>  <dipole>
0.16

>  <excitation_energy_1>
5.648

>  <excitation_energy_2>
5.698

>  <excitation_energy_3>
5.821

>  <excitation_energy_4>
5.84

>  <homo_energy>
-6.332

>  <homo_lumo_gap>
7.178

>  <logP>
-0.057

>  <lumo_energy>
0.846

>  <melting_point>
20.16

>  <molecular_refractivity>
46.76

>  <oscillator_strength_1>
0.0004

>  <oscillator_strength_2>
0.0001

>  <oscillator_strength_3>
0.0002

>  <oscillator_strength_4>
0.0445

>  <open_babel_can_smiles>
CN(C(=O)CCC(=O)N(C)C)C

>  <mulliken_charges>
28
1   -0.321295
2   -0.320037
3   -0.320026
4   -0.321362
5   -0.374034
6   -0.373926
7   0.608596
8   0.608623
9   -0.415027
10   -0.415083
11   -0.531986
12   -0.532018
13   0.148991
14   0.148128
15   0.204701
16   0.157168
17   0.183734
18   0.156485
19   0.157088
20   0.183751
21   0.156475
22   0.148498
23   0.148616
24   0.204762
25   0.178724
26   0.175923
27   0.178689
28   0.175841

>  <lowdin_charges>
28
1   -0.357717
2   -0.354561
3   -0.355137
4   -0.358279
5   -0.302491
6   -0.302463
7   0.157662
8   0.157889
9   -0.108242
10   -0.108318
11   -0.325329
12   -0.325391
13   0.147509
14   0.146277
15   0.184687
16   0.151008
17   0.17326
18   0.149006
19   0.151268
20   0.173058
21   0.149434
22   0.14695
23   0.147241
24   0.184835
25   0.170011
26   0.168961
27   0.170199
28   0.168672

$$$$

