PCCDB-ID:  18938
public computational chemistry database (PCCDB) project, http://pccdb.org

 30 29  0  0  1  0  0  0  0  0999 V2000
    4.3496    0.6452   -1.9018 C   0  0  0  0  0  0  0  0  0  0  0  0
    6.4776   -1.6225   -0.3989 C   0  0  0  0  0  0  0  0  0  0  0  0
    5.4502   -1.3688    1.8830 C   0  0  0  0  0  0  0  0  0  0  0  0
    4.9487   -3.3932    0.4973 C   0  0  0  0  0  0  0  0  0  0  0  0
    2.6988    1.0062    0.0112 C   0  0  0  0  0  0  0  0  0  0  0  0
    2.6714    2.5337   -0.0875 C   0  0  0  0  0  0  0  0  0  0  0  0
    3.9590   -1.1946   -0.1698 C   0  0  0  0  0  0  0  0  0  0  0  0
    4.0181    0.3364   -0.4301 C   0  0  1  0  0  0  0  0  0  0  0  0
    5.2141   -1.8748    0.4456 C   0  0  0  0  0  0  0  0  0  0  0  0
    1.5021    3.0947    0.5048 O   0  0  0  0  0  0  0  0  0  0  0  0
    4.5125    1.7150   -2.0725 H   0  0  0  0  0  0  0  0  0  0  0  0
    3.5292    0.3236   -2.5573 H   0  0  0  0  0  0  0  0  0  0  0  0
    5.2535    0.1204   -2.2264 H   0  0  0  0  0  0  0  0  0  0  0  0
    7.3370   -2.1553    0.0267 H   0  0  0  0  0  0  0  0  0  0  0  0
    6.7388   -0.5589   -0.4364 H   0  0  0  0  0  0  0  0  0  0  0  0
    6.3466   -1.9755   -1.4293 H   0  0  0  0  0  0  0  0  0  0  0  0
    6.3146   -1.8715    2.3341 H   0  0  0  0  0  0  0  0  0  0  0  0
    4.5793   -1.5684    2.5196 H   0  0  0  0  0  0  0  0  0  0  0  0
    5.6470   -0.2910    1.9134 H   0  0  0  0  0  0  0  0  0  0  0  0
    5.7911   -3.9249    0.9567 H   0  0  0  0  0  0  0  0  0  0  0  0
    4.8027   -3.8053   -0.5090 H   0  0  0  0  0  0  0  0  0  0  0  0
    4.0506   -3.6202    1.0852 H   0  0  0  0  0  0  0  0  0  0  0  0
    1.8676    0.5911   -0.5825 H   0  0  0  0  0  0  0  0  0  0  0  0
    2.4930    0.7455    1.0575 H   0  0  0  0  0  0  0  0  0  0  0  0
    2.7733    2.8657   -1.1321 H   0  0  0  0  0  0  0  0  0  0  0  0
    3.5124    2.9613    0.4706 H   0  0  0  0  0  0  0  0  0  0  0  0
    3.7180   -1.7028   -1.1150 H   0  0  0  0  0  0  0  0  0  0  0  0
    3.1182   -1.4117    0.5037 H   0  0  0  0  0  0  0  0  0  0  0  0
    4.8165    0.7684    0.1905 H   0  0  0  0  0  0  0  0  0  0  0  0
    0.7388    2.7575    0.0105 H   0  0  0  0  0  0  0  0  0  0  0  0
  1  8  1  0  0  0  0
  2 14  1  0  0  0  0
  2  9  1  0  0  0  0
  3 19  1  0  0  0  0
  3 17  1  0  0  0  0
  3 18  1  0  0  0  0
  4 20  1  0  0  0  0
  4 22  1  0  0  0  0
  5 24  1  0  0  0  0
  6  5  1  0  0  0  0
  6 26  1  0  0  0  0
  6 10  1  0  0  0  0
  7  9  1  0  0  0  0
  7 28  1  0  0  0  0
  8  7  1  0  0  0  0
  8  5  1  0  0  0  0
  8 29  1  1  0  0  0
  9  4  1  0  0  0  0
  9  3  1  0  0  0  0
 11  1  1  0  0  0  0
 12  1  1  0  0  0  0
 13  1  1  0  0  0  0
 15  2  1  0  0  0  0
 16  2  1  0  0  0  0
 21  4  1  0  0  0  0
 23  5  1  0  0  0  0
 25  6  1  0  0  0  0
 27  7  1  0  0  0  0
 30 10  1  0  0  0  0
M  END
>  <HBA>
1

>  <HBD>
1

>  <TPSA>
20.23

>  <cid>
18938

>  <dipole>
1.72

>  <excitation_energy_1>
6.346

>  <excitation_energy_2>
6.887

>  <excitation_energy_3>
7.09

>  <excitation_energy_4>
7.258

>  <homo_energy>
-6.977

>  <homo_lumo_gap>
8.934

>  <logP>
2.441

>  <lumo_energy>
1.957

>  <melting_point>
8.75

>  <molecular_refractivity>
46.28

>  <oscillator_strength_1>
0.0093

>  <oscillator_strength_2>
0.0095

>  <oscillator_strength_3>
0.0085

>  <oscillator_strength_4>
0.0086

>  <open_babel_can_smiles>
OCC[C@@H](CC(C)(C)C)C

>  <mulliken_charges>
30
1   -0.463708
2   -0.445201
3   -0.444727
4   -0.441765
5   -0.290668
6   -0.031927
7   -0.26351
8   -0.068422
9   0.095697
10   -0.617256
11   0.143835
12   0.137931
13   0.15056
14   0.137435
15   0.143248
16   0.137907
17   0.138496
18   0.137959
19   0.142138
20   0.137323
21   0.137193
22   0.137687
23   0.117106
24   0.145613
25   0.122274
26   0.142915
27   0.124719
28   0.126687
29   0.125736
30   0.384725

>  <lowdin_charges>
30
1   -0.450842
2   -0.443135
3   -0.444575
4   -0.442915
5   -0.295929
6   -0.137471
7   -0.27687
8   -0.127335
9   0.016108
10   -0.470363
11   0.145675
12   0.145249
13   0.153032
14   0.148038
15   0.14636
16   0.144768
17   0.148264
18   0.147087
19   0.14492
20   0.147388
21   0.145165
22   0.146571
23   0.133074
24   0.147243
25   0.124838
26   0.145423
27   0.140334
28   0.141876
29   0.137594
30   0.340429

$$$$

