PCCDB-ID:  58289
public computational chemistry database (PCCDB) project, http://pccdb.org

 28 29  0  0  0  0  0  0  0  0999 V2000
    4.5354   -0.9010    2.2907 C   0  0  0  0  0  0  0  0  0  0  0  0
    2.6117   -2.0765    1.2600 C   0  0  0  0  0  0  0  0  0  0  0  0
    6.2288   -1.1967   -3.9913 C   0  0  0  0  0  0  0  0  0  0  0  0
    6.3663   -2.3707   -4.6958 C   0  0  0  0  0  0  0  0  0  0  0  0
    5.5155   -1.1641   -2.7704 C   0  0  0  0  0  0  0  0  0  0  0  0
    4.4910   -4.7614   -2.5201 C   0  0  0  0  0  0  0  0  0  0  0  0
    4.6541   -5.8972   -3.2805 C   0  0  0  0  0  0  0  0  0  0  0  0
    5.8726   -4.8056   -4.8757 C   0  0  0  0  0  0  0  0  0  0  0  0
    4.6289   -1.6266   -0.0412 C   0  0  0  0  0  0  0  0  0  0  0  0
    5.7785   -3.5607   -4.1936 C   0  0  0  0  0  0  0  0  0  0  0  0
    5.0572   -3.5411   -2.9629 C   0  0  0  0  0  0  0  0  0  0  0  0
    4.9430   -2.3097   -2.2303 C   0  0  0  0  0  0  0  0  0  0  0  0
    5.3420   -5.9355   -4.4550 N   0  0  0  0  0  0  0  0  0  0  0  0
    4.2136   -2.3258   -1.0391 N   0  0  0  0  0  0  0  0  0  0  0  0
    3.9105   -1.4435    1.0992 N   0  0  0  0  0  0  0  0  0  0  0  0
    4.7513   -1.6847    3.0323 H   0  0  0  0  0  0  0  0  0  0  0  0
    3.8768   -0.1603    2.7603 H   0  0  0  0  0  0  0  0  0  0  0  0
    5.4750   -0.4087    2.0257 H   0  0  0  0  0  0  0  0  0  0  0  0
    2.6931   -3.0323    1.7978 H   0  0  0  0  0  0  0  0  0  0  0  0
    2.1889   -2.2661    0.2733 H   0  0  0  0  0  0  0  0  0  0  0  0
    1.9502   -1.4128    1.8281 H   0  0  0  0  0  0  0  0  0  0  0  0
    6.6601   -0.2754   -4.3743 H   0  0  0  0  0  0  0  0  0  0  0  0
    6.9077   -2.4000   -5.6379 H   0  0  0  0  0  0  0  0  0  0  0  0
    5.3819   -0.2144   -2.2592 H   0  0  0  0  0  0  0  0  0  0  0  0
    3.9312   -4.7818   -1.5918 H   0  0  0  0  0  0  0  0  0  0  0  0
    4.2239   -6.8440   -2.9604 H   0  0  0  0  0  0  0  0  0  0  0  0
    6.4212   -4.8449   -5.8185 H   0  0  0  0  0  0  0  0  0  0  0  0
    5.6004   -1.1152   -0.0351 H   0  0  0  0  0  0  0  0  0  0  0  0
  1 17  1  0  0  0  0
  1 16  1  0  0  0  0
  2 19  1  0  0  0  0
  2 21  1  0  0  0  0
  3  5  2  0  0  0  0
  4 10  2  0  0  0  0
  4  3  1  0  0  0  0
  5 24  1  0  0  0  0
  5 12  1  0  0  0  0
  6 25  1  0  0  0  0
  7 26  1  0  0  0  0
  7  6  2  0  0  0  0
  8 13  2  0  0  0  0
  8 10  1  0  0  0  0
  9 28  1  0  0  0  0
  9 15  1  0  0  0  0
 10 11  1  0  0  0  0
 11  6  1  0  0  0  0
 11 12  2  0  0  0  0
 12 14  1  0  0  0  0
 13  7  1  0  0  0  0
 14  9  2  0  0  0  0
 15  2  1  0  0  0  0
 15  1  1  0  0  0  0
 18  1  1  0  0  0  0
 20  2  1  0  0  0  0
 22  3  1  0  0  0  0
 23  4  1  0  0  0  0
 27  8  1  0  0  0  0
M  END
>  <HBA>
3

>  <HBD>
0

>  <TPSA>
28.49

>  <cid>
58289

>  <dipole>
6.19

>  <excitation_energy_1>
3.775

>  <excitation_energy_2>
4.252

>  <excitation_energy_3>
4.377

>  <excitation_energy_4>
4.562

>  <homo_energy>
-5.295

>  <homo_lumo_gap>
4.27

>  <logP>
2.456

>  <lumo_energy>
-1.026

>  <melting_point>
90.7

>  <molecular_refractivity>
63.46

>  <oscillator_strength_1>
0.2409

>  <oscillator_strength_2>
0.0733

>  <oscillator_strength_3>
0.0021

>  <oscillator_strength_4>
0.0331

>  <open_babel_can_smiles>
CN(/C=N/c1cccc2c1ccnc2)C

>  <mulliken_charges>
28
1   -0.311834
2   -0.314355
3   -0.142122
4   -0.193688
5   -0.177996
6   -0.182729
7   0.021287
8   -0.013658
9   0.26417
10   0.102461
11   0.097379
12   0.241733
13   -0.418434
14   -0.535241
15   -0.368459
16   0.161477
17   0.163713
18   0.167338
19   0.157602
20   0.203791
21   0.153583
22   0.12848
23   0.129483
24   0.122195
25   0.144137
26   0.132606
27   0.134297
28   0.132784

>  <lowdin_charges>
28
1   -0.348952
2   -0.353698
3   -0.15497
4   -0.166563
5   -0.194592
6   -0.168763
7   -0.107059
8   -0.089586
9   -0.01972
10   -0.021022
11   -0.002429
12   0.048046
13   -0.152524
14   -0.22498
15   -0.0846
16   0.150336
17   0.156267
18   0.162591
19   0.150008
20   0.182742
21   0.154836
22   0.158131
23   0.158383
24   0.155499
25   0.170325
26   0.15367
27   0.151343
28   0.13728

$$$$

