PCCDB-ID:  8085
public computational chemistry database (PCCDB) project, http://pccdb.org

 28 27  0  0  0  0  0  0  0  0999 V2000
    2.2094    0.5951   -1.7315 C   0  0  0  0  0  0  0  0  0  0  0  0
    1.3140    0.1279    0.5945 C   0  0  0  0  0  0  0  0  0  0  0  0
    6.2097   -4.7571   -2.2561 C   0  0  0  0  0  0  0  0  0  0  0  0
    5.5680   -2.7705   -3.6959 C   0  0  0  0  0  0  0  0  0  0  0  0
    2.8865   -1.5199   -0.4913 C   0  0  0  0  0  0  0  0  0  0  0  0
    4.4871   -3.1148   -1.4201 C   0  0  0  0  0  0  0  0  0  0  0  0
    2.5016   -0.0369   -0.3639 C   0  0  0  0  0  0  0  0  0  0  0  0
    5.7596   -3.2896   -2.2652 C   0  0  0  0  0  0  0  0  0  0  0  0
    4.0999   -1.7119   -1.2829 N   0  0  0  0  0  0  0  0  0  0  0  0
    2.0158    1.6702   -1.6360 H   0  0  0  0  0  0  0  0  0  0  0  0
    1.3220    0.1353   -2.1864 H   0  0  0  0  0  0  0  0  0  0  0  0
    3.0486    0.4490   -2.4172 H   0  0  0  0  0  0  0  0  0  0  0  0
    1.0475    1.1844    0.7142 H   0  0  0  0  0  0  0  0  0  0  0  0
    1.5381   -0.2766    1.5890 H   0  0  0  0  0  0  0  0  0  0  0  0
    0.4274   -0.3952    0.2132 H   0  0  0  0  0  0  0  0  0  0  0  0
    7.1312   -4.8911   -2.8346 H   0  0  0  0  0  0  0  0  0  0  0  0
    5.4429   -5.4039   -2.7025 H   0  0  0  0  0  0  0  0  0  0  0  0
    6.3978   -5.1165   -1.2373 H   0  0  0  0  0  0  0  0  0  0  0  0
    6.5035   -2.8257   -4.2657 H   0  0  0  0  0  0  0  0  0  0  0  0
    5.2203   -1.7337   -3.6917 H   0  0  0  0  0  0  0  0  0  0  0  0
    4.8185   -3.3721   -4.2274 H   0  0  0  0  0  0  0  0  0  0  0  0
    2.0714   -2.0610   -0.9938 H   0  0  0  0  0  0  0  0  0  0  0  0
    2.9713   -1.9617    0.5223 H   0  0  0  0  0  0  0  0  0  0  0  0
    4.6327   -3.6092   -0.4383 H   0  0  0  0  0  0  0  0  0  0  0  0
    3.6559   -3.6434   -1.9091 H   0  0  0  0  0  0  0  0  0  0  0  0
    3.3639    0.4891    0.0783 H   0  0  0  0  0  0  0  0  0  0  0  0
    6.5549   -2.6925   -1.7889 H   0  0  0  0  0  0  0  0  0  0  0  0
    4.8644   -1.2052   -0.8348 H   0  0  0  0  0  0  0  0  0  0  0  0
  1 10  1  0  0  0  0
  1  7  1  0  0  0  0
  2 13  1  0  0  0  0
  2 14  1  0  0  0  0
  3 18  1  0  0  0  0
  4 20  1  0  0  0  0
  4  8  1  0  0  0  0
  5  7  1  0  0  0  0
  5 23  1  0  0  0  0
  6  9  1  0  0  0  0
  6 24  1  0  0  0  0
  7 26  1  0  0  0  0
  7  2  1  0  0  0  0
  8  3  1  0  0  0  0
  8 27  1  0  0  0  0
  8  6  1  0  0  0  0
  9 28  1  0  0  0  0
  9  5  1  0  0  0  0
 11  1  1  0  0  0  0
 12  1  1  0  0  0  0
 15  2  1  0  0  0  0
 16  3  1  0  0  0  0
 17  3  1  0  0  0  0
 19  4  1  0  0  0  0
 21  4  1  0  0  0  0
 22  5  1  0  0  0  0
 25  6  1  0  0  0  0
M  END
>  <HBA>
1

>  <HBD>
1

>  <TPSA>
12.03

>  <cid>
8085

>  <dipole>
0.96

>  <excitation_energy_1>
5.345

>  <excitation_energy_2>
5.74

>  <excitation_energy_3>
5.855

>  <excitation_energy_4>
6.063

>  <homo_energy>
-5.87

>  <homo_lumo_gap>
8.115

>  <logP>
2.279

>  <lumo_energy>
2.245

>  <melting_point>
-0.71

>  <molecular_refractivity>
43.37

>  <oscillator_strength_1>
0.0041

>  <oscillator_strength_2>
0.0134

>  <oscillator_strength_3>
0.0154

>  <oscillator_strength_4>
0.0321

>  <open_babel_can_smiles>
CC(CNCC(C)C)C

>  <mulliken_charges>
28
1   -0.435715
2   -0.443923
3   -0.443939
4   -0.435689
5   -0.100791
6   -0.101082
7   -0.083639
8   -0.083207
9   -0.560639
10   0.133142
11   0.13369
12   0.162554
13   0.142316
14   0.138864
15   0.139801
16   0.142289
17   0.139736
18   0.138861
19   0.133044
20   0.162579
21   0.133556
22   0.132371
23   0.104212
24   0.104362
25   0.132363
26   0.114276
27   0.114306
28   0.286301

>  <lowdin_charges>
28
1   -0.445818
2   -0.442832
3   -0.44501
4   -0.446532
5   -0.20219
6   -0.202894
7   -0.124948
8   -0.125172
9   -0.361594
10   0.142883
11   0.144465
12   0.158992
13   0.148402
14   0.146077
15   0.146539
16   0.149766
17   0.147147
18   0.14594
19   0.144549
20   0.157368
21   0.145038
22   0.139683
23   0.113558
24   0.114423
25   0.139717
26   0.131723
27   0.132128
28   0.248592

$$$$

