PCCDB-ID:  10129
public computational chemistry database (PCCDB) project, http://pccdb.org

 28 29  0  0  1  0  0  0  0  0999 V2000
    0.8804    0.0567   -0.1925 C   0  0  0  0  0  0  0  0  0  0  0  0
    2.4451   -0.3367   -3.2323 C   0  0  0  0  0  0  0  0  0  0  0  0
    3.6239   -2.4919   -2.9522 C   0  0  0  0  0  0  0  0  0  0  0  0
    3.1348    1.2355   -0.5529 C   0  0  0  0  0  0  0  0  0  0  0  0
    4.4550    1.0028   -1.3556 C   0  0  0  0  0  0  0  0  0  0  0  0
    4.5162   -1.3370   -0.4720 C   0  0  0  0  0  0  0  0  0  0  0  0
    2.4068   -0.0632   -0.0731 C   0  0  2  0  0  0  0  0  0  0  0  0
    4.6657   -0.4680   -1.7480 C   0  0  1  0  0  0  0  0  0  0  0  0
    2.9884   -1.3167   -0.7598 C   0  0  1  0  0  0  0  0  0  0  0  0
    3.3492   -1.1324   -2.2830 C   0  0  0  0  0  0  0  0  0  0  0  0
    0.5132    0.9301    0.3607 H   0  0  0  0  0  0  0  0  0  0  0  0
    0.3842   -0.8301    0.2208 H   0  0  0  0  0  0  0  0  0  0  0  0
    0.5572    0.1647   -1.2335 H   0  0  0  0  0  0  0  0  0  0  0  0
    2.9270   -0.2412   -4.2145 H   0  0  0  0  0  0  0  0  0  0  0  0
    2.2140    0.6714   -2.8851 H   0  0  0  0  0  0  0  0  0  0  0  0
    1.4933   -0.8594   -3.3916 H   0  0  0  0  0  0  0  0  0  0  0  0
    4.1190   -2.3502   -3.9215 H   0  0  0  0  0  0  0  0  0  0  0  0
    2.6814   -3.0232   -3.1376 H   0  0  0  0  0  0  0  0  0  0  0  0
    4.2584   -3.1506   -2.3522 H   0  0  0  0  0  0  0  0  0  0  0  0
    2.4394    1.8092   -1.1755 H   0  0  0  0  0  0  0  0  0  0  0  0
    3.3370    1.8774    0.3119 H   0  0  0  0  0  0  0  0  0  0  0  0
    5.3203    1.3188   -0.7586 H   0  0  0  0  0  0  0  0  0  0  0  0
    4.4553    1.6371   -2.2510 H   0  0  0  0  0  0  0  0  0  0  0  0
    4.8426   -0.8864    0.4733 H   0  0  0  0  0  0  0  0  0  0  0  0
    4.9694   -2.3267   -0.5593 H   0  0  0  0  0  0  0  0  0  0  0  0
    2.6250   -0.1957    0.9970 H   0  0  0  0  0  0  0  0  0  0  0  0
    5.5722   -0.5886   -2.3552 H   0  0  0  0  0  0  0  0  0  0  0  0
    2.4044   -2.2088   -0.4971 H   0  0  0  0  0  0  0  0  0  0  0  0
  1  7  1  0  0  0  0
  1 12  1  0  0  0  0
  1 11  1  0  0  0  0
  2 15  1  0  0  0  0
  2 10  1  0  0  0  0
  3 19  1  0  0  0  0
  3 10  1  0  0  0  0
  4  7  1  0  0  0  0
  4 21  1  0  0  0  0
  5 22  1  0  0  0  0
  5  4  1  0  0  0  0
  6 24  1  0  0  0  0
  7 26  1  1  0  0  0
  8 27  1  6  0  0  0
  8  5  1  0  0  0  0
  8  6  1  0  0  0  0
  9 28  1  1  0  0  0
  9  6  1  0  0  0  0
  9  7  1  0  0  0  0
 10  8  1  0  0  0  0
 10  9  1  0  0  0  0
 13  1  1  0  0  0  0
 14  2  1  0  0  0  0
 16  2  1  0  0  0  0
 17  3  1  0  0  0  0
 18  3  1  0  0  0  0
 20  4  1  0  0  0  0
 23  5  1  0  0  0  0
 25  6  1  0  0  0  0
M  END
>  <HBA>
0

>  <HBD>
0

>  <TPSA>
0.0

>  <cid>
10129

>  <dipole>
0.11

>  <excitation_energy_1>
6.677

>  <excitation_energy_2>
7.01

>  <excitation_energy_3>
7.044

>  <excitation_energy_4>
7.106

>  <homo_energy>
-7.189

>  <homo_lumo_gap>
9.268

>  <logP>
3.079

>  <lumo_energy>
2.079

>  <melting_point>
34.62

>  <molecular_refractivity>
45.7

>  <oscillator_strength_1>
0.0227

>  <oscillator_strength_2>
0.0109

>  <oscillator_strength_3>
0.0015

>  <oscillator_strength_4>
0.0066

>  <open_babel_can_smiles>
C[C@@H]1CC[C@H]2C[C@@H]1C2(C)C

>  <mulliken_charges>
28
1   -0.461551
2   -0.472572
3   -0.463505
4   -0.302954
5   -0.266433
6   -0.291036
7   -0.053611
8   -0.105864
9   -0.114987
10   0.131582
11   0.138893
12   0.137692
13   0.147211
14   0.136982
15   0.144749
16   0.139976
17   0.137891
18   0.138667
19   0.142387
20   0.142269
21   0.134081
22   0.132307
23   0.132383
24   0.123332
25   0.135795
26   0.121708
27   0.108634
28   0.105974

>  <lowdin_charges>
28
1   -0.449227
2   -0.451278
3   -0.442625
4   -0.291809
5   -0.281188
6   -0.290869
7   -0.122045
8   -0.133006
9   -0.135186
10   0.00504
11   0.14792
12   0.1468
13   0.148083
14   0.147473
15   0.150367
16   0.148371
17   0.14581
18   0.146801
19   0.150213
20   0.145891
21   0.146553
22   0.143535
23   0.142422
24   0.135979
25   0.145371
26   0.135537
27   0.132617
28   0.132448

$$$$

