PCCDB-ID:  52652
public computational chemistry database (PCCDB) project, http://pccdb.org

 33 34  0  0  1  0  0  0  0  0999 V2000
    2.2781   -1.0978   -4.1556 C   0  0  0  0  0  0  0  0  0  0  0  0
    3.3429   -0.2622   -3.4481 C   0  0  0  0  0  0  0  0  0  0  0  0
    8.6624    4.0898   -1.4594 C   0  0  0  0  0  0  0  0  0  0  0  0
    8.3742    4.3510   -2.7999 C   0  0  0  0  0  0  0  0  0  0  0  0
    8.0481    3.0106   -0.8214 C   0  0  0  0  0  0  0  0  0  0  0  0
    3.6697    5.2572   -5.0726 C   0  0  0  0  0  0  0  0  0  0  0  0
    7.4775    3.5391   -3.4957 C   0  0  0  0  0  0  0  0  0  0  0  0
    7.1542    2.2009   -1.5224 C   0  0  0  0  0  0  0  0  0  0  0  0
    3.8361    3.8383   -5.2034 C   0  0  0  0  0  0  0  0  0  0  0  0
    3.8456    5.5369   -3.7529 C   0  0  0  0  0  0  0  0  0  0  0  0
    5.8692    1.5791   -3.6144 C   0  0  0  0  0  0  0  0  0  0  0  0
    6.8531    2.4531   -2.8681 C   0  0  0  0  0  0  0  0  0  0  0  0
    4.3800    1.9873   -3.4150 C   0  0  1  0  0  0  0  0  0  0  0  0
    4.1005    3.3607   -3.9511 C   0  0  0  0  0  0  0  0  0  0  0  0
    3.5022    1.0335   -4.1107 N   0  0  0  0  0  0  0  0  0  0  0  0
    4.1046    4.3937   -3.0545 O   0  0  0  0  0  0  0  0  0  0  0  0
    2.1734   -2.0784   -3.6792 H   0  0  0  0  0  0  0  0  0  0  0  0
    2.5418   -1.2466   -5.2077 H   0  0  0  0  0  0  0  0  0  0  0  0
    1.2985   -0.6042   -4.1182 H   0  0  0  0  0  0  0  0  0  0  0  0
    4.2990   -0.7973   -3.4838 H   0  0  0  0  0  0  0  0  0  0  0  0
    3.0840   -0.1565   -2.3761 H   0  0  0  0  0  0  0  0  0  0  0  0
    9.3634    4.7191   -0.9173 H   0  0  0  0  0  0  0  0  0  0  0  0
    8.8506    5.1862   -3.3070 H   0  0  0  0  0  0  0  0  0  0  0  0
    8.2688    2.7956    0.2211 H   0  0  0  0  0  0  0  0  0  0  0  0
    3.4470    5.9670   -5.8574 H   0  0  0  0  0  0  0  0  0  0  0  0
    7.2556    3.7500   -4.5391 H   0  0  0  0  0  0  0  0  0  0  0  0
    6.6853    1.3570   -1.0198 H   0  0  0  0  0  0  0  0  0  0  0  0
    3.7706    3.2457   -6.1049 H   0  0  0  0  0  0  0  0  0  0  0  0
    3.8204    6.4448   -3.1699 H   0  0  0  0  0  0  0  0  0  0  0  0
    5.9870    0.5413   -3.2814 H   0  0  0  0  0  0  0  0  0  0  0  0
    6.0733    1.5960   -4.6903 H   0  0  0  0  0  0  0  0  0  0  0  0
    4.1845    2.0158   -2.3267 H   0  0  0  0  0  0  0  0  0  0  0  0
    2.5833    1.4649   -4.1999 H   0  0  0  0  0  0  0  0  0  0  0  0
  1 19  1  0  0  0  0
  1 17  1  0  0  0  0
  1  2  1  0  0  0  0
  2 21  1  0  0  0  0
  3 22  1  0  0  0  0
  3  5  1  0  0  0  0
  4  3  2  0  0  0  0
  5 24  1  0  0  0  0
  6 10  2  0  0  0  0
  7 12  2  0  0  0  0
  7  4  1  0  0  0  0
  8 27  1  0  0  0  0
  8  5  2  0  0  0  0
  9  6  1  0  0  0  0
  9 14  2  0  0  0  0
 10 29  1  0  0  0  0
 10 16  1  0  0  0  0
 11 13  1  0  0  0  0
 11 30  1  0  0  0  0
 11 12  1  0  0  0  0
 12  8  1  0  0  0  0
 13 32  1  1  0  0  0
 14 13  1  0  0  0  0
 14 16  1  0  0  0  0
 15  2  1  0  0  0  0
 15 13  1  0  0  0  0
 18  1  1  0  0  0  0
 20  2  1  0  0  0  0
 23  4  1  0  0  0  0
 25  6  1  0  0  0  0
 26  7  1  0  0  0  0
 28  9  1  0  0  0  0
 31 11  1  0  0  0  0
 33 15  1  0  0  0  0
M  END
>  <HBA>
2

>  <HBD>
1

>  <TPSA>
25.17

>  <cid>
52652

>  <dipole>
0.81

>  <excitation_energy_1>
5.193

>  <excitation_energy_2>
5.205

>  <excitation_energy_3>
5.339

>  <excitation_energy_4>
5.476

>  <homo_energy>
-5.834

>  <homo_lumo_gap>
5.992

>  <logP>
3.564

>  <lumo_energy>
0.158

>  <melting_point>
61.96

>  <molecular_refractivity>
65.38

>  <oscillator_strength_1>
0.0168

>  <oscillator_strength_2>
0.0023

>  <oscillator_strength_3>
0.01

>  <oscillator_strength_4>
0.0129

>  <open_babel_can_smiles>
CCN[C@H](c1ccco1)Cc1ccccc1

>  <mulliken_charges>
33
1   -0.455191
2   -0.110908
3   -0.130759
4   -0.129403
5   -0.127193
6   -0.185324
7   -0.176626
8   -0.18125
9   -0.206691
10   0.082605
11   -0.348823
12   0.174056
13   -0.00781
14   0.316508
15   -0.569509
16   -0.436471
17   0.146996
18   0.160432
19   0.140899
20   0.14563
21   0.113706
22   0.125215
23   0.126221
24   0.125641
25   0.137593
26   0.13035
27   0.118578
28   0.145111
29   0.151773
30   0.14457
31   0.153854
32   0.128873
33   0.297347

>  <lowdin_charges>
33
1   -0.445213
2   -0.196472
3   -0.162488
4   -0.156337
5   -0.15472
6   -0.208
7   -0.16095
8   -0.1681
9   -0.222004
10   -0.085147
11   -0.273209
12   -0.002347
13   -0.058118
14   0.057386
15   -0.362855
16   -0.093851
17   0.15394
18   0.15552
19   0.145499
20   0.141896
21   0.115135
22   0.157002
23   0.156883
24   0.15434
25   0.16825
26   0.156779
27   0.15272
28   0.172334
29   0.170313
30   0.149819
31   0.155164
32   0.131412
33   0.25542

$$$$

