PCCDB-ID:  32784
public computational chemistry database (PCCDB) project, http://pccdb.org

 17 16  0  0  0  0  0  0  0  0999 V2000
    1.0769   -0.2770   -0.1053 C   0  0  0  0  0  0  0  0  0  0  0  0
    3.1491   -1.3805   -1.1283 C   0  0  0  0  0  0  0  0  0  0  0  0
    0.8340    0.7072   -1.2500 C   0  0  0  0  0  0  0  0  0  0  0  0
    2.3515   -2.6479   -1.4871 C   0  0  0  0  0  0  0  0  0  0  0  0
    3.3447    0.2184    0.6142 N   0  0  0  0  0  0  0  0  0  0  0  0
    2.5116   -0.5759   -0.0742 N   0  0  0  0  0  0  0  0  0  0  0  0
    0.6075    0.3222   -2.3820 O   0  0  0  0  0  0  0  0  0  0  0  0
    0.9943    2.0009   -0.9626 O   0  0  0  0  0  0  0  0  0  0  0  0
    2.6885   -3.7425   -1.1142 O   0  0  0  0  0  0  0  0  0  0  0  0
    1.2626   -2.4675   -2.2601 O   0  0  0  0  0  0  0  0  0  0  0  0
    2.8008    1.1551    1.2029 O   0  0  0  0  0  0  0  0  0  0  0  0
    0.5236   -1.1959   -0.2904 H   0  0  0  0  0  0  0  0  0  0  0  0
    0.8054    0.1312    0.8690 H   0  0  0  0  0  0  0  0  0  0  0  0
    3.2818   -0.7635   -2.0278 H   0  0  0  0  0  0  0  0  0  0  0  0
    4.1277   -1.6793   -0.7540 H   0  0  0  0  0  0  0  0  0  0  0  0
    1.3470    2.0864   -0.0517 H   0  0  0  0  0  0  0  0  0  0  0  0
    1.0843   -1.5214   -2.4755 H   0  0  0  0  0  0  0  0  0  0  0  0
  1  6  1  0  0  0  0
  1 13  1  0  0  0  0
  2 15  1  0  0  0  0
  2  6  1  0  0  0  0
  3  8  1  0  0  0  0
  3  1  1  0  0  0  0
  4  2  1  0  0  0  0
  4  9  2  0  0  0  0
  5 11  1  0  0  0  0
  6  5  1  0  0  0  0
  7  3  2  0  0  0  0
  8 16  1  0  0  0  0
 10  4  1  0  0  0  0
 12  1  1  0  0  0  0
 14  2  1  0  0  0  0
 17 10  1  0  0  0  0
M  RAD  2   5   2  11   2
M  END
>  <HBA>
7

>  <HBD>
2

>  <TPSA>
107.27

>  <cid>
32784

>  <dipole>
2.43

>  <excitation_energy_1>
3.323

>  <excitation_energy_2>
4.709

>  <excitation_energy_3>
5.121

>  <excitation_energy_4>
5.311

>  <homo_energy>
-7.549

>  <homo_lumo_gap>
5.08

>  <logP>
-0.861

>  <lumo_energy>
-2.468

>  <melting_point>
150.77

>  <molecular_refractivity>
32.52

>  <oscillator_strength_1>
0.001

>  <oscillator_strength_2>
0.0191

>  <oscillator_strength_3>
0.027

>  <oscillator_strength_4>
0.0041

>  <open_babel_can_smiles>
[O][N]N(CC(=O)O)CC(=O)O

>  <mulliken_charges>
17
1   -0.300882
2   -0.230697
3   0.623989
4   0.576422
5   0.192096
6   -0.2239
7   -0.458336
8   -0.543505
9   -0.417556
10   -0.584022
11   -0.381688
12   0.224733
13   0.214074
14   0.194178
15   0.226289
16   0.441384
17   0.447421

>  <lowdin_charges>
17
1   -0.261922
2   -0.233138
3   0.196751
4   0.180378
5   0.082572
6   -0.031809
7   -0.253729
8   -0.315468
9   -0.219861
10   -0.354198
11   -0.268112
12   0.194975
13   0.188423
14   0.169936
15   0.199174
16   0.367057
17   0.358971

$$$$

