PCCDB-ID:  61185
public computational chemistry database (PCCDB) project, http://pccdb.org

 41 40  0  0  0  0  0  0  0  0999 V2000
    0.8493   -1.0401   -4.3710 C   0  0  0  0  0  0  0  0  0  0  0  0
    8.8365    9.5962    0.3102 C   0  0  0  0  0  0  0  0  0  0  0  0
    2.2000   -0.5019   -3.8872 C   0  0  0  0  0  0  0  0  0  0  0  0
    9.6849    8.3665    0.6542 C   0  0  0  0  0  0  0  0  0  0  0  0
    2.1538    0.0162   -2.4426 C   0  0  0  0  0  0  0  0  0  0  0  0
    9.8903    7.3879   -0.5146 C   0  0  0  0  0  0  0  0  0  0  0  0
    3.5015    0.5032   -1.8854 C   0  0  0  0  0  0  0  0  0  0  0  0
    4.0645    1.7579   -2.5685 C   0  0  0  0  0  0  0  0  0  0  0  0
    5.3620    2.2567   -1.9202 C   0  0  0  0  0  0  0  0  0  0  0  0
    8.6050    6.6948   -0.9907 C   0  0  0  0  0  0  0  0  0  0  0  0
    5.9252    3.5032   -2.6053 C   0  0  0  0  0  0  0  0  0  0  0  0
    8.8809    5.6998   -2.1138 C   0  0  0  0  0  0  0  0  0  0  0  0
    7.2059    4.0082   -1.9682 C   0  0  0  0  0  0  0  0  0  0  0  0
    7.7624    3.5056   -1.0150 O   0  0  0  0  0  0  0  0  0  0  0  0
    7.6594    5.1087   -2.6151 O   0  0  0  0  0  0  0  0  0  0  0  0
    0.9088   -1.4038   -5.4032 H   0  0  0  0  0  0  0  0  0  0  0  0
    0.0773   -0.2613   -4.3366 H   0  0  0  0  0  0  0  0  0  0  0  0
    0.5060   -1.8720   -3.7436 H   0  0  0  0  0  0  0  0  0  0  0  0
    8.7724   10.2796    1.1645 H   0  0  0  0  0  0  0  0  0  0  0  0
    7.8126    9.3229    0.0319 H   0  0  0  0  0  0  0  0  0  0  0  0
    9.2715   10.1531   -0.5294 H   0  0  0  0  0  0  0  0  0  0  0  0
    2.5298    0.2995   -4.5615 H   0  0  0  0  0  0  0  0  0  0  0  0
    2.9586   -1.2945   -3.9615 H   0  0  0  0  0  0  0  0  0  0  0  0
    9.2286    7.8293    1.4974 H   0  0  0  0  0  0  0  0  0  0  0  0
   10.6706    8.7006    1.0044 H   0  0  0  0  0  0  0  0  0  0  0  0
    1.7747   -0.7868   -1.7943 H   0  0  0  0  0  0  0  0  0  0  0  0
    1.4172    0.8311   -2.3743 H   0  0  0  0  0  0  0  0  0  0  0  0
   10.6143    6.6198   -0.2083 H   0  0  0  0  0  0  0  0  0  0  0  0
   10.3515    7.9252   -1.3571 H   0  0  0  0  0  0  0  0  0  0  0  0
    4.2395   -0.3096   -1.9561 H   0  0  0  0  0  0  0  0  0  0  0  0
    3.3845    0.7112   -0.8124 H   0  0  0  0  0  0  0  0  0  0  0  0
    3.3078    2.5566   -2.5357 H   0  0  0  0  0  0  0  0  0  0  0  0
    4.2471    1.5559   -3.6331 H   0  0  0  0  0  0  0  0  0  0  0  0
    6.1194    1.4631   -1.9397 H   0  0  0  0  0  0  0  0  0  0  0  0
    5.1887    2.4770   -0.8594 H   0  0  0  0  0  0  0  0  0  0  0  0
    7.8767    7.4323   -1.3493 H   0  0  0  0  0  0  0  0  0  0  0  0
    8.1417    6.1596   -0.1527 H   0  0  0  0  0  0  0  0  0  0  0  0
    5.1981    4.3266   -2.5917 H   0  0  0  0  0  0  0  0  0  0  0  0
    6.1297    3.3157   -3.6681 H   0  0  0  0  0  0  0  0  0  0  0  0
    9.5491    4.9025   -1.7773 H   0  0  0  0  0  0  0  0  0  0  0  0
    9.3204    6.1976   -2.9830 H   0  0  0  0  0  0  0  0  0  0  0  0
  1 17  1  0  0  0  0
  1  3  1  0  0  0  0
  1 18  1  0  0  0  0
  2  4  1  0  0  0  0
  2 19  1  0  0  0  0
  3  5  1  0  0  0  0
  4 25  1  0  0  0  0
  4 24  1  0  0  0  0
  5 27  1  0  0  0  0
  5  7  1  0  0  0  0
  5 26  1  0  0  0  0
  6 28  1  0  0  0  0
  6  4  1  0  0  0  0
  7 31  1  0  0  0  0
  8 32  1  0  0  0  0
  8  9  1  0  0  0  0
  8  7  1  0  0  0  0
  9 35  1  0  0  0  0
 10  6  1  0  0  0  0
 10 37  1  0  0  0  0
 11 38  1  0  0  0  0
 11 13  1  0  0  0  0
 11  9  1  0  0  0  0
 12 40  1  0  0  0  0
 12 10  1  0  0  0  0
 13 14  2  0  0  0  0
 15 12  1  0  0  0  0
 15 13  1  0  0  0  0
 16  1  1  0  0  0  0
 20  2  1  0  0  0  0
 21  2  1  0  0  0  0
 22  3  1  0  0  0  0
 23  3  1  0  0  0  0
 29  6  1  0  0  0  0
 30  7  1  0  0  0  0
 33  8  1  0  0  0  0
 34  9  1  0  0  0  0
 36 10  1  0  0  0  0
 39 11  1  0  0  0  0
 41 12  1  0  0  0  0
M  END
>  <HBA>
2

>  <HBD>
0

>  <TPSA>
26.3

>  <cid>
61185

>  <dipole>
1.49

>  <excitation_energy_1>
5.84

>  <excitation_energy_2>
7.005

>  <excitation_energy_3>
7.344

>  <excitation_energy_4>
7.446

>  <homo_energy>
-7.236

>  <homo_lumo_gap>
7.739

>  <logP>
4.08

>  <lumo_energy>
0.503

>  <melting_point>
-18.77

>  <molecular_refractivity>
65.89

>  <oscillator_strength_1>
0.0005

>  <oscillator_strength_2>
0.0211

>  <oscillator_strength_3>
0.0133

>  <oscillator_strength_4>
0.0465

>  <open_babel_can_smiles>
CCCCCCCC(=O)OCCCCC

>  <mulliken_charges>
41
1   -0.441353
2   -0.444297
3   -0.248628
4   -0.248363
5   -0.247997
6   -0.260803
7   -0.255591
8   -0.258083
9   -0.248247
10   -0.278668
11   -0.364115
12   -0.043839
13   0.624798
14   -0.48204
15   -0.471755
16   0.141105
17   0.141055
18   0.14136
19   0.144422
20   0.147067
21   0.140926
22   0.13434
23   0.129589
24   0.135372
25   0.133294
26   0.127445
27   0.125219
28   0.136829
29   0.127706
30   0.128976
31   0.129694
32   0.125543
33   0.131921
34   0.148064
35   0.147261
36   0.144746
37   0.157583
38   0.168302
39   0.168768
40   0.16559
41   0.146801

>  <lowdin_charges>
41
1   -0.444432
2   -0.447736
3   -0.276371
4   -0.271956
5   -0.277024
6   -0.277343
7   -0.273709
8   -0.276051
9   -0.269333
10   -0.291092
11   -0.300708
12   -0.134425
13   0.199095
14   -0.269613
15   -0.198882
16   0.14783
17   0.146669
18   0.146838
19   0.151572
20   0.146728
21   0.146841
22   0.140471
23   0.13898
24   0.142494
25   0.142937
26   0.141462
27   0.137258
28   0.145256
29   0.138483
30   0.139447
31   0.139897
32   0.137169
33   0.137038
34   0.150763
35   0.148043
36   0.147774
37   0.155241
38   0.167098
39   0.165266
40   0.157371
41   0.15065

$$$$

