PCCDB-ID:  20387
public computational chemistry database (PCCDB) project, http://pccdb.org

 26 27  0  0  0  0  0  0  0  0999 V2000
   -1.3627   -0.1755   -0.4049 C   0  0  0  0  0  0  0  0  0  0  0  0
    3.2531    3.8375   -1.0187 C   0  0  0  0  0  0  0  0  0  0  0  0
   -0.6882    1.0424   -0.4555 C   0  0  0  0  0  0  0  0  0  0  0  0
    2.5873    2.6189   -0.9073 C   0  0  0  0  0  0  0  0  0  0  0  0
    0.6911   -1.2428    0.2877 C   0  0  0  0  0  0  0  0  0  0  0  0
    1.4824    4.8798    0.2521 C   0  0  0  0  0  0  0  0  0  0  0  0
   -0.6648   -1.3259   -0.0305 C   0  0  0  0  0  0  0  0  0  0  0  0
    2.6936    4.9757   -0.4337 C   0  0  0  0  0  0  0  0  0  0  0  0
    0.6730    1.1683   -0.1451 C   0  0  0  0  0  0  0  0  0  0  0  0
    1.3687    2.4803   -0.2286 C   0  0  0  0  0  0  0  0  0  0  0  0
    1.3490   -0.0130    0.2329 C   0  0  0  0  0  0  0  0  0  0  0  0
    0.8312    3.6495    0.3544 C   0  0  0  0  0  0  0  0  0  0  0  0
   -1.2496   -2.5611    0.0425 O   0  0  0  0  0  0  0  0  0  0  0  0
    3.2798    6.2108   -0.4972 O   0  0  0  0  0  0  0  0  0  0  0  0
    2.6777    0.0782    0.5554 O   0  0  0  0  0  0  0  0  0  0  0  0
   -0.3529    3.5454    1.0362 O   0  0  0  0  0  0  0  0  0  0  0  0
   -2.4200   -0.2296   -0.6558 H   0  0  0  0  0  0  0  0  0  0  0  0
    4.1965    3.9015   -1.5568 H   0  0  0  0  0  0  0  0  0  0  0  0
   -1.2352    1.9335   -0.7431 H   0  0  0  0  0  0  0  0  0  0  0  0
    3.0277    1.7371   -1.3594 H   0  0  0  0  0  0  0  0  0  0  0  0
    1.2198   -2.1463    0.5820 H   0  0  0  0  0  0  0  0  0  0  0  0
    1.0615    5.7737    0.7062 H   0  0  0  0  0  0  0  0  0  0  0  0
   -2.1841   -2.4751   -0.2019 H   0  0  0  0  0  0  0  0  0  0  0  0
    4.1076    6.1344   -0.9965 H   0  0  0  0  0  0  0  0  0  0  0  0
    2.9876   -0.7992    0.8285 H   0  0  0  0  0  0  0  0  0  0  0  0
   -0.5706    4.4145    1.4073 H   0  0  0  0  0  0  0  0  0  0  0  0
  1  7  1  0  0  0  0
  2  4  2  0  0  0  0
  2  8  1  0  0  0  0
  3  1  2  0  0  0  0
  3  9  1  0  0  0  0
  4 10  1  0  0  0  0
  5 21  1  0  0  0  0
  6 12  1  0  0  0  0
  6 22  1  0  0  0  0
  7 13  1  0  0  0  0
  7  5  2  0  0  0  0
  8  6  2  0  0  0  0
  9 11  2  0  0  0  0
 10  9  1  0  0  0  0
 10 12  2  0  0  0  0
 11  5  1  0  0  0  0
 11 15  1  0  0  0  0
 12 16  1  0  0  0  0
 14  8  1  0  0  0  0
 15 25  1  0  0  0  0
 16 26  1  0  0  0  0
 17  1  1  0  0  0  0
 18  2  1  0  0  0  0
 19  3  1  0  0  0  0
 20  4  1  0  0  0  0
 23 13  1  0  0  0  0
 24 14  1  0  0  0  0
M  END
>  <HBA>
4

>  <HBD>
4

>  <TPSA>
80.92

>  <cid>
20387

>  <dipole>
0.49

>  <excitation_energy_1>
4.445

>  <excitation_energy_2>
4.615

>  <excitation_energy_3>
4.648

>  <excitation_energy_4>
4.761

>  <homo_energy>
-5.121

>  <homo_lumo_gap>
5.11

>  <logP>
2.176

>  <lumo_energy>
-0.011

>  <melting_point>
204.49

>  <molecular_refractivity>
59.97

>  <oscillator_strength_1>
0.2172

>  <oscillator_strength_2>
0.0033

>  <oscillator_strength_3>
0.0011

>  <oscillator_strength_4>
0.0007

>  <open_babel_can_smiles>
Oc1ccc(c(c1)O)c1ccc(cc1O)O

>  <mulliken_charges>
26
1   -0.207371
2   -0.207491
3   -0.165442
4   -0.165605
5   -0.244981
6   -0.245029
7   0.354637
8   0.354827
9   0.055886
10   0.056509
11   0.309164
12   0.308982
13   -0.648158
14   -0.648118
15   -0.646403
16   -0.646353
17   0.112676
18   0.112646
19   0.139875
20   0.139884
21   0.124169
22   0.124168
23   0.407849
24   0.407825
25   0.407941
26   0.407913

>  <lowdin_charges>
26
1   -0.235794
2   -0.236931
3   -0.127872
4   -0.127617
5   -0.248887
6   -0.24956
7   0.109966
8   0.110289
9   -0.047788
10   -0.048364
11   0.112423
12   0.112314
13   -0.378327
14   -0.379853
15   -0.375785
16   -0.375206
17   0.150501
18   0.151713
19   0.166796
20   0.166838
21   0.161651
22   0.161703
23   0.356628
24   0.358131
25   0.356476
26   0.356556

$$$$

