PCCDB-ID:  66090
public computational chemistry database (PCCDB) project, http://pccdb.org

 23 24  0  0  1  0  0  0  0  0999 V2000
    0.6941   -3.3715    1.8412 C   0  0  0  0  0  0  0  0  0  0  0  0
    2.0609   -3.2176    1.5984 C   0  0  0  0  0  0  0  0  0  0  0  0
   -0.1679   -2.2915    1.6423 C   0  0  0  0  0  0  0  0  0  0  0  0
    2.5626   -1.9903    1.1644 C   0  0  0  0  0  0  0  0  0  0  0  0
    0.3362   -1.0659    1.2045 C   0  0  0  0  0  0  0  0  0  0  0  0
    1.9133    2.1600    2.4767 C   0  0  0  0  0  0  0  0  0  0  0  0
    2.9655    2.7409    1.5640 C   0  0  0  0  0  0  0  0  0  0  0  0
    1.7055   -0.8992    0.9672 C   0  0  0  0  0  0  0  0  0  0  0  0
    2.8172    1.2458    1.6870 C   0  0  0  0  0  0  0  0  0  0  0  0
    2.2630    0.4469    0.5248 C   0  0  1  0  0  0  0  0  0  0  0  0
    3.3302    0.2955   -0.4153 O   0  0  0  0  0  0  0  0  0  0  0  0
    0.3025   -4.3279    2.1773 H   0  0  0  0  0  0  0  0  0  0  0  0
    2.7375   -4.0555    1.7463 H   0  0  0  0  0  0  0  0  0  0  0  0
   -1.2341   -2.4052    1.8207 H   0  0  0  0  0  0  0  0  0  0  0  0
    3.6236   -1.8695    0.9644 H   0  0  0  0  0  0  0  0  0  0  0  0
   -0.3418   -0.2306    1.0417 H   0  0  0  0  0  0  0  0  0  0  0  0
    0.8725    2.2406    2.1723 H   0  0  0  0  0  0  0  0  0  0  0  0
    2.0623    2.2222    3.5509 H   0  0  0  0  0  0  0  0  0  0  0  0
    3.8400    3.2073    2.0089 H   0  0  0  0  0  0  0  0  0  0  0  0
    2.6403    3.2048    0.6364 H   0  0  0  0  0  0  0  0  0  0  0  0
    3.5895    0.7202    2.2450 H   0  0  0  0  0  0  0  0  0  0  0  0
    1.4422    1.0298    0.0718 H   0  0  0  0  0  0  0  0  0  0  0  0
    3.0205   -0.3128   -1.1056 H   0  0  0  0  0  0  0  0  0  0  0  0
  1 12  1  0  0  0  0
  2 13  1  0  0  0  0
  2  1  2  0  0  0  0
  3 14  1  0  0  0  0
  3  1  1  0  0  0  0
  4  2  1  0  0  0  0
  5  3  2  0  0  0  0
  6 18  1  0  0  0  0
  7  9  1  0  0  0  0
  7 19  1  0  0  0  0
  7  6  1  0  0  0  0
  8  4  2  0  0  0  0
  8  5  1  0  0  0  0
  9 21  1  0  0  0  0
  9  6  1  0  0  0  0
 10 22  1  6  0  0  0
 10  8  1  0  0  0  0
 10  9  1  0  0  0  0
 11 10  1  0  0  0  0
 15  4  1  0  0  0  0
 16  5  1  0  0  0  0
 17  6  1  0  0  0  0
 20  7  1  0  0  0  0
 23 11  1  0  0  0  0
M  END
>  <HBA>
1

>  <HBD>
1

>  <TPSA>
20.23

>  <cid>
66090

>  <dipole>
1.32

>  <excitation_energy_1>
5.272

>  <excitation_energy_2>
5.802

>  <excitation_energy_3>
6.036

>  <excitation_energy_4>
6.249

>  <homo_energy>
-6.512

>  <homo_lumo_gap>
6.436

>  <logP>
2.13

>  <lumo_energy>
-0.076

>  <melting_point>
46.35

>  <molecular_refractivity>
44.88

>  <oscillator_strength_1>
0.0006

>  <oscillator_strength_2>
0.0772

>  <oscillator_strength_3>
0.0051

>  <oscillator_strength_4>
0.011

>  <open_babel_can_smiles>
O[C@@H](c1ccccc1)C1CC1

>  <mulliken_charges>
23
1   -0.128772
2   -0.129087
3   -0.13043
4   -0.18283
5   -0.180654
6   -0.31697
7   -0.307264
8   0.121159
9   -0.073615
10   0.060333
11   -0.629136
12   0.128983
13   0.12989
14   0.129208
15   0.141627
16   0.123314
17   0.146084
18   0.152402
19   0.152299
20   0.153939
21   0.145356
22   0.106725
23   0.387439

>  <lowdin_charges>
23
1   -0.158719
2   -0.155945
3   -0.153173
4   -0.164716
5   -0.167057
6   -0.312463
7   -0.309873
8   -0.025032
9   -0.150759
10   0.004543
11   -0.459787
12   0.15733
13   0.158237
14   0.155608
15   0.16174
16   0.154831
17   0.153741
18   0.158818
19   0.16132
20   0.159998
21   0.159663
22   0.128703
23   0.342991

$$$$

