PCCDB-ID:  23860
public computational chemistry database (PCCDB) project, http://pccdb.org

 36 38  0  0  0  0  0  0  0  0999 V2000
    6.3630   -0.1593    2.1538 C   0  0  0  0  0  0  0  0  0  0  0  0
    5.3884    1.4616    0.6775 C   0  0  0  0  0  0  0  0  0  0  0  0
    4.5487   -6.0314   -2.4416 C   0  0  0  0  0  0  0  0  0  0  0  0
    6.5531   -1.4791   -5.9424 C   0  0  0  0  0  0  0  0  0  0  0  0
    4.1228   -5.4360   -1.2418 C   0  0  0  0  0  0  0  0  0  0  0  0
    6.3830   -0.3073   -5.1852 C   0  0  0  0  0  0  0  0  0  0  0  0
    5.0701   -5.2542   -3.4725 C   0  0  0  0  0  0  0  0  0  0  0  0
    6.1862   -2.7176   -5.4228 C   0  0  0  0  0  0  0  0  0  0  0  0
    4.2073   -4.0590   -1.0445 C   0  0  0  0  0  0  0  0  0  0  0  0
    5.8453   -0.3449   -3.9002 C   0  0  0  0  0  0  0  0  0  0  0  0
    5.7933   -0.8040   -0.1025 C   0  0  0  0  0  0  0  0  0  0  0  0
    4.6178   -0.9641   -1.0838 C   0  0  0  0  0  0  0  0  0  0  0  0
    5.1662   -3.8686   -3.3018 C   0  0  0  0  0  0  0  0  0  0  0  0
    5.6437   -2.7846   -4.1346 C   0  0  0  0  0  0  0  0  0  0  0  0
    4.7285   -3.2823   -2.0841 C   0  0  0  0  0  0  0  0  0  0  0  0
    5.4738   -1.5903   -3.3839 C   0  0  0  0  0  0  0  0  0  0  0  0
    5.4527    0.0486    1.0334 N   0  0  0  0  0  0  0  0  0  0  0  0
    4.9072   -1.9036   -2.1517 N   0  0  0  0  0  0  0  0  0  0  0  0
    6.0335    0.4416    3.0085 H   0  0  0  0  0  0  0  0  0  0  0  0
    7.4106    0.1197    1.9260 H   0  0  0  0  0  0  0  0  0  0  0  0
    6.3487   -1.2124    2.4536 H   0  0  0  0  0  0  0  0  0  0  0  0
    5.0874    2.0447    1.5542 H   0  0  0  0  0  0  0  0  0  0  0  0
    4.6393    1.6309   -0.1018 H   0  0  0  0  0  0  0  0  0  0  0  0
    6.3568    1.8612    0.3155 H   0  0  0  0  0  0  0  0  0  0  0  0
    4.4691   -7.1079   -2.5637 H   0  0  0  0  0  0  0  0  0  0  0  0
    6.9753   -1.4156   -6.9413 H   0  0  0  0  0  0  0  0  0  0  0  0
    3.7203   -6.0602   -0.4484 H   0  0  0  0  0  0  0  0  0  0  0  0
    6.6788    0.6496   -5.6069 H   0  0  0  0  0  0  0  0  0  0  0  0
    5.3992   -5.7180   -4.3989 H   0  0  0  0  0  0  0  0  0  0  0  0
    6.3215   -3.6225   -6.0097 H   0  0  0  0  0  0  0  0  0  0  0  0
    3.8784   -3.6123   -0.1108 H   0  0  0  0  0  0  0  0  0  0  0  0
    5.7293    0.5679   -3.3233 H   0  0  0  0  0  0  0  0  0  0  0  0
    6.6848   -0.4426   -0.6522 H   0  0  0  0  0  0  0  0  0  0  0  0
    6.0434   -1.7990    0.2817 H   0  0  0  0  0  0  0  0  0  0  0  0
    4.3477   -0.0085   -1.5426 H   0  0  0  0  0  0  0  0  0  0  0  0
    3.7372   -1.3114   -0.5342 H   0  0  0  0  0  0  0  0  0  0  0  0
  1 21  1  0  0  0  0
  1 19  1  0  0  0  0
  2 17  1  0  0  0  0
  2 22  1  0  0  0  0
  3  5  2  0  0  0  0
  4  8  2  0  0  0  0
  4  6  1  0  0  0  0
  5  9  1  0  0  0  0
  5 27  1  0  0  0  0
  6 10  2  0  0  0  0
  7 13  2  0  0  0  0
  7  3  1  0  0  0  0
  8 14  1  0  0  0  0
  9 31  1  0  0  0  0
 10 16  1  0  0  0  0
 10 32  1  0  0  0  0
 11 34  1  0  0  0  0
 11 17  1  0  0  0  0
 12 36  1  0  0  0  0
 12 11  1  0  0  0  0
 13 15  1  0  0  0  0
 14 16  2  0  0  0  0
 14 13  1  0  0  0  0
 15  9  2  0  0  0  0
 16 18  1  0  0  0  0
 17  1  1  0  0  0  0
 18 15  1  0  0  0  0
 18 12  1  0  0  0  0
 20  1  1  0  0  0  0
 23  2  1  0  0  0  0
 24  2  1  0  0  0  0
 25  3  1  0  0  0  0
 26  4  1  0  0  0  0
 28  6  1  0  0  0  0
 29  7  1  0  0  0  0
 30  8  1  0  0  0  0
 33 11  1  0  0  0  0
 35 12  1  0  0  0  0
M  END
>  <HBA>
2

>  <HBD>
0

>  <TPSA>
8.17

>  <cid>
23860

>  <dipole>
2.02

>  <excitation_energy_1>
3.903

>  <excitation_energy_2>
4.394

>  <excitation_energy_3>
4.756

>  <excitation_energy_4>
4.854

>  <homo_energy>
-5.29

>  <homo_lumo_gap>
4.661

>  <logP>
3.356

>  <lumo_energy>
-0.629

>  <melting_point>
96.8

>  <molecular_refractivity>
78.02

>  <oscillator_strength_1>
0.0407

>  <oscillator_strength_2>
0.0941

>  <oscillator_strength_3>
0.0002

>  <oscillator_strength_4>
0.0079

>  <open_babel_can_smiles>
CN(CCn1c2ccccc2c2c1cccc2)C

>  <mulliken_charges>
36
1   -0.296638
2   -0.305133
3   -0.146392
4   -0.146591
5   -0.141542
6   -0.141286
7   -0.197432
8   -0.1971
9   -0.184562
10   -0.181856
11   -0.119697
12   -0.169137
13   0.061013
14   0.060127
15   0.31885
16   0.321397
17   -0.369528
18   -0.631519
19   0.150119
20   0.122492
21   0.152388
22   0.153856
23   0.150858
24   0.122065
25   0.122393
26   0.122328
27   0.124936
28   0.124392
29   0.128383
30   0.128425
31   0.131295
32   0.125131
33   0.126322
34   0.15203
35   0.159537
36   0.170076

>  <lowdin_charges>
36
1   -0.352698
2   -0.360333
3   -0.17642
4   -0.17719
5   -0.155338
6   -0.154308
7   -0.152211
8   -0.1528
9   -0.198427
10   -0.198973
11   -0.21039
12   -0.199829
13   -0.03471
14   -0.034853
15   0.044593
16   0.045343
17   -0.185152
18   -0.046004
19   0.151309
20   0.121553
21   0.150003
22   0.154112
23   0.149532
24   0.122561
25   0.153767
26   0.154773
27   0.157891
28   0.156484
29   0.157813
30   0.158064
31   0.159281
32   0.156902
33   0.126241
34   0.152373
35   0.155208
36   0.161834

$$$$

