PCCDB-ID:  69008
public computational chemistry database (PCCDB) project, http://pccdb.org

 27 26  0  0  0  0  0  0  0  0999 V2000
    2.4916   -2.3544    1.7467 C   0  0  0  0  0  0  0  0  0  0  0  0
    4.2397    1.7552   -1.2948 C   0  0  0  0  0  0  0  0  0  0  0  0
    7.1352   -0.8533    1.2192 C   0  0  0  0  0  0  0  0  0  0  0  0
    3.7356   -2.2219    0.8615 C   0  0  0  0  0  0  0  0  0  0  0  0
    5.4376    0.9649   -0.7562 C   0  0  0  0  0  0  0  0  0  0  0  0
    6.4983   -1.2549   -0.1172 C   0  0  0  0  0  0  0  0  0  0  0  0
    4.0528   -0.7592    0.5186 C   0  0  0  0  0  0  0  0  0  0  0  0
    5.1815   -0.5424   -0.5082 C   0  0  0  0  0  0  0  0  0  0  0  0
    4.6957   -1.1477   -1.7244 O   0  0  0  0  0  0  0  0  0  0  0  0
    2.2808   -3.4035    1.9842 H   0  0  0  0  0  0  0  0  0  0  0  0
    1.6057   -1.9412    1.2489 H   0  0  0  0  0  0  0  0  0  0  0  0
    2.6167   -1.8177    2.6959 H   0  0  0  0  0  0  0  0  0  0  0  0
    4.5479    2.7639   -1.5923 H   0  0  0  0  0  0  0  0  0  0  0  0
    3.4488    1.8636   -0.5450 H   0  0  0  0  0  0  0  0  0  0  0  0
    3.8086    1.2552   -2.1675 H   0  0  0  0  0  0  0  0  0  0  0  0
    8.0553   -1.4240    1.3885 H   0  0  0  0  0  0  0  0  0  0  0  0
    6.4657   -1.0535    2.0632 H   0  0  0  0  0  0  0  0  0  0  0  0
    7.3998    0.2092    1.2481 H   0  0  0  0  0  0  0  0  0  0  0  0
    3.5901   -2.7792   -0.0709 H   0  0  0  0  0  0  0  0  0  0  0  0
    4.5893   -2.6859    1.3731 H   0  0  0  0  0  0  0  0  0  0  0  0
    5.7992    1.4294    0.1700 H   0  0  0  0  0  0  0  0  0  0  0  0
    6.2673    1.0430   -1.4761 H   0  0  0  0  0  0  0  0  0  0  0  0
    6.3075   -2.3341   -0.1219 H   0  0  0  0  0  0  0  0  0  0  0  0
    7.2255   -1.0729   -0.9242 H   0  0  0  0  0  0  0  0  0  0  0  0
    4.2951   -0.2058    1.4362 H   0  0  0  0  0  0  0  0  0  0  0  0
    3.1451   -0.2982    0.1108 H   0  0  0  0  0  0  0  0  0  0  0  0
    5.4131   -1.0992   -2.3770 H   0  0  0  0  0  0  0  0  0  0  0  0
  1 10  1  0  0  0  0
  1 12  1  0  0  0  0
  2  5  1  0  0  0  0
  2 14  1  0  0  0  0
  3 18  1  0  0  0  0
  3 16  1  0  0  0  0
  3 17  1  0  0  0  0
  4 20  1  0  0  0  0
  4  1  1  0  0  0  0
  5  8  1  0  0  0  0
  5 21  1  0  0  0  0
  6  3  1  0  0  0  0
  7  4  1  0  0  0  0
  7 25  1  0  0  0  0
  8  6  1  0  0  0  0
  8  7  1  0  0  0  0
  9  8  1  0  0  0  0
 11  1  1  0  0  0  0
 13  2  1  0  0  0  0
 15  2  1  0  0  0  0
 19  4  1  0  0  0  0
 22  5  1  0  0  0  0
 23  6  1  0  0  0  0
 24  6  1  0  0  0  0
 26  7  1  0  0  0  0
 27  9  1  0  0  0  0
M  END
>  <HBA>
1

>  <HBD>
1

>  <TPSA>
20.23

>  <cid>
69008

>  <dipole>
1.46

>  <excitation_energy_1>
6.33

>  <excitation_energy_2>
6.939

>  <excitation_energy_3>
7.044

>  <excitation_energy_4>
7.226

>  <homo_energy>
-6.983

>  <homo_lumo_gap>
8.874

>  <logP>
2.338

>  <lumo_energy>
1.891

>  <melting_point>
1.75

>  <molecular_refractivity>
41.77

>  <oscillator_strength_1>
0.008

>  <oscillator_strength_2>
0.0098

>  <oscillator_strength_3>
0.0007

>  <oscillator_strength_4>
0.0091

>  <open_babel_can_smiles>
CCCC(CC)(CC)O

>  <mulliken_charges>
27
1   -0.444449
2   -0.448779
3   -0.457303
4   -0.260759
5   -0.268938
6   -0.280489
7   -0.264866
8   0.316025
9   -0.645469
10   0.140415
11   0.142908
12   0.136697
13   0.137303
14   0.145692
15   0.158706
16   0.145686
17   0.151762
18   0.148042
19   0.157737
20   0.128713
21   0.133143
22   0.113651
23   0.149419
24   0.113031
25   0.125465
26   0.144653
27   0.382004

>  <lowdin_charges>
27
1   -0.442861
2   -0.450032
3   -0.448505
4   -0.277458
5   -0.28943
6   -0.289258
7   -0.282745
8   0.118019
9   -0.464076
10   0.14733
11   0.147151
12   0.143322
13   0.147761
14   0.148687
15   0.156142
16   0.153194
17   0.15103
18   0.147196
19   0.152875
20   0.138026
21   0.144733
22   0.134523
23   0.148636
24   0.134326
25   0.141486
26   0.152046
27   0.337881

$$$$

