PCCDB-ID:  8112
public computational chemistry database (PCCDB) project, http://pccdb.org

 19 18  0  0  0  0  0  0  0  0999 V2000
    2.4001   -2.1905   -1.3000 C   0  0  0  0  0  0  0  0  0  0  0  0
    1.3936   -1.5397   -2.2495 C   0  0  0  0  0  0  0  0  0  0  0  0
   -0.9102   -1.7097   -3.1265 C   0  0  0  0  0  0  0  0  0  0  0  0
   -0.7662   -2.4565   -4.4577 C   0  0  0  0  0  0  0  0  0  0  0  0
    3.6887   -1.4954   -1.3799 N   0  0  0  0  0  0  0  0  0  0  0  0
    0.0940   -2.2119   -2.1765 N   0  0  0  0  0  0  0  0  0  0  0  0
   -0.7910   -3.8530   -4.2397 O   0  0  0  0  0  0  0  0  0  0  0  0
    2.4415   -3.2714   -1.5196 H   0  0  0  0  0  0  0  0  0  0  0  0
    2.0345   -2.0917   -0.2685 H   0  0  0  0  0  0  0  0  0  0  0  0
    1.7650   -1.6267   -3.2791 H   0  0  0  0  0  0  0  0  0  0  0  0
    1.3331   -0.4608   -2.0258 H   0  0  0  0  0  0  0  0  0  0  0  0
   -1.9000   -1.9325   -2.7129 H   0  0  0  0  0  0  0  0  0  0  0  0
   -0.8466   -0.6186   -3.2824 H   0  0  0  0  0  0  0  0  0  0  0  0
    0.1638   -2.1457   -4.9664 H   0  0  0  0  0  0  0  0  0  0  0  0
   -1.5988   -2.2033   -5.1239 H   0  0  0  0  0  0  0  0  0  0  0  0
    4.1262   -1.6904   -2.2800 H   0  0  0  0  0  0  0  0  0  0  0  0
    4.3242   -1.8660   -0.6758 H   0  0  0  0  0  0  0  0  0  0  0  0
   -0.2659   -2.1319   -1.2283 H   0  0  0  0  0  0  0  0  0  0  0  0
   -0.2781   -3.9651   -3.4153 H   0  0  0  0  0  0  0  0  0  0  0  0
  1  9  1  0  0  0  0
  2  6  1  0  0  0  0
  2 11  1  0  0  0  0
  2  1  1  0  0  0  0
  3 12  1  0  0  0  0
  3  6  1  0  0  0  0
  4  7  1  0  0  0  0
  4  3  1  0  0  0  0
  5  1  1  0  0  0  0
  5 17  1  0  0  0  0
  6 18  1  0  0  0  0
  7 19  1  0  0  0  0
  8  1  1  0  0  0  0
 10  2  1  0  0  0  0
 13  3  1  0  0  0  0
 14  4  1  0  0  0  0
 15  4  1  0  0  0  0
 16  5  1  0  0  0  0
M  END
>  <HBA>
3

>  <HBD>
3

>  <TPSA>
58.28

>  <cid>
8112

>  <dipole>
2.27

>  <excitation_energy_1>
5.685

>  <excitation_energy_2>
5.755

>  <excitation_energy_3>
6.003

>  <excitation_energy_4>
6.25

>  <homo_energy>
-6.351

>  <homo_lumo_gap>
8.359

>  <logP>
-0.382

>  <lumo_energy>
2.008

>  <melting_point>
74.81

>  <molecular_refractivity>
28.01

>  <oscillator_strength_1>
0.0106

>  <oscillator_strength_2>
0.0023

>  <oscillator_strength_3>
0.0025

>  <oscillator_strength_4>
0.0064

>  <open_babel_can_smiles>
NCCNCCO

>  <mulliken_charges>
19
1   -0.144756
2   -0.114762
3   -0.157801
4   -0.006804
5   -0.718172
6   -0.583385
7   -0.630863
8   0.127719
9   0.134313
10   0.141202
11   0.137422
12   0.145505
13   0.122115
14   0.11326
15   0.137432
16   0.295822
17   0.300384
18   0.304246
19   0.397123

>  <lowdin_charges>
19
1   -0.205426
2   -0.204878
3   -0.22224
4   -0.141142
5   -0.559171
6   -0.365471
7   -0.479245
8   0.122492
9   0.13789
10   0.14072
11   0.129474
12   0.148675
13   0.127306
14   0.119964
15   0.145176
16   0.253476
17   0.259142
18   0.25746
19   0.335797

$$$$

