PCCDB-ID:  32735
public computational chemistry database (PCCDB) project, http://pccdb.org

 24 25  0  0  1  0  0  0  0  0999 V2000
    0.9246    0.1027    0.2406 C   0  0  0  0  0  0  0  0  0  0  0  0
    2.7311    0.1814   -1.4693 C   0  0  0  0  0  0  0  0  0  0  0  0
    4.6022   -1.2494    0.4238 C   0  0  0  0  0  0  0  0  0  0  0  0
    5.4294    0.0669    0.4121 C   0  0  0  0  0  0  0  0  0  0  0  0
    3.1771    0.0104    2.0731 C   0  0  0  0  0  0  0  0  0  0  0  0
    3.1599   -1.0032    0.8965 C   0  0  1  0  0  0  0  0  0  0  0  0
    3.1658    1.1323    0.9918 C   0  0  1  0  0  0  0  0  0  0  0  0
    4.5803    1.3454    0.4934 C   0  0  0  0  0  0  0  0  0  0  0  0
    2.4471    0.0986    0.0341 C   0  0  0  0  0  0  0  0  0  0  0  0
    5.0259    2.4345    0.1883 O   0  0  0  0  0  0  0  0  0  0  0  0
    0.4716   -0.7545   -0.2737 H   0  0  0  0  0  0  0  0  0  0  0  0
    0.4823    1.0138   -0.1798 H   0  0  0  0  0  0  0  0  0  0  0  0
    0.6322    0.0468    1.2933 H   0  0  0  0  0  0  0  0  0  0  0  0
    2.2805   -0.6720   -1.9918 H   0  0  0  0  0  0  0  0  0  0  0  0
    3.7968    0.1947   -1.7142 H   0  0  0  0  0  0  0  0  0  0  0  0
    2.2908    1.0941   -1.8885 H   0  0  0  0  0  0  0  0  0  0  0  0
    5.0783   -1.9800    1.0888 H   0  0  0  0  0  0  0  0  0  0  0  0
    4.5923   -1.7020   -0.5744 H   0  0  0  0  0  0  0  0  0  0  0  0
    6.0802    0.1484   -0.4639 H   0  0  0  0  0  0  0  0  0  0  0  0
    6.1004    0.1012    1.2810 H   0  0  0  0  0  0  0  0  0  0  0  0
    4.0304   -0.0244    2.7589 H   0  0  0  0  0  0  0  0  0  0  0  0
    2.2599    0.0043    2.6650 H   0  0  0  0  0  0  0  0  0  0  0  0
    2.6200   -1.9478    1.0330 H   0  0  0  0  0  0  0  0  0  0  0  0
    2.6754    2.0892    1.1916 H   0  0  0  0  0  0  0  0  0  0  0  0
  1 13  1  0  0  0  0
  2  9  1  0  0  0  0
  3  6  1  0  0  0  0
  3 17  1  0  0  0  0
  4  3  1  0  0  0  0
  4  8  1  0  0  0  0
  4 20  1  0  0  0  0
  5 22  1  0  0  0  0
  5 21  1  0  0  0  0
  6 23  1  1  0  0  0
  6  5  1  0  0  0  0
  7 24  1  1  0  0  0
  7  5  1  0  0  0  0
  8  7  1  0  0  0  0
  9  1  1  0  0  0  0
  9  6  1  0  0  0  0
  9  7  1  0  0  0  0
 10  8  2  0  0  0  0
 11  1  1  0  0  0  0
 12  1  1  0  0  0  0
 14  2  1  0  0  0  0
 15  2  1  0  0  0  0
 16  2  1  0  0  0  0
 18  3  1  0  0  0  0
 19  4  1  0  0  0  0
M  END
>  <HBA>
1

>  <HBD>
0

>  <TPSA>
17.07

>  <cid>
32735

>  <dipole>
3.13

>  <excitation_energy_1>
4.313

>  <excitation_energy_2>
5.932

>  <excitation_energy_3>
6.265

>  <excitation_energy_4>
6.427

>  <homo_energy>
-6.302

>  <homo_lumo_gap>
6.133

>  <logP>
2.012

>  <lumo_energy>
-0.169

>  <melting_point>
56.68

>  <molecular_refractivity>
41.09

>  <oscillator_strength_1>
0.0001

>  <oscillator_strength_2>
0.0103

>  <oscillator_strength_3>
0.0003

>  <oscillator_strength_4>
0.0075

>  <open_babel_can_smiles>
O=C1CC[C@H]2C[C@@H]1C2(C)C

>  <mulliken_charges>
24
1   -0.46367
2   -0.470945
3   -0.270443
4   -0.376548
5   -0.293457
6   -0.119858
7   -0.191951
8   0.467515
9   0.11607
10   -0.46514
11   0.145208
12   0.148831
13   0.145951
14   0.144003
15   0.15138
16   0.154143
17   0.140878
18   0.146739
19   0.171282
20   0.173603
21   0.138595
22   0.151081
23   0.120698
24   0.136035

>  <lowdin_charges>
24
1   -0.440459
2   -0.451389
3   -0.282095
4   -0.320327
5   -0.285478
6   -0.133919
7   -0.161045
8   0.155528
9   0.013845
10   -0.241384
11   0.151585
12   0.152811
13   0.149586
14   0.152636
15   0.153018
16   0.157939
17   0.150441
18   0.147708
19   0.169591
20   0.172094
21   0.143643
22   0.1549
23   0.138321
24   0.15245

$$$$

