PCCDB-ID:  1016
public computational chemistry database (PCCDB) project, http://pccdb.org

 22 21  0  0  1  0  0  0  0  0999 V2000
    2.2964    0.2422   -0.1543 C   0  0  0  0  0  0  0  0  0  0  0  0
    2.1605   -0.4253   -1.5170 C   0  0  1  0  0  0  0  0  0  0  0  0
    1.0168   -1.4480   -1.6302 C   0  0  1  0  0  0  0  0  0  0  0  0
    1.2805   -2.6821   -0.7416 C   0  0  0  0  0  0  0  0  0  0  0  0
   -0.3411   -0.9493   -1.3805 N   0  0  0  0  0  0  0  0  0  0  0  0
    2.3900   -3.0971   -0.4994 O   0  0  0  0  0  0  0  0  0  0  0  0
    0.1594   -3.2693   -0.3020 O   0  0  0  0  0  0  0  0  0  0  0  0
    3.9841    0.4551   -3.9665 O   0  0  0  0  0  0  0  0  0  0  0  0
    2.1593    2.2376   -4.2950 O   0  0  0  0  0  0  0  0  0  0  0  0
    3.7990    2.3533   -2.2491 O   0  0  0  0  0  0  0  0  0  0  0  0
    1.8581    0.5688   -2.5472 O   0  0  0  0  0  0  0  0  0  0  0  0
    3.0317    1.4847   -3.1602 P   0  0  0  0  0  0  0  0  0  0  0  0
    2.5253   -0.5133    0.6033 H   0  0  0  0  0  0  0  0  0  0  0  0
    1.3787    0.7714    0.1272 H   0  0  0  0  0  0  0  0  0  0  0  0
    3.1060    0.9752   -0.1769 H   0  0  0  0  0  0  0  0  0  0  0  0
    3.0913   -0.9372   -1.7776 H   0  0  0  0  0  0  0  0  0  0  0  0
    1.0236   -1.8233   -2.6620 H   0  0  0  0  0  0  0  0  0  0  0  0
   -0.3579   -0.3454   -0.5594 H   0  0  0  0  0  0  0  0  0  0  0  0
   -0.6589   -0.3840   -2.1645 H   0  0  0  0  0  0  0  0  0  0  0  0
   -0.5791   -2.6981   -0.6298 H   0  0  0  0  0  0  0  0  0  0  0  0
    3.5056   -0.0401   -4.6523 H   0  0  0  0  0  0  0  0  0  0  0  0
    2.4189    3.1734   -4.3281 H   0  0  0  0  0  0  0  0  0  0  0  0
  1 14  1  0  0  0  0
  1 13  1  0  0  0  0
  2 16  1  6  0  0  0
  2  1  1  0  0  0  0
  3 17  1  6  0  0  0
  3  2  1  0  0  0  0
  3  5  1  0  0  0  0
  3  4  1  0  0  0  0
  4  6  2  0  0  0  0
  4  7  1  0  0  0  0
  5 18  1  0  0  0  0
  8 12  1  0  0  0  0
  9 12  1  0  0  0  0
 11  2  1  0  0  0  0
 12 11  1  0  0  0  0
 12 10  2  0  0  0  0
 15  1  1  0  0  0  0
 19  5  1  0  0  0  0
 20  7  1  0  0  0  0
 21  8  1  0  0  0  0
 22  9  1  0  0  0  0
M  END
>  <HBA>
7

>  <HBD>
4

>  <TPSA>
139.89

>  <cid>
1016

>  <dipole>
5.39

>  <excitation_energy_1>
5.462

>  <excitation_energy_2>
6.175

>  <excitation_energy_3>
6.57

>  <excitation_energy_4>
6.677

>  <homo_energy>
-7.26

>  <homo_lumo_gap>
7.268

>  <logP>
-0.404

>  <lumo_energy>
0.008

>  <melting_point>
185.9

>  <molecular_refractivity>
37.89

>  <oscillator_strength_1>
0.0012

>  <oscillator_strength_2>
0.0006

>  <oscillator_strength_3>
0.0236

>  <oscillator_strength_4>
0.0043

>  <open_babel_can_smiles>
OC(=O)[C@H]([C@@H](OP(=O)(O)O)C)N

>  <mulliken_charges>
22
1   -0.486111
2   0.120517
3   -0.111908
4   0.619775
5   -0.767331
6   -0.465458
7   -0.57732
8   -0.631053
9   -0.64254
10   -0.543861
11   -0.546444
12   1.149765
13   0.180439
14   0.139716
15   0.209217
16   0.18519
17   0.183689
18   0.328007
19   0.338529
20   0.434371
21   0.434904
22   0.447906

>  <lowdin_charges>
22
1   -0.464591
2   0.005071
3   -0.118076
4   0.17658
5   -0.541655
6   -0.253429
7   -0.347098
8   -0.558612
9   -0.565375
10   -0.575407
11   -0.402194
12   1.104629
13   0.173654
14   0.148367
15   0.188023
16   0.170636
17   0.172003
18   0.269547
19   0.281084
20   0.36332
21   0.38398
22   0.389543

$$$$

