PCCDB-ID:  25956
public computational chemistry database (PCCDB) project, http://pccdb.org

 20 21  0  0  1  0  0  0  0  0999 V2000
   -2.3151    0.7015    0.3038 C   0  0  0  0  0  0  0  0  0  0  0  0
   -2.3151   -0.7013   -0.3036 C   0  0  0  0  0  0  0  0  0  0  0  0
    2.3155    0.7013    0.3035 C   0  0  0  0  0  0  0  0  0  0  0  0
    2.3154   -0.7014   -0.3039 C   0  0  0  0  0  0  0  0  0  0  0  0
    0.0002    0.6870    0.3356 C   0  0  2  0  0  0  0  0  0  0  0  0
    0.0001   -0.6870   -0.3357 C   0  0  2  0  0  0  0  0  0  0  0  0
   -1.1322    1.4169   -0.0613 O   0  0  0  0  0  0  0  0  0  0  0  0
   -1.1323   -1.4168    0.0614 O   0  0  0  0  0  0  0  0  0  0  0  0
    1.1326    1.4169   -0.0614 O   0  0  0  0  0  0  0  0  0  0  0  0
    1.1326   -1.4169    0.0612 O   0  0  0  0  0  0  0  0  0  0  0  0
   -2.3864    0.6310    1.4005 H   0  0  0  0  0  0  0  0  0  0  0  0
   -3.1583    1.2902   -0.0687 H   0  0  0  0  0  0  0  0  0  0  0  0
   -2.3866   -0.6309   -1.4003 H   0  0  0  0  0  0  0  0  0  0  0  0
   -3.1584   -1.2900    0.0690 H   0  0  0  0  0  0  0  0  0  0  0  0
    3.1587    1.2901   -0.0691 H   0  0  0  0  0  0  0  0  0  0  0  0
    2.3870    0.6309    1.4002 H   0  0  0  0  0  0  0  0  0  0  0  0
    3.1587   -1.2902    0.0687 H   0  0  0  0  0  0  0  0  0  0  0  0
    2.3867   -0.6310   -1.4006 H   0  0  0  0  0  0  0  0  0  0  0  0
    0.0003    0.5315    1.4341 H   0  0  0  0  0  0  0  0  0  0  0  0
    0.0001   -0.5314   -1.4341 H   0  0  0  0  0  0  0  0  0  0  0  0
  1 11  1  0  0  0  0
  2  8  1  0  0  0  0
  2 14  1  0  0  0  0
  2  1  1  0  0  0  0
  3 16  1  0  0  0  0
  4 10  1  0  0  0  0
  4 17  1  0  0  0  0
  4  3  1  0  0  0  0
  5 19  1  1  0  0  0
  6 20  1  6  0  0  0
  6 10  1  0  0  0  0
  6  8  1  0  0  0  0
  6  5  1  0  0  0  0
  7  1  1  0  0  0  0
  7  5  1  0  0  0  0
  9  3  1  0  0  0  0
  9  5  1  0  0  0  0
 12  1  1  0  0  0  0
 13  2  1  0  0  0  0
 15  3  1  0  0  0  0
 18  4  1  0  0  0  0
M  END
>  <HBA>
4

>  <HBD>
0

>  <TPSA>
36.92

>  <cid>
25956

>  <dipole>
0.0

>  <excitation_energy_1>
6.124

>  <excitation_energy_2>
6.166

>  <excitation_energy_3>
6.202

>  <excitation_energy_4>
6.716

>  <homo_energy>
-6.256

>  <homo_lumo_gap>
8.615

>  <logP>
-0.268

>  <lumo_energy>
2.359

>  <melting_point>
-17.2

>  <molecular_refractivity>
31.07

>  <oscillator_strength_1>
0.0752

>  <oscillator_strength_2>
0.0

>  <oscillator_strength_3>
0.0288

>  <oscillator_strength_4>
0.0

>  <open_babel_can_smiles>
C1CO[C@@H]2[C@@H](O1)OCCO2

>  <mulliken_charges>
20
1   -0.053499
2   -0.053579
3   -0.053521
4   -0.053574
5   0.357582
6   0.357526
7   -0.481115
8   -0.481106
9   -0.481108
10   -0.481101
11   0.142577
12   0.157874
13   0.142579
14   0.157879
15   0.157878
16   0.14258
17   0.157881
18   0.142581
19   0.110835
20   0.110832

>  <lowdin_charges>
20
1   -0.143502
2   -0.143512
3   -0.143505
4   -0.143511
5   0.073369
6   0.073364
7   -0.248726
8   -0.248725
9   -0.248726
10   -0.248725
11   0.136669
12   0.161187
13   0.13667
14   0.161188
15   0.161188
16   0.136669
17   0.161188
18   0.13667
19   0.115385
20   0.115383

$$$$

