PCCDB-ID:  9206
public computational chemistry database (PCCDB) project, http://pccdb.org

 20 22  0  0  0  0  0  0  0  0999 V2000
    3.3435   -0.1776   -0.0002 C   0  0  0  0  0  0  0  0  0  0  0  0
    2.8995    1.1811   -0.0004 C   0  0  0  0  0  0  0  0  0  0  0  0
   -3.3187   -0.1377    0.0003 C   0  0  0  0  0  0  0  0  0  0  0  0
   -2.4577   -1.2301    0.0006 C   0  0  0  0  0  0  0  0  0  0  0  0
    2.4487   -1.2166   -0.0008 C   0  0  0  0  0  0  0  0  0  0  0  0
   -2.8141    1.1799   -0.0000 C   0  0  0  0  0  0  0  0  0  0  0  0
    1.5642    1.4588   -0.0006 C   0  0  0  0  0  0  0  0  0  0  0  0
   -1.0823   -0.9518    0.0002 C   0  0  0  0  0  0  0  0  0  0  0  0
    1.0548   -0.9424   -0.0007 C   0  0  0  0  0  0  0  0  0  0  0  0
   -0.7176    0.4191   -0.0001 C   0  0  0  0  0  0  0  0  0  0  0  0
   -1.5107    1.4826   -0.0001 N   0  0  0  0  0  0  0  0  0  0  0  0
    0.0187   -1.7725   -0.0002 N   0  0  0  0  0  0  0  0  0  0  0  0
    0.6723    0.4187   -0.0008 N   0  0  0  0  0  0  0  0  0  0  0  0
    4.4096   -0.3842    0.0008 H   0  0  0  0  0  0  0  0  0  0  0  0
    3.6142    1.9961   -0.0008 H   0  0  0  0  0  0  0  0  0  0  0  0
   -4.3943   -0.2872   -0.0003 H   0  0  0  0  0  0  0  0  0  0  0  0
   -2.8225   -2.2526    0.0015 H   0  0  0  0  0  0  0  0  0  0  0  0
    2.7617   -2.2544   -0.0011 H   0  0  0  0  0  0  0  0  0  0  0  0
   -3.5003    2.0237    0.0003 H   0  0  0  0  0  0  0  0  0  0  0  0
    1.1278    2.4505   -0.0003 H   0  0  0  0  0  0  0  0  0  0  0  0
  1 14  1  0  0  0  0
  2  1  1  0  0  0  0
  3  4  1  0  0  0  0
  4 17  1  0  0  0  0
  5  9  1  0  0  0  0
  5  1  2  0  0  0  0
  6 19  1  0  0  0  0
  6  3  2  0  0  0  0
  7  2  2  0  0  0  0
  7 20  1  0  0  0  0
  8  4  2  0  0  0  0
  9 12  2  0  0  0  0
 10  8  1  0  0  0  0
 11 10  2  0  0  0  0
 11  6  1  0  0  0  0
 12  8  1  0  0  0  0
 13  9  1  0  0  0  0
 13  7  1  0  0  0  0
 13 10  1  0  0  0  0
 15  2  1  0  0  0  0
 16  3  1  0  0  0  0
 18  5  1  0  0  0  0
M  END
>  <HBA>
3

>  <HBD>
0

>  <TPSA>
30.19

>  <cid>
9206

>  <dipole>
1.74

>  <excitation_energy_1>
3.571

>  <excitation_energy_2>
4.218

>  <excitation_energy_3>
4.353

>  <excitation_energy_4>
4.881

>  <homo_energy>
-5.714

>  <homo_lumo_gap>
4.125

>  <logP>
1.883

>  <lumo_energy>
-1.589

>  <melting_point>
117.22

>  <molecular_refractivity>
50.49

>  <oscillator_strength_1>
0.0924

>  <oscillator_strength_2>
0.0175

>  <oscillator_strength_3>
0.0008

>  <oscillator_strength_4>
0.2764

>  <open_babel_can_smiles>
c1cnc2c(c1)nc1n2cccc1

>  <mulliken_charges>
20
1   -0.10888
2   -0.199508
3   -0.162036
4   -0.139211
5   -0.190181
6   0.027725
7   0.090631
8   0.246052
9   0.534509
10   0.483367
11   -0.505298
12   -0.588005
13   -0.573355
14   0.148319
15   0.1509
16   0.137533
17   0.152388
18   0.161633
19   0.140099
20   0.193318

>  <lowdin_charges>
20
1   -0.137258
2   -0.189867
3   -0.178257
4   -0.134038
5   -0.163014
6   -0.099969
7   -0.077914
8   0.009127
9   0.087001
10   0.036799
11   -0.156473
12   -0.217876
13   0.023257
14   0.166343
15   0.173129
16   0.163191
17   0.171039
18   0.179344
19   0.15894
20   0.186496

$$$$

