PCCDB-ID:  41472
public computational chemistry database (PCCDB) project, http://pccdb.org

 21 21  0  0  1  0  0  0  0  0999 V2000
    1.2546   -0.4032   -0.4186 C   0  0  0  0  0  0  0  0  0  0  0  0
    2.8490   -0.3311    3.0412 C   0  0  0  0  0  0  0  0  0  0  0  0
    2.8515   -1.5550    2.1122 C   0  0  0  0  0  0  0  0  0  0  0  0
    2.6413    1.1736    1.0624 C   0  0  0  0  0  0  0  0  0  0  0  0
    2.6504   -0.0310    0.0973 C   0  0  1  0  0  0  0  0  0  0  0  0
    1.0421    1.2352    2.9610 N   0  0  0  0  0  0  0  0  0  0  0  0
    4.3151   -1.8702    0.2555 N   0  0  0  0  0  0  0  0  0  0  0  0
    2.1687    0.7718    2.3842 N   0  0  0  0  0  0  0  0  0  0  0  0
    3.2946   -1.1647    0.7817 N   0  0  0  0  0  0  0  0  0  0  0  0
    0.4453    2.1014    2.3343 O   0  0  0  0  0  0  0  0  0  0  0  0
    4.6691   -1.5325   -0.8677 O   0  0  0  0  0  0  0  0  0  0  0  0
    0.8432    0.4232   -1.0075 H   0  0  0  0  0  0  0  0  0  0  0  0
    0.5560   -0.6071    0.4000 H   0  0  0  0  0  0  0  0  0  0  0  0
    1.3109   -1.2883   -1.0592 H   0  0  0  0  0  0  0  0  0  0  0  0
    3.8809   -0.0361    3.2735 H   0  0  0  0  0  0  0  0  0  0  0  0
    2.3176   -0.5380    3.9734 H   0  0  0  0  0  0  0  0  0  0  0  0
    1.8402   -1.9790    2.0620 H   0  0  0  0  0  0  0  0  0  0  0  0
    3.5381   -2.3282    2.4658 H   0  0  0  0  0  0  0  0  0  0  0  0
    1.9733    1.9623    0.7114 H   0  0  0  0  0  0  0  0  0  0  0  0
    3.6553    1.5796    1.1637 H   0  0  0  0  0  0  0  0  0  0  0  0
    3.3043    0.1927   -0.7493 H   0  0  0  0  0  0  0  0  0  0  0  0
  1  5  1  0  0  0  0
  1 13  1  0  0  0  0
  2 15  1  0  0  0  0
  2 16  1  0  0  0  0
  3 18  1  0  0  0  0
  3  2  1  0  0  0  0
  4 20  1  0  0  0  0
  4  8  1  0  0  0  0
  5 21  1  6  0  0  0
  5  9  1  0  0  0  0
  5  4  1  0  0  0  0
  7  9  1  0  0  0  0
  8  6  1  0  0  0  0
  8  2  1  0  0  0  0
  9  3  1  0  0  0  0
 10  6  2  0  0  0  0
 11  7  2  0  0  0  0
 12  1  1  0  0  0  0
 14  1  1  0  0  0  0
 17  3  1  0  0  0  0
 19  4  1  0  0  0  0
M  END
>  <HBA>
6

>  <HBD>
0

>  <TPSA>
65.34

>  <cid>
41472

>  <dipole>
1.37

>  <excitation_energy_1>
3.349

>  <excitation_energy_2>
3.391

>  <excitation_energy_3>
4.57

>  <excitation_energy_4>
4.699

>  <homo_energy>
-6.362

>  <homo_lumo_gap>
5.023

>  <logP>
0.231

>  <lumo_energy>
-1.339

>  <melting_point>
40.05

>  <molecular_refractivity>
47.13

>  <oscillator_strength_1>
0.0001

>  <oscillator_strength_2>
0.0016

>  <oscillator_strength_3>
0.0003

>  <oscillator_strength_4>
0.0006

>  <open_babel_can_smiles>
O=NN1CCN([C@H](C1)C)N=O

>  <mulliken_charges>
21
1   -0.450441
2   -0.142045
3   -0.140018
4   -0.165445
5   0.007396
6   0.156647
7   0.157941
8   -0.23185
9   -0.242794
10   -0.367753
11   -0.369478
12   0.166791
13   0.160616
14   0.171735
15   0.16939
16   0.187411
17   0.172215
18   0.187608
19   0.204852
20   0.173349
21   0.193874

>  <lowdin_charges>
21
1   -0.44989
2   -0.204788
3   -0.206353
4   -0.222612
5   -0.079985
6   0.057846
7   0.055406
8   -0.052644
9   -0.053059
10   -0.261463
11   -0.261486
12   0.165818
13   0.157359
14   0.166202
15   0.155779
16   0.175911
17   0.15567
18   0.177208
19   0.184778
20   0.161897
21   0.178407

$$$$

