PCCDB-ID:  12120
public computational chemistry database (PCCDB) project, http://pccdb.org

 21 21  0  0  0  0  0  0  0  0999 V2000
    1.3879    1.3816    1.4485 C   0  0  0  0  0  0  0  0  0  0  0  0
    2.8513    1.7667    1.5852 C   0  0  0  0  0  0  0  0  0  0  0  0
    7.0583   -0.5624    1.4486 C   0  0  0  0  0  0  0  0  0  0  0  0
    7.7767    0.6095    1.6906 C   0  0  0  0  0  0  0  0  0  0  0  0
    5.6714   -0.5558    1.3566 C   0  0  0  0  0  0  0  0  0  0  0  0
    5.6875    1.8418    1.7548 C   0  0  0  0  0  0  0  0  0  0  0  0
    7.0917    1.8224    1.8461 C   0  0  0  0  0  0  0  0  0  0  0  0
    4.9856    0.6582    1.5128 C   0  0  0  0  0  0  0  0  0  0  0  0
    7.7849    3.0012    2.1498 N   0  0  0  0  0  0  0  0  0  0  0  0
    3.6248    0.5839    1.4073 O   0  0  0  0  0  0  0  0  0  0  0  0
    0.7518    2.2650    1.5708 H   0  0  0  0  0  0  0  0  0  0  0  0
    1.1109    0.6451    2.2092 H   0  0  0  0  0  0  0  0  0  0  0  0
    1.1946    0.9471    0.4627 H   0  0  0  0  0  0  0  0  0  0  0  0
    3.0505    2.2002    2.5760 H   0  0  0  0  0  0  0  0  0  0  0  0
    3.1299    2.5152    0.8287 H   0  0  0  0  0  0  0  0  0  0  0  0
    7.5960   -1.4994    1.3271 H   0  0  0  0  0  0  0  0  0  0  0  0
    8.8612    0.5869    1.7633 H   0  0  0  0  0  0  0  0  0  0  0  0
    5.1030   -1.4601    1.1681 H   0  0  0  0  0  0  0  0  0  0  0  0
    5.1661    2.7845    1.8821 H   0  0  0  0  0  0  0  0  0  0  0  0
    8.7538    3.0034    1.8548 H   0  0  0  0  0  0  0  0  0  0  0  0
    7.3169    3.8525    1.8631 H   0  0  0  0  0  0  0  0  0  0  0  0
  1 11  1  0  0  0  0
  1  2  1  0  0  0  0
  1 12  1  0  0  0  0
  2 14  1  0  0  0  0
  3  4  1  0  0  0  0
  4 17  1  0  0  0  0
  4  7  2  0  0  0  0
  5  3  2  0  0  0  0
  5  8  1  0  0  0  0
  6  7  1  0  0  0  0
  6 19  1  0  0  0  0
  7  9  1  0  0  0  0
  8  6  2  0  0  0  0
 10  8  1  0  0  0  0
 10  2  1  0  0  0  0
 13  1  1  0  0  0  0
 15  2  1  0  0  0  0
 16  3  1  0  0  0  0
 18  5  1  0  0  0  0
 20  9  1  0  0  0  0
 21  9  1  0  0  0  0
M  END
>  <HBA>
2

>  <HBD>
1

>  <TPSA>
35.25

>  <cid>
12120

>  <dipole>
2.41

>  <excitation_energy_1>
4.601

>  <excitation_energy_2>
4.782

>  <excitation_energy_3>
5.225

>  <excitation_energy_4>
5.329

>  <homo_energy>
-5.197

>  <homo_lumo_gap>
5.704

>  <logP>
2.249

>  <lumo_energy>
0.506

>  <melting_point>
57.92

>  <molecular_refractivity>
42.15

>  <oscillator_strength_1>
0.0065

>  <oscillator_strength_2>
0.0418

>  <oscillator_strength_3>
0.0084

>  <oscillator_strength_4>
0.0167

>  <open_babel_can_smiles>
CCOc1cccc(c1)N

>  <mulliken_charges>
21
1   -0.456413
2   -0.024263
3   -0.137495
4   -0.182164
5   -0.185934
6   -0.251741
7   0.308164
8   0.379295
9   -0.787163
10   -0.520495
11   0.145647
12   0.163278
13   0.162603
14   0.140006
15   0.135479
16   0.124471
17   0.109577
18   0.126411
19   0.116717
20   0.318218
21   0.315803

>  <lowdin_charges>
21
1   -0.448511
2   -0.124548
3   -0.138366
4   -0.223015
5   -0.215504
6   -0.259069
7   0.068786
8   0.114819
9   -0.48945
10   -0.204413
11   0.155989
12   0.160589
13   0.159046
14   0.137159
15   0.136146
16   0.156597
17   0.148375
18   0.163294
19   0.156117
20   0.27292
21   0.273043

$$$$

