PCCDB-ID:  10261
public computational chemistry database (PCCDB) project, http://pccdb.org

 28 28  0  0  0  0  0  0  0  0999 V2000
    0.5989   -1.0775   -2.3866 C   0  0  0  0  0  0  0  0  0  0  0  0
    6.8125   -2.6423    0.2687 C   0  0  0  0  0  0  0  0  0  0  0  0
    1.7330   -0.5673   -1.4812 C   0  0  0  0  0  0  0  0  0  0  0  0
    3.0397   -1.2730   -1.7281 C   0  0  0  0  0  0  0  0  0  0  0  0
    4.1651   -0.6883   -2.1450 C   0  0  0  0  0  0  0  0  0  0  0  0
    5.4690   -1.4081   -2.4075 C   0  0  0  0  0  0  0  0  0  0  0  0
    8.2776   -0.4931    0.0873 C   0  0  0  0  0  0  0  0  0  0  0  0
    8.3392    0.6997   -0.8837 C   0  0  0  0  0  0  0  0  0  0  0  0
    7.1639   -1.3762   -0.4464 C   0  0  0  0  0  0  0  0  0  0  0  0
    6.5983   -0.8716   -1.5653 C   0  0  0  0  0  0  0  0  0  0  0  0
    7.2456    0.4132   -1.9192 C   0  0  0  0  0  0  0  0  0  0  0  0
    6.9591    1.1208   -2.8708 O   0  0  0  0  0  0  0  0  0  0  0  0
   -0.3454   -0.5688   -2.1606 H   0  0  0  0  0  0  0  0  0  0  0  0
    0.4387   -2.1542   -2.2524 H   0  0  0  0  0  0  0  0  0  0  0  0
    0.8350   -0.9059   -3.4426 H   0  0  0  0  0  0  0  0  0  0  0  0
    6.4777   -2.4238    1.2922 H   0  0  0  0  0  0  0  0  0  0  0  0
    7.6931   -3.2923    0.3637 H   0  0  0  0  0  0  0  0  0  0  0  0
    6.0207   -3.2042   -0.2330 H   0  0  0  0  0  0  0  0  0  0  0  0
    1.4346   -0.7077   -0.4311 H   0  0  0  0  0  0  0  0  0  0  0  0
    1.8657    0.5124   -1.6254 H   0  0  0  0  0  0  0  0  0  0  0  0
    3.0345   -2.3539   -1.5638 H   0  0  0  0  0  0  0  0  0  0  0  0
    4.1841    0.3879   -2.3183 H   0  0  0  0  0  0  0  0  0  0  0  0
    5.7468   -1.2614   -3.4611 H   0  0  0  0  0  0  0  0  0  0  0  0
    5.3398   -2.4848   -2.2502 H   0  0  0  0  0  0  0  0  0  0  0  0
    8.0620   -0.1851    1.1198 H   0  0  0  0  0  0  0  0  0  0  0  0
    9.2237   -1.0503    0.1311 H   0  0  0  0  0  0  0  0  0  0  0  0
    9.3055    0.7960   -1.3903 H   0  0  0  0  0  0  0  0  0  0  0  0
    8.1393    1.6610   -0.3981 H   0  0  0  0  0  0  0  0  0  0  0  0
  1 14  1  0  0  0  0
  1 13  1  0  0  0  0
  1  3  1  0  0  0  0
  2 17  1  0  0  0  0
  2 16  1  0  0  0  0
  3 19  1  0  0  0  0
  4 21  1  0  0  0  0
  4  3  1  0  0  0  0
  5  4  2  0  0  0  0
  6 24  1  0  0  0  0
  6  5  1  0  0  0  0
  6 10  1  0  0  0  0
  7 26  1  0  0  0  0
  7 25  1  0  0  0  0
  8 28  1  0  0  0  0
  8  7  1  0  0  0  0
  9  7  1  0  0  0  0
  9  2  1  0  0  0  0
 10  9  2  0  0  0  0
 11 10  1  0  0  0  0
 11  8  1  0  0  0  0
 12 11  2  0  0  0  0
 15  1  1  0  0  0  0
 18  2  1  0  0  0  0
 20  3  1  0  0  0  0
 22  5  1  0  0  0  0
 23  6  1  0  0  0  0
 27  8  1  0  0  0  0
M  END
>  <HBA>
1

>  <HBD>
0

>  <TPSA>
17.07

>  <cid>
10261

>  <dipole>
3.75

>  <excitation_energy_1>
3.878

>  <excitation_energy_2>
4.666

>  <excitation_energy_3>
5.574

>  <excitation_energy_4>
5.893

>  <homo_energy>
-6.302

>  <homo_lumo_gap>
5.333

>  <logP>
3.022

>  <lumo_energy>
-0.969

>  <melting_point>
40.51

>  <molecular_refractivity>
52.13

>  <oscillator_strength_1>
0.0005

>  <oscillator_strength_2>
0.0102

>  <oscillator_strength_3>
0.302

>  <oscillator_strength_4>
0.0356

>  <open_babel_can_smiles>
CC/C=C/CC1=C(C)CCC1=O

>  <mulliken_charges>
28
1   -0.438859
2   -0.521556
3   -0.294825
4   -0.089893
5   -0.094026
6   -0.385496
7   -0.339785
8   -0.364625
9   0.104715
10   0.080096
11   0.394379
12   -0.484525
13   0.142205
14   0.140893
15   0.151788
16   0.16834
17   0.164248
18   0.167537
19   0.138128
20   0.141541
21   0.107949
22   0.14212
23   0.170403
24   0.139669
25   0.156068
26   0.155568
27   0.173873
28   0.174074

>  <lowdin_charges>
28
1   -0.43953
2   -0.444341
3   -0.264593
4   -0.169137
5   -0.161221
6   -0.264345
7   -0.277955
8   -0.309021
9   0.023492
10   -0.065084
11   0.142043
12   -0.259521
13   0.149
14   0.144484
15   0.150045
16   0.166211
17   0.164625
18   0.164537
19   0.144186
20   0.145383
21   0.138573
22   0.156135
23   0.167039
24   0.148632
25   0.154334
26   0.15514
27   0.170376
28   0.170513

$$$$

