PCCDB-ID:  42766
public computational chemistry database (PCCDB) project, http://pccdb.org

 22 21  0  0  0  0  0  0  0  0999 V2000
    2.6795    0.5164   -2.9900 C   0  0  0  0  0  0  0  0  0  0  0  0
    2.5030    1.3123   -1.6902 C   0  0  0  0  0  0  0  0  0  0  0  0
    2.1024    0.4665   -0.4680 C   0  0  0  0  0  0  0  0  0  0  0  0
    3.1867   -0.5169   -0.0387 C   0  0  0  0  0  0  0  0  0  0  0  0
    2.3975   -1.7329    3.3804 C   0  0  0  0  0  0  0  0  0  0  0  0
    3.0048   -0.3620    5.3701 C   0  0  0  0  0  0  0  0  0  0  0  0
    2.9453   -0.7730    2.3177 C   0  0  0  0  0  0  0  0  0  0  0  0
    2.6569   -1.3028    4.7094 N   0  0  0  0  0  0  0  0  0  0  0  0
    3.4618    0.2937    2.5478 O   0  0  0  0  0  0  0  0  0  0  0  0
    2.7537   -1.3109    1.1009 O   0  0  0  0  0  0  0  0  0  0  0  0
    3.4313    0.7678    6.3983 S   0  0  0  0  0  0  0  0  0  0  0  0
    2.9073    1.1855   -3.8271 H   0  0  0  0  0  0  0  0  0  0  0  0
    1.7646   -0.0332   -3.2439 H   0  0  0  0  0  0  0  0  0  0  0  0
    3.4976   -0.2097   -2.9236 H   0  0  0  0  0  0  0  0  0  0  0  0
    1.7265    2.0724   -1.8406 H   0  0  0  0  0  0  0  0  0  0  0  0
    3.4263    1.8631   -1.4636 H   0  0  0  0  0  0  0  0  0  0  0  0
    1.1807   -0.0895   -0.6850 H   0  0  0  0  0  0  0  0  0  0  0  0
    1.8915    1.1315    0.3773 H   0  0  0  0  0  0  0  0  0  0  0  0
    4.1084    0.0053    0.2314 H   0  0  0  0  0  0  0  0  0  0  0  0
    3.4009   -1.2593   -0.8097 H   0  0  0  0  0  0  0  0  0  0  0  0
    2.8291   -2.7269    3.2177 H   0  0  0  0  0  0  0  0  0  0  0  0
    1.3159   -1.8405    3.2236 H   0  0  0  0  0  0  0  0  0  0  0  0
  1 14  1  0  0  0  0
  1  2  1  0  0  0  0
  2 16  1  0  0  0  0
  2  3  1  0  0  0  0
  3  4  1  0  0  0  0
  3 18  1  0  0  0  0
  4 19  1  0  0  0  0
  4 10  1  0  0  0  0
  5  8  1  0  0  0  0
  6 11  2  0  0  0  0
  7  9  2  0  0  0  0
  7  5  1  0  0  0  0
  8  6  2  0  0  0  0
 10  7  1  0  0  0  0
 12  1  1  0  0  0  0
 13  1  1  0  0  0  0
 15  2  1  0  0  0  0
 17  3  1  0  0  0  0
 20  4  1  0  0  0  0
 21  5  1  0  0  0  0
 22  5  1  0  0  0  0
M  END
>  <HBA>
4

>  <HBD>
0

>  <TPSA>
70.75

>  <cid>
42766

>  <dipole>
5.07

>  <excitation_energy_1>
4.527

>  <excitation_energy_2>
5.168

>  <excitation_energy_3>
5.498

>  <excitation_energy_4>
5.598

>  <homo_energy>
-6.618

>  <homo_lumo_gap>
6.095

>  <logP>
1.433

>  <lumo_energy>
-0.522

>  <melting_point>
34.63

>  <molecular_refractivity>
46.21

>  <oscillator_strength_1>
0.0

>  <oscillator_strength_2>
0.0161

>  <oscillator_strength_3>
0.005

>  <oscillator_strength_4>
0.0012

>  <open_babel_can_smiles>
CCCCOC(=O)CN=C=S

>  <mulliken_charges>
22
1   -0.448491
2   -0.262513
3   -0.277869
4   -0.050993
5   -0.23315
6   0.251603
7   0.616788
8   -0.359188
9   -0.452347
10   -0.463556
11   -0.107743
12   0.151907
13   0.14663
14   0.144991
15   0.145579
16   0.143755
17   0.143308
18   0.162992
19   0.174383
20   0.160318
21   0.206813
22   0.206783

>  <lowdin_charges>
22
1   -0.449791
2   -0.273411
3   -0.289556
4   -0.131499
5   -0.1988
6   -0.026589
7   0.18761
8   -0.114246
9   -0.238271
10   -0.188242
11   -0.019868
12   0.155772
13   0.149285
14   0.146781
15   0.151081
16   0.14581
17   0.147009
18   0.159639
19   0.160996
20   0.157333
21   0.184899
22   0.18406

$$$$

