PCCDB-ID:  23556
public computational chemistry database (PCCDB) project, http://pccdb.org

 16 17  0  0  0  0  0  0  0  0999 V2000
    1.9628    1.0506    0.0046 C   0  0  0  0  0  0  0  0  0  0  0  0
    2.1717   -0.3420    0.0034 C   0  0  0  0  0  0  0  0  0  0  0  0
    0.6701    1.5634    0.0010 C   0  0  0  0  0  0  0  0  0  0  0  0
    1.1138   -1.2506   -0.0017 C   0  0  0  0  0  0  0  0  0  0  0  0
   -2.4346   -0.5603   -0.0123 C   0  0  0  0  0  0  0  0  0  0  0  0
   -0.4002    0.6633   -0.0030 C   0  0  0  0  0  0  0  0  0  0  0  0
   -1.8526    0.8673   -0.0083 C   0  0  0  0  0  0  0  0  0  0  0  0
   -0.1752   -0.7180   -0.0042 C   0  0  0  0  0  0  0  0  0  0  0  0
   -2.5023    1.8958   -0.0099 O   0  0  0  0  0  0  0  0  0  0  0  0
   -1.3130   -1.4668   -0.0081 O   0  0  0  0  0  0  0  0  0  0  0  0
    2.8175    1.7201    0.0078 H   0  0  0  0  0  0  0  0  0  0  0  0
    3.1896   -0.7229    0.0072 H   0  0  0  0  0  0  0  0  0  0  0  0
    0.4772    2.6323    0.0013 H   0  0  0  0  0  0  0  0  0  0  0  0
    1.2756   -2.3232   -0.0049 H   0  0  0  0  0  0  0  0  0  0  0  0
   -3.0384   -0.7440   -0.9070 H   0  0  0  0  0  0  0  0  0  0  0  0
   -3.0469   -0.7462    0.8761 H   0  0  0  0  0  0  0  0  0  0  0  0
  1 11  1  0  0  0  0
  2  1  1  0  0  0  0
  2 12  1  0  0  0  0
  3 13  1  0  0  0  0
  3  1  2  0  0  0  0
  4  2  2  0  0  0  0
  5  7  1  0  0  0  0
  5 10  1  0  0  0  0
  5 16  1  0  0  0  0
  6  3  1  0  0  0  0
  7  6  1  0  0  0  0
  8  6  2  0  0  0  0
  8  4  1  0  0  0  0
  9  7  2  0  0  0  0
 10  8  1  0  0  0  0
 14  4  1  0  0  0  0
 15  5  1  0  0  0  0
M  END
>  <HBA>
2

>  <HBD>
0

>  <TPSA>
26.3

>  <cid>
23556

>  <dipole>
2.46

>  <excitation_energy_1>
3.749

>  <excitation_energy_2>
4.094

>  <excitation_energy_3>
5.164

>  <excitation_energy_4>
5.795

>  <homo_energy>
-6.433

>  <homo_lumo_gap>
4.738

>  <logP>
1.262

>  <lumo_energy>
-1.695

>  <melting_point>
67.56

>  <molecular_refractivity>
36.21

>  <oscillator_strength_1>
0.0001

>  <oscillator_strength_2>
0.0845

>  <oscillator_strength_3>
0.1352

>  <oscillator_strength_4>
0.0003

>  <open_babel_can_smiles>
O=C1COc2c1cccc2

>  <mulliken_charges>
16
1   -0.141958
2   -0.12767
3   -0.172111
4   -0.175108
5   -0.121176
6   0.070384
7   0.34674
8   0.327917
9   -0.46449
10   -0.520117
11   0.139176
12   0.143932
13   0.160588
14   0.150367
15   0.191768
16   0.19176

>  <lowdin_charges>
16
1   -0.175181
2   -0.121792
3   -0.114372
4   -0.184716
5   -0.155545
6   -0.092431
7   0.135835
8   0.115589
9   -0.241033
10   -0.192321
11   0.164052
12   0.164325
13   0.172755
14   0.170709
15   0.177041
16   0.177085

$$$$

