PCCDB-ID:  56080
public computational chemistry database (PCCDB) project, http://pccdb.org

 18 18  0  0  0  0  0  0  0  0999 V2000
    1.0979   -0.2115    0.5787 C   0  0  0  0  0  0  0  0  0  0  0  0
    4.4446    1.6471   -1.8455 C   0  0  0  0  0  0  0  0  0  0  0  0
    4.4512    0.2319   -2.4352 C   0  0  0  0  0  0  0  0  0  0  0  0
    3.0989    2.0531   -1.2478 C   0  0  0  0  0  0  0  0  0  0  0  0
    3.9061   -0.8289   -1.4810 C   0  0  0  0  0  0  0  0  0  0  0  0
    2.1035    0.1289   -0.2306 C   0  0  0  0  0  0  0  0  0  0  0  0
    2.7960    1.2923   -0.0617 O   0  0  0  0  0  0  0  0  0  0  0  0
    2.4898   -0.6697   -1.2673 O   0  0  0  0  0  0  0  0  0  0  0  0
    0.7282    0.4925    1.3126 H   0  0  0  0  0  0  0  0  0  0  0  0
    0.6478   -1.1928    0.5043 H   0  0  0  0  0  0  0  0  0  0  0  0
    4.7175    2.3746   -2.6217 H   0  0  0  0  0  0  0  0  0  0  0  0
    5.2012    1.7287   -1.0540 H   0  0  0  0  0  0  0  0  0  0  0  0
    5.4744   -0.0463   -2.7214 H   0  0  0  0  0  0  0  0  0  0  0  0
    3.8463    0.2021   -3.3511 H   0  0  0  0  0  0  0  0  0  0  0  0
    2.2851    1.9504   -1.9765 H   0  0  0  0  0  0  0  0  0  0  0  0
    3.1301    3.0937   -0.9120 H   0  0  0  0  0  0  0  0  0  0  0  0
    4.4338   -0.8164   -0.5194 H   0  0  0  0  0  0  0  0  0  0  0  0
    4.0122   -1.8256   -1.9189 H   0  0  0  0  0  0  0  0  0  0  0  0
  1  9  1  0  0  0  0
  2  4  1  0  0  0  0
  2 12  1  0  0  0  0
  3  2  1  0  0  0  0
  3  5  1  0  0  0  0
  4 16  1  0  0  0  0
  4  7  1  0  0  0  0
  5  8  1  0  0  0  0
  5 17  1  0  0  0  0
  6  7  1  0  0  0  0
  6  1  2  0  0  0  0
  8  6  1  0  0  0  0
 10  1  1  0  0  0  0
 11  2  1  0  0  0  0
 13  3  1  0  0  0  0
 14  3  1  0  0  0  0
 15  4  1  0  0  0  0
 18  5  1  0  0  0  0
M  END
>  <HBA>
2

>  <HBD>
0

>  <TPSA>
18.46

>  <cid>
56080

>  <dipole>
2.53

>  <excitation_energy_1>
5.484

>  <excitation_energy_2>
5.875

>  <excitation_energy_3>
5.907

>  <excitation_energy_4>
6.009

>  <homo_energy>
-5.704

>  <homo_lumo_gap>
7.08

>  <logP>
1.285

>  <lumo_energy>
1.377

>  <melting_point>
-39.06

>  <molecular_refractivity>
30.54

>  <oscillator_strength_1>
0.027

>  <oscillator_strength_2>
0.0301

>  <oscillator_strength_3>
0.0518

>  <oscillator_strength_4>
0.0642

>  <open_babel_can_smiles>
C=C1OCCCCO1

>  <mulliken_charges>
18
1   -0.440205
2   -0.271745
3   -0.271666
4   -0.050452
5   -0.050514
6   0.587389
7   -0.487122
8   -0.486714
9   0.141252
10   0.141247
11   0.139507
12   0.149807
13   0.139475
14   0.149871
15   0.150809
16   0.15408
17   0.150997
18   0.153982

>  <lowdin_charges>
18
1   -0.431612
2   -0.291837
3   -0.289585
4   -0.12909
5   -0.12771
6   0.167018
7   -0.221006
8   -0.221476
9   0.170013
10   0.168526
11   0.153049
12   0.150929
13   0.15134
14   0.150459
15   0.147236
16   0.153187
17   0.146583
18   0.153975

$$$$

