PCCDB-ID:  11783
public computational chemistry database (PCCDB) project, http://pccdb.org

 19 19  0  0  0  0  0  0  0  0999 V2000
    0.9418    0.1651    0.2734 C   0  0  0  0  0  0  0  0  0  0  0  0
    5.2275    0.1382   -0.4434 C   0  0  0  0  0  0  0  0  0  0  0  0
    4.5440    1.3254   -0.2017 C   0  0  0  0  0  0  0  0  0  0  0  0
    4.5486   -1.0738   -0.4129 C   0  0  0  0  0  0  0  0  0  0  0  0
    2.4382    0.1079    0.0809 C   0  0  0  0  0  0  0  0  0  0  0  0
    3.1641    1.3255    0.0557 C   0  0  0  0  0  0  0  0  0  0  0  0
    3.1807   -1.0637   -0.1332 C   0  0  0  0  0  0  0  0  0  0  0  0
    2.4891    2.5378    0.2241 N   0  0  0  0  0  0  0  0  0  0  0  0
    2.5408   -2.3896   -0.0537 N   0  0  0  0  0  0  0  0  0  0  0  0
    3.0099   -3.2902   -0.7497 O   0  0  0  0  0  0  0  0  0  0  0  0
    1.5954   -2.5359    0.7239 O   0  0  0  0  0  0  0  0  0  0  0  0
    0.6753    0.2854    1.3329 H   0  0  0  0  0  0  0  0  0  0  0  0
    0.4434   -0.7401   -0.0677 H   0  0  0  0  0  0  0  0  0  0  0  0
    0.5340    1.0210   -0.2763 H   0  0  0  0  0  0  0  0  0  0  0  0
    6.2948    0.1583   -0.6419 H   0  0  0  0  0  0  0  0  0  0  0  0
    5.0786    2.2726   -0.2147 H   0  0  0  0  0  0  0  0  0  0  0  0
    5.0483   -2.0179   -0.5858 H   0  0  0  0  0  0  0  0  0  0  0  0
    3.0930    3.3299    0.4061 H   0  0  0  0  0  0  0  0  0  0  0  0
    1.7066    2.5182    0.8655 H   0  0  0  0  0  0  0  0  0  0  0  0
  1 12  1  0  0  0  0
  2  4  2  0  0  0  0
  2  3  1  0  0  0  0
  3  6  2  0  0  0  0
  4  7  1  0  0  0  0
  5  1  1  0  0  0  0
  6  5  1  0  0  0  0
  6  8  1  0  0  0  0
  7  9  1  0  0  0  0
  7  5  2  0  0  0  0
  8 18  1  0  0  0  0
  8 19  1  0  0  0  0
  9 11  2  0  0  0  0
 10  9  2  0  0  0  0
 13  1  1  0  0  0  0
 14  1  1  0  0  0  0
 15  2  1  0  0  0  0
 16  3  1  0  0  0  0
 17  4  1  0  0  0  0
M  END
>  <HBA>
1

>  <HBD>
1

>  <TPSA>
71.84

>  <cid>
11783

>  <dipole>
5.5

>  <excitation_energy_1>
3.187

>  <excitation_energy_2>
3.704

>  <excitation_energy_3>
4.315

>  <excitation_energy_4>
4.517

>  <homo_energy>
-6.052

>  <homo_lumo_gap>
3.978

>  <logP>
2.59

>  <lumo_energy>
-2.074

>  <melting_point>
97.11

>  <molecular_refractivity>
44.63

>  <oscillator_strength_1>
0.0255

>  <oscillator_strength_2>
0.0177

>  <oscillator_strength_3>
0.0014

>  <oscillator_strength_4>
0.0797

>  <open_babel_can_smiles>
O=N(=O)c1cccc(c1C)N

>  <mulliken_charges>
19
1   -0.542767
2   -0.150637
3   -0.149323
4   -0.14512
5   0.154449
6   0.237754
7   0.187302
8   -0.791307
9   0.350382
10   -0.382672
11   -0.39137
12   0.167768
13   0.189739
14   0.166058
15   0.143013
16   0.128909
17   0.170474
18   0.325737
19   0.33161

>  <lowdin_charges>
19
1   -0.44997
2   -0.142764
3   -0.180621
4   -0.168031
5   -0.018003
6   0.054794
7   0.006667
8   -0.484468
9   0.307664
10   -0.247076
11   -0.248191
12   0.163325
13   0.17892
14   0.161882
15   0.16394
16   0.158441
17   0.182545
18   0.27892
19   0.282026

$$$$

