PCCDB-ID:  57835
public computational chemistry database (PCCDB) project, http://pccdb.org

 29 31  0  0  1  0  0  0  0  0999 V2000
    3.4603    1.5027   -0.3277 C   0  0  0  0  0  0  0  0  0  0  0  0
   -1.8675   -3.7083    0.6332 C   0  0  0  0  0  0  0  0  0  0  0  0
   -1.9125   -2.4295    1.1912 C   0  0  0  0  0  0  0  0  0  0  0  0
   -0.6404   -4.2551    0.2668 C   0  0  0  0  0  0  0  0  0  0  0  0
   -0.7327   -1.7140    1.3806 C   0  0  0  0  0  0  0  0  0  0  0  0
    1.8777   -4.1667    0.0450 C   0  0  0  0  0  0  0  0  0  0  0  0
    2.8835   -3.0981   -0.3875 C   0  0  0  0  0  0  0  0  0  0  0  0
    0.5551   -3.5482    0.4509 C   0  0  0  0  0  0  0  0  0  0  0  0
    0.5061   -2.2593    1.0124 C   0  0  0  0  0  0  0  0  0  0  0  0
    3.1007   -2.0878    0.7543 C   0  0  2  0  0  0  0  0  0  0  0  0
    1.7815   -1.4716    1.2784 C   0  0  1  0  0  0  0  0  0  0  0  0
    3.9099   -0.9005    0.2456 C   0  0  0  0  0  0  0  0  0  0  0  0
    1.7920   -0.0389    0.7118 C   0  0  0  0  0  0  0  0  0  0  0  0
    3.0632    0.2068    0.2010 N   0  0  0  0  0  0  0  0  0  0  0  0
    5.0697   -0.9006   -0.1135 O   0  0  0  0  0  0  0  0  0  0  0  0
    0.9017    0.7859    0.7323 O   0  0  0  0  0  0  0  0  0  0  0  0
    4.4310    1.3794   -0.8093 H   0  0  0  0  0  0  0  0  0  0  0  0
    3.5383    2.2379    0.4792 H   0  0  0  0  0  0  0  0  0  0  0  0
    2.7138    1.8499   -1.0459 H   0  0  0  0  0  0  0  0  0  0  0  0
   -2.7825   -4.2743    0.4798 H   0  0  0  0  0  0  0  0  0  0  0  0
   -2.8632   -1.9884    1.4781 H   0  0  0  0  0  0  0  0  0  0  0  0
   -0.6013   -5.2486   -0.1751 H   0  0  0  0  0  0  0  0  0  0  0  0
   -0.7655   -0.7145    1.8004 H   0  0  0  0  0  0  0  0  0  0  0  0
    2.3001   -4.7421    0.8834 H   0  0  0  0  0  0  0  0  0  0  0  0
    1.7172   -4.8855   -0.7671 H   0  0  0  0  0  0  0  0  0  0  0  0
    2.4975   -2.5759   -1.2732 H   0  0  0  0  0  0  0  0  0  0  0  0
    3.8464   -3.5386   -0.6648 H   0  0  0  0  0  0  0  0  0  0  0  0
    3.6651   -2.5784    1.5545 H   0  0  0  0  0  0  0  0  0  0  0  0
    1.8690   -1.3307    2.3663 H   0  0  0  0  0  0  0  0  0  0  0  0
  1 14  1  0  0  0  0
  1 18  1  0  0  0  0
  2  3  2  0  0  0  0
  3  5  1  0  0  0  0
  3 21  1  0  0  0  0
  4  8  2  0  0  0  0
  4  2  1  0  0  0  0
  5 23  1  0  0  0  0
  6  8  1  0  0  0  0
  6 24  1  0  0  0  0
  7  6  1  0  0  0  0
  7 10  1  0  0  0  0
  8  9  1  0  0  0  0
  9 11  1  0  0  0  0
  9  5  2  0  0  0  0
 10 11  1  0  0  0  0
 10 28  1  1  0  0  0
 11 29  1  1  0  0  0
 12 10  1  0  0  0  0
 13 16  2  0  0  0  0
 13 11  1  0  0  0  0
 14 12  1  0  0  0  0
 14 13  1  0  0  0  0
 15 12  2  0  0  0  0
 17  1  1  0  0  0  0
 19  1  1  0  0  0  0
 20  2  1  0  0  0  0
 22  4  1  0  0  0  0
 25  6  1  0  0  0  0
 26  7  1  0  0  0  0
 27  7  1  0  0  0  0
M  END
>  <HBA>
3

>  <HBD>
0

>  <TPSA>
37.38

>  <cid>
57835

>  <dipole>
1.48

>  <excitation_energy_1>
4.789

>  <excitation_energy_2>
5.087

>  <excitation_energy_3>
5.219

>  <excitation_energy_4>
5.337

>  <homo_energy>
-6.512

>  <homo_lumo_gap>
5.902

>  <logP>
1.269

>  <lumo_energy>
-0.61

>  <melting_point>
99.24

>  <molecular_refractivity>
63.39

>  <oscillator_strength_1>
0.0075

>  <oscillator_strength_2>
0.0046

>  <oscillator_strength_3>
0.0005

>  <oscillator_strength_4>
0.0028

>  <open_babel_can_smiles>
O=C1N(C)C(=O)[C@H]2[C@@H]1c1ccccc1CC2

>  <mulliken_charges>
29
1   -0.327095
2   -0.12312
3   -0.1368
4   -0.195664
5   -0.171298
6   -0.350887
7   -0.269171
8   0.127318
9   0.111593
10   -0.215152
11   -0.307234
12   0.605756
13   0.611818
14   -0.467052
15   -0.490002
16   -0.483591
17   0.19544
18   0.179535
19   0.186002
20   0.129256
21   0.131526
22   0.122786
23   0.155699
24   0.154175
25   0.152595
26   0.149819
27   0.164591
28   0.167099
29   0.192061

>  <lowdin_charges>
29
1   -0.351877
2   -0.155334
3   -0.15813
4   -0.165083
5   -0.153551
6   -0.275707
7   -0.267012
8   -0.014685
9   -0.019682
10   -0.153965
11   -0.155172
12   0.162185
13   0.170305
14   -0.073985
15   -0.261729
16   -0.258608
17   0.180476
18   0.167393
19   0.173576
20   0.158366
21   0.15911
22   0.153766
23   0.170562
24   0.154188
25   0.157247
26   0.150066
27   0.161926
28   0.167159
29   0.178196

$$$$

