PCCDB-ID:  68481
public computational chemistry database (PCCDB) project, http://pccdb.org

 21 21  0  0  0  0  0  0  0  0999 V2000
    3.5923    1.3944   -0.4161 C   0  0  0  0  0  0  0  0  0  0  0  0
    6.5152   -0.8074   -2.1036 C   0  0  0  0  0  0  0  0  0  0  0  0
    3.0246   -3.6116    0.2200 C   0  0  0  0  0  0  0  0  0  0  0  0
    4.1982   -3.9101   -0.4722 C   0  0  0  0  0  0  0  0  0  0  0  0
    2.6434   -2.2825    0.3578 C   0  0  0  0  0  0  0  0  0  0  0  0
    4.9758   -2.8906   -1.0187 C   0  0  0  0  0  0  0  0  0  0  0  0
    2.8558    0.1588    0.0636 C   0  0  0  0  0  0  0  0  0  0  0  0
    3.4002   -1.2268   -0.1752 C   0  0  0  0  0  0  0  0  0  0  0  0
    4.5879   -1.5502   -0.8778 C   0  0  0  0  0  0  0  0  0  0  0  0
    1.7957    0.2874    0.6622 O   0  0  0  0  0  0  0  0  0  0  0  0
    5.3147   -0.5212   -1.4001 O   0  0  0  0  0  0  0  0  0  0  0  0
    3.6908    1.3929   -1.5065 H   0  0  0  0  0  0  0  0  0  0  0  0
    4.6095    1.4310   -0.0137 H   0  0  0  0  0  0  0  0  0  0  0  0
    3.0260    2.2699   -0.0919 H   0  0  0  0  0  0  0  0  0  0  0  0
    6.3249   -1.4246   -2.9907 H   0  0  0  0  0  0  0  0  0  0  0  0
    7.2485   -1.3106   -1.4609 H   0  0  0  0  0  0  0  0  0  0  0  0
    6.9116    0.1604   -2.4152 H   0  0  0  0  0  0  0  0  0  0  0  0
    2.4169   -4.4043    0.6460 H   0  0  0  0  0  0  0  0  0  0  0  0
    4.5182   -4.9418   -0.5931 H   0  0  0  0  0  0  0  0  0  0  0  0
    1.7382   -2.0113    0.8906 H   0  0  0  0  0  0  0  0  0  0  0  0
    5.8826   -3.1456   -1.5534 H   0  0  0  0  0  0  0  0  0  0  0  0
  1 14  1  0  0  0  0
  1 13  1  0  0  0  0
  1  7  1  0  0  0  0
  2 16  1  0  0  0  0
  2 11  1  0  0  0  0
  3  5  1  0  0  0  0
  3 18  1  0  0  0  0
  4  3  2  0  0  0  0
  5 20  1  0  0  0  0
  6  9  2  0  0  0  0
  6  4  1  0  0  0  0
  7 10  2  0  0  0  0
  8  7  1  0  0  0  0
  8  5  2  0  0  0  0
  9  8  1  0  0  0  0
 11  9  1  0  0  0  0
 12  1  1  0  0  0  0
 15  2  1  0  0  0  0
 17  2  1  0  0  0  0
 19  4  1  0  0  0  0
 21  6  1  0  0  0  0
M  END
>  <HBA>
2

>  <HBD>
0

>  <TPSA>
26.3

>  <cid>
68481

>  <dipole>
4.65

>  <excitation_energy_1>
3.779

>  <excitation_energy_2>
4.305

>  <excitation_energy_3>
5.138

>  <excitation_energy_4>
5.681

>  <homo_energy>
-6.261

>  <homo_lumo_gap>
5.004

>  <logP>
1.898

>  <lumo_energy>
-1.257

>  <melting_point>
44.32

>  <molecular_refractivity>
43.13

>  <oscillator_strength_1>
0.0001

>  <oscillator_strength_2>
0.0962

>  <oscillator_strength_3>
0.1687

>  <oscillator_strength_4>
0.0031

>  <open_babel_can_smiles>
COc1ccccc1C(=O)C

>  <mulliken_charges>
21
1   -0.512337
2   -0.21893
3   -0.129211
4   -0.128368
5   -0.172632
6   -0.196081
7   0.410334
8   0.030206
9   0.317515
10   -0.459235
11   -0.512078
12   0.170478
13   0.168761
14   0.165875
15   0.158339
16   0.158288
17   0.174379
18   0.133784
19   0.136367
20   0.168889
21   0.135656

>  <lowdin_charges>
21
1   -0.467427
2   -0.279148
3   -0.178527
4   -0.129277
5   -0.117861
6   -0.215339
7   0.165671
8   -0.081001
9   0.108253
10   -0.253149
11   -0.189039
12   0.16975
13   0.169492
14   0.166237
15   0.149248
16   0.150455
17   0.165368
18   0.162129
19   0.159801
20   0.179962
21   0.164403

$$$$

