PCCDB-ID:  15475
public computational chemistry database (PCCDB) project, http://pccdb.org

 23 22  0  0  0  0  0  0  0  0999 V2000
    0.3613   -1.1791    0.2498 C   0  0  0  0  0  0  0  0  0  0  0  0
    7.2762   -4.6475    0.2908 C   0  0  0  0  0  0  0  0  0  0  0  0
    1.8012   -0.6558    0.2574 C   0  0  0  0  0  0  0  0  0  0  0  0
    2.8457   -1.7745    0.3597 C   0  0  0  0  0  0  0  0  0  0  0  0
    4.2948   -1.2462    0.3693 C   0  0  0  0  0  0  0  0  0  0  0  0
    5.3148   -2.3463    0.4011 C   0  0  0  0  0  0  0  0  0  0  0  0
    6.2137   -2.5414    1.3777 C   0  0  0  0  0  0  0  0  0  0  0  0
    7.2167   -3.6337    1.4255 C   0  0  0  0  0  0  0  0  0  0  0  0
    7.9834   -3.7112    2.3755 O   0  0  0  0  0  0  0  0  0  0  0  0
   -0.3606   -0.3579    0.1779 H   0  0  0  0  0  0  0  0  0  0  0  0
    0.1385   -1.7396    1.1658 H   0  0  0  0  0  0  0  0  0  0  0  0
    0.1876   -1.8509   -0.5997 H   0  0  0  0  0  0  0  0  0  0  0  0
    6.3340   -5.2031    0.2116 H   0  0  0  0  0  0  0  0  0  0  0  0
    8.0900   -5.3468    0.4900 H   0  0  0  0  0  0  0  0  0  0  0  0
    7.4479   -4.1552   -0.6736 H   0  0  0  0  0  0  0  0  0  0  0  0
    1.9333    0.0413    1.0968 H   0  0  0  0  0  0  0  0  0  0  0  0
    1.9854   -0.0720   -0.6556 H   0  0  0  0  0  0  0  0  0  0  0  0
    2.7174   -2.4711   -0.4817 H   0  0  0  0  0  0  0  0  0  0  0  0
    2.6715   -2.3603    1.2725 H   0  0  0  0  0  0  0  0  0  0  0  0
    4.4415   -0.5756    1.2252 H   0  0  0  0  0  0  0  0  0  0  0  0
    4.4507   -0.6408   -0.5373 H   0  0  0  0  0  0  0  0  0  0  0  0
    5.2896   -3.0352   -0.4445 H   0  0  0  0  0  0  0  0  0  0  0  0
    6.2569   -1.8700    2.2340 H   0  0  0  0  0  0  0  0  0  0  0  0
  1  3  1  0  0  0  0
  1 11  1  0  0  0  0
  2 14  1  0  0  0  0
  2  8  1  0  0  0  0
  3  4  1  0  0  0  0
  3 16  1  0  0  0  0
  4  5  1  0  0  0  0
  4 19  1  0  0  0  0
  5  6  1  0  0  0  0
  5 20  1  0  0  0  0
  6  7  2  0  0  0  0
  7  8  1  0  0  0  0
  7 23  1  0  0  0  0
  8  9  2  0  0  0  0
 10  1  1  0  0  0  0
 12  1  1  0  0  0  0
 13  2  1  0  0  0  0
 15  2  1  0  0  0  0
 17  3  1  0  0  0  0
 18  4  1  0  0  0  0
 21  5  1  0  0  0  0
 22  6  1  0  0  0  0
M  END
>  <HBA>
1

>  <HBD>
0

>  <TPSA>
17.07

>  <cid>
15475

>  <dipole>
3.86

>  <excitation_energy_1>
3.697

>  <excitation_energy_2>
5.733

>  <excitation_energy_3>
6.217

>  <excitation_energy_4>
6.689

>  <homo_energy>
-6.523

>  <homo_lumo_gap>
5.233

>  <logP>
2.322

>  <lumo_energy>
-1.29

>  <melting_point>
3.29

>  <molecular_refractivity>
40.3

>  <oscillator_strength_1>
0.0004

>  <oscillator_strength_2>
0.5303

>  <oscillator_strength_3>
0.0251

>  <oscillator_strength_4>
0.0027

>  <open_babel_can_smiles>
CCCC/C=C/C(=O)C

>  <mulliken_charges>
23
1   -0.442871
2   -0.541158
3   -0.24836
4   -0.2517
5   -0.309362
6   -0.077531
7   -0.179714
8   0.446505
9   -0.460912
10   0.1461
11   0.145194
12   0.143115
13   0.166699
14   0.179651
15   0.165097
16   0.1358
17   0.133076
18   0.131871
19   0.142718
20   0.14946
21   0.149569
22   0.136209
23   0.140544

>  <lowdin_charges>
23
1   -0.44545
2   -0.478392
3   -0.272774
4   -0.272987
5   -0.272757
6   -0.11829
7   -0.204818
8   0.156793
9   -0.244326
10   0.15237
11   0.148648
12   0.147785
13   0.167742
14   0.174687
15   0.166383
16   0.142148
17   0.140391
18   0.140366
19   0.145445
20   0.151798
21   0.154293
22   0.155447
23   0.1655

$$$$

