PCCDB-ID:  17593
public computational chemistry database (PCCDB) project, http://pccdb.org

 19 19  0  0  0  0  0  0  0  0999 V2000
    0.9104   -0.1109   -0.1760 C   0  0  0  0  0  0  0  0  0  0  0  0
    4.5280    1.0274    0.2842 C   0  0  0  0  0  0  0  0  0  0  0  0
    3.1477    1.0507    0.0930 C   0  0  0  0  0  0  0  0  0  0  0  0
    5.1934   -0.1980    0.3272 C   0  0  0  0  0  0  0  0  0  0  0  0
    2.4106   -0.1326   -0.0198 C   0  0  0  0  0  0  0  0  0  0  0  0
    4.4890   -1.3962    0.1983 C   0  0  0  0  0  0  0  0  0  0  0  0
    3.0835   -1.3688    0.0509 C   0  0  0  0  0  0  0  0  0  0  0  0
    5.1302   -2.6722    0.2497 N   0  0  0  0  0  0  0  0  0  0  0  0
    2.3636   -2.5692    0.0422 N   0  0  0  0  0  0  0  0  0  0  0  0
    0.5212    0.9091   -0.1055 H   0  0  0  0  0  0  0  0  0  0  0  0
    0.4241   -0.7196    0.5975 H   0  0  0  0  0  0  0  0  0  0  0  0
    0.5862   -0.5154   -1.1472 H   0  0  0  0  0  0  0  0  0  0  0  0
    5.0853    1.9544    0.3846 H   0  0  0  0  0  0  0  0  0  0  0  0
    2.6222    2.0018    0.0453 H   0  0  0  0  0  0  0  0  0  0  0  0
    6.2751   -0.2312    0.4445 H   0  0  0  0  0  0  0  0  0  0  0  0
    6.1092   -2.5804    0.5062 H   0  0  0  0  0  0  0  0  0  0  0  0
    5.0949   -3.1449   -0.6534 H   0  0  0  0  0  0  0  0  0  0  0  0
    1.6032   -2.6393   -0.6206 H   0  0  0  0  0  0  0  0  0  0  0  0
    2.9371   -3.4004    0.0901 H   0  0  0  0  0  0  0  0  0  0  0  0
  1 10  1  0  0  0  0
  1  5  1  0  0  0  0
  1 11  1  0  0  0  0
  2  4  1  0  0  0  0
  2 13  1  0  0  0  0
  3  2  2  0  0  0  0
  4 15  1  0  0  0  0
  5  7  2  0  0  0  0
  5  3  1  0  0  0  0
  6  8  1  0  0  0  0
  6  4  2  0  0  0  0
  7  6  1  0  0  0  0
  8 16  1  0  0  0  0
  9  7  1  0  0  0  0
  9 19  1  0  0  0  0
 12  1  1  0  0  0  0
 14  3  1  0  0  0  0
 17  8  1  0  0  0  0
 18  9  1  0  0  0  0
M  END
>  <HBA>
2

>  <HBD>
2

>  <TPSA>
52.04

>  <cid>
17593

>  <dipole>
2.39

>  <excitation_energy_1>
4.287

>  <excitation_energy_2>
4.676

>  <excitation_energy_3>
4.873

>  <excitation_energy_4>
5.131

>  <homo_energy>
-4.977

>  <homo_lumo_gap>
5.546

>  <logP>
2.322

>  <lumo_energy>
0.569

>  <melting_point>
107.47

>  <molecular_refractivity>
40.22

>  <oscillator_strength_1>
0.0125

>  <oscillator_strength_2>
0.0509

>  <oscillator_strength_3>
0.0018

>  <oscillator_strength_4>
0.0031

>  <open_babel_can_smiles>
Nc1c(C)cccc1N

>  <mulliken_charges>
19
1   -0.543987
2   -0.14011
3   -0.200748
4   -0.184961
5   0.155328
6   0.241361
7   0.217679
8   -0.807431
9   -0.808939
10   0.154536
11   0.169648
12   0.142106
13   0.116256
14   0.111226
15   0.107628
16   0.315173
17   0.308149
18   0.31786
19   0.329226

>  <lowdin_charges>
19
1   -0.443736
2   -0.180699
3   -0.175728
4   -0.188942
5   -0.030997
6   0.006172
7   0.028703
8   -0.517217
9   -0.499434
10   0.156989
11   0.163104
12   0.146778
13   0.153506
14   0.150737
15   0.146234
16   0.26688
17   0.263912
18   0.27536
19   0.278377

$$$$

