PCCDB-ID:  125
public computational chemistry database (PCCDB) project, http://pccdb.org

 17 17  0  0  0  0  0  0  0  0999 V2000
   -0.7191    1.1245    0.1390 C   0  0  0  0  0  0  0  0  0  0  0  0
    1.3733   -0.0226   -0.1500 C   0  0  0  0  0  0  0  0  0  0  0  0
   -1.3950   -0.0936    0.1085 C   0  0  0  0  0  0  0  0  0  0  0  0
    0.7117   -1.2473   -0.1904 C   0  0  0  0  0  0  0  0  0  0  0  0
    1.3935    2.5136    0.0211 C   0  0  0  0  0  0  0  0  0  0  0  0
    0.6738    1.1804    0.0084 C   0  0  0  0  0  0  0  0  0  0  0  0
   -0.6800   -1.2849   -0.0599 C   0  0  0  0  0  0  0  0  0  0  0  0
    0.8553    3.4397    0.9607 O   0  0  0  0  0  0  0  0  0  0  0  0
   -1.2852   -2.5114   -0.0984 O   0  0  0  0  0  0  0  0  0  0  0  0
   -1.2739    2.0483    0.2758 H   0  0  0  0  0  0  0  0  0  0  0  0
    2.4573   -0.0035   -0.2421 H   0  0  0  0  0  0  0  0  0  0  0  0
   -2.4788   -0.1206    0.2125 H   0  0  0  0  0  0  0  0  0  0  0  0
    1.2546   -2.1795   -0.3108 H   0  0  0  0  0  0  0  0  0  0  0  0
    1.2975    3.0169   -0.9486 H   0  0  0  0  0  0  0  0  0  0  0  0
    2.4704    2.3508    0.1899 H   0  0  0  0  0  0  0  0  0  0  0  0
    0.8598    3.0005    1.8262 H   0  0  0  0  0  0  0  0  0  0  0  0
   -2.2419   -2.3931    0.0074 H   0  0  0  0  0  0  0  0  0  0  0  0
  1 10  1  0  0  0  0
  2  6  1  0  0  0  0
  3  1  1  0  0  0  0
  3 12  1  0  0  0  0
  4  2  2  0  0  0  0
  4  7  1  0  0  0  0
  5 15  1  0  0  0  0
  5  8  1  0  0  0  0
  6  5  1  0  0  0  0
  6  1  2  0  0  0  0
  7  3  2  0  0  0  0
  8 16  1  0  0  0  0
  9  7  1  0  0  0  0
  9 17  1  0  0  0  0
 11  2  1  0  0  0  0
 13  4  1  0  0  0  0
 14  5  1  0  0  0  0
M  END
>  <HBA>
2

>  <HBD>
2

>  <TPSA>
40.46

>  <cid>
125

>  <dipole>
1.4

>  <excitation_energy_1>
4.931

>  <excitation_energy_2>
5.209

>  <excitation_energy_3>
5.531

>  <excitation_energy_4>
5.769

>  <homo_energy>
-5.94

>  <homo_lumo_gap>
5.84

>  <logP>
0.884

>  <lumo_energy>
-0.101

>  <melting_point>
66.74

>  <molecular_refractivity>
34.59

>  <oscillator_strength_1>
0.0284

>  <oscillator_strength_2>
0.0008

>  <oscillator_strength_3>
0.1236

>  <oscillator_strength_4>
0.0067

>  <open_babel_can_smiles>
OCc1ccc(cc1)O

>  <mulliken_charges>
17
1   -0.17883
2   -0.188639
3   -0.193807
4   -0.158083
5   -0.092858
6   0.101098
7   0.351021
8   -0.610304
9   -0.642353
10   0.145018
11   0.126475
12   0.119535
13   0.140261
14   0.160602
15   0.126722
16   0.386715
17   0.407425

>  <lowdin_charges>
17
1   -0.150559
2   -0.151663
3   -0.209457
4   -0.185804
5   -0.129524
6   -0.054952
7   0.101474
8   -0.463367
9   -0.376431
10   0.166355
11   0.154402
12   0.151231
13   0.167831
14   0.154544
15   0.129201
16   0.340949
17   0.355771

$$$$

