PCCDB-ID:  34809
public computational chemistry database (PCCDB) project, http://pccdb.org

 26 28  0  0  0  0  0  0  0  0999 V2000
   -3.6593   -0.7493    0.0011 C   0  0  0  0  0  0  0  0  0  0  0  0
   -3.6921    0.6733    0.0009 C   0  0  0  0  0  0  0  0  0  0  0  0
    3.6522   -0.6979   -0.0003 C   0  0  0  0  0  0  0  0  0  0  0  0
   -2.4589   -1.4073    0.0003 C   0  0  0  0  0  0  0  0  0  0  0  0
    2.4620   -1.3712    0.0001 C   0  0  0  0  0  0  0  0  0  0  0  0
   -2.5240    1.3917   -0.0001 C   0  0  0  0  0  0  0  0  0  0  0  0
    3.6746    0.7185   -0.0006 C   0  0  0  0  0  0  0  0  0  0  0  0
    0.0097   -1.3589   -0.0005 C   0  0  0  0  0  0  0  0  0  0  0  0
   -1.2184   -0.6954   -0.0005 C   0  0  0  0  0  0  0  0  0  0  0  0
    1.2222   -0.6611    0.0001 C   0  0  0  0  0  0  0  0  0  0  0  0
   -1.2484    0.7459   -0.0004 C   0  0  0  0  0  0  0  0  0  0  0  0
    2.5060    1.4496   -0.0003 C   0  0  0  0  0  0  0  0  0  0  0  0
    1.2229    0.7884   -0.0002 C   0  0  0  0  0  0  0  0  0  0  0  0
   -0.0223    1.4599   -0.0001 C   0  0  0  0  0  0  0  0  0  0  0  0
    2.5350    2.8126   -0.0007 O   0  0  0  0  0  0  0  0  0  0  0  0
   -0.0118    2.8196   -0.0006 O   0  0  0  0  0  0  0  0  0  0  0  0
   -4.5913   -1.3077    0.0010 H   0  0  0  0  0  0  0  0  0  0  0  0
   -4.6472    1.1907    0.0001 H   0  0  0  0  0  0  0  0  0  0  0  0
    4.5935   -1.2408   -0.0002 H   0  0  0  0  0  0  0  0  0  0  0  0
   -2.4242   -2.4941    0.0008 H   0  0  0  0  0  0  0  0  0  0  0  0
    2.4340   -2.4571    0.0002 H   0  0  0  0  0  0  0  0  0  0  0  0
   -2.6029    2.4779   -0.0007 H   0  0  0  0  0  0  0  0  0  0  0  0
    4.6283    1.2436   -0.0003 H   0  0  0  0  0  0  0  0  0  0  0  0
    0.0276   -2.4458    0.0006 H   0  0  0  0  0  0  0  0  0  0  0  0
    3.4661    3.0876   -0.0001 H   0  0  0  0  0  0  0  0  0  0  0  0
   -0.9236    3.1447   -0.0000 H   0  0  0  0  0  0  0  0  0  0  0  0
  2  1  1  0  0  0  0
  3 19  1  0  0  0  0
  3  5  2  0  0  0  0
  4 20  1  0  0  0  0
  4  1  2  0  0  0  0
  5 21  1  0  0  0  0
  6  2  2  0  0  0  0
  7 12  2  0  0  0  0
  7  3  1  0  0  0  0
  7 23  1  0  0  0  0
  8  9  2  0  0  0  0
  8 10  1  0  0  0  0
  8 24  1  0  0  0  0
  9 11  1  0  0  0  0
  9  4  1  0  0  0  0
 10  5  1  0  0  0  0
 11  6  1  0  0  0  0
 11 14  2  0  0  0  0
 12 13  1  0  0  0  0
 13 14  1  0  0  0  0
 13 10  2  0  0  0  0
 15 12  1  0  0  0  0
 15 25  1  0  0  0  0
 16 14  1  0  0  0  0
 16 26  1  0  0  0  0
 17  1  1  0  0  0  0
 18  2  1  0  0  0  0
 22  6  1  0  0  0  0
M  END
>  <HBA>
2

>  <HBD>
2

>  <TPSA>
40.46

>  <cid>
34809

>  <dipole>
0.47

>  <excitation_energy_1>
2.914

>  <excitation_energy_2>
3.685

>  <excitation_energy_3>
4.195

>  <excitation_energy_4>
4.288

>  <homo_energy>
-4.729

>  <homo_lumo_gap>
3.342

>  <logP>
3.404

>  <lumo_energy>
-1.388

>  <melting_point>
174.94

>  <molecular_refractivity>
65.5

>  <oscillator_strength_1>
0.0657

>  <oscillator_strength_2>
0.0889

>  <oscillator_strength_3>
0.0015

>  <oscillator_strength_4>
0.0116

>  <open_babel_can_smiles>
Oc1cccc2c1c(O)c1c(c2)cccc1

>  <mulliken_charges>
26
1   -0.138539
2   -0.140426
3   -0.138227
4   -0.186918
5   -0.196001
6   -0.21586
7   -0.214218
8   -0.314585
9   0.152737
10   0.135814
11   0.132229
12   0.306753
13   0.08011
14   0.158611
15   -0.618645
16   -0.618491
17   0.131124
18   0.129762
19   0.128843
20   0.131522
21   0.124137
22   0.112336
23   0.110666
24   0.123239
25   0.405592
26   0.418434

>  <lowdin_charges>
26
1   -0.158495
2   -0.163274
3   -0.145921
4   -0.149038
5   -0.180837
6   -0.163875
7   -0.237622
8   -0.188924
9   0.008209
10   0.015879
11   -0.051412
12   0.117269
13   -0.055053
14   0.113545
15   -0.355961
16   -0.350353
17   0.159728
18   0.159094
19   0.158929
20   0.157046
21   0.155016
22   0.144385
23   0.151415
24   0.154021
25   0.353749
26   0.352482

$$$$

