PCCDB-ID:  27813
public computational chemistry database (PCCDB) project, http://pccdb.org

 28 29  0  0  0  0  0  0  0  0999 V2000
    2.9636   -1.2847   -3.3691 C   0  0  0  0  0  0  0  0  0  0  0  0
    2.6717   -0.4894   -2.1049 C   0  0  0  0  0  0  0  0  0  0  0  0
    8.3928   -2.3194    2.3467 C   0  0  0  0  0  0  0  0  0  0  0  0
    7.6971   -3.0093    1.3527 C   0  0  0  0  0  0  0  0  0  0  0  0
    6.4387    1.8709    0.8663 C   0  0  0  0  0  0  0  0  0  0  0  0
    8.1804   -0.9527    2.4991 C   0  0  0  0  0  0  0  0  0  0  0  0
    7.0621    1.1743    1.8230 C   0  0  0  0  0  0  0  0  0  0  0  0
    6.7968   -2.3462    0.5190 C   0  0  0  0  0  0  0  0  0  0  0  0
    5.9700    1.1874   -0.3910 C   0  0  0  0  0  0  0  0  0  0  0  0
    7.2841   -0.2609    1.6732 C   0  0  0  0  0  0  0  0  0  0  0  0
    6.5774   -0.9726    0.6740 C   0  0  0  0  0  0  0  0  0  0  0  0
    4.5519   -0.8358   -0.6941 C   0  0  0  0  0  0  0  0  0  0  0  0
    5.6680   -0.2365   -0.1432 N   0  0  0  0  0  0  0  0  0  0  0  0
    4.1912   -1.9828   -0.4953 O   0  0  0  0  0  0  0  0  0  0  0  0
    3.8851    0.0251   -1.5105 O   0  0  0  0  0  0  0  0  0  0  0  0
    2.0245   -1.6258   -3.8199 H   0  0  0  0  0  0  0  0  0  0  0  0
    3.5709   -2.1624   -3.1337 H   0  0  0  0  0  0  0  0  0  0  0  0
    3.4941   -0.6692   -4.1034 H   0  0  0  0  0  0  0  0  0  0  0  0
    2.1470   -1.0993   -1.3660 H   0  0  0  0  0  0  0  0  0  0  0  0
    2.0828    0.4053   -2.3222 H   0  0  0  0  0  0  0  0  0  0  0  0
    9.0909   -2.8417    2.9945 H   0  0  0  0  0  0  0  0  0  0  0  0
    7.8526   -4.0762    1.2179 H   0  0  0  0  0  0  0  0  0  0  0  0
    6.2716    2.9412    0.9523 H   0  0  0  0  0  0  0  0  0  0  0  0
    8.7140   -0.3972    3.2669 H   0  0  0  0  0  0  0  0  0  0  0  0
    7.4300    1.6571    2.7253 H   0  0  0  0  0  0  0  0  0  0  0  0
    6.2503   -2.8945   -0.2348 H   0  0  0  0  0  0  0  0  0  0  0  0
    6.7299    1.2726   -1.1870 H   0  0  0  0  0  0  0  0  0  0  0  0
    5.0641    1.6584   -0.7660 H   0  0  0  0  0  0  0  0  0  0  0  0
  1 17  1  0  0  0  0
  1  2  1  0  0  0  0
  2 15  1  0  0  0  0
  2 19  1  0  0  0  0
  3  6  1  0  0  0  0
  3 21  1  0  0  0  0
  4  3  2  0  0  0  0
  5 23  1  0  0  0  0
  5  7  2  0  0  0  0
  6 24  1  0  0  0  0
  7 25  1  0  0  0  0
  8 11  2  0  0  0  0
  8  4  1  0  0  0  0
  9 13  1  0  0  0  0
  9  5  1  0  0  0  0
 10  7  1  0  0  0  0
 10  6  2  0  0  0  0
 11 10  1  0  0  0  0
 12 14  2  0  0  0  0
 12 13  1  0  0  0  0
 13 11  1  0  0  0  0
 15 12  1  0  0  0  0
 16  1  1  0  0  0  0
 18  1  1  0  0  0  0
 20  2  1  0  0  0  0
 22  4  1  0  0  0  0
 26  8  1  0  0  0  0
 27  9  1  0  0  0  0
 28  9  1  0  0  0  0
M  END
>  <HBA>
3

>  <HBD>
0

>  <TPSA>
29.54

>  <cid>
27813

>  <dipole>
2.25

>  <excitation_energy_1>
4.099

>  <excitation_energy_2>
4.54

>  <excitation_energy_3>
5.236

>  <excitation_energy_4>
5.284

>  <homo_energy>
-5.603

>  <homo_lumo_gap>
4.803

>  <logP>
2.741

>  <lumo_energy>
-0.8

>  <melting_point>
81.21

>  <molecular_refractivity>
62.85

>  <oscillator_strength_1>
0.0724

>  <oscillator_strength_2>
0.026

>  <oscillator_strength_3>
0.0754

>  <oscillator_strength_4>
0.4721

>  <open_babel_can_smiles>
CCOC(=O)N1CC=Cc2c1cccc2

>  <mulliken_charges>
28
1   -0.461736
2   -0.034874
3   -0.125044
4   -0.146422
5   -0.165067
6   -0.211409
7   -0.110976
8   -0.143036
9   -0.166133
10   0.108561
11   0.281358
12   0.803913
13   -0.596109
14   -0.517048
15   -0.497102
16   0.148974
17   0.179206
18   0.153662
19   0.172914
20   0.149504
21   0.127471
22   0.131293
23   0.139512
24   0.127169
25   0.132854
26   0.165187
27   0.161562
28   0.191817

>  <lowdin_charges>
28
1   -0.45806
2   -0.125812
3   -0.167031
4   -0.150292
5   -0.17537
6   -0.159073
7   -0.15687
8   -0.166417
9   -0.189214
10   -0.024545
11   0.05636
12   0.213028
13   -0.083851
14   -0.304271
15   -0.209092
16   0.158492
17   0.167563
18   0.155465
19   0.161869
20   0.151304
21   0.159144
22   0.157685
23   0.160133
24   0.157855
25   0.161226
26   0.180772
27   0.150458
28   0.178544

$$$$

