PCCDB-ID:  44721
public computational chemistry database (PCCDB) project, http://pccdb.org

 38 39  0  0  1  0  0  0  0  0999 V2000
    1.8736   -0.9535    0.1319 C   0  0  0  0  0  0  0  0  0  0  0  0
    4.0247   -0.4280    1.0142 C   0  0  0  0  0  0  0  0  0  0  0  0
    3.4617    7.1646   -2.9998 C   0  0  0  0  0  0  0  0  0  0  0  0
    3.6910    1.6567   -4.1737 C   0  0  0  0  0  0  0  0  0  0  0  0
    1.9693    4.4267   -0.1615 C   0  0  0  0  0  0  0  0  0  0  0  0
    1.9484    3.0775   -0.4869 C   0  0  0  0  0  0  0  0  0  0  0  0
    3.4504    3.1629   -4.0278 C   0  0  0  0  0  0  0  0  0  0  0  0
    2.5227    0.8728   -3.5695 C   0  0  0  0  0  0  0  0  0  0  0  0
    2.4575    5.3680   -1.0721 C   0  0  0  0  0  0  0  0  0  0  0  0
    2.4250    2.6331   -1.7359 C   0  0  0  0  0  0  0  0  0  0  0  0
    2.9358    3.5622   -2.6573 C   0  0  0  0  0  0  0  0  0  0  0  0
    2.3728    1.1407   -2.0587 C   0  0  2  0  0  0  0  0  0  0  0  0
    2.9316    4.9335   -2.3104 C   0  0  0  0  0  0  0  0  0  0  0  0
    3.4307    0.3402   -1.2251 C   0  0  2  0  0  0  0  0  0  0  0  0
    2.9471    0.0378    0.1371 N   0  0  0  0  0  0  0  0  0  0  0  0
    4.6649    1.0222   -1.1750 O   0  0  0  0  0  0  0  0  0  0  0  0
    3.4194    5.7754   -3.2754 O   0  0  0  0  0  0  0  0  0  0  0  0
    1.5582   -1.1458    1.1624 H   0  0  0  0  0  0  0  0  0  0  0  0
    2.1834   -1.9201   -0.3128 H   0  0  0  0  0  0  0  0  0  0  0  0
    0.9987   -0.5953   -0.4167 H   0  0  0  0  0  0  0  0  0  0  0  0
    3.6207   -0.5652    2.0227 H   0  0  0  0  0  0  0  0  0  0  0  0
    4.8275    0.3069    1.0523 H   0  0  0  0  0  0  0  0  0  0  0  0
    4.4592   -1.3913    0.6837 H   0  0  0  0  0  0  0  0  0  0  0  0
    3.8843    7.6343   -3.8903 H   0  0  0  0  0  0  0  0  0  0  0  0
    4.1016    7.3869   -2.1353 H   0  0  0  0  0  0  0  0  0  0  0  0
    2.4583    7.5723   -2.8174 H   0  0  0  0  0  0  0  0  0  0  0  0
    4.6183    1.3770   -3.6622 H   0  0  0  0  0  0  0  0  0  0  0  0
    3.8158    1.4053   -5.2341 H   0  0  0  0  0  0  0  0  0  0  0  0
    1.5979    4.7606    0.8039 H   0  0  0  0  0  0  0  0  0  0  0  0
    1.5794    2.3461    0.2242 H   0  0  0  0  0  0  0  0  0  0  0  0
    2.7207    3.4968   -4.7817 H   0  0  0  0  0  0  0  0  0  0  0  0
    4.3653    3.7235   -4.2494 H   0  0  0  0  0  0  0  0  0  0  0  0
    2.6441   -0.2045   -3.7405 H   0  0  0  0  0  0  0  0  0  0  0  0
    1.5920    1.1671   -4.0751 H   0  0  0  0  0  0  0  0  0  0  0  0
    2.4615    6.4198   -0.8103 H   0  0  0  0  0  0  0  0  0  0  0  0
    1.3828    0.7829   -1.7598 H   0  0  0  0  0  0  0  0  0  0  0  0
    3.6617   -0.6016   -1.7576 H   0  0  0  0  0  0  0  0  0  0  0  0
    4.4663    1.9339   -0.8949 H   0  0  0  0  0  0  0  0  0  0  0  0
  1 15  1  0  0  0  0
  1 18  1  0  0  0  0
  2 22  1  0  0  0  0
  2 21  1  0  0  0  0
  3 26  1  0  0  0  0
  3 25  1  0  0  0  0
  4  7  1  0  0  0  0
  4 27  1  0  0  0  0
  4  8  1  0  0  0  0
  5 29  1  0  0  0  0
  6  5  1  0  0  0  0
  6 30  1  0  0  0  0
  7 11  1  0  0  0  0
  8 12  1  0  0  0  0
  9 35  1  0  0  0  0
  9  5  2  0  0  0  0
 10  6  2  0  0  0  0
 11 13  2  0  0  0  0
 11 10  1  0  0  0  0
 12 36  1  1  0  0  0
 12 10  1  0  0  0  0
 12 14  1  0  0  0  0
 13  9  1  0  0  0  0
 14 37  1  6  0  0  0
 14 16  1  0  0  0  0
 14 15  1  0  0  0  0
 15  2  1  0  0  0  0
 16 38  1  0  0  0  0
 17  3  1  0  0  0  0
 17 13  1  0  0  0  0
 19  1  1  0  0  0  0
 20  1  1  0  0  0  0
 23  2  1  0  0  0  0
 24  3  1  0  0  0  0
 28  4  1  0  0  0  0
 31  7  1  0  0  0  0
 32  7  1  0  0  0  0
 33  8  1  0  0  0  0
 34  8  1  0  0  0  0
M  END
>  <HBA>
3

>  <HBD>
1

>  <TPSA>
32.7

>  <cid>
44721

>  <dipole>
1.73

>  <excitation_energy_1>
4.936

>  <excitation_energy_2>
5.123

>  <excitation_energy_3>
5.228

>  <excitation_energy_4>
5.337

>  <homo_energy>
-5.685

>  <homo_lumo_gap>
5.807

>  <logP>
1.995

>  <lumo_energy>
0.122

>  <melting_point>
58.61

>  <molecular_refractivity>
68.84

>  <oscillator_strength_1>
0.0231

>  <oscillator_strength_2>
0.0269

>  <oscillator_strength_3>
0.0428

>  <oscillator_strength_4>
0.0058

>  <open_babel_can_smiles>
COc1cccc2c1CCC[C@H]2[C@H](N(C)C)O

>  <mulliken_charges>
38
1   -0.308573
2   -0.29156
3   -0.213005
4   -0.277489
5   -0.140644
6   -0.177111
7   -0.322922
8   -0.282333
9   -0.196262
10   0.028532
11   0.058387
12   -0.177379
13   0.322597
14   0.281834
15   -0.399637
16   -0.626898
17   -0.508956
18   0.152338
19   0.121297
20   0.153831
21   0.140807
22   0.167084
23   0.116309
24   0.168228
25   0.151086
26   0.151441
27   0.16551
28   0.126962
29   0.126145
30   0.141213
31   0.148749
32   0.156584
33   0.130393
34   0.133393
35   0.128165
36   0.14041
37   0.110404
38   0.401068

>  <lowdin_charges>
38
1   -0.360954
2   -0.359867
3   -0.277091
4   -0.282807
5   -0.154835
6   -0.189876
7   -0.274802
8   -0.273867
9   -0.214892
10   -0.024476
11   -0.038686
12   -0.146974
13   0.090938
14   0.050942
15   -0.199477
16   -0.43925
17   -0.200701
18   0.152273
19   0.121863
20   0.149361
21   0.145477
22   0.161183
23   0.12206
24   0.16263
25   0.145079
26   0.144322
27   0.155247
28   0.141557
29   0.156192
30   0.166176
31   0.152652
32   0.1594
33   0.140737
34   0.142133
35   0.159319
36   0.154209
37   0.119796
38   0.34501

$$$$

