PCCDB-ID:  40080
public computational chemistry database (PCCDB) project, http://pccdb.org

 23 24  0  0  0  0  0  0  0  0999 V2000
    0.7666   -0.2188   -0.0474 C   0  0  0  0  0  0  0  0  0  0  0  0
    8.4465   -2.4745    4.1540 C   0  0  0  0  0  0  0  0  0  0  0  0
    4.8478   -3.0692    4.2510 C   0  0  0  0  0  0  0  0  0  0  0  0
    3.6641   -2.7213    3.6064 C   0  0  0  0  0  0  0  0  0  0  0  0
    6.1367   -1.6695    2.7352 C   0  0  0  0  0  0  0  0  0  0  0  0
    6.0802   -2.5497    3.8243 C   0  0  0  0  0  0  0  0  0  0  0  0
    3.7150   -1.8447    2.5223 C   0  0  0  0  0  0  0  0  0  0  0  0
    4.9457   -1.3273    2.0961 C   0  0  0  0  0  0  0  0  0  0  0  0
    2.9515   -0.5117    0.7138 C   0  0  0  0  0  0  0  0  0  0  0  0
    2.1919    0.0535   -0.1330 N   0  0  0  0  0  0  0  0  0  0  0  0
    2.6469   -1.3831    1.7524 N   0  0  0  0  0  0  0  0  0  0  0  0
    7.1721   -2.9637    4.5362 O   0  0  0  0  0  0  0  0  0  0  0  0
    4.7356   -0.2467    0.7087 S   0  0  0  0  0  0  0  0  0  0  0  0
    0.2463    0.3343   -0.8339 H   0  0  0  0  0  0  0  0  0  0  0  0
    0.3337    0.0948    0.9181 H   0  0  0  0  0  0  0  0  0  0  0  0
    0.5313   -1.2882   -0.1857 H   0  0  0  0  0  0  0  0  0  0  0  0
    9.1600   -2.9219    4.8484 H   0  0  0  0  0  0  0  0  0  0  0  0
    8.5010   -1.3803    4.2345 H   0  0  0  0  0  0  0  0  0  0  0  0
    8.7039   -2.7727    3.1286 H   0  0  0  0  0  0  0  0  0  0  0  0
    4.8409   -3.7480    5.0972 H   0  0  0  0  0  0  0  0  0  0  0  0
    2.7161   -3.1290    3.9468 H   0  0  0  0  0  0  0  0  0  0  0  0
    7.0764   -1.2568    2.3885 H   0  0  0  0  0  0  0  0  0  0  0  0
    1.6918   -1.6590    1.9263 H   0  0  0  0  0  0  0  0  0  0  0  0
  1 15  1  0  0  0  0
  2 18  1  0  0  0  0
  2 12  1  0  0  0  0
  2 17  1  0  0  0  0
  3 20  1  0  0  0  0
  4 21  1  0  0  0  0
  4  3  1  0  0  0  0
  5  6  1  0  0  0  0
  6  3  2  0  0  0  0
  6 12  1  0  0  0  0
  7  4  2  0  0  0  0
  8  7  1  0  0  0  0
  8  5  2  0  0  0  0
  9 11  1  0  0  0  0
 10  1  1  0  0  0  0
 10  9  2  0  0  0  0
 11 23  1  0  0  0  0
 11  7  1  0  0  0  0
 13  9  1  0  0  0  0
 13  8  1  0  0  0  0
 14  1  1  0  0  0  0
 16  1  1  0  0  0  0
 19  2  1  0  0  0  0
 22  5  1  0  0  0  0
M  END
>  <HBA>
4

>  <HBD>
1

>  <TPSA>
62.39

>  <cid>
40080

>  <dipole>
2.73

>  <excitation_energy_1>
4.149

>  <excitation_energy_2>
4.153

>  <excitation_energy_3>
4.562

>  <excitation_energy_4>
4.762

>  <homo_energy>
-5.154

>  <homo_lumo_gap>
4.863

>  <logP>
2.42

>  <lumo_energy>
-0.291

>  <melting_point>
104.05

>  <molecular_refractivity>
55.42

>  <oscillator_strength_1>
0.0935

>  <oscillator_strength_2>
0.0026

>  <oscillator_strength_3>
0.0021

>  <oscillator_strength_4>
0.1846

>  <open_babel_can_smiles>
COc1ccc2c(c1)s/c(=N/C)/[nH]2

>  <mulliken_charges>
23
1   -0.34069
2   -0.215506
3   -0.191209
4   -0.162993
5   -0.257484
6   0.390964
7   0.385005
8   -0.15648
9   0.337582
10   -0.456575
11   -0.720642
12   -0.510757
13   0.225335
14   0.168568
15   0.134788
16   0.134843
17   0.171562
18   0.152564
19   0.152597
20   0.143082
21   0.131934
22   0.145811
23   0.337702

>  <lowdin_charges>
23
1   -0.35995
2   -0.275165
3   -0.178453
4   -0.177555
5   -0.216328
6   0.096137
7   0.025703
8   -0.136746
9   -0.013449
10   -0.248904
11   -0.243805
12   -0.201046
13   0.248804
14   0.161393
15   0.134617
16   0.133162
17   0.165266
18   0.142882
19   0.144166
20   0.170331
21   0.161826
22   0.17107
23   0.296046

$$$$

