PCCDB-ID:  28532
public computational chemistry database (PCCDB) project, http://pccdb.org

 17 17  0  0  0  0  0  0  0  0999 V2000
   -1.3777   -0.0672    0.0525 C   0  0  0  0  0  0  0  0  0  0  0  0
   -0.7416    1.1589    0.0793 C   0  0  0  0  0  0  0  0  0  0  0  0
    0.7623   -1.1973   -0.1578 C   0  0  0  0  0  0  0  0  0  0  0  0
    2.8343    0.1250   -0.2350 C   0  0  0  0  0  0  0  0  0  0  0  0
    1.4119    0.0393   -0.1333 C   0  0  0  0  0  0  0  0  0  0  0  0
   -0.6224   -1.2412   -0.0650 C   0  0  0  0  0  0  0  0  0  0  0  0
    0.6662    1.2502   -0.0100 C   0  0  0  0  0  0  0  0  0  0  0  0
    3.9859    0.2773   -0.3192 N   0  0  0  0  0  0  0  0  0  0  0  0
    1.2985    2.4530    0.0437 N   0  0  0  0  0  0  0  0  0  0  0  0
   -1.3001   -2.5328   -0.0931 N   0  0  0  0  0  0  0  0  0  0  0  0
   -2.5306   -2.5339   -0.0150 O   0  0  0  0  0  0  0  0  0  0  0  0
   -0.6041   -3.5450   -0.1930 O   0  0  0  0  0  0  0  0  0  0  0  0
   -2.4563   -0.1401    0.1211 H   0  0  0  0  0  0  0  0  0  0  0  0
   -1.3247    2.0704    0.1744 H   0  0  0  0  0  0  0  0  0  0  0  0
    1.3260   -2.1171   -0.2503 H   0  0  0  0  0  0  0  0  0  0  0  0
    0.7664    3.3072   -0.0191 H   0  0  0  0  0  0  0  0  0  0  0  0
    2.2914    2.5139   -0.1348 H   0  0  0  0  0  0  0  0  0  0  0  0
  1  2  1  0  0  0  0
  1 13  1  0  0  0  0
  2 14  1  0  0  0  0
  3  5  2  0  0  0  0
  3  6  1  0  0  0  0
  4  5  1  0  0  0  0
  5  7  1  0  0  0  0
  6  1  2  0  0  0  0
  7  9  1  0  0  0  0
  7  2  2  0  0  0  0
  8  4  3  0  0  0  0
 10  6  1  0  0  0  0
 10 11  2  0  0  0  0
 12 10  2  0  0  0  0
 15  3  1  0  0  0  0
 16  9  1  0  0  0  0
 17  9  1  0  0  0  0
M  END
>  <HBA>
2

>  <HBD>
1

>  <TPSA>
95.63

>  <cid>
28532

>  <dipole>
6.32

>  <excitation_energy_1>
3.791

>  <excitation_energy_2>
3.917

>  <excitation_energy_3>
4.241

>  <excitation_energy_4>
4.337

>  <homo_energy>
-6.748

>  <homo_lumo_gap>
4.343

>  <logP>
2.153

>  <lumo_energy>
-2.406

>  <melting_point>
131.01

>  <molecular_refractivity>
44.38

>  <oscillator_strength_1>
0.0002

>  <oscillator_strength_2>
0.2853

>  <oscillator_strength_3>
0.0546

>  <oscillator_strength_4>
0.0003

>  <open_babel_can_smiles>
N#Cc1cc(ccc1N)N(=O)=O

>  <mulliken_charges>
17
1   -0.141878
2   -0.191068
3   -0.185632
4   0.234366
5   0.102856
6   0.27391
7   0.392567
8   -0.484516
9   -0.829376
10   0.372253
11   -0.402644
12   -0.401088
13   0.191261
14   0.148223
15   0.205421
16   0.350366
17   0.364978

>  <lowdin_charges>
17
1   -0.10918
2   -0.19193
3   -0.101708
4   -0.018168
5   -0.062479
6   -0.0263
7   0.103035
8   -0.118223
9   -0.438062
10   0.307321
11   -0.252434
12   -0.253167
13   0.191132
14   0.168826
15   0.201275
16   0.297298
17   0.302763

$$$$

