PCCDB-ID:  942
public computational chemistry database (PCCDB) project, http://pccdb.org

 26 27  0  0  1  0  0  0  0  0999 V2000
    1.4742   -0.1536    0.6047 C   0  0  0  0  0  0  0  0  0  0  0  0
   -0.3063    2.9584   -2.6861 C   0  0  0  0  0  0  0  0  0  0  0  0
    3.1458   -1.6587   -1.5663 C   0  0  0  0  0  0  0  0  0  0  0  0
    0.5390    1.8511   -2.5974 C   0  0  0  0  0  0  0  0  0  0  0  0
    2.3181   -0.5850   -2.3211 C   0  0  0  0  0  0  0  0  0  0  0  0
   -0.1312    4.0049   -1.7840 C   0  0  0  0  0  0  0  0  0  0  0  0
    3.6079   -0.9336   -0.2647 C   0  0  0  0  0  0  0  0  0  0  0  0
    1.6161    2.9403   -0.7664 C   0  0  0  0  0  0  0  0  0  0  0  0
    1.5321    1.8235   -1.6158 C   0  0  0  0  0  0  0  0  0  0  0  0
    2.5321    0.6956   -1.4686 C   0  0  1  0  0  0  0  0  0  0  0  0
    0.8137    4.0062   -0.8328 N   0  0  0  0  0  0  0  0  0  0  0  0
    2.7186    0.2231   -0.0746 N   0  0  0  0  0  0  0  0  0  0  0  0
    1.7212   -0.4890    1.6171 H   0  0  0  0  0  0  0  0  0  0  0  0
    0.9018   -0.9595    0.1110 H   0  0  0  0  0  0  0  0  0  0  0  0
    0.8209    0.7179    0.6920 H   0  0  0  0  0  0  0  0  0  0  0  0
   -1.0855    3.0073   -3.4415 H   0  0  0  0  0  0  0  0  0  0  0  0
    4.0027   -2.0082   -2.1511 H   0  0  0  0  0  0  0  0  0  0  0  0
    2.5342   -2.5376   -1.3397 H   0  0  0  0  0  0  0  0  0  0  0  0
    0.4267    1.0250   -3.2933 H   0  0  0  0  0  0  0  0  0  0  0  0
    1.2585   -0.8620   -2.3481 H   0  0  0  0  0  0  0  0  0  0  0  0
    2.6442   -0.4468   -3.3570 H   0  0  0  0  0  0  0  0  0  0  0  0
   -0.7729    4.8838   -1.8231 H   0  0  0  0  0  0  0  0  0  0  0  0
    4.6331   -0.5620   -0.3886 H   0  0  0  0  0  0  0  0  0  0  0  0
    3.5953   -1.5752    0.6209 H   0  0  0  0  0  0  0  0  0  0  0  0
    2.3759    2.9558    0.0133 H   0  0  0  0  0  0  0  0  0  0  0  0
    3.5141    1.1035   -1.7572 H   0  0  0  0  0  0  0  0  0  0  0  0
  1 15  1  0  0  0  0
  1 13  1  0  0  0  0
  2  4  2  0  0  0  0
  2  6  1  0  0  0  0
  3 18  1  0  0  0  0
  3  7  1  0  0  0  0
  4  9  1  0  0  0  0
  5  3  1  0  0  0  0
  5 10  1  0  0  0  0
  6 11  2  0  0  0  0
  7 12  1  0  0  0  0
  7 24  1  0  0  0  0
  8 25  1  0  0  0  0
  9 10  1  0  0  0  0
  9  8  2  0  0  0  0
 10 26  1  6  0  0  0
 10 12  1  0  0  0  0
 11  8  1  0  0  0  0
 12  1  1  0  0  0  0
 14  1  1  0  0  0  0
 16  2  1  0  0  0  0
 17  3  1  0  0  0  0
 19  4  1  0  0  0  0
 20  5  1  0  0  0  0
 21  5  1  0  0  0  0
 22  6  1  0  0  0  0
 23  7  1  0  0  0  0
M  END
>  <HBA>
2

>  <HBD>
0

>  <TPSA>
16.13

>  <cid>
942

>  <dipole>
3.13

>  <excitation_energy_1>
4.471

>  <excitation_energy_2>
4.622

>  <excitation_energy_3>
4.863

>  <excitation_energy_4>
5.048

>  <homo_energy>
-5.867

>  <homo_lumo_gap>
5.366

>  <logP>
1.786

>  <lumo_energy>
-0.501

>  <melting_point>
45.21

>  <molecular_refractivity>
53.13

>  <oscillator_strength_1>
0.0019

>  <oscillator_strength_2>
0.0016

>  <oscillator_strength_3>
0.0035

>  <oscillator_strength_4>
0.0004

>  <open_babel_can_smiles>
CN1CCC[C@H]1c1cccnc1

>  <mulliken_charges>
26
1   -0.314693
2   -0.144221
3   -0.294487
4   -0.151634
5   -0.29139
6   0.037922
7   -0.136856
8   0.00521
9   0.107607
10   -0.043559
11   -0.412003
12   -0.380947
13   0.152434
14   0.121646
15   0.164566
16   0.135192
17   0.141314
18   0.144339
19   0.140787
20   0.142799
21   0.142066
22   0.139663
23   0.144462
24   0.140992
25   0.158169
26   0.150624

>  <lowdin_charges>
26
1   -0.366626
2   -0.176043
3   -0.302653
4   -0.143313
5   -0.299212
6   -0.094732
7   -0.20911
8   -0.093127
9   -0.027542
10   -0.065737
11   -0.14648
12   -0.190918
13   0.151539
14   0.123979
15   0.158868
16   0.163286
17   0.150093
18   0.14841
19   0.163369
20   0.143663
21   0.148952
22   0.156061
23   0.142354
24   0.148892
25   0.164716
26   0.15131

$$$$

