PCCDB-ID:  29853
public computational chemistry database (PCCDB) project, http://pccdb.org

 20 19  0  0  1  0  0  0  0  0999 V2000
    2.0709    0.1164   -1.5589 C   0  0  0  0  0  0  0  0  0  0  0  0
    2.4119    3.2660    1.6874 C   0  0  0  0  0  0  0  0  0  0  0  0
    1.9575    0.0610   -0.2283 C   0  0  0  0  0  0  0  0  0  0  0  0
    2.7033    2.0075    2.0240 C   0  0  0  0  0  0  0  0  0  0  0  0
    3.1217   -0.1636    0.7099 C   0  0  1  0  0  0  0  0  0  0  0  0
    3.7219    1.1419    1.3144 C   0  0  2  0  0  0  0  0  0  0  0  0
    0.7871    0.2262    0.4633 O   0  0  0  0  0  0  0  0  0  0  0  0
    2.1199    1.3313    3.0724 O   0  0  0  0  0  0  0  0  0  0  0  0
    2.8053   -1.0694    1.7636 O   0  0  0  0  0  0  0  0  0  0  0  0
    4.7790    0.7686    2.1838 O   0  0  0  0  0  0  0  0  0  0  0  0
    3.0284   -0.0473   -2.0392 H   0  0  0  0  0  0  0  0  0  0  0  0
    1.2213    0.3255   -2.2047 H   0  0  0  0  0  0  0  0  0  0  0  0
    2.9172    3.7464    0.8585 H   0  0  0  0  0  0  0  0  0  0  0  0
    1.6699    3.8530    2.2245 H   0  0  0  0  0  0  0  0  0  0  0  0
    3.9319   -0.6378    0.1496 H   0  0  0  0  0  0  0  0  0  0  0  0
    4.1600    1.7324    0.5043 H   0  0  0  0  0  0  0  0  0  0  0  0
    0.0654    0.3707   -0.1692 H   0  0  0  0  0  0  0  0  0  0  0  0
    1.4646    1.9094    3.4954 H   0  0  0  0  0  0  0  0  0  0  0  0
    2.0729   -0.6626    2.2610 H   0  0  0  0  0  0  0  0  0  0  0  0
    4.4428   -0.0122    2.6619 H   0  0  0  0  0  0  0  0  0  0  0  0
  1  3  2  0  0  0  0
  2  4  2  0  0  0  0
  2 14  1  0  0  0  0
  3  7  1  0  0  0  0
  3  5  1  0  0  0  0
  4  8  1  0  0  0  0
  5 15  1  6  0  0  0
  5  6  1  0  0  0  0
  5  9  1  0  0  0  0
  6 16  1  6  0  0  0
  6  4  1  0  0  0  0
  6 10  1  0  0  0  0
  8 18  1  0  0  0  0
  9 19  1  0  0  0  0
 10 20  1  0  0  0  0
 11  1  1  0  0  0  0
 12  1  1  0  0  0  0
 13  2  1  0  0  0  0
 17  7  1  0  0  0  0
M  END
>  <HBA>
4

>  <HBD>
4

>  <TPSA>
80.92

>  <cid>
29853

>  <dipole>
3.82

>  <excitation_energy_1>
5.292

>  <excitation_energy_2>
5.406

>  <excitation_energy_3>
5.846

>  <excitation_energy_4>
5.949

>  <homo_energy>
-6.24

>  <homo_lumo_gap>
6.928

>  <logP>
-0.148

>  <lumo_energy>
0.688

>  <melting_point>
-1.11

>  <molecular_refractivity>
35.48

>  <oscillator_strength_1>
0.0099

>  <oscillator_strength_2>
0.0055

>  <oscillator_strength_3>
0.0183

>  <oscillator_strength_4>
0.0099

>  <open_babel_can_smiles>
O[C@H]([C@@H](C(=C)O)O)C(=C)O

>  <mulliken_charges>
20
1   -0.453873
2   -0.452103
3   0.425236
4   0.435745
5   0.016183
6   0.064018
7   -0.634212
8   -0.649754
9   -0.639212
10   -0.623333
11   0.149671
12   0.12774
13   0.149874
14   0.124828
15   0.16219
16   0.14427
17   0.409742
18   0.410344
19   0.425674
20   0.406973

>  <lowdin_charges>
20
1   -0.432989
2   -0.42914
3   0.092896
4   0.09534
5   -0.023842
6   -0.024073
7   -0.382379
8   -0.38946
9   -0.454612
10   -0.452864
11   0.170602
12   0.156766
13   0.171883
14   0.155073
15   0.165816
16   0.158293
17   0.361929
18   0.361928
19   0.351618
20   0.347217

$$$$

