PCCDB-ID:  17827
public computational chemistry database (PCCDB) project, http://pccdb.org

 27 27  0  0  0  0  0  0  0  0999 V2000
    0.8208    1.3405   -0.3740 C   0  0  0  0  0  0  0  0  0  0  0  0
    1.5134    0.0844    0.1764 C   0  0  0  0  0  0  0  0  0  0  0  0
   -0.6547    1.3982    0.0509 C   0  0  0  0  0  0  0  0  0  0  0  0
    0.7493   -1.1892   -0.2206 C   0  0  0  0  0  0  0  0  0  0  0  0
   -1.4044    0.1155   -0.3390 C   0  0  0  0  0  0  0  0  0  0  0  0
   -2.1149   -1.5904    2.2366 C   0  0  0  0  0  0  0  0  0  0  0  0
   -2.0807   -1.3720    3.7500 C   0  0  0  0  0  0  0  0  0  0  0  0
   -0.7292   -1.1576    0.2120 C   0  0  0  0  0  0  0  0  0  0  0  0
   -0.8097   -1.2147    1.6838 N   0  0  0  0  0  0  0  0  0  0  0  0
   -1.7198   -0.0387    4.0554 O   0  0  0  0  0  0  0  0  0  0  0  0
    0.8809    1.3324   -1.4730 H   0  0  0  0  0  0  0  0  0  0  0  0
    1.3490    2.2427   -0.0402 H   0  0  0  0  0  0  0  0  0  0  0  0
    1.5711    0.1507    1.2703 H   0  0  0  0  0  0  0  0  0  0  0  0
    2.5457    0.0257   -0.1918 H   0  0  0  0  0  0  0  0  0  0  0  0
   -1.1470    2.2673   -0.4036 H   0  0  0  0  0  0  0  0  0  0  0  0
   -0.7171    1.5344    1.1379 H   0  0  0  0  0  0  0  0  0  0  0  0
    1.2397   -2.0803    0.1979 H   0  0  0  0  0  0  0  0  0  0  0  0
    0.7815   -1.3073   -1.3125 H   0  0  0  0  0  0  0  0  0  0  0  0
   -1.4370    0.0264   -1.4344 H   0  0  0  0  0  0  0  0  0  0  0  0
   -2.4485    0.1704   -0.0083 H   0  0  0  0  0  0  0  0  0  0  0  0
   -2.8744   -0.9288    1.8079 H   0  0  0  0  0  0  0  0  0  0  0  0
   -2.4083   -2.6295    1.9983 H   0  0  0  0  0  0  0  0  0  0  0  0
   -1.3779   -2.0929    4.2089 H   0  0  0  0  0  0  0  0  0  0  0  0
   -3.0680   -1.5591    4.1865 H   0  0  0  0  0  0  0  0  0  0  0  0
   -1.2354   -2.0353   -0.2322 H   0  0  0  0  0  0  0  0  0  0  0  0
   -0.1191   -1.8892    2.0149 H   0  0  0  0  0  0  0  0  0  0  0  0
   -1.0227    0.1721    3.4062 H   0  0  0  0  0  0  0  0  0  0  0  0
  1 12  1  0  0  0  0
  1  3  1  0  0  0  0
  1  2  1  0  0  0  0
  2 13  1  0  0  0  0
  3 16  1  0  0  0  0
  4  2  1  0  0  0  0
  4 17  1  0  0  0  0
  4  8  1  0  0  0  0
  5 20  1  0  0  0  0
  5  3  1  0  0  0  0
  5  8  1  0  0  0  0
  6  7  1  0  0  0  0
  7 10  1  0  0  0  0
  7 24  1  0  0  0  0
  7 23  1  0  0  0  0
  8  9  1  0  0  0  0
  9 26  1  0  0  0  0
  9  6  1  0  0  0  0
 11  1  1  0  0  0  0
 14  2  1  0  0  0  0
 15  3  1  0  0  0  0
 18  4  1  0  0  0  0
 19  5  1  0  0  0  0
 21  6  1  0  0  0  0
 22  6  1  0  0  0  0
 25  8  1  0  0  0  0
 27 10  1  0  0  0  0
M  END
>  <HBA>
2

>  <HBD>
2

>  <TPSA>
32.26

>  <cid>
17827

>  <dipole>
2.75

>  <excitation_energy_1>
5.629

>  <excitation_energy_2>
6.042

>  <excitation_energy_3>
6.211

>  <excitation_energy_4>
6.345

>  <homo_energy>
-6.324

>  <homo_lumo_gap>
8.155

>  <logP>
1.292

>  <lumo_energy>
1.831

>  <melting_point>
40.48

>  <molecular_refractivity>
42.42

>  <oscillator_strength_1>
0.0083

>  <oscillator_strength_2>
0.0342

>  <oscillator_strength_3>
0.0154

>  <oscillator_strength_4>
0.0141

>  <open_babel_can_smiles>
OCCNC1CCCCC1

>  <mulliken_charges>
27
1   -0.258779
2   -0.249932
3   -0.253256
4   -0.289031
5   -0.264799
6   -0.151045
7   -0.020714
8   0.060869
9   -0.587728
10   -0.631524
11   0.124321
12   0.131506
13   0.138274
14   0.129489
15   0.129496
16   0.143598
17   0.1238
18   0.135215
19   0.12827
20   0.135844
21   0.157089
22   0.116555
23   0.107849
24   0.140531
25   0.104965
26   0.296009
27   0.403128

>  <lowdin_charges>
27
1   -0.275318
2   -0.275737
3   -0.277222
4   -0.282051
5   -0.280526
6   -0.225416
7   -0.137264
8   -0.063672
9   -0.369489
10   -0.477159
11   0.133101
12   0.144502
13   0.140752
14   0.141938
15   0.144458
16   0.142356
17   0.138876
18   0.142973
19   0.139429
20   0.143552
21   0.15144
22   0.123699
23   0.118871
24   0.14551
25   0.121057
26   0.25372
27   0.337622

$$$$

