PCCDB-ID:  23249
public computational chemistry database (PCCDB) project, http://pccdb.org

 16 15  0  0  0  0  0  0  0  0999 V2000
    0.4645   -0.4466    1.6322 C   0  0  0  0  0  0  0  0  0  0  0  0
    1.5615    1.2723    0.1943 C   0  0  0  0  0  0  0  0  0  0  0  0
    2.5474    0.4856    0.1123 N   0  0  0  0  0  0  0  0  0  0  0  0
    1.4765    2.6495   -0.1037 N   0  0  0  0  0  0  0  0  0  0  0  0
    0.3691    0.7782    0.8269 N   0  0  0  0  0  0  0  0  0  0  0  0
    2.4257    3.3245   -0.8711 N   0  0  0  0  0  0  0  0  0  0  0  0
   -0.9016    1.0419    0.3063 N   0  0  0  0  0  0  0  0  0  0  0  0
    2.0323    4.3774   -1.3503 O   0  0  0  0  0  0  0  0  0  0  0  0
    3.5543    2.8502   -0.9608 O   0  0  0  0  0  0  0  0  0  0  0  0
   -1.0385    2.0091   -0.4524 O   0  0  0  0  0  0  0  0  0  0  0  0
   -1.8013    0.3039    0.6750 O   0  0  0  0  0  0  0  0  0  0  0  0
    1.4578   -0.4564    2.0737 H   0  0  0  0  0  0  0  0  0  0  0  0
    0.3311   -1.3401    1.0164 H   0  0  0  0  0  0  0  0  0  0  0  0
   -0.3036   -0.4129    2.4035 H   0  0  0  0  0  0  0  0  0  0  0  0
    3.3712    0.9678   -0.2471 H   0  0  0  0  0  0  0  0  0  0  0  0
    0.5443    3.0221   -0.2796 H   0  0  0  0  0  0  0  0  0  0  0  0
  1 12  1  0  0  0  0
  1 14  1  0  0  0  0
  2  5  1  0  0  0  0
  3  2  2  0  0  0  0
  4  2  1  0  0  0  0
  5  1  1  0  0  0  0
  6  4  1  0  0  0  0
  7 11  2  0  0  0  0
  7  5  1  0  0  0  0
  8  6  2  0  0  0  0
  9  6  2  0  0  0  0
 10  7  2  0  0  0  0
 13  1  1  0  0  0  0
 15  3  1  0  0  0  0
 16  4  1  0  0  0  0
M  END
>  <HBA>
3

>  <HBD>
1

>  <TPSA>
133.26

>  <cid>
23249

>  <dipole>
2.8

>  <excitation_energy_1>
4.395

>  <excitation_energy_2>
4.423

>  <excitation_energy_3>
4.785

>  <excitation_energy_4>
4.846

>  <homo_energy>
-8.125

>  <homo_lumo_gap>
5.524

>  <logP>
0.363

>  <lumo_energy>
-2.601

>  <melting_point>
112.35

>  <molecular_refractivity>
37.23

>  <oscillator_strength_1>
0.0033

>  <oscillator_strength_2>
0.0027

>  <oscillator_strength_3>
0.0483

>  <oscillator_strength_4>
0.0091

>  <open_babel_can_smiles>
O=N(=O)NC(=N)N(N(=O)=O)C

>  <mulliken_charges>
16
1   -0.295879
2   0.668787
3   -0.604657
4   -0.485613
5   -0.347273
6   0.65048
7   0.656771
8   -0.378462
9   -0.40168
10   -0.43788
11   -0.374654
12   0.206109
13   0.195338
14   0.196598
15   0.350616
16   0.401399

>  <lowdin_charges>
16
1   -0.346814
2   0.133975
3   -0.373942
4   -0.224726
5   -0.060347
6   0.346013
7   0.347898
8   -0.228357
9   -0.245043
10   -0.275828
11   -0.222301
12   0.189213
13   0.174293
14   0.179213
15   0.288393
16   0.318361

$$$$

