PCCDB-ID:  15050
public computational chemistry database (PCCDB) project, http://pccdb.org

 20 19  0  0  0  0  0  0  0  0999 V2000
    0.8959    0.1295   -0.9454 C   0  0  0  0  0  0  0  0  0  0  0  0
    1.8290    0.7934    1.9085 C   0  0  0  0  0  0  0  0  0  0  0  0
    3.7598   -2.0368   -0.1446 C   0  0  0  0  0  0  0  0  0  0  0  0
    3.5551    1.1057   -1.7621 C   0  0  0  0  0  0  0  0  0  0  0  0
    2.2153   -0.2145   -0.2520 C   0  0  0  0  0  0  0  0  0  0  0  0
    2.0642   -0.3754    1.1337 O   0  0  0  0  0  0  0  0  0  0  0  0
    2.6218   -1.4434   -0.7740 O   0  0  0  0  0  0  0  0  0  0  0  0
    3.2118    0.7826   -0.4222 O   0  0  0  0  0  0  0  0  0  0  0  0
    0.1435   -0.6070   -0.6539 H   0  0  0  0  0  0  0  0  0  0  0  0
    1.0078    0.0963   -2.0319 H   0  0  0  0  0  0  0  0  0  0  0  0
    0.5555    1.1280   -0.6575 H   0  0  0  0  0  0  0  0  0  0  0  0
    1.7664    0.4537    2.9453 H   0  0  0  0  0  0  0  0  0  0  0  0
    0.8805    1.2798    1.6415 H   0  0  0  0  0  0  0  0  0  0  0  0
    2.6437    1.5162    1.8064 H   0  0  0  0  0  0  0  0  0  0  0  0
    4.0650   -2.8580   -0.7976 H   0  0  0  0  0  0  0  0  0  0  0  0
    3.5044   -2.4267    0.8452 H   0  0  0  0  0  0  0  0  0  0  0  0
    4.5806   -1.3182   -0.0481 H   0  0  0  0  0  0  0  0  0  0  0  0
    4.4812    1.6841   -1.7109 H   0  0  0  0  0  0  0  0  0  0  0  0
    2.7839    1.7194   -2.2479 H   0  0  0  0  0  0  0  0  0  0  0  0
    3.7246    0.2032   -2.3610 H   0  0  0  0  0  0  0  0  0  0  0  0
  1 11  1  0  0  0  0
  1  9  1  0  0  0  0
  1  5  1  0  0  0  0
  2 12  1  0  0  0  0
  3 17  1  0  0  0  0
  3 16  1  0  0  0  0
  4 18  1  0  0  0  0
  4  8  1  0  0  0  0
  5  6  1  0  0  0  0
  6  2  1  0  0  0  0
  7  5  1  0  0  0  0
  7  3  1  0  0  0  0
  8  5  1  0  0  0  0
 10  1  1  0  0  0  0
 13  2  1  0  0  0  0
 14  2  1  0  0  0  0
 15  3  1  0  0  0  0
 19  4  1  0  0  0  0
 20  4  1  0  0  0  0
M  END
>  <HBA>
3

>  <HBD>
0

>  <TPSA>
27.69

>  <cid>
15050

>  <dipole>
1.24

>  <excitation_energy_1>
6.843

>  <excitation_energy_2>
6.939

>  <excitation_energy_3>
7.12

>  <excitation_energy_4>
7.251

>  <homo_energy>
-7.124

>  <homo_lumo_gap>
9.638

>  <logP>
0.599

>  <lumo_energy>
2.514

>  <melting_point>
-41.72

>  <molecular_refractivity>
29.44

>  <oscillator_strength_1>
0.0019

>  <oscillator_strength_2>
0.0041

>  <oscillator_strength_3>
0.0025

>  <oscillator_strength_4>
0.0051

>  <open_babel_can_smiles>
COC(OC)(OC)C

>  <mulliken_charges>
20
1   -0.49157
2   -0.20493
3   -0.210038
4   -0.211298
5   0.771756
6   -0.503201
7   -0.493097
8   -0.49833
9   0.170611
10   0.159231
11   0.150815
12   0.155662
13   0.132026
14   0.163316
15   0.148773
16   0.159706
17   0.149675
18   0.157367
19   0.138444
20   0.155083

>  <lowdin_charges>
20
1   -0.464838
2   -0.28134
3   -0.286371
4   -0.286229
5   0.278906
6   -0.2531
7   -0.25138
8   -0.271976
9   0.17127
10   0.161804
11   0.156784
12   0.153595
13   0.13406
14   0.151102
15   0.15234
16   0.149136
17   0.146133
18   0.155621
19   0.137722
20   0.146761

$$$$

