PCCDB-ID:  67555
public computational chemistry database (PCCDB) project, http://pccdb.org

 25 24  0  0  0  0  0  0  0  0999 V2000
    4.5813   -3.0744   -3.8196 C   0  0  0  0  0  0  0  0  0  0  0  0
    5.1086    2.8771    2.0619 C   0  0  0  0  0  0  0  0  0  0  0  0
    1.7483    0.3764    1.0625 C   0  0  0  0  0  0  0  0  0  0  0  0
    4.9297   -3.0334   -2.3398 C   0  0  0  0  0  0  0  0  0  0  0  0
    4.7210    0.4644   -1.1089 C   0  0  0  0  0  0  0  0  0  0  0  0
    4.2288   -0.8976   -1.5521 C   0  0  0  0  0  0  0  0  0  0  0  0
    3.0611   -1.2313   -1.5760 O   0  0  0  0  0  0  0  0  0  0  0  0
    4.6821   -0.3045    1.5980 O   0  0  0  0  0  0  0  0  0  0  0  0
    5.1340    2.1874    0.7980 O   0  0  0  0  0  0  0  0  0  0  0  0
    2.8058    1.2971    0.7166 O   0  0  0  0  0  0  0  0  0  0  0  0
    5.2559   -1.6853   -1.9143 O   0  0  0  0  0  0  0  0  0  0  0  0
    4.3408    0.7895    0.6546 P   0  0  0  0  0  0  0  0  0  0  0  0
    4.4192   -4.1120   -4.1332 H   0  0  0  0  0  0  0  0  0  0  0  0
    5.3942   -2.6562   -4.4223 H   0  0  0  0  0  0  0  0  0  0  0  0
    3.6657   -2.5100   -4.0171 H   0  0  0  0  0  0  0  0  0  0  0  0
    5.7969    3.7179    1.9642 H   0  0  0  0  0  0  0  0  0  0  0  0
    5.4416    2.2153    2.8669 H   0  0  0  0  0  0  0  0  0  0  0  0
    4.0997    3.2442    2.2725 H   0  0  0  0  0  0  0  0  0  0  0  0
    0.8973    0.9900    1.3645 H   0  0  0  0  0  0  0  0  0  0  0  0
    2.0591   -0.2685    1.8882 H   0  0  0  0  0  0  0  0  0  0  0  0
    1.4905   -0.2294    0.1907 H   0  0  0  0  0  0  0  0  0  0  0  0
    5.8348   -3.6055   -2.1236 H   0  0  0  0  0  0  0  0  0  0  0  0
    4.1076   -3.4043   -1.7234 H   0  0  0  0  0  0  0  0  0  0  0  0
    4.2217    1.2359   -1.7031 H   0  0  0  0  0  0  0  0  0  0  0  0
    5.8011    0.5474   -1.2440 H   0  0  0  0  0  0  0  0  0  0  0  0
  1  4  1  0  0  0  0
  2 18  1  0  0  0  0
  2 17  1  0  0  0  0
  3 19  1  0  0  0  0
  3 20  1  0  0  0  0
  4 22  1  0  0  0  0
  4 11  1  0  0  0  0
  4 23  1  0  0  0  0
  5 12  1  0  0  0  0
  6  5  1  0  0  0  0
  7  6  2  0  0  0  0
  9  2  1  0  0  0  0
 10  3  1  0  0  0  0
 11  6  1  0  0  0  0
 12 10  1  0  0  0  0
 12  9  1  0  0  0  0
 12  8  2  0  0  0  0
 13  1  1  0  0  0  0
 14  1  1  0  0  0  0
 15  1  1  0  0  0  0
 16  2  1  0  0  0  0
 21  3  1  0  0  0  0
 24  5  1  0  0  0  0
 25  5  1  0  0  0  0
M  END
>  <HBA>
5

>  <HBD>
0

>  <TPSA>
71.64

>  <cid>
67555

>  <dipole>
1.54

>  <excitation_energy_1>
5.755

>  <excitation_energy_2>
6.715

>  <excitation_energy_3>
6.827

>  <excitation_energy_4>
7.138

>  <homo_energy>
-7.619

>  <homo_lumo_gap>
7.619

>  <logP>
1.035

>  <lumo_energy>
0.0

>  <melting_point>
-16.59

>  <molecular_refractivity>
43.07

>  <oscillator_strength_1>
0.0009

>  <oscillator_strength_2>
0.0176

>  <oscillator_strength_3>
0.0067

>  <oscillator_strength_4>
0.0153

>  <open_babel_can_smiles>
CCOC(=O)CP(=O)(OC)OC

>  <mulliken_charges>
25
1   -0.463748
2   -0.219209
3   -0.23258
4   -0.047313
5   -0.572011
6   0.622084
7   -0.475352
8   -0.558532
9   -0.521439
10   -0.531399
11   -0.442321
12   1.130267
13   0.153741
14   0.158906
15   0.175915
16   0.170858
17   0.180437
18   0.17085
19   0.160511
20   0.181057
21   0.190554
22   0.160019
23   0.176179
24   0.21792
25   0.214605

>  <lowdin_charges>
25
1   -0.455113
2   -0.271892
3   -0.278202
4   -0.126829
5   -0.474529
6   0.204175
7   -0.272609
8   -0.593384
9   -0.397321
10   -0.409499
11   -0.1799
12   1.069075
13   0.159729
14   0.157992
15   0.16539
16   0.163786
17   0.165666
18   0.157804
19   0.157724
20   0.167341
21   0.166958
22   0.157109
23   0.163105
24   0.205181
25   0.198243

$$$$

