PCCDB-ID:  13242
public computational chemistry database (PCCDB) project, http://pccdb.org

 31 31  0  0  0  0  0  0  0  0999 V2000
    2.0382   -0.2317   -3.2920 C   0  0  0  0  0  0  0  0  0  0  0  0
    3.2210    0.6540   -3.6998 C   0  0  0  0  0  0  0  0  0  0  0  0
    4.6125    0.0258   -3.5034 C   0  0  0  0  0  0  0  0  0  0  0  0
    4.9873   -0.2887   -2.0341 C   0  0  0  0  0  0  0  0  0  0  0  0
    4.7655   -1.7466   -1.5973 C   0  0  0  0  0  0  0  0  0  0  0  0
    9.5985   -5.4031   -4.5052 C   0  0  0  0  0  0  0  0  0  0  0  0
    5.7022   -2.7820   -2.1686 C   0  0  0  0  0  0  0  0  0  0  0  0
    9.8292   -4.0310   -4.6049 C   0  0  0  0  0  0  0  0  0  0  0  0
    8.4330   -5.8577   -3.8811 C   0  0  0  0  0  0  0  0  0  0  0  0
    6.7977   -2.5595   -2.9107 C   0  0  0  0  0  0  0  0  0  0  0  0
    8.9045   -3.1271   -4.0838 C   0  0  0  0  0  0  0  0  0  0  0  0
    7.5113   -4.9535   -3.3613 C   0  0  0  0  0  0  0  0  0  0  0  0
    7.7299   -3.5655   -3.4470 C   0  0  0  0  0  0  0  0  0  0  0  0
    1.0846    0.2618   -3.5130 H   0  0  0  0  0  0  0  0  0  0  0  0
    2.0473   -0.4572   -2.2194 H   0  0  0  0  0  0  0  0  0  0  0  0
    2.0518   -1.1861   -3.8330 H   0  0  0  0  0  0  0  0  0  0  0  0
    3.1751    1.5988   -3.1389 H   0  0  0  0  0  0  0  0  0  0  0  0
    3.1112    0.9255   -4.7587 H   0  0  0  0  0  0  0  0  0  0  0  0
    5.3523    0.7210   -3.9217 H   0  0  0  0  0  0  0  0  0  0  0  0
    4.6870   -0.8887   -4.1066 H   0  0  0  0  0  0  0  0  0  0  0  0
    4.4064    0.3629   -1.3674 H   0  0  0  0  0  0  0  0  0  0  0  0
    6.0376   -0.0276   -1.8526 H   0  0  0  0  0  0  0  0  0  0  0  0
    3.7345   -2.0514   -1.8296 H   0  0  0  0  0  0  0  0  0  0  0  0
    4.8317   -1.8047   -0.4986 H   0  0  0  0  0  0  0  0  0  0  0  0
   10.3152   -6.1120   -4.9110 H   0  0  0  0  0  0  0  0  0  0  0  0
    5.4387   -3.8085   -1.9112 H   0  0  0  0  0  0  0  0  0  0  0  0
   10.7295   -3.6620   -5.0895 H   0  0  0  0  0  0  0  0  0  0  0  0
    8.2392   -6.9246   -3.8036 H   0  0  0  0  0  0  0  0  0  0  0  0
    7.0628   -1.5316   -3.1538 H   0  0  0  0  0  0  0  0  0  0  0  0
    9.0925   -2.0587   -4.1653 H   0  0  0  0  0  0  0  0  0  0  0  0
    6.6082   -5.3307   -2.8904 H   0  0  0  0  0  0  0  0  0  0  0  0
  1 15  1  0  0  0  0
  2  3  1  0  0  0  0
  2  1  1  0  0  0  0
  2 17  1  0  0  0  0
  3  4  1  0  0  0  0
  4 22  1  0  0  0  0
  4  5  1  0  0  0  0
  4 21  1  0  0  0  0
  5 24  1  0  0  0  0
  6  9  1  0  0  0  0
  7 26  1  0  0  0  0
  7  5  1  0  0  0  0
  8  6  2  0  0  0  0
  8 11  1  0  0  0  0
  9 28  1  0  0  0  0
  9 12  2  0  0  0  0
 10  7  2  0  0  0  0
 11 13  2  0  0  0  0
 12 31  1  0  0  0  0
 13 12  1  0  0  0  0
 13 10  1  0  0  0  0
 14  1  1  0  0  0  0
 16  1  1  0  0  0  0
 18  2  1  0  0  0  0
 19  3  1  0  0  0  0
 20  3  1  0  0  0  0
 23  5  1  0  0  0  0
 25  6  1  0  0  0  0
 27  8  1  0  0  0  0
 29 10  1  0  0  0  0
 30 11  1  0  0  0  0
M  END
>  <HBA>
0

>  <HBD>
0

>  <TPSA>
0.0

>  <cid>
13242

>  <dipole>
0.5

>  <excitation_energy_1>
4.671

>  <excitation_energy_2>
4.869

>  <excitation_energy_3>
5.402

>  <excitation_energy_4>
5.576

>  <homo_energy>
-5.758

>  <homo_lumo_gap>
5.127

>  <logP>
4.28

>  <lumo_energy>
-0.631

>  <melting_point>
23.52

>  <molecular_refractivity>
60.57

>  <oscillator_strength_1>
0.2436

>  <oscillator_strength_2>
0.2489

>  <oscillator_strength_3>
0.0017

>  <oscillator_strength_4>
0.0012

>  <open_babel_can_smiles>
CCCCC/C=C/c1ccccc1

>  <mulliken_charges>
31
1   -0.442454
2   -0.25232
3   -0.253141
4   -0.268837
5   -0.30609
6   -0.130907
7   -0.116615
8   -0.128804
9   -0.130537
10   -0.170335
11   -0.198227
12   -0.183726
13   0.175903
14   0.141723
15   0.145076
16   0.142287
17   0.129432
18   0.130956
19   0.127536
20   0.14306
21   0.132833
22   0.138348
23   0.149142
24   0.145986
25   0.1272
26   0.122607
27   0.127822
28   0.127581
29   0.124388
30   0.124769
31   0.125343

>  <lowdin_charges>
31
1   -0.446696
2   -0.270447
3   -0.284071
4   -0.281181
5   -0.272205
6   -0.16285
7   -0.154756
8   -0.155751
9   -0.152777
10   -0.175816
11   -0.162017
12   -0.159314
13   0.001098
14   0.149396
15   0.144394
16   0.14603
17   0.137173
18   0.139887
19   0.143489
20   0.146082
21   0.145812
22   0.143044
23   0.151052
24   0.150831
25   0.158156
26   0.148211
27   0.157205
28   0.154805
29   0.152759
30   0.152754
31   0.155702

$$$$

