PCCDB-ID:  5363
public computational chemistry database (PCCDB) project, http://pccdb.org

 27 28  0  0  1  0  0  0  0  0999 V2000
   -2.2191    0.7108    0.4541 C   0  0  0  0  0  0  0  0  0  0  0  0
   -2.3183   -0.6220   -0.3089 C   0  0  0  0  0  0  0  0  0  0  0  0
   -0.9308    1.4710    0.1061 C   0  0  0  0  0  0  0  0  0  0  0  0
    1.5447    1.1824    0.0908 C   0  0  0  0  0  0  0  0  0  0  0  0
   -1.0659   -1.4727   -0.0887 C   0  0  2  0  0  0  0  0  0  0  0  0
    2.4704   -0.0339   -0.1730 C   0  0  1  0  0  0  0  0  0  0  0  0
    0.1724   -0.6444   -0.4224 C   0  0  2  0  0  0  0  0  0  0  0  0
    1.5228   -1.2555   -0.0308 C   0  0  1  0  0  0  0  0  0  0  0  0
    0.2186    0.6072    0.3208 N   0  0  2  0  0  0  0  0  0  0  0  0
   -1.1335   -2.6241   -0.9186 O   0  0  0  0  0  0  0  0  0  0  0  0
    3.0479   -0.0348   -1.4864 O   0  0  0  0  0  0  0  0  0  0  0  0
    1.9203   -2.3708   -0.8025 O   0  0  0  0  0  0  0  0  0  0  0  0
   -2.2289    0.5200    1.5348 H   0  0  0  0  0  0  0  0  0  0  0  0
   -3.0876    1.3410    0.2287 H   0  0  0  0  0  0  0  0  0  0  0  0
   -2.4132   -0.4347   -1.3874 H   0  0  0  0  0  0  0  0  0  0  0  0
   -3.2086   -1.1837   -0.0038 H   0  0  0  0  0  0  0  0  0  0  0  0
   -0.8298    2.3604    0.7409 H   0  0  0  0  0  0  0  0  0  0  0  0
   -0.9771    1.8268   -0.9452 H   0  0  0  0  0  0  0  0  0  0  0  0
    1.5706    1.8490   -0.7954 H   0  0  0  0  0  0  0  0  0  0  0  0
    1.8639    1.7855    0.9490 H   0  0  0  0  0  0  0  0  0  0  0  0
   -1.0080   -1.7600    0.9763 H   0  0  0  0  0  0  0  0  0  0  0  0
    3.3229   -0.0821    0.5077 H   0  0  0  0  0  0  0  0  0  0  0  0
    0.1613   -0.4823   -1.5258 H   0  0  0  0  0  0  0  0  0  0  0  0
    1.4725   -1.5730    1.0171 H   0  0  0  0  0  0  0  0  0  0  0  0
   -0.2325   -2.9918   -0.9698 H   0  0  0  0  0  0  0  0  0  0  0  0
    2.4038    0.3565   -2.0989 H   0  0  0  0  0  0  0  0  0  0  0  0
    2.4551   -1.9981   -1.5302 H   0  0  0  0  0  0  0  0  0  0  0  0
  1 13  1  0  0  0  0
  2  5  1  0  0  0  0
  2 16  1  0  0  0  0
  2  1  1  0  0  0  0
  3  9  1  0  0  0  0
  3  1  1  0  0  0  0
  3 17  1  0  0  0  0
  4 20  1  0  0  0  0
  5 21  1  1  0  0  0
  6  8  1  0  0  0  0
  6  4  1  0  0  0  0
  6 22  1  1  0  0  0
  7 23  1  6  0  0  0
  7  5  1  0  0  0  0
  7  8  1  0  0  0  0
  7  9  1  0  0  0  0
  8 24  1  1  0  0  0
  9  4  1  6  0  0  0
 10  5  1  0  0  0  0
 11  6  1  0  0  0  0
 12  8  1  0  0  0  0
 14  1  1  0  0  0  0
 15  2  1  0  0  0  0
 18  3  1  0  0  0  0
 19  4  1  0  0  0  0
 25 10  1  0  0  0  0
 26 11  1  0  0  0  0
 27 12  1  0  0  0  0
M  END
>  <HBA>
4

>  <HBD>
3

>  <TPSA>
63.93

>  <cid>
5363

>  <dipole>
3.17

>  <excitation_energy_1>
5.394

>  <excitation_energy_2>
5.662

>  <excitation_energy_3>
5.896

>  <excitation_energy_4>
6.136

>  <homo_energy>
-6.093

>  <homo_lumo_gap>
7.453

>  <logP>
-1.515

>  <lumo_energy>
1.361

>  <melting_point>
75.76

>  <molecular_refractivity>
46.64

>  <oscillator_strength_1>
0.0577

>  <oscillator_strength_2>
0.0148

>  <oscillator_strength_3>
0.0253

>  <oscillator_strength_4>
0.0104

>  <open_babel_can_smiles>
O[C@H]1CN2[C@@H]([C@H]1O)[C@H](O)CCC2

>  <mulliken_charges>
27
1   -0.273919
2   -0.279635
3   -0.115632
4   -0.130245
5   0.1694
6   0.069189
7   -0.003635
8   0.132882
9   -0.424101
10   -0.657014
11   -0.638592
12   -0.648849
13   0.144964
14   0.138338
15   0.138196
16   0.148434
17   0.140129
18   0.106953
19   0.115993
20   0.155849
21   0.110826
22   0.158527
23   0.084398
24   0.145224
25   0.410103
26   0.396701
27   0.405516

>  <lowdin_charges>
27
1   -0.278839
2   -0.282558
3   -0.197632
4   -0.213039
5   -0.000761
6   -0.020069
7   -0.100696
8   -0.033121
9   -0.188563
10   -0.468608
11   -0.457136
12   -0.458825
13   0.145693
14   0.15066
15   0.144095
16   0.154957
17   0.146932
18   0.112509
19   0.124376
20   0.154654
21   0.122744
22   0.156298
23   0.103398
24   0.148333
25   0.346601
26   0.342572
27   0.346026

$$$$

