PCCDB-ID:  15290
public computational chemistry database (PCCDB) project, http://pccdb.org

 19 19  0  0  0  0  0  0  0  0999 V2000
    0.7467    1.2975   -0.2841 C   0  0  0  0  0  0  0  0  0  0  0  0
    1.4919    0.0433    0.1998 C   0  0  0  0  0  0  0  0  0  0  0  0
   -0.7091    1.3146    0.2096 C   0  0  0  0  0  0  0  0  0  0  0  0
    0.7462   -1.2411   -0.1934 C   0  0  0  0  0  0  0  0  0  0  0  0
   -1.4527    0.0290   -0.1839 C   0  0  0  0  0  0  0  0  0  0  0  0
   -0.7227   -1.2487    0.2721 C   0  0  0  0  0  0  0  0  0  0  0  0
   -0.9170   -1.5985    2.0895 S   0  0  0  0  0  0  0  0  0  0  0  0
    0.7528    1.3160   -1.3843 H   0  0  0  0  0  0  0  0  0  0  0  0
    1.2712    2.2032    0.0456 H   0  0  0  0  0  0  0  0  0  0  0  0
    1.6103    0.0830    1.2918 H   0  0  0  0  0  0  0  0  0  0  0  0
    2.5073    0.0196   -0.2150 H   0  0  0  0  0  0  0  0  0  0  0  0
   -1.2394    2.1846   -0.1971 H   0  0  0  0  0  0  0  0  0  0  0  0
   -0.7254    1.4320    1.3024 H   0  0  0  0  0  0  0  0  0  0  0  0
    1.2658   -2.1260    0.1890 H   0  0  0  0  0  0  0  0  0  0  0  0
    0.7418   -1.3214   -1.2915 H   0  0  0  0  0  0  0  0  0  0  0  0
   -1.5278   -0.0108   -1.2817 H   0  0  0  0  0  0  0  0  0  0  0  0
   -2.4762    0.0362    0.2055 H   0  0  0  0  0  0  0  0  0  0  0  0
   -1.2274   -2.1196   -0.1616 H   0  0  0  0  0  0  0  0  0  0  0  0
   -0.2903   -0.5024    2.5658 H   0  0  0  0  0  0  0  0  0  0  0  0
  1  9  1  0  0  0  0
  1  2  1  0  0  0  0
  1  3  1  0  0  0  0
  2 10  1  0  0  0  0
  3 13  1  0  0  0  0
  4 14  1  0  0  0  0
  4  2  1  0  0  0  0
  4  6  1  0  0  0  0
  5 17  1  0  0  0  0
  5  3  1  0  0  0  0
  5  6  1  0  0  0  0
  6  7  1  0  0  0  0
  7 19  1  0  0  0  0
  8  1  1  0  0  0  0
 11  2  1  0  0  0  0
 12  3  1  0  0  0  0
 15  4  1  0  0  0  0
 16  5  1  0  0  0  0
 18  6  1  0  0  0  0
M  END
>  <HBA>
1

>  <HBD>
1

>  <TPSA>
38.8

>  <cid>
15290

>  <dipole>
2.0

>  <excitation_energy_1>
5.366

>  <excitation_energy_2>
5.734

>  <excitation_energy_3>
5.921

>  <excitation_energy_4>
6.381

>  <homo_energy>
-6.305

>  <homo_lumo_gap>
7.168

>  <logP>
2.249

>  <lumo_energy>
0.863

>  <melting_point>
16.27

>  <molecular_refractivity>
36.77

>  <oscillator_strength_1>
0.0192

>  <oscillator_strength_2>
0.0118

>  <oscillator_strength_3>
0.002

>  <oscillator_strength_4>
0.0148

>  <open_babel_can_smiles>
SC1CCCCC1

>  <mulliken_charges>
19
1   -0.256511
2   -0.263049
3   -0.262453
4   -0.251638
5   -0.252369
6   -0.247056
7   -0.099522
8   0.12905
9   0.133681
10   0.130994
11   0.137255
12   0.137211
13   0.130662
14   0.153469
15   0.133981
16   0.134228
17   0.153626
18   0.168647
19   0.089791

>  <lowdin_charges>
19
1   -0.27714
2   -0.27765
3   -0.279375
4   -0.280736
5   -0.278976
6   -0.217369
7   -0.104998
8   0.135735
9   0.145496
10   0.137313
11   0.146681
12   0.148289
13   0.137123
14   0.155796
15   0.14084
16   0.140961
17   0.154221
18   0.164113
19   0.109678

$$$$

