PCCDB-ID:  69673
public computational chemistry database (PCCDB) project, http://pccdb.org

 18 19  0  0  0  0  0  0  0  0999 V2000
   -1.2903   -0.0595   -0.2262 C   0  0  0  0  0  0  0  0  0  0  0  0
   -0.6412    1.1742   -0.1547 C   0  0  0  0  0  0  0  0  0  0  0  0
   -0.5563   -1.2333   -0.0459 C   0  0  0  0  0  0  0  0  0  0  0  0
    0.7300    1.2322    0.0951 C   0  0  0  0  0  0  0  0  0  0  0  0
    0.8153   -1.1775    0.2040 C   0  0  0  0  0  0  0  0  0  0  0  0
    3.8152   -0.7653   -0.0124 C   0  0  0  0  0  0  0  0  0  0  0  0
    3.5462   -0.7060    1.4448 C   0  0  0  0  0  0  0  0  0  0  0  0
    1.4714    0.0598    0.2766 C   0  0  0  0  0  0  0  0  0  0  0  0
    2.8761    0.2299    0.5283 N   0  0  0  0  0  0  0  0  0  0  0  0
   -2.3582   -0.1072   -0.4210 H   0  0  0  0  0  0  0  0  0  0  0  0
   -1.2025    2.0946   -0.2932 H   0  0  0  0  0  0  0  0  0  0  0  0
   -1.0524   -2.1991   -0.0998 H   0  0  0  0  0  0  0  0  0  0  0  0
    1.2523    2.1821    0.1542 H   0  0  0  0  0  0  0  0  0  0  0  0
    1.3668   -2.1044    0.3409 H   0  0  0  0  0  0  0  0  0  0  0  0
    3.4059   -1.6048   -0.5728 H   0  0  0  0  0  0  0  0  0  0  0  0
    4.7332   -0.3493   -0.4227 H   0  0  0  0  0  0  0  0  0  0  0  0
    4.2637   -0.2462    2.1216 H   0  0  0  0  0  0  0  0  0  0  0  0
    2.9510   -1.5042    1.8861 H   0  0  0  0  0  0  0  0  0  0  0  0
  1  2  2  0  0  0  0
  1  3  1  0  0  0  0
  2  4  1  0  0  0  0
  3  5  2  0  0  0  0
  4 13  1  0  0  0  0
  4  8  2  0  0  0  0
  5  8  1  0  0  0  0
  5 14  1  0  0  0  0
  6  9  1  0  0  0  0
  6  7  1  0  0  0  0
  7 18  1  0  0  0  0
  7 17  1  0  0  0  0
  8  9  1  0  0  0  0
  9  7  1  0  0  0  0
 10  1  1  0  0  0  0
 11  2  1  0  0  0  0
 12  3  1  0  0  0  0
 15  6  1  0  0  0  0
 16  6  1  0  0  0  0
M  END
>  <HBA>
1

>  <HBD>
0

>  <TPSA>
3.01

>  <cid>
69673

>  <dipole>
1.26

>  <excitation_energy_1>
5.245

>  <excitation_energy_2>
5.33

>  <excitation_energy_3>
5.535

>  <excitation_energy_4>
5.838

>  <homo_energy>
-6.357

>  <homo_lumo_gap>
6.346

>  <logP>
1.572

>  <lumo_energy>
-0.011

>  <melting_point>
21.31

>  <molecular_refractivity>
41.47

>  <oscillator_strength_1>
0.0061

>  <oscillator_strength_2>
0.0005

>  <oscillator_strength_3>
0.0003

>  <oscillator_strength_4>
0.0614

>  <open_babel_can_smiles>
c1ccc(cc1)N1CC1

>  <mulliken_charges>
18
1   -0.126494
2   -0.13696
3   -0.14151
4   -0.144375
5   -0.170591
6   -0.191167
7   -0.191035
8   0.270843
9   -0.453159
10   0.127334
11   0.129946
12   0.128636
13   0.137213
14   0.125193
15   0.156005
16   0.162092
17   0.162031
18   0.155997

>  <lowdin_charges>
18
1   -0.161485
2   -0.153936
3   -0.153542
4   -0.162073
5   -0.186899
6   -0.233058
7   -0.235138
8   0.045379
9   -0.182171
10   0.155263
11   0.158483
12   0.156646
13   0.16599
14   0.155803
15   0.153399
16   0.161339
17   0.162334
18   0.153667

$$$$

