PCCDB-ID:  13685
public computational chemistry database (PCCDB) project, http://pccdb.org

 21 21  0  0  0  0  0  0  0  0999 V2000
    1.6046    2.2097   -0.9669 C   0  0  0  0  0  0  0  0  0  0  0  0
    2.3920    2.3773   -2.1299 C   0  0  0  0  0  0  0  0  0  0  0  0
   -0.8995    1.5387   -0.7317 C   0  0  0  0  0  0  0  0  0  0  0  0
    0.3399    1.8489   -1.3941 C   0  0  0  0  0  0  0  0  0  0  0  0
    1.5557    2.1068   -3.1816 C   0  0  0  0  0  0  0  0  0  0  0  0
   -2.3219    1.3620    2.5285 C   0  0  0  0  0  0  0  0  0  0  0  0
   -3.5150    1.1500    2.9452 N   0  0  0  0  0  0  0  0  0  0  0  0
   -1.1607    1.5917    3.2366 N   0  0  0  0  0  0  0  0  0  0  0  0
   -0.9814    1.5961    0.5575 N   0  0  0  0  0  0  0  0  0  0  0  0
   -2.1411    1.2968    1.1405 N   0  0  0  0  0  0  0  0  0  0  0  0
    1.7954    2.1167   -4.5835 N   0  0  0  0  0  0  0  0  0  0  0  0
    2.9448    2.4138   -4.9319 O   0  0  0  0  0  0  0  0  0  0  0  0
    0.8610    1.8348   -5.3352 O   0  0  0  0  0  0  0  0  0  0  0  0
    0.3097    1.7854   -2.7578 O   0  0  0  0  0  0  0  0  0  0  0  0
    1.9118    2.3319    0.0610 H   0  0  0  0  0  0  0  0  0  0  0  0
    3.4316    2.6566   -2.2071 H   0  0  0  0  0  0  0  0  0  0  0  0
   -1.7437    1.2574   -1.3680 H   0  0  0  0  0  0  0  0  0  0  0  0
   -3.5641    1.1759    3.9636 H   0  0  0  0  0  0  0  0  0  0  0  0
   -1.2808    1.9911    4.1562 H   0  0  0  0  0  0  0  0  0  0  0  0
   -0.3860    1.9644    2.7016 H   0  0  0  0  0  0  0  0  0  0  0  0
   -2.9731    1.0536    0.6057 H   0  0  0  0  0  0  0  0  0  0  0  0
  1 15  1  0  0  0  0
  2  1  1  0  0  0  0
  3  9  2  0  0  0  0
  4  1  2  0  0  0  0
  4  3  1  0  0  0  0
  5 14  1  0  0  0  0
  5  2  2  0  0  0  0
  6  7  1  0  0  0  0
  6  8  2  0  0  0  0
  7 18  1  0  0  0  0
  8 19  1  0  0  0  0
  9 10  1  0  0  0  0
 10  6  1  0  0  0  0
 11  5  1  0  0  0  0
 12 11  2  0  0  0  0
 13 11  2  0  0  0  0
 14  4  1  0  0  0  0
 16  2  1  0  0  0  0
 17  3  1  0  0  0  0
 20  8  1  0  0  0  0
 21 10  1  0  0  0  0
M  RAD  1   7   2
M  END
>  <HBA>
5

>  <HBD>
2

>  <TPSA>
135.72

>  <cid>
13685

>  <dipole>
6.26

>  <excitation_energy_1>
3.201

>  <excitation_energy_2>
3.695

>  <excitation_energy_3>
4.009

>  <excitation_energy_4>
4.216

>  <homo_energy>
-6.046

>  <homo_lumo_gap>
3.407

>  <logP>
1.719

>  <lumo_energy>
-2.64

>  <melting_point>
189.74

>  <molecular_refractivity>
50.09

>  <oscillator_strength_1>
0.6286

>  <oscillator_strength_2>
0.0

>  <oscillator_strength_3>
0.1065

>  <oscillator_strength_4>
0.0013

>  <open_babel_can_smiles>
[NH]C(=[NH2])N/N=C/c1ccc(o1)N(=O)=O

>  <mulliken_charges>
21
1   -0.199378
2   -0.142624
3   -0.020423
4   0.373298
5   0.532473
6   0.64479
7   -0.651438
8   -0.761124
9   -0.224144
10   -0.428982
11   0.326444
12   -0.409528
13   -0.395758
14   -0.46097
15   0.164519
16   0.189469
17   0.156248
18   0.282006
19   0.333353
20   0.350458
21   0.341309

>  <lowdin_charges>
21
1   -0.189837
2   -0.147241
3   -0.145435
4   0.099383
5   0.066183
6   0.131512
7   -0.46375
8   -0.489775
9   -0.076313
10   -0.168995
11   0.30297
12   -0.261351
13   -0.245674
14   -0.06981
15   0.18123
16   0.194295
17   0.15921
18   0.255449
19   0.287339
20   0.292157
21   0.288454

$$$$

