PCCDB-ID:  68108
public computational chemistry database (PCCDB) project, http://pccdb.org

 17 18  0  0  0  0  0  0  0  0999 V2000
    2.4292    0.7113    0.0043 C   0  0  0  0  0  0  0  0  0  0  0  0
    2.4337   -0.6926    0.0123 C   0  0  0  0  0  0  0  0  0  0  0  0
    1.2322    1.4152   -0.0062 C   0  0  0  0  0  0  0  0  0  0  0  0
    1.2318   -1.3870    0.0075 C   0  0  0  0  0  0  0  0  0  0  0  0
   -1.2769    1.3968   -0.0219 C   0  0  0  0  0  0  0  0  0  0  0  0
   -2.4023    0.6621   -0.0263 C   0  0  0  0  0  0  0  0  0  0  0  0
    0.0040    0.7289   -0.0102 C   0  0  0  0  0  0  0  0  0  0  0  0
    0.0167   -0.6859   -0.0035 C   0  0  0  0  0  0  0  0  0  0  0  0
   -1.2411   -1.4499   -0.0050 C   0  0  0  0  0  0  0  0  0  0  0  0
   -1.3462   -2.6532    0.0038 O   0  0  0  0  0  0  0  0  0  0  0  0
   -2.4165   -0.6979   -0.0180 O   0  0  0  0  0  0  0  0  0  0  0  0
    3.3710    1.2534    0.0073 H   0  0  0  0  0  0  0  0  0  0  0  0
    3.3756   -1.2330    0.0215 H   0  0  0  0  0  0  0  0  0  0  0  0
    1.2341    2.5020   -0.0116 H   0  0  0  0  0  0  0  0  0  0  0  0
    1.2022   -2.4715    0.0134 H   0  0  0  0  0  0  0  0  0  0  0  0
   -1.3383    2.4794   -0.0292 H   0  0  0  0  0  0  0  0  0  0  0  0
   -3.4086    1.0645   -0.0364 H   0  0  0  0  0  0  0  0  0  0  0  0
  1 12  1  0  0  0  0
  1  2  2  0  0  0  0
  2 13  1  0  0  0  0
  3  1  1  0  0  0  0
  4  2  1  0  0  0  0
  4 15  1  0  0  0  0
  5  7  1  0  0  0  0
  6  5  2  0  0  0  0
  6 11  1  0  0  0  0
  7  3  2  0  0  0  0
  7  8  1  0  0  0  0
  8  4  2  0  0  0  0
  9  8  1  0  0  0  0
  9 10  2  0  0  0  0
 11  9  1  0  0  0  0
 14  3  1  0  0  0  0
 16  5  1  0  0  0  0
 17  6  1  0  0  0  0
M  END
>  <HBA>
2

>  <HBD>
0

>  <TPSA>
30.21

>  <cid>
68108

>  <dipole>
4.34

>  <excitation_energy_1>
4.165

>  <excitation_energy_2>
4.674

>  <excitation_energy_3>
4.796

>  <excitation_energy_4>
5.414

>  <homo_energy>
-6.256

>  <homo_lumo_gap>
4.808

>  <logP>
1.793

>  <lumo_energy>
-1.448

>  <melting_point>
82.32

>  <molecular_refractivity>
42.48

>  <oscillator_strength_1>
0.0759

>  <oscillator_strength_2>
0.1242

>  <oscillator_strength_3>
0.0

>  <oscillator_strength_4>
0.1765

>  <open_babel_can_smiles>
O=c1occc2c1cccc2

>  <mulliken_charges>
17
1   -0.11969
2   -0.136105
3   -0.196152
4   -0.163248
5   -0.224331
6   0.111142
7   0.16646
8   -0.010458
9   0.571992
10   -0.458168
11   -0.454997
12   0.142436
13   0.14269
14   0.138108
15   0.171372
16   0.149075
17   0.169875

>  <lowdin_charges>
17
1   -0.13346
2   -0.157345
3   -0.160018
4   -0.118861
5   -0.210021
6   -0.024167
7   0.018518
8   -0.056211
9   0.195493
10   -0.239515
11   -0.128515
12   0.164442
13   0.164999
14   0.160136
15   0.178926
16   0.171889
17   0.173711

$$$$

