PCCDB-ID:  61158
public computational chemistry database (PCCDB) project, http://pccdb.org

 18 18  0  0  0  0  0  0  0  0999 V2000
   -0.6940    1.0534   -0.1119 C   0  0  0  0  0  0  0  0  0  0  0  0
    0.8192   -1.2535   -0.0383 C   0  0  0  0  0  0  0  0  0  0  0  0
   -1.3385   -0.1742   -0.0483 C   0  0  0  0  0  0  0  0  0  0  0  0
    0.6901    1.1535   -0.1391 C   0  0  0  0  0  0  0  0  0  0  0  0
   -0.5752   -1.3662   -0.0129 C   0  0  0  0  0  0  0  0  0  0  0  0
    1.4793   -0.0214   -0.0992 C   0  0  0  0  0  0  0  0  0  0  0  0
   -2.8041   -0.1640   -0.0135 N   0  0  0  0  0  0  0  0  0  0  0  0
    1.2663    2.4995   -0.2154 N   0  0  0  0  0  0  0  0  0  0  0  0
   -1.1738   -2.5686    0.0267 O   0  0  0  0  0  0  0  0  0  0  0  0
    2.8212    0.0478   -0.1010 O   0  0  0  0  0  0  0  0  0  0  0  0
   -3.3622    0.9084   -0.2522 O   0  0  0  0  0  0  0  0  0  0  0  0
   -3.3852   -1.2108    0.2592 O   0  0  0  0  0  0  0  0  0  0  0  0
    0.4981    3.4477   -0.0439 O   0  0  0  0  0  0  0  0  0  0  0  0
    2.4662    2.6042   -0.4540 O   0  0  0  0  0  0  0  0  0  0  0  0
   -1.2870    1.9577   -0.1415 H   0  0  0  0  0  0  0  0  0  0  0  0
    1.4163   -2.1639   -0.0089 H   0  0  0  0  0  0  0  0  0  0  0  0
   -0.4954   -3.2642    0.0108 H   0  0  0  0  0  0  0  0  0  0  0  0
    3.1879   -0.8497   -0.0336 H   0  0  0  0  0  0  0  0  0  0  0  0
  1  3  1  0  0  0  0
  2  5  1  0  0  0  0
  2 16  1  0  0  0  0
  3  7  1  0  0  0  0
  3  5  2  0  0  0  0
  4  1  2  0  0  0  0
  4  6  1  0  0  0  0
  5  9  1  0  0  0  0
  6  2  2  0  0  0  0
  7 12  2  0  0  0  0
  8  4  1  0  0  0  0
  8 13  2  0  0  0  0
 10  6  1  0  0  0  0
 10 18  1  0  0  0  0
 11  7  2  0  0  0  0
 14  8  2  0  0  0  0
 15  1  1  0  0  0  0
 17  9  1  0  0  0  0
M  END
>  <HBA>
2

>  <HBD>
2

>  <TPSA>
132.1

>  <cid>
61158

>  <dipole>
7.94

>  <excitation_energy_1>
3.713

>  <excitation_energy_2>
3.716

>  <excitation_energy_3>
4.143

>  <excitation_energy_4>
4.282

>  <homo_energy>
-7.502

>  <homo_lumo_gap>
4.958

>  <logP>
1.961

>  <lumo_energy>
-2.544

>  <melting_point>
163.86

>  <molecular_refractivity>
48.13

>  <oscillator_strength_1>
0.0013

>  <oscillator_strength_2>
0.0067

>  <oscillator_strength_3>
0.0634

>  <oscillator_strength_4>
0.0039

>  <open_babel_can_smiles>
Oc1cc(O)c(cc1N(=O)=O)N(=O)=O

>  <mulliken_charges>
18
1   -0.221531
2   -0.297104
3   0.270569
4   0.270452
5   0.36999
6   0.369954
7   0.367584
8   0.367881
9   -0.58722
10   -0.58718
11   -0.393133
12   -0.37693
13   -0.393249
14   -0.377023
15   0.237136
16   0.133837
17   0.422989
18   0.422979

>  <lowdin_charges>
18
1   -0.098955
2   -0.264888
3   -0.039171
4   -0.040127
5   0.142215
6   0.143938
7   0.310413
8   0.307894
9   -0.313426
10   -0.312555
11   -0.249329
12   -0.228261
13   -0.249694
14   -0.225778
15   0.21906
16   0.1632
17   0.368708
18   0.366757

$$$$

