PCCDB-ID:  66808
public computational chemistry database (PCCDB) project, http://pccdb.org

 17 17  0  0  0  0  0  0  0  0999 V2000
   -1.4022   -0.0702   -0.0514 C   0  0  0  0  0  0  0  0  0  0  0  0
   -0.7930    1.1755   -0.0555 C   0  0  0  0  0  0  0  0  0  0  0  0
    0.7790   -1.1398   -0.1001 C   0  0  0  0  0  0  0  0  0  0  0  0
    2.8878    0.1785   -0.1310 C   0  0  0  0  0  0  0  0  0  0  0  0
    1.4039    0.1104   -0.1047 C   0  0  0  0  0  0  0  0  0  0  0  0
   -0.6061   -1.2193   -0.0735 C   0  0  0  0  0  0  0  0  0  0  0  0
    0.6069    1.2757   -0.0813 C   0  0  0  0  0  0  0  0  0  0  0  0
   -1.2561   -2.5343   -0.0689 N   0  0  0  0  0  0  0  0  0  0  0  0
    3.5973   -0.8095   -0.1502 O   0  0  0  0  0  0  0  0  0  0  0  0
    1.2402    2.4743   -0.0845 O   0  0  0  0  0  0  0  0  0  0  0  0
   -2.4879   -2.5596   -0.0448 O   0  0  0  0  0  0  0  0  0  0  0  0
   -0.5339   -3.5294   -0.0894 O   0  0  0  0  0  0  0  0  0  0  0  0
   -2.4804   -0.1707   -0.0313 H   0  0  0  0  0  0  0  0  0  0  0  0
   -1.3998    2.0781   -0.0376 H   0  0  0  0  0  0  0  0  0  0  0  0
    1.3894   -2.0351   -0.1159 H   0  0  0  0  0  0  0  0  0  0  0  0
    3.3228    1.1944   -0.1322 H   0  0  0  0  0  0  0  0  0  0  0  0
    0.5864    3.1912   -0.0640 H   0  0  0  0  0  0  0  0  0  0  0  0
  1 13  1  0  0  0  0
  2  1  1  0  0  0  0
  2 14  1  0  0  0  0
  3  6  1  0  0  0  0
  4  5  1  0  0  0  0
  5  3  2  0  0  0  0
  5  7  1  0  0  0  0
  6  8  1  0  0  0  0
  6  1  2  0  0  0  0
  7  2  2  0  0  0  0
  8 11  2  0  0  0  0
  9  4  2  0  0  0  0
 10  7  1  0  0  0  0
 10 17  1  0  0  0  0
 12  8  2  0  0  0  0
 15  3  1  0  0  0  0
 16  4  1  0  0  0  0
M  END
>  <HBA>
2

>  <HBD>
1

>  <TPSA>
83.12

>  <cid>
66808

>  <dipole>
6.93

>  <excitation_energy_1>
3.526

>  <excitation_energy_2>
3.767

>  <excitation_energy_3>
4.013

>  <excitation_energy_4>
4.251

>  <homo_energy>
-7.271

>  <homo_lumo_gap>
4.77

>  <logP>
1.636

>  <lumo_energy>
-2.501

>  <melting_point>
117.86

>  <molecular_refractivity>
42.67

>  <oscillator_strength_1>
0.0001

>  <oscillator_strength_2>
0.0

>  <oscillator_strength_3>
0.0

>  <oscillator_strength_4>
0.0487

>  <open_babel_can_smiles>
O=Cc1cc(ccc1O)N(=O)=O

>  <mulliken_charges>
17
1   -0.142502
2   -0.198149
3   -0.200055
4   0.208581
5   0.041564
6   0.279568
7   0.324321
8   0.378434
9   -0.396391
10   -0.624381
11   -0.399185
12   -0.388997
13   0.194065
14   0.145872
15   0.21411
16   0.138795
17   0.42435

>  <lowdin_charges>
17
1   -0.108027
2   -0.204952
3   -0.093995
4   0.053662
5   -0.080819
6   -0.015716
7   0.129276
8   0.306839
9   -0.218739
10   -0.350475
11   -0.249341
12   -0.240783
13   0.191801
14   0.167225
15   0.205394
16   0.138206
17   0.370444

$$$$

