PCCDB-ID:  21760
public computational chemistry database (PCCDB) project, http://pccdb.org

 37 39  0  0  1  0  0  0  0  0999 V2000
    2.4004   -1.2168   -1.0249 C   0  0  0  0  0  0  0  0  0  0  0  0
    3.7996    0.7421   -0.9020 C   0  0  0  0  0  0  0  0  0  0  0  0
   -3.6913    0.6894    2.4973 C   0  0  0  0  0  0  0  0  0  0  0  0
   -2.9224    1.6365    3.1733 C   0  0  0  0  0  0  0  0  0  0  0  0
   -3.0569   -0.3621    1.8307 C   0  0  0  0  0  0  0  0  0  0  0  0
    1.5828   -3.0646    3.9243 C   0  0  0  0  0  0  0  0  0  0  0  0
    2.7231   -3.2920    3.1458 C   0  0  0  0  0  0  0  0  0  0  0  0
   -1.5301    1.5317    3.1805 C   0  0  0  0  0  0  0  0  0  0  0  0
   -1.6662   -0.4617    1.8398 C   0  0  0  0  0  0  0  0  0  0  0  0
    0.8382   -1.8923    3.7671 C   0  0  0  0  0  0  0  0  0  0  0  0
    3.1338   -2.3484    2.1998 C   0  0  0  0  0  0  0  0  0  0  0  0
    1.2853    0.7424    1.1240 C   0  0  0  0  0  0  0  0  0  0  0  0
   -0.8804    0.4857    2.5137 C   0  0  0  0  0  0  0  0  0  0  0  0
    1.2435   -0.9559    2.8167 C   0  0  0  0  0  0  0  0  0  0  0  0
    2.3836   -1.1848    2.0392 C   0  0  0  0  0  0  0  0  0  0  0  0
    0.6350    0.4044    2.4985 C   0  0  1  0  0  0  0  0  0  0  0  0
    2.6535   -0.0091    1.1151 C   0  0  1  0  0  0  0  0  0  0  0  0
    3.2396   -0.3853   -0.1721 N   0  0  0  0  0  0  0  0  0  0  0  0
    3.0126   -1.6249   -1.8376 H   0  0  0  0  0  0  0  0  0  0  0  0
    1.5523   -0.6784   -1.4885 H   0  0  0  0  0  0  0  0  0  0  0  0
    1.9992   -2.0552   -0.4487 H   0  0  0  0  0  0  0  0  0  0  0  0
    4.3693    0.3716   -1.7624 H   0  0  0  0  0  0  0  0  0  0  0  0
    4.4874    1.2990   -0.2556 H   0  0  0  0  0  0  0  0  0  0  0  0
    3.0405    1.4510   -1.2851 H   0  0  0  0  0  0  0  0  0  0  0  0
   -4.7753    0.7660    2.4920 H   0  0  0  0  0  0  0  0  0  0  0  0
   -3.4044    2.4571    3.6989 H   0  0  0  0  0  0  0  0  0  0  0  0
   -3.6472   -1.1087    1.3054 H   0  0  0  0  0  0  0  0  0  0  0  0
    1.2715   -3.8061    4.6558 H   0  0  0  0  0  0  0  0  0  0  0  0
    3.2914   -4.2094    3.2773 H   0  0  0  0  0  0  0  0  0  0  0  0
   -0.9375    2.2738    3.7119 H   0  0  0  0  0  0  0  0  0  0  0  0
   -1.1816   -1.2893    1.3277 H   0  0  0  0  0  0  0  0  0  0  0  0
   -0.0517   -1.7200    4.3672 H   0  0  0  0  0  0  0  0  0  0  0  0
    4.0153   -2.5150    1.5863 H   0  0  0  0  0  0  0  0  0  0  0  0
    1.3838    1.8210    0.9669 H   0  0  0  0  0  0  0  0  0  0  0  0
    0.6460    0.3505    0.3247 H   0  0  0  0  0  0  0  0  0  0  0  0
    1.0105    1.1260    3.2403 H   0  0  0  0  0  0  0  0  0  0  0  0
    3.4033    0.6374    1.5975 H   0  0  0  0  0  0  0  0  0  0  0  0
  1 21  1  0  0  0  0
  1 18  1  0  0  0  0
  2 23  1  0  0  0  0
  2 18  1  0  0  0  0
  3  4  2  0  0  0  0
  4  8  1  0  0  0  0
  4 26  1  0  0  0  0
  5  9  2  0  0  0  0
  5  3  1  0  0  0  0
  6 28  1  0  0  0  0
  7 29  1  0  0  0  0
  7  6  2  0  0  0  0
  8 30  1  0  0  0  0
  9 13  1  0  0  0  0
 10  6  1  0  0  0  0
 10 32  1  0  0  0  0
 11  7  1  0  0  0  0
 12 16  1  0  0  0  0
 13  8  2  0  0  0  0
 14 10  2  0  0  0  0
 15 11  2  0  0  0  0
 15 14  1  0  0  0  0
 16 13  1  0  0  0  0
 16 14  1  0  0  0  0
 16 36  1  1  0  0  0
 17 12  1  0  0  0  0
 17 37  1  1  0  0  0
 17 15  1  0  0  0  0
 18 17  1  0  0  0  0
 19  1  1  0  0  0  0
 20  1  1  0  0  0  0
 22  2  1  0  0  0  0
 24  2  1  0  0  0  0
 25  3  1  0  0  0  0
 27  5  1  0  0  0  0
 31  9  1  0  0  0  0
 33 11  1  0  0  0  0
 34 12  1  0  0  0  0
 35 12  1  0  0  0  0
M  END
>  <HBA>
1

>  <HBD>
0

>  <TPSA>
3.24

>  <cid>
21760

>  <dipole>
0.67

>  <excitation_energy_1>
4.562

>  <excitation_energy_2>
4.791

>  <excitation_energy_3>
4.901

>  <excitation_energy_4>
5.064

>  <homo_energy>
-5.557

>  <homo_lumo_gap>
5.505

>  <logP>
3.825

>  <lumo_energy>
-0.052

>  <melting_point>
65.6

>  <molecular_refractivity>
76.06

>  <oscillator_strength_1>
0.0018

>  <oscillator_strength_2>
0.0054

>  <oscillator_strength_3>
0.0173

>  <oscillator_strength_4>
0.0154

>  <open_babel_can_smiles>
CN([C@H]1C[C@H](c2c1cccc2)c1ccccc1)C

>  <mulliken_charges>
37
1   -0.3097
2   -0.295377
3   -0.131016
4   -0.127903
5   -0.131534
6   -0.132338
7   -0.134343
8   -0.199443
9   -0.184872
10   -0.198678
11   -0.189739
12   -0.302545
13   0.193953
14   0.131097
15   0.089959
16   -0.263352
17   -0.023632
18   -0.373297
19   0.14725
20   0.121896
21   0.160334
22   0.147667
23   0.146433
24   0.122975
25   0.127271
26   0.127575
27   0.128401
28   0.125862
29   0.12569
30   0.122346
31   0.132639
32   0.133531
33   0.137872
34   0.137907
35   0.153014
36   0.144412
37   0.139685

>  <lowdin_charges>
37
1   -0.36523
2   -0.358557
3   -0.158959
4   -0.157199
5   -0.156751
6   -0.159273
7   -0.159491
8   -0.170866
9   -0.164857
10   -0.16307
11   -0.159875
12   -0.29124
13   -0.002389
14   -0.017093
15   -0.024241
16   -0.123843
17   -0.065171
18   -0.178976
19   0.150542
20   0.122518
21   0.157922
22   0.149802
23   0.150095
24   0.123439
25   0.154642
26   0.157618
27   0.158185
28   0.156926
29   0.155963
30   0.15486
31   0.160112
32   0.160685
33   0.163337
34   0.145606
35   0.153132
36   0.152708
37   0.148986

$$$$

