PCCDB-ID:  12159
public computational chemistry database (PCCDB) project, http://pccdb.org

 26 25  0  0  0  0  0  0  0  0999 V2000
    2.9139   -1.1574   -0.5594 C   0  0  0  0  0  0  0  0  0  0  0  0
    0.8915    2.6399   -0.5686 C   0  0  0  0  0  0  0  0  0  0  0  0
    2.6839    0.1383    0.2196 C   0  0  0  0  0  0  0  0  0  0  0  0
    2.3191    2.5350   -0.0319 C   0  0  0  0  0  0  0  0  0  0  0  0
    4.9533    2.4379   -1.7620 C   0  0  0  0  0  0  0  0  0  0  0  0
    4.4990    1.5757   -0.5746 C   0  0  0  0  0  0  0  0  0  0  0  0
    4.5606    1.8458   -3.1221 C   0  0  0  0  0  0  0  0  0  0  0  0
    3.0375    1.3498   -0.5410 N   0  0  0  0  0  0  0  0  0  0  0  0
    3.1583    1.8164   -3.3229 O   0  0  0  0  0  0  0  0  0  0  0  0
    2.5978   -2.0180    0.0411 H   0  0  0  0  0  0  0  0  0  0  0  0
    3.9673   -1.3077   -0.8184 H   0  0  0  0  0  0  0  0  0  0  0  0
    2.3358   -1.1533   -1.4895 H   0  0  0  0  0  0  0  0  0  0  0  0
    0.3971    3.5290   -0.1606 H   0  0  0  0  0  0  0  0  0  0  0  0
    0.2816    1.7706   -0.2996 H   0  0  0  0  0  0  0  0  0  0  0  0
    0.9078    2.7232   -1.6602 H   0  0  0  0  0  0  0  0  0  0  0  0
    3.2298    0.1108    1.1813 H   0  0  0  0  0  0  0  0  0  0  0  0
    1.6209    0.2058    0.4716 H   0  0  0  0  0  0  0  0  0  0  0  0
    2.3226    2.5416    1.0736 H   0  0  0  0  0  0  0  0  0  0  0  0
    2.8715    3.4250   -0.3458 H   0  0  0  0  0  0  0  0  0  0  0  0
    6.0465    2.5382   -1.7085 H   0  0  0  0  0  0  0  0  0  0  0  0
    4.5418    3.4523   -1.6883 H   0  0  0  0  0  0  0  0  0  0  0  0
    4.8482    2.0162    0.3785 H   0  0  0  0  0  0  0  0  0  0  0  0
    4.9862    0.5984   -0.6604 H   0  0  0  0  0  0  0  0  0  0  0  0
    5.0012    0.8357   -3.2162 H   0  0  0  0  0  0  0  0  0  0  0  0
    4.9860    2.4544   -3.9288 H   0  0  0  0  0  0  0  0  0  0  0  0
    2.7981    1.4367   -2.4926 H   0  0  0  0  0  0  0  0  0  0  0  0
  1 10  1  0  0  0  0
  1  3  1  0  0  0  0
  2 14  1  0  0  0  0
  2 13  1  0  0  0  0
  2  4  1  0  0  0  0
  3 17  1  0  0  0  0
  3 16  1  0  0  0  0
  4 18  1  0  0  0  0
  5 20  1  0  0  0  0
  5 21  1  0  0  0  0
  5  6  1  0  0  0  0
  6  8  1  0  0  0  0
  6 22  1  0  0  0  0
  7  5  1  0  0  0  0
  8  4  1  0  0  0  0
  8  3  1  0  0  0  0
  9  7  1  0  0  0  0
  9 26  1  0  0  0  0
 11  1  1  0  0  0  0
 12  1  1  0  0  0  0
 15  2  1  0  0  0  0
 19  4  1  0  0  0  0
 23  6  1  0  0  0  0
 24  7  1  0  0  0  0
 25  7  1  0  0  0  0
M  END
>  <HBA>
2

>  <HBD>
1

>  <TPSA>
23.47

>  <cid>
12159

>  <dipole>
2.9

>  <excitation_energy_1>
5.671

>  <excitation_energy_2>
5.885

>  <excitation_energy_3>
5.923

>  <excitation_energy_4>
6.185

>  <homo_energy>
-6.057

>  <homo_lumo_gap>
8.278

>  <logP>
0.711

>  <lumo_energy>
2.22

>  <melting_point>
-5.97

>  <molecular_refractivity>
39.82

>  <oscillator_strength_1>
0.0582

>  <oscillator_strength_2>
0.0268

>  <oscillator_strength_3>
0.0383

>  <oscillator_strength_4>
0.0772

>  <open_babel_can_smiles>
OCCCN(CC)CC

>  <mulliken_charges>
26
1   -0.450082
2   -0.454402
3   -0.119889
4   -0.122222
5   -0.293528
6   -0.130298
7   -0.011854
8   -0.416247
9   -0.652354
10   0.145846
11   0.150788
12   0.161136
13   0.144359
14   0.14673
15   0.172534
16   0.119911
17   0.144739
18   0.122403
19   0.149671
20   0.130972
21   0.146463
22   0.121703
23   0.14182
24   0.103641
25   0.133864
26   0.414297

>  <lowdin_charges>
26
1   -0.450828
2   -0.452148
3   -0.196523
4   -0.198471
5   -0.299537
6   -0.204737
7   -0.130664
8   -0.189193
9   -0.49954
10   0.154794
11   0.148256
12   0.157012
13   0.153892
14   0.148534
15   0.160603
16   0.12353
17   0.146661
18   0.123794
19   0.151329
20   0.147127
21   0.145049
22   0.126704
23   0.145931
24   0.115423
25   0.142327
26   0.330673

$$$$

