PCCDB-ID:  8323
public computational chemistry database (PCCDB) project, http://pccdb.org

 27 29  0  0  0  0  0  0  0  0999 V2000
    3.7174    0.6951    0.0470 C   0  0  0  0  0  0  0  0  0  0  0  0
    3.7144   -0.7059    0.0401 C   0  0  0  0  0  0  0  0  0  0  0  0
    2.5155    1.3947    0.0395 C   0  0  0  0  0  0  0  0  0  0  0  0
    2.5094   -1.4007    0.0261 C   0  0  0  0  0  0  0  0  0  0  0  0
   -3.6847    0.7219   -0.0040 C   0  0  0  0  0  0  0  0  0  0  0  0
   -3.6863   -0.6517    0.0131 C   0  0  0  0  0  0  0  0  0  0  0  0
    1.2980    0.6998    0.0256 C   0  0  0  0  0  0  0  0  0  0  0  0
    1.2953   -0.7026    0.0192 C   0  0  0  0  0  0  0  0  0  0  0  0
   -2.4724    1.4541   -0.0215 C   0  0  0  0  0  0  0  0  0  0  0  0
   -2.4856   -1.3911    0.0112 C   0  0  0  0  0  0  0  0  0  0  0  0
   -1.2477    0.7269   -0.0093 C   0  0  0  0  0  0  0  0  0  0  0  0
   -1.2583   -0.7089    0.0022 C   0  0  0  0  0  0  0  0  0  0  0  0
    0.0258    1.4670    0.0147 C   0  0  0  0  0  0  0  0  0  0  0  0
    0.0194   -1.4774    0.0061 C   0  0  0  0  0  0  0  0  0  0  0  0
   -2.5279    2.8156   -0.0781 N   0  0  0  0  0  0  0  0  0  0  0  0
   -2.5334   -2.7503    0.0220 O   0  0  0  0  0  0  0  0  0  0  0  0
    0.0768    2.7088    0.0299 O   0  0  0  0  0  0  0  0  0  0  0  0
    0.0559   -2.7035   -0.0004 O   0  0  0  0  0  0  0  0  0  0  0  0
    4.6593    1.2369    0.0576 H   0  0  0  0  0  0  0  0  0  0  0  0
    4.6543   -1.2515    0.0458 H   0  0  0  0  0  0  0  0  0  0  0  0
    2.4903    2.4789    0.0440 H   0  0  0  0  0  0  0  0  0  0  0  0
    2.4766   -2.4849    0.0209 H   0  0  0  0  0  0  0  0  0  0  0  0
   -4.6265    1.2651   -0.0105 H   0  0  0  0  0  0  0  0  0  0  0  0
   -4.6346   -1.1871    0.0267 H   0  0  0  0  0  0  0  0  0  0  0  0
   -3.4066    3.2766    0.1012 H   0  0  0  0  0  0  0  0  0  0  0  0
   -1.6536    3.3182    0.0324 H   0  0  0  0  0  0  0  0  0  0  0  0
   -3.4662   -3.0193    0.0267 H   0  0  0  0  0  0  0  0  0  0  0  0
  1 19  1  0  0  0  0
  2 20  1  0  0  0  0
  2  1  1  0  0  0  0
  3 21  1  0  0  0  0
  3  1  2  0  0  0  0
  4  2  2  0  0  0  0
  5  6  2  0  0  0  0
  6 24  1  0  0  0  0
  7  3  1  0  0  0  0
  8  7  2  0  0  0  0
  8  4  1  0  0  0  0
  9 11  2  0  0  0  0
  9  5  1  0  0  0  0
 10  6  1  0  0  0  0
 10 16  1  0  0  0  0
 11 12  1  0  0  0  0
 11 13  1  0  0  0  0
 12 14  1  0  0  0  0
 12 10  2  0  0  0  0
 13  7  1  0  0  0  0
 13 17  2  0  0  0  0
 14  8  1  0  0  0  0
 15  9  1  0  0  0  0
 15 26  1  0  0  0  0
 15 25  1  0  0  0  0
 16 27  1  0  0  0  0
 18 14  2  0  0  0  0
 22  4  1  0  0  0  0
 23  5  1  0  0  0  0
M  END
>  <HBA>
4

>  <HBD>
2

>  <TPSA>
80.39

>  <cid>
8323

>  <dipole>
3.52

>  <excitation_energy_1>
2.63

>  <excitation_energy_2>
2.822

>  <excitation_energy_3>
3.308

>  <excitation_energy_4>
3.698

>  <homo_energy>
-5.423

>  <homo_lumo_gap>
2.955

>  <logP>
2.331

>  <lumo_energy>
-2.468

>  <melting_point>
214.01

>  <molecular_refractivity>
66.18

>  <oscillator_strength_1>
0.1618

>  <oscillator_strength_2>
0.0016

>  <oscillator_strength_3>
0.0008

>  <oscillator_strength_4>
0.0109

>  <open_babel_can_smiles>
Oc1ccc(c2c1C(=O)c1ccccc1C2=O)N

>  <mulliken_charges>
27
1   -0.127113
2   -0.126286
3   -0.173456
4   -0.174723
5   -0.171481
6   -0.185765
7   0.056447
8   0.048749
9   0.315566
10   0.291957
11   0.002265
12   0.005963
13   0.349821
14   0.345339
15   -0.825775
16   -0.603064
17   -0.547656
18   -0.467951
19   0.139205
20   0.140043
21   0.162588
22   0.166109
23   0.134532
24   0.130715
25   0.325083
26   0.383382
27   0.405505

>  <lowdin_charges>
27
1   -0.144419
2   -0.142566
3   -0.129739
4   -0.128366
5   -0.170387
6   -0.178756
7   -0.033783
8   -0.032702
9   0.083855
10   0.106106
11   -0.08039
12   -0.060648
13   0.151956
14   0.144448
15   -0.463021
16   -0.340774
17   -0.292038
18   -0.232259
19   0.162616
20   0.162986
21   0.175012
22   0.176884
23   0.16168
24   0.159767
25   0.281336
26   0.309744
27   0.353458

$$$$

