PCCDB-ID:  72872
public computational chemistry database (PCCDB) project, http://pccdb.org

 24 24  0  0  0  0  0  0  0  0999 V2000
    1.0440    1.6167    1.0853 C   0  0  0  0  0  0  0  0  0  0  0  0
    9.4794    3.4863   -0.1073 C   0  0  0  0  0  0  0  0  0  0  0  0
    2.4087    2.2549    0.8959 C   0  0  0  0  0  0  0  0  0  0  0  0
    6.5488    3.0044    0.3115 C   0  0  0  0  0  0  0  0  0  0  0  0
    6.8960    0.6196    0.2473 C   0  0  0  0  0  0  0  0  0  0  0  0
    5.1811    2.8109    0.5062 C   0  0  0  0  0  0  0  0  0  0  0  0
    5.5427    0.4102    0.4390 C   0  0  0  0  0  0  0  0  0  0  0  0
    8.8957    2.0823   -0.0307 C   0  0  0  0  0  0  0  0  0  0  0  0
    7.4276    1.9222    0.1789 C   0  0  0  0  0  0  0  0  0  0  0  0
    4.6707    1.5068    0.5700 C   0  0  0  0  0  0  0  0  0  0  0  0
    9.6250    1.1058   -0.1389 O   0  0  0  0  0  0  0  0  0  0  0  0
    3.3611    1.1975    0.7547 O   0  0  0  0  0  0  0  0  0  0  0  0
    0.2791    2.3924    1.1973 H   0  0  0  0  0  0  0  0  0  0  0  0
    1.0338    0.9862    1.9797 H   0  0  0  0  0  0  0  0  0  0  0  0
    0.7859    0.9957    0.2219 H   0  0  0  0  0  0  0  0  0  0  0  0
    9.0357    4.0554   -0.9331 H   0  0  0  0  0  0  0  0  0  0  0  0
   10.5566    3.4068   -0.2630 H   0  0  0  0  0  0  0  0  0  0  0  0
    9.2874    4.0461    0.8159 H   0  0  0  0  0  0  0  0  0  0  0  0
    2.6753    2.8794    1.7600 H   0  0  0  0  0  0  0  0  0  0  0  0
    2.4256    2.8900   -0.0007 H   0  0  0  0  0  0  0  0  0  0  0  0
    6.9237    4.0225    0.2645 H   0  0  0  0  0  0  0  0  0  0  0  0
    7.5792   -0.2173    0.1460 H   0  0  0  0  0  0  0  0  0  0  0  0
    4.5291    3.6707    0.6052 H   0  0  0  0  0  0  0  0  0  0  0  0
    5.1245   -0.5902    0.4913 H   0  0  0  0  0  0  0  0  0  0  0  0
  1 13  1  0  0  0  0
  1 14  1  0  0  0  0
  2  8  1  0  0  0  0
  2 18  1  0  0  0  0
  3  1  1  0  0  0  0
  3 19  1  0  0  0  0
  4  6  2  0  0  0  0
  5  7  1  0  0  0  0
  6 10  1  0  0  0  0
  6 23  1  0  0  0  0
  7 24  1  0  0  0  0
  7 10  2  0  0  0  0
  8  9  1  0  0  0  0
  9  5  2  0  0  0  0
  9  4  1  0  0  0  0
 10 12  1  0  0  0  0
 11  8  2  0  0  0  0
 12  3  1  0  0  0  0
 15  1  1  0  0  0  0
 16  2  1  0  0  0  0
 17  2  1  0  0  0  0
 20  3  1  0  0  0  0
 21  4  1  0  0  0  0
 22  5  1  0  0  0  0
M  END
>  <HBA>
2

>  <HBD>
0

>  <TPSA>
26.3

>  <cid>
72872

>  <dipole>
4.77

>  <excitation_energy_1>
3.839

>  <excitation_energy_2>
4.671

>  <excitation_energy_3>
4.8

>  <excitation_energy_4>
5.423

>  <homo_energy>
-6.196

>  <homo_lumo_gap>
5.034

>  <logP>
2.288

>  <lumo_energy>
-1.162

>  <melting_point>
43.66

>  <molecular_refractivity>
47.94

>  <oscillator_strength_1>
0.0001

>  <oscillator_strength_2>
0.4019

>  <oscillator_strength_3>
0.0022

>  <oscillator_strength_4>
0.0

>  <open_babel_can_smiles>
CCOc1ccc(cc1)C(=O)C

>  <mulliken_charges>
24
1   -0.457546
2   -0.542463
3   -0.033788
4   -0.194184
5   -0.165179
6   -0.199256
7   -0.175829
8   0.404294
9   0.078112
10   0.391002
11   -0.462157
12   -0.511064
13   0.151316
14   0.1665
15   0.166516
16   0.167126
17   0.17949
18   0.167213
19   0.145297
20   0.145304
21   0.134405
22   0.164807
23   0.136425
24   0.143659

>  <lowdin_charges>
24
1   -0.448684
2   -0.476644
3   -0.124834
4   -0.137724
5   -0.120236
6   -0.218837
7   -0.181133
8   0.161653
9   -0.072088
10   0.117908
11   -0.254141
12   -0.193039
13   0.1595
14   0.161867
15   0.162253
16   0.16839
17   0.172223
18   0.167731
19   0.141462
20   0.141181
21   0.160862
22   0.178756
23   0.164804
24   0.16877

$$$$

