PCCDB-ID:  13643
public computational chemistry database (PCCDB) project, http://pccdb.org

 21 21  0  0  0  0  0  0  0  0999 V2000
    1.3977   -0.2613   -0.5661 C   0  0  0  0  0  0  0  0  0  0  0  0
    0.3813   -1.9475    4.5644 C   0  0  0  0  0  0  0  0  0  0  0  0
    0.3607   -0.5721    4.3344 C   0  0  0  0  0  0  0  0  0  0  0  0
    1.2121   -2.7666    3.7944 C   0  0  0  0  0  0  0  0  0  0  0  0
    1.1666   -0.0188    3.3365 C   0  0  0  0  0  0  0  0  0  0  0  0
    2.0190   -2.2135    2.8018 C   0  0  0  0  0  0  0  0  0  0  0  0
    2.8893   -0.2354    1.4877 C   0  0  0  0  0  0  0  0  0  0  0  0
    2.0038   -0.8310    2.5646 C   0  0  0  0  0  0  0  0  0  0  0  0
    3.3193   -1.6466   -0.4867 N   0  0  0  0  0  0  0  0  0  0  0  0
    2.5748   -0.7260    0.1419 N   0  0  0  0  0  0  0  0  0  0  0  0
    4.2814   -2.0786    0.1437 O   0  0  0  0  0  0  0  0  0  0  0  0
    0.4894   -0.4921    0.0020 H   0  0  0  0  0  0  0  0  0  0  0  0
    1.3675   -0.7746   -1.5289 H   0  0  0  0  0  0  0  0  0  0  0  0
    1.4463    0.8223   -0.7300 H   0  0  0  0  0  0  0  0  0  0  0  0
   -0.2446   -2.3804    5.3401 H   0  0  0  0  0  0  0  0  0  0  0  0
   -0.2818    0.0720    4.9289 H   0  0  0  0  0  0  0  0  0  0  0  0
    1.2356   -3.8385    3.9719 H   0  0  0  0  0  0  0  0  0  0  0  0
    1.1476    1.0548    3.1602 H   0  0  0  0  0  0  0  0  0  0  0  0
    2.6719   -2.8475    2.2080 H   0  0  0  0  0  0  0  0  0  0  0  0
    3.9380   -0.4970    1.6536 H   0  0  0  0  0  0  0  0  0  0  0  0
    2.7953    0.8564    1.4739 H   0  0  0  0  0  0  0  0  0  0  0  0
  1 12  1  0  0  0  0
  1 10  1  0  0  0  0
  2 15  1  0  0  0  0
  3  2  1  0  0  0  0
  3 16  1  0  0  0  0
  4 17  1  0  0  0  0
  4  2  2  0  0  0  0
  5  3  2  0  0  0  0
  6  4  1  0  0  0  0
  7 20  1  0  0  0  0
  7  8  1  0  0  0  0
  8  6  2  0  0  0  0
  8  5  1  0  0  0  0
  9 10  1  0  0  0  0
  9 11  2  0  0  0  0
 10  7  1  0  0  0  0
 13  1  1  0  0  0  0
 14  1  1  0  0  0  0
 18  5  1  0  0  0  0
 19  6  1  0  0  0  0
 21  7  1  0  0  0  0
M  END
>  <HBA>
3

>  <HBD>
0

>  <TPSA>
32.67

>  <cid>
13643

>  <dipole>
3.82

>  <excitation_energy_1>
3.388

>  <excitation_energy_2>
5.004

>  <excitation_energy_3>
5.123

>  <excitation_energy_4>
5.189

>  <homo_energy>
-6.082

>  <homo_lumo_gap>
5.173

>  <logP>
1.8

>  <lumo_energy>
-0.909

>  <melting_point>
28.17

>  <molecular_refractivity>
43.85

>  <oscillator_strength_1>
0.0005

>  <oscillator_strength_2>
0.0054

>  <oscillator_strength_3>
0.0362

>  <oscillator_strength_4>
0.0212

>  <open_babel_can_smiles>
O=NN(Cc1ccccc1)C

>  <mulliken_charges>
21
1   -0.309661
2   -0.128145
3   -0.127463
4   -0.129435
5   -0.189346
6   -0.176678
7   -0.254359
8   0.165152
9   0.152666
10   -0.1971
11   -0.380696
12   0.176531
13   0.191099
14   0.16185
15   0.132699
16   0.132045
17   0.135877
18   0.124371
19   0.157267
20   0.205098
21   0.158229

>  <lowdin_charges>
21
1   -0.353703
2   -0.155889
3   -0.156846
4   -0.14968
5   -0.167412
6   -0.159205
7   -0.212705
8   -0.016684
9   0.055146
10   -0.037846
11   -0.277856
12   0.162611
13   0.176733
14   0.152899
15   0.160233
16   0.160391
17   0.158772
18   0.15251
19   0.171116
20   0.182315
21   0.155104

$$$$

