PCCDB-ID:  67112
public computational chemistry database (PCCDB) project, http://pccdb.org

 29 29  0  0  0  0  0  0  0  0999 V2000
    2.2941   -0.7558    1.1524 C   0  0  0  0  0  0  0  0  0  0  0  0
    4.5185    1.3615   -2.4358 C   0  0  0  0  0  0  0  0  0  0  0  0
    3.5134   -1.5081    0.6498 C   0  0  0  0  0  0  0  0  0  0  0  0
    7.1762   -2.6763   -1.1622 C   0  0  0  0  0  0  0  0  0  0  0  0
    5.9527   -2.3360   -0.5746 C   0  0  0  0  0  0  0  0  0  0  0  0
    7.3591   -0.4629   -2.0765 C   0  0  0  0  0  0  0  0  0  0  0  0
    9.2421   -2.1042   -2.5203 C   0  0  0  0  0  0  0  0  0  0  0  0
    7.9024   -1.7488   -1.9159 C   0  0  0  0  0  0  0  0  0  0  0  0
    5.4247   -1.0520   -0.7329 C   0  0  0  0  0  0  0  0  0  0  0  0
    6.1423   -0.1071   -1.5069 C   0  0  0  0  0  0  0  0  0  0  0  0
   10.4784   -1.8374   -1.6405 C   0  0  0  0  0  0  0  0  0  0  0  0
   11.5978   -1.8252   -2.0878 O   0  0  0  0  0  0  0  0  0  0  0  0
   10.2526   -1.6536   -0.3193 O   0  0  0  0  0  0  0  0  0  0  0  0
    5.7019    1.1832   -1.6515 O   0  0  0  0  0  0  0  0  0  0  0  0
    4.2562   -0.6166   -0.1856 O   0  0  0  0  0  0  0  0  0  0  0  0
    1.7007   -1.4010    1.8089 H   0  0  0  0  0  0  0  0  0  0  0  0
    1.6624   -0.4379    0.3170 H   0  0  0  0  0  0  0  0  0  0  0  0
    2.5949    0.1324    1.7162 H   0  0  0  0  0  0  0  0  0  0  0  0
    4.3487    2.4395   -2.4794 H   0  0  0  0  0  0  0  0  0  0  0  0
    3.6551    0.8716   -1.9766 H   0  0  0  0  0  0  0  0  0  0  0  0
    4.6650    0.9759   -3.4534 H   0  0  0  0  0  0  0  0  0  0  0  0
    3.2185   -2.3972    0.0748 H   0  0  0  0  0  0  0  0  0  0  0  0
    4.1439   -1.8386    1.4870 H   0  0  0  0  0  0  0  0  0  0  0  0
    7.5588   -3.6862   -1.0330 H   0  0  0  0  0  0  0  0  0  0  0  0
    5.4193   -3.0804    0.0049 H   0  0  0  0  0  0  0  0  0  0  0  0
    7.8850    0.2950   -2.6507 H   0  0  0  0  0  0  0  0  0  0  0  0
    9.4155   -1.5657   -3.4567 H   0  0  0  0  0  0  0  0  0  0  0  0
    9.2787   -3.1721   -2.7717 H   0  0  0  0  0  0  0  0  0  0  0  0
    9.2909   -1.6621   -0.1566 H   0  0  0  0  0  0  0  0  0  0  0  0
  1 18  1  0  0  0  0
  1 16  1  0  0  0  0
  2 20  1  0  0  0  0
  2 14  1  0  0  0  0
  3  1  1  0  0  0  0
  3 23  1  0  0  0  0
  4 24  1  0  0  0  0
  4  5  2  0  0  0  0
  5 25  1  0  0  0  0
  6  8  2  0  0  0  0
  6 10  1  0  0  0  0
  7  8  1  0  0  0  0
  7 11  1  0  0  0  0
  8  4  1  0  0  0  0
  9  5  1  0  0  0  0
  9 15  1  0  0  0  0
 10  9  2  0  0  0  0
 11 13  1  0  0  0  0
 12 11  2  0  0  0  0
 13 29  1  0  0  0  0
 14 10  1  0  0  0  0
 15  3  1  0  0  0  0
 17  1  1  0  0  0  0
 19  2  1  0  0  0  0
 21  2  1  0  0  0  0
 22  3  1  0  0  0  0
 26  6  1  0  0  0  0
 27  7  1  0  0  0  0
 28  7  1  0  0  0  0
M  END
>  <HBA>
4

>  <HBD>
1

>  <TPSA>
55.76

>  <cid>
67112

>  <dipole>
7.2

>  <excitation_energy_1>
4.828

>  <excitation_energy_2>
5.292

>  <excitation_energy_3>
5.459

>  <excitation_energy_4>
5.524

>  <homo_energy>
-6.131

>  <homo_lumo_gap>
5.693

>  <logP>
1.721

>  <lumo_energy>
-0.438

>  <melting_point>
95.2

>  <molecular_refractivity>
55.78

>  <oscillator_strength_1>
0.0359

>  <oscillator_strength_2>
0.1062

>  <oscillator_strength_3>
0.02

>  <oscillator_strength_4>
0.002

>  <open_babel_can_smiles>
CCOc1ccc(cc1OC)CC(=O)O

>  <mulliken_charges>
29
1   -0.459141
2   -0.214193
3   -0.034204
4   -0.200249
5   -0.201047
6   -0.214106
7   -0.45443
8   0.087443
9   0.357911
10   0.316515
11   0.58824
12   -0.44436
13   -0.565561
14   -0.51791
15   -0.515393
16   0.153634
17   0.163385
18   0.170461
19   0.16381
20   0.163379
21   0.141701
22   0.144567
23   0.146928
24   0.136646
25   0.14378
26   0.145972
27   0.190479
28   0.189608
29   0.416134

>  <lowdin_charges>
29
1   -0.449833
2   -0.272632
3   -0.124729
4   -0.178164
5   -0.209141
6   -0.177679
7   -0.31257
8   -0.043969
9   0.08251
10   0.074939
11   0.190816
12   -0.247637
13   -0.353329
14   -0.219849
15   -0.193043
16   0.161583
17   0.160468
18   0.164079
19   0.157217
20   0.150715
21   0.138953
22   0.140433
23   0.142841
24   0.1598
25   0.168504
26   0.172249
27   0.181216
28   0.178487
29   0.357763

$$$$

