PCCDB-ID:  66835
public computational chemistry database (PCCDB) project, http://pccdb.org

 21 21  0  0  0  0  0  0  0  0999 V2000
    2.6701    0.9418    0.8041 C   0  0  0  0  0  0  0  0  0  0  0  0
    2.8396   -3.8613    0.2811 C   0  0  0  0  0  0  0  0  0  0  0  0
    2.1964   -5.0804    0.1495 C   0  0  0  0  0  0  0  0  0  0  0  0
    0.7081   -2.7431    0.3972 C   0  0  0  0  0  0  0  0  0  0  0  0
    2.1003   -2.6753    0.4069 C   0  0  0  0  0  0  0  0  0  0  0  0
    0.0576   -3.9666    0.2513 C   0  0  0  0  0  0  0  0  0  0  0  0
    0.7930   -5.1662    0.1262 C   0  0  0  0  0  0  0  0  0  0  0  0
    2.8432   -1.3939    0.5494 C   0  0  0  0  0  0  0  0  0  0  0  0
   -1.4113   -3.9448    0.2269 N   0  0  0  0  0  0  0  0  0  0  0  0
    0.1657   -6.3540    0.0191 O   0  0  0  0  0  0  0  0  0  0  0  0
    4.0559   -1.3091    0.5665 O   0  0  0  0  0  0  0  0  0  0  0  0
   -1.9641   -2.9426    0.6859 O   0  0  0  0  0  0  0  0  0  0  0  0
   -1.9994   -4.9061   -0.2601 O   0  0  0  0  0  0  0  0  0  0  0  0
    2.0187   -0.3310    0.6593 O   0  0  0  0  0  0  0  0  0  0  0  0
    1.8653    1.6732    0.8778 H   0  0  0  0  0  0  0  0  0  0  0  0
    3.3021    1.1487   -0.0634 H   0  0  0  0  0  0  0  0  0  0  0  0
    3.2876    0.9549    1.7059 H   0  0  0  0  0  0  0  0  0  0  0  0
    3.9229   -3.8039    0.2928 H   0  0  0  0  0  0  0  0  0  0  0  0
    2.7769   -5.9966    0.0610 H   0  0  0  0  0  0  0  0  0  0  0  0
    0.1059   -1.8508    0.5046 H   0  0  0  0  0  0  0  0  0  0  0  0
    0.8356   -7.0573   -0.0098 H   0  0  0  0  0  0  0  0  0  0  0  0
  1 15  1  0  0  0  0
  1 17  1  0  0  0  0
  2 18  1  0  0  0  0
  2  5  2  0  0  0  0
  3  2  1  0  0  0  0
  4  5  1  0  0  0  0
  4 20  1  0  0  0  0
  5  8  1  0  0  0  0
  6  4  2  0  0  0  0
  7  3  2  0  0  0  0
  7  6  1  0  0  0  0
  8 11  2  0  0  0  0
  8 14  1  0  0  0  0
  9  6  1  0  0  0  0
  9 12  2  0  0  0  0
 10  7  1  0  0  0  0
 13  9  2  0  0  0  0
 14  1  1  0  0  0  0
 16  1  1  0  0  0  0
 19  3  1  0  0  0  0
 21 10  1  0  0  0  0
M  END
>  <HBA>
3

>  <HBD>
1

>  <TPSA>
92.35

>  <cid>
66835

>  <dipole>
3.84

>  <excitation_energy_1>
3.702

>  <excitation_energy_2>
3.989

>  <excitation_energy_3>
4.264

>  <excitation_energy_4>
4.792

>  <homo_energy>
-7.075

>  <homo_lumo_gap>
4.754

>  <logP>
1.61

>  <lumo_energy>
-2.321

>  <melting_point>
110.03

>  <molecular_refractivity>
48.57

>  <oscillator_strength_1>
0.0065

>  <oscillator_strength_2>
0.0471

>  <oscillator_strength_3>
0.0018

>  <oscillator_strength_4>
0.0009

>  <open_babel_can_smiles>
COC(=O)c1ccc(c(c1)N(=O)=O)O

>  <mulliken_charges>
21
1   -0.218908
2   -0.136547
3   -0.21007
4   -0.197431
5   0.037608
6   0.25716
7   0.349013
8   0.602007
9   0.364104
10   -0.592516
11   -0.491689
12   -0.393682
13   -0.373304
14   -0.464799
15   0.171009
16   0.174342
17   0.174507
18   0.179366
19   0.142525
20   0.206946
21   0.420358

>  <lowdin_charges>
21
1   -0.276387
2   -0.09816
3   -0.20675
4   -0.110626
5   -0.058624
6   -0.026164
7   0.127788
8   0.191301
9   0.310182
10   -0.324376
11   -0.26775
12   -0.254367
13   -0.228183
14   -0.185883
15   0.164864
16   0.162417
17   0.162073
18   0.184346
19   0.165491
20   0.201642
21   0.367167

$$$$

