PCCDB-ID:  29737
public computational chemistry database (PCCDB) project, http://pccdb.org

 35 36  0  0  0  0  0  0  0  0999 V2000
    3.3660    0.5366   -0.9356 C   0  0  0  0  0  0  0  0  0  0  0  0
    4.0619   -2.5259    5.0576 C   0  0  0  0  0  0  0  0  0  0  0  0
    4.8541   -0.2508    7.3079 C   0  0  0  0  0  0  0  0  0  0  0  0
    4.6221    3.9205    4.5135 C   0  0  0  0  0  0  0  0  0  0  0  0
    4.1851   -2.5027    1.4640 C   0  0  0  0  0  0  0  0  0  0  0  0
    2.3869    0.1868    0.1993 C   0  0  0  0  0  0  0  0  0  0  0  0
    3.0999    1.8024    2.0057 C   0  0  0  0  0  0  0  0  0  0  0  0
    4.0806   -1.0313    4.9307 C   0  0  0  0  0  0  0  0  0  0  0  0
    4.4095   -0.1250    5.8930 C   0  0  0  0  0  0  0  0  0  0  0  0
    2.9298    0.4680    1.5871 C   0  0  0  0  0  0  0  0  0  0  0  0
    3.5725    2.1552    3.2698 C   0  0  0  0  0  0  0  0  0  0  0  0
    3.7236   -0.2526    3.7577 C   0  0  0  0  0  0  0  0  0  0  0  0
    3.2599   -0.5690    2.4676 C   0  0  0  0  0  0  0  0  0  0  0  0
    3.8684    1.0926    4.1323 C   0  0  0  0  0  0  0  0  0  0  0  0
    3.6478    3.4874    3.5658 O   0  0  0  0  0  0  0  0  0  0  0  0
    3.0721   -1.8987    2.1187 O   0  0  0  0  0  0  0  0  0  0  0  0
    4.2907    1.1749    5.4356 O   0  0  0  0  0  0  0  0  0  0  0  0
    2.9196    0.3221   -1.9137 H   0  0  0  0  0  0  0  0  0  0  0  0
    4.2950   -0.0395   -0.8543 H   0  0  0  0  0  0  0  0  0  0  0  0
    3.6360    1.5984   -0.9150 H   0  0  0  0  0  0  0  0  0  0  0  0
    4.2093   -2.8405    6.0954 H   0  0  0  0  0  0  0  0  0  0  0  0
    4.8513   -2.9950    4.4563 H   0  0  0  0  0  0  0  0  0  0  0  0
    3.1099   -2.9363    4.7069 H   0  0  0  0  0  0  0  0  0  0  0  0
    4.9095   -1.3016    7.6020 H   0  0  0  0  0  0  0  0  0  0  0  0
    4.1610    0.2603    7.9878 H   0  0  0  0  0  0  0  0  0  0  0  0
    5.8450    0.1974    7.4543 H   0  0  0  0  0  0  0  0  0  0  0  0
    4.6206    5.0114    4.4576 H   0  0  0  0  0  0  0  0  0  0  0  0
    5.6204    3.5445    4.2559 H   0  0  0  0  0  0  0  0  0  0  0  0
    4.3715    3.6037    5.5298 H   0  0  0  0  0  0  0  0  0  0  0  0
    3.9163   -3.5487    1.2949 H   0  0  0  0  0  0  0  0  0  0  0  0
    5.0900   -2.4558    2.0845 H   0  0  0  0  0  0  0  0  0  0  0  0
    4.3952   -2.0224    0.4996 H   0  0  0  0  0  0  0  0  0  0  0  0
    2.1046   -0.8681    0.1340 H   0  0  0  0  0  0  0  0  0  0  0  0
    1.4648    0.7660    0.0567 H   0  0  0  0  0  0  0  0  0  0  0  0
    2.8451    2.6143    1.3302 H   0  0  0  0  0  0  0  0  0  0  0  0
  1 20  1  0  0  0  0
  1 19  1  0  0  0  0
  1  6  1  0  0  0  0
  2 21  1  0  0  0  0
  3 26  1  0  0  0  0
  3 24  1  0  0  0  0
  3 25  1  0  0  0  0
  4 29  1  0  0  0  0
  5 31  1  0  0  0  0
  5 16  1  0  0  0  0
  6 10  1  0  0  0  0
  7 11  1  0  0  0  0
  8  2  1  0  0  0  0
  8  9  2  0  0  0  0
  9  3  1  0  0  0  0
 10  7  2  0  0  0  0
 10 13  1  0  0  0  0
 11 15  1  0  0  0  0
 11 14  2  0  0  0  0
 12 14  1  0  0  0  0
 12  8  1  0  0  0  0
 13 12  2  0  0  0  0
 14 17  1  0  0  0  0
 15  4  1  0  0  0  0
 16 13  1  0  0  0  0
 17  9  1  0  0  0  0
 18  1  1  0  0  0  0
 22  2  1  0  0  0  0
 23  2  1  0  0  0  0
 27  4  1  0  0  0  0
 28  4  1  0  0  0  0
 30  5  1  0  0  0  0
 32  5  1  0  0  0  0
 33  6  1  0  0  0  0
 34  6  1  0  0  0  0
 35  7  1  0  0  0  0
M  END
>  <HBA>
3

>  <HBD>
0

>  <TPSA>
31.6

>  <cid>
29737

>  <dipole>
2.48

>  <excitation_energy_1>
4.572

>  <excitation_energy_2>
4.818

>  <excitation_energy_3>
4.935

>  <excitation_energy_4>
5.184

>  <homo_energy>
-5.219

>  <homo_lumo_gap>
5.159

>  <logP>
3.629

>  <lumo_energy>
-0.06

>  <melting_point>
72.95

>  <molecular_refractivity>
68.9

>  <oscillator_strength_1>
0.0963

>  <oscillator_strength_2>
0.034

>  <oscillator_strength_3>
0.1057

>  <oscillator_strength_4>
0.0044

>  <open_babel_can_smiles>
CCc1cc(OC)c2c(c1OC)c(C)c(o2)C

>  <mulliken_charges>
35
1   -0.44095
2   -0.525785
3   -0.538298
4   -0.213118
5   -0.208263
6   -0.347232
7   -0.28332
8   0.0601
9   0.294047
10   0.175444
11   0.333568
12   0.095129
13   0.156298
14   0.25253
15   -0.526798
16   -0.535683
17   -0.532751
18   0.142035
19   0.145494
20   0.148943
21   0.146619
22   0.155813
23   0.17934
24   0.168052
25   0.173186
26   0.170685
27   0.159835
28   0.147669
29   0.167161
30   0.157242
31   0.141658
32   0.146492
33   0.158594
34   0.14705
35   0.129211

>  <lowdin_charges>
35
1   -0.44006
2   -0.435926
3   -0.442209
4   -0.273043
5   -0.272613
6   -0.271983
7   -0.195584
8   -0.057242
9   0.073449
10   -0.024549
11   0.074881
12   -0.043795
13   0.059392
14   0.049712
15   -0.208354
16   -0.236318
17   -0.13423
18   0.148206
19   0.145169
20   0.147882
21   0.152355
22   0.157339
23   0.170179
24   0.1667
25   0.169287
26   0.166388
27   0.154521
28   0.144018
29   0.151364
30   0.153238
31   0.138807
32   0.140068
33   0.155754
34   0.15178
35   0.165416

$$$$

