PCCDB-ID:  13281
public computational chemistry database (PCCDB) project, http://pccdb.org

 28 28  0  0  0  0  0  0  0  0999 V2000
    4.0569    0.8341    3.5349 C   0  0  0  0  0  0  0  0  0  0  0  0
    5.3246    0.9777    2.7078 C   0  0  0  0  0  0  0  0  0  0  0  0
    1.1353   -1.9665   -0.8409 C   0  0  0  0  0  0  0  0  0  0  0  0
    1.7193    0.3738   -1.1249 C   0  0  0  0  0  0  0  0  0  0  0  0
   -0.1981   -1.6778   -1.0987 C   0  0  0  0  0  0  0  0  0  0  0  0
    0.3831    0.6765   -1.3791 C   0  0  0  0  0  0  0  0  0  0  0  0
    4.6455   -0.2994   -0.7215 C   0  0  0  0  0  0  0  0  0  0  0  0
    2.1051   -0.9492   -0.8557 C   0  0  0  0  0  0  0  0  0  0  0  0
   -0.5514   -0.3549   -1.3661 C   0  0  0  0  0  0  0  0  0  0  0  0
    3.5277   -1.3469   -0.5832 C   0  0  0  0  0  0  0  0  0  0  0  0
    4.6675    0.6950    0.4340 C   0  0  0  0  0  0  0  0  0  0  0  0
   -1.9660   -0.0378   -1.6427 N   0  0  0  0  0  0  0  0  0  0  0  0
    3.8073   -2.4923   -0.2799 O   0  0  0  0  0  0  0  0  0  0  0  0
    4.2006    1.8147    0.3875 O   0  0  0  0  0  0  0  0  0  0  0  0
   -2.7717   -0.9668   -1.6209 O   0  0  0  0  0  0  0  0  0  0  0  0
   -2.2517    1.1350   -1.8780 O   0  0  0  0  0  0  0  0  0  0  0  0
    5.2644    0.1573    1.5096 O   0  0  0  0  0  0  0  0  0  0  0  0
    4.1616    1.3956    4.4702 H   0  0  0  0  0  0  0  0  0  0  0  0
    3.8707   -0.2157    3.7831 H   0  0  0  0  0  0  0  0  0  0  0  0
    3.1931    1.2308    2.9939 H   0  0  0  0  0  0  0  0  0  0  0  0
    6.1997    0.6011    3.2418 H   0  0  0  0  0  0  0  0  0  0  0  0
    5.4953    2.0152    2.4118 H   0  0  0  0  0  0  0  0  0  0  0  0
    1.4535   -2.9810   -0.6272 H   0  0  0  0  0  0  0  0  0  0  0  0
    2.4468    1.1778   -1.1082 H   0  0  0  0  0  0  0  0  0  0  0  0
   -0.9608   -2.4465   -1.0980 H   0  0  0  0  0  0  0  0  0  0  0  0
    0.0604    1.6896   -1.5839 H   0  0  0  0  0  0  0  0  0  0  0  0
    4.5294    0.2692   -1.6477 H   0  0  0  0  0  0  0  0  0  0  0  0
    5.5836   -0.8566   -0.7392 H   0  0  0  0  0  0  0  0  0  0  0  0
  1 19  1  0  0  0  0
  1 18  1  0  0  0  0
  2 21  1  0  0  0  0
  2  1  1  0  0  0  0
  3 23  1  0  0  0  0
  4 24  1  0  0  0  0
  4  8  2  0  0  0  0
  5 25  1  0  0  0  0
  5  3  2  0  0  0  0
  6  9  2  0  0  0  0
  6  4  1  0  0  0  0
  7 10  1  0  0  0  0
  7 11  1  0  0  0  0
  8  3  1  0  0  0  0
  8 10  1  0  0  0  0
  9  5  1  0  0  0  0
 10 13  2  0  0  0  0
 11 17  1  0  0  0  0
 12 15  2  0  0  0  0
 12  9  1  0  0  0  0
 14 11  2  0  0  0  0
 16 12  2  0  0  0  0
 17  2  1  0  0  0  0
 20  1  1  0  0  0  0
 22  2  1  0  0  0  0
 26  6  1  0  0  0  0
 27  7  1  0  0  0  0
 28  7  1  0  0  0  0
M  END
>  <HBA>
3

>  <HBD>
0

>  <TPSA>
89.19

>  <cid>
13281

>  <dipole>
4.22

>  <excitation_energy_1>
3.348

>  <excitation_energy_2>
3.636

>  <excitation_energy_3>
4.043

>  <excitation_energy_4>
4.134

>  <homo_energy>
-7.423

>  <homo_lumo_gap>
4.452

>  <logP>
2.254

>  <lumo_energy>
-2.972

>  <melting_point>
88.46

>  <molecular_refractivity>
61.16

>  <oscillator_strength_1>
0.0009

>  <oscillator_strength_2>
0.0

>  <oscillator_strength_3>
0.0232

>  <oscillator_strength_4>
0.0003

>  <open_babel_can_smiles>
CCOC(=O)CC(=O)c1ccc(cc1)N(=O)=O

>  <mulliken_charges>
28
1   -0.464709
2   -0.051847
3   -0.168771
4   -0.198454
5   -0.151382
6   -0.160268
7   -0.434707
8   0.082858
9   0.28427
10   0.398354
11   0.611574
12   0.383454
13   -0.429074
14   -0.466822
15   -0.38744
16   -0.388414
17   -0.439647
18   0.157382
19   0.166435
20   0.174961
21   0.162504
22   0.175713
23   0.180553
24   0.189786
25   0.189785
26   0.191593
27   0.18987
28   0.202442

>  <lowdin_charges>
28
1   -0.453933
2   -0.125565
3   -0.120293
4   -0.143512
5   -0.139438
6   -0.136456
7   -0.324033
8   -0.034516
9   0.017497
10   0.161858
11   0.19582
12   0.307394
13   -0.214599
14   -0.267434
15   -0.240264
16   -0.238326
17   -0.178235
18   0.162903
19   0.159671
20   0.165562
21   0.158513
22   0.160128
23   0.184397
24   0.187002
25   0.191882
26   0.190983
27   0.181441
28   0.191552

$$$$

