PCCDB-ID:  21807
public computational chemistry database (PCCDB) project, http://pccdb.org

 23 23  0  0  1  0  0  0  0  0999 V2000
    1.9452   -0.0939   -0.8882 C   0  0  0  0  0  0  0  0  0  0  0  0
    3.2580   -5.1091   -0.4165 C   0  0  0  0  0  0  0  0  0  0  0  0
    2.7733    0.1152    0.3791 C   0  0  0  0  0  0  0  0  0  0  0  0
    2.6350   -4.7459    0.9425 C   0  0  0  0  0  0  0  0  0  0  0  0
    3.1318   -1.1630    1.1020 C   0  0  2  0  0  0  0  0  0  0  0  0
    3.1182   -3.4131    1.4524 C   0  0  0  0  0  0  0  0  0  0  0  0
    4.3118   -2.1613    2.9975 C   0  0  0  0  0  0  0  0  0  0  0  0
    5.0399   -2.0875    4.0463 N   0  0  0  0  0  0  0  0  0  0  0  0
    2.7195   -2.3216    0.6811 N   0  0  0  0  0  0  0  0  0  0  0  0
    3.9025   -1.0385    2.2189 N   0  0  0  0  0  0  0  0  0  0  0  0
    3.8523   -3.3844    2.5243 N   0  0  0  0  0  0  0  0  0  0  0  0
    1.7225    0.8725   -1.3517 H   0  0  0  0  0  0  0  0  0  0  0  0
    1.0031   -0.5995   -0.6617 H   0  0  0  0  0  0  0  0  0  0  0  0
    2.4835   -0.7125   -1.6111 H   0  0  0  0  0  0  0  0  0  0  0  0
    2.8596   -6.0637   -0.7763 H   0  0  0  0  0  0  0  0  0  0  0  0
    4.3463   -5.2056   -0.3344 H   0  0  0  0  0  0  0  0  0  0  0  0
    3.0357   -4.3397   -1.1623 H   0  0  0  0  0  0  0  0  0  0  0  0
    2.2335    0.7628    1.0854 H   0  0  0  0  0  0  0  0  0  0  0  0
    3.7071    0.6460    0.1433 H   0  0  0  0  0  0  0  0  0  0  0  0
    2.8700   -5.5049    1.6928 H   0  0  0  0  0  0  0  0  0  0  0  0
    1.5439   -4.6922    0.8331 H   0  0  0  0  0  0  0  0  0  0  0  0
    5.2921   -1.1175    4.2552 H   0  0  0  0  0  0  0  0  0  0  0  0
    4.2038   -0.1169    2.5134 H   0  0  0  0  0  0  0  0  0  0  0  0
  1 13  1  0  0  0  0
  1  3  1  0  0  0  0
  2 16  1  0  0  0  0
  2  4  1  0  0  0  0
  3 18  1  0  0  0  0
  4  6  1  0  0  0  0
  4 20  1  0  0  0  0
  5  3  1  1  0  0  0
  5 10  1  0  0  0  0
  6 11  1  0  0  0  0
  7  8  1  0  0  0  0
  8 22  1  0  0  0  0
  9  5  1  0  0  0  0
  9  6  2  0  0  0  0
 10 23  1  0  0  0  0
 10  7  1  0  0  0  0
 11  7  2  0  0  0  0
 12  1  1  0  0  0  0
 14  1  1  0  0  0  0
 15  2  1  0  0  0  0
 17  2  1  0  0  0  0
 19  3  1  0  0  0  0
 21  4  1  0  0  0  0
M  RAD  2   5   2   8   2
M  END
>  <HBA>
4

>  <HBD>
1

>  <TPSA>
64.69

>  <cid>
21807

>  <dipole>
5.44

>  <excitation_energy_1>
4.175

>  <excitation_energy_2>
4.204

>  <excitation_energy_3>
5.059

>  <excitation_energy_4>
5.096

>  <homo_energy>
-6.204

>  <homo_lumo_gap>
4.991

>  <logP>
1.16

>  <lumo_energy>
-1.214

>  <melting_point>
107.34

>  <molecular_refractivity>
43.78

>  <oscillator_strength_1>
0.0328

>  <oscillator_strength_2>
0.0028

>  <oscillator_strength_3>
0.0003

>  <oscillator_strength_4>
0.0009

>  <open_babel_can_smiles>
CC[C]1NC(=NC(=N1)CC)[NH]

>  <mulliken_charges>
23
1   -0.428594
2   -0.452886
3   -0.361608
4   -0.306074
5   0.559281
6   0.421172
7   0.596286
8   -0.612323
9   -0.514122
10   -0.655912
11   -0.446693
12   0.145595
13   0.170819
14   0.168304
15   0.149229
16   0.154972
17   0.163357
18   0.169766
19   0.166732
20   0.167874
21   0.154766
22   0.258833
23   0.331226

>  <lowdin_charges>
23
1   -0.436645
2   -0.438663
3   -0.287926
4   -0.273495
5   0.133777
6   0.114332
7   0.116506
8   -0.414916
9   -0.227995
10   -0.235495
11   -0.174421
12   0.153669
13   0.164405
14   0.164251
15   0.153515
16   0.151074
17   0.157807
18   0.165365
19   0.162414
20   0.165274
21   0.157775
22   0.239839
23   0.289554

$$$$

