PCCDB-ID:  9250
public computational chemistry database (PCCDB) project, http://pccdb.org

 12 12  0  0  0  0  0  0  0  0999 V2000
    0.3409    1.0539    0.0403 C   0  0  0  0  0  0  0  0  0  0  0  0
   -1.0489    0.3562   -0.0403 C   0  0  0  0  0  0  0  0  0  0  0  0
    1.0394   -0.3377    0.0434 C   0  0  0  0  0  0  0  0  0  0  0  0
   -0.3500   -1.0353   -0.0433 C   0  0  0  0  0  0  0  0  0  0  0  0
    0.5020    1.6479    0.9457 H   0  0  0  0  0  0  0  0  0  0  0  0
    0.5847    1.6840   -0.8210 H   0  0  0  0  0  0  0  0  0  0  0  0
   -1.6215    0.5817   -0.9456 H   0  0  0  0  0  0  0  0  0  0  0  0
   -1.6999    0.5371    0.8210 H   0  0  0  0  0  0  0  0  0  0  0  0
    1.6055   -0.5613    0.9533 H   0  0  0  0  0  0  0  0  0  0  0  0
    1.6965   -0.5209   -0.8128 H   0  0  0  0  0  0  0  0  0  0  0  0
   -0.5089   -1.6228   -0.9533 H   0  0  0  0  0  0  0  0  0  0  0  0
   -0.5958   -1.6717    0.8128 H   0  0  0  0  0  0  0  0  0  0  0  0
  1  3  1  0  0  0  0
  1  5  1  0  0  0  0
  2  1  1  0  0  0  0
  2  8  1  0  0  0  0
  3  9  1  0  0  0  0
  4  2  1  0  0  0  0
  4  3  1  0  0  0  0
  4 12  1  0  0  0  0
  6  1  1  0  0  0  0
  7  2  1  0  0  0  0
 10  3  1  0  0  0  0
 11  4  1  0  0  0  0
M  END
>  <HBA>
0

>  <HBD>
0

>  <TPSA>
0.0

>  <cid>
9250

>  <dipole>
0.0

>  <excitation_energy_1>
7.795

>  <excitation_energy_2>
7.796

>  <excitation_energy_3>
7.929

>  <excitation_energy_4>
7.96

>  <homo_energy>
-8.025

>  <homo_lumo_gap>
10.602

>  <logP>
1.56

>  <lumo_energy>
2.577

>  <melting_point>
-2.66

>  <molecular_refractivity>
19.23

>  <oscillator_strength_1>
0.0476

>  <oscillator_strength_2>
0.0476

>  <oscillator_strength_3>
0.0

>  <oscillator_strength_4>
0.0

>  <open_babel_can_smiles>
C1CCC1

>  <mulliken_charges>
12
1   -0.272279
2   -0.272488
3   -0.272461
4   -0.27241
5   0.136166
6   0.136221
7   0.136208
8   0.136216
9   0.136223
10   0.136203
11   0.136187
12   0.136214

>  <lowdin_charges>
12
1   -0.287932
2   -0.287972
3   -0.287957
4   -0.287943
5   0.143801
6   0.144159
7   0.143873
8   0.14408
9   0.14389
10   0.144054
11   0.143815
12   0.144131

$$$$

