PCCDB-ID:  61038
public computational chemistry database (PCCDB) project, http://pccdb.org

 31 30  0  0  0  0  0  0  0  0999 V2000
    5.0538   -1.9305   -0.3633 C   0  0  0  0  0  0  0  0  0  0  0  0
    3.9082    1.8629   -4.3691 C   0  0  0  0  0  0  0  0  0  0  0  0
    5.0496   -0.3989   -0.3972 C   0  0  0  0  0  0  0  0  0  0  0  0
    5.4415    1.8864   -4.3193 C   0  0  0  0  0  0  0  0  0  0  0  0
    5.5671    0.1776   -1.7232 C   0  0  0  0  0  0  0  0  0  0  0  0
    5.5666    1.7136   -1.7330 C   0  0  0  0  0  0  0  0  0  0  0  0
    5.8187    3.9190   -2.8375 C   0  0  0  0  0  0  0  0  0  0  0  0
    7.6282    2.2141   -3.1472 C   0  0  0  0  0  0  0  0  0  0  0  0
    6.0926    2.4127   -3.0144 C   0  0  0  0  0  0  0  0  0  0  0  0
    6.6185    4.6591   -3.7723 O   0  0  0  0  0  0  0  0  0  0  0  0
    8.3814    2.9805   -2.2153 O   0  0  0  0  0  0  0  0  0  0  0  0
    4.6810   -2.3110    0.5946 H   0  0  0  0  0  0  0  0  0  0  0  0
    6.0666   -2.3267   -0.5075 H   0  0  0  0  0  0  0  0  0  0  0  0
    4.4204   -2.3474   -1.1562 H   0  0  0  0  0  0  0  0  0  0  0  0
    3.5675    1.4829   -5.3391 H   0  0  0  0  0  0  0  0  0  0  0  0
    3.4759    2.8624   -4.2458 H   0  0  0  0  0  0  0  0  0  0  0  0
    3.4765    1.2190   -3.5952 H   0  0  0  0  0  0  0  0  0  0  0  0
    5.6624   -0.0119    0.4290 H   0  0  0  0  0  0  0  0  0  0  0  0
    4.0294   -0.0308   -0.2166 H   0  0  0  0  0  0  0  0  0  0  0  0
    5.8118    2.5061   -5.1459 H   0  0  0  0  0  0  0  0  0  0  0  0
    5.8168    0.8719   -4.5125 H   0  0  0  0  0  0  0  0  0  0  0  0
    4.9501   -0.2129   -2.5437 H   0  0  0  0  0  0  0  0  0  0  0  0
    6.5827   -0.2022   -1.8987 H   0  0  0  0  0  0  0  0  0  0  0  0
    6.1821    2.0680   -0.8951 H   0  0  0  0  0  0  0  0  0  0  0  0
    4.5431    2.0619   -1.5275 H   0  0  0  0  0  0  0  0  0  0  0  0
    6.0736    4.2146   -1.8100 H   0  0  0  0  0  0  0  0  0  0  0  0
    4.7518    4.1333   -2.9891 H   0  0  0  0  0  0  0  0  0  0  0  0
    7.9355    2.4494   -4.1752 H   0  0  0  0  0  0  0  0  0  0  0  0
    7.8862    1.1665   -2.9630 H   0  0  0  0  0  0  0  0  0  0  0  0
    6.3604    5.5912   -3.7133 H   0  0  0  0  0  0  0  0  0  0  0  0
    8.3218    3.8944   -2.5417 H   0  0  0  0  0  0  0  0  0  0  0  0
  1 12  1  0  0  0  0
  2  4  1  0  0  0  0
  2 16  1  0  0  0  0
  2 17  1  0  0  0  0
  3  1  1  0  0  0  0
  3 19  1  0  0  0  0
  3 18  1  0  0  0  0
  4  9  1  0  0  0  0
  5  3  1  0  0  0  0
  6  5  1  0  0  0  0
  6 25  1  0  0  0  0
  6 24  1  0  0  0  0
  7 26  1  0  0  0  0
  8  9  1  0  0  0  0
  8 29  1  0  0  0  0
  8 11  1  0  0  0  0
  9  7  1  0  0  0  0
  9  6  1  0  0  0  0
 10 30  1  0  0  0  0
 10  7  1  0  0  0  0
 13  1  1  0  0  0  0
 14  1  1  0  0  0  0
 15  2  1  0  0  0  0
 20  4  1  0  0  0  0
 21  4  1  0  0  0  0
 22  5  1  0  0  0  0
 23  5  1  0  0  0  0
 27  7  1  0  0  0  0
 28  8  1  0  0  0  0
 31 11  1  0  0  0  0
M  END
>  <HBA>
2

>  <HBD>
2

>  <TPSA>
40.46

>  <cid>
61038

>  <dipole>
2.51

>  <excitation_energy_1>
5.99

>  <excitation_energy_2>
6.377

>  <excitation_energy_3>
6.81

>  <excitation_energy_4>
6.855

>  <homo_energy>
-6.746

>  <homo_lumo_gap>
8.245

>  <logP>
1.558

>  <lumo_energy>
1.499

>  <melting_point>
27.37

>  <molecular_refractivity>
47.44

>  <oscillator_strength_1>
0.0015

>  <oscillator_strength_2>
0.0015

>  <oscillator_strength_3>
0.0079

>  <oscillator_strength_4>
0.0041

>  <open_babel_can_smiles>
CCCCC(CO)(CO)CC

>  <mulliken_charges>
31
1   -0.442535
2   -0.457757
3   -0.247413
4   -0.275469
5   -0.261676
6   -0.284659
7   -0.073832
8   -0.046224
9   0.081072
10   -0.637112
11   -0.637164
12   0.141526
13   0.142779
14   0.13992
15   0.144792
16   0.14154
17   0.148943
18   0.134414
19   0.127904
20   0.148368
21   0.134297
22   0.132452
23   0.135498
24   0.149636
25   0.123001
26   0.135185
27   0.129684
28   0.133474
29   0.140039
30   0.39834
31   0.400977

>  <lowdin_charges>
31
1   -0.445241
2   -0.450413
3   -0.270631
4   -0.279447
5   -0.2793
6   -0.280213
7   -0.144699
8   -0.139808
9   -0.021059
10   -0.475271
11   -0.471864
12   0.149217
13   0.146205
14   0.146432
15   0.15216
16   0.143992
17   0.149375
18   0.141613
19   0.136514
20   0.151521
21   0.142321
22   0.140179
23   0.139758
24   0.152174
25   0.136347
26   0.132948
27   0.132001
28   0.134254
29   0.142627
30   0.347281
31   0.341026

$$$$

