PCCDB-ID:  17024
public computational chemistry database (PCCDB) project, http://pccdb.org

 43 42  0  0  1  0  0  0  0  0999 V2000
    5.9969   -0.4966   -2.9025 C   0  0  0  0  0  0  0  0  0  0  0  0
    0.1930   -4.4373   -1.9342 C   0  0  0  0  0  0  0  0  0  0  0  0
   -1.5730    2.1519   -5.8320 C   0  0  0  0  0  0  0  0  0  0  0  0
    4.8398    0.4605   -2.6010 C   0  0  0  0  0  0  0  0  0  0  0  0
    0.9554   -3.1639   -1.5582 C   0  0  0  0  0  0  0  0  0  0  0  0
   -1.5071    1.6749   -4.3787 C   0  0  0  0  0  0  0  0  0  0  0  0
    2.3700    0.7172   -2.0459 C   0  0  0  0  0  0  0  0  0  0  0  0
    0.7930   -0.7143   -0.8186 C   0  0  0  0  0  0  0  0  0  0  0  0
   -0.0688    0.8482   -2.4547 C   0  0  0  0  0  0  0  0  0  0  0  0
    3.5120   -0.2606   -2.3732 C   0  0  1  0  0  0  0  0  0  0  0  0
    0.0470   -2.0473   -1.0301 C   0  0  2  0  0  0  0  0  0  0  0  0
   -0.0821    1.3251   -3.9184 C   0  0  2  0  0  0  0  0  0  0  0  0
    1.0746    0.0103   -2.0702 N   0  0  0  0  0  0  0  0  0  0  0  0
    3.1729   -0.9886   -3.5486 O   0  0  0  0  0  0  0  0  0  0  0  0
   -0.6092   -2.4380    0.1806 O   0  0  0  0  0  0  0  0  0  0  0  0
    0.8102    2.4247   -4.1451 O   0  0  0  0  0  0  0  0  0  0  0  0
    6.1721   -1.1842   -2.0654 H   0  0  0  0  0  0  0  0  0  0  0  0
    6.9272    0.0538   -3.0826 H   0  0  0  0  0  0  0  0  0  0  0  0
    5.7752   -1.0976   -3.7892 H   0  0  0  0  0  0  0  0  0  0  0  0
    0.8792   -5.2346   -2.2394 H   0  0  0  0  0  0  0  0  0  0  0  0
   -0.4945   -4.2520   -2.7686 H   0  0  0  0  0  0  0  0  0  0  0  0
   -0.4012   -4.7975   -1.0884 H   0  0  0  0  0  0  0  0  0  0  0  0
   -2.5959    2.4296   -6.1085 H   0  0  0  0  0  0  0  0  0  0  0  0
   -1.2414    1.3636   -6.5184 H   0  0  0  0  0  0  0  0  0  0  0  0
   -0.9242    3.0185   -5.9883 H   0  0  0  0  0  0  0  0  0  0  0  0
    4.7100    1.1606   -3.4366 H   0  0  0  0  0  0  0  0  0  0  0  0
    5.0702    1.0612   -1.7095 H   0  0  0  0  0  0  0  0  0  0  0  0
    1.5305   -2.7936   -2.4147 H   0  0  0  0  0  0  0  0  0  0  0  0
    1.6993   -3.3921   -0.7771 H   0  0  0  0  0  0  0  0  0  0  0  0
   -2.1491    0.7942   -4.2446 H   0  0  0  0  0  0  0  0  0  0  0  0
   -1.9129    2.4516   -3.7107 H   0  0  0  0  0  0  0  0  0  0  0  0
    2.3425    1.4854   -2.8213 H   0  0  0  0  0  0  0  0  0  0  0  0
    2.5501    1.2147   -1.0763 H   0  0  0  0  0  0  0  0  0  0  0  0
    1.7449   -0.9225   -0.3149 H   0  0  0  0  0  0  0  0  0  0  0  0
    0.1966   -0.0962   -0.1267 H   0  0  0  0  0  0  0  0  0  0  0  0
   -0.9715    0.2501   -2.2895 H   0  0  0  0  0  0  0  0  0  0  0  0
   -0.1637    1.7338   -1.7927 H   0  0  0  0  0  0  0  0  0  0  0  0
    3.6420   -0.9653   -1.5302 H   0  0  0  0  0  0  0  0  0  0  0  0
   -0.7742   -1.8863   -1.7396 H   0  0  0  0  0  0  0  0  0  0  0  0
    0.3156    0.5215   -4.5491 H   0  0  0  0  0  0  0  0  0  0  0  0
    2.1984   -1.0496   -3.5107 H   0  0  0  0  0  0  0  0  0  0  0  0
    0.0821   -2.6910    0.8144 H   0  0  0  0  0  0  0  0  0  0  0  0
    0.4890    3.1692   -3.6092 H   0  0  0  0  0  0  0  0  0  0  0  0
  1  4  1  0  0  0  0
  1 17  1  0  0  0  0
  2  5  1  0  0  0  0
  2 22  1  0  0  0  0
  3  6  1  0  0  0  0
  4 10  1  0  0  0  0
  4 27  1  0  0  0  0
  5 11  1  0  0  0  0
  5 29  1  0  0  0  0
  6 30  1  0  0  0  0
  6 12  1  0  0  0  0
  6 31  1  0  0  0  0
  7 33  1  0  0  0  0
  8 34  1  0  0  0  0
  8 35  1  0  0  0  0
  9 36  1  0  0  0  0
  9 13  1  0  0  0  0
  9 37  1  0  0  0  0
 10  7  1  0  0  0  0
 10 38  1  1  0  0  0
 11 39  1  6  0  0  0
 11  8  1  0  0  0  0
 11 15  1  0  0  0  0
 12 40  1  6  0  0  0
 12  9  1  0  0  0  0
 13  7  1  0  0  0  0
 13  8  1  0  0  0  0
 14 41  1  0  0  0  0
 14 10  1  0  0  0  0
 15 42  1  0  0  0  0
 16 12  1  0  0  0  0
 16 43  1  0  0  0  0
 18  1  1  0  0  0  0
 19  1  1  0  0  0  0
 20  2  1  0  0  0  0
 21  2  1  0  0  0  0
 23  3  1  0  0  0  0
 24  3  1  0  0  0  0
 25  3  1  0  0  0  0
 26  4  1  0  0  0  0
 28  5  1  0  0  0  0
 32  7  1  0  0  0  0
M  END
>  <HBA>
4

>  <HBD>
3

>  <TPSA>
63.93

>  <cid>
17024

>  <dipole>
2.74

>  <excitation_energy_1>
5.652

>  <excitation_energy_2>
5.694

>  <excitation_energy_3>
5.953

>  <excitation_energy_4>
6.244

>  <homo_energy>
-6.172

>  <homo_lumo_gap>
7.823

>  <logP>
0.601

>  <lumo_energy>
1.652

>  <melting_point>
27.94

>  <molecular_refractivity>
66.18

>  <oscillator_strength_1>
0.067

>  <oscillator_strength_2>
0.0288

>  <oscillator_strength_3>
0.0164

>  <oscillator_strength_4>
0.0324

>  <open_babel_can_smiles>
CC[C@H](CN(C[C@H](CC)O)C[C@@H](CC)O)O

>  <mulliken_charges>
43
1   -0.445751
2   -0.443346
3   -0.438731
4   -0.255328
5   -0.277898
6   -0.278191
7   -0.182071
8   -0.155865
9   -0.133653
10   0.161031
11   0.142819
12   0.128709
13   -0.44083
14   -0.654021
15   -0.62418
16   -0.61123
17   0.134151
18   0.136634
19   0.171543
20   0.144913
21   0.141717
22   0.156024
23   0.142693
24   0.147283
25   0.158516
26   0.142806
27   0.121263
28   0.151315
29   0.116588
30   0.138638
31   0.123552
32   0.187494
33   0.113838
34   0.133203
35   0.136231
36   0.1489
37   0.106489
38   0.098238
39   0.133409
40   0.148474
41   0.407952
42   0.382964
43   0.38371

>  <lowdin_charges>
43
1   -0.44551
2   -0.44797
3   -0.445805
4   -0.278917
5   -0.293783
6   -0.291177
7   -0.235098
8   -0.223908
9   -0.216309
10   -0.007596
11   -0.009891
12   -0.010334
13   -0.190042
14   -0.476476
15   -0.463474
16   -0.455955
17   0.143879
18   0.147172
19   0.161943
20   0.152327
21   0.147756
22   0.154697
23   0.149812
24   0.151585
25   0.156431
26   0.148585
27   0.139666
28   0.155015
29   0.134293
30   0.147887
31   0.137326
32   0.169688
33   0.126834
34   0.143966
35   0.138268
36   0.153151
37   0.119697
38   0.113904
39   0.141133
40   0.149965
41   0.32919
42   0.339215
43   0.338861

$$$$

