PCCDB-ID:  20450
public computational chemistry database (PCCDB) project, http://pccdb.org

 22 24  0  0  0  0  0  0  0  0999 V2000
   -2.5086    1.4054    0.0082 C   0  0  0  0  0  0  0  0  0  0  0  0
    2.5084    1.4057    0.0089 C   0  0  0  0  0  0  0  0  0  0  0  0
   -3.6458    0.6751    0.0187 C   0  0  0  0  0  0  0  0  0  0  0  0
    3.6457    0.6756    0.0193 C   0  0  0  0  0  0  0  0  0  0  0  0
   -0.0001    1.4472    0.0092 C   0  0  0  0  0  0  0  0  0  0  0  0
    0.0001   -1.3653    0.0518 C   0  0  0  0  0  0  0  0  0  0  0  0
   -1.2189    0.7625    0.0188 C   0  0  0  0  0  0  0  0  0  0  0  0
    1.2188    0.7627    0.0193 C   0  0  0  0  0  0  0  0  0  0  0  0
   -1.1959   -0.6540    0.0405 C   0  0  0  0  0  0  0  0  0  0  0  0
    1.1960   -0.6539    0.0407 C   0  0  0  0  0  0  0  0  0  0  0  0
   -3.6202   -0.7840    0.0433 C   0  0  0  0  0  0  0  0  0  0  0  0
    3.6203   -0.7836    0.0430 C   0  0  0  0  0  0  0  0  0  0  0  0
   -4.5767   -1.5171    0.0577 O   0  0  0  0  0  0  0  0  0  0  0  0
    4.5769   -1.5166    0.0563 O   0  0  0  0  0  0  0  0  0  0  0  0
   -2.3470   -1.3763    0.0504 O   0  0  0  0  0  0  0  0  0  0  0  0
    2.3471   -1.3761    0.0506 O   0  0  0  0  0  0  0  0  0  0  0  0
   -2.5486    2.4920   -0.0088 H   0  0  0  0  0  0  0  0  0  0  0  0
    2.5483    2.4923   -0.0082 H   0  0  0  0  0  0  0  0  0  0  0  0
   -4.6317    1.1247    0.0109 H   0  0  0  0  0  0  0  0  0  0  0  0
    4.6315    1.1252    0.0115 H   0  0  0  0  0  0  0  0  0  0  0  0
   -0.0002    2.5344   -0.0066 H   0  0  0  0  0  0  0  0  0  0  0  0
    0.0001   -2.4486    0.0691 H   0  0  0  0  0  0  0  0  0  0  0  0
  1  3  2  0  0  0  0
  1  7  1  0  0  0  0
  2  8  1  0  0  0  0
  2  4  2  0  0  0  0
  3 11  1  0  0  0  0
  4 12  1  0  0  0  0
  5  7  2  0  0  0  0
  5  8  1  0  0  0  0
  6 22  1  0  0  0  0
  7  9  1  0  0  0  0
  8 10  2  0  0  0  0
  9 15  1  0  0  0  0
  9  6  2  0  0  0  0
 10 16  1  0  0  0  0
 10  6  1  0  0  0  0
 11 15  1  0  0  0  0
 11 13  2  0  0  0  0
 12 16  1  0  0  0  0
 12 14  2  0  0  0  0
 17  1  1  0  0  0  0
 18  2  1  0  0  0  0
 19  3  1  0  0  0  0
 20  4  1  0  0  0  0
 21  5  1  0  0  0  0
M  END
>  <HBA>
4

>  <HBD>
0

>  <TPSA>
60.42

>  <cid>
20450

>  <dipole>
6.48

>  <excitation_energy_1>
3.776

>  <excitation_energy_2>
4.102

>  <excitation_energy_3>
4.329

>  <excitation_energy_4>
4.399

>  <homo_energy>
-6.563

>  <homo_lumo_gap>
4.174

>  <logP>
1.899

>  <lumo_energy>
-2.389

>  <melting_point>
162.33

>  <molecular_refractivity>
58.53

>  <oscillator_strength_1>
0.3405

>  <oscillator_strength_2>
0.0033

>  <oscillator_strength_3>
0.0221

>  <oscillator_strength_4>
0.0

>  <open_babel_can_smiles>
O=c1ccc2c(o1)cc1c(c2)ccc(=O)o1

>  <mulliken_charges>
22
1   -0.113171
2   -0.113211
3   -0.222073
4   -0.222056
5   -0.286839
6   -0.23813
7   0.133083
8   0.133098
9   0.335066
10   0.335094
11   0.599719
12   0.599721
13   -0.450166
14   -0.450165
15   -0.519586
16   -0.519585
17   0.160427
18   0.160425
19   0.171564
20   0.171563
21   0.152309
22   0.182912

>  <lowdin_charges>
22
1   -0.104027
2   -0.104028
3   -0.197909
4   -0.197909
5   -0.132636
6   -0.189228
7   -0.047156
8   -0.047156
9   0.128153
10   0.128155
11   0.203153
12   0.203151
13   -0.225307
14   -0.225306
15   -0.131409
16   -0.131409
17   0.170494
18   0.170494
19   0.185601
20   0.185601
21   0.16667
22   0.192011

$$$$

