PCCDB-ID:  15328
public computational chemistry database (PCCDB) project, http://pccdb.org

 27 27  0  0  0  0  0  0  0  0999 V2000
    5.2654    0.7233    0.2553 C   0  0  0  0  0  0  0  0  0  0  0  0
    6.5546   -7.4048   -2.8936 C   0  0  0  0  0  0  0  0  0  0  0  0
    4.1884    0.0091   -0.5704 C   0  0  0  0  0  0  0  0  0  0  0  0
    4.6473   -1.3075   -1.2181 C   0  0  0  0  0  0  0  0  0  0  0  0
    4.9860   -2.4269   -0.2109 C   0  0  0  0  0  0  0  0  0  0  0  0
    7.0889   -5.1222   -1.9272 C   0  0  0  0  0  0  0  0  0  0  0  0
    4.8197   -5.8902   -1.8283 C   0  0  0  0  0  0  0  0  0  0  0  0
    6.7201   -3.9480   -1.2730 C   0  0  0  0  0  0  0  0  0  0  0  0
    4.4507   -4.7143   -1.1740 C   0  0  0  0  0  0  0  0  0  0  0  0
    6.1456   -6.1177   -2.2149 C   0  0  0  0  0  0  0  0  0  0  0  0
    5.3929   -3.7206   -0.8837 C   0  0  0  0  0  0  0  0  0  0  0  0
    4.8989    1.6852    0.6317 H   0  0  0  0  0  0  0  0  0  0  0  0
    6.1590    0.9226   -0.3500 H   0  0  0  0  0  0  0  0  0  0  0  0
    5.5777    0.1305    1.1223 H   0  0  0  0  0  0  0  0  0  0  0  0
    7.3088   -7.2279   -3.6689 H   0  0  0  0  0  0  0  0  0  0  0  0
    5.6978   -7.8991   -3.3634 H   0  0  0  0  0  0  0  0  0  0  0  0
    6.9894   -8.1156   -2.1779 H   0  0  0  0  0  0  0  0  0  0  0  0
    3.8438    0.6846   -1.3649 H   0  0  0  0  0  0  0  0  0  0  0  0
    3.3110   -0.1859    0.0628 H   0  0  0  0  0  0  0  0  0  0  0  0
    5.5248   -1.1186   -1.8527 H   0  0  0  0  0  0  0  0  0  0  0  0
    3.8599   -1.6722   -1.8910 H   0  0  0  0  0  0  0  0  0  0  0  0
    4.1106   -2.6037    0.4289 H   0  0  0  0  0  0  0  0  0  0  0  0
    5.7931   -2.0921    0.4524 H   0  0  0  0  0  0  0  0  0  0  0  0
    8.1277   -5.2703   -2.2160 H   0  0  0  0  0  0  0  0  0  0  0  0
    4.0646   -6.6449   -2.0385 H   0  0  0  0  0  0  0  0  0  0  0  0
    7.4758   -3.1941   -1.0604 H   0  0  0  0  0  0  0  0  0  0  0  0
    3.4122   -4.5667   -0.8838 H   0  0  0  0  0  0  0  0  0  0  0  0
  1 12  1  0  0  0  0
  1 14  1  0  0  0  0
  2 10  1  0  0  0  0
  2 17  1  0  0  0  0
  3 19  1  0  0  0  0
  3  1  1  0  0  0  0
  4  3  1  0  0  0  0
  4  5  1  0  0  0  0
  5 22  1  0  0  0  0
  5 23  1  0  0  0  0
  6  8  1  0  0  0  0
  7  9  2  0  0  0  0
  8 26  1  0  0  0  0
  8 11  2  0  0  0  0
  9 27  1  0  0  0  0
  9 11  1  0  0  0  0
 10  6  2  0  0  0  0
 10  7  1  0  0  0  0
 11  5  1  0  0  0  0
 13  1  1  0  0  0  0
 15  2  1  0  0  0  0
 16  2  1  0  0  0  0
 18  3  1  0  0  0  0
 20  4  1  0  0  0  0
 21  4  1  0  0  0  0
 24  6  1  0  0  0  0
 25  7  1  0  0  0  0
M  END
>  <HBA>
0

>  <HBD>
0

>  <TPSA>
0.0

>  <cid>
15328

>  <dipole>
0.08

>  <excitation_energy_1>
5.169

>  <excitation_energy_2>
5.702

>  <excitation_energy_3>
5.791

>  <excitation_energy_4>
6.056

>  <homo_energy>
-6.123

>  <homo_lumo_gap>
6.31

>  <logP>
3.338

>  <lumo_energy>
0.188

>  <melting_point>
10.0

>  <molecular_refractivity>
50.8

>  <oscillator_strength_1>
0.0037

>  <oscillator_strength_2>
0.0872

>  <oscillator_strength_3>
0.0078

>  <oscillator_strength_4>
0.0018

>  <open_babel_can_smiles>
CCCCc1ccc(cc1)C

>  <mulliken_charges>
27
1   -0.444773
2   -0.529129
3   -0.247997
4   -0.243949
5   -0.349471
6   -0.178142
7   -0.180587
8   -0.179492
9   -0.180629
10   0.176185
11   0.171667
12   0.142952
13   0.141129
14   0.146562
15   0.156104
16   0.153931
17   0.16317
18   0.132698
19   0.129628
20   0.13279
21   0.134496
22   0.136123
23   0.142761
24   0.118228
25   0.118149
26   0.118916
27   0.118682

>  <lowdin_charges>
27
1   -0.448362
2   -0.444744
3   -0.275581
4   -0.274803
5   -0.276373
6   -0.164981
7   -0.169158
8   -0.167591
9   -0.165861
10   -0.003496
11   -0.003937
12   0.150149
13   0.146393
14   0.147622
15   0.158116
16   0.157166
17   0.161372
18   0.144131
19   0.139027
20   0.141192
21   0.145096
22   0.146071
23   0.149051
24   0.151293
25   0.15347
26   0.1535
27   0.151236

$$$$

