PCCDB-ID:  12135
public computational chemistry database (PCCDB) project, http://pccdb.org

 20 20  0  0  0  0  0  0  0  0999 V2000
   -1.6751   -0.0807   -0.0160 C   0  0  0  0  0  0  0  0  0  0  0  0
   -1.0206    1.1305   -0.2626 C   0  0  0  0  0  0  0  0  0  0  0  0
   -0.9256   -1.2355    0.2104 C   0  0  0  0  0  0  0  0  0  0  0  0
    0.3690    1.1869   -0.2864 C   0  0  0  0  0  0  0  0  0  0  0  0
    0.4665   -1.1781    0.1876 C   0  0  0  0  0  0  0  0  0  0  0  0
    2.6063    0.0274   -0.0865 C   0  0  0  0  0  0  0  0  0  0  0  0
    3.4253    1.0287   -0.4638 C   0  0  0  0  0  0  0  0  0  0  0  0
    1.1405    0.0298   -0.0667 C   0  0  0  0  0  0  0  0  0  0  0  0
    4.9014    0.9387   -0.4790 C   0  0  0  0  0  0  0  0  0  0  0  0
    5.6874    1.6443   -1.1934 N   0  0  0  0  0  0  0  0  0  0  0  0
    5.4717   -0.0106    0.3206 O   0  0  0  0  0  0  0  0  0  0  0  0
   -2.7606   -0.1200    0.0028 H   0  0  0  0  0  0  0  0  0  0  0  0
   -1.5981    2.0351   -0.4326 H   0  0  0  0  0  0  0  0  0  0  0  0
   -1.4235   -2.1811    0.4062 H   0  0  0  0  0  0  0  0  0  0  0  0
    0.8591    2.1393   -0.4660 H   0  0  0  0  0  0  0  0  0  0  0  0
    1.0458   -2.0817    0.3631 H   0  0  0  0  0  0  0  0  0  0  0  0
    3.0576   -0.9196    0.2119 H   0  0  0  0  0  0  0  0  0  0  0  0
    3.0191    1.9647   -0.8399 H   0  0  0  0  0  0  0  0  0  0  0  0
    5.1421    2.2738   -1.7857 H   0  0  0  0  0  0  0  0  0  0  0  0
    4.8412   -0.2466    1.0183 H   0  0  0  0  0  0  0  0  0  0  0  0
  1 12  1  0  0  0  0
  1  3  2  0  0  0  0
  2  1  1  0  0  0  0
  3 14  1  0  0  0  0
  4  2  2  0  0  0  0
  4  8  1  0  0  0  0
  5  3  1  0  0  0  0
  5 16  1  0  0  0  0
  6  8  1  0  0  0  0
  6 17  1  0  0  0  0
  7  6  2  0  0  0  0
  8  5  2  0  0  0  0
  9  7  1  0  0  0  0
  9 11  1  0  0  0  0
 10  9  2  0  0  0  0
 11 20  1  0  0  0  0
 13  2  1  0  0  0  0
 15  4  1  0  0  0  0
 18  7  1  0  0  0  0
 19 10  1  0  0  0  0
M  END
>  <HBA>
2

>  <HBD>
1

>  <TPSA>
43.09

>  <cid>
12135

>  <dipole>
5.23

>  <excitation_energy_1>
4.38

>  <excitation_energy_2>
4.486

>  <excitation_energy_3>
4.582

>  <excitation_energy_4>
5.132

>  <homo_energy>
-6.378

>  <homo_lumo_gap>
4.599

>  <logP>
1.885

>  <lumo_energy>
-1.78

>  <melting_point>
101.81

>  <molecular_refractivity>
44.25

>  <oscillator_strength_1>
0.6464

>  <oscillator_strength_2>
0.022

>  <oscillator_strength_3>
0.0066

>  <oscillator_strength_4>
0.0125

>  <open_babel_can_smiles>
OC(=N)/C=C/c1ccccc1

>  <mulliken_charges>
20
1   -0.124917
2   -0.130074
3   -0.12972
4   -0.176502
5   -0.191138
6   -0.193152
7   -0.183162
8   0.171547
9   0.472133
10   -0.586029
11   -0.582663
12   0.138418
13   0.138492
14   0.138653
15   0.134462
16   0.135349
17   0.135284
18   0.144615
19   0.28491
20   0.403494

>  <lowdin_charges>
20
1   -0.145175
2   -0.151168
3   -0.152383
4   -0.150633
5   -0.154632
6   -0.145267
7   -0.203127
8   -0.00594
9   0.124654
10   -0.385798
11   -0.369294
12   0.160168
13   0.162489
14   0.162419
15   0.159805
16   0.159913
17   0.157169
18   0.164127
19   0.257678
20   0.354993

$$$$

