PCCDB-ID:  15203
public computational chemistry database (PCCDB) project, http://pccdb.org

 34 35  0  0  1  0  0  0  0  0999 V2000
    1.7241   -0.6291   -0.9617 C   0  0  0  0  0  0  0  0  0  0  0  0
    5.3064    4.6194    3.0758 C   0  0  0  0  0  0  0  0  0  0  0  0
    1.6216    2.6396   -4.8851 C   0  0  0  0  0  0  0  0  0  0  0  0
    5.5430    4.6430    1.7001 C   0  0  0  0  0  0  0  0  0  0  0  0
    4.1059    4.0944    3.5576 C   0  0  0  0  0  0  0  0  0  0  0  0
    2.7571    2.0079   -4.3727 C   0  0  0  0  0  0  0  0  0  0  0  0
    0.4680    2.7119   -4.1047 C   0  0  0  0  0  0  0  0  0  0  0  0
    4.5855    4.1442    0.8158 C   0  0  0  0  0  0  0  0  0  0  0  0
    3.1526    3.5964    2.6685 C   0  0  0  0  0  0  0  0  0  0  0  0
    2.7358    1.4545   -3.0927 C   0  0  0  0  0  0  0  0  0  0  0  0
    0.4532    2.1565   -2.8233 C   0  0  0  0  0  0  0  0  0  0  0  0
    2.5796    1.5310    0.0604 C   0  0  0  0  0  0  0  0  0  0  0  0
    2.3592    3.0339    0.3247 C   0  0  0  0  0  0  0  0  0  0  0  0
    1.5476    0.9012   -0.9019 C   0  0  1  0  0  0  0  0  0  0  0  0
    3.3766    3.6120    1.2850 C   0  0  0  0  0  0  0  0  0  0  0  0
    1.5829    1.5188   -2.2946 C   0  0  0  0  0  0  0  0  0  0  0  0
    1.6245   -1.0708    0.0369 H   0  0  0  0  0  0  0  0  0  0  0  0
    2.7131   -0.9009   -1.3490 H   0  0  0  0  0  0  0  0  0  0  0  0
    0.9737   -1.0870   -1.6151 H   0  0  0  0  0  0  0  0  0  0  0  0
    6.0487    5.0113    3.7660 H   0  0  0  0  0  0  0  0  0  0  0  0
    1.6375    3.0705   -5.8826 H   0  0  0  0  0  0  0  0  0  0  0  0
    6.4717    5.0556    1.3139 H   0  0  0  0  0  0  0  0  0  0  0  0
    3.9086    4.0772    4.6266 H   0  0  0  0  0  0  0  0  0  0  0  0
    3.6622    1.9452   -4.9716 H   0  0  0  0  0  0  0  0  0  0  0  0
   -0.4226    3.2015   -4.4905 H   0  0  0  0  0  0  0  0  0  0  0  0
    4.7750    4.1709   -0.2554 H   0  0  0  0  0  0  0  0  0  0  0  0
    2.2174    3.1930    3.0521 H   0  0  0  0  0  0  0  0  0  0  0  0
    3.6289    0.9649   -2.7115 H   0  0  0  0  0  0  0  0  0  0  0  0
   -0.4520    2.2178   -2.2227 H   0  0  0  0  0  0  0  0  0  0  0  0
    2.5426    0.9918    1.0166 H   0  0  0  0  0  0  0  0  0  0  0  0
    3.5940    1.3801   -0.3335 H   0  0  0  0  0  0  0  0  0  0  0  0
    1.3475    3.1794    0.7273 H   0  0  0  0  0  0  0  0  0  0  0  0
    2.3970    3.5751   -0.6280 H   0  0  0  0  0  0  0  0  0  0  0  0
    0.5497    1.1002   -0.4850 H   0  0  0  0  0  0  0  0  0  0  0  0
  1 14  1  0  0  0  0
  1 17  1  0  0  0  0
  2  5  1  0  0  0  0
  2 20  1  0  0  0  0
  3  6  2  0  0  0  0
  3  7  1  0  0  0  0
  4  2  2  0  0  0  0
  5 23  1  0  0  0  0
  6 10  1  0  0  0  0
  7 11  2  0  0  0  0
  8 15  2  0  0  0  0
  8  4  1  0  0  0  0
  9 27  1  0  0  0  0
  9  5  2  0  0  0  0
 10 28  1  0  0  0  0
 10 16  2  0  0  0  0
 11 16  1  0  0  0  0
 11 29  1  0  0  0  0
 12 13  1  0  0  0  0
 12 30  1  0  0  0  0
 13 32  1  0  0  0  0
 13 15  1  0  0  0  0
 14 34  1  1  0  0  0
 14 12  1  0  0  0  0
 15  9  1  0  0  0  0
 16 14  1  0  0  0  0
 18  1  1  0  0  0  0
 19  1  1  0  0  0  0
 21  3  1  0  0  0  0
 22  4  1  0  0  0  0
 24  6  1  0  0  0  0
 25  7  1  0  0  0  0
 26  8  1  0  0  0  0
 31 12  1  0  0  0  0
 33 13  1  0  0  0  0
M  END
>  <HBA>
0

>  <HBD>
0

>  <TPSA>
0.0

>  <cid>
15203

>  <dipole>
0.36

>  <excitation_energy_1>
5.285

>  <excitation_energy_2>
5.289

>  <excitation_energy_3>
5.71

>  <excitation_energy_4>
5.805

>  <homo_energy>
-6.299

>  <homo_lumo_gap>
6.31

>  <logP>
4.423

>  <lumo_energy>
0.011

>  <melting_point>
35.55

>  <molecular_refractivity>
70.32

>  <oscillator_strength_1>
0.0002

>  <oscillator_strength_2>
0.0025

>  <oscillator_strength_3>
0.0798

>  <oscillator_strength_4>
0.0388

>  <open_babel_can_smiles>
C[C@H](c1ccccc1)CCc1ccccc1

>  <mulliken_charges>
34
1   -0.443813
2   -0.132071
3   -0.132033
4   -0.128166
5   -0.127979
6   -0.129598
7   -0.124733
8   -0.182303
9   -0.180745
10   -0.187451
11   -0.195647
12   -0.248164
13   -0.354433
14   -0.164826
15   0.172468
16   0.182685
17   0.142006
18   0.144723
19   0.15
20   0.125728
21   0.127433
22   0.126353
23   0.126021
24   0.127661
25   0.127724
26   0.12415
27   0.119316
28   0.126007
29   0.122715
30   0.134864
31   0.13656
32   0.135602
33   0.155362
34   0.124582

>  <lowdin_charges>
34
1   -0.441078
2   -0.164713
3   -0.160508
4   -0.155737
5   -0.154197
6   -0.155687
7   -0.156008
8   -0.166439
9   -0.168914
10   -0.16891
11   -0.171505
12   -0.269581
13   -0.275494
14   -0.121917
15   0.001423
16   0.00064
17   0.148174
18   0.148072
19   0.154601
20   0.157224
21   0.155844
22   0.156072
23   0.154058
24   0.156737
25   0.157323
26   0.152879
27   0.152604
28   0.154714
29   0.153889
30   0.144052
31   0.142093
32   0.145082
33   0.155641
34   0.139567

$$$$

