PCCDB-ID:  9081
public computational chemistry database (PCCDB) project, http://pccdb.org

 21 21  0  0  1  0  0  0  0  0999 V2000
    1.8252    1.8095    1.5993 C   0  0  0  0  0  0  0  0  0  0  0  0
    2.2708   -0.1785   -0.1612 C   0  0  0  0  0  0  0  0  0  0  0  0
    4.6217    0.9939   -0.5145 C   0  0  0  0  0  0  0  0  0  0  0  0
    2.3976    0.8871    0.8447 C   0  0  0  0  0  0  0  0  0  0  0  0
    3.6447    0.2597    0.3874 C   0  0  1  0  0  0  0  0  0  0  0  0
    5.7305    1.7484    0.2594 C   0  0  1  0  0  0  0  0  0  0  0  0
    6.7329    2.3558   -0.7437 C   0  0  0  0  0  0  0  0  0  0  0  0
    5.1593    2.7413    1.1563 N   0  0  0  0  0  0  0  0  0  0  0  0
    6.8318    3.5385   -0.9562 O   0  0  0  0  0  0  0  0  0  0  0  0
    7.5184    1.4719   -1.4190 O   0  0  0  0  0  0  0  0  0  0  0  0
    0.7466    1.9512    1.6101 H   0  0  0  0  0  0  0  0  0  0  0  0
    2.4287    2.4567    2.2300 H   0  0  0  0  0  0  0  0  0  0  0  0
    2.0218    0.0973   -1.1863 H   0  0  0  0  0  0  0  0  0  0  0  0
    1.8910   -1.1560    0.1340 H   0  0  0  0  0  0  0  0  0  0  0  0
    4.0767    1.7158   -1.1377 H   0  0  0  0  0  0  0  0  0  0  0  0
    5.0875    0.2797   -1.2088 H   0  0  0  0  0  0  0  0  0  0  0  0
    4.1180   -0.4442    1.0754 H   0  0  0  0  0  0  0  0  0  0  0  0
    6.2758    1.0166    0.8758 H   0  0  0  0  0  0  0  0  0  0  0  0
    4.7039    3.4589    0.5917 H   0  0  0  0  0  0  0  0  0  0  0  0
    5.9160    3.2290    1.6346 H   0  0  0  0  0  0  0  0  0  0  0  0
    7.3335    0.5663   -1.1187 H   0  0  0  0  0  0  0  0  0  0  0  0
  1 11  1  0  0  0  0
  1 12  1  0  0  0  0
  2 14  1  0  0  0  0
  2  5  1  0  0  0  0
  2  4  1  0  0  0  0
  3  6  1  0  0  0  0
  3  5  1  0  0  0  0
  4  1  2  0  0  0  0
  5  4  1  0  0  0  0
  5 17  1  1  0  0  0
  6 18  1  1  0  0  0
  6  8  1  0  0  0  0
  7  6  1  0  0  0  0
  8 20  1  0  0  0  0
  9  7  2  0  0  0  0
 10 21  1  0  0  0  0
 10  7  1  0  0  0  0
 13  2  1  0  0  0  0
 15  3  1  0  0  0  0
 16  3  1  0  0  0  0
 19  8  1  0  0  0  0
M  END
>  <HBA>
3

>  <HBD>
2

>  <TPSA>
63.32

>  <cid>
9081

>  <dipole>
3.06

>  <excitation_energy_1>
5.448

>  <excitation_energy_2>
5.722

>  <excitation_energy_3>
5.954

>  <excitation_energy_4>
5.992

>  <homo_energy>
-6.748

>  <homo_lumo_gap>
6.759

>  <logP>
1.065

>  <lumo_energy>
0.011

>  <melting_point>
109.58

>  <molecular_refractivity>
37.65

>  <oscillator_strength_1>
0.0049

>  <oscillator_strength_2>
0.0029

>  <oscillator_strength_3>
0.0039

>  <oscillator_strength_4>
0.0629

>  <open_babel_can_smiles>
N[C@H](C(=O)O)C[C@@H]1CC1=C

>  <mulliken_charges>
21
1   -0.442974
2   -0.383021
3   -0.272147
4   0.221719
5   -0.129818
6   -0.105632
7   0.57747
8   -0.682776
9   -0.442344
10   -0.56473
11   0.137969
12   0.159918
13   0.159292
14   0.161725
15   0.154858
16   0.130706
17   0.145073
18   0.143496
19   0.311271
20   0.308651
21   0.411294

>  <lowdin_charges>
21
1   -0.332837
2   -0.317752
3   -0.270037
4   -0.020052
5   -0.1491
6   -0.113736
7   0.169669
8   -0.525915
9   -0.240313
10   -0.354011
11   0.157998
12   0.172297
13   0.162706
14   0.166081
15   0.15773
16   0.143083
17   0.158527
18   0.148862
19   0.265405
20   0.264297
21   0.357098

$$$$

