PCCDB-ID:  7680
public computational chemistry database (PCCDB) project, http://pccdb.org

 19 19  0  0  0  0  0  0  0  0999 V2000
   -1.9776    0.2944    0.2550 C   0  0  0  0  0  0  0  0  0  0  0  0
   -1.0964    1.3736    0.2999 C   0  0  0  0  0  0  0  0  0  0  0  0
   -1.4765   -1.0026    0.1092 C   0  0  0  0  0  0  0  0  0  0  0  0
    0.2810    1.1562    0.2006 C   0  0  0  0  0  0  0  0  0  0  0  0
   -0.1031   -1.2174    0.0154 C   0  0  0  0  0  0  0  0  0  0  0  0
    2.2915   -0.3807   -0.0033 C   0  0  0  0  0  0  0  0  0  0  0  0
    0.7954   -0.1401    0.0573 C   0  0  0  0  0  0  0  0  0  0  0  0
    2.8977   -0.8615    1.3208 C   0  0  0  0  0  0  0  0  0  0  0  0
    3.8091   -1.7319    1.4724 N   0  0  0  0  0  0  0  0  0  0  0  0
    2.4368   -0.2262    2.4297 O   0  0  0  0  0  0  0  0  0  0  0  0
   -3.0488    0.4598    0.3292 H   0  0  0  0  0  0  0  0  0  0  0  0
   -1.4762    2.3861    0.4055 H   0  0  0  0  0  0  0  0  0  0  0  0
   -2.1582   -1.8479    0.0721 H   0  0  0  0  0  0  0  0  0  0  0  0
    0.9623    2.0048    0.2161 H   0  0  0  0  0  0  0  0  0  0  0  0
    0.2804   -2.2293   -0.0925 H   0  0  0  0  0  0  0  0  0  0  0  0
    2.8001    0.5528   -0.2796 H   0  0  0  0  0  0  0  0  0  0  0  0
    2.5322   -1.1160   -0.7779 H   0  0  0  0  0  0  0  0  0  0  0  0
    4.0836   -2.1099    0.5645 H   0  0  0  0  0  0  0  0  0  0  0  0
    1.6471    0.2893    2.1937 H   0  0  0  0  0  0  0  0  0  0  0  0
  1  2  1  0  0  0  0
  1 11  1  0  0  0  0
  2 12  1  0  0  0  0
  3  1  2  0  0  0  0
  4 14  1  0  0  0  0
  4  2  2  0  0  0  0
  5  7  2  0  0  0  0
  5  3  1  0  0  0  0
  6  7  1  0  0  0  0
  6  8  1  0  0  0  0
  7  4  1  0  0  0  0
  8  9  2  0  0  0  0
  8 10  1  0  0  0  0
 13  3  1  0  0  0  0
 15  5  1  0  0  0  0
 16  6  1  0  0  0  0
 17  6  1  0  0  0  0
 18  9  1  0  0  0  0
 19 10  1  0  0  0  0
M  END
>  <HBA>
2

>  <HBD>
1

>  <TPSA>
43.09

>  <cid>
7680

>  <dipole>
4.69

>  <excitation_energy_1>
5.22

>  <excitation_energy_2>
5.569

>  <excitation_energy_3>
5.768

>  <excitation_energy_4>
5.807

>  <homo_energy>
-6.778

>  <homo_lumo_gap>
6.185

>  <logP>
1.415

>  <lumo_energy>
-0.593

>  <melting_point>
82.13

>  <molecular_refractivity>
39.12

>  <oscillator_strength_1>
0.0011

>  <oscillator_strength_2>
0.0738

>  <oscillator_strength_3>
0.0014

>  <oscillator_strength_4>
0.0174

>  <open_babel_can_smiles>
OC(=N)Cc1ccccc1

>  <mulliken_charges>
19
1   -0.127824
2   -0.122011
3   -0.125939
4   -0.204781
5   -0.160769
6   -0.437427
7   0.1206
8   0.489074
9   -0.583675
10   -0.577173
11   0.138878
12   0.139643
13   0.140509
14   0.137064
15   0.140785
16   0.179482
17   0.16272
18   0.279943
19   0.410901

>  <lowdin_charges>
19
1   -0.150146
2   -0.149989
3   -0.147796
4   -0.182968
5   -0.156289
6   -0.309945
7   -0.02012
8   0.122606
9   -0.397472
10   -0.363235
11   0.160582
12   0.161807
13   0.163821
14   0.159706
15   0.161956
16   0.171119
17   0.166527
18   0.253543
19   0.356293

$$$$

