PCCDB-ID:  29731
public computational chemistry database (PCCDB) project, http://pccdb.org

 25 26  0  0  0  0  0  0  0  0999 V2000
    0.8423    0.0546   -0.0988 C   0  0  0  0  0  0  0  0  0  0  0  0
    2.9656    2.5917   -0.0602 C   0  0  0  0  0  0  0  0  0  0  0  0
    4.0749   -3.3493   -0.0939 C   0  0  0  0  0  0  0  0  0  0  0  0
    6.5320   -3.7458   -0.0750 C   0  0  0  0  0  0  0  0  0  0  0  0
    2.3421    0.0448   -0.0852 C   0  0  0  0  0  0  0  0  0  0  0  0
    3.1884    1.1206   -0.0698 C   0  0  0  0  0  0  0  0  0  0  0  0
    5.4055   -2.8378   -0.0783 C   0  0  0  0  0  0  0  0  0  0  0  0
    2.9762   -2.5164   -0.0976 C   0  0  0  0  0  0  0  0  0  0  0  0
    3.1989   -1.1166   -0.0862 C   0  0  0  0  0  0  0  0  0  0  0  0
    5.6501   -1.4423   -0.0660 C   0  0  0  0  0  0  0  0  0  0  0  0
    4.5109   -0.6306   -0.0710 C   0  0  0  0  0  0  0  0  0  0  0  0
    7.7188   -3.3951   -0.0609 O   0  0  0  0  0  0  0  0  0  0  0  0
    1.6741   -2.9488   -0.1125 O   0  0  0  0  0  0  0  0  0  0  0  0
    6.8768   -0.9030   -0.0509 O   0  0  0  0  0  0  0  0  0  0  0  0
    4.5089    0.7328   -0.0609 O   0  0  0  0  0  0  0  0  0  0  0  0
    0.4503    1.0760   -0.0992 H   0  0  0  0  0  0  0  0  0  0  0  0
    0.4347   -0.4656    0.7749 H   0  0  0  0  0  0  0  0  0  0  0  0
    0.4510   -0.4601   -0.9832 H   0  0  0  0  0  0  0  0  0  0  0  0
    1.8976    2.8213   -0.0676 H   0  0  0  0  0  0  0  0  0  0  0  0
    3.4270    3.0640   -0.9360 H   0  0  0  0  0  0  0  0  0  0  0  0
    3.4117    3.0500    0.8307 H   0  0  0  0  0  0  0  0  0  0  0  0
    3.9413   -4.4303   -0.1028 H   0  0  0  0  0  0  0  0  0  0  0  0
    6.2878   -4.8266   -0.0865 H   0  0  0  0  0  0  0  0  0  0  0  0
    1.6680   -3.9186   -0.1102 H   0  0  0  0  0  0  0  0  0  0  0  0
    7.5132   -1.6658   -0.0487 H   0  0  0  0  0  0  0  0  0  0  0  0
  1  5  1  0  0  0  0
  1 17  1  0  0  0  0
  2 21  1  0  0  0  0
  3  7  1  0  0  0  0
  4 12  2  0  0  0  0
  5  6  2  0  0  0  0
  6 15  1  0  0  0  0
  6  2  1  0  0  0  0
  7  4  1  0  0  0  0
  7 10  2  0  0  0  0
  8  3  2  0  0  0  0
  8  9  1  0  0  0  0
  9  5  1  0  0  0  0
  9 11  2  0  0  0  0
 10 14  1  0  0  0  0
 11 10  1  0  0  0  0
 11 15  1  0  0  0  0
 13 24  1  0  0  0  0
 13  8  1  0  0  0  0
 14 25  1  0  0  0  0
 16  1  1  0  0  0  0
 18  1  1  0  0  0  0
 19  2  1  0  0  0  0
 20  2  1  0  0  0  0
 22  3  1  0  0  0  0
 23  4  1  0  0  0  0
M  END
>  <HBA>
4

>  <HBD>
2

>  <TPSA>
70.67

>  <cid>
29731

>  <dipole>
4.26

>  <excitation_energy_1>
3.411

>  <excitation_energy_2>
4.012

>  <excitation_energy_3>
4.16

>  <excitation_energy_4>
4.614

>  <homo_energy>
-5.48

>  <homo_lumo_gap>
3.791

>  <logP>
2.273

>  <lumo_energy>
-1.69

>  <melting_point>
173.28

>  <molecular_refractivity>
55.58

>  <oscillator_strength_1>
0.149

>  <oscillator_strength_2>
0.0003

>  <oscillator_strength_3>
0.236

>  <oscillator_strength_4>
0.0002

>  <open_babel_can_smiles>
O=Cc1cc(O)c2c(c1O)oc(c2C)C

>  <mulliken_charges>
25
1   -0.515038
2   -0.539348
3   -0.273696
4   0.192555
5   0.065544
6   0.295548
7   0.057983
8   0.268749
9   0.08845
10   0.240553
11   0.280567
12   -0.480783
13   -0.656709
14   -0.644072
15   -0.501973
16   0.14844
17   0.17296
18   0.173203
19   0.170319
20   0.181085
21   0.181108
22   0.121554
23   0.118916
24   0.409813
25   0.444271

>  <lowdin_charges>
25
1   -0.434648
2   -0.442184
3   -0.210967
4   0.046347
5   -0.054192
6   0.088641
7   -0.105033
8   0.080249
9   -0.0281
10   0.108426
11   0.059834
12   -0.283707
13   -0.380892
14   -0.355909
15   -0.10355
16   0.154174
17   0.168095
18   0.168162
19   0.167726
20   0.174086
21   0.174001
22   0.15448
23   0.127716
24   0.357689
25   0.369557

$$$$

