PCCDB-ID:  50005
public computational chemistry database (PCCDB) project, http://pccdb.org

 23 22  0  0  0  0  0  0  0  0999 V2000
    1.0144   -0.2360   -0.0374 C   0  0  0  0  0  0  0  0  0  0  0  0
    2.8371   -1.0722    1.5180 C   0  0  0  0  0  0  0  0  0  0  0  0
    4.4825   -0.7903   -1.0723 C   0  0  0  0  0  0  0  0  0  0  0  0
    4.8404   -1.4156   -2.4164 C   0  0  0  0  0  0  0  0  0  0  0  0
    2.5149   -0.3166    0.2254 C   0  0  0  0  0  0  0  0  0  0  0  0
    7.1337   -2.0064   -2.2674 C   0  0  0  0  0  0  0  0  0  0  0  0
    6.8576   -2.9888   -1.5056 N   0  0  0  0  0  0  0  0  0  0  0  0
    8.3380   -1.5966   -2.7482 O   0  0  0  0  0  0  0  0  0  0  0  0
    3.0854   -0.9566   -0.9195 O   0  0  0  0  0  0  0  0  0  0  0  0
    6.2161   -1.1621   -2.7534 O   0  0  0  0  0  0  0  0  0  0  0  0
    0.5023    0.2745    0.7855 H   0  0  0  0  0  0  0  0  0  0  0  0
    0.5929   -1.2428   -0.1362 H   0  0  0  0  0  0  0  0  0  0  0  0
    0.8177    0.3097   -0.9654 H   0  0  0  0  0  0  0  0  0  0  0  0
    2.3738   -0.5756    2.3784 H   0  0  0  0  0  0  0  0  0  0  0  0
    3.9151   -1.1206    1.7034 H   0  0  0  0  0  0  0  0  0  0  0  0
    2.4536   -2.0971    1.4609 H   0  0  0  0  0  0  0  0  0  0  0  0
    4.7532    0.2787   -1.0773 H   0  0  0  0  0  0  0  0  0  0  0  0
    5.0496   -1.2864   -0.2740 H   0  0  0  0  0  0  0  0  0  0  0  0
    4.2611   -0.9448   -3.2135 H   0  0  0  0  0  0  0  0  0  0  0  0
    4.6511   -2.4907   -2.4017 H   0  0  0  0  0  0  0  0  0  0  0  0
    2.9245    0.7061    0.2948 H   0  0  0  0  0  0  0  0  0  0  0  0
    7.6814   -3.5330   -1.2531 H   0  0  0  0  0  0  0  0  0  0  0  0
    9.0219   -2.1891   -2.4006 H   0  0  0  0  0  0  0  0  0  0  0  0
  1  5  1  0  0  0  0
  1 11  1  0  0  0  0
  2 15  1  0  0  0  0
  2 14  1  0  0  0  0
  3  9  1  0  0  0  0
  3 18  1  0  0  0  0
  4 20  1  0  0  0  0
  4  3  1  0  0  0  0
  5 21  1  0  0  0  0
  5  2  1  0  0  0  0
  6  7  2  0  0  0  0
  7 22  1  0  0  0  0
  8 23  1  0  0  0  0
  8  6  1  0  0  0  0
  9  5  1  0  0  0  0
 10  4  1  0  0  0  0
 10  6  1  0  0  0  0
 12  1  1  0  0  0  0
 13  1  1  0  0  0  0
 16  2  1  0  0  0  0
 17  3  1  0  0  0  0
 19  4  1  0  0  0  0
M  END
>  <HBA>
4

>  <HBD>
1

>  <TPSA>
61.55

>  <cid>
50005

>  <dipole>
1.99

>  <excitation_energy_1>
5.812

>  <excitation_energy_2>
6.141

>  <excitation_energy_3>
6.476

>  <excitation_energy_4>
6.535

>  <homo_energy>
-6.729

>  <homo_lumo_gap>
7.927

>  <logP>
1.207

>  <lumo_energy>
1.197

>  <melting_point>
41.51

>  <molecular_refractivity>
36.42

>  <oscillator_strength_1>
0.0049

>  <oscillator_strength_2>
0.0036

>  <oscillator_strength_3>
0.0438

>  <oscillator_strength_4>
0.0127

>  <open_babel_can_smiles>
CC(OCCOC(=N)O)C

>  <mulliken_charges>
23
1   -0.447853
2   -0.455974
3   -0.030137
4   -0.051055
5   0.164717
6   0.642949
7   -0.625821
8   -0.567053
9   -0.491456
10   -0.449002
11   0.139727
12   0.153436
13   0.15322
14   0.140944
15   0.149572
16   0.154212
17   0.124809
18   0.152269
19   0.162823
20   0.184482
21   0.110005
22   0.276916
23   0.40827

>  <lowdin_charges>
23
1   -0.448563
2   -0.457953
3   -0.141014
4   -0.126906
5   0.013334
6   0.189545
7   -0.47407
8   -0.364281
9   -0.276585
10   -0.175771
11   0.152574
12   0.154685
13   0.156753
14   0.153485
15   0.151144
16   0.154592
17   0.127552
18   0.144317
19   0.159781
20   0.165011
21   0.121874
22   0.257776
23   0.362721

$$$$

