PCCDB-ID:  18374
public computational chemistry database (PCCDB) project, http://pccdb.org

 22 22  0  0  1  0  0  0  0  0999 V2000
    0.7346    1.2703   -0.2428 C   0  0  0  0  0  0  0  0  0  0  0  0
    1.4698    0.0093    0.2392 C   0  0  0  0  0  0  0  0  0  0  0  0
   -1.4484    0.0010   -0.2356 C   0  0  0  0  0  0  0  0  0  0  0  0
   -0.7124   -1.2612    0.2368 C   0  0  0  0  0  0  0  0  0  0  0  0
   -0.7409    1.2898    0.2060 C   0  0  2  0  0  0  0  0  0  0  0  0
    0.7569   -1.2830   -0.2080 C   0  0  2  0  0  0  0  0  0  0  0  0
   -1.5103    2.4530   -0.2566 N   0  0  0  0  0  0  0  0  0  0  0  0
    1.3887   -2.5270    0.2528 N   0  0  0  0  0  0  0  0  0  0  0  0
    0.7652    1.3148   -1.3430 H   0  0  0  0  0  0  0  0  0  0  0  0
    1.2461    2.1729    0.1196 H   0  0  0  0  0  0  0  0  0  0  0  0
    1.5271    0.0143    1.3392 H   0  0  0  0  0  0  0  0  0  0  0  0
    2.5062    0.0082   -0.1264 H   0  0  0  0  0  0  0  0  0  0  0  0
   -2.4791    0.0121    0.1359 H   0  0  0  0  0  0  0  0  0  0  0  0
   -1.5126   -0.0060   -1.3356 H   0  0  0  0  0  0  0  0  0  0  0  0
   -1.2123   -2.1640   -0.1312 H   0  0  0  0  0  0  0  0  0  0  0  0
   -0.7474   -1.3105    1.3371 H   0  0  0  0  0  0  0  0  0  0  0  0
   -0.7596    1.3231    1.3063 H   0  0  0  0  0  0  0  0  0  0  0  0
    0.7746   -1.3152   -1.3083 H   0  0  0  0  0  0  0  0  0  0  0  0
   -1.5118    2.4673   -1.2777 H   0  0  0  0  0  0  0  0  0  0  0  0
   -1.0372    3.3105    0.0295 H   0  0  0  0  0  0  0  0  0  0  0  0
    1.4032   -2.5351    1.2739 H   0  0  0  0  0  0  0  0  0  0  0  0
    2.3672   -2.5397   -0.0357 H   0  0  0  0  0  0  0  0  0  0  0  0
  1 10  1  0  0  0  0
  1  5  1  0  0  0  0
  1  2  1  0  0  0  0
  2 11  1  0  0  0  0
  3 13  1  0  0  0  0
  3  5  1  0  0  0  0
  3  4  1  0  0  0  0
  4 16  1  0  0  0  0
  5 17  1  1  0  0  0
  6 18  1  6  0  0  0
  6  4  1  0  0  0  0
  6  2  1  0  0  0  0
  6  8  1  0  0  0  0
  7 20  1  0  0  0  0
  7  5  1  0  0  0  0
  8 21  1  0  0  0  0
  9  1  1  0  0  0  0
 12  2  1  0  0  0  0
 14  3  1  0  0  0  0
 15  4  1  0  0  0  0
 19  7  1  0  0  0  0
 22  8  1  0  0  0  0
M  END
>  <HBA>
2

>  <HBD>
2

>  <TPSA>
52.04

>  <cid>
18374

>  <dipole>
2.22

>  <excitation_energy_1>
5.614

>  <excitation_energy_2>
5.619

>  <excitation_energy_3>
6.04

>  <excitation_energy_4>
6.046

>  <homo_energy>
-6.153

>  <homo_lumo_gap>
8.275

>  <logP>
1.616

>  <lumo_energy>
2.123

>  <melting_point>
104.51

>  <molecular_refractivity>
34.26

>  <oscillator_strength_1>
0.0146

>  <oscillator_strength_2>
0.0436

>  <oscillator_strength_3>
0.01

>  <oscillator_strength_4>
0.0098

>  <open_babel_can_smiles>
N[C@@H]1CC[C@H](CC1)N

>  <mulliken_charges>
22
1   -0.267925
2   -0.268222
3   -0.257264
4   -0.256819
5   0.027346
6   0.027079
7   -0.711963
8   -0.711823
9   0.118835
10   0.122262
11   0.118946
12   0.122329
13   0.148808
14   0.119071
15   0.148749
16   0.118936
17   0.124134
18   0.12412
19   0.286395
20   0.290334
21   0.286363
22   0.290309

>  <lowdin_charges>
22
1   -0.295477
2   -0.293441
3   -0.276635
4   -0.2782
5   -0.068414
6   -0.06896
7   -0.545955
8   -0.543628
9   0.13185
10   0.139754
11   0.131879
12   0.138116
13   0.152873
14   0.132328
15   0.154459
16   0.132276
17   0.132229
18   0.132209
19   0.246094
20   0.251346
21   0.246079
22   0.249216

$$$$

