PCCDB-ID:  34442
public computational chemistry database (PCCDB) project, http://pccdb.org

 20 21  0  0  0  0  0  0  0  0999 V2000
    0.8825   -0.0393   -0.0552 C   0  0  0  0  0  0  0  0  0  0  0  0
    4.5142    1.1898   -0.0571 C   0  0  0  0  0  0  0  0  0  0  0  0
    3.7710   -3.4370   -0.0585 C   0  0  0  0  0  0  0  0  0  0  0  0
    3.1157    1.1706   -0.0557 C   0  0  0  0  0  0  0  0  0  0  0  0
    5.2440   -0.0038   -0.0576 C   0  0  0  0  0  0  0  0  0  0  0  0
    5.0493   -2.6317   -0.0574 C   0  0  0  0  0  0  0  0  0  0  0  0
    2.6977   -2.6225   -0.0565 C   0  0  0  0  0  0  0  0  0  0  0  0
    2.3928   -0.0297   -0.0550 C   0  0  0  0  0  0  0  0  0  0  0  0
    4.5461   -1.2048   -0.0560 C   0  0  0  0  0  0  0  0  0  0  0  0
    3.1354   -1.2209   -0.0549 C   0  0  0  0  0  0  0  0  0  0  0  0
    0.4814    0.9791   -0.0549 H   0  0  0  0  0  0  0  0  0  0  0  0
    0.4808   -0.5551    0.8265 H   0  0  0  0  0  0  0  0  0  0  0  0
    0.4812   -0.5544   -0.9374 H   0  0  0  0  0  0  0  0  0  0  0  0
    5.0362    2.1431   -0.0578 H   0  0  0  0  0  0  0  0  0  0  0  0
    3.7501   -4.5214   -0.0621 H   0  0  0  0  0  0  0  0  0  0  0  0
    2.5711    2.1123   -0.0555 H   0  0  0  0  0  0  0  0  0  0  0  0
    6.3314    0.0146   -0.0597 H   0  0  0  0  0  0  0  0  0  0  0  0
    5.6747   -2.8523   -0.9351 H   0  0  0  0  0  0  0  0  0  0  0  0
    5.6719   -2.8536    0.8222 H   0  0  0  0  0  0  0  0  0  0  0  0
    1.6607   -2.9417   -0.0557 H   0  0  0  0  0  0  0  0  0  0  0  0
  1  8  1  0  0  0  0
  1 11  1  0  0  0  0
  1 12  1  0  0  0  0
  2  4  1  0  0  0  0
  3  6  1  0  0  0  0
  3  7  2  0  0  0  0
  4 16  1  0  0  0  0
  4  8  2  0  0  0  0
  5  2  2  0  0  0  0
  5  9  1  0  0  0  0
  6  9  1  0  0  0  0
  6 19  1  0  0  0  0
  7 20  1  0  0  0  0
  7 10  1  0  0  0  0
  8 10  1  0  0  0  0
  9 10  2  0  0  0  0
 13  1  1  0  0  0  0
 14  2  1  0  0  0  0
 15  3  1  0  0  0  0
 17  5  1  0  0  0  0
 18  6  1  0  0  0  0
M  END
>  <HBA>
0

>  <HBD>
0

>  <TPSA>
0.0

>  <cid>
34442

>  <dipole>
0.56

>  <excitation_energy_1>
4.639

>  <excitation_energy_2>
4.823

>  <excitation_energy_3>
5.436

>  <excitation_energy_4>
5.518

>  <homo_energy>
-5.652

>  <homo_lumo_gap>
5.162

>  <logP>
2.564

>  <lumo_energy>
-0.49

>  <melting_point>
59.1

>  <molecular_refractivity>
44.35

>  <oscillator_strength_1>
0.0636

>  <oscillator_strength_2>
0.1491

>  <oscillator_strength_3>
0.0124

>  <oscillator_strength_4>
0.1973

>  <open_babel_can_smiles>
Cc1cccc2c1C=CC2

>  <mulliken_charges>
20
1   -0.530894
2   -0.131178
3   -0.142352
4   -0.192646
5   -0.194709
6   -0.385308
7   -0.140701
8   0.124418
9   0.107544
10   0.056047
11   0.153721
12   0.160006
13   0.160045
14   0.122654
15   0.130923
16   0.116314
17   0.120383
18   0.16916
19   0.16926
20   0.127313

>  <lowdin_charges>
20
1   -0.443044
2   -0.162622
3   -0.163026
4   -0.171871
5   -0.167197
6   -0.27508
7   -0.167511
8   -0.008645
9   -0.006148
10   -0.02145
11   0.156068
12   0.159481
13   0.159503
14   0.155213
15   0.156127
16   0.152371
17   0.152127
18   0.169313
19   0.169408
20   0.156981

$$$$

