PCCDB-ID:  69903
public computational chemistry database (PCCDB) project, http://pccdb.org

 28 28  0  0  0  0  0  0  0  0999 V2000
    5.8187   -2.6320    3.7166 C   0  0  0  0  0  0  0  0  0  0  0  0
    5.0977   -0.4854    4.8879 C   0  0  0  0  0  0  0  0  0  0  0  0
    6.4747   -0.1660   -1.0503 C   0  0  0  0  0  0  0  0  0  0  0  0
    6.9882    1.4590    0.6669 C   0  0  0  0  0  0  0  0  0  0  0  0
    7.2125    0.5687   -1.9724 C   0  0  0  0  0  0  0  0  0  0  0  0
    7.7217    2.2005   -0.2534 C   0  0  0  0  0  0  0  0  0  0  0  0
    5.1460   -1.2600    3.5686 C   0  0  0  0  0  0  0  0  0  0  0  0
    6.3658    0.2629    0.2790 C   0  0  0  0  0  0  0  0  0  0  0  0
    7.8440    1.7564   -1.5762 C   0  0  0  0  0  0  0  0  0  0  0  0
    5.5515   -0.5927    1.2163 C   0  0  0  0  0  0  0  0  0  0  0  0
    8.6423    2.5869   -2.5174 C   0  0  0  0  0  0  0  0  0  0  0  0
    5.8128   -0.4414    2.5503 N   0  0  0  0  0  0  0  0  0  0  0  0
    4.6990   -1.3692    0.7920 O   0  0  0  0  0  0  0  0  0  0  0  0
    8.6929    2.0687   -3.7710 O   0  0  0  0  0  0  0  0  0  0  0  0
    9.2030    3.6242   -2.2248 O   0  0  0  0  0  0  0  0  0  0  0  0
    5.2821   -3.2478    4.4477 H   0  0  0  0  0  0  0  0  0  0  0  0
    6.8561   -2.5270    4.0589 H   0  0  0  0  0  0  0  0  0  0  0  0
    5.8179   -3.1583    2.7578 H   0  0  0  0  0  0  0  0  0  0  0  0
    4.5637   -1.0627    5.6498 H   0  0  0  0  0  0  0  0  0  0  0  0
    4.5876    0.4754    4.7632 H   0  0  0  0  0  0  0  0  0  0  0  0
    6.1084   -0.2913    5.2718 H   0  0  0  0  0  0  0  0  0  0  0  0
    5.9662   -1.0796   -1.3393 H   0  0  0  0  0  0  0  0  0  0  0  0
    6.8727    1.8364    1.6790 H   0  0  0  0  0  0  0  0  0  0  0  0
    7.3017    0.2292   -2.9982 H   0  0  0  0  0  0  0  0  0  0  0  0
    8.1997    3.1321    0.0304 H   0  0  0  0  0  0  0  0  0  0  0  0
    4.1292   -1.4131    3.1959 H   0  0  0  0  0  0  0  0  0  0  0  0
    6.6679    0.0261    2.8204 H   0  0  0  0  0  0  0  0  0  0  0  0
    9.2360    2.6896   -4.2910 H   0  0  0  0  0  0  0  0  0  0  0  0
  1 17  1  0  0  0  0
  1 16  1  0  0  0  0
  2 21  1  0  0  0  0
  2 19  1  0  0  0  0
  3  8  2  0  0  0  0
  4 23  1  0  0  0  0
  5  9  2  0  0  0  0
  5  3  1  0  0  0  0
  6 25  1  0  0  0  0
  6  4  2  0  0  0  0
  7  1  1  0  0  0  0
  7  2  1  0  0  0  0
  8  4  1  0  0  0  0
  8 10  1  0  0  0  0
  9  6  1  0  0  0  0
 10 12  1  0  0  0  0
 11 15  2  0  0  0  0
 11  9  1  0  0  0  0
 12 27  1  0  0  0  0
 12  7  1  0  0  0  0
 13 10  2  0  0  0  0
 14 11  1  0  0  0  0
 18  1  1  0  0  0  0
 20  2  1  0  0  0  0
 22  3  1  0  0  0  0
 24  5  1  0  0  0  0
 26  7  1  0  0  0  0
 28 14  1  0  0  0  0
M  END
>  <HBA>
4

>  <HBD>
2

>  <TPSA>
66.4

>  <cid>
69903

>  <dipole>
2.26

>  <excitation_energy_1>
4.088

>  <excitation_energy_2>
4.58

>  <excitation_energy_3>
4.679

>  <excitation_energy_4>
4.705

>  <homo_energy>
-6.77

>  <homo_lumo_gap>
4.977

>  <logP>
1.914

>  <lumo_energy>
-1.793

>  <melting_point>
156.39

>  <molecular_refractivity>
56.01

>  <oscillator_strength_1>
0.0024

>  <oscillator_strength_2>
0.0524

>  <oscillator_strength_3>
0.0589

>  <oscillator_strength_4>
0.0177

>  <open_babel_can_smiles>
CC(NC(=O)c1ccc(cc1)C(=O)O)C

>  <mulliken_charges>
28
1   -0.441563
2   -0.459066
3   -0.163898
4   -0.192966
5   -0.167824
6   -0.162459
7   0.05287
8   0.080008
9   0.077033
10   0.568199
11   0.540705
12   -0.612282
13   -0.524936
14   -0.580762
15   -0.472129
16   0.146494
17   0.134017
18   0.174096
19   0.156921
20   0.15895
21   0.13737
22   0.16967
23   0.137863
24   0.166424
25   0.168159
26   0.17453
27   0.320747
28   0.413831

>  <lowdin_charges>
28
1   -0.452308
2   -0.449598
3   -0.133605
4   -0.161908
5   -0.134014
6   -0.128081
7   -0.048646
8   -0.023301
9   -0.041048
10   0.159039
11   0.19519
12   -0.272713
13   -0.309654
14   -0.360047
15   -0.269365
16   0.154942
17   0.143353
18   0.165546
19   0.160388
20   0.157182
21   0.144407
22   0.180745
23   0.159575
24   0.175739
25   0.179196
26   0.164107
27   0.278652
28   0.366229

$$$$

