PCCDB-ID:  16463
public computational chemistry database (PCCDB) project, http://pccdb.org

 17 18  0  0  0  0  0  0  0  0999 V2000
   -1.2839    0.1175    0.0620 C   0  0  0  0  0  0  0  0  0  0  0  0
   -0.4081   -0.9961    0.0066 C   0  0  0  0  0  0  0  0  0  0  0  0
   -0.4814    1.2364    0.0407 C   0  0  0  0  0  0  0  0  0  0  0  0
    0.8526   -0.4654   -0.0445 C   0  0  0  0  0  0  0  0  0  0  0  0
   -0.8055    2.6377    0.0751 C   0  0  0  0  0  0  0  0  0  0  0  0
   -0.5027    4.7192    0.0811 C   0  0  0  0  0  0  0  0  0  0  0  0
   -1.9848    3.1769    0.1503 N   0  0  0  0  0  0  0  0  0  0  0  0
   -1.7896    4.5573    0.1539 N   0  0  0  0  0  0  0  0  0  0  0  0
    2.1285   -1.1047   -0.1115 N   0  0  0  0  0  0  0  0  0  0  0  0
    0.2022    5.8396    0.0538 O   0  0  0  0  0  0  0  0  0  0  0  0
    2.1056   -2.3394   -0.1293 O   0  0  0  0  0  0  0  0  0  0  0  0
    3.1306   -0.3938   -0.1455 O   0  0  0  0  0  0  0  0  0  0  0  0
    0.8325    0.8880   -0.0239 O   0  0  0  0  0  0  0  0  0  0  0  0
    0.2023    3.5718    0.0266 O   0  0  0  0  0  0  0  0  0  0  0  0
   -2.3629    0.1156    0.1107 H   0  0  0  0  0  0  0  0  0  0  0  0
   -0.6535   -2.0469    0.0024 H   0  0  0  0  0  0  0  0  0  0  0  0
   -0.4294    6.5791    0.1014 H   0  0  0  0  0  0  0  0  0  0  0  0
  1 15  1  0  0  0  0
  2  1  1  0  0  0  0
  3  1  2  0  0  0  0
  3  5  1  0  0  0  0
  4 13  1  0  0  0  0
  4  2  2  0  0  0  0
  5  7  2  0  0  0  0
  6  8  2  0  0  0  0
  7  8  1  0  0  0  0
  9  4  1  0  0  0  0
 10  6  1  0  0  0  0
 10 17  1  0  0  0  0
 11  9  2  0  0  0  0
 12  9  2  0  0  0  0
 13  3  1  0  0  0  0
 14  5  1  0  0  0  0
 14  6  1  0  0  0  0
 16  2  1  0  0  0  0
M  END
>  <HBA>
4

>  <HBD>
1

>  <TPSA>
117.85

>  <cid>
16463

>  <dipole>
3.68

>  <excitation_energy_1>
3.615

>  <excitation_energy_2>
3.69

>  <excitation_energy_3>
4.193

>  <excitation_energy_4>
4.616

>  <homo_energy>
-6.852

>  <homo_lumo_gap>
3.918

>  <logP>
1.054

>  <lumo_energy>
-2.933

>  <melting_point>
177.07

>  <molecular_refractivity>
43.65

>  <oscillator_strength_1>
0.4621

>  <oscillator_strength_2>
0.0001

>  <oscillator_strength_3>
0.0002

>  <oscillator_strength_4>
0.0012

>  <open_babel_can_smiles>
Oc1nnc(o1)c1ccc(o1)N(=O)=O

>  <mulliken_charges>
17
1   -0.174152
2   -0.154253
3   0.331591
4   0.549211
5   0.497461
6   0.719246
7   -0.348416
8   -0.329516
9   0.326579
10   -0.583298
11   -0.39869
12   -0.383063
13   -0.450656
14   -0.438593
15   0.191653
16   0.197673
17   0.447224

>  <lowdin_charges>
17
1   -0.16554
2   -0.145768
3   0.088128
4   0.077073
5   0.086021
6   0.170597
7   -0.106232
8   -0.174024
9   0.301053
10   -0.305302
11   -0.247946
12   -0.23074
13   -0.055014
14   -0.078407
15   0.193736
16   0.198653
17   0.393711

$$$$

