PCCDB-ID:  9222
public computational chemistry database (PCCDB) project, http://pccdb.org

 15 16  0  0  0  0  0  0  0  0999 V2000
    2.1366   -0.6705   -0.0702 C   0  0  0  0  0  0  0  0  0  0  0  0
    0.9809   -1.4443   -0.0238 C   0  0  0  0  0  0  0  0  0  0  0  0
   -1.6375   -1.1368    0.0543 C   0  0  0  0  0  0  0  0  0  0  0  0
    2.0451    0.7341   -0.0844 C   0  0  0  0  0  0  0  0  0  0  0  0
   -2.3535    0.0330    0.0625 C   0  0  0  0  0  0  0  0  0  0  0  0
   -0.2498   -0.7751    0.0070 C   0  0  0  0  0  0  0  0  0  0  0  0
   -0.1942    0.6497   -0.0118 C   0  0  0  0  0  0  0  0  0  0  0  0
    0.8947    1.4151   -0.0558 N   0  0  0  0  0  0  0  0  0  0  0  0
   -1.4902    1.1120    0.0233 N   0  0  0  0  0  0  0  0  0  0  0  0
    3.1156   -1.1394   -0.0961 H   0  0  0  0  0  0  0  0  0  0  0  0
    1.0338   -2.5301   -0.0120 H   0  0  0  0  0  0  0  0  0  0  0  0
   -2.0536   -2.1346    0.0787 H   0  0  0  0  0  0  0  0  0  0  0  0
    2.9518    1.3351   -0.1211 H   0  0  0  0  0  0  0  0  0  0  0  0
   -3.4227    0.1898    0.0928 H   0  0  0  0  0  0  0  0  0  0  0  0
   -1.7439    2.0882    0.0192 H   0  0  0  0  0  0  0  0  0  0  0  0
  1  2  1  0  0  0  0
  2 11  1  0  0  0  0
  2  6  2  0  0  0  0
  3  5  2  0  0  0  0
  3 12  1  0  0  0  0
  4  1  2  0  0  0  0
  4  8  1  0  0  0  0
  5 14  1  0  0  0  0
  6  3  1  0  0  0  0
  7  6  1  0  0  0  0
  7  9  1  0  0  0  0
  8  7  2  0  0  0  0
  9  5  1  0  0  0  0
 10  1  1  0  0  0  0
 13  4  1  0  0  0  0
 15  9  1  0  0  0  0
M  END
>  <HBA>
1

>  <HBD>
1

>  <TPSA>
28.68

>  <cid>
9222

>  <dipole>
1.64

>  <excitation_energy_1>
4.579

>  <excitation_energy_2>
4.851

>  <excitation_energy_3>
5.052

>  <excitation_energy_4>
5.319

>  <homo_energy>
-5.823

>  <homo_lumo_gap>
5.208

>  <logP>
1.563

>  <lumo_energy>
-0.615

>  <melting_point>
110.43

>  <molecular_refractivity>
36.09

>  <oscillator_strength_1>
0.0717

>  <oscillator_strength_2>
0.0784

>  <oscillator_strength_3>
0.0033

>  <oscillator_strength_4>
0.0042

>  <open_babel_can_smiles>
c1cnc2c(c1)cc[nH]2

>  <mulliken_charges>
15
1   -0.161049
2   -0.161098
3   -0.241577
4   0.027267
5   0.058417
6   0.128354
7   0.466598
8   -0.499477
9   -0.63865
10   0.128385
11   0.136066
12   0.133812
13   0.13335
14   0.154939
15   0.334663

>  <lowdin_charges>
15
1   -0.197235
2   -0.132402
3   -0.224298
4   -0.097473
5   -0.112134
6   -0.041943
7   0.063378
8   -0.168277
9   -0.189921
10   0.160501
11   0.15879
12   0.164522
13   0.154522
14   0.16597
15   0.295999

$$$$

