PCCDB-ID:  20572
public computational chemistry database (PCCDB) project, http://pccdb.org

 25 25  0  0  0  0  0  0  0  0999 V2000
    0.8520   -1.2086   -0.4676 C   0  0  0  0  0  0  0  0  0  0  0  0
    3.1122   -1.8596    0.4841 C   0  0  0  0  0  0  0  0  0  0  0  0
    5.7928   -0.3030   -5.6016 C   0  0  0  0  0  0  0  0  0  0  0  0
    5.9937    0.9058   -4.9348 C   0  0  0  0  0  0  0  0  0  0  0  0
    5.1177   -1.3409   -4.9547 C   0  0  0  0  0  0  0  0  0  0  0  0
    5.5232    1.0724   -3.6305 C   0  0  0  0  0  0  0  0  0  0  0  0
    4.6489   -1.1691   -3.6526 C   0  0  0  0  0  0  0  0  0  0  0  0
    2.9010   -0.1344   -1.3589 C   0  0  0  0  0  0  0  0  0  0  0  0
    4.3580    0.2140   -1.5389 C   0  0  0  0  0  0  0  0  0  0  0  0
    2.3497   -1.0112   -0.5048 C   0  0  0  0  0  0  0  0  0  0  0  0
    4.8487    0.0391   -2.9698 C   0  0  0  0  0  0  0  0  0  0  0  0
    0.4477   -0.9821    0.5292 H   0  0  0  0  0  0  0  0  0  0  0  0
    0.5846   -2.2534   -0.6801 H   0  0  0  0  0  0  0  0  0  0  0  0
    0.3374   -0.5722   -1.1942 H   0  0  0  0  0  0  0  0  0  0  0  0
    2.8831   -2.9242    0.3374 H   0  0  0  0  0  0  0  0  0  0  0  0
    2.8110   -1.6184    1.5132 H   0  0  0  0  0  0  0  0  0  0  0  0
    4.1961   -1.7387    0.4188 H   0  0  0  0  0  0  0  0  0  0  0  0
    6.1564   -0.4355   -6.6172 H   0  0  0  0  0  0  0  0  0  0  0  0
    6.5142    1.7220   -5.4294 H   0  0  0  0  0  0  0  0  0  0  0  0
    4.9540   -2.2860   -5.4665 H   0  0  0  0  0  0  0  0  0  0  0  0
    5.6835    2.0183   -3.1170 H   0  0  0  0  0  0  0  0  0  0  0  0
    4.1150   -1.9766   -3.1575 H   0  0  0  0  0  0  0  0  0  0  0  0
    2.2284    0.4130   -2.0208 H   0  0  0  0  0  0  0  0  0  0  0  0
    4.9851   -0.3836   -0.8664 H   0  0  0  0  0  0  0  0  0  0  0  0
    4.5167    1.2615   -1.2443 H   0  0  0  0  0  0  0  0  0  0  0  0
  1 12  1  0  0  0  0
  2 16  1  0  0  0  0
  3  5  2  0  0  0  0
  3  4  1  0  0  0  0
  4  6  2  0  0  0  0
  5  7  1  0  0  0  0
  6 21  1  0  0  0  0
  6 11  1  0  0  0  0
  7 22  1  0  0  0  0
  7 11  2  0  0  0  0
  8 10  2  0  0  0  0
  9  8  1  0  0  0  0
  9 25  1  0  0  0  0
  9 24  1  0  0  0  0
 10  1  1  0  0  0  0
 10  2  1  0  0  0  0
 11  9  1  0  0  0  0
 13  1  1  0  0  0  0
 14  1  1  0  0  0  0
 15  2  1  0  0  0  0
 17  2  1  0  0  0  0
 18  3  1  0  0  0  0
 19  4  1  0  0  0  0
 20  5  1  0  0  0  0
 23  8  1  0  0  0  0
M  END
>  <HBA>
0

>  <HBD>
0

>  <TPSA>
0.0

>  <cid>
20572

>  <dipole>
0.61

>  <excitation_energy_1>
5.218

>  <excitation_energy_2>
5.43

>  <excitation_energy_3>
5.636

>  <excitation_energy_4>
5.721

>  <homo_energy>
-6.15

>  <homo_lumo_gap>
6.286

>  <logP>
3.195

>  <lumo_energy>
0.136

>  <melting_point>
17.7

>  <molecular_refractivity>
50.16

>  <oscillator_strength_1>
0.0149

>  <oscillator_strength_2>
0.0218

>  <oscillator_strength_3>
0.0773

>  <oscillator_strength_4>
0.0069

>  <open_babel_can_smiles>
CC(=CCc1ccccc1)C

>  <mulliken_charges>
25
1   -0.505377
2   -0.51334
3   -0.131712
4   -0.126055
5   -0.129237
6   -0.193123
7   -0.170982
8   -0.148924
9   -0.392278
10   0.180003
11   0.171355
12   0.149438
13   0.149294
14   0.153082
15   0.151972
16   0.153943
17   0.154544
18   0.125624
19   0.126122
20   0.126164
21   0.120177
22   0.127793
23   0.118215
24   0.15486
25   0.148443

>  <lowdin_charges>
25
1   -0.438825
2   -0.440927
3   -0.160991
4   -0.157655
5   -0.155875
6   -0.170668
7   -0.164568
8   -0.190128
9   -0.272321
10   -0.010772
11   -0.000949
12   0.152205
13   0.151506
14   0.156596
15   0.153594
16   0.155357
17   0.153261
18   0.154784
19   0.157026
20   0.155737
21   0.152753
22   0.159245
23   0.150824
24   0.157936
25   0.152854

$$$$

