PCCDB-ID:  12302
public computational chemistry database (PCCDB) project, http://pccdb.org

 16 15  0  0  0  0  0  0  0  0999 V2000
    0.9176    0.0874    0.0116 C   0  0  0  0  0  0  0  0  0  0  0  0
    2.4490    0.0750   -0.0317 C   0  0  0  0  0  0  0  0  0  0  0  0
    2.9972    0.2839   -1.4500 C   0  0  0  0  0  0  0  0  0  0  0  0
    4.5280    0.2659   -1.4760 C   0  0  0  0  0  0  0  0  0  0  0  0
    5.0125    0.4775   -2.8857 N   0  0  0  0  0  0  0  0  0  0  0  0
    5.1839    1.6376   -3.2513 O   0  0  0  0  0  0  0  0  0  0  0  0
    5.1543   -0.5218   -3.5857 O   0  0  0  0  0  0  0  0  0  0  0  0
    0.5518   -0.0623    1.0331 H   0  0  0  0  0  0  0  0  0  0  0  0
    0.4968   -0.7084   -0.6143 H   0  0  0  0  0  0  0  0  0  0  0  0
    0.5182    1.0423   -0.3501 H   0  0  0  0  0  0  0  0  0  0  0  0
    2.8199   -0.8800    0.3653 H   0  0  0  0  0  0  0  0  0  0  0  0
    2.8419    0.8590    0.6300 H   0  0  0  0  0  0  0  0  0  0  0  0
    2.6497    1.2445   -1.8501 H   0  0  0  0  0  0  0  0  0  0  0  0
    2.6241   -0.5028   -2.1174 H   0  0  0  0  0  0  0  0  0  0  0  0
    4.9293   -0.6979   -1.1585 H   0  0  0  0  0  0  0  0  0  0  0  0
    4.9544    1.0768   -0.8832 H   0  0  0  0  0  0  0  0  0  0  0  0
  1  8  1  0  0  0  0
  2  1  1  0  0  0  0
  2 11  1  0  0  0  0
  2 12  1  0  0  0  0
  3  2  1  0  0  0  0
  4  3  1  0  0  0  0
  4 15  1  0  0  0  0
  4 16  1  0  0  0  0
  5  4  1  0  0  0  0
  6  5  2  0  0  0  0
  7  5  2  0  0  0  0
  9  1  1  0  0  0  0
 10  1  1  0  0  0  0
 13  3  1  0  0  0  0
 14  3  1  0  0  0  0
M  END
>  <HBA>
0

>  <HBD>
0

>  <TPSA>
45.82

>  <cid>
12302

>  <dipole>
3.96

>  <excitation_energy_1>
4.087

>  <excitation_energy_2>
4.414

>  <excitation_energy_3>
6.538

>  <excitation_energy_4>
6.883

>  <homo_energy>
-7.851

>  <homo_lumo_gap>
6.106

>  <logP>
1.586

>  <lumo_energy>
-1.744

>  <melting_point>
5.52

>  <molecular_refractivity>
29.45

>  <oscillator_strength_1>
0.0

>  <oscillator_strength_2>
0.0011

>  <oscillator_strength_3>
0.0183

>  <oscillator_strength_4>
0.1241

>  <open_babel_can_smiles>
CCCCN(=O)=O

>  <mulliken_charges>
16
1   -0.444342
2   -0.257567
3   -0.270757
4   -0.15175
5   0.445392
6   -0.379126
7   -0.379247
8   0.151777
9   0.150659
10   0.150652
11   0.142272
12   0.142353
13   0.165975
14   0.165946
15   0.183889
16   0.183874

>  <lowdin_charges>
16
1   -0.442758
2   -0.272081
3   -0.276397
4   -0.220034
5   0.297581
6   -0.247251
7   -0.248663
8   0.154487
9   0.152452
10   0.151456
11   0.144606
12   0.145696
13   0.157582
14   0.158622
15   0.171749
16   0.172953

$$$$

