PCCDB-ID:  27756
public computational chemistry database (PCCDB) project, http://pccdb.org

 21 22  0  0  1  0  0  0  0  0999 V2000
    0.8468   -0.3106    0.6426 C   0  0  0  0  0  0  0  0  0  0  0  0
    2.3180   -0.1751    0.3604 C   0  0  0  0  0  0  0  0  0  0  0  0
    4.3809   -2.7763   -1.9353 C   0  0  0  0  0  0  0  0  0  0  0  0
    3.0691   -2.8789   -1.6813 C   0  0  0  0  0  0  0  0  0  0  0  0
    4.4868   -0.5052   -0.9591 C   0  0  0  0  0  0  0  0  0  0  0  0
    3.3511   -0.9514   -3.0120 C   0  0  0  0  0  0  0  0  0  0  0  0
    4.6673   -1.3204   -2.2850 C   0  0  2  0  0  0  0  0  0  0  0  0
    2.9868   -0.6652   -0.6868 C   0  0  0  0  0  0  0  0  0  0  0  0
    2.4519   -1.4899   -1.8685 C   0  0  2  0  0  0  0  0  0  0  0  0
    0.3665    0.6739    0.7287 H   0  0  0  0  0  0  0  0  0  0  0  0
    0.6742   -0.8254    1.5980 H   0  0  0  0  0  0  0  0  0  0  0  0
    0.3212   -0.8716   -0.1357 H   0  0  0  0  0  0  0  0  0  0  0  0
    2.8833    0.3872    1.1065 H   0  0  0  0  0  0  0  0  0  0  0  0
    5.1387   -3.5416   -1.7999 H   0  0  0  0  0  0  0  0  0  0  0  0
    2.5363   -3.7382   -1.2869 H   0  0  0  0  0  0  0  0  0  0  0  0
    4.7510    0.5491   -1.1141 H   0  0  0  0  0  0  0  0  0  0  0  0
    5.1129   -0.8872   -0.1454 H   0  0  0  0  0  0  0  0  0  0  0  0
    3.2119   -1.4977   -3.9500 H   0  0  0  0  0  0  0  0  0  0  0  0
    3.2343    0.1254   -3.1848 H   0  0  0  0  0  0  0  0  0  0  0  0
    5.6030   -1.1215   -2.8129 H   0  0  0  0  0  0  0  0  0  0  0  0
    1.3726   -1.4571   -2.0221 H   0  0  0  0  0  0  0  0  0  0  0  0
  1 10  1  0  0  0  0
  1 11  1  0  0  0  0
  2  1  1  0  0  0  0
  2 13  1  0  0  0  0
  3 14  1  0  0  0  0
  3  4  2  0  0  0  0
  4 15  1  0  0  0  0
  5  8  1  0  0  0  0
  5 17  1  0  0  0  0
  6  7  1  0  0  0  0
  6  9  1  0  0  0  0
  7 20  1  6  0  0  0
  7  3  1  0  0  0  0
  7  5  1  0  0  0  0
  8  2  2  0  0  0  0
  9 21  1  6  0  0  0
  9  4  1  0  0  0  0
  9  8  1  0  0  0  0
 12  1  1  0  0  0  0
 16  5  1  0  0  0  0
 18  6  1  0  0  0  0
 19  6  1  0  0  0  0
M  END
>  <HBA>
0

>  <HBD>
0

>  <TPSA>
0.0

>  <cid>
27756

>  <dipole>
0.12

>  <excitation_energy_1>
5.409

>  <excitation_energy_2>
5.583

>  <excitation_energy_3>
5.87

>  <excitation_energy_4>
5.909

>  <homo_energy>
-5.959

>  <homo_lumo_gap>
6.357

>  <logP>
2.529

>  <lumo_energy>
0.397

>  <melting_point>
39.6

>  <molecular_refractivity>
40.2

>  <oscillator_strength_1>
0.0626

>  <oscillator_strength_2>
0.0376

>  <oscillator_strength_3>
0.0586

>  <oscillator_strength_4>
0.0193

>  <open_babel_can_smiles>
C/C=C\1/C[C@@H]2C[C@H]1C=C2

>  <mulliken_charges>
21
1   -0.482978
2   -0.191003
3   -0.100891
4   -0.098915
5   -0.311037
6   -0.257079
7   -0.164018
8   0.193118
9   -0.211451
10   0.150534
11   0.151608
12   0.148195
13   0.112104
14   0.125805
15   0.129131
16   0.146732
17   0.147818
18   0.138835
19   0.133716
20   0.119443
21   0.120335

>  <lowdin_charges>
21
1   -0.440489
2   -0.19281
3   -0.176701
4   -0.169125
5   -0.278878
6   -0.26637
7   -0.132915
8   -0.016166
9   -0.131339
10   0.153361
11   0.154291
12   0.153054
13   0.147536
14   0.156994
15   0.158296
16   0.150204
17   0.153453
18   0.148395
19   0.140121
20   0.143603
21   0.145485

$$$$

