PCCDB-ID:  8328
public computational chemistry database (PCCDB) project, http://pccdb.org

 26 28  0  0  0  0  0  0  0  0999 V2000
    3.7104    0.6874    0.0117 C   0  0  0  0  0  0  0  0  0  0  0  0
   -3.6881   -0.6594    0.0249 C   0  0  0  0  0  0  0  0  0  0  0  0
    2.5020    1.3783    0.0146 C   0  0  0  0  0  0  0  0  0  0  0  0
   -2.4797   -1.3503    0.0237 C   0  0  0  0  0  0  0  0  0  0  0  0
    3.7199   -0.7029    0.0126 C   0  0  0  0  0  0  0  0  0  0  0  0
   -3.6976    0.7310    0.0241 C   0  0  0  0  0  0  0  0  0  0  0  0
    1.2994    0.6706    0.0174 C   0  0  0  0  0  0  0  0  0  0  0  0
   -1.2771   -0.6426    0.0216 C   0  0  0  0  0  0  0  0  0  0  0  0
    2.5207   -1.4297    0.0160 C   0  0  0  0  0  0  0  0  0  0  0  0
   -2.4984    1.4578    0.0227 C   0  0  0  0  0  0  0  0  0  0  0  0
    1.2808   -0.7429    0.0181 C   0  0  0  0  0  0  0  0  0  0  0  0
   -1.2584    0.7710    0.0218 C   0  0  0  0  0  0  0  0  0  0  0  0
    0.0375    1.4917    0.0219 C   0  0  0  0  0  0  0  0  0  0  0  0
   -0.0151   -1.4637    0.0191 C   0  0  0  0  0  0  0  0  0  0  0  0
    2.5413   -2.7848    0.0175 O   0  0  0  0  0  0  0  0  0  0  0  0
   -2.5190    2.8128    0.0220 O   0  0  0  0  0  0  0  0  0  0  0  0
    0.1196    2.7142    0.0258 O   0  0  0  0  0  0  0  0  0  0  0  0
   -0.0973   -2.6861    0.0174 O   0  0  0  0  0  0  0  0  0  0  0  0
    4.6516    1.2301    0.0088 H   0  0  0  0  0  0  0  0  0  0  0  0
   -4.6293   -1.2021    0.0264 H   0  0  0  0  0  0  0  0  0  0  0  0
    2.4628    2.4613    0.0148 H   0  0  0  0  0  0  0  0  0  0  0  0
   -2.4405   -2.4332    0.0239 H   0  0  0  0  0  0  0  0  0  0  0  0
    4.6648   -1.2440    0.0113 H   0  0  0  0  0  0  0  0  0  0  0  0
   -4.6425    1.2720    0.0253 H   0  0  0  0  0  0  0  0  0  0  0  0
    3.4680   -3.0752    0.0168 H   0  0  0  0  0  0  0  0  0  0  0  0
   -3.4457    3.1033    0.0222 H   0  0  0  0  0  0  0  0  0  0  0  0
  1  5  2  0  0  0  0
  1  3  1  0  0  0  0
  2 20  1  0  0  0  0
  3 21  1  0  0  0  0
  3  7  2  0  0  0  0
  4 22  1  0  0  0  0
  4  2  2  0  0  0  0
  5  9  1  0  0  0  0
  6  2  1  0  0  0  0
  6 24  1  0  0  0  0
  7 11  1  0  0  0  0
  7 13  1  0  0  0  0
  8 12  2  0  0  0  0
  8  4  1  0  0  0  0
  9 15  1  0  0  0  0
  9 11  2  0  0  0  0
 10  6  2  0  0  0  0
 11 14  1  0  0  0  0
 12 13  1  0  0  0  0
 12 10  1  0  0  0  0
 13 17  2  0  0  0  0
 14  8  1  0  0  0  0
 16 26  1  0  0  0  0
 16 10  1  0  0  0  0
 18 14  2  0  0  0  0
 19  1  1  0  0  0  0
 23  5  1  0  0  0  0
 25 15  1  0  0  0  0
M  END
>  <HBA>
4

>  <HBD>
2

>  <TPSA>
74.6

>  <cid>
8328

>  <dipole>
0.01

>  <excitation_energy_1>
2.811

>  <excitation_energy_2>
3.072

>  <excitation_energy_3>
3.288

>  <excitation_energy_4>
3.376

>  <homo_energy>
-6.397

>  <homo_lumo_gap>
3.891

>  <logP>
1.873

>  <lumo_energy>
-2.506

>  <melting_point>
204.83

>  <molecular_refractivity>
63.8

>  <oscillator_strength_1>
0.0

>  <oscillator_strength_2>
0.0

>  <oscillator_strength_3>
0.1834

>  <oscillator_strength_4>
0.0

>  <open_babel_can_smiles>
Oc1cccc2c1C(=O)c1cccc(c1C2=O)O

>  <mulliken_charges>
26
1   -0.12722
2   -0.12721
3   -0.178388
4   -0.178402
5   -0.187005
6   -0.187005
7   0.020101
8   0.020142
9   0.301733
10   0.30173
11   0.033382
12   0.033358
13   0.34906
14   0.349015
15   -0.597859
16   -0.59786
17   -0.463958
18   -0.463953
19   0.145298
20   0.145297
21   0.168223
22   0.168222
23   0.127431
24   0.127431
25   0.409217
26   0.409218

>  <lowdin_charges>
26
1   -0.128328
2   -0.128328
3   -0.149887
4   -0.149888
5   -0.202695
6   -0.202695
7   -0.021855
8   -0.021855
9   0.127344
10   0.127345
11   -0.070223
12   -0.070223
13   0.148
14   0.147998
15   -0.334971
16   -0.334972
17   -0.227707
18   -0.227704
19   0.166119
20   0.166119
21   0.179459
22   0.179459
23   0.158161
24   0.158161
25   0.356583
26   0.356584

$$$$

