PCCDB-ID:  33588
public computational chemistry database (PCCDB) project, http://pccdb.org

 44 43  0  0  0  0  0  0  0  0999 V2000
    0.2262   -5.1601   -0.7788 C   0  0  0  0  0  0  0  0  0  0  0  0
    7.4431   -9.3005    4.4995 C   0  0  0  0  0  0  0  0  0  0  0  0
    6.8623   -2.9740    1.5555 C   0  0  0  0  0  0  0  0  0  0  0  0
    1.1005   -4.0223   -1.3197 C   0  0  0  0  0  0  0  0  0  0  0  0
    6.9110   -8.4413    3.3480 C   0  0  0  0  0  0  0  0  0  0  0  0
    2.4408   -3.8386   -0.5863 C   0  0  0  0  0  0  0  0  0  0  0  0
    7.9275   -7.4100    2.8414 C   0  0  0  0  0  0  0  0  0  0  0  0
    3.4171   -5.0146   -0.7399 C   0  0  0  0  0  0  0  0  0  0  0  0
    7.3993   -6.5400    1.6923 C   0  0  0  0  0  0  0  0  0  0  0  0
    4.7549   -4.8429    0.0057 C   0  0  0  0  0  0  0  0  0  0  0  0
    8.4312   -5.5188    1.1954 C   0  0  0  0  0  0  0  0  0  0  0  0
    5.6587   -3.7463   -0.5745 C   0  0  0  0  0  0  0  0  0  0  0  0
    8.0500   -4.6651   -0.0332 C   0  0  0  0  0  0  0  0  0  0  0  0
    7.0213   -3.4935    0.1171 C   0  0  0  0  0  0  0  0  0  0  0  0
   -0.7404   -5.1926   -1.2947 H   0  0  0  0  0  0  0  0  0  0  0  0
    0.0267   -5.0291    0.2924 H   0  0  0  0  0  0  0  0  0  0  0  0
    0.7002   -6.1393   -0.9093 H   0  0  0  0  0  0  0  0  0  0  0  0
    6.6960  -10.0291    4.8349 H   0  0  0  0  0  0  0  0  0  0  0  0
    7.7156   -8.6815    5.3633 H   0  0  0  0  0  0  0  0  0  0  0  0
    8.3389   -9.8571    4.1976 H   0  0  0  0  0  0  0  0  0  0  0  0
    6.1764   -2.1183    1.5778 H   0  0  0  0  0  0  0  0  0  0  0  0
    7.8212   -2.6353    1.9651 H   0  0  0  0  0  0  0  0  0  0  0  0
    6.4643   -3.7323    2.2378 H   0  0  0  0  0  0  0  0  0  0  0  0
    0.5366   -3.0818   -1.2573 H   0  0  0  0  0  0  0  0  0  0  0  0
    1.2946   -4.1879   -2.3893 H   0  0  0  0  0  0  0  0  0  0  0  0
    5.9979   -7.9209    3.6709 H   0  0  0  0  0  0  0  0  0  0  0  0
    6.6098   -9.0919    2.5146 H   0  0  0  0  0  0  0  0  0  0  0  0
    2.2456   -3.6701    0.4840 H   0  0  0  0  0  0  0  0  0  0  0  0
    2.9128   -2.9195   -0.9570 H   0  0  0  0  0  0  0  0  0  0  0  0
    8.8400   -7.9309    2.5142 H   0  0  0  0  0  0  0  0  0  0  0  0
    8.2328   -6.7630    3.6776 H   0  0  0  0  0  0  0  0  0  0  0  0
    3.6173   -5.1809   -1.8096 H   0  0  0  0  0  0  0  0  0  0  0  0
    2.9372   -5.9321   -0.3751 H   0  0  0  0  0  0  0  0  0  0  0  0
    6.4848   -6.0310    2.0221 H   0  0  0  0  0  0  0  0  0  0  0  0
    7.0999   -7.1899    0.8563 H   0  0  0  0  0  0  0  0  0  0  0  0
    5.2866   -5.8014   -0.0195 H   0  0  0  0  0  0  0  0  0  0  0  0
    4.5446   -4.6368    1.0649 H   0  0  0  0  0  0  0  0  0  0  0  0
    9.3458   -6.0695    0.9313 H   0  0  0  0  0  0  0  0  0  0  0  0
    8.7166   -4.8613    2.0277 H   0  0  0  0  0  0  0  0  0  0  0  0
    5.1120   -2.7934   -0.5738 H   0  0  0  0  0  0  0  0  0  0  0  0
    5.8527   -3.9801   -1.6322 H   0  0  0  0  0  0  0  0  0  0  0  0
    7.7122   -5.3364   -0.8360 H   0  0  0  0  0  0  0  0  0  0  0  0
    8.9870   -4.2270   -0.4011 H   0  0  0  0  0  0  0  0  0  0  0  0
    7.4528   -2.6563   -0.4505 H   0  0  0  0  0  0  0  0  0  0  0  0
  1 16  1  0  0  0  0
  2 18  1  0  0  0  0
  2 19  1  0  0  0  0
  3 21  1  0  0  0  0
  3 22  1  0  0  0  0
  3 23  1  0  0  0  0
  4 24  1  0  0  0  0
  4  1  1  0  0  0  0
  4  6  1  0  0  0  0
  5 26  1  0  0  0  0
  5  2  1  0  0  0  0
  6 28  1  0  0  0  0
  7  5  1  0  0  0  0
  7 31  1  0  0  0  0
  8  6  1  0  0  0  0
  8 33  1  0  0  0  0
  8 10  1  0  0  0  0
  9 34  1  0  0  0  0
  9  7  1  0  0  0  0
 10 37  1  0  0  0  0
 11  9  1  0  0  0  0
 11 39  1  0  0  0  0
 12 40  1  0  0  0  0
 12 10  1  0  0  0  0
 12 14  1  0  0  0  0
 13 14  1  0  0  0  0
 13 11  1  0  0  0  0
 14  3  1  0  0  0  0
 15  1  1  0  0  0  0
 17  1  1  0  0  0  0
 20  2  1  0  0  0  0
 25  4  1  0  0  0  0
 27  5  1  0  0  0  0
 29  6  1  0  0  0  0
 30  7  1  0  0  0  0
 32  8  1  0  0  0  0
 35  9  1  0  0  0  0
 36 10  1  0  0  0  0
 38 11  1  0  0  0  0
 41 12  1  0  0  0  0
 42 13  1  0  0  0  0
 43 13  1  0  0  0  0
 44 14  1  0  0  0  0
M  END
>  <HBA>
0

>  <HBD>
0

>  <TPSA>
0.0

>  <cid>
33588

>  <dipole>
0.15

>  <excitation_energy_1>
7.219

>  <excitation_energy_2>
7.457

>  <excitation_energy_3>
7.506

>  <excitation_energy_4>
7.608

>  <homo_energy>
-7.766

>  <homo_lumo_gap>
9.889

>  <logP>
5.563

>  <lumo_energy>
2.123

>  <melting_point>
-31.88

>  <molecular_refractivity>
69.41

>  <oscillator_strength_1>
0.0024

>  <oscillator_strength_2>
0.0101

>  <oscillator_strength_3>
0.0066

>  <oscillator_strength_4>
0.0037

>  <open_babel_can_smiles>
CCCCCCC(CCCCCC)C

>  <mulliken_charges>
44
1   -0.442834
2   -0.441183
3   -0.456778
4   -0.248263
5   -0.246823
6   -0.250671
7   -0.247054
8   -0.255705
9   -0.256568
10   -0.261965
11   -0.254968
12   -0.266214
13   -0.27696
14   -0.059611
15   0.140895
16   0.139748
17   0.146201
18   0.140836
19   0.140757
20   0.140796
21   0.137529
22   0.141057
23   0.147979
24   0.129243
25   0.128998
26   0.129363
27   0.129339
28   0.123955
29   0.132097
30   0.125469
31   0.12601
32   0.123741
33   0.130509
34   0.137819
35   0.126003
36   0.137099
37   0.127792
38   0.125233
39   0.130453
40   0.127898
41   0.122703
42   0.128163
43   0.128042
44   0.119872

>  <lowdin_charges>
44
1   -0.445139
2   -0.446412
3   -0.450864
4   -0.271184
5   -0.273434
6   -0.276887
7   -0.275996
8   -0.275614
9   -0.28139
10   -0.280312
11   -0.278317
12   -0.277636
13   -0.284817
14   -0.126935
15   0.148824
16   0.143755
17   0.146568
18   0.149721
19   0.146474
20   0.146324
21   0.147999
22   0.147683
23   0.148441
24   0.140902
25   0.136585
26   0.138581
27   0.139211
28   0.134235
29   0.141047
30   0.136836
31   0.137774
32   0.13439
33   0.141519
34   0.140911
35   0.136645
36   0.144449
37   0.136026
38   0.140767
39   0.140886
40   0.138161
41   0.135012
42   0.141293
43   0.143902
44   0.140015

$$$$

