PCCDB-ID:  46153
public computational chemistry database (PCCDB) project, http://pccdb.org

 19 20  0  0  0  0  0  0  0  0999 V2000
   -1.2925    1.3765   -0.0413 C   0  0  0  0  0  0  0  0  0  0  0  0
    2.4155   -0.6654   -0.1037 C   0  0  0  0  0  0  0  0  0  0  0  0
    1.2195   -1.3692   -0.0778 C   0  0  0  0  0  0  0  0  0  0  0  0
   -2.4294    0.6453   -0.0146 C   0  0  0  0  0  0  0  0  0  0  0  0
    1.2180    1.4287   -0.0883 C   0  0  0  0  0  0  0  0  0  0  0  0
   -0.0023    0.7321   -0.0638 C   0  0  0  0  0  0  0  0  0  0  0  0
    2.4364    0.7467   -0.1094 C   0  0  0  0  0  0  0  0  0  0  0  0
    0.0103   -0.6736   -0.0578 C   0  0  0  0  0  0  0  0  0  0  0  0
   -2.4073   -0.8157   -0.0058 C   0  0  0  0  0  0  0  0  0  0  0  0
    3.6520    1.4343   -0.1964 N   0  0  0  0  0  0  0  0  0  0  0  0
   -3.3759   -1.5394    0.0203 O   0  0  0  0  0  0  0  0  0  0  0  0
   -1.1470   -1.4054   -0.0297 O   0  0  0  0  0  0  0  0  0  0  0  0
   -1.3343    2.4636   -0.0470 H   0  0  0  0  0  0  0  0  0  0  0  0
    3.3559   -1.2110   -0.1253 H   0  0  0  0  0  0  0  0  0  0  0  0
    1.2054   -2.4540   -0.0714 H   0  0  0  0  0  0  0  0  0  0  0  0
   -3.4146    1.0970    0.0023 H   0  0  0  0  0  0  0  0  0  0  0  0
    1.2032    2.5165   -0.0967 H   0  0  0  0  0  0  0  0  0  0  0  0
    4.4512    0.9277    0.1645 H   0  0  0  0  0  0  0  0  0  0  0  0
    3.6303    2.3813    0.1616 H   0  0  0  0  0  0  0  0  0  0  0  0
  1  4  2  0  0  0  0
  2  3  1  0  0  0  0
  3 15  1  0  0  0  0
  3  8  2  0  0  0  0
  4  9  1  0  0  0  0
  4 16  1  0  0  0  0
  5  6  2  0  0  0  0
  6  8  1  0  0  0  0
  6  1  1  0  0  0  0
  7  2  2  0  0  0  0
  7  5  1  0  0  0  0
  8 12  1  0  0  0  0
  9 11  2  0  0  0  0
 10  7  1  0  0  0  0
 10 19  1  0  0  0  0
 10 18  1  0  0  0  0
 12  9  1  0  0  0  0
 13  1  1  0  0  0  0
 14  2  1  0  0  0  0
 17  5  1  0  0  0  0
M  END
>  <HBA>
3

>  <HBD>
1

>  <TPSA>
56.23

>  <cid>
46153

>  <dipole>
6.39

>  <excitation_energy_1>
3.392

>  <excitation_energy_2>
4.413

>  <excitation_energy_3>
4.557

>  <excitation_energy_4>
4.754

>  <homo_energy>
-5.641

>  <homo_lumo_gap>
3.916

>  <logP>
1.956

>  <lumo_energy>
-1.725

>  <melting_point>
132.48

>  <molecular_refractivity>
46.89

>  <oscillator_strength_1>
0.0634

>  <oscillator_strength_2>
0.0

>  <oscillator_strength_3>
0.1541

>  <oscillator_strength_4>
0.0299

>  <open_babel_can_smiles>
Nc1ccc2c(c1)ccc(=O)o2

>  <mulliken_charges>
19
1   -0.120285
2   -0.172553
3   -0.175804
4   -0.219556
5   -0.256515
6   0.131329
7   0.318416
8   0.30451
9   0.59477
10   -0.790296
11   -0.47061
12   -0.518982
13   0.151664
14   0.132498
15   0.156247
16   0.162571
17   0.127279
18   0.32283
19   0.322486

>  <lowdin_charges>
19
1   -0.107837
2   -0.174649
3   -0.159377
4   -0.198159
5   -0.192562
6   -0.029366
7   0.053654
8   0.092352
9   0.195381
10   -0.488044
11   -0.248007
12   -0.135503
13   0.16583
14   0.161236
15   0.174062
16   0.180945
17   0.15566
18   0.278209
19   0.276178

$$$$

