PCCDB-ID:  66913
public computational chemistry database (PCCDB) project, http://pccdb.org

 30 30  0  0  0  0  0  0  0  0999 V2000
    0.8143   -0.6650   -0.9757 C   0  0  0  0  0  0  0  0  0  0  0  0
    3.0137    0.5085   -1.4751 C   0  0  0  0  0  0  0  0  0  0  0  0
    3.0864   -1.7521   -0.6906 C   0  0  0  0  0  0  0  0  0  0  0  0
    4.4024    0.5365   -1.5493 C   0  0  0  0  0  0  0  0  0  0  0  0
    4.4818   -1.7458   -0.7564 C   0  0  0  0  0  0  0  0  0  0  0  0
   11.6866   -3.3266   -0.7432 C   0  0  0  0  0  0  0  0  0  0  0  0
   10.9723   -2.0065   -0.9861 C   0  0  0  0  0  0  0  0  0  0  0  0
    8.7598   -1.1608   -1.1776 C   0  0  0  0  0  0  0  0  0  0  0  0
    7.3159   -1.5882   -0.9573 C   0  0  0  0  0  0  0  0  0  0  0  0
    2.3242   -0.6346   -1.0458 C   0  0  0  0  0  0  0  0  0  0  0  0
    5.1464   -0.5932   -1.1893 C   0  0  0  0  0  0  0  0  0  0  0  0
   11.2875   -4.3087   -1.6832 O   0  0  0  0  0  0  0  0  0  0  0  0
    9.5803   -2.2649   -0.8465 O   0  0  0  0  0  0  0  0  0  0  0  0
    6.5071   -0.4718   -1.2936 O   0  0  0  0  0  0  0  0  0  0  0  0
    0.3864    0.3174   -1.1999 H   0  0  0  0  0  0  0  0  0  0  0  0
    0.4619   -0.9613    0.0200 H   0  0  0  0  0  0  0  0  0  0  0  0
    0.3905   -1.3803   -1.6923 H   0  0  0  0  0  0  0  0  0  0  0  0
    2.4522    1.3961   -1.7581 H   0  0  0  0  0  0  0  0  0  0  0  0
    2.5848   -2.6559   -0.3504 H   0  0  0  0  0  0  0  0  0  0  0  0
    4.9313    1.4243   -1.8823 H   0  0  0  0  0  0  0  0  0  0  0  0
    5.0321   -2.6350   -0.4700 H   0  0  0  0  0  0  0  0  0  0  0  0
   11.4934   -3.6557    0.2909 H   0  0  0  0  0  0  0  0  0  0  0  0
   12.7671   -3.1912   -0.8584 H   0  0  0  0  0  0  0  0  0  0  0  0
   11.1891   -1.6430   -2.0029 H   0  0  0  0  0  0  0  0  0  0  0  0
   11.2991   -1.2393   -0.2650 H   0  0  0  0  0  0  0  0  0  0  0  0
    8.9918   -0.2922   -0.5420 H   0  0  0  0  0  0  0  0  0  0  0  0
    8.9058   -0.8580   -2.2261 H   0  0  0  0  0  0  0  0  0  0  0  0
    7.1684   -1.8826    0.0908 H   0  0  0  0  0  0  0  0  0  0  0  0
    7.0793   -2.4524   -1.5935 H   0  0  0  0  0  0  0  0  0  0  0  0
   10.3161   -4.3003   -1.6690 H   0  0  0  0  0  0  0  0  0  0  0  0
  1 16  1  0  0  0  0
  2 10  1  0  0  0  0
  3 19  1  0  0  0  0
  4  2  2  0  0  0  0
  4 11  1  0  0  0  0
  5  3  1  0  0  0  0
  5 21  1  0  0  0  0
  6 22  1  0  0  0  0
  7 13  1  0  0  0  0
  7  6  1  0  0  0  0
  7 25  1  0  0  0  0
  8  9  1  0  0  0  0
  8 13  1  0  0  0  0
  8 26  1  0  0  0  0
  9 28  1  0  0  0  0
 10  1  1  0  0  0  0
 10  3  2  0  0  0  0
 11  5  2  0  0  0  0
 12 30  1  0  0  0  0
 12  6  1  0  0  0  0
 14 11  1  0  0  0  0
 14  9  1  0  0  0  0
 15  1  1  0  0  0  0
 17  1  1  0  0  0  0
 18  2  1  0  0  0  0
 20  4  1  0  0  0  0
 23  6  1  0  0  0  0
 24  7  1  0  0  0  0
 27  8  1  0  0  0  0
 29  9  1  0  0  0  0
M  END
>  <HBA>
3

>  <HBD>
1

>  <TPSA>
38.69

>  <cid>
66913

>  <dipole>
1.47

>  <excitation_energy_1>
4.919

>  <excitation_energy_2>
5.42

>  <excitation_energy_3>
5.604

>  <excitation_energy_4>
5.721

>  <homo_energy>
-5.78

>  <homo_lumo_gap>
5.799

>  <logP>
1.383

>  <lumo_energy>
0.019

>  <melting_point>
20.94

>  <molecular_refractivity>
54.57

>  <oscillator_strength_1>
0.0358

>  <oscillator_strength_2>
0.0039

>  <oscillator_strength_3>
0.1339

>  <oscillator_strength_4>
0.0013

>  <open_babel_can_smiles>
OCCOCCOc1ccc(cc1)C

>  <mulliken_charges>
30
1   -0.530317
2   -0.186997
3   -0.189279
4   -0.173009
5   -0.191178
6   -0.035783
7   -0.032705
8   -0.023131
9   -0.046126
10   0.178415
11   0.375343
12   -0.619647
13   -0.500423
14   -0.531007
15   0.153222
16   0.158724
17   0.160715
18   0.122993
19   0.122816
20   0.134151
21   0.134325
22   0.131377
23   0.147159
24   0.136021
25   0.125097
26   0.139476
27   0.14163
28   0.151587
29   0.147945
30   0.398609

>  <lowdin_charges>
30
1   -0.442337
2   -0.158856
3   -0.156247
4   -0.183393
5   -0.21157
6   -0.1354
7   -0.146575
8   -0.13201
9   -0.132091
10   -0.017003
11   0.100427
12   -0.464543
13   -0.283077
14   -0.205027
15   0.155542
16   0.157842
17   0.159933
18   0.155881
19   0.155247
20   0.165584
21   0.163128
22   0.13141
23   0.149526
24   0.13559
25   0.13495
26   0.138324
27   0.13702
28   0.143183
29   0.143416
30   0.341127

$$$$

