PCCDB-ID:  7911
public computational chemistry database (PCCDB) project, http://pccdb.org

 13 12  0  0  0  0  0  0  0  0999 V2000
    1.1648   -0.1338   -0.3941 C   0  0  0  0  0  0  0  0  0  0  0  0
    0.5759   -0.8041   -1.6465 C   0  0  0  0  0  0  0  0  0  0  0  0
    2.6275   -0.4379   -0.1528 C   0  0  0  0  0  0  0  0  0  0  0  0
   -0.5246   -1.4332   -1.7082 N   0  0  0  0  0  0  0  0  0  0  0  0
    3.1949   -1.0823    0.7782 N   0  0  0  0  0  0  0  0  0  0  0  0
    1.2879   -0.6363   -2.7837 O   0  0  0  0  0  0  0  0  0  0  0  0
    3.3961    0.1020   -1.1499 O   0  0  0  0  0  0  0  0  0  0  0  0
    0.5838   -0.4307    0.4812 H   0  0  0  0  0  0  0  0  0  0  0  0
    1.0630    0.9536   -0.5150 H   0  0  0  0  0  0  0  0  0  0  0  0
   -0.9667   -1.4714   -0.7896 H   0  0  0  0  0  0  0  0  0  0  0  0
    2.5213   -1.4409    1.4548 H   0  0  0  0  0  0  0  0  0  0  0  0
    2.1596   -0.2547   -2.5709 H   0  0  0  0  0  0  0  0  0  0  0  0
    4.3145   -0.1785   -0.9741 H   0  0  0  0  0  0  0  0  0  0  0  0
  1  3  1  0  0  0  0
  1  8  1  0  0  0  0
  2  1  1  0  0  0  0
  3  5  2  0  0  0  0
  4  2  2  0  0  0  0
  4 10  1  0  0  0  0
  5 11  1  0  0  0  0
  6 12  1  0  0  0  0
  6  2  1  0  0  0  0
  7 13  1  0  0  0  0
  7  3  1  0  0  0  0
  9  1  1  0  0  0  0
M  END
>  <HBA>
4

>  <HBD>
2

>  <TPSA>
86.18

>  <cid>
7911

>  <dipole>
3.81

>  <excitation_energy_1>
5.873

>  <excitation_energy_2>
6.05

>  <excitation_energy_3>
6.315

>  <excitation_energy_4>
6.373

>  <homo_energy>
-7.187

>  <homo_lumo_gap>
6.999

>  <logP>
-0.252

>  <lumo_energy>
-0.188

>  <melting_point>
126.71

>  <molecular_refractivity>
22.35

>  <oscillator_strength_1>
0.0107

>  <oscillator_strength_2>
0.0038

>  <oscillator_strength_3>
0.0102

>  <oscillator_strength_4>
0.0035

>  <open_babel_can_smiles>
OC(=N)CC(=N)O

>  <mulliken_charges>
13
1   -0.423044
2   0.487278
3   0.487907
4   -0.575367
5   -0.60603
6   -0.584931
7   -0.601887
8   0.165426
9   0.205437
10   0.281483
11   0.301567
12   0.435045
13   0.427114

>  <lowdin_charges>
13
1   -0.327117
2   0.126942
3   0.131914
4   -0.3924
5   -0.406407
6   -0.364115
7   -0.378074
8   0.170109
9   0.185963
10   0.254619
11   0.270847
12   0.357829
13   0.36989

$$$$

