PCCDB-ID:  14520
public computational chemistry database (PCCDB) project, http://pccdb.org

 19 19  0  0  1  0  0  0  0  0999 V2000
    0.6160   -0.5267    0.1367 C   0  0  0  0  0  0  0  0  0  0  0  0
    2.6399    2.8131   -2.0222 C   0  0  0  0  0  0  0  0  0  0  0  0
    2.0373    4.1953   -1.7301 C   0  0  0  0  0  0  0  0  0  0  0  0
    1.3147    0.7241    0.6242 C   0  0  0  0  0  0  0  0  0  0  0  0
    1.6650    1.7670   -1.4804 C   0  0  2  0  0  0  0  0  0  0  0  0
    0.2434    2.2567   -1.8636 C   0  0  0  0  0  0  0  0  0  0  0  0
    1.7653    1.7162   -0.0297 N   0  0  0  0  0  0  0  0  0  0  0  0
    1.4986    0.7776    1.9758 O   0  0  0  0  0  0  0  0  0  0  0  0
   -0.7311    1.5507   -1.9671 O   0  0  0  0  0  0  0  0  0  0  0  0
    0.2352    4.0433   -2.0898 S   0  0  0  0  0  0  0  0  0  0  0  0
    0.3911   -0.4887   -0.9278 H   0  0  0  0  0  0  0  0  0  0  0  0
   -0.3401   -0.6434    0.6618 H   0  0  0  0  0  0  0  0  0  0  0  0
    1.2286   -1.4117    0.3530 H   0  0  0  0  0  0  0  0  0  0  0  0
    3.6223    2.7076   -1.5517 H   0  0  0  0  0  0  0  0  0  0  0  0
    2.7537    2.6811   -3.1047 H   0  0  0  0  0  0  0  0  0  0  0  0
    2.4575    4.9800   -2.3632 H   0  0  0  0  0  0  0  0  0  0  0  0
    2.1647    4.4676   -0.6803 H   0  0  0  0  0  0  0  0  0  0  0  0
    1.8128    0.7917   -1.9636 H   0  0  0  0  0  0  0  0  0  0  0  0
    1.1036   -0.0088    2.3827 H   0  0  0  0  0  0  0  0  0  0  0  0
  1 13  1  0  0  0  0
  1  4  1  0  0  0  0
  1 12  1  0  0  0  0
  2  3  1  0  0  0  0
  2 14  1  0  0  0  0
  2  5  1  0  0  0  0
  3 17  1  0  0  0  0
  4  8  1  0  0  0  0
  5 18  1  6  0  0  0
  5  7  1  0  0  0  0
  6  5  1  0  0  0  0
  7  4  2  0  0  0  0
  8 19  1  0  0  0  0
  9  6  2  0  0  0  0
 10  6  1  0  0  0  0
 10  3  1  0  0  0  0
 11  1  1  0  0  0  0
 15  2  1  0  0  0  0
 16  3  1  0  0  0  0
M  END
>  <HBA>
4

>  <HBD>
1

>  <TPSA>
71.47

>  <cid>
14520

>  <dipole>
3.31

>  <excitation_energy_1>
4.383

>  <excitation_energy_2>
5.204

>  <excitation_energy_3>
5.274

>  <excitation_energy_4>
5.725

>  <homo_energy>
-6.509

>  <homo_lumo_gap>
5.845

>  <logP>
0.545

>  <lumo_energy>
-0.664

>  <melting_point>
74.95

>  <molecular_refractivity>
39.63

>  <oscillator_strength_1>
0.012

>  <oscillator_strength_2>
0.0512

>  <oscillator_strength_3>
0.0072

>  <oscillator_strength_4>
0.0006

>  <open_babel_can_smiles>
C/C(=N\[C@@H]1CCSC1=O)/O

>  <mulliken_charges>
19
1   -0.561826
2   -0.278638
3   -0.430214
4   0.505499
5   -0.056437
6   0.289228
7   -0.418268
8   -0.571881
9   -0.436434
10   0.131691
11   0.206638
12   0.180323
13   0.171526
14   0.166233
15   0.154206
16   0.179958
17   0.20829
18   0.150946
19   0.409161

>  <lowdin_charges>
19
1   -0.485151
2   -0.279063
3   -0.370918
4   0.147358
5   -0.089196
6   0.036491
7   -0.213526
8   -0.362052
9   -0.232243
10   0.153532
11   0.184285
12   0.17448
13   0.168333
14   0.164567
15   0.151607
16   0.170147
17   0.174066
18   0.149551
19   0.357734

$$$$

