PCCDB-ID:  18200
public computational chemistry database (PCCDB) project, http://pccdb.org

 13 12  0  0  0  0  0  0  0  0999 V2000
    1.0871   -0.0738   -0.1024 C   0  0  0  0  0  0  0  0  0  0  0  0
    3.1231   -1.4058    0.6633 C   0  0  0  0  0  0  0  0  0  0  0  0
    2.6106   -0.1661   -0.0658 C   0  0  0  0  0  0  0  0  0  0  0  0
    4.4385    0.0177   -1.5059 O   0  0  0  0  0  0  0  0  0  0  0  0
    2.9939   -0.1657   -1.4504 O   0  0  0  0  0  0  0  0  0  0  0  0
    0.6908   -0.0293    0.9174 H   0  0  0  0  0  0  0  0  0  0  0  0
    0.6585   -0.9509   -0.6000 H   0  0  0  0  0  0  0  0  0  0  0  0
    0.7666    0.8223   -0.6420 H   0  0  0  0  0  0  0  0  0  0  0  0
    2.8383   -1.3771    1.7212 H   0  0  0  0  0  0  0  0  0  0  0  0
    4.2144   -1.4570    0.6085 H   0  0  0  0  0  0  0  0  0  0  0  0
    2.7029   -2.3157    0.2182 H   0  0  0  0  0  0  0  0  0  0  0  0
    3.0272    0.7380    0.3987 H   0  0  0  0  0  0  0  0  0  0  0  0
    4.7000   -0.8342   -1.8985 H   0  0  0  0  0  0  0  0  0  0  0  0
  1  3  1  0  0  0  0
  1  6  1  0  0  0  0
  2  9  1  0  0  0  0
  3 12  1  0  0  0  0
  3  2  1  0  0  0  0
  4  5  1  0  0  0  0
  5  3  1  0  0  0  0
  7  1  1  0  0  0  0
  8  1  1  0  0  0  0
 10  2  1  0  0  0  0
 11  2  1  0  0  0  0
 13  4  1  0  0  0  0
M  END
>  <HBA>
2

>  <HBD>
1

>  <TPSA>
29.46

>  <cid>
18200

>  <dipole>
1.74

>  <excitation_energy_1>
5.516

>  <excitation_energy_2>
6.64

>  <excitation_energy_3>
6.776

>  <excitation_energy_4>
7.261

>  <homo_energy>
-6.887

>  <homo_lumo_gap>
7.701

>  <logP>
0.884

>  <lumo_energy>
0.814

>  <melting_point>
4.95

>  <molecular_refractivity>
19.19

>  <oscillator_strength_1>
0.0008

>  <oscillator_strength_2>
0.0018

>  <oscillator_strength_3>
0.0046

>  <oscillator_strength_4>
0.0109

>  <open_babel_can_smiles>
OOC(C)C

>  <mulliken_charges>
13
1   -0.464319
2   -0.463107
3   0.180434
4   -0.409654
5   -0.307335
6   0.151458
7   0.155171
8   0.165249
9   0.145265
10   0.155095
11   0.144818
12   0.135805
13   0.41112

>  <lowdin_charges>
13
1   -0.44958
2   -0.459781
3   0.00243
4   -0.346316
5   -0.171268
6   0.158241
7   0.156484
8   0.162844
9   0.154064
10   0.154415
11   0.15059
12   0.138942
13   0.348935

$$$$

