PCCDB-ID:  29022
public computational chemistry database (PCCDB) project, http://pccdb.org

 24 23  0  0  0  0  0  0  0  0999 V2000
    0.6861    2.0884    0.0406 C   0  0  0  0  0  0  0  0  0  0  0  0
    2.2052    2.0548   -0.1519 C   0  0  0  0  0  0  0  0  0  0  0  0
    2.9392    1.3422    1.0007 C   0  0  0  0  0  0  0  0  0  0  0  0
    4.4263    1.2606    0.7912 C   0  0  0  0  0  0  0  0  0  0  0  0
    5.3513    1.8116    1.5819 C   0  0  0  0  0  0  0  0  0  0  0  0
    6.8369    1.7408    1.3556 C   0  0  0  0  0  0  0  0  0  0  0  0
    7.4657    3.1448    1.1668 C   0  0  0  0  0  0  0  0  0  0  0  0
    8.9801    3.0889    1.0190 C   0  0  0  0  0  0  0  0  0  0  0  0
    9.7652    3.4706    1.8489 O   0  0  0  0  0  0  0  0  0  0  0  0
    9.4357    2.5286   -0.1400 O   0  0  0  0  0  0  0  0  0  0  0  0
    0.1900    2.5978   -0.7932 H   0  0  0  0  0  0  0  0  0  0  0  0
    0.4145    2.6167    0.9627 H   0  0  0  0  0  0  0  0  0  0  0  0
    0.2722    1.0747    0.1065 H   0  0  0  0  0  0  0  0  0  0  0  0
    2.5931    3.0781   -0.2423 H   0  0  0  0  0  0  0  0  0  0  0  0
    2.4450    1.5519   -1.0994 H   0  0  0  0  0  0  0  0  0  0  0  0
    2.5275    0.3258    1.1003 H   0  0  0  0  0  0  0  0  0  0  0  0
    2.7251    1.8579    1.9464 H   0  0  0  0  0  0  0  0  0  0  0  0
    4.7527    0.7069   -0.0929 H   0  0  0  0  0  0  0  0  0  0  0  0
    5.0309    2.3671    2.4657 H   0  0  0  0  0  0  0  0  0  0  0  0
    7.0468    1.1096    0.4817 H   0  0  0  0  0  0  0  0  0  0  0  0
    7.3276    1.2595    2.2133 H   0  0  0  0  0  0  0  0  0  0  0  0
    7.2509    3.7733    2.0346 H   0  0  0  0  0  0  0  0  0  0  0  0
    7.0204    3.6286    0.2867 H   0  0  0  0  0  0  0  0  0  0  0  0
    8.6871    2.2915   -0.7115 H   0  0  0  0  0  0  0  0  0  0  0  0
  1 13  1  0  0  0  0
  1 12  1  0  0  0  0
  2  1  1  0  0  0  0
  2  3  1  0  0  0  0
  3 16  1  0  0  0  0
  3 17  1  0  0  0  0
  4  3  1  0  0  0  0
  4  5  2  0  0  0  0
  5 19  1  0  0  0  0
  6  5  1  0  0  0  0
  6 21  1  0  0  0  0
  7  6  1  0  0  0  0
  7 22  1  0  0  0  0
  8  7  1  0  0  0  0
  8  9  2  0  0  0  0
 10  8  1  0  0  0  0
 11  1  1  0  0  0  0
 14  2  1  0  0  0  0
 15  2  1  0  0  0  0
 18  4  1  0  0  0  0
 20  6  1  0  0  0  0
 23  7  1  0  0  0  0
 24 10  1  0  0  0  0
M  END
>  <HBA>
2

>  <HBD>
1

>  <TPSA>
37.3

>  <cid>
29022

>  <dipole>
4.75

>  <excitation_energy_1>
5.553

>  <excitation_energy_2>
5.962

>  <excitation_energy_3>
6.283

>  <excitation_energy_4>
6.54

>  <homo_energy>
-6.83

>  <homo_lumo_gap>
6.996

>  <logP>
2.208

>  <lumo_energy>
0.166

>  <melting_point>
59.06

>  <molecular_refractivity>
41.87

>  <oscillator_strength_1>
0.0066

>  <oscillator_strength_2>
0.0107

>  <oscillator_strength_3>
0.0366

>  <oscillator_strength_4>
0.0592

>  <open_babel_can_smiles>
CCC/C=C/CCC(=O)O

>  <mulliken_charges>
24
1   -0.442404
2   -0.248103
3   -0.296749
4   -0.091982
5   -0.09374
6   -0.317212
7   -0.375347
8   0.587356
9   -0.43322
10   -0.564073
11   0.146085
12   0.14457
13   0.143797
14   0.138235
15   0.132241
16   0.142096
17   0.13859
18   0.115402
19   0.125698
20   0.132968
21   0.170372
22   0.180281
23   0.156873
24   0.408264

>  <lowdin_charges>
24
1   -0.445267
2   -0.270006
3   -0.269993
4   -0.160942
5   -0.174485
6   -0.269001
7   -0.317148
8   0.197032
9   -0.237243
10   -0.364806
11   0.15278
12   0.148261
13   0.146911
14   0.141899
15   0.139673
16   0.147729
17   0.146018
18   0.144623
19   0.150317
20   0.141893
21   0.162189
22   0.173827
23   0.158187
24   0.357555

$$$$

