PCCDB-ID:  19826
public computational chemistry database (PCCDB) project, http://pccdb.org

 22 22  0  0  1  0  0  0  0  0999 V2000
    1.6540   -0.0935   -2.5221 C   0  0  0  0  0  0  0  0  0  0  0  0
    7.1413   -2.1277   -0.1802 C   0  0  0  0  0  0  0  0  0  0  0  0
    2.7775    0.5022   -2.1204 C   0  0  0  0  0  0  0  0  0  0  0  0
    3.2412    0.6069   -0.6939 C   0  0  0  0  0  0  0  0  0  0  0  0
    4.6433   -1.5982   -0.5698 C   0  0  0  0  0  0  0  0  0  0  0  0
    5.7501   -1.9959    0.4288 C   0  0  2  0  0  0  0  0  0  0  0  0
    4.6029   -0.0687   -0.4590 C   0  0  2  0  0  0  0  0  0  0  0  0
    5.1289    0.1833    0.9564 C   0  0  0  0  0  0  0  0  0  0  0  0
    5.0319    1.1913    1.6089 O   0  0  0  0  0  0  0  0  0  0  0  0
    5.7571   -0.9314    1.4200 O   0  0  0  0  0  0  0  0  0  0  0  0
    1.3702   -0.1336   -3.5703 H   0  0  0  0  0  0  0  0  0  0  0  0
    0.9674   -0.5550   -1.8151 H   0  0  0  0  0  0  0  0  0  0  0  0
    7.1796   -2.9948   -0.8494 H   0  0  0  0  0  0  0  0  0  0  0  0
    7.8908   -2.2634    0.6054 H   0  0  0  0  0  0  0  0  0  0  0  0
    7.4091   -1.2358   -0.7583 H   0  0  0  0  0  0  0  0  0  0  0  0
    3.4332    0.9548   -2.8671 H   0  0  0  0  0  0  0  0  0  0  0  0
    2.4944    0.1638   -0.0226 H   0  0  0  0  0  0  0  0  0  0  0  0
    3.3443    1.6600   -0.3998 H   0  0  0  0  0  0  0  0  0  0  0  0
    3.6805   -2.0190   -0.2566 H   0  0  0  0  0  0  0  0  0  0  0  0
    4.8493   -1.9603   -1.5807 H   0  0  0  0  0  0  0  0  0  0  0  0
    5.4970   -2.9083    0.9766 H   0  0  0  0  0  0  0  0  0  0  0  0
    5.3388    0.3793   -1.1435 H   0  0  0  0  0  0  0  0  0  0  0  0
  1  3  2  0  0  0  0
  1 12  1  0  0  0  0
  2  6  1  0  0  0  0
  2 14  1  0  0  0  0
  3  4  1  0  0  0  0
  4  7  1  0  0  0  0
  4 18  1  0  0  0  0
  4 17  1  0  0  0  0
  5  7  1  0  0  0  0
  5 19  1  0  0  0  0
  5  6  1  0  0  0  0
  6 21  1  1  0  0  0
  6 10  1  0  0  0  0
  7 22  1  6  0  0  0
  7  8  1  0  0  0  0
  8 10  1  0  0  0  0
  8  9  2  0  0  0  0
 11  1  1  0  0  0  0
 13  2  1  0  0  0  0
 15  2  1  0  0  0  0
 16  3  1  0  0  0  0
 20  5  1  0  0  0  0
M  END
>  <HBA>
2

>  <HBD>
0

>  <TPSA>
26.3

>  <cid>
19826

>  <dipole>
4.26

>  <excitation_energy_1>
5.599

>  <excitation_energy_2>
6.319

>  <excitation_energy_3>
6.628

>  <excitation_energy_4>
6.688

>  <homo_energy>
-6.993

>  <homo_lumo_gap>
7.222

>  <logP>
1.514

>  <lumo_energy>
0.229

>  <melting_point>
-13.47

>  <molecular_refractivity>
39.27

>  <oscillator_strength_1>
0.002

>  <oscillator_strength_2>
0.0069

>  <oscillator_strength_3>
0.1027

>  <oscillator_strength_4>
0.0286

>  <open_babel_can_smiles>
C[C@@H]1C[C@H](C(=O)O1)CC=C

>  <mulliken_charges>
22
1   -0.34081
2   -0.453887
3   -0.045677
4   -0.307381
5   -0.302969
6   0.122374
7   -0.214867
8   0.629429
9   -0.465685
10   -0.457395
11   0.142008
12   0.138
13   0.151234
14   0.170949
15   0.152465
16   0.12621
17   0.145708
18   0.176896
19   0.156392
20   0.158497
21   0.151268
22   0.167243

>  <lowdin_charges>
22
1   -0.340545
2   -0.455048
3   -0.149063
4   -0.264801
5   -0.291115
6   0.007622
7   -0.16436
8   0.188856
9   -0.24086
10   -0.188487
11   0.15869
12   0.156541
13   0.158156
14   0.166349
15   0.154623
16   0.151078
17   0.152762
18   0.168002
19   0.155666
20   0.159484
21   0.151436
22   0.165014

$$$$

