PCCDB-ID:  72633
public computational chemistry database (PCCDB) project, http://pccdb.org

 29 30  0  0  1  0  0  0  0  0999 V2000
    0.9287    0.8597    0.5682 C   0  0  0  0  0  0  0  0  0  0  0  0
    8.8773   -2.5451    3.1886 C   0  0  0  0  0  0  0  0  0  0  0  0
    2.3845    0.5447    0.4356 C   0  0  0  0  0  0  0  0  0  0  0  0
    3.2346    0.4098    1.4677 C   0  0  0  0  0  0  0  0  0  0  0  0
    5.5019   -0.0337    2.3833 C   0  0  0  0  0  0  0  0  0  0  0  0
    8.9574   -1.0225    3.1139 C   0  0  1  0  0  0  0  0  0  0  0  0
    4.6493    0.1066    1.3247 C   0  0  0  0  0  0  0  0  0  0  0  0
    6.8677   -0.3340    2.1331 C   0  0  0  0  0  0  0  0  0  0  0  0
    7.3527   -0.4669    0.8305 C   0  0  0  0  0  0  0  0  0  0  0  0
    9.6567   -0.5110    1.8656 C   0  0  1  0  0  0  0  0  0  0  0  0
    8.7880   -0.6377    0.6017 C   0  0  0  0  0  0  0  0  0  0  0  0
    6.4368   -0.3401   -0.2918 C   0  0  0  0  0  0  0  0  0  0  0  0
    9.9517    0.8689    2.0731 O   0  0  0  0  0  0  0  0  0  0  0  0
    9.3376   -0.7545   -0.4844 O   0  0  0  0  0  0  0  0  0  0  0  0
    6.6558   -0.4472   -1.4671 O   0  0  0  0  0  0  0  0  0  0  0  0
    7.6157   -0.4705    3.2320 O   0  0  0  0  0  0  0  0  0  0  0  0
    5.0771   -0.0398    0.0579 O   0  0  0  0  0  0  0  0  0  0  0  0
    0.6221    0.9609    1.6140 H   0  0  0  0  0  0  0  0  0  0  0  0
    0.6845    1.7934    0.0439 H   0  0  0  0  0  0  0  0  0  0  0  0
    0.3178    0.0750    0.1021 H   0  0  0  0  0  0  0  0  0  0  0  0
    9.8843   -2.9719    3.2425 H   0  0  0  0  0  0  0  0  0  0  0  0
    8.3735   -2.9660    2.3122 H   0  0  0  0  0  0  0  0  0  0  0  0
    8.3262   -2.8470    4.0837 H   0  0  0  0  0  0  0  0  0  0  0  0
    2.7729    0.4189   -0.5732 H   0  0  0  0  0  0  0  0  0  0  0  0
    2.8854    0.5289    2.4913 H   0  0  0  0  0  0  0  0  0  0  0  0
    5.1538    0.0685    3.4030 H   0  0  0  0  0  0  0  0  0  0  0  0
    9.4729   -0.6224    3.9908 H   0  0  0  0  0  0  0  0  0  0  0  0
   10.5742   -1.0936    1.7015 H   0  0  0  0  0  0  0  0  0  0  0  0
   10.3558    1.1978    1.2530 H   0  0  0  0  0  0  0  0  0  0  0  0
  1 18  1  0  0  0  0
  2 21  1  0  0  0  0
  2 23  1  0  0  0  0
  3  1  1  0  0  0  0
  3  4  2  0  0  0  0
  4 25  1  0  0  0  0
  5 26  1  0  0  0  0
  6  2  1  0  0  0  0
  6 16  1  0  0  0  0
  6 27  1  1  0  0  0
  7  4  1  0  0  0  0
  7  5  2  0  0  0  0
  8  5  1  0  0  0  0
  8 16  1  0  0  0  0
  9  8  2  0  0  0  0
 10 28  1  6  0  0  0
 10 13  1  0  0  0  0
 10  6  1  0  0  0  0
 11  9  1  0  0  0  0
 11 10  1  0  0  0  0
 12 17  1  0  0  0  0
 12  9  1  0  0  0  0
 14 11  2  0  0  0  0
 15 12  2  0  0  0  0
 17  7  1  0  0  0  0
 19  1  1  0  0  0  0
 20  1  1  0  0  0  0
 22  2  1  0  0  0  0
 24  3  1  0  0  0  0
 29 13  1  0  0  0  0
M  END
>  <HBA>
5

>  <HBD>
1

>  <TPSA>
76.74

>  <cid>
72633

>  <dipole>
5.8

>  <excitation_energy_1>
3.169

>  <excitation_energy_2>
3.706

>  <excitation_energy_3>
4.416

>  <excitation_energy_4>
4.666

>  <homo_energy>
-6.259

>  <homo_lumo_gap>
4.03

>  <logP>
0.997

>  <lumo_energy>
-2.229

>  <melting_point>
143.39

>  <molecular_refractivity>
60.42

>  <oscillator_strength_1>
0.0006

>  <oscillator_strength_2>
0.4636

>  <oscillator_strength_3>
0.0002

>  <oscillator_strength_4>
0.0206

>  <open_babel_can_smiles>
C/C=C/c1cc2O[C@@H](C)[C@@H](C(=O)c2c(=O)o1)O

>  <mulliken_charges>
29
1   -0.498454
2   -0.466145
3   -0.077068
4   -0.173356
5   -0.289245
6   0.101883
7   0.419653
8   0.397659
9   -0.068587
10   0.050951
11   0.37351
12   0.559698
13   -0.62279
14   -0.462996
15   -0.429279
16   -0.517141
17   -0.517029
18   0.161213
19   0.174311
20   0.173573
21   0.164893
22   0.170396
23   0.170916
24   0.177075
25   0.141432
26   0.161165
27   0.17034
28   0.144684
29   0.408737

>  <lowdin_charges>
29
1   -0.438105
2   -0.454728
3   -0.101663
4   -0.192232
5   -0.244342
6   0.005063
7   0.149209
8   0.1584
9   -0.167686
10   -0.037499
11   0.124094
12   0.209827
13   -0.451231
14   -0.237321
15   -0.211499
16   -0.15729
17   -0.144781
18   0.158127
19   0.169568
20   0.170119
21   0.165211
22   0.164918
23   0.167165
24   0.175065
25   0.163241
26   0.182287
27   0.168014
28   0.151524
29   0.356544

$$$$

