PCCDB-ID:  70651
public computational chemistry database (PCCDB) project, http://pccdb.org

 28 28  0  0  0  0  0  0  0  0999 V2000
    2.0855    2.3634   -1.6594 C   0  0  0  0  0  0  0  0  0  0  0  0
    3.5573    2.1095   -1.3197 C   0  0  0  0  0  0  0  0  0  0  0  0
    3.7525    1.3891    0.0190 C   0  0  0  0  0  0  0  0  0  0  0  0
   10.0745   -0.2944   -0.5586 C   0  0  0  0  0  0  0  0  0  0  0  0
   10.2706    0.9993   -1.0322 C   0  0  0  0  0  0  0  0  0  0  0  0
    5.2261    1.1554    0.3770 C   0  0  0  0  0  0  0  0  0  0  0  0
    8.9369   -0.5500    0.2061 C   0  0  0  0  0  0  0  0  0  0  0  0
    9.3265    1.9768   -0.7262 C   0  0  0  0  0  0  0  0  0  0  0  0
    8.1943    1.6367    0.0480 C   0  0  0  0  0  0  0  0  0  0  0  0
    7.1283    2.6379    0.4247 C   0  0  0  0  0  0  0  0  0  0  0  0
    8.0294    0.3843    0.4967 N   0  0  0  0  0  0  0  0  0  0  0  0
    5.8900    2.4304    0.5809 N   0  0  0  0  0  0  0  0  0  0  0  0
    9.4601    3.2766   -1.1502 O   0  0  0  0  0  0  0  0  0  0  0  0
    7.5732    3.9059    0.6843 O   0  0  0  0  0  0  0  0  0  0  0  0
    1.9781    2.8801   -2.6206 H   0  0  0  0  0  0  0  0  0  0  0  0
    1.6055    2.9846   -0.8931 H   0  0  0  0  0  0  0  0  0  0  0  0
    1.5218    1.4238   -1.7224 H   0  0  0  0  0  0  0  0  0  0  0  0
    4.1004    3.0621   -1.2845 H   0  0  0  0  0  0  0  0  0  0  0  0
    4.0222    1.5157   -2.1212 H   0  0  0  0  0  0  0  0  0  0  0  0
    3.2399    0.4162   -0.0043 H   0  0  0  0  0  0  0  0  0  0  0  0
    3.2867    1.9770    0.8213 H   0  0  0  0  0  0  0  0  0  0  0  0
   10.7899   -1.0818   -0.7744 H   0  0  0  0  0  0  0  0  0  0  0  0
   11.1436    1.2516   -1.6318 H   0  0  0  0  0  0  0  0  0  0  0  0
    5.7053    0.5426   -0.4011 H   0  0  0  0  0  0  0  0  0  0  0  0
    5.2889    0.5697    1.3036 H   0  0  0  0  0  0  0  0  0  0  0  0
    8.7460   -1.5443    0.6039 H   0  0  0  0  0  0  0  0  0  0  0  0
   10.3032    3.3868   -1.6182 H   0  0  0  0  0  0  0  0  0  0  0  0
    8.4423    4.0376    0.2698 H   0  0  0  0  0  0  0  0  0  0  0  0
  1  2  1  0  0  0  0
  1 16  1  0  0  0  0
  2 18  1  0  0  0  0
  2  3  1  0  0  0  0
  3  6  1  0  0  0  0
  3 21  1  0  0  0  0
  4  7  2  0  0  0  0
  5  8  2  0  0  0  0
  5  4  1  0  0  0  0
  6 12  1  0  0  0  0
  6 25  1  0  0  0  0
  7 11  1  0  0  0  0
  7 26  1  0  0  0  0
  8  9  1  0  0  0  0
  9 10  1  0  0  0  0
  9 11  2  0  0  0  0
 10 12  2  0  0  0  0
 10 14  1  0  0  0  0
 13  8  1  0  0  0  0
 15  1  1  0  0  0  0
 17  1  1  0  0  0  0
 19  2  1  0  0  0  0
 20  3  1  0  0  0  0
 22  4  1  0  0  0  0
 23  5  1  0  0  0  0
 24  6  1  0  0  0  0
 27 13  1  0  0  0  0
 28 14  1  0  0  0  0
M  END
>  <HBA>
4

>  <HBD>
2

>  <TPSA>
62.22

>  <cid>
70651

>  <dipole>
7.12

>  <excitation_energy_1>
3.758

>  <excitation_energy_2>
4.277

>  <excitation_energy_3>
4.549

>  <excitation_energy_4>
4.75

>  <homo_energy>
-6.155

>  <homo_lumo_gap>
4.77

>  <logP>
1.708

>  <lumo_energy>
-1.385

>  <melting_point>
119.88

>  <molecular_refractivity>
53.68

>  <oscillator_strength_1>
0.0028

>  <oscillator_strength_2>
0.0942

>  <oscillator_strength_3>
0.0021

>  <oscillator_strength_4>
0.018

>  <open_babel_can_smiles>
CCCC/N=C(\c1ncccc1O)/O

>  <mulliken_charges>
28
1   -0.440197
2   -0.246994
3   -0.245306
4   -0.145549
5   -0.149764
6   -0.127193
7   0.037049
8   0.314419
9   0.189026
10   0.474597
11   -0.463604
12   -0.415694
13   -0.66303
14   -0.611634
15   0.135427
16   0.142046
17   0.134473
18   0.153592
19   0.115669
20   0.114671
21   0.1369
22   0.149872
23   0.140638
24   0.124349
25   0.147947
26   0.150257
27   0.422244
28   0.425788

>  <lowdin_charges>
28
1   -0.445191
2   -0.276371
3   -0.281321
4   -0.158207
5   -0.178966
6   -0.198166
7   -0.100345
8   0.083976
9   -0.006189
10   0.119816
11   -0.118843
12   -0.180141
13   -0.377666
14   -0.380969
15   0.145518
16   0.147665
17   0.142266
18   0.149953
19   0.13298
20   0.134043
21   0.145661
22   0.171603
23   0.163607
24   0.132354
25   0.151822
26   0.16164
27   0.367352
28   0.352119

$$$$

