PCCDB-ID:  51111
public computational chemistry database (PCCDB) project, http://pccdb.org

 22 21  0  0  0  0  0  0  0  0999 V2000
    6.9305    2.5410   -3.4837 C   0  0  0  0  0  0  0  0  0  0  0  0
    1.9326    0.5287   -0.5911 C   0  0  0  0  0  0  0  0  0  0  0  0
    6.7781    2.6865   -1.9817 C   0  0  0  0  0  0  0  0  0  0  0  0
    4.2808   -0.4073   -0.7154 C   0  0  0  0  0  0  0  0  0  0  0  0
    5.6174    1.4531   -0.2564 C   0  0  0  0  0  0  0  0  0  0  0  0
    4.8628    0.5417    0.2210 N   0  0  0  0  0  0  0  0  0  0  0  0
    2.9871    0.3193   -2.7041 N   0  0  0  0  0  0  0  0  0  0  0  0
    3.0834    0.1249   -1.3759 N   0  0  0  0  0  0  0  0  0  0  0  0
    6.1882    2.3704    0.5556 O   0  0  0  0  0  0  0  0  0  0  0  0
    3.9531   -0.0267   -3.3754 O   0  0  0  0  0  0  0  0  0  0  0  0
    5.9191    1.6042   -1.5461 O   0  0  0  0  0  0  0  0  0  0  0  0
    7.4171    1.5938   -3.7348 H   0  0  0  0  0  0  0  0  0  0  0  0
    7.5407    3.3623   -3.8751 H   0  0  0  0  0  0  0  0  0  0  0  0
    5.9527    2.5610   -3.9737 H   0  0  0  0  0  0  0  0  0  0  0  0
    1.4940   -0.3343   -0.0742 H   0  0  0  0  0  0  0  0  0  0  0  0
    1.1971    0.9538   -1.2768 H   0  0  0  0  0  0  0  0  0  0  0  0
    2.2219    1.2736    0.1570 H   0  0  0  0  0  0  0  0  0  0  0  0
    6.3122    3.6390   -1.7089 H   0  0  0  0  0  0  0  0  0  0  0  0
    7.7387    2.6136   -1.4620 H   0  0  0  0  0  0  0  0  0  0  0  0
    3.9830   -1.2956   -0.1481 H   0  0  0  0  0  0  0  0  0  0  0  0
    4.9536   -0.6992   -1.5265 H   0  0  0  0  0  0  0  0  0  0  0  0
    5.8906    2.1335    1.4522 H   0  0  0  0  0  0  0  0  0  0  0  0
  1  3  1  0  0  0  0
  2 15  1  0  0  0  0
  2 17  1  0  0  0  0
  3 18  1  0  0  0  0
  3 11  1  0  0  0  0
  3 19  1  0  0  0  0
  4 20  1  0  0  0  0
  4  6  1  0  0  0  0
  5  6  2  0  0  0  0
  5  9  1  0  0  0  0
  7  8  1  0  0  0  0
  8  4  1  0  0  0  0
  8  2  1  0  0  0  0
  9 22  1  0  0  0  0
 10  7  2  0  0  0  0
 11  5  1  0  0  0  0
 12  1  1  0  0  0  0
 13  1  1  0  0  0  0
 14  1  1  0  0  0  0
 16  2  1  0  0  0  0
 21  4  1  0  0  0  0
M  END
>  <HBA>
6

>  <HBD>
1

>  <TPSA>
71.0

>  <cid>
51111

>  <dipole>
3.39

>  <excitation_energy_1>
3.338

>  <excitation_energy_2>
5.363

>  <excitation_energy_3>
5.416

>  <excitation_energy_4>
5.638

>  <homo_energy>
-5.75

>  <homo_lumo_gap>
5.154

>  <logP>
0.694

>  <lumo_energy>
-0.596

>  <melting_point>
45.74

>  <molecular_refractivity>
38.26

>  <oscillator_strength_1>
0.0004

>  <oscillator_strength_2>
0.0005

>  <oscillator_strength_3>
0.0245

>  <oscillator_strength_4>
0.0546

>  <open_babel_can_smiles>
CN(N=O)C/N=C(\OCC)/O

>  <mulliken_charges>
22
1   -0.460079
2   -0.303397
3   -0.032745
4   -0.046934
5   0.744456
6   -0.517087
7   0.149457
8   -0.211918
9   -0.600702
10   -0.377523
11   -0.458545
12   0.169579
13   0.149457
14   0.18267
15   0.159279
16   0.182486
17   0.17323
18   0.159634
19   0.160347
20   0.156874
21   0.195609
22   0.425853

>  <lowdin_charges>
22
1   -0.448133
2   -0.358523
3   -0.116192
4   -0.149198
5   0.197784
6   -0.298994
7   0.052685
8   -0.050743
9   -0.358496
10   -0.273022
11   -0.178556
12   0.163672
13   0.159293
14   0.169793
15   0.154579
16   0.173407
17   0.161574
18   0.150763
19   0.150758
20   0.15347
21   0.170745
22   0.373335

$$$$

