PCCDB-ID:  10985
public computational chemistry database (PCCDB) project, http://pccdb.org

 20 19  0  0  0  0  0  0  0  0999 V2000
    2.5706   -1.5353    1.4231 C   0  0  0  0  0  0  0  0  0  0  0  0
    4.9823   -0.9411    0.9554 C   0  0  0  0  0  0  0  0  0  0  0  0
    3.0983   -0.0013   -0.5057 C   0  0  0  0  0  0  0  0  0  0  0  0
    3.8867    1.1949   -1.0260 C   0  0  0  0  0  0  0  0  0  0  0  0
    3.5267   -0.4495    0.9073 C   0  0  0  0  0  0  0  0  0  0  0  0
    3.9037    2.6195   -2.9578 N   0  0  0  0  0  0  0  0  0  0  0  0
    4.8523    3.1447   -2.4077 O   0  0  0  0  0  0  0  0  0  0  0  0
    3.3863    2.8829   -4.0169 O   0  0  0  0  0  0  0  0  0  0  0  0
    3.2809    1.5376   -2.2980 O   0  0  0  0  0  0  0  0  0  0  0  0
    2.8403   -1.8453    2.4390 H   0  0  0  0  0  0  0  0  0  0  0  0
    2.6064   -2.4261    0.7830 H   0  0  0  0  0  0  0  0  0  0  0  0
    1.5338   -1.1799    1.4431 H   0  0  0  0  0  0  0  0  0  0  0  0
    5.2435   -1.2774    1.9652 H   0  0  0  0  0  0  0  0  0  0  0  0
    5.6975   -0.1589    0.6777 H   0  0  0  0  0  0  0  0  0  0  0  0
    5.1308   -1.7896    0.2748 H   0  0  0  0  0  0  0  0  0  0  0  0
    3.2063   -0.8373   -1.2091 H   0  0  0  0  0  0  0  0  0  0  0  0
    2.0347    0.2675   -0.4941 H   0  0  0  0  0  0  0  0  0  0  0  0
    4.9434    0.9676   -1.1870 H   0  0  0  0  0  0  0  0  0  0  0  0
    3.8155    2.0549   -0.3516 H   0  0  0  0  0  0  0  0  0  0  0  0
    3.4390    0.4200    1.5766 H   0  0  0  0  0  0  0  0  0  0  0  0
  1 12  1  0  0  0  0
  1 10  1  0  0  0  0
  2 13  1  0  0  0  0
  3 17  1  0  0  0  0
  3  5  1  0  0  0  0
  4  3  1  0  0  0  0
  4 19  1  0  0  0  0
  5  2  1  0  0  0  0
  5  1  1  0  0  0  0
  5 20  1  0  0  0  0
  6  7  2  0  0  0  0
  6  9  1  0  0  0  0
  8  6  2  0  0  0  0
  9  4  1  0  0  0  0
 11  1  1  0  0  0  0
 14  2  1  0  0  0  0
 15  2  1  0  0  0  0
 16  3  1  0  0  0  0
 18  4  1  0  0  0  0
M  END
>  <HBA>
0

>  <HBD>
0

>  <TPSA>
55.05

>  <cid>
10985

>  <dipole>
3.74

>  <excitation_energy_1>
4.703

>  <excitation_energy_2>
5.585

>  <excitation_energy_3>
6.147

>  <excitation_energy_4>
6.647

>  <homo_energy>
-8.414

>  <homo_lumo_gap>
6.765

>  <logP>
1.764

>  <lumo_energy>
-1.649

>  <melting_point>
-1.75

>  <molecular_refractivity>
35.34

>  <oscillator_strength_1>
0.0

>  <oscillator_strength_2>
0.0004

>  <oscillator_strength_3>
0.0755

>  <oscillator_strength_4>
0.0024

>  <open_babel_can_smiles>
CC(CCON(=O)=O)C

>  <mulliken_charges>
20
1   -0.442669
2   -0.450645
3   -0.279633
4   -0.036292
5   -0.079285
6   0.751879
7   -0.372626
8   -0.358576
9   -0.387179
10   0.146942
11   0.14488
12   0.145966
13   0.14985
14   0.146973
15   0.145572
16   0.152646
17   0.15613
18   0.171521
19   0.165542
20   0.129004

>  <lowdin_charges>
20
1   -0.440893
2   -0.449305
3   -0.281362
4   -0.13644
5   -0.1192
6   0.374023
7   -0.22404
8   -0.198133
9   -0.183459
10   0.151186
11   0.149163
12   0.149631
13   0.153352
14   0.149998
15   0.149612
16   0.153207
17   0.154379
18   0.155048
19   0.154601
20   0.138633

$$$$

