PCCDB-ID:  39129
public computational chemistry database (PCCDB) project, http://pccdb.org

 22 22  0  0  0  0  0  0  0  0999 V2000
    3.4750   -3.0692   -3.7452 C   0  0  0  0  0  0  0  0  0  0  0  0
   -1.8985   -2.8128   -0.8551 C   0  0  0  0  0  0  0  0  0  0  0  0
   -0.5197   -2.9111   -0.6857 C   0  0  0  0  0  0  0  0  0  0  0  0
   -2.4917   -1.5972   -1.2019 C   0  0  0  0  0  0  0  0  0  0  0  0
   -0.3004   -0.5613   -1.2168 C   0  0  0  0  0  0  0  0  0  0  0  0
    1.7939   -1.8680   -0.6718 C   0  0  0  0  0  0  0  0  0  0  0  0
    0.2867   -1.7767   -0.8647 C   0  0  0  0  0  0  0  0  0  0  0  0
   -1.6869   -0.4697   -1.3836 C   0  0  0  0  0  0  0  0  0  0  0  0
    2.4189   -2.8482   -1.6517 C   0  0  0  0  0  0  0  0  0  0  0  0
   -2.1937    0.7549   -1.7251 O   0  0  0  0  0  0  0  0  0  0  0  0
    2.4510   -4.0513   -1.5036 O   0  0  0  0  0  0  0  0  0  0  0  0
    2.9127   -2.2137   -2.7361 O   0  0  0  0  0  0  0  0  0  0  0  0
    3.8293   -2.4011   -4.5307 H   0  0  0  0  0  0  0  0  0  0  0  0
    2.7155   -3.7525   -4.1344 H   0  0  0  0  0  0  0  0  0  0  0  0
    4.3022   -3.6546   -3.3350 H   0  0  0  0  0  0  0  0  0  0  0  0
   -2.5245   -3.6901   -0.7156 H   0  0  0  0  0  0  0  0  0  0  0  0
   -0.0610   -3.8606   -0.4278 H   0  0  0  0  0  0  0  0  0  0  0  0
   -3.5704   -1.5258   -1.3304 H   0  0  0  0  0  0  0  0  0  0  0  0
    0.3010    0.3308   -1.3640 H   0  0  0  0  0  0  0  0  0  0  0  0
    2.0217   -2.2368    0.3341 H   0  0  0  0  0  0  0  0  0  0  0  0
    2.2518   -0.8837   -0.7948 H   0  0  0  0  0  0  0  0  0  0  0  0
   -3.1579    0.6852   -1.8007 H   0  0  0  0  0  0  0  0  0  0  0  0
  1 15  1  0  0  0  0
  1 12  1  0  0  0  0
  2 16  1  0  0  0  0
  2  3  1  0  0  0  0
  3 17  1  0  0  0  0
  4  2  2  0  0  0  0
  5  7  1  0  0  0  0
  6 20  1  0  0  0  0
  7  3  2  0  0  0  0
  7  6  1  0  0  0  0
  8  5  2  0  0  0  0
  8  4  1  0  0  0  0
  9 11  2  0  0  0  0
  9  6  1  0  0  0  0
 10  8  1  0  0  0  0
 12  9  1  0  0  0  0
 13  1  1  0  0  0  0
 14  1  1  0  0  0  0
 18  4  1  0  0  0  0
 19  5  1  0  0  0  0
 21  6  1  0  0  0  0
 22 10  1  0  0  0  0
M  END
>  <HBA>
3

>  <HBD>
1

>  <TPSA>
46.53

>  <cid>
39129

>  <dipole>
1.62

>  <excitation_energy_1>
4.9

>  <excitation_energy_2>
5.232

>  <excitation_energy_3>
5.424

>  <excitation_energy_4>
5.61

>  <homo_energy>
-5.992

>  <homo_lumo_gap>
5.769

>  <logP>
1.108

>  <lumo_energy>
-0.223

>  <melting_point>
59.24

>  <molecular_refractivity>
44.33

>  <oscillator_strength_1>
0.04

>  <oscillator_strength_2>
0.0001

>  <oscillator_strength_3>
0.0131

>  <oscillator_strength_4>
0.0207

>  <open_babel_can_smiles>
COC(=O)Cc1cccc(c1)O

>  <mulliken_charges>
22
1   -0.22017
2   -0.134017
3   -0.177209
4   -0.195202
5   -0.217111
6   -0.419659
7   0.146175
8   0.353937
9   0.617657
10   -0.64339
11   -0.473444
12   -0.443454
13   0.164841
14   0.172303
15   0.170883
16   0.133499
17   0.149484
18   0.117581
19   0.137161
20   0.182535
21   0.170367
22   0.407232

>  <lowdin_charges>
22
1   -0.282478
2   -0.142379
3   -0.185874
4   -0.215211
5   -0.195852
6   -0.290571
7   0.01049
8   0.104208
9   0.197497
10   -0.376848
11   -0.267441
12   -0.187058
13   0.162058
14   0.161794
15   0.160612
16   0.160658
17   0.168742
18   0.151243
19   0.166848
20   0.175821
21   0.168343
22   0.355397

$$$$

