PCCDB-ID:  38284
public computational chemistry database (PCCDB) project, http://pccdb.org

 25 26  0  0  0  0  0  0  0  0999 V2000
   -0.5276   -3.6939   -0.9942 C   0  0  0  0  0  0  0  0  0  0  0  0
    0.4416   -4.2342   -0.1457 C   0  0  0  0  0  0  0  0  0  0  0  0
   -0.1901   -2.6391   -1.8444 C   0  0  0  0  0  0  0  0  0  0  0  0
    5.7660   -4.7582   -1.7460 C   0  0  0  0  0  0  0  0  0  0  0  0
    6.9054   -4.2162   -1.1613 C   0  0  0  0  0  0  0  0  0  0  0  0
    1.7422   -3.7294   -0.1417 C   0  0  0  0  0  0  0  0  0  0  0  0
    1.1092   -2.1308   -1.8571 C   0  0  0  0  0  0  0  0  0  0  0  0
    4.5438   -4.0796   -1.6949 C   0  0  0  0  0  0  0  0  0  0  0  0
    5.6021   -2.2914   -0.4518 C   0  0  0  0  0  0  0  0  0  0  0  0
    8.0213   -2.3732    0.1132 C   0  0  0  0  0  0  0  0  0  0  0  0
    6.8210   -2.9738   -0.5152 C   0  0  0  0  0  0  0  0  0  0  0  0
    2.0680   -2.6808   -1.0062 C   0  0  0  0  0  0  0  0  0  0  0  0
    4.4644   -2.8458   -1.0403 C   0  0  0  0  0  0  0  0  0  0  0  0
    9.1262   -2.8804    0.1179 O   0  0  0  0  0  0  0  0  0  0  0  0
    3.3187   -2.0831   -0.9958 O   0  0  0  0  0  0  0  0  0  0  0  0
   -1.5385   -4.0909   -0.9906 H   0  0  0  0  0  0  0  0  0  0  0  0
    0.1853   -5.0496    0.5253 H   0  0  0  0  0  0  0  0  0  0  0  0
   -0.9377   -2.2105   -2.5061 H   0  0  0  0  0  0  0  0  0  0  0  0
    5.8179   -5.7165   -2.2554 H   0  0  0  0  0  0  0  0  0  0  0  0
    7.8620   -4.7272   -1.1911 H   0  0  0  0  0  0  0  0  0  0  0  0
    2.4956   -4.1357    0.5256 H   0  0  0  0  0  0  0  0  0  0  0  0
    1.3927   -1.3114   -2.5099 H   0  0  0  0  0  0  0  0  0  0  0  0
    3.6601   -4.5017   -2.1614 H   0  0  0  0  0  0  0  0  0  0  0  0
    5.5240   -1.3291    0.0472 H   0  0  0  0  0  0  0  0  0  0  0  0
    7.8455   -1.3883    0.6004 H   0  0  0  0  0  0  0  0  0  0  0  0
  1 16  1  0  0  0  0
  1  2  2  0  0  0  0
  2  6  1  0  0  0  0
  2 17  1  0  0  0  0
  3  1  1  0  0  0  0
  4  8  2  0  0  0  0
  4  5  1  0  0  0  0
  5 11  2  0  0  0  0
  6 21  1  0  0  0  0
  7  3  2  0  0  0  0
  7 12  1  0  0  0  0
  8 13  1  0  0  0  0
  9 24  1  0  0  0  0
 10 14  2  0  0  0  0
 10 25  1  0  0  0  0
 11  9  1  0  0  0  0
 11 10  1  0  0  0  0
 12 15  1  0  0  0  0
 12  6  2  0  0  0  0
 13 15  1  0  0  0  0
 13  9  2  0  0  0  0
 18  3  1  0  0  0  0
 19  4  1  0  0  0  0
 20  5  1  0  0  0  0
 22  7  1  0  0  0  0
 23  8  1  0  0  0  0
M  END
>  <HBA>
2

>  <HBD>
0

>  <TPSA>
26.3

>  <cid>
38284

>  <dipole>
3.93

>  <excitation_energy_1>
3.679

>  <excitation_energy_2>
3.858

>  <excitation_energy_3>
4.604

>  <excitation_energy_4>
4.759

>  <homo_energy>
-6.245

>  <homo_lumo_gap>
4.506

>  <logP>
3.291

>  <lumo_energy>
-1.739

>  <melting_point>
75.52

>  <molecular_refractivity>
58.35

>  <oscillator_strength_1>
0.0004

>  <oscillator_strength_2>
0.0207

>  <oscillator_strength_3>
0.0102

>  <oscillator_strength_4>
0.0111

>  <open_babel_can_smiles>
O=Cc1cccc(c1)Oc1ccccc1

>  <mulliken_charges>
25
1   -0.126247
2   -0.138204
3   -0.138207
4   -0.138981
5   -0.156673
6   -0.161896
7   -0.168672
8   -0.163091
9   -0.231661
10   0.198163
11   0.089978
12   0.337163
13   0.35415
14   -0.405783
15   -0.575473
16   0.133912
17   0.138392
18   0.138195
19   0.144582
20   0.162105
21   0.148575
22   0.145372
23   0.158226
24   0.15095
25   0.105123

>  <lowdin_charges>
25
1   -0.165205
2   -0.14674
3   -0.147515
4   -0.142352
5   -0.143012
6   -0.186077
7   -0.176418
8   -0.175855
9   -0.165714
10   0.049296
11   -0.046956
12   0.098991
13   0.102493
14   -0.224185
15   -0.163109
16   0.159904
17   0.162387
18   0.163333
19   0.164346
20   0.176399
21   0.170833
22   0.17046
23   0.175252
24   0.171514
25   0.117931

$$$$

