PCCDB-ID:  18538
public computational chemistry database (PCCDB) project, http://pccdb.org

 29 29  0  0  1  0  0  0  0  0999 V2000
    4.3178   -4.8386   -1.3465 C   0  0  0  0  0  0  0  0  0  0  0  0
    3.7968   -3.9153   -2.4521 C   0  0  0  0  0  0  0  0  0  0  0  0
    0.4864   -1.9713   -4.0030 C   0  0  0  0  0  0  0  0  0  0  0  0
   -0.3490   -2.4141   -5.0337 C   0  0  0  0  0  0  0  0  0  0  0  0
    2.4006   -2.6024   -5.3142 C   0  0  0  0  0  0  0  0  0  0  0  0
    1.8754   -2.0648   -4.1280 C   0  0  0  0  0  0  0  0  0  0  0  0
    3.0730   -2.6749   -1.9091 C   0  0  1  0  0  0  0  0  0  0  0  0
    0.1773   -2.9577   -6.2025 C   0  0  0  0  0  0  0  0  0  0  0  0
    1.5773   -3.0512   -6.3431 C   0  0  0  0  0  0  0  0  0  0  0  0
    2.8009   -1.6103   -3.0138 C   0  0  2  0  0  0  0  0  0  0  0  0
    1.8876   -3.0724   -1.1501 N   0  0  0  0  0  0  0  0  0  0  0  0
   -0.5855   -3.4036   -7.2442 O   0  0  0  0  0  0  0  0  0  0  0  0
    2.0500   -3.5776   -7.5116 O   0  0  0  0  0  0  0  0  0  0  0  0
    2.2693   -0.4829   -2.3105 O   0  0  0  0  0  0  0  0  0  0  0  0
    4.7946   -5.7301   -1.7700 H   0  0  0  0  0  0  0  0  0  0  0  0
    3.4990   -5.1552   -0.6949 H   0  0  0  0  0  0  0  0  0  0  0  0
    5.0603   -4.3255   -0.7231 H   0  0  0  0  0  0  0  0  0  0  0  0
    3.1112   -4.4707   -3.1072 H   0  0  0  0  0  0  0  0  0  0  0  0
    4.6324   -3.5913   -3.0888 H   0  0  0  0  0  0  0  0  0  0  0  0
    0.0553   -1.5357   -3.1080 H   0  0  0  0  0  0  0  0  0  0  0  0
   -1.4300   -2.3334   -4.9289 H   0  0  0  0  0  0  0  0  0  0  0  0
    3.4807   -2.6707   -5.4411 H   0  0  0  0  0  0  0  0  0  0  0  0
    3.7419   -2.1690   -1.1984 H   0  0  0  0  0  0  0  0  0  0  0  0
    3.7758   -1.3459   -3.4577 H   0  0  0  0  0  0  0  0  0  0  0  0
    1.2060   -3.4947   -1.7817 H   0  0  0  0  0  0  0  0  0  0  0  0
    1.4476   -2.2354   -0.7708 H   0  0  0  0  0  0  0  0  0  0  0  0
   -1.5197   -3.2788   -7.0156 H   0  0  0  0  0  0  0  0  0  0  0  0
    3.0189   -3.5925   -7.4722 H   0  0  0  0  0  0  0  0  0  0  0  0
    1.9853    0.1659   -2.9735 H   0  0  0  0  0  0  0  0  0  0  0  0
  1 17  1  0  0  0  0
  1 16  1  0  0  0  0
  2  7  1  0  0  0  0
  2  1  1  0  0  0  0
  3 20  1  0  0  0  0
  4 21  1  0  0  0  0
  4  3  2  0  0  0  0
  5  6  2  0  0  0  0
  6  3  1  0  0  0  0
  6 10  1  0  0  0  0
  7 23  1  1  0  0  0
  7 11  1  0  0  0  0
  8  4  1  0  0  0  0
  9  8  2  0  0  0  0
  9  5  1  0  0  0  0
 10 24  1  6  0  0  0
 10 14  1  0  0  0  0
 10  7  1  0  0  0  0
 11 26  1  0  0  0  0
 12 27  1  0  0  0  0
 12  8  1  0  0  0  0
 13 28  1  0  0  0  0
 13  9  1  0  0  0  0
 15  1  1  0  0  0  0
 18  2  1  0  0  0  0
 19  2  1  0  0  0  0
 22  5  1  0  0  0  0
 25 11  1  0  0  0  0
 29 14  1  0  0  0  0
M  END
>  <HBA>
4

>  <HBD>
4

>  <TPSA>
86.71

>  <cid>
18538

>  <dipole>
1.96

>  <excitation_energy_1>
4.777

>  <excitation_energy_2>
4.859

>  <excitation_energy_3>
5.094

>  <excitation_energy_4>
5.193

>  <homo_energy>
-5.69

>  <homo_lumo_gap>
5.627

>  <logP>
1.569

>  <lumo_energy>
-0.063

>  <melting_point>
159.98

>  <molecular_refractivity>
53.74

>  <oscillator_strength_1>
0.0529

>  <oscillator_strength_2>
0.0017

>  <oscillator_strength_3>
0.001

>  <oscillator_strength_4>
0.0054

>  <open_babel_can_smiles>
CC[C@@H]([C@@H](c1ccc(c(c1)O)O)O)N

>  <mulliken_charges>
29
1   -0.437854
2   -0.2588
3   -0.212535
4   -0.196804
5   -0.260539
6   0.114015
7   0.025939
8   0.320263
9   0.328718
10   0.066669
11   -0.718377
12   -0.6302
13   -0.632581
14   -0.63986
15   0.132792
16   0.171745
17   0.136703
18   0.135808
19   0.119585
20   0.133717
21   0.121209
22   0.118119
23   0.139862
24   0.109607
25   0.293712
26   0.311162
27   0.408197
28   0.408563
29   0.391165

>  <lowdin_charges>
29
1   -0.446308
2   -0.281004
3   -0.189487
4   -0.204138
5   -0.212751
6   -0.040086
7   -0.072995
8   0.076522
9   0.080093
10   -0.019836
11   -0.547594
12   -0.365327
13   -0.364964
14   -0.465046
15   0.145506
16   0.16299
17   0.146093
18   0.14444
19   0.136697
20   0.161995
21   0.15295
22   0.151406
23   0.147706
24   0.128652
25   0.253207
26   0.261408
27   0.357861
28   0.356724
29   0.345285

$$$$

