PCCDB-ID:  22733
public computational chemistry database (PCCDB) project, http://pccdb.org

 30 32  0  0  1  0  0  0  0  0999 V2000
    2.2262   -1.0087    0.1461 C   0  0  0  0  0  0  0  0  0  0  0  0
    2.6031    0.3169   -0.0843 C   0  0  0  0  0  0  0  0  0  0  0  0
   -5.5837   -2.8211    1.3106 C   0  0  0  0  0  0  0  0  0  0  0  0
   -6.4199   -1.9361    0.6318 C   0  0  0  0  0  0  0  0  0  0  0  0
   -4.2277   -2.5216    1.4198 C   0  0  0  0  0  0  0  0  0  0  0  0
    0.8704   -1.3726    0.1123 C   0  0  0  0  0  0  0  0  0  0  0  0
    1.6517    1.3090   -0.3593 C   0  0  0  0  0  0  0  0  0  0  0  0
   -5.8519   -0.7862    0.0903 C   0  0  0  0  0  0  0  0  0  0  0  0
   -2.2735   -0.9619    0.9991 C   0  0  0  0  0  0  0  0  0  0  0  0
   -3.7357   -1.3394    0.8556 C   0  0  0  0  0  0  0  0  0  0  0  0
   -0.0702   -0.3909   -0.1532 C   0  0  0  0  0  0  0  0  0  0  0  0
    0.3100    0.9425   -0.3972 C   0  0  0  0  0  0  0  0  0  0  0  0
   -1.8419    1.0535   -0.6012 C   0  0  0  0  0  0  0  0  0  0  0  0
   -1.5792   -0.4542   -0.2851 C   0  0  2  0  0  0  0  0  0  0  0  0
   -4.5508   -0.4931    0.2016 N   0  0  0  0  0  0  0  0  0  0  0  0
   -0.7866    1.7957   -0.6706 N   0  0  0  0  0  0  0  0  0  0  0  0
   -3.0599    1.5188   -0.8148 O   0  0  0  0  0  0  0  0  0  0  0  0
   -2.0295   -1.3077   -1.3409 O   0  0  0  0  0  0  0  0  0  0  0  0
    2.9833   -1.7605    0.3502 H   0  0  0  0  0  0  0  0  0  0  0  0
    3.6562    0.5852   -0.0530 H   0  0  0  0  0  0  0  0  0  0  0  0
   -5.9793   -3.7352    1.7447 H   0  0  0  0  0  0  0  0  0  0  0  0
   -7.4818   -2.1292    0.5192 H   0  0  0  0  0  0  0  0  0  0  0  0
   -3.5514   -3.1957    1.9362 H   0  0  0  0  0  0  0  0  0  0  0  0
    0.5724   -2.4051    0.2833 H   0  0  0  0  0  0  0  0  0  0  0  0
    1.9428    2.3386   -0.5431 H   0  0  0  0  0  0  0  0  0  0  0  0
   -6.4570   -0.0662   -0.4557 H   0  0  0  0  0  0  0  0  0  0  0  0
   -1.7254   -1.8419    1.3506 H   0  0  0  0  0  0  0  0  0  0  0  0
   -2.1658   -0.1959    1.7784 H   0  0  0  0  0  0  0  0  0  0  0  0
   -3.7223    0.8063   -0.5620 H   0  0  0  0  0  0  0  0  0  0  0  0
   -1.4723   -1.1249   -2.1153 H   0  0  0  0  0  0  0  0  0  0  0  0
  1 19  1  0  0  0  0
  2 20  1  0  0  0  0
  2  1  2  0  0  0  0
  3  5  1  0  0  0  0
  3 21  1  0  0  0  0
  4  3  2  0  0  0  0
  5 23  1  0  0  0  0
  6  1  1  0  0  0  0
  6 24  1  0  0  0  0
  7  2  1  0  0  0  0
  8 15  2  0  0  0  0
  8  4  1  0  0  0  0
  9 27  1  0  0  0  0
  9 28  1  0  0  0  0
 10  9  1  0  0  0  0
 10  5  2  0  0  0  0
 11  6  2  0  0  0  0
 12  7  2  0  0  0  0
 12 11  1  0  0  0  0
 13 14  1  0  0  0  0
 14 18  1  6  0  0  0
 14 11  1  0  0  0  0
 14  9  1  0  0  0  0
 15 10  1  0  0  0  0
 16 13  2  0  0  0  0
 16 12  1  0  0  0  0
 17 13  1  0  0  0  0
 17 29  1  0  0  0  0
 22  4  1  0  0  0  0
 25  7  1  0  0  0  0
 26  8  1  0  0  0  0
 30 18  1  0  0  0  0
M  END
>  <HBA>
4

>  <HBD>
2

>  <TPSA>
62.22

>  <cid>
22733

>  <dipole>
6.07

>  <excitation_energy_1>
3.689

>  <excitation_energy_2>
4.071

>  <excitation_energy_3>
4.292

>  <excitation_energy_4>
4.625

>  <homo_energy>
-5.502

>  <homo_lumo_gap>
4.185

>  <logP>
1.602

>  <lumo_energy>
-1.317

>  <melting_point>
157.47

>  <molecular_refractivity>
69.87

>  <oscillator_strength_1>
0.003

>  <oscillator_strength_2>
0.0195

>  <oscillator_strength_3>
0.0146

>  <oscillator_strength_4>
0.0002

>  <open_babel_can_smiles>
OC1=Nc2c([C@@]1(O)Cc1ccccn1)cccc2

>  <mulliken_charges>
30
1   -0.143297
2   -0.131911
3   -0.088134
4   -0.155124
5   -0.19294
6   -0.201841
7   -0.193123
8   0.069958
9   -0.375434
10   0.408311
11   0.089047
12   0.251123
13   0.508519
14   0.140929
15   -0.54897
16   -0.525168
17   -0.614192
18   -0.632223
19   0.123451
20   0.127586
21   0.154553
22   0.151235
23   0.14771
24   0.126133
25   0.138319
26   0.160544
27   0.164826
28   0.185167
29   0.452312
30   0.402633

>  <lowdin_charges>
30
1   -0.178524
2   -0.145116
3   -0.114484
4   -0.17016
5   -0.173597
6   -0.156381
7   -0.174026
8   -0.074456
9   -0.280711
10   0.074369
11   -0.069279
12   0.04217
13   0.114317
14   0.096205
15   -0.152856
16   -0.207192
17   -0.34709
18   -0.44361
19   0.156601
20   0.155861
21   0.169574
22   0.169452
23   0.170151
24   0.154166
25   0.165089
26   0.167809
27   0.164911
28   0.176864
29   0.356333
30   0.35361

$$$$

