PCCDB-ID:  11939
public computational chemistry database (PCCDB) project, http://pccdb.org

 30 32  0  0  0  0  0  0  0  0999 V2000
    0.8772    0.1116   -0.5861 C   0  0  0  0  0  0  0  0  0  0  0  0
   10.8155   -2.4184    1.2434 C   0  0  0  0  0  0  0  0  0  0  0  0
    3.0879    1.2964   -0.1774 C   0  0  0  0  0  0  0  0  0  0  0  0
    8.6047   -3.6034    0.8352 C   0  0  0  0  0  0  0  0  0  0  0  0
    4.4336    1.3051    0.0689 C   0  0  0  0  0  0  0  0  0  0  0  0
    7.2591   -3.6121    0.5889 C   0  0  0  0  0  0  0  0  0  0  0  0
    3.0412   -1.1166   -0.1853 C   0  0  0  0  0  0  0  0  0  0  0  0
    8.6515   -1.1905    0.8430 C   0  0  0  0  0  0  0  0  0  0  0  0
    5.1492   -2.3646    0.2006 C   0  0  0  0  0  0  0  0  0  0  0  0
    6.5440    0.0575    0.4547 C   0  0  0  0  0  0  0  0  0  0  0  0
    2.3602    0.0687   -0.3109 C   0  0  0  0  0  0  0  0  0  0  0  0
    9.3325   -2.3758    0.9683 C   0  0  0  0  0  0  0  0  0  0  0  0
    5.1670    0.0848    0.2023 C   0  0  0  0  0  0  0  0  0  0  0  0
    6.5261   -2.3918    0.4531 C   0  0  0  0  0  0  0  0  0  0  0  0
    4.4472   -1.1593    0.0716 C   0  0  0  0  0  0  0  0  0  0  0  0
    7.2458   -1.1478    0.5845 C   0  0  0  0  0  0  0  0  0  0  0  0
    0.3427    0.6682    0.1946 H   0  0  0  0  0  0  0  0  0  0  0  0
    0.4489   -0.8944   -0.6339 H   0  0  0  0  0  0  0  0  0  0  0  0
    0.6624    0.6143   -1.5382 H   0  0  0  0  0  0  0  0  0  0  0  0
   11.0303   -2.9243    2.1939 H   0  0  0  0  0  0  0  0  0  0  0  0
   11.2427   -1.4123    1.2960 H   0  0  0  0  0  0  0  0  0  0  0  0
   11.3510   -2.9717    0.4610 H   0  0  0  0  0  0  0  0  0  0  0  0
    2.5493    2.2366   -0.2739 H   0  0  0  0  0  0  0  0  0  0  0  0
    9.1428   -4.5436    0.9349 H   0  0  0  0  0  0  0  0  0  0  0  0
    4.9691    2.2467    0.1667 H   0  0  0  0  0  0  0  0  0  0  0  0
    6.7236   -4.5537    0.4901 H   0  0  0  0  0  0  0  0  0  0  0  0
    2.5086   -2.0608   -0.2822 H   0  0  0  0  0  0  0  0  0  0  0  0
    9.1841   -0.2462    0.9397 H   0  0  0  0  0  0  0  0  0  0  0  0
    4.6099   -3.3050    0.1032 H   0  0  0  0  0  0  0  0  0  0  0  0
    7.0829    0.9980    0.5536 H   0  0  0  0  0  0  0  0  0  0  0  0
  1 11  1  0  0  0  0
  1 17  1  0  0  0  0
  2 21  1  0  0  0  0
  2 20  1  0  0  0  0
  3  5  2  0  0  0  0
  4 24  1  0  0  0  0
  4 12  1  0  0  0  0
  5 25  1  0  0  0  0
  5 13  1  0  0  0  0
  6  4  2  0  0  0  0
  7 15  1  0  0  0  0
  8 28  1  0  0  0  0
  8 12  2  0  0  0  0
  9 14  1  0  0  0  0
 10 30  1  0  0  0  0
 10 16  1  0  0  0  0
 11  7  2  0  0  0  0
 11  3  1  0  0  0  0
 12  2  1  0  0  0  0
 13 10  2  0  0  0  0
 14 16  2  0  0  0  0
 14  6  1  0  0  0  0
 15  9  2  0  0  0  0
 15 13  1  0  0  0  0
 16  8  1  0  0  0  0
 18  1  1  0  0  0  0
 19  1  1  0  0  0  0
 22  2  1  0  0  0  0
 23  3  1  0  0  0  0
 26  6  1  0  0  0  0
 27  7  1  0  0  0  0
 29  9  1  0  0  0  0
M  END
>  <HBA>
0

>  <HBD>
0

>  <TPSA>
0.0

>  <cid>
11939

>  <dipole>
0.0

>  <excitation_energy_1>
3.246

>  <excitation_energy_2>
3.804

>  <excitation_energy_3>
4.525

>  <excitation_energy_4>
4.823

>  <homo_energy>
-5.094

>  <homo_lumo_gap>
3.622

>  <logP>
4.61

>  <lumo_energy>
-1.472

>  <melting_point>
102.67

>  <molecular_refractivity>
71.39

>  <oscillator_strength_1>
0.0514

>  <oscillator_strength_2>
0.0006

>  <oscillator_strength_3>
0.0

>  <oscillator_strength_4>
0.0

>  <open_babel_can_smiles>
Cc1ccc2c(c1)cc1c(c2)cc(cc1)C

>  <mulliken_charges>
30
1   -0.532076
2   -0.532079
3   -0.183139
4   -0.183129
5   -0.184633
6   -0.184651
7   -0.259314
8   -0.259295
9   -0.301402
10   -0.301526
11   0.178144
12   0.17814
13   0.146854
14   0.146778
15   0.16015
16   0.160203
17   0.160563
18   0.156139
19   0.16145
20   0.161345
21   0.156133
22   0.160662
23   0.122345
24   0.122353
25   0.128373
26   0.128375
27   0.120357
28   0.120362
29   0.126253
30   0.126265

>  <lowdin_charges>
30
1   -0.441478
2   -0.441483
3   -0.166217
4   -0.166216
5   -0.153784
6   -0.153781
7   -0.171641
8   -0.171641
9   -0.162531
10   -0.162535
11   -0.000956
12   -0.000954
13   -0.00322
14   -0.003221
15   -0.000505
16   -0.000506
17   0.160664
18   0.156705
19   0.15986
20   0.159809
21   0.156696
22   0.16072
23   0.155859
24   0.155864
25   0.157472
26   0.157474
27   0.153878
28   0.15388
29   0.155895
30   0.155895

$$$$

