PCCDB-ID:  41840
public computational chemistry database (PCCDB) project, http://pccdb.org

 28 29  0  0  1  0  0  0  0  0999 V2000
    1.1484   -0.0910   -0.6016 C   0  0  0  0  0  0  0  0  0  0  0  0
    4.3905    0.2898    1.5909 C   0  0  0  0  0  0  0  0  0  0  0  0
    2.5626    0.2653   -0.1285 C   0  0  0  0  0  0  0  0  0  0  0  0
    1.9909   -3.8900    3.0145 C   0  0  0  0  0  0  0  0  0  0  0  0
    2.5738   -3.8642    1.7442 C   0  0  0  0  0  0  0  0  0  0  0  0
    1.7167   -2.6965    3.6890 C   0  0  0  0  0  0  0  0  0  0  0  0
    2.8860   -2.6452    1.1342 C   0  0  0  0  0  0  0  0  0  0  0  0
    1.8447   -0.0773    3.6128 C   0  0  0  0  0  0  0  0  0  0  0  0
    2.0163    0.8047    2.3517 C   0  0  0  0  0  0  0  0  0  0  0  0
    2.0220   -1.4820    3.0765 C   0  0  0  0  0  0  0  0  0  0  0  0
    2.6024   -1.4530    1.8013 C   0  0  0  0  0  0  0  0  0  0  0  0
    2.8924   -0.0201    1.3571 C   0  0  2  0  0  0  0  0  0  0  0  0
    1.0374    0.1354   -1.6683 H   0  0  0  0  0  0  0  0  0  0  0  0
    0.3776    0.4763   -0.0682 H   0  0  0  0  0  0  0  0  0  0  0  0
    0.9340   -1.1554   -0.4606 H   0  0  0  0  0  0  0  0  0  0  0  0
    4.6214    1.3241    1.3059 H   0  0  0  0  0  0  0  0  0  0  0  0
    5.0263   -0.3758    0.9956 H   0  0  0  0  0  0  0  0  0  0  0  0
    4.6674    0.1581    2.6431 H   0  0  0  0  0  0  0  0  0  0  0  0
    2.7516    1.3317   -0.3169 H   0  0  0  0  0  0  0  0  0  0  0  0
    3.2881   -0.2767   -0.7519 H   0  0  0  0  0  0  0  0  0  0  0  0
    1.7503   -4.8423    3.4800 H   0  0  0  0  0  0  0  0  0  0  0  0
    2.7834   -4.7967    1.2265 H   0  0  0  0  0  0  0  0  0  0  0  0
    1.2636   -2.7188    4.6778 H   0  0  0  0  0  0  0  0  0  0  0  0
    3.3401   -2.6344    0.1456 H   0  0  0  0  0  0  0  0  0  0  0  0
    0.8767    0.0759    4.1044 H   0  0  0  0  0  0  0  0  0  0  0  0
    2.6155    0.1460    4.3647 H   0  0  0  0  0  0  0  0  0  0  0  0
    2.4595    1.7819    2.5726 H   0  0  0  0  0  0  0  0  0  0  0  0
    1.0304    0.9890    1.9113 H   0  0  0  0  0  0  0  0  0  0  0  0
  1 15  1  0  0  0  0
  1  3  1  0  0  0  0
  1 14  1  0  0  0  0
  2 18  1  0  0  0  0
  4 21  1  0  0  0  0
  4  6  2  0  0  0  0
  5  4  1  0  0  0  0
  6 23  1  0  0  0  0
  7  5  2  0  0  0  0
  7 11  1  0  0  0  0
  8 25  1  0  0  0  0
  8 26  1  0  0  0  0
  9 27  1  0  0  0  0
  9  8  1  0  0  0  0
 10  8  1  0  0  0  0
 10  6  1  0  0  0  0
 11 10  2  0  0  0  0
 12  3  1  6  0  0  0
 12  2  1  0  0  0  0
 12 11  1  0  0  0  0
 12  9  1  0  0  0  0
 13  1  1  0  0  0  0
 16  2  1  0  0  0  0
 17  2  1  0  0  0  0
 19  3  1  0  0  0  0
 20  3  1  0  0  0  0
 22  5  1  0  0  0  0
 24  7  1  0  0  0  0
 28  9  1  0  0  0  0
M  END
>  <HBA>
0

>  <HBD>
0

>  <TPSA>
0.0

>  <cid>
41840

>  <dipole>
0.42

>  <excitation_energy_1>
5.16

>  <excitation_energy_2>
5.758

>  <excitation_energy_3>
5.853

>  <excitation_energy_4>
6.131

>  <homo_energy>
-6.193

>  <homo_lumo_gap>
6.275

>  <logP>
3.3

>  <lumo_energy>
0.082

>  <melting_point>
38.86

>  <molecular_refractivity>
53.37

>  <oscillator_strength_1>
0.0196

>  <oscillator_strength_2>
0.0081

>  <oscillator_strength_3>
0.0014

>  <oscillator_strength_4>
0.0112

>  <open_babel_can_smiles>
CC[C@@]1(C)CCc2c1cccc2

>  <mulliken_charges>
28
1   -0.453718
2   -0.447068
3   -0.260684
4   -0.131906
5   -0.134301
6   -0.195893
7   -0.201537
8   -0.351643
9   -0.298621
10   0.122926
11   0.130779
12   0.028196
13   0.140402
14   0.144294
15   0.156095
16   0.138709
17   0.142925
18   0.145674
19   0.129942
20   0.128592
21   0.124234
22   0.124104
23   0.121512
24   0.123164
25   0.146193
26   0.150939
27   0.132479
28   0.144212

>  <lowdin_charges>
28
1   -0.449296
2   -0.43837
3   -0.272254
4   -0.160411
5   -0.161391
6   -0.164378
7   -0.166946
8   -0.280011
9   -0.276819
10   -0.014496
11   -0.012527
12   0.008904
13   0.148567
14   0.147445
15   0.15287
16   0.144894
17   0.150466
18   0.149313
19   0.140666
20   0.141635
21   0.155427
22   0.155474
23   0.15349
24   0.153358
25   0.151601
26   0.151627
27   0.144044
28   0.147118

$$$$

