PCCDB-ID:  18198
public computational chemistry database (PCCDB) project, http://pccdb.org

 18 17  0  0  1  0  0  0  0  0999 V2000
    1.0997    0.9282    0.1412 C   0  0  0  0  0  0  0  0  0  0  0  0
    3.4325    0.3178   -4.9298 C   0  0  0  0  0  0  0  0  0  0  0  0
    2.9435    0.3731   -1.4285 C   0  0  0  0  0  0  0  0  0  0  0  0
    3.4675    0.6958   -2.4721 C   0  0  0  0  0  0  0  0  0  0  0  0
    2.3313    0.0500   -0.1287 C   0  0  1  0  0  0  0  0  0  0  0  0
    4.0571    1.0948   -3.7609 C   0  0  2  0  0  0  0  0  0  0  0  0
    3.2766    0.1311    0.9403 O   0  0  0  0  0  0  0  0  0  0  0  0
    3.9697    2.5078   -3.9668 O   0  0  0  0  0  0  0  0  0  0  0  0
    0.3361    0.7812   -0.6303 H   0  0  0  0  0  0  0  0  0  0  0  0
    1.3781    1.9883    0.1482 H   0  0  0  0  0  0  0  0  0  0  0  0
    0.6759    0.6694    1.1163 H   0  0  0  0  0  0  0  0  0  0  0  0
    3.5913   -0.7597   -4.8181 H   0  0  0  0  0  0  0  0  0  0  0  0
    3.8830    0.6542   -5.8685 H   0  0  0  0  0  0  0  0  0  0  0  0
    2.3521    0.4985   -4.9742 H   0  0  0  0  0  0  0  0  0  0  0  0
    2.0195   -1.0015   -0.1322 H   0  0  0  0  0  0  0  0  0  0  0  0
    5.1346    0.8926   -3.7384 H   0  0  0  0  0  0  0  0  0  0  0  0
    3.6965    1.0048    0.8835 H   0  0  0  0  0  0  0  0  0  0  0  0
    3.0316    2.7469   -3.8924 H   0  0  0  0  0  0  0  0  0  0  0  0
  1 10  1  0  0  0  0
  1 11  1  0  0  0  0
  2 12  1  0  0  0  0
  2  6  1  0  0  0  0
  3  5  1  0  0  0  0
  4  3  3  0  0  0  0
  5 15  1  6  0  0  0
  5  1  1  0  0  0  0
  5  7  1  0  0  0  0
  6 16  1  1  0  0  0
  6  4  1  0  0  0  0
  8 18  1  0  0  0  0
  8  6  1  0  0  0  0
  9  1  1  0  0  0  0
 13  2  1  0  0  0  0
 14  2  1  0  0  0  0
 17  7  1  0  0  0  0
M  END
>  <HBA>
2

>  <HBD>
2

>  <TPSA>
40.46

>  <cid>
18198

>  <dipole>
1.89

>  <excitation_energy_1>
6.145

>  <excitation_energy_2>
6.26

>  <excitation_energy_3>
6.282

>  <excitation_energy_4>
6.567

>  <homo_energy>
-7.059

>  <homo_lumo_gap>
7.905

>  <logP>
-0.249

>  <lumo_energy>
0.846

>  <melting_point>
28.02

>  <molecular_refractivity>
31.44

>  <oscillator_strength_1>
0.0046

>  <oscillator_strength_2>
0.0037

>  <oscillator_strength_3>
0.0222

>  <oscillator_strength_4>
0.1025

>  <open_babel_can_smiles>
C[C@H](C#C[C@@H](O)C)O

>  <mulliken_charges>
18
1   -0.445541
2   -0.445864
3   0.019761
4   0.026026
5   0.010987
6   0.003168
7   -0.605219
8   -0.605514
9   0.151023
10   0.145805
11   0.163503
12   0.156763
13   0.163194
14   0.143919
15   0.169139
16   0.171721
17   0.390115
18   0.387012

>  <lowdin_charges>
18
1   -0.44952
2   -0.446697
3   -0.094753
4   -0.09304
5   0.019108
6   0.018987
7   -0.450776
8   -0.451602
9   0.158493
10   0.150681
11   0.160789
12   0.159226
13   0.160973
14   0.149516
15   0.161816
16   0.162697
17   0.34372
18   0.340384

$$$$

