PCCDB-ID:  35399
public computational chemistry database (PCCDB) project, http://pccdb.org

 27 27  0  0  0  0  0  0  0  0999 V2000
    4.5823    4.3034    0.0549 C   0  0  0  0  0  0  0  0  0  0  0  0
    3.6449   -2.9656   -3.8868 C   0  0  0  0  0  0  0  0  0  0  0  0
    5.3496    3.5897   -1.0483 C   0  0  0  0  0  0  0  0  0  0  0  0
    3.0001   -2.0358   -2.8700 C   0  0  0  0  0  0  0  0  0  0  0  0
    6.7708    0.1325    0.8306 C   0  0  0  0  0  0  0  0  0  0  0  0
    6.2189   -1.9761    0.7175 C   0  0  0  0  0  0  0  0  0  0  0  0
    5.7229    0.0736   -0.0438 C   0  0  0  0  0  0  0  0  0  0  0  0
    5.3585   -1.3276   -0.1191 C   0  0  0  0  0  0  0  0  0  0  0  0
    5.0593    1.2609   -0.6271 C   0  0  0  0  0  0  0  0  0  0  0  0
    4.3642   -2.0748   -0.9242 C   0  0  0  0  0  0  0  0  0  0  0  0
    3.9248    1.3018   -1.0506 O   0  0  0  0  0  0  0  0  0  0  0  0
    3.9735   -3.1877   -0.6223 O   0  0  0  0  0  0  0  0  0  0  0  0
    7.0822   -1.1037    1.2987 O   0  0  0  0  0  0  0  0  0  0  0  0
    5.8958    2.3312   -0.5867 O   0  0  0  0  0  0  0  0  0  0  0  0
    3.9959   -1.4071   -2.0284 O   0  0  0  0  0  0  0  0  0  0  0  0
    4.2504    5.2861   -0.2994 H   0  0  0  0  0  0  0  0  0  0  0  0
    5.2145    4.4523    0.9366 H   0  0  0  0  0  0  0  0  0  0  0  0
    3.6992    3.7274    0.3451 H   0  0  0  0  0  0  0  0  0  0  0  0
    2.8799   -3.3641   -4.5632 H   0  0  0  0  0  0  0  0  0  0  0  0
    4.1316   -3.8069   -3.3851 H   0  0  0  0  0  0  0  0  0  0  0  0
    4.3891   -2.4312   -4.4864 H   0  0  0  0  0  0  0  0  0  0  0  0
    6.2257    4.1624   -1.3625 H   0  0  0  0  0  0  0  0  0  0  0  0
    4.7116    3.3979   -1.9143 H   0  0  0  0  0  0  0  0  0  0  0  0
    2.2917   -2.5728   -2.2349 H   0  0  0  0  0  0  0  0  0  0  0  0
    2.4944   -1.1967   -3.3531 H   0  0  0  0  0  0  0  0  0  0  0  0
    7.3544    0.9529    1.2164 H   0  0  0  0  0  0  0  0  0  0  0  0
    6.3379   -3.0185    0.9673 H   0  0  0  0  0  0  0  0  0  0  0  0
  1 18  1  0  0  0  0
  1 17  1  0  0  0  0
  2 20  1  0  0  0  0
  2  4  1  0  0  0  0
  3 14  1  0  0  0  0
  3  1  1  0  0  0  0
  4 24  1  0  0  0  0
  4 15  1  0  0  0  0
  5 26  1  0  0  0  0
  5 13  1  0  0  0  0
  6 27  1  0  0  0  0
  6 13  1  0  0  0  0
  7  5  2  0  0  0  0
  8  7  1  0  0  0  0
  8  6  2  0  0  0  0
  9 14  1  0  0  0  0
  9  7  1  0  0  0  0
 10 12  2  0  0  0  0
 10  8  1  0  0  0  0
 11  9  2  0  0  0  0
 15 10  1  0  0  0  0
 16  1  1  0  0  0  0
 19  2  1  0  0  0  0
 21  2  1  0  0  0  0
 22  3  1  0  0  0  0
 23  3  1  0  0  0  0
 25  4  1  0  0  0  0
M  END
>  <HBA>
5

>  <HBD>
0

>  <TPSA>
65.74

>  <cid>
35399

>  <dipole>
2.65

>  <excitation_energy_1>
5.036

>  <excitation_energy_2>
5.068

>  <excitation_energy_3>
5.243

>  <excitation_energy_4>
5.549

>  <homo_energy>
-6.8

>  <homo_lumo_gap>
5.872

>  <logP>
1.633

>  <lumo_energy>
-0.928

>  <melting_point>
54.11

>  <molecular_refractivity>
50.88

>  <oscillator_strength_1>
0.0101

>  <oscillator_strength_2>
0.0287

>  <oscillator_strength_3>
0.0467

>  <oscillator_strength_4>
0.02

>  <open_babel_can_smiles>
CCOC(=O)c1cocc1C(=O)OCC

>  <mulliken_charges>
27
1   -0.46295
2   -0.462801
3   -0.040631
4   -0.042851
5   0.060081
6   0.067035
7   0.000798
8   0.011148
9   0.584944
10   0.579956
11   -0.480453
12   -0.499161
13   -0.389888
14   -0.478955
15   -0.449579
16   0.15155
17   0.154946
18   0.178198
19   0.149654
20   0.174392
21   0.157578
22   0.152821
23   0.172676
24   0.170692
25   0.161504
26   0.186759
27   0.192537

>  <lowdin_charges>
27
1   -0.456013
2   -0.458068
3   -0.12863
4   -0.128461
5   -0.050821
6   -0.041204
7   -0.070895
8   -0.067326
9   0.199406
10   0.199241
11   -0.253078
12   -0.278563
13   -0.069021
14   -0.200461
15   -0.169726
16   0.159258
17   0.155347
18   0.166843
19   0.159454
20   0.165261
21   0.157461
22   0.153553
23   0.160467
24   0.161146
25   0.158327
26   0.187699
27   0.188803

$$$$

