PCCDB-ID:  21459
public computational chemistry database (PCCDB) project, http://pccdb.org

 22 21  0  0  0  0  0  0  0  0999 V2000
    1.0185   -0.3640   -0.6751 C   0  0  0  0  0  0  0  0  0  0  0  0
    6.1834   -1.1949    5.1684 C   0  0  0  0  0  0  0  0  0  0  0  0
    2.5350   -0.4027   -0.4624 C   0  0  0  0  0  0  0  0  0  0  0  0
    6.8039   -1.0267    3.9960 C   0  0  0  0  0  0  0  0  0  0  0  0
    2.9327   -0.6070    1.0054 C   0  0  0  0  0  0  0  0  0  0  0  0
    4.4512   -0.6371    1.2192 C   0  0  0  0  0  0  0  0  0  0  0  0
    4.8332   -0.8492    2.6775 C   0  0  0  0  0  0  0  0  0  0  0  0
    6.2578   -0.8564    2.7656 O   0  0  0  0  0  0  0  0  0  0  0  0
    0.7667   -0.2219   -1.7322 H   0  0  0  0  0  0  0  0  0  0  0  0
    0.5593    0.4566   -0.1103 H   0  0  0  0  0  0  0  0  0  0  0  0
    0.5474   -1.2976   -0.3433 H   0  0  0  0  0  0  0  0  0  0  0  0
    6.7801   -1.3176    6.0649 H   0  0  0  0  0  0  0  0  0  0  0  0
    5.1059   -1.2174    5.2818 H   0  0  0  0  0  0  0  0  0  0  0  0
    2.9816    0.5314   -0.8307 H   0  0  0  0  0  0  0  0  0  0  0  0
    2.9706   -1.2086   -1.0695 H   0  0  0  0  0  0  0  0  0  0  0  0
    7.8881   -1.0103    3.9182 H   0  0  0  0  0  0  0  0  0  0  0  0
    2.4904   -1.5456    1.3712 H   0  0  0  0  0  0  0  0  0  0  0  0
    2.4908    0.1958    1.6140 H   0  0  0  0  0  0  0  0  0  0  0  0
    4.8993    0.3032    0.8726 H   0  0  0  0  0  0  0  0  0  0  0  0
    4.9003   -1.4391    0.6188 H   0  0  0  0  0  0  0  0  0  0  0  0
    4.4382   -1.8039    3.0555 H   0  0  0  0  0  0  0  0  0  0  0  0
    4.4301   -0.0470    3.3134 H   0  0  0  0  0  0  0  0  0  0  0  0
  1  3  1  0  0  0  0
  1 11  1  0  0  0  0
  1 10  1  0  0  0  0
  2 13  1  0  0  0  0
  2 12  1  0  0  0  0
  3  5  1  0  0  0  0
  4  2  2  0  0  0  0
  5  6  1  0  0  0  0
  5 17  1  0  0  0  0
  5 18  1  0  0  0  0
  6  7  1  0  0  0  0
  7  8  1  0  0  0  0
  7 21  1  0  0  0  0
  7 22  1  0  0  0  0
  8  4  1  0  0  0  0
  9  1  1  0  0  0  0
 14  3  1  0  0  0  0
 15  3  1  0  0  0  0
 16  4  1  0  0  0  0
 19  6  1  0  0  0  0
 20  6  1  0  0  0  0
M  END
>  <HBA>
1

>  <HBD>
0

>  <TPSA>
9.23

>  <cid>
21459

>  <dipole>
1.06

>  <excitation_energy_1>
5.845

>  <excitation_energy_2>
6.066

>  <excitation_energy_3>
6.347

>  <excitation_energy_4>
6.58

>  <homo_energy>
-6.044

>  <homo_lumo_gap>
7.328

>  <logP>
2.337

>  <lumo_energy>
1.284

>  <melting_point>
-56.77

>  <molecular_refractivity>
36.37

>  <oscillator_strength_1>
0.047

>  <oscillator_strength_2>
0.0

>  <oscillator_strength_3>
0.0006

>  <oscillator_strength_4>
0.0009

>  <open_babel_can_smiles>
CCCCCOC=C

>  <mulliken_charges>
22
1   -0.442455
2   -0.402077
3   -0.246127
4   0.158103
5   -0.257054
6   -0.27506
7   -0.028336
8   -0.452447
9   0.144184
10   0.142361
11   0.142294
12   0.139492
13   0.140026
14   0.133775
15   0.133756
16   0.139665
17   0.130741
18   0.13084
19   0.146908
20   0.146784
21   0.137316
22   0.137311

>  <lowdin_charges>
22
1   -0.444473
2   -0.43032
3   -0.271864
4   -0.033644
5   -0.276195
6   -0.281002
7   -0.127198
8   -0.199859
9   0.149359
10   0.147769
11   0.146993
12   0.167819
13   0.158891
14   0.14095
15   0.14176
16   0.154667
17   0.139269
18   0.14018
19   0.14954
20   0.150387
21   0.137968
22   0.139001

$$$$

