PCCDB-ID:  43503
public computational chemistry database (PCCDB) project, http://pccdb.org

 18 17  0  0  0  0  0  0  0  0999 V2000
    2.2815    2.6975    0.7134 C   0  0  0  0  0  0  0  0  0  0  0  0
    3.0923    1.7690    1.5957 C   0  0  0  0  0  0  0  0  0  0  0  0
    6.5083   -1.0439   -1.6230 C   0  0  0  0  0  0  0  0  0  0  0  0
    4.8787    0.1855    1.2575 C   0  0  0  0  0  0  0  0  0  0  0  0
    5.7763   -0.2025   -0.7969 N   0  0  0  0  0  0  0  0  0  0  0  0
    5.7264   -0.4719    0.5644 N   0  0  0  0  0  0  0  0  0  0  0  0
    6.4508   -0.9767   -2.8300 O   0  0  0  0  0  0  0  0  0  0  0  0
    7.3076   -1.9041   -0.9577 O   0  0  0  0  0  0  0  0  0  0  0  0
    4.7787    0.0078    2.5925 O   0  0  0  0  0  0  0  0  0  0  0  0
    4.0350    1.0803    0.7327 O   0  0  0  0  0  0  0  0  0  0  0  0
    1.5545    3.2419    1.3252 H   0  0  0  0  0  0  0  0  0  0  0  0
    1.7370    2.1343   -0.0509 H   0  0  0  0  0  0  0  0  0  0  0  0
    2.9284    3.4258    0.2148 H   0  0  0  0  0  0  0  0  0  0  0  0
    2.4620    1.0267    2.0947 H   0  0  0  0  0  0  0  0  0  0  0  0
    3.6503    2.3177    2.3604 H   0  0  0  0  0  0  0  0  0  0  0  0
    5.0230    0.3165   -1.2325 H   0  0  0  0  0  0  0  0  0  0  0  0
    7.1396   -1.7812   -0.0017 H   0  0  0  0  0  0  0  0  0  0  0  0
    5.4468   -0.6551    2.8383 H   0  0  0  0  0  0  0  0  0  0  0  0
  1 11  1  0  0  0  0
  1  2  1  0  0  0  0
  2 14  1  0  0  0  0
  2 15  1  0  0  0  0
  3  8  1  0  0  0  0
  3  5  1  0  0  0  0
  4  9  1  0  0  0  0
  5  6  1  0  0  0  0
  6  4  2  0  0  0  0
  7  3  2  0  0  0  0
  8 17  1  0  0  0  0
  9 18  1  0  0  0  0
 10  4  1  0  0  0  0
 10  2  1  0  0  0  0
 12  1  1  0  0  0  0
 13  1  1  0  0  0  0
 16  5  1  0  0  0  0
M  END
>  <HBA>
6

>  <HBD>
3

>  <TPSA>
87.66

>  <cid>
43503

>  <dipole>
7.7

>  <excitation_energy_1>
4.956

>  <excitation_energy_2>
5.674

>  <excitation_energy_3>
5.896

>  <excitation_energy_4>
6.119

>  <homo_energy>
-5.997

>  <homo_lumo_gap>
6.596

>  <logP>
0.697

>  <lumo_energy>
0.599

>  <melting_point>
139.39

>  <molecular_refractivity>
30.78

>  <oscillator_strength_1>
0.0009

>  <oscillator_strength_2>
0.0007

>  <oscillator_strength_3>
0.0007

>  <oscillator_strength_4>
0.4256

>  <open_babel_can_smiles>
CCO/C(=N\NC(=O)O)/O

>  <mulliken_charges>
18
1   -0.46483
2   -0.03241
3   0.753386
4   0.772831
5   -0.481135
6   -0.415643
7   -0.495235
8   -0.591842
9   -0.601411
10   -0.486075
11   0.161792
12   0.170361
13   0.172133
14   0.167863
15   0.168546
16   0.348323
17   0.421065
18   0.432282

>  <lowdin_charges>
18
1   -0.451946
2   -0.117459
3   0.19844
4   0.181333
5   -0.229597
6   -0.215183
7   -0.288535
8   -0.362584
9   -0.356889
10   -0.194389
11   0.16638
12   0.164811
13   0.165725
14   0.156604
15   0.156961
16   0.292266
17   0.35449
18   0.379571

$$$$

