PCCDB-ID:  16636
public computational chemistry database (PCCDB) project, http://pccdb.org

 31 32  0  0  1  0  0  0  0  0999 V2000
    1.2289   -0.4087    1.5113 C   0  0  0  0  0  0  0  0  0  0  0  0
    7.6523    0.4243    0.3611 C   0  0  0  0  0  0  0  0  0  0  0  0
    3.0779    0.8152    0.2786 C   0  0  0  0  0  0  0  0  0  0  0  0
    3.5036   -1.4217    1.0357 C   0  0  0  0  0  0  0  0  0  0  0  0
    4.3688    0.8864   -0.2456 C   0  0  0  0  0  0  0  0  0  0  0  0
    4.7959   -1.3546    0.5177 C   0  0  0  0  0  0  0  0  0  0  0  0
    5.6150    0.2649   -3.9424 C   0  0  0  0  0  0  0  0  0  0  0  0
    6.6710   -1.5519   -2.4346 C   0  0  0  0  0  0  0  0  0  0  0  0
    2.6213   -0.3379    0.9285 C   0  0  0  0  0  0  0  0  0  0  0  0
    5.2425   -0.1997   -0.1347 C   0  0  0  0  0  0  0  0  0  0  0  0
    6.7549   -0.1288   -3.0117 C   0  0  2  0  0  0  0  0  0  0  0  0
    6.6760   -0.1204   -0.6733 C   0  0  2  0  0  0  0  0  0  0  0  0
    5.7251    1.6170   -4.3520 O   0  0  0  0  0  0  0  0  0  0  0  0
    7.1387   -1.3939   -1.0991 O   0  0  0  0  0  0  0  0  0  0  0  0
    6.7254    0.7129   -1.8435 O   0  0  0  0  0  0  0  0  0  0  0  0
    0.5707    0.3462    1.0690 H   0  0  0  0  0  0  0  0  0  0  0  0
    1.2413   -0.2372    2.5960 H   0  0  0  0  0  0  0  0  0  0  0  0
    0.7742   -1.3920    1.3464 H   0  0  0  0  0  0  0  0  0  0  0  0
    7.6567   -0.2166    1.2474 H   0  0  0  0  0  0  0  0  0  0  0  0
    7.3539    1.4325    0.6622 H   0  0  0  0  0  0  0  0  0  0  0  0
    8.6566    0.4564   -0.0704 H   0  0  0  0  0  0  0  0  0  0  0  0
    2.4113    1.6687    0.1746 H   0  0  0  0  0  0  0  0  0  0  0  0
    3.1725   -2.3344    1.5272 H   0  0  0  0  0  0  0  0  0  0  0  0
    4.6968    1.7861   -0.7573 H   0  0  0  0  0  0  0  0  0  0  0  0
    5.4620   -2.2085    0.5984 H   0  0  0  0  0  0  0  0  0  0  0  0
    4.6548    0.0710   -3.4380 H   0  0  0  0  0  0  0  0  0  0  0  0
    5.6496   -0.3412   -4.8553 H   0  0  0  0  0  0  0  0  0  0  0  0
    7.3234   -2.2676   -2.9397 H   0  0  0  0  0  0  0  0  0  0  0  0
    5.6381   -1.9306   -2.4480 H   0  0  0  0  0  0  0  0  0  0  0  0
    7.7122    0.0435   -3.5203 H   0  0  0  0  0  0  0  0  0  0  0  0
    5.7963    2.1368   -3.5344 H   0  0  0  0  0  0  0  0  0  0  0  0
  1 17  1  0  0  0  0
  2 20  1  0  0  0  0
  2 19  1  0  0  0  0
  3  9  2  0  0  0  0
  4 23  1  0  0  0  0
  5 10  2  0  0  0  0
  5  3  1  0  0  0  0
  6 25  1  0  0  0  0
  6  4  2  0  0  0  0
  7 26  1  0  0  0  0
  7 11  1  0  0  0  0
  8 14  1  0  0  0  0
  9  4  1  0  0  0  0
  9  1  1  0  0  0  0
 10  6  1  0  0  0  0
 11 30  1  6  0  0  0
 11  8  1  0  0  0  0
 11 15  1  0  0  0  0
 12 10  1  0  0  0  0
 12  2  1  1  0  0  0
 13  7  1  0  0  0  0
 13 31  1  0  0  0  0
 14 12  1  0  0  0  0
 15 12  1  0  0  0  0
 16  1  1  0  0  0  0
 18  1  1  0  0  0  0
 21  2  1  0  0  0  0
 22  3  1  0  0  0  0
 24  5  1  0  0  0  0
 27  7  1  0  0  0  0
 28  8  1  0  0  0  0
 29  8  1  0  0  0  0
M  END
>  <HBA>
3

>  <HBD>
1

>  <TPSA>
38.69

>  <cid>
16636

>  <dipole>
1.86

>  <excitation_energy_1>
5.208

>  <excitation_energy_2>
5.733

>  <excitation_energy_3>
5.964

>  <excitation_energy_4>
5.998

>  <homo_energy>
-6.446

>  <homo_lumo_gap>
6.34

>  <logP>
1.575

>  <lumo_energy>
-0.106

>  <melting_point>
39.58

>  <molecular_refractivity>
56.7

>  <oscillator_strength_1>
0.0005

>  <oscillator_strength_2>
0.0619

>  <oscillator_strength_3>
0.014

>  <oscillator_strength_4>
0.0003

>  <open_babel_can_smiles>
OC[C@@H]1CO[C@](O1)(C)c1ccc(cc1)C

>  <mulliken_charges>
31
1   -0.530063
2   -0.444936
3   -0.187324
4   -0.183896
5   -0.169828
6   -0.172207
7   -0.037275
8   -0.07144
9   0.181744
10   0.100723
11   0.110655
12   0.464681
13   -0.619999
14   -0.498485
15   -0.545757
16   0.15651
17   0.166205
18   0.158982
19   0.158426
20   0.157471
21   0.160872
22   0.123216
23   0.122797
24   0.131778
25   0.142767
26   0.13209
27   0.141836
28   0.159453
29   0.144184
30   0.145471
31   0.401352

>  <lowdin_charges>
31
1   -0.441768
2   -0.442083
3   -0.168639
4   -0.166016
5   -0.161938
6   -0.161691
7   -0.147396
8   -0.147348
9   0.002798
10   -0.040874
11   -0.025752
12   0.219905
13   -0.4642
14   -0.25258
15   -0.27971
16   0.158804
17   0.160544
18   0.158934
19   0.163835
20   0.162676
21   0.162211
22   0.155388
23   0.154903
24   0.159686
25   0.165522
26   0.13435
27   0.149188
28   0.161176
29   0.138861
30   0.145723
31   0.345487

$$$$

