PCCDB-ID:  64962
public computational chemistry database (PCCDB) project, http://pccdb.org

 12 13  0  0  0  0  0  0  0  0999 V2000
    0.9409   -1.3708   -0.0025 C   0  0  0  0  0  0  0  0  0  0  0  0
    1.9981    0.6754    0.0089 C   0  0  0  0  0  0  0  0  0  0  0  0
   -0.2821   -0.6915   -0.0021 C   0  0  0  0  0  0  0  0  0  0  0  0
   -0.2119    0.7127    0.0033 C   0  0  0  0  0  0  0  0  0  0  0  0
    2.0770   -0.6759    0.0029 N   0  0  0  0  0  0  0  0  0  0  0  0
    0.9069    1.4431    0.0093 N   0  0  0  0  0  0  0  0  0  0  0  0
   -1.6076   -1.0764   -0.0058 N   0  0  0  0  0  0  0  0  0  0  0  0
   -1.5159    1.0917    0.0033 N   0  0  0  0  0  0  0  0  0  0  0  0
   -2.3336   -0.0080   -0.0030 N   0  0  0  0  0  0  0  0  0  0  0  0
    1.0065   -2.4569   -0.0068 H   0  0  0  0  0  0  0  0  0  0  0  0
    2.9503    1.1997    0.0145 H   0  0  0  0  0  0  0  0  0  0  0  0
   -1.9212    2.0176    0.0006 H   0  0  0  0  0  0  0  0  0  0  0  0
  1  3  1  0  0  0  0
  1  5  1  0  0  0  0
  2  6  1  0  0  0  0
  2 11  1  0  0  0  0
  3  4  2  0  0  0  0
  4  8  1  0  0  0  0
  4  6  1  0  0  0  0
  5  2  2  0  0  0  0
  7  9  2  0  0  0  0
  7  3  1  0  0  0  0
  9  8  1  0  0  0  0
 10  1  1  0  0  0  0
 12  8  1  0  0  0  0
M  RAD  2   1   2   6   2
M  END
>  <HBA>
4

>  <HBD>
1

>  <TPSA>
67.35

>  <cid>
64962

>  <dipole>
1.91

>  <excitation_energy_1>
3.989

>  <excitation_energy_2>
4.58

>  <excitation_energy_3>
5.248

>  <excitation_energy_4>
5.299

>  <homo_energy>
-7.393

>  <homo_lumo_gap>
5.236

>  <logP>
-0.252

>  <lumo_energy>
-2.158

>  <melting_point>
156.95

>  <molecular_refractivity>
29.48

>  <oscillator_strength_1>
0.0009

>  <oscillator_strength_2>
0.0034

>  <oscillator_strength_3>
0.0509

>  <oscillator_strength_4>
0.1228

>  <open_babel_can_smiles>
C1=N[CH]c2c([N]1)[nH]nn2

>  <mulliken_charges>
12
1   0.065432
2   0.17092
3   0.239848
4   0.56991
5   -0.404157
6   -0.464234
7   -0.354918
8   -0.521628
9   -0.0098
10   0.178712
11   0.168012
12   0.361905

>  <lowdin_charges>
12
1   -0.035745
2   -0.025884
3   -0.049859
4   0.064296
5   -0.164089
6   -0.159111
7   -0.107556
8   -0.137992
9   -0.040582
10   0.174913
11   0.16947
12   0.312139

$$$$

