PCCDB-ID:  14097
public computational chemistry database (PCCDB) project, http://pccdb.org

 21 22  0  0  1  0  0  0  0  0999 V2000
    2.3759   -1.0753    0.3210 C   0  0  0  0  0  0  0  0  0  0  0  0
    1.0108    3.3063   -3.3958 C   0  0  0  0  0  0  0  0  0  0  0  0
    0.1610    2.6030   -2.5311 C   0  0  0  0  0  0  0  0  0  0  0  0
    2.4081    3.2636   -3.2567 C   0  0  0  0  0  0  0  0  0  0  0  0
    0.6642    1.8178   -1.4802 C   0  0  0  0  0  0  0  0  0  0  0  0
    4.1596    2.0031   -1.5211 C   0  0  0  0  0  0  0  0  0  0  0  0
    3.3476   -0.3082   -0.5591 C   0  0  0  0  0  0  0  0  0  0  0  0
    2.8944    2.4790   -2.2217 C   0  0  0  0  0  0  0  0  0  0  0  0
    2.0455    1.7814   -1.3627 C   0  0  0  0  0  0  0  0  0  0  0  0
    3.2133    1.2130   -0.5425 C   0  0  2  0  0  0  0  0  0  0  0  0
    4.1755   -0.8751   -1.2457 O   0  0  0  0  0  0  0  0  0  0  0  0
    1.3404   -0.8229    0.0629 H   0  0  0  0  0  0  0  0  0  0  0  0
    2.5191   -0.8024    1.3743 H   0  0  0  0  0  0  0  0  0  0  0  0
    2.5335   -2.1486    0.1974 H   0  0  0  0  0  0  0  0  0  0  0  0
    0.5729    3.9018   -4.1929 H   0  0  0  0  0  0  0  0  0  0  0  0
   -0.9140    2.6720   -2.6767 H   0  0  0  0  0  0  0  0  0  0  0  0
    3.0531    3.8183   -3.9333 H   0  0  0  0  0  0  0  0  0  0  0  0
   -0.0090    1.2862   -0.8121 H   0  0  0  0  0  0  0  0  0  0  0  0
    4.7617    2.7818   -1.0402 H   0  0  0  0  0  0  0  0  0  0  0  0
    4.8122    1.3460   -2.1023 H   0  0  0  0  0  0  0  0  0  0  0  0
    3.2343    1.5656    0.4981 H   0  0  0  0  0  0  0  0  0  0  0  0
  1 13  1  0  0  0  0
  2  4  2  0  0  0  0
  2  3  1  0  0  0  0
  3  5  2  0  0  0  0
  4  8  1  0  0  0  0
  5  9  1  0  0  0  0
  5 18  1  0  0  0  0
  6 19  1  0  0  0  0
  6 10  1  0  0  0  0
  7 10  1  0  0  0  0
  7  1  1  0  0  0  0
  8  6  1  0  0  0  0
  8  9  2  0  0  0  0
  9 10  1  0  0  0  0
 10 21  1  1  0  0  0
 11  7  2  0  0  0  0
 12  1  1  0  0  0  0
 14  1  1  0  0  0  0
 15  2  1  0  0  0  0
 16  3  1  0  0  0  0
 17  4  1  0  0  0  0
 20  6  1  0  0  0  0
M  END
>  <HBA>
1

>  <HBD>
0

>  <TPSA>
17.07

>  <cid>
14097

>  <dipole>
2.5

>  <excitation_energy_1>
4.258

>  <excitation_energy_2>
5.056

>  <excitation_energy_3>
5.378

>  <excitation_energy_4>
5.543

>  <homo_energy>
-6.261

>  <homo_lumo_gap>
5.731

>  <logP>
1.915

>  <lumo_energy>
-0.531

>  <melting_point>
54.63

>  <molecular_refractivity>
44.07

>  <oscillator_strength_1>
0.007

>  <oscillator_strength_2>
0.0348

>  <oscillator_strength_3>
0.0041

>  <oscillator_strength_4>
0.0357

>  <open_babel_can_smiles>
CC(=O)[C@H]1Cc2c1cccc2

>  <mulliken_charges>
21
1   -0.533425
2   -0.131965
3   -0.136851
4   -0.208176
5   -0.20811
6   -0.352789
7   0.458708
8   0.143382
9   0.139973
10   -0.284188
11   -0.428992
12   0.174639
13   0.168497
14   0.181363
15   0.130077
16   0.129743
17   0.133856
18   0.12967
19   0.151499
20   0.186299
21   0.156791

>  <lowdin_charges>
21
1   -0.470958
2   -0.154301
3   -0.154797
4   -0.165097
5   -0.171182
6   -0.276978
7   0.168319
8   -0.007251
9   -0.019043
10   -0.154135
11   -0.23001
12   0.170432
13   0.168572
14   0.172167
15   0.15891
16   0.155991
17   0.161511
18   0.157937
19   0.156661
20   0.173886
21   0.159367

$$$$

