PCCDB-ID:  10972
public computational chemistry database (PCCDB) project, http://pccdb.org

 15 14  0  0  0  0  0  0  0  0999 V2000
    1.2666   -1.8123   -1.2450 C   0  0  0  0  0  0  0  0  0  0  0  0
    0.8644    0.5682    0.5090 C   0  0  0  0  0  0  0  0  0  0  0  0
    2.1242   -0.5703   -1.1659 C   0  0  0  0  0  0  0  0  0  0  0  0
    0.8947    1.9548    1.1766 C   0  0  0  0  0  0  0  0  0  0  0  0
    1.9689    0.4464   -0.4247 N   0  0  0  0  0  0  0  0  0  0  0  0
    3.2002   -0.5525   -1.9988 O   0  0  0  0  0  0  0  0  0  0  0  0
    0.0605    2.2986    1.9797 O   0  0  0  0  0  0  0  0  0  0  0  0
    1.9189    2.7286    0.7930 O   0  0  0  0  0  0  0  0  0  0  0  0
    0.4102   -1.7614   -0.5717 H   0  0  0  0  0  0  0  0  0  0  0  0
    1.8579   -2.6981   -0.9810 H   0  0  0  0  0  0  0  0  0  0  0  0
    0.8926   -1.9516   -2.2669 H   0  0  0  0  0  0  0  0  0  0  0  0
   -0.1205    0.4633    0.0346 H   0  0  0  0  0  0  0  0  0  0  0  0
    0.9135   -0.1742    1.3171 H   0  0  0  0  0  0  0  0  0  0  0  0
    3.2277   -1.3736   -2.5137 H   0  0  0  0  0  0  0  0  0  0  0  0
    2.4263    2.1933    0.1352 H   0  0  0  0  0  0  0  0  0  0  0  0
  1  3  1  0  0  0  0
  1 10  1  0  0  0  0
  1  9  1  0  0  0  0
  2  4  1  0  0  0  0
  2 13  1  0  0  0  0
  3  5  2  0  0  0  0
  4  7  2  0  0  0  0
  5  2  1  0  0  0  0
  6  3  1  0  0  0  0
  8  4  1  0  0  0  0
 11  1  1  0  0  0  0
 12  2  1  0  0  0  0
 14  6  1  0  0  0  0
 15  8  1  0  0  0  0
M  END
>  <HBA>
4

>  <HBD>
2

>  <TPSA>
66.4

>  <cid>
10972

>  <dipole>
7.98

>  <excitation_energy_1>
5.541

>  <excitation_energy_2>
5.876

>  <excitation_energy_3>
5.955

>  <excitation_energy_4>
6.254

>  <homo_energy>
-6.836

>  <homo_lumo_gap>
6.468

>  <logP>
-0.402

>  <lumo_energy>
-0.367

>  <melting_point>
100.49

>  <molecular_refractivity>
26.12

>  <oscillator_strength_1>
0.0011

>  <oscillator_strength_2>
0.0002

>  <oscillator_strength_3>
0.0007

>  <oscillator_strength_4>
0.0042

>  <open_babel_can_smiles>
C/C(=N\CC(=O)O)/O

>  <mulliken_charges>
15
1   -0.566735
2   -0.242665
3   0.51926
4   0.589086
5   -0.469599
6   -0.568745
7   -0.466068
8   -0.571628
9   0.195098
10   0.186821
11   0.185164
12   0.18027
13   0.183818
14   0.414526
15   0.431398

>  <lowdin_charges>
15
1   -0.4811
2   -0.246376
3   0.148948
4   0.179347
5   -0.227571
6   -0.353323
7   -0.261605
8   -0.351453
9   0.181109
10   0.177288
11   0.175061
12   0.167027
13   0.170684
14   0.361293
15   0.360671

$$$$

