PCCDB-ID:  6950
public computational chemistry database (PCCDB) project, http://pccdb.org

 29 29  0  0  1  0  0  0  0  0999 V2000
    2.9311    1.1771   -2.3262 C   0  0  0  0  0  0  0  0  0  0  0  0
    2.6222    0.7572    1.5730 C   0  0  0  0  0  0  0  0  0  0  0  0
    2.5873    0.5610   -0.9668 C   0  0  0  0  0  0  0  0  0  0  0  0
    5.4353    0.2632    0.2917 C   0  0  0  0  0  0  0  0  0  0  0  0
    7.5071    1.5305    0.2798 C   0  0  0  0  0  0  0  0  0  0  0  0
    3.1402    1.3452    0.2455 C   0  0  2  0  0  0  0  0  0  0  0  0
    6.8353    0.3252    0.3079 C   0  0  0  0  0  0  0  0  0  0  0  0
    4.6631    1.4142    0.2441 C   0  0  0  0  0  0  0  0  0  0  0  0
    6.7485    2.7006    0.2334 C   0  0  0  0  0  0  0  0  0  0  0  0
    5.3264    2.6706    0.2151 C   0  0  0  0  0  0  0  0  0  0  0  0
    7.6092   -0.9198    0.3574 N   0  0  0  0  0  0  0  0  0  0  0  0
    7.4719    3.9614    0.2046 N   0  0  0  0  0  0  0  0  0  0  0  0
    4.5778    3.7729    0.1719 O   0  0  0  0  0  0  0  0  0  0  0  0
    6.9799   -1.9780    0.3803 O   0  0  0  0  0  0  0  0  0  0  0  0
    8.8360   -0.8300    0.3729 O   0  0  0  0  0  0  0  0  0  0  0  0
    8.6941    3.9452    0.2223 O   0  0  0  0  0  0  0  0  0  0  0  0
    6.8097    5.0236    0.1624 O   0  0  0  0  0  0  0  0  0  0  0  0
    2.4902    0.5937   -3.1417 H   0  0  0  0  0  0  0  0  0  0  0  0
    4.0139    1.2115   -2.4926 H   0  0  0  0  0  0  0  0  0  0  0  0
    2.5496    2.2021   -2.4041 H   0  0  0  0  0  0  0  0  0  0  0  0
    1.5268    0.7738    1.5928 H   0  0  0  0  0  0  0  0  0  0  0  0
    2.9855    1.3311    2.4322 H   0  0  0  0  0  0  0  0  0  0  0  0
    2.9422   -0.2835    1.7042 H   0  0  0  0  0  0  0  0  0  0  0  0
    2.9427   -0.4783   -0.9278 H   0  0  0  0  0  0  0  0  0  0  0  0
    1.4961    0.5093   -0.8566 H   0  0  0  0  0  0  0  0  0  0  0  0
    4.9677   -0.7141    0.3170 H   0  0  0  0  0  0  0  0  0  0  0  0
    8.5875    1.5743    0.2929 H   0  0  0  0  0  0  0  0  0  0  0  0
    2.7688    2.3714    0.1683 H   0  0  0  0  0  0  0  0  0  0  0  0
    5.2004    4.5450    0.1555 H   0  0  0  0  0  0  0  0  0  0  0  0
  1  3  1  0  0  0  0
  2 21  1  0  0  0  0
  2 23  1  0  0  0  0
  2 22  1  0  0  0  0
  3 24  1  0  0  0  0
  3 25  1  0  0  0  0
  3  6  1  0  0  0  0
  4  7  1  0  0  0  0
  4 26  1  0  0  0  0
  5 27  1  0  0  0  0
  5  7  2  0  0  0  0
  6 28  1  6  0  0  0
  6  2  1  0  0  0  0
  7 11  1  0  0  0  0
  8  6  1  0  0  0  0
  8  4  2  0  0  0  0
  9  5  1  0  0  0  0
 10  9  2  0  0  0  0
 10  8  1  0  0  0  0
 11 15  2  0  0  0  0
 11 14  2  0  0  0  0
 12 16  2  0  0  0  0
 12  9  1  0  0  0  0
 13 10  1  0  0  0  0
 17 12  2  0  0  0  0
 18  1  1  0  0  0  0
 19  1  1  0  0  0  0
 20  1  1  0  0  0  0
 29 13  1  0  0  0  0
M  END
>  <HBA>
1

>  <HBD>
1

>  <TPSA>
111.87

>  <cid>
6950

>  <dipole>
4.29

>  <excitation_energy_1>
3.412

>  <excitation_energy_2>
3.773

>  <excitation_energy_3>
3.881

>  <excitation_energy_4>
4.081

>  <homo_energy>
-7.334

>  <homo_lumo_gap>
4.128

>  <logP>
3.768

>  <lumo_energy>
-3.206

>  <melting_point>
125.73

>  <molecular_refractivity>
65.5

>  <oscillator_strength_1>
0.0414

>  <oscillator_strength_2>
0.0

>  <oscillator_strength_3>
0.0

>  <oscillator_strength_4>
0.0958

>  <open_babel_can_smiles>
CC[C@H](c1cc(cc(c1O)N(=O)=O)N(=O)=O)C

>  <mulliken_charges>
29
1   -0.448043
2   -0.448604
3   -0.25376
4   -0.211846
5   -0.204053
6   -0.160062
7   0.280135
8   0.124983
9   0.255787
10   0.286332
11   0.380293
12   0.392401
13   -0.624738
14   -0.394294
15   -0.390209
16   -0.366568
17   -0.449281
18   0.152058
19   0.145945
20   0.150925
21   0.15443
22   0.155109
23   0.149368
24   0.136999
25   0.142874
26   0.192416
27   0.228238
28   0.168009
29   0.455157

>  <lowdin_charges>
29
1   -0.445848
2   -0.436699
3   -0.266615
4   -0.116372
5   -0.11164
6   -0.124614
7   -0.013213
8   -0.01642
9   -0.048002
10   0.128151
11   0.306711
12   0.316415
13   -0.337906
14   -0.245508
15   -0.239134
16   -0.207568
17   -0.279408
18   0.15658
19   0.146966
20   0.150597
21   0.15375
22   0.156446
23   0.148911
24   0.140011
25   0.146192
26   0.191721
27   0.21128
28   0.162099
29   0.373117

$$$$

