PCCDB-ID:  35229
public computational chemistry database (PCCDB) project, http://pccdb.org

 19 19  0  0  0  0  0  0  0  0999 V2000
    2.4688   -1.5639   -0.1259 C   0  0  0  0  0  0  0  0  0  0  0  0
    2.7841   -0.0623   -0.1286 C   0  0  0  0  0  0  0  0  0  0  0  0
    6.8390    0.3743    1.1015 C   0  0  0  0  0  0  0  0  0  0  0  0
    6.1579    1.0902    3.1797 C   0  0  0  0  0  0  0  0  0  0  0  0
    4.4432    0.4950    1.4790 C   0  0  0  0  0  0  0  0  0  0  0  0
    6.3457    1.5068    4.3715 N   0  0  0  0  0  0  0  0  0  0  0  0
    3.2079    0.4043    1.1797 N   0  0  0  0  0  0  0  0  0  0  0  0
    7.1867    0.7830    2.2681 N   0  0  0  0  0  0  0  0  0  0  0  0
    5.5511    0.2043    0.6602 N   0  0  0  0  0  0  0  0  0  0  0  0
    4.8418    0.9223    2.7308 N   0  0  0  0  0  0  0  0  0  0  0  0
    2.0665   -1.8796   -1.0956 H   0  0  0  0  0  0  0  0  0  0  0  0
    1.7295   -1.7913    0.6482 H   0  0  0  0  0  0  0  0  0  0  0  0
    3.3655   -2.1591    0.0843 H   0  0  0  0  0  0  0  0  0  0  0  0
    1.8752    0.4915   -0.3923 H   0  0  0  0  0  0  0  0  0  0  0  0
    3.5056    0.1633   -0.9371 H   0  0  0  0  0  0  0  0  0  0  0  0
    7.6079    0.1268    0.3703 H   0  0  0  0  0  0  0  0  0  0  0  0
    7.3518    1.5727    4.5338 H   0  0  0  0  0  0  0  0  0  0  0  0
    5.3818   -0.1199   -0.2799 H   0  0  0  0  0  0  0  0  0  0  0  0
    4.1005    1.1530    3.3800 H   0  0  0  0  0  0  0  0  0  0  0  0
  1 13  1  0  0  0  0
  1 12  1  0  0  0  0
  2  1  1  0  0  0  0
  2  7  1  0  0  0  0
  3  8  1  0  0  0  0
  4  6  1  0  0  0  0
  5 10  1  0  0  0  0
  6 17  1  0  0  0  0
  7  5  2  0  0  0  0
  8  4  2  0  0  0  0
  9  3  1  0  0  0  0
  9  5  1  0  0  0  0
 10  4  1  0  0  0  0
 10 19  1  0  0  0  0
 11  1  1  0  0  0  0
 14  2  1  0  0  0  0
 15  2  1  0  0  0  0
 16  3  1  0  0  0  0
 18  9  1  0  0  0  0
M  RAD  2   3   2   6   2
M  END
>  <HBA>
5

>  <HBD>
2

>  <TPSA>
76.72

>  <cid>
35229

>  <dipole>
4.95

>  <excitation_energy_1>
4.549

>  <excitation_energy_2>
5.035

>  <excitation_energy_3>
5.237

>  <excitation_energy_4>
5.248

>  <homo_energy>
-6.242

>  <homo_lumo_gap>
5.323

>  <logP>
0.54

>  <lumo_energy>
-0.92

>  <melting_point>
133.88

>  <molecular_refractivity>
38.34

>  <oscillator_strength_1>
0.0079

>  <oscillator_strength_2>
0.0805

>  <oscillator_strength_3>
0.0148

>  <oscillator_strength_4>
0.018

>  <open_babel_can_smiles>
CC/N=C/1\N[CH]N=C(N1)[NH]

>  <mulliken_charges>
19
1   -0.435358
2   -0.158964
3   0.245508
4   0.601674
5   0.741086
6   -0.64015
7   -0.475236
8   -0.447122
9   -0.648435
10   -0.666256
11   0.143208
12   0.168319
13   0.138169
14   0.158385
15   0.097766
16   0.170072
17   0.298396
18   0.352915
19   0.356024

>  <lowdin_charges>
19
1   -0.450896
2   -0.197592
3   -0.009718
4   0.115495
5   0.133457
6   -0.417837
7   -0.254998
8   -0.208219
9   -0.244151
10   -0.235741
11   0.151168
12   0.162132
13   0.14501
14   0.153528
15   0.111698
16   0.171183
17   0.262988
18   0.30075
19   0.311745

$$$$

