PCCDB-ID:  23889
public computational chemistry database (PCCDB) project, http://pccdb.org

 31 30  0  0  0  0  0  0  0  0999 V2000
    3.2638   -2.8067   -1.9258 C   0  0  0  0  0  0  0  0  0  0  0  0
    4.3205   -2.3005   -0.9387 C   0  0  0  0  0  0  0  0  0  0  0  0
    3.9965   -0.9164   -0.3617 C   0  0  0  0  0  0  0  0  0  0  0  0
    5.0497   -0.4015    0.6274 C   0  0  0  0  0  0  0  0  0  0  0  0
    4.7198    0.9798    1.2063 C   0  0  0  0  0  0  0  0  0  0  0  0
    5.7764    1.4904    2.1940 C   0  0  0  0  0  0  0  0  0  0  0  0
    2.6662    3.6099    5.0735 C   0  0  0  0  0  0  0  0  0  0  0  0
    5.4446    2.8500    2.7976 C   0  0  0  0  0  0  0  0  0  0  0  0
    3.8313    3.9546    4.1585 C   0  0  0  0  0  0  0  0  0  0  0  0
    3.0571    2.6827    6.0712 O   0  0  0  0  0  0  0  0  0  0  0  0
    4.2553    2.7357    3.5665 O   0  0  0  0  0  0  0  0  0  0  0  0
    3.5246   -3.7955   -2.3200 H   0  0  0  0  0  0  0  0  0  0  0  0
    3.1596   -2.1247   -2.7788 H   0  0  0  0  0  0  0  0  0  0  0  0
    2.2804   -2.8879   -1.4464 H   0  0  0  0  0  0  0  0  0  0  0  0
    5.3000   -2.2648   -1.4368 H   0  0  0  0  0  0  0  0  0  0  0  0
    4.4262   -3.0200   -0.1142 H   0  0  0  0  0  0  0  0  0  0  0  0
    3.0166   -0.9525    0.1373 H   0  0  0  0  0  0  0  0  0  0  0  0
    3.8891   -0.1961   -1.1866 H   0  0  0  0  0  0  0  0  0  0  0  0
    6.0297   -0.3646    0.1278 H   0  0  0  0  0  0  0  0  0  0  0  0
    5.1573   -1.1234    1.4507 H   0  0  0  0  0  0  0  0  0  0  0  0
    3.7466    0.9470    1.7115 H   0  0  0  0  0  0  0  0  0  0  0  0
    4.6154    1.7045    0.3848 H   0  0  0  0  0  0  0  0  0  0  0  0
    6.7515    1.5699    1.6932 H   0  0  0  0  0  0  0  0  0  0  0  0
    5.9029    0.7687    3.0125 H   0  0  0  0  0  0  0  0  0  0  0  0
    1.8336    3.2195    4.4654 H   0  0  0  0  0  0  0  0  0  0  0  0
    2.3155    4.5108    5.5881 H   0  0  0  0  0  0  0  0  0  0  0  0
    5.3027    3.6007    2.0012 H   0  0  0  0  0  0  0  0  0  0  0  0
    6.2711    3.2022    3.4372 H   0  0  0  0  0  0  0  0  0  0  0  0
    4.6516    4.3968    4.7468 H   0  0  0  0  0  0  0  0  0  0  0  0
    3.5286    4.6822    3.3868 H   0  0  0  0  0  0  0  0  0  0  0  0
    3.5275    1.9791    5.5932 H   0  0  0  0  0  0  0  0  0  0  0  0
  1 14  1  0  0  0  0
  1  2  1  0  0  0  0
  2  3  1  0  0  0  0
  2 16  1  0  0  0  0
  3 17  1  0  0  0  0
  3  4  1  0  0  0  0
  4  5  1  0  0  0  0
  4 20  1  0  0  0  0
  5 21  1  0  0  0  0
  5  6  1  0  0  0  0
  6  8  1  0  0  0  0
  6 24  1  0  0  0  0
  7 26  1  0  0  0  0
  7 10  1  0  0  0  0
  8 28  1  0  0  0  0
  8 11  1  0  0  0  0
  9 29  1  0  0  0  0
  9  7  1  0  0  0  0
 11  9  1  0  0  0  0
 12  1  1  0  0  0  0
 13  1  1  0  0  0  0
 15  2  1  0  0  0  0
 18  3  1  0  0  0  0
 19  4  1  0  0  0  0
 22  5  1  0  0  0  0
 23  6  1  0  0  0  0
 25  7  1  0  0  0  0
 27  8  1  0  0  0  0
 30  9  1  0  0  0  0
 31 10  1  0  0  0  0
M  END
>  <HBA>
2

>  <HBD>
1

>  <TPSA>
29.46

>  <cid>
23889

>  <dipole>
2.34

>  <excitation_energy_1>
6.741

>  <excitation_energy_2>
6.864

>  <excitation_energy_3>
7.036

>  <excitation_energy_4>
7.082

>  <homo_energy>
-7.051

>  <homo_lumo_gap>
9.266

>  <logP>
1.966

>  <lumo_energy>
2.215

>  <melting_point>
-18.89

>  <molecular_refractivity>
47.62

>  <oscillator_strength_1>
0.0249

>  <oscillator_strength_2>
0.009

>  <oscillator_strength_3>
0.0114

>  <oscillator_strength_4>
0.0118

>  <open_babel_can_smiles>
CCCCCCCOCCO

>  <mulliken_charges>
31
1   -0.44131
2   -0.246795
3   -0.245838
4   -0.253176
5   -0.252193
6   -0.276035
7   -0.03348
8   -0.009166
9   -0.031689
10   -0.622647
11   -0.490642
12   0.141459
13   0.14079
14   0.141673
15   0.129331
16   0.130256
17   0.12814
18   0.125842
19   0.1249
20   0.128073
21   0.149315
22   0.123862
23   0.132865
24   0.140914
25   0.129269
26   0.14359
27   0.119038
28   0.123623
29   0.13027
30   0.120797
31   0.398967

>  <lowdin_charges>
31
1   -0.443812
2   -0.27242
3   -0.274466
4   -0.274195
5   -0.276558
6   -0.281314
7   -0.141473
8   -0.128342
9   -0.151111
10   -0.470049
11   -0.284212
12   0.148684
13   0.146407
14   0.145935
15   0.137831
16   0.1394
17   0.137676
18   0.137557
19   0.135689
20   0.138676
21   0.148018
22   0.137327
23   0.145807
24   0.146984
25   0.132453
26   0.149987
27   0.126977
28   0.130975
29   0.134326
30   0.132577
31   0.344669

$$$$

