PCCDB-ID:  47702
public computational chemistry database (PCCDB) project, http://pccdb.org

 27 28  0  0  1  0  0  0  0  0999 V2000
    1.5741    1.0622   -0.6714 C   0  0  0  0  0  0  0  0  0  0  0  0
    0.3271    1.6871   -0.8367 C   0  0  0  0  0  0  0  0  0  0  0  0
    0.6632   -0.4682    1.0045 C   0  0  0  0  0  0  0  0  0  0  0  0
    4.4611    1.2804    0.5845 C   0  0  0  0  0  0  0  0  0  0  0  0
   -2.6711    0.8732    0.9789 C   0  0  0  0  0  0  0  0  0  0  0  0
    1.7534    0.0054    0.2294 C   0  0  0  0  0  0  0  0  0  0  0  0
   -0.7158    1.2179   -0.0623 C   0  0  0  0  0  0  0  0  0  0  0  0
   -0.5482    0.1658    0.8392 C   0  0  0  0  0  0  0  0  0  0  0  0
    5.7362    1.4924    1.3933 C   0  0  2  0  0  0  0  0  0  0  0  0
    3.0767   -0.6663    0.3749 C   0  0  0  0  0  0  0  0  0  0  0  0
    4.2325   -0.1469    0.4745 N   0  0  0  0  0  0  0  0  0  0  0  0
    6.1947    2.6316    1.7574 N   0  0  0  0  0  0  0  0  0  0  0  0
    6.4249    0.3871    1.7275 O   0  0  0  0  0  0  0  0  0  0  0  0
    3.0269   -2.0296    0.4447 O   0  0  0  0  0  0  0  0  0  0  0  0
    5.3177    3.6588    1.2757 O   0  0  0  0  0  0  0  0  0  0  0  0
   -2.0118    1.6517   -0.0311 O   0  0  0  0  0  0  0  0  0  0  0  0
   -1.7350   -0.0944    1.4723 O   0  0  0  0  0  0  0  0  0  0  0  0
    2.4114    1.3971   -1.2731 H   0  0  0  0  0  0  0  0  0  0  0  0
    0.1861    2.4992   -1.5409 H   0  0  0  0  0  0  0  0  0  0  0  0
    0.7830   -1.2694    1.7261 H   0  0  0  0  0  0  0  0  0  0  0  0
    4.6187    1.7304   -0.4056 H   0  0  0  0  0  0  0  0  0  0  0  0
    3.6387    1.8384    1.0492 H   0  0  0  0  0  0  0  0  0  0  0  0
   -3.5298    0.3579    0.5368 H   0  0  0  0  0  0  0  0  0  0  0  0
   -2.9847    1.5307    1.7983 H   0  0  0  0  0  0  0  0  0  0  0  0
    5.8939   -0.3552    1.3545 H   0  0  0  0  0  0  0  0  0  0  0  0
    2.1520   -2.3233    0.1448 H   0  0  0  0  0  0  0  0  0  0  0  0
    5.7518    4.4495    1.6273 H   0  0  0  0  0  0  0  0  0  0  0  0
  1  6  1  0  0  0  0
  2  1  2  0  0  0  0
  2  7  1  0  0  0  0
  3 20  1  0  0  0  0
  4 22  1  0  0  0  0
  4  9  1  0  0  0  0
  5 17  1  0  0  0  0
  5 24  1  0  0  0  0
  6 10  1  0  0  0  0
  6  3  2  0  0  0  0
  7 16  1  0  0  0  0
  7  8  2  0  0  0  0
  8  3  1  0  0  0  0
  8 17  1  0  0  0  0
  9 13  1  6  0  0  0
  9 12  1  0  0  0  0
 10 14  1  0  0  0  0
 10 11  2  0  0  0  0
 11  4  1  0  0  0  0
 15 27  1  0  0  0  0
 15 12  1  0  0  0  0
 16  5  1  0  0  0  0
 18  1  1  0  0  0  0
 19  2  1  0  0  0  0
 21  4  1  0  0  0  0
 23  5  1  0  0  0  0
 25 13  1  0  0  0  0
 26 14  1  0  0  0  0
M  RAD  2   9   2  12   2
M  END
>  <HBA>
7

>  <HBD>
3

>  <TPSA>
96.89

>  <cid>
47702

>  <dipole>
7.96

>  <excitation_energy_1>
3.844

>  <excitation_energy_2>
4.44

>  <excitation_energy_3>
4.48

>  <excitation_energy_4>
4.855

>  <homo_energy>
-5.559

>  <homo_lumo_gap>
4.297

>  <logP>
0.432

>  <lumo_energy>
-1.263

>  <melting_point>
202.66

>  <molecular_refractivity>
54.04

>  <oscillator_strength_1>
0.0036

>  <oscillator_strength_2>
0.0185

>  <oscillator_strength_3>
0.1494

>  <oscillator_strength_4>
0.0316

>  <open_babel_can_smiles>
O[N][C](C/N=C(\c1ccc2c(c1)OCO2)/O)O

>  <mulliken_charges>
27
1   -0.168435
2   -0.183784
3   -0.245714
4   -0.203248
5   0.18896
6   0.03503
7   0.344843
8   0.341182
9   0.525323
10   0.442933
11   -0.485353
12   -0.278151
13   -0.601118
14   -0.575773
15   -0.543148
16   -0.522724
17   -0.528222
18   0.158504
19   0.161848
20   0.167736
21   0.184213
22   0.184893
23   0.172175
24   0.170794
25   0.431874
26   0.411249
27   0.414114

>  <lowdin_charges>
27
1   -0.149765
2   -0.17535
3   -0.192186
4   -0.23051
5   0.018543
6   -0.056449
7   0.083877
8   0.075892
9   0.092975
10   0.144964
11   -0.218853
12   -0.121257
13   -0.362734
14   -0.358857
15   -0.41244
16   -0.194289
17   -0.198274
18   0.175114
19   0.179119
20   0.179457
21   0.168507
22   0.168209
23   0.157188
24   0.154395
25   0.360587
26   0.358298
27   0.353838

$$$$

