PCCDB-ID:  29057
public computational chemistry database (PCCDB) project, http://pccdb.org

 23 24  0  0  0  0  0  0  0  0999 V2000
    4.4290    1.3716   -0.2553 C   0  0  0  0  0  0  0  0  0  0  0  0
   -0.4311    1.1631   -6.7843 C   0  0  0  0  0  0  0  0  0  0  0  0
    0.0902    2.3356   -6.2101 C   0  0  0  0  0  0  0  0  0  0  0  0
   -0.1233   -0.0718   -6.2349 C   0  0  0  0  0  0  0  0  0  0  0  0
    0.9140    2.2732   -5.0944 C   0  0  0  0  0  0  0  0  0  0  0  0
    1.9200   -1.3724   -3.3318 C   0  0  0  0  0  0  0  0  0  0  0  0
    0.7073   -0.1635   -5.1054 C   0  0  0  0  0  0  0  0  0  0  0  0
    1.0486   -1.4737   -4.5047 C   0  0  0  0  0  0  0  0  0  0  0  0
    1.2149    1.0205   -4.5507 C   0  0  0  0  0  0  0  0  0  0  0  0
    2.3530   -0.1746   -2.8801 C   0  0  0  0  0  0  0  0  0  0  0  0
    3.2472   -0.0676   -1.6817 C   0  0  0  0  0  0  0  0  0  0  0  0
    0.6393   -2.5435   -4.9487 O   0  0  0  0  0  0  0  0  0  0  0  0
    3.6234   -1.0352   -1.0551 O   0  0  0  0  0  0  0  0  0  0  0  0
    3.5709    1.2026   -1.3988 O   0  0  0  0  0  0  0  0  0  0  0  0
    2.0330    1.0138   -3.4476 O   0  0  0  0  0  0  0  0  0  0  0  0
    4.5834    2.4468   -0.1671 H   0  0  0  0  0  0  0  0  0  0  0  0
    5.3791    0.8549   -0.4130 H   0  0  0  0  0  0  0  0  0  0  0  0
    3.9496    0.9733    0.6424 H   0  0  0  0  0  0  0  0  0  0  0  0
   -1.0732    1.2279   -7.6576 H   0  0  0  0  0  0  0  0  0  0  0  0
   -0.1496    3.3031   -6.6420 H   0  0  0  0  0  0  0  0  0  0  0  0
   -0.5077   -0.9978   -6.6507 H   0  0  0  0  0  0  0  0  0  0  0  0
    1.3272    3.1640   -4.6329 H   0  0  0  0  0  0  0  0  0  0  0  0
    2.2273   -2.2735   -2.8158 H   0  0  0  0  0  0  0  0  0  0  0  0
  1 16  1  0  0  0  0
  1 18  1  0  0  0  0
  2  4  2  0  0  0  0
  2  3  1  0  0  0  0
  3  5  2  0  0  0  0
  4  7  1  0  0  0  0
  5 22  1  0  0  0  0
  5  9  1  0  0  0  0
  6 10  2  0  0  0  0
  6 23  1  0  0  0  0
  7  9  2  0  0  0  0
  7  8  1  0  0  0  0
  8  6  1  0  0  0  0
  9 15  1  0  0  0  0
 10 11  1  0  0  0  0
 11 14  1  0  0  0  0
 11 13  2  0  0  0  0
 12  8  2  0  0  0  0
 14  1  1  0  0  0  0
 15 10  1  0  0  0  0
 17  1  1  0  0  0  0
 19  2  1  0  0  0  0
 20  3  1  0  0  0  0
 21  4  1  0  0  0  0
M  END
>  <HBA>
4

>  <HBD>
0

>  <TPSA>
56.51

>  <cid>
29057

>  <dipole>
4.99

>  <excitation_energy_1>
3.349

>  <excitation_energy_2>
3.986

>  <excitation_energy_3>
4.444

>  <excitation_energy_4>
4.595

>  <homo_energy>
-6.702

>  <homo_lumo_gap>
4.487

>  <logP>
1.58

>  <lumo_energy>
-2.215

>  <melting_point>
109.27

>  <molecular_refractivity>
53.76

>  <oscillator_strength_1>
0.0

>  <oscillator_strength_2>
0.072

>  <oscillator_strength_3>
0.0602

>  <oscillator_strength_4>
0.0001

>  <open_babel_can_smiles>
COC(=O)c1cc(=O)c2c(o1)cccc2

>  <mulliken_charges>
23
1   -0.222814
2   -0.130117
3   -0.1291
4   -0.173534
5   -0.177957
6   -0.2326
7   0.059318
8   0.422643
9   0.295341
10   0.299302
11   0.600383
12   -0.505435
13   -0.473093
14   -0.448861
15   -0.523831
16   0.1737
17   0.178472
18   0.178645
19   0.14394
20   0.14608
21   0.171613
22   0.156704
23   0.191201

>  <lowdin_charges>
23
1   -0.273371
2   -0.156754
3   -0.132247
4   -0.122346
5   -0.173248
6   -0.191099
7   -0.065387
8   0.137509
9   0.108326
10   0.07842
11   0.188789
12   -0.267027
13   -0.248707
14   -0.169096
15   -0.096903
16   0.163851
17   0.163931
18   0.164756
19   0.165452
20   0.166412
21   0.18199
22   0.176159
23   0.200591

$$$$

