PCCDB-ID:  10785
public computational chemistry database (PCCDB) project, http://pccdb.org

 18 18  0  0  1  0  0  0  0  0999 V2000
    0.7474    1.2602   -0.2659 C   0  0  0  0  0  0  0  0  0  0  0  0
    1.4817    0.0104    0.2433 C   0  0  0  0  0  0  0  0  0  0  0  0
   -0.7111    1.2877    0.2143 C   0  0  0  0  0  0  0  0  0  0  0  0
    0.7473   -1.2858   -0.1707 C   0  0  0  0  0  0  0  0  0  0  0  0
   -1.4804    0.0251   -0.2265 C   0  0  1  0  0  0  0  0  0  0  0  0
   -0.7137   -1.2190    0.2209 C   0  0  0  0  0  0  0  0  0  0  0  0
   -2.7880    0.0112    0.2849 O   0  0  0  0  0  0  0  0  0  0  0  0
   -1.2810   -2.0713    0.8852 O   0  0  0  0  0  0  0  0  0  0  0  0
    0.7754    1.2781   -1.3654 H   0  0  0  0  0  0  0  0  0  0  0  0
    1.2679    2.1640    0.0722 H   0  0  0  0  0  0  0  0  0  0  0  0
    1.5485    0.0485    1.3390 H   0  0  0  0  0  0  0  0  0  0  0  0
    2.5107   -0.0182   -0.1335 H   0  0  0  0  0  0  0  0  0  0  0  0
   -1.2401    2.1694   -0.1640 H   0  0  0  0  0  0  0  0  0  0  0  0
   -0.7504    1.3394    1.3107 H   0  0  0  0  0  0  0  0  0  0  0  0
    1.1943   -2.1779    0.2777 H   0  0  0  0  0  0  0  0  0  0  0  0
    0.8021   -1.3939   -1.2642 H   0  0  0  0  0  0  0  0  0  0  0  0
   -1.5049    0.0062   -1.3323 H   0  0  0  0  0  0  0  0  0  0  0  0
   -2.8678   -0.8445    0.7525 H   0  0  0  0  0  0  0  0  0  0  0  0
  1 10  1  0  0  0  0
  1  3  1  0  0  0  0
  1  2  1  0  0  0  0
  2 11  1  0  0  0  0
  3 14  1  0  0  0  0
  4  6  1  0  0  0  0
  4  2  1  0  0  0  0
  4 15  1  0  0  0  0
  5 17  1  6  0  0  0
  5  3  1  0  0  0  0
  5  6  1  0  0  0  0
  5  7  1  0  0  0  0
  6  8  2  0  0  0  0
  7 18  1  0  0  0  0
  9  1  1  0  0  0  0
 12  2  1  0  0  0  0
 13  3  1  0  0  0  0
 16  4  1  0  0  0  0
M  END
>  <HBA>
2

>  <HBD>
1

>  <TPSA>
37.3

>  <cid>
10785

>  <dipole>
3.26

>  <excitation_energy_1>
4.47

>  <excitation_energy_2>
5.459

>  <excitation_energy_3>
6.625

>  <excitation_energy_4>
6.825

>  <homo_energy>
-7.021

>  <homo_lumo_gap>
6.242

>  <logP>
0.49

>  <lumo_energy>
-0.778

>  <melting_point>
36.02

>  <molecular_refractivity>
30.2

>  <oscillator_strength_1>
0.0

>  <oscillator_strength_2>
0.0188

>  <oscillator_strength_3>
0.0035

>  <oscillator_strength_4>
0.0101

>  <open_babel_can_smiles>
O[C@H]1CCCCC1=O

>  <mulliken_charges>
18
1   -0.276113
2   -0.27216
3   -0.275661
4   -0.343601
5   0.096618
6   0.41794
7   -0.645735
8   -0.462452
9   0.136917
10   0.1474
11   0.150517
12   0.148401
13   0.157082
14   0.147191
15   0.169843
16   0.162186
17   0.134765
18   0.406863

>  <lowdin_charges>
18
1   -0.279435
2   -0.270013
3   -0.281796
4   -0.302425
5   -0.033903
6   0.150171
7   -0.458406
8   -0.239003
9   0.139472
10   0.154321
11   0.146025
12   0.151721
13   0.158821
14   0.14758
15   0.167905
16   0.162149
17   0.139548
18   0.347269

$$$$

