PCCDB-ID:  19831
public computational chemistry database (PCCDB) project, http://pccdb.org

 36 37  0  0  0  0  0  0  0  0999 V2000
    1.0496    5.6752    3.4149 C   0  0  0  0  0  0  0  0  0  0  0  0
    0.4533    4.6506    2.6782 C   0  0  0  0  0  0  0  0  0  0  0  0
    2.4432    5.7496    3.5054 C   0  0  0  0  0  0  0  0  0  0  0  0
    2.6151    2.2333   -0.8709 C   0  0  0  0  0  0  0  0  0  0  0  0
    1.2461    3.7019    2.0324 C   0  0  0  0  0  0  0  0  0  0  0  0
    3.2336    4.8031    2.8620 C   0  0  0  0  0  0  0  0  0  0  0  0
    2.9718    1.7043    0.5379 C   0  0  0  0  0  0  0  0  0  0  0  0
    3.8375    2.7394   -1.6483 C   0  0  0  0  0  0  0  0  0  0  0  0
    4.7504    3.1442   -3.8590 C   0  0  0  0  0  0  0  0  0  0  0  0
    2.7264    4.2469   -3.2169 C   0  0  0  0  0  0  0  0  0  0  0  0
    4.3843    3.3818   -5.3222 C   0  0  0  0  0  0  0  0  0  0  0  0
    2.4107    4.4632   -4.6954 C   0  0  0  0  0  0  0  0  0  0  0  0
    2.6457    3.7677    2.1162 C   0  0  0  0  0  0  0  0  0  0  0  0
    3.5576    2.7788    1.4486 C   0  0  0  0  0  0  0  0  0  0  0  0
    3.5338    3.0359   -3.0494 N   0  0  0  0  0  0  0  0  0  0  0  0
    4.7686    2.8501    1.6086 O   0  0  0  0  0  0  0  0  0  0  0  0
    3.5952    4.5544   -5.4733 O   0  0  0  0  0  0  0  0  0  0  0  0
    0.4309    6.4134    3.9182 H   0  0  0  0  0  0  0  0  0  0  0  0
   -0.6292    4.5883    2.6074 H   0  0  0  0  0  0  0  0  0  0  0  0
    2.9093    6.5461    4.0791 H   0  0  0  0  0  0  0  0  0  0  0  0
    1.8607    3.0236   -0.7803 H   0  0  0  0  0  0  0  0  0  0  0  0
    2.1552    1.4209   -1.4459 H   0  0  0  0  0  0  0  0  0  0  0  0
    0.7656    2.9098    1.4670 H   0  0  0  0  0  0  0  0  0  0  0  0
    4.3166    4.8403    2.9186 H   0  0  0  0  0  0  0  0  0  0  0  0
    3.7304    0.9195    0.4570 H   0  0  0  0  0  0  0  0  0  0  0  0
    2.0797    1.2576    0.9919 H   0  0  0  0  0  0  0  0  0  0  0  0
    4.6033    1.9536   -1.6384 H   0  0  0  0  0  0  0  0  0  0  0  0
    4.2843    3.6119   -1.1348 H   0  0  0  0  0  0  0  0  0  0  0  0
    5.4027    3.9704   -3.5132 H   0  0  0  0  0  0  0  0  0  0  0  0
    5.3202    2.2109   -3.7711 H   0  0  0  0  0  0  0  0  0  0  0  0
    1.7860    4.1426   -2.6648 H   0  0  0  0  0  0  0  0  0  0  0  0
    3.2503    5.1408   -2.8224 H   0  0  0  0  0  0  0  0  0  0  0  0
    3.8392    2.5054   -5.7103 H   0  0  0  0  0  0  0  0  0  0  0  0
    5.2837    3.5330   -5.9267 H   0  0  0  0  0  0  0  0  0  0  0  0
    1.8710    5.4042   -4.8405 H   0  0  0  0  0  0  0  0  0  0  0  0
    1.7808    3.6341   -5.0587 H   0  0  0  0  0  0  0  0  0  0  0  0
  1  3  1  0  0  0  0
  1 18  1  0  0  0  0
  2  1  2  0  0  0  0
  3 20  1  0  0  0  0
  4 21  1  0  0  0  0
  4  7  1  0  0  0  0
  5 13  2  0  0  0  0
  5  2  1  0  0  0  0
  6 24  1  0  0  0  0
  6  3  2  0  0  0  0
  7 26  1  0  0  0  0
  7 14  1  0  0  0  0
  8 27  1  0  0  0  0
  8 28  1  0  0  0  0
  8  4  1  0  0  0  0
  9 30  1  0  0  0  0
  9 29  1  0  0  0  0
  9 15  1  0  0  0  0
 10 15  1  0  0  0  0
 10 32  1  0  0  0  0
 10 31  1  0  0  0  0
 11  9  1  0  0  0  0
 12 10  1  0  0  0  0
 13  6  1  0  0  0  0
 14 16  2  0  0  0  0
 14 13  1  0  0  0  0
 15  8  1  0  0  0  0
 17 11  1  0  0  0  0
 17 12  1  0  0  0  0
 19  2  1  0  0  0  0
 22  4  1  0  0  0  0
 23  5  1  0  0  0  0
 25  7  1  0  0  0  0
 33 11  1  0  0  0  0
 34 11  1  0  0  0  0
 35 12  1  0  0  0  0
 36 12  1  0  0  0  0
M  END
>  <HBA>
3

>  <HBD>
0

>  <TPSA>
29.54

>  <cid>
19831

>  <dipole>
2.99

>  <excitation_energy_1>
3.622

>  <excitation_energy_2>
3.662

>  <excitation_energy_3>
4.702

>  <excitation_energy_4>
4.75

>  <homo_energy>
-5.867

>  <homo_lumo_gap>
4.308

>  <logP>
1.92

>  <lumo_energy>
-1.559

>  <melting_point>
50.49

>  <molecular_refractivity>
71.26

>  <oscillator_strength_1>
0.0002

>  <oscillator_strength_2>
0.0055

>  <oscillator_strength_3>
0.018

>  <oscillator_strength_4>
0.0042

>  <open_babel_can_smiles>
O=C(c1ccccc1)CCCN1CCOCC1

>  <mulliken_charges>
36
1   -0.119131
2   -0.135192
3   -0.13113
4   -0.283074
5   -0.182196
6   -0.156609
7   -0.357281
8   -0.106413
9   -0.13163
10   -0.137835
11   -0.033671
12   -0.031823
13   0.07475
14   0.404749
15   -0.407949
16   -0.46566
17   -0.46715
18   0.138695
19   0.136744
20   0.139405
21   0.144752
22   0.154932
23   0.138468
24   0.165414
25   0.165209
26   0.149259
27   0.141509
28   0.130812
29   0.12227
30   0.138811
31   0.139536
32   0.120734
33   0.12696
34   0.144165
35   0.143282
36   0.126288

>  <lowdin_charges>
36
1   -0.140375
2   -0.155993
3   -0.154776
4   -0.279075
5   -0.152116
6   -0.125041
7   -0.306513
8   -0.20275
9   -0.216384
10   -0.21857
11   -0.138568
12   -0.137438
13   -0.050732
14   0.156903
15   -0.194043
16   -0.246011
17   -0.273487
18   0.163269
19   0.158939
20   0.163155
21   0.144662
22   0.155795
23   0.162835
24   0.175386
25   0.165321
26   0.15691
27   0.148392
28   0.1291
29   0.124687
30   0.149195
31   0.148537
32   0.123385
33   0.131564
34   0.151547
35   0.150868
36   0.131424

$$$$

