PCCDB-ID:  21184
public computational chemistry database (PCCDB) project, http://pccdb.org

 32 32  0  0  0  0  0  0  0  0999 V2000
    5.0643   -1.9579    4.4974 C   0  0  0  0  0  0  0  0  0  0  0  0
    5.5756   -2.8737    3.5771 C   0  0  0  0  0  0  0  0  0  0  0  0
    3.8339   -1.3410    4.2559 C   0  0  0  0  0  0  0  0  0  0  0  0
    3.6608    1.9493   -0.7356 C   0  0  0  0  0  0  0  0  0  0  0  0
    4.8616   -3.1686    2.4141 C   0  0  0  0  0  0  0  0  0  0  0  0
    3.1183   -1.6440    3.0990 C   0  0  0  0  0  0  0  0  0  0  0  0
    5.1066    2.2943   -1.1596 C   0  0  0  0  0  0  0  0  0  0  0  0
    3.0710    0.6830   -1.3865 C   0  0  0  0  0  0  0  0  0  0  0  0
    2.8492   -2.8638    0.9116 C   0  0  0  0  0  0  0  0  0  0  0  0
    3.6264   -2.5596    2.1669 C   0  0  0  0  0  0  0  0  0  0  0  0
    5.3294    2.3850   -2.6698 C   0  0  0  0  0  0  0  0  0  0  0  0
    3.8935   -1.4678   -0.7757 C   0  0  0  0  0  0  0  0  0  0  0  0
    4.0562   -0.3979   -1.4445 N   0  0  0  0  0  0  0  0  0  0  0  0
    5.4985    3.4282   -3.2577 O   0  0  0  0  0  0  0  0  0  0  0  0
    5.3370    1.2048   -3.3296 O   0  0  0  0  0  0  0  0  0  0  0  0
    4.8019   -2.4677   -0.8207 O   0  0  0  0  0  0  0  0  0  0  0  0
    2.8280   -1.7348   -0.0116 O   0  0  0  0  0  0  0  0  0  0  0  0
    5.6204   -1.7255    5.4014 H   0  0  0  0  0  0  0  0  0  0  0  0
    6.5305   -3.3579    3.7619 H   0  0  0  0  0  0  0  0  0  0  0  0
    3.4304   -0.6301    4.9717 H   0  0  0  0  0  0  0  0  0  0  0  0
    2.9979    2.7918   -0.9675 H   0  0  0  0  0  0  0  0  0  0  0  0
    3.6573    1.8288    0.3548 H   0  0  0  0  0  0  0  0  0  0  0  0
    5.2653   -3.8717    1.6906 H   0  0  0  0  0  0  0  0  0  0  0  0
    2.1587   -1.1668    2.9140 H   0  0  0  0  0  0  0  0  0  0  0  0
    5.7856    1.5367   -0.7505 H   0  0  0  0  0  0  0  0  0  0  0  0
    5.3882    3.2621   -0.7378 H   0  0  0  0  0  0  0  0  0  0  0  0
    2.7869    0.9084   -2.4213 H   0  0  0  0  0  0  0  0  0  0  0  0
    2.1609    0.3876   -0.8535 H   0  0  0  0  0  0  0  0  0  0  0  0
    1.7886   -3.0110    1.1279 H   0  0  0  0  0  0  0  0  0  0  0  0
    3.2319   -3.7467    0.3967 H   0  0  0  0  0  0  0  0  0  0  0  0
    5.1082    0.4690   -2.7086 H   0  0  0  0  0  0  0  0  0  0  0  0
    5.5112   -2.1622   -1.4124 H   0  0  0  0  0  0  0  0  0  0  0  0
  1 18  1  0  0  0  0
  2 19  1  0  0  0  0
  2  1  2  0  0  0  0
  3  1  1  0  0  0  0
  3 20  1  0  0  0  0
  4 22  1  0  0  0  0
  5  2  1  0  0  0  0
  6  3  2  0  0  0  0
  7 25  1  0  0  0  0
  7 26  1  0  0  0  0
  7  4  1  0  0  0  0
  8 28  1  0  0  0  0
  8  4  1  0  0  0  0
  9 29  1  0  0  0  0
  9 10  1  0  0  0  0
 10  5  2  0  0  0  0
 10  6  1  0  0  0  0
 11  7  1  0  0  0  0
 12 17  1  0  0  0  0
 13  8  1  0  0  0  0
 13 12  2  0  0  0  0
 14 11  2  0  0  0  0
 15 31  1  0  0  0  0
 15 11  1  0  0  0  0
 16 12  1  0  0  0  0
 17  9  1  0  0  0  0
 21  4  1  0  0  0  0
 23  5  1  0  0  0  0
 24  6  1  0  0  0  0
 27  8  1  0  0  0  0
 30  9  1  0  0  0  0
 32 16  1  0  0  0  0
M  END
>  <HBA>
5

>  <HBD>
2

>  <TPSA>
75.63

>  <cid>
21184

>  <dipole>
8.06

>  <excitation_energy_1>
5.282

>  <excitation_energy_2>
5.433

>  <excitation_energy_3>
5.5

>  <excitation_energy_4>
5.654

>  <homo_energy>
-6.523

>  <homo_lumo_gap>
5.777

>  <logP>
2.168

>  <lumo_energy>
-0.746

>  <melting_point>
130.94

>  <molecular_refractivity>
61.69

>  <oscillator_strength_1>
0.003

>  <oscillator_strength_2>
0.0047

>  <oscillator_strength_3>
0.0009

>  <oscillator_strength_4>
0.0329

>  <open_babel_can_smiles>
OC(=O)CCC/N=C(\OCc1ccccc1)/O

>  <mulliken_charges>
32
1   -0.124721
2   -0.129674
3   -0.129555
4   -0.264537
5   -0.167525
6   -0.166436
7   -0.359895
8   -0.169947
9   -0.135494
10   0.136565
11   0.575973
12   0.751618
13   -0.536185
14   -0.458223
15   -0.60057
16   -0.596097
17   -0.472381
18   0.138571
19   0.13784
20   0.138634
21   0.154892
22   0.146246
23   0.140186
24   0.13731
25   0.152878
26   0.168446
27   0.167704
28   0.159339
29   0.171876
30   0.179496
31   0.425556
32   0.42811

>  <lowdin_charges>
32
1   -0.147968
2   -0.153573
3   -0.1538
4   -0.274026
5   -0.154968
6   -0.151929
7   -0.319962
8   -0.206961
9   -0.119553
10   -0.031179
11   0.188537
12   0.202464
13   -0.283864
14   -0.262001
15   -0.384176
16   -0.358624
17   -0.186985
18   0.16233
19   0.161403
20   0.163056
21   0.155411
22   0.147203
23   0.163816
24   0.160662
25   0.157865
26   0.169226
27   0.153973
28   0.151762
29   0.16433
30   0.164453
31   0.3467
32   0.376381

$$$$

