PCCDB-ID:  46238
public computational chemistry database (PCCDB) project, http://pccdb.org

 32 32  0  0  1  0  0  0  0  0999 V2000
    2.2286    1.1640   -1.5084 C   0  0  0  0  0  0  0  0  0  0  0  0
    9.2754   -0.1937    0.9681 C   0  0  0  0  0  0  0  0  0  0  0  0
    4.8559    4.2234   -0.1963 C   0  0  0  0  0  0  0  0  0  0  0  0
    6.4514   -0.3796    1.1299 C   0  0  0  0  0  0  0  0  0  0  0  0
    5.0545   -0.3684    1.1959 C   0  0  0  0  0  0  0  0  0  0  0  0
    6.3721    1.9383    0.4316 C   0  0  0  0  0  0  0  0  0  0  0  0
    2.0533    0.1963   -0.3355 C   0  0  1  0  0  0  0  0  0  0  0  0
    7.1113    0.7886    0.7483 C   0  0  0  0  0  0  0  0  0  0  0  0
    4.2823    0.7499    0.8864 C   0  0  0  0  0  0  0  0  0  0  0  0
    4.9822    1.9150    0.4947 C   0  0  0  0  0  0  0  0  0  0  0  0
    2.7632    0.6549    0.9779 C   0  0  1  0  0  0  0  0  0  0  0  0
    0.6147   -0.0159   -0.1184 N   0  0  0  0  0  0  0  0  0  0  0  0
    2.1415    1.8279    1.5020 O   0  0  0  0  0  0  0  0  0  0  0  0
    8.4662    0.9292    0.6555 O   0  0  0  0  0  0  0  0  0  0  0  0
    4.2117    3.0147    0.1851 O   0  0  0  0  0  0  0  0  0  0  0  0
    3.2816    1.2916   -1.7771 H   0  0  0  0  0  0  0  0  0  0  0  0
    1.8185    2.1502   -1.2615 H   0  0  0  0  0  0  0  0  0  0  0  0
    1.6843    0.7811   -2.3761 H   0  0  0  0  0  0  0  0  0  0  0  0
   10.3075    0.1331    0.8284 H   0  0  0  0  0  0  0  0  0  0  0  0
    9.0688   -1.0387    0.2981 H   0  0  0  0  0  0  0  0  0  0  0  0
    9.1340   -0.5155    2.0082 H   0  0  0  0  0  0  0  0  0  0  0  0
    5.4530    4.0834   -1.1053 H   0  0  0  0  0  0  0  0  0  0  0  0
    5.4969    4.6055    0.6075 H   0  0  0  0  0  0  0  0  0  0  0  0
    4.0556    4.9380   -0.3959 H   0  0  0  0  0  0  0  0  0  0  0  0
    6.9947   -1.2806    1.3876 H   0  0  0  0  0  0  0  0  0  0  0  0
    4.5447   -1.2754    1.5138 H   0  0  0  0  0  0  0  0  0  0  0  0
    6.9206    2.8262    0.1437 H   0  0  0  0  0  0  0  0  0  0  0  0
    2.4882   -0.7728   -0.6176 H   0  0  0  0  0  0  0  0  0  0  0  0
    2.5440   -0.1255    1.7191 H   0  0  0  0  0  0  0  0  0  0  0  0
    0.2541    0.8271    0.3326 H   0  0  0  0  0  0  0  0  0  0  0  0
    0.4842   -0.7602    0.5683 H   0  0  0  0  0  0  0  0  0  0  0  0
    2.5644    2.5847    1.0621 H   0  0  0  0  0  0  0  0  0  0  0  0
  1 17  1  0  0  0  0
  1  7  1  0  0  0  0
  2 21  1  0  0  0  0
  3 15  1  0  0  0  0
  3 23  1  0  0  0  0
  4  5  1  0  0  0  0
  4 25  1  0  0  0  0
  5 26  1  0  0  0  0
  6 10  2  0  0  0  0
  6  8  1  0  0  0  0
  7 28  1  6  0  0  0
  7 12  1  0  0  0  0
  7 11  1  0  0  0  0
  8  4  2  0  0  0  0
  9 11  1  0  0  0  0
  9  5  2  0  0  0  0
 10  9  1  0  0  0  0
 11 13  1  0  0  0  0
 11 29  1  1  0  0  0
 12 30  1  0  0  0  0
 12 31  1  0  0  0  0
 14  8  1  0  0  0  0
 14  2  1  0  0  0  0
 15 10  1  0  0  0  0
 16  1  1  0  0  0  0
 18  1  1  0  0  0  0
 19  2  1  0  0  0  0
 20  2  1  0  0  0  0
 22  3  1  0  0  0  0
 24  3  1  0  0  0  0
 27  6  1  0  0  0  0
 32 13  1  0  0  0  0
M  END
>  <HBA>
4

>  <HBD>
2

>  <TPSA>
64.71

>  <cid>
46238

>  <dipole>
3.8

>  <excitation_energy_1>
4.817

>  <excitation_energy_2>
5.196

>  <excitation_energy_3>
5.281

>  <excitation_energy_4>
5.418

>  <homo_energy>
-5.589

>  <homo_lumo_gap>
5.614

>  <logP>
1.785

>  <lumo_energy>
0.024

>  <melting_point>
90.91

>  <molecular_refractivity>
57.88

>  <oscillator_strength_1>
0.0688

>  <oscillator_strength_2>
0.0106

>  <oscillator_strength_3>
0.0822

>  <oscillator_strength_4>
0.0037

>  <open_babel_can_smiles>
COc1cc(OC)ccc1[C@H]([C@@H](N)C)O

>  <mulliken_charges>
32
1   -0.44008
2   -0.214909
3   -0.216462
4   -0.1949
5   -0.210669
6   -0.25242
7   0.02026
8   0.378194
9   0.117412
10   0.334042
11   0.05204
12   -0.70581
13   -0.660127
14   -0.51081
15   -0.551887
16   0.141914
17   0.131944
18   0.155716
19   0.169999
20   0.153417
21   0.153779
22   0.162313
23   0.162107
24   0.173649
25   0.129838
26   0.129048
27   0.14208
28   0.120027
29   0.121514
30   0.303321
31   0.28532
32   0.420139

>  <lowdin_charges>
32
1   -0.450754
2   -0.275951
3   -0.279174
4   -0.231442
5   -0.145173
6   -0.235832
7   -0.080393
8   0.111138
9   -0.059715
10   0.102379
11   -0.015244
12   -0.550571
13   -0.478106
14   -0.200076
15   -0.209564
16   0.148736
17   0.143315
18   0.159067
19   0.161733
20   0.146604
21   0.145005
22   0.151816
23   0.152497
24   0.165959
25   0.16352
26   0.158234
27   0.17295
28   0.136973
29   0.14178
30   0.256784
31   0.24856
32   0.344947

$$$$

