PCCDB-ID:  674
public computational chemistry database (PCCDB) project, http://pccdb.org

 10  9  0  0  0  0  0  0  0  0999 V2000
    1.0021    0.0594    0.0475 C   0  0  0  0  0  0  0  0  0  0  0  0
    2.9836    0.9277   -1.0521 C   0  0  0  0  0  0  0  0  0  0  0  0
    2.4581    0.1162    0.0382 N   0  0  0  0  0  0  0  0  0  0  0  0
    0.6649   -0.6079    0.8479 H   0  0  0  0  0  0  0  0  0  0  0  0
    0.5509   -0.2843   -0.9037 H   0  0  0  0  0  0  0  0  0  0  0  0
    0.6023    1.0591    0.2574 H   0  0  0  0  0  0  0  0  0  0  0  0
    4.0781    0.8883   -1.0457 H   0  0  0  0  0  0  0  0  0  0  0  0
    2.6874    1.9729   -0.9003 H   0  0  0  0  0  0  0  0  0  0  0  0
    2.6315    0.6267   -2.0580 H   0  0  0  0  0  0  0  0  0  0  0  0
    2.8276   -0.8288   -0.0422 H   0  0  0  0  0  0  0  0  0  0  0  0
  1  6  1  0  0  0  0
  1  4  1  0  0  0  0
  2  7  1  0  0  0  0
  2  8  1  0  0  0  0
  2  3  1  0  0  0  0
  3  1  1  0  0  0  0
  5  1  1  0  0  0  0
  9  2  1  0  0  0  0
 10  3  1  0  0  0  0
M  END
>  <HBA>
1

>  <HBD>
1

>  <TPSA>
12.03

>  <cid>
674

>  <dipole>
1.03

>  <excitation_energy_1>
5.299

>  <excitation_energy_2>
6.043

>  <excitation_energy_3>
6.193

>  <excitation_energy_4>
6.509

>  <homo_energy>
-5.853

>  <homo_lumo_gap>
8.215

>  <logP>
0.227

>  <lumo_energy>
2.362

>  <melting_point>
3.27

>  <molecular_refractivity>
14.53

>  <oscillator_strength_1>
0.0017

>  <oscillator_strength_2>
0.0324

>  <oscillator_strength_3>
0.0053

>  <oscillator_strength_4>
0.0783

>  <open_babel_can_smiles>
CNC

>  <mulliken_charges>
10
1   -0.299964
2   -0.300068
3   -0.523648
4   0.147259
5   0.116665
6   0.150746
7   0.147299
8   0.150752
9   0.116698
10   0.294262

>  <lowdin_charges>
10
1   -0.361114
2   -0.35635
3   -0.361504
4   0.15076
5   0.118717
6   0.147096
7   0.147623
8   0.146124
9   0.11769
10   0.250958

$$$$

