PCCDB-ID:  29701
public computational chemistry database (PCCDB) project, http://pccdb.org

 28 28  0  0  0  0  0  0  0  0999 V2000
   -1.3536   -0.9317   -0.9666 C   0  0  0  0  0  0  0  0  0  0  0  0
   -0.9950    0.4113   -1.1102 C   0  0  0  0  0  0  0  0  0  0  0  0
   -0.3706   -1.8987   -0.7423 C   0  0  0  0  0  0  0  0  0  0  0  0
    0.3437    0.7861   -1.0306 C   0  0  0  0  0  0  0  0  0  0  0  0
    0.9707   -1.5278   -0.6612 C   0  0  0  0  0  0  0  0  0  0  0  0
    5.6730   -0.3427   -1.8114 C   0  0  0  0  0  0  0  0  0  0  0  0
    5.0195   -0.4071   -0.4330 C   0  0  0  0  0  0  0  0  0  0  0  0
    1.3330   -0.1812   -0.8067 C   0  0  0  0  0  0  0  0  0  0  0  0
    2.7503    0.2784   -0.7321 C   0  0  0  0  0  0  0  0  0  0  0  0
    6.4141   -2.6505   -2.2090 C   0  0  0  0  0  0  0  0  0  0  0  0
    7.3159   -2.5146   -1.3042 N   0  0  0  0  0  0  0  0  0  0  0  0
    6.0971   -3.8139   -2.9280 N   0  0  0  0  0  0  0  0  0  0  0  0
    5.5952   -1.5855   -2.5700 N   0  0  0  0  0  0  0  0  0  0  0  0
    3.0965    1.4404   -0.8315 O   0  0  0  0  0  0  0  0  0  0  0  0
    3.6138   -0.7473   -0.5421 O   0  0  0  0  0  0  0  0  0  0  0  0
   -2.3984   -1.2246   -1.0287 H   0  0  0  0  0  0  0  0  0  0  0  0
   -1.7590    1.1640   -1.2843 H   0  0  0  0  0  0  0  0  0  0  0  0
   -0.6498   -2.9426   -0.6284 H   0  0  0  0  0  0  0  0  0  0  0  0
    0.6465    1.8224   -1.1380 H   0  0  0  0  0  0  0  0  0  0  0  0
    1.7386   -2.2725   -0.4842 H   0  0  0  0  0  0  0  0  0  0  0  0
    6.7296   -0.0972   -1.6798 H   0  0  0  0  0  0  0  0  0  0  0  0
    5.2037    0.4494   -2.4031 H   0  0  0  0  0  0  0  0  0  0  0  0
    5.1162    0.5508    0.0836 H   0  0  0  0  0  0  0  0  0  0  0  0
    5.4610   -1.2084    0.1595 H   0  0  0  0  0  0  0  0  0  0  0  0
    7.9072   -3.3453   -1.2488 H   0  0  0  0  0  0  0  0  0  0  0  0
    6.7812   -4.5537   -2.8267 H   0  0  0  0  0  0  0  0  0  0  0  0
    5.8753   -3.6466   -3.9043 H   0  0  0  0  0  0  0  0  0  0  0  0
    4.6466   -1.8680   -2.7904 H   0  0  0  0  0  0  0  0  0  0  0  0
  1  3  2  0  0  0  0
  2  4  2  0  0  0  0
  2  1  1  0  0  0  0
  3  5  1  0  0  0  0
  3 18  1  0  0  0  0
  4  8  1  0  0  0  0
  5 20  1  0  0  0  0
  6 21  1  0  0  0  0
  6  7  1  0  0  0  0
  7 23  1  0  0  0  0
  7 24  1  0  0  0  0
  8  9  1  0  0  0  0
  8  5  2  0  0  0  0
  9 15  1  0  0  0  0
 10 11  1  0  0  0  0
 11 25  1  0  0  0  0
 12 26  1  0  0  0  0
 12 10  2  0  0  0  0
 13 10  1  0  0  0  0
 13  6  1  0  0  0  0
 14  9  2  0  0  0  0
 15  7  1  0  0  0  0
 16  1  1  0  0  0  0
 17  2  1  0  0  0  0
 19  4  1  0  0  0  0
 22  6  1  0  0  0  0
 27 12  1  0  0  0  0
 28 13  1  0  0  0  0
M  RAD  1  11   2
M  END
>  <HBA>
5

>  <HBD>
2

>  <TPSA>
90.7

>  <cid>
29701

>  <dipole>
4.03

>  <excitation_energy_1>
4.423

>  <excitation_energy_2>
4.865

>  <excitation_energy_3>
4.917

>  <excitation_energy_4>
5.234

>  <homo_energy>
-6.15

>  <homo_lumo_gap>
4.955

>  <logP>
1.517

>  <lumo_energy>
-1.195

>  <melting_point>
154.29

>  <molecular_refractivity>
56.44

>  <oscillator_strength_1>
0.0079

>  <oscillator_strength_2>
0.0003

>  <oscillator_strength_3>
0.0173

>  <oscillator_strength_4>
0.0375

>  <open_babel_can_smiles>
O=C(c1ccccc1)OCCNC(=[NH2])[NH]

>  <mulliken_charges>
28
1   -0.117054
2   -0.138979
3   -0.136906
4   -0.151841
5   -0.16253
6   -0.157173
7   -0.057813
8   0.047616
9   0.590325
10   0.585903
11   -0.649713
12   -0.756167
13   -0.587149
14   -0.492456
15   -0.486385
16   0.136774
17   0.138053
18   0.136358
19   0.163642
20   0.157971
21   0.184917
22   0.16586
23   0.167682
24   0.186381
25   0.265264
26   0.319575
27   0.324364
28   0.323478

>  <lowdin_charges>
28
1   -0.139023
2   -0.157606
3   -0.155993
4   -0.129494
5   -0.142837
6   -0.209163
7   -0.143063
8   -0.045678
9   0.192419
10   0.125498
11   -0.485803
12   -0.508625
13   -0.305005
14   -0.273902
15   -0.198644
16   0.159752
17   0.162777
18   0.159586
19   0.175939
20   0.173552
21   0.175031
22   0.159949
23   0.162007
24   0.171844
25   0.247492
26   0.276369
27   0.277449
28   0.275171

$$$$

