PCCDB-ID:  8077
public computational chemistry database (PCCDB) project, http://pccdb.org

 16 15  0  0  0  0  0  0  0  0999 V2000
    1.7686    0.7374   -1.7037 C   0  0  0  0  0  0  0  0  0  0  0  0
    5.0823   -2.0349    2.1859 C   0  0  0  0  0  0  0  0  0  0  0  0
    1.6672   -0.0207   -0.3850 C   0  0  0  0  0  0  0  0  0  0  0  0
    4.8892   -1.9043    0.6794 C   0  0  0  0  0  0  0  0  0  0  0  0
    2.9172    0.4771    0.8843 S   0  0  0  0  0  0  0  0  0  0  0  0
    4.7281   -0.1636    0.0747 S   0  0  0  0  0  0  0  0  0  0  0  0
    0.9857    0.3998   -2.3944 H   0  0  0  0  0  0  0  0  0  0  0  0
    2.7386    0.5622   -2.1798 H   0  0  0  0  0  0  0  0  0  0  0  0
    1.6517    1.8147   -1.5491 H   0  0  0  0  0  0  0  0  0  0  0  0
    5.1868   -3.0913    2.4631 H   0  0  0  0  0  0  0  0  0  0  0  0
    4.2216   -1.6270    2.7257 H   0  0  0  0  0  0  0  0  0  0  0  0
    5.9789   -1.5008    2.5159 H   0  0  0  0  0  0  0  0  0  0  0  0
    1.7354   -1.1027   -0.5364 H   0  0  0  0  0  0  0  0  0  0  0  0
    0.7112    0.1775    0.1155 H   0  0  0  0  0  0  0  0  0  0  0  0
    4.0223   -2.4763    0.3335 H   0  0  0  0  0  0  0  0  0  0  0  0
    5.7640   -2.2778    0.1325 H   0  0  0  0  0  0  0  0  0  0  0  0
  1  9  1  0  0  0  0
  1  3  1  0  0  0  0
  2 10  1  0  0  0  0
  2 12  1  0  0  0  0
  2 11  1  0  0  0  0
  3 14  1  0  0  0  0
  3  5  1  0  0  0  0
  4  2  1  0  0  0  0
  6  4  1  0  0  0  0
  6  5  1  0  0  0  0
  7  1  1  0  0  0  0
  8  1  1  0  0  0  0
 13  3  1  0  0  0  0
 15  4  1  0  0  0  0
 16  4  1  0  0  0  0
M  END
>  <HBA>
2

>  <HBD>
0

>  <TPSA>
50.6

>  <cid>
8077

>  <dipole>
2.26

>  <excitation_energy_1>
4.574

>  <excitation_energy_2>
4.668

>  <excitation_energy_3>
5.712

>  <excitation_energy_4>
5.817

>  <homo_energy>
-6.37

>  <homo_lumo_gap>
5.864

>  <logP>
2.408

>  <lumo_energy>
-0.506

>  <melting_point>
-7.29

>  <molecular_refractivity>
36.52

>  <oscillator_strength_1>
0.0103

>  <oscillator_strength_2>
0.0023

>  <oscillator_strength_3>
0.0005

>  <oscillator_strength_4>
0.0365

>  <open_babel_can_smiles>
CCSSCC

>  <mulliken_charges>
16
1   -0.437341
2   -0.437479
3   -0.409939
4   -0.409794
5   0.006684
6   0.006653
7   0.148983
8   0.175528
9   0.162448
10   0.148975
11   0.175671
12   0.162453
13   0.17547
14   0.178172
15   0.175306
16   0.178211

>  <lowdin_charges>
16
1   -0.447548
2   -0.44836
3   -0.375347
4   -0.37907
5   0.022554
6   0.023056
7   0.154526
8   0.163461
9   0.15701
10   0.152324
11   0.164451
12   0.159195
13   0.156719
14   0.168572
15   0.159192
16   0.169268

$$$$

