PCCDB-ID:  27266
public computational chemistry database (PCCDB) project, http://pccdb.org

 30 31  0  0  1  0  0  0  0  0999 V2000
    4.8628   -0.2746   -2.9519 C   0  0  0  0  0  0  0  0  0  0  0  0
    3.4881   -0.7240   -2.4516 C   0  0  0  0  0  0  0  0  0  0  0  0
    2.0656    6.4219   -3.9892 C   0  0  0  0  0  0  0  0  0  0  0  0
    2.9256    6.4577   -2.8646 C   0  0  0  0  0  0  0  0  0  0  0  0
    1.5252    5.2279   -4.4129 C   0  0  0  0  0  0  0  0  0  0  0  0
    3.2296    5.2996   -2.1838 C   0  0  0  0  0  0  0  0  0  0  0  0
    1.2817    2.7637   -4.1362 C   0  0  0  0  0  0  0  0  0  0  0  0
    1.5857    1.6082   -3.4581 C   0  0  0  0  0  0  0  0  0  0  0  0
    2.9814    2.8377   -1.9175 C   0  0  0  0  0  0  0  0  0  0  0  0
    1.8198    4.0169   -3.7331 C   0  0  0  0  0  0  0  0  0  0  0  0
    2.6885    4.0530   -2.5958 C   0  0  0  0  0  0  0  0  0  0  0  0
    2.4546    1.6274   -2.3271 C   0  0  0  0  0  0  0  0  0  0  0  0
    2.7759    0.3361   -1.5878 C   0  0  1  0  0  0  0  0  0  0  0  0
    1.5224   -0.2626   -0.9136 C   0  0  0  0  0  0  0  0  0  0  0  0
    1.2904   -1.4436   -0.8388 O   0  0  0  0  0  0  0  0  0  0  0  0
    0.6847    0.6379   -0.3414 O   0  0  0  0  0  0  0  0  0  0  0  0
    5.3365   -1.0679   -3.5403 H   0  0  0  0  0  0  0  0  0  0  0  0
    5.5332   -0.0377   -2.1160 H   0  0  0  0  0  0  0  0  0  0  0  0
    4.7936    0.6166   -3.5853 H   0  0  0  0  0  0  0  0  0  0  0  0
    3.5777   -1.6343   -1.8510 H   0  0  0  0  0  0  0  0  0  0  0  0
    2.8463   -0.9883   -3.3011 H   0  0  0  0  0  0  0  0  0  0  0  0
    1.8335    7.3426   -4.5171 H   0  0  0  0  0  0  0  0  0  0  0  0
    3.3459    7.4056   -2.5402 H   0  0  0  0  0  0  0  0  0  0  0  0
    0.8637    5.1971   -5.2754 H   0  0  0  0  0  0  0  0  0  0  0  0
    3.8901    5.3254   -1.3203 H   0  0  0  0  0  0  0  0  0  0  0  0
    0.6169    2.7324   -4.9962 H   0  0  0  0  0  0  0  0  0  0  0  0
    1.1545    0.6641   -3.7809 H   0  0  0  0  0  0  0  0  0  0  0  0
    3.6535    2.8731   -1.0617 H   0  0  0  0  0  0  0  0  0  0  0  0
    3.4467    0.5951   -0.7533 H   0  0  0  0  0  0  0  0  0  0  0  0
    0.9861    1.5386   -0.5602 H   0  0  0  0  0  0  0  0  0  0  0  0
  1  2  1  0  0  0  0
  1 18  1  0  0  0  0
  2 20  1  0  0  0  0
  2 13  1  0  0  0  0
  3  4  1  0  0  0  0
  4 23  1  0  0  0  0
  4  6  2  0  0  0  0
  5  3  2  0  0  0  0
  5 10  1  0  0  0  0
  6 25  1  0  0  0  0
  7 10  2  0  0  0  0
  7  8  1  0  0  0  0
  8 12  2  0  0  0  0
  9 28  1  0  0  0  0
 10 11  1  0  0  0  0
 11  6  1  0  0  0  0
 11  9  2  0  0  0  0
 12  9  1  0  0  0  0
 12 13  1  0  0  0  0
 13 14  1  0  0  0  0
 13 29  1  1  0  0  0
 14 15  2  0  0  0  0
 14 16  1  0  0  0  0
 17  1  1  0  0  0  0
 19  1  1  0  0  0  0
 21  2  1  0  0  0  0
 22  3  1  0  0  0  0
 24  5  1  0  0  0  0
 26  7  1  0  0  0  0
 27  8  1  0  0  0  0
 30 16  1  0  0  0  0
M  END
>  <HBA>
2

>  <HBD>
1

>  <TPSA>
37.3

>  <cid>
27266

>  <dipole>
4.85

>  <excitation_energy_1>
4.335

>  <excitation_energy_2>
4.389

>  <excitation_energy_3>
5.253

>  <excitation_energy_4>
5.401

>  <homo_energy>
-6.212

>  <homo_lumo_gap>
4.803

>  <logP>
3.418

>  <lumo_energy>
-1.41

>  <melting_point>
127.66

>  <molecular_refractivity>
65.11

>  <oscillator_strength_1>
0.0345

>  <oscillator_strength_2>
0.0144

>  <oscillator_strength_3>
0.1717

>  <oscillator_strength_4>
0.0434

>  <open_babel_can_smiles>
CC[C@@H](c1ccc2c(c1)cccc2)C(=O)O

>  <mulliken_charges>
30
1   -0.453151
2   -0.247213
3   -0.132972
4   -0.135388
5   -0.190239
6   -0.189346
7   -0.190958
8   -0.173622
9   -0.28178
10   0.134589
11   0.148092
12   0.111814
13   -0.287185
14   0.608201
15   -0.448223
16   -0.571922
17   0.15054
18   0.140139
19   0.154118
20   0.16822
21   0.146189
22   0.136357
23   0.136323
24   0.135958
25   0.134096
26   0.139836
27   0.147748
28   0.133814
29   0.164157
30   0.411808

>  <lowdin_charges>
30
1   -0.449622
2   -0.268644
3   -0.154638
4   -0.153584
5   -0.153143
6   -0.15523
7   -0.146267
8   -0.165915
9   -0.177455
10   -0.00118
11   -0.00098
12   -0.026163
13   -0.166111
14   0.186792
15   -0.237735
16   -0.352879
17   0.155974
18   0.146787
19   0.15294
20   0.163152
21   0.14946
22   0.162074
23   0.161754
24   0.160615
25   0.159576
26   0.162598
27   0.165795
28   0.157833
29   0.165443
30   0.358751

$$$$

