PCCDB-ID:  5144
public computational chemistry database (PCCDB) project, http://pccdb.org

 22 23  0  0  0  0  0  0  0  0999 V2000
    1.5544   -0.9282    0.2571 C   0  0  0  0  0  0  0  0  0  0  0  0
    2.4451    0.0041   -0.0836 C   0  0  0  0  0  0  0  0  0  0  0  0
    3.2487    0.8280    0.8904 C   0  0  0  0  0  0  0  0  0  0  0  0
    5.3500   -0.5690    0.6162 C   0  0  0  0  0  0  0  0  0  0  0  0
    6.7391   -0.7328    0.4727 C   0  0  0  0  0  0  0  0  0  0  0  0
    5.5607    1.8519    0.6477 C   0  0  0  0  0  0  0  0  0  0  0  0
    9.1383    1.9433    0.2678 C   0  0  0  0  0  0  0  0  0  0  0  0
    4.7553    0.6946    0.7070 C   0  0  0  0  0  0  0  0  0  0  0  0
    7.5022    0.4168    0.4215 C   0  0  0  0  0  0  0  0  0  0  0  0
    6.9233    1.6785    0.5070 C   0  0  0  0  0  0  0  0  0  0  0  0
    8.8663    0.5375    0.2848 O   0  0  0  0  0  0  0  0  0  0  0  0
    7.8993    2.6447    0.4280 O   0  0  0  0  0  0  0  0  0  0  0  0
    0.9981   -1.4886   -0.4896 H   0  0  0  0  0  0  0  0  0  0  0  0
    1.3411   -1.1614    1.2986 H   0  0  0  0  0  0  0  0  0  0  0  0
    2.6339    0.2052   -1.1388 H   0  0  0  0  0  0  0  0  0  0  0  0
    2.9679    0.5472    1.9152 H   0  0  0  0  0  0  0  0  0  0  0  0
    2.9765    1.8870    0.7784 H   0  0  0  0  0  0  0  0  0  0  0  0
    4.7172   -1.4510    0.6511 H   0  0  0  0  0  0  0  0  0  0  0  0
    7.1936   -1.7153    0.4044 H   0  0  0  0  0  0  0  0  0  0  0  0
    5.1286    2.8457    0.7116 H   0  0  0  0  0  0  0  0  0  0  0  0
    9.5908    2.2166   -0.6938 H   0  0  0  0  0  0  0  0  0  0  0  0
    9.8099    2.1956    1.0972 H   0  0  0  0  0  0  0  0  0  0  0  0
  1 14  1  0  0  0  0
  2  1  2  0  0  0  0
  2  3  1  0  0  0  0
  3 16  1  0  0  0  0
  4 18  1  0  0  0  0
  4  8  2  0  0  0  0
  5  4  1  0  0  0  0
  6  8  1  0  0  0  0
  6 20  1  0  0  0  0
  7 11  1  0  0  0  0
  7 12  1  0  0  0  0
  7 22  1  0  0  0  0
  8  3  1  0  0  0  0
  9  5  2  0  0  0  0
  9 10  1  0  0  0  0
 10  6  2  0  0  0  0
 11  9  1  0  0  0  0
 12 10  1  0  0  0  0
 13  1  1  0  0  0  0
 15  2  1  0  0  0  0
 17  3  1  0  0  0  0
 19  5  1  0  0  0  0
 21  7  1  0  0  0  0
M  END
>  <HBA>
2

>  <HBD>
0

>  <TPSA>
18.46

>  <cid>
5144

>  <dipole>
0.37

>  <excitation_energy_1>
4.643

>  <excitation_energy_2>
5.1

>  <excitation_energy_3>
5.199

>  <excitation_energy_4>
5.253

>  <homo_energy>
-5.448

>  <homo_lumo_gap>
5.483

>  <logP>
2.144

>  <lumo_energy>
0.035

>  <melting_point>
20.68

>  <molecular_refractivity>
46.61

>  <oscillator_strength_1>
0.1195

>  <oscillator_strength_2>
0.0188

>  <oscillator_strength_3>
0.0146

>  <oscillator_strength_4>
0.0262

>  <open_babel_can_smiles>
C=CCc1ccc2c(c1)OCO2

>  <mulliken_charges>
22
1   -0.347939
2   -0.030265
3   -0.389991
4   -0.192968
5   -0.182258
6   -0.251765
7   0.196038
8   0.156496
9   0.328688
10   0.337815
11   -0.533804
12   -0.535718
13   0.140564
14   0.136001
15   0.131861
16   0.155756
17   0.151603
18   0.134075
19   0.14296
20   0.136995
21   0.157246
22   0.158611

>  <lowdin_charges>
22
1   -0.346068
2   -0.139779
3   -0.265441
4   -0.172804
5   -0.181752
6   -0.194399
7   0.019202
8   -0.009371
9   0.069617
10   0.070433
11   -0.211216
12   -0.208049
13   0.160479
14   0.152966
15   0.151983
16   0.156212
17   0.154467
18   0.164008
19   0.168958
20   0.165795
21   0.146143
22   0.148614

$$$$

