PCCDB-ID:  9161
public computational chemistry database (PCCDB) project, http://pccdb.org

 20 22  0  0  0  0  0  0  0  0999 V2000
    2.4729   -1.0140    0.0009 C   0  0  0  0  0  0  0  0  0  0  0  0
   -2.3815   -1.2196   -0.0015 C   0  0  0  0  0  0  0  0  0  0  0  0
    1.3600   -1.8381    0.0005 C   0  0  0  0  0  0  0  0  0  0  0  0
   -1.2029   -1.9467   -0.0005 C   0  0  0  0  0  0  0  0  0  0  0  0
    2.3736    0.4082    0.0001 C   0  0  0  0  0  0  0  0  0  0  0  0
   -2.4027    0.2060   -0.0021 C   0  0  0  0  0  0  0  0  0  0  0  0
    0.5810    2.3575   -0.0015 C   0  0  0  0  0  0  0  0  0  0  0  0
   -0.7815    2.2997   -0.0024 C   0  0  0  0  0  0  0  0  0  0  0  0
    0.0521   -1.2687   -0.0003 C   0  0  0  0  0  0  0  0  0  0  0  0
    1.1194    0.9865   -0.0009 C   0  0  0  0  0  0  0  0  0  0  0  0
   -1.2019    0.8882   -0.0021 C   0  0  0  0  0  0  0  0  0  0  0  0
   -0.0069    0.1271   -0.0013 C   0  0  0  0  0  0  0  0  0  0  0  0
    3.4626   -1.4630    0.0011 H   0  0  0  0  0  0  0  0  0  0  0  0
   -3.3298   -1.7506   -0.0017 H   0  0  0  0  0  0  0  0  0  0  0  0
    1.4831   -2.9185    0.0016 H   0  0  0  0  0  0  0  0  0  0  0  0
   -1.2343   -3.0336   -0.0003 H   0  0  0  0  0  0  0  0  0  0  0  0
    3.2821    1.0059    0.0011 H   0  0  0  0  0  0  0  0  0  0  0  0
   -3.3584    0.7249   -0.0025 H   0  0  0  0  0  0  0  0  0  0  0  0
    1.1799    3.2612   -0.0018 H   0  0  0  0  0  0  0  0  0  0  0  0
   -1.4545    3.1495   -0.0031 H   0  0  0  0  0  0  0  0  0  0  0  0
  1 13  1  0  0  0  0
  2  4  2  0  0  0  0
  3  1  1  0  0  0  0
  3 15  1  0  0  0  0
  4 16  1  0  0  0  0
  4  9  1  0  0  0  0
  5  1  2  0  0  0  0
  5 17  1  0  0  0  0
  6  2  1  0  0  0  0
  7 10  1  0  0  0  0
  8 11  1  0  0  0  0
  8  7  2  0  0  0  0
  9  3  2  0  0  0  0
 10  5  1  0  0  0  0
 11  6  2  0  0  0  0
 11 12  1  0  0  0  0
 12 10  2  0  0  0  0
 12  9  1  0  0  0  0
 14  2  1  0  0  0  0
 18  6  1  0  0  0  0
 19  7  1  0  0  0  0
 20  8  1  0  0  0  0
M  END
>  <HBA>
0

>  <HBD>
0

>  <TPSA>
0.0

>  <cid>
9161

>  <dipole>
0.33

>  <excitation_energy_1>
3.079

>  <excitation_energy_2>
3.86

>  <excitation_energy_3>
4.17

>  <excitation_energy_4>
4.874

>  <homo_energy>
-5.807

>  <homo_lumo_gap>
3.921

>  <logP>
3.324

>  <lumo_energy>
-1.886

>  <melting_point>
110.82

>  <molecular_refractivity>
52.88

>  <oscillator_strength_1>
0.0058

>  <oscillator_strength_2>
0.0998

>  <oscillator_strength_3>
0.0953

>  <oscillator_strength_4>
0.0244

>  <open_babel_can_smiles>
c1cc2cccc3c2c(c1)C=C3

>  <mulliken_charges>
20
1   -0.12764
2   -0.127692
3   -0.206332
4   -0.206381
5   -0.221441
6   -0.221664
7   -0.186356
8   -0.186365
9   0.208522
10   0.143736
11   0.143833
12   -0.070778
13   0.129871
14   0.129855
15   0.1322
16   0.13226
17   0.134539
18   0.134554
19   0.132626
20   0.132652

>  <lowdin_charges>
20
1   -0.159631
2   -0.16022
3   -0.145271
4   -0.145123
5   -0.143108
6   -0.142555
7   -0.168472
8   -0.168838
9   -0.002754
10   -0.004369
11   -0.004543
12   -0.029206
13   0.158541
14   0.159043
15   0.157091
16   0.156973
17   0.160403
18   0.159966
19   0.160893
20   0.161183

$$$$

