PCCDB-ID:  35519
public computational chemistry database (PCCDB) project, http://pccdb.org

 21 21  0  0  1  0  0  0  0  0999 V2000
    0.9476    0.3452    0.1740 C   0  0  0  0  0  0  0  0  0  0  0  0
    3.2896    1.6548   -3.4053 C   0  0  0  0  0  0  0  0  0  0  0  0
    2.4389    0.0938   -0.0835 C   0  0  2  0  0  0  0  0  0  0  0  0
    2.6186    0.6989   -2.4261 C   0  0  2  0  0  0  0  0  0  0  0  0
    2.7117   -1.7000   -1.8247 C   0  0  0  0  0  0  0  0  0  0  0  0
    2.5533   -2.8948   -2.2747 N   0  0  0  0  0  0  0  0  0  0  0  0
    2.9854    1.0308   -1.0555 N   0  0  0  0  0  0  0  0  0  0  0  0
    2.7159   -1.3040   -0.4853 N   0  0  0  0  0  0  0  0  0  0  0  0
    3.0198   -0.6809   -2.7235 N   0  0  0  0  0  0  0  0  0  0  0  0
    0.7943    1.3752    0.5113 H   0  0  0  0  0  0  0  0  0  0  0  0
    0.5774   -0.3330    0.9517 H   0  0  0  0  0  0  0  0  0  0  0  0
    0.3463    0.1774   -0.7253 H   0  0  0  0  0  0  0  0  0  0  0  0
    2.9939    2.6844   -3.1850 H   0  0  0  0  0  0  0  0  0  0  0  0
    3.0012    1.4217   -4.4363 H   0  0  0  0  0  0  0  0  0  0  0  0
    4.3801    1.5713   -3.3329 H   0  0  0  0  0  0  0  0  0  0  0  0
    2.9785    0.2678    0.8551 H   0  0  0  0  0  0  0  0  0  0  0  0
    1.5271    0.8214   -2.5064 H   0  0  0  0  0  0  0  0  0  0  0  0
    2.4208   -3.5601   -1.5103 H   0  0  0  0  0  0  0  0  0  0  0  0
    4.0034    0.9922   -0.9953 H   0  0  0  0  0  0  0  0  0  0  0  0
    2.3173   -2.0035    0.1300 H   0  0  0  0  0  0  0  0  0  0  0  0
    2.8739   -0.9987   -3.6758 H   0  0  0  0  0  0  0  0  0  0  0  0
  1 10  1  0  0  0  0
  1 11  1  0  0  0  0
  2 15  1  0  0  0  0
  2 13  1  0  0  0  0
  2  4  1  0  0  0  0
  3  1  1  0  0  0  0
  3 16  1  1  0  0  0
  4 17  1  6  0  0  0
  4  7  1  0  0  0  0
  5  8  1  0  0  0  0
  6  5  2  0  0  0  0
  6 18  1  0  0  0  0
  7 19  1  0  0  0  0
  7  3  1  0  0  0  0
  8  3  1  0  0  0  0
  8 20  1  0  0  0  0
  9  4  1  0  0  0  0
  9  5  1  0  0  0  0
 12  1  1  0  0  0  0
 14  2  1  0  0  0  0
 21  9  1  0  0  0  0
M  END
>  <HBA>
4

>  <HBD>
3

>  <TPSA>
62.44

>  <cid>
35519

>  <dipole>
2.75

>  <excitation_energy_1>
5.029

>  <excitation_energy_2>
5.597

>  <excitation_energy_3>
5.715

>  <excitation_energy_4>
5.847

>  <homo_energy>
-5.657

>  <homo_lumo_gap>
7.285

>  <logP>
-0.021

>  <lumo_energy>
1.627

>  <melting_point>
123.15

>  <molecular_refractivity>
47.19

>  <oscillator_strength_1>
0.0009

>  <oscillator_strength_2>
0.0122

>  <oscillator_strength_3>
0.0351

>  <oscillator_strength_4>
0.0054

>  <open_babel_can_smiles>
C[C@@H]1N[C@@H](C)NC(=N)N1

>  <mulliken_charges>
21
1   -0.438749
2   -0.457421
3   0.136523
4   0.140652
5   0.612817
6   -0.67134
7   -0.526013
8   -0.60781
9   -0.592437
10   0.162453
11   0.139946
12   0.15748
13   0.163865
14   0.148885
15   0.154454
16   0.143046
17   0.139715
18   0.258557
19   0.305938
20   0.306774
21   0.322664

>  <lowdin_charges>
21
1   -0.460011
2   -0.444338
3   -7.2e-05
4   -0.000518
5   0.122359
6   -0.494829
7   -0.337549
8   -0.336387
9   -0.320015
10   0.161583
11   0.15126
12   0.155702
13   0.16247
14   0.154332
15   0.153886
16   0.146333
17   0.129103
18   0.242956
19   0.258857
20   0.273378
21   0.281497

$$$$

