PCCDB-ID:  9238
public computational chemistry database (PCCDB) project, http://pccdb.org

 26 28  0  0  1  0  0  0  0  0999 V2000
   -0.7754    1.0347    1.2249 C   0  0  0  0  0  0  0  0  0  0  0  0
   -0.9926    0.7589   -1.2694 C   0  0  0  0  0  0  0  0  0  0  0  0
   -1.2592   -1.2355    0.2466 C   0  0  0  0  0  0  0  0  0  0  0  0
    1.2594    1.2354   -0.2462 C   0  0  0  0  0  0  0  0  0  0  0  0
    0.9926   -0.7590    1.2694 C   0  0  0  0  0  0  0  0  0  0  0  0
    0.7754   -1.0342   -1.2252 C   0  0  0  0  0  0  0  0  0  0  0  0
   -1.5172    0.2798    0.1012 C   0  0  1  0  0  0  0  0  0  0  0  0
    0.7399    0.7572    1.1268 C   0  0  2  0  0  0  0  0  0  0  0  0
    0.5223    0.4815   -1.3738 C   0  0  1  0  0  0  0  0  0  0  0  0
    0.2551   -1.5177    0.1455 C   0  0  2  0  0  0  0  0  0  0  0  0
   -1.1543    0.7163    2.2063 H   0  0  0  0  0  0  0  0  0  0  0  0
   -0.9671    2.1139    1.1447 H   0  0  0  0  0  0  0  0  0  0  0  0
   -1.1883    1.8333   -1.3932 H   0  0  0  0  0  0  0  0  0  0  0  0
   -1.5273    0.2427   -2.0791 H   0  0  0  0  0  0  0  0  0  0  0  0
   -1.7982   -1.7863   -0.5370 H   0  0  0  0  0  0  0  0  0  0  0  0
   -1.6459   -1.5931    1.2112 H   0  0  0  0  0  0  0  0  0  0  0  0
    2.3420    1.0612   -0.3212 H   0  0  0  0  0  0  0  0  0  0  0  0
    1.1029    2.3182   -0.3519 H   0  0  0  0  0  0  0  0  0  0  0  0
    0.6448   -1.1090    2.2515 H   0  0  0  0  0  0  0  0  0  0  0  0
    2.0706   -0.9678    1.2207 H   0  0  0  0  0  0  0  0  0  0  0  0
    1.8496   -1.2478   -1.3173 H   0  0  0  0  0  0  0  0  0  0  0  0
    0.2714   -1.5817   -2.0340 H   0  0  0  0  0  0  0  0  0  0  0  0
   -2.5950    0.4785    0.1731 H   0  0  0  0  0  0  0  0  0  0  0  0
    1.2655    1.2951    1.9272 H   0  0  0  0  0  0  0  0  0  0  0  0
    0.8932    0.8232   -2.3494 H   0  0  0  0  0  0  0  0  0  0  0  0
    0.4363   -2.5961    0.2487 H   0  0  0  0  0  0  0  0  0  0  0  0
  1 11  1  0  0  0  0
  2  7  1  0  0  0  0
  3 16  1  0  0  0  0
  4  8  1  0  0  0  0
  5 19  1  0  0  0  0
  6 10  1  0  0  0  0
  7 23  1  1  0  0  0
  7  3  1  0  0  0  0
  7  1  1  0  0  0  0
  8  1  1  0  0  0  0
  8  5  1  0  0  0  0
  8 24  1  1  0  0  0
  9 25  1  6  0  0  0
  9  2  1  0  0  0  0
  9  6  1  0  0  0  0
  9  4  1  0  0  0  0
 10  3  1  0  0  0  0
 10 26  1  1  0  0  0
 10  5  1  0  0  0  0
 12  1  1  0  0  0  0
 13  2  1  0  0  0  0
 14  2  1  0  0  0  0
 15  3  1  0  0  0  0
 17  4  1  0  0  0  0
 18  4  1  0  0  0  0
 20  5  1  0  0  0  0
 21  6  1  0  0  0  0
 22  6  1  0  0  0  0
M  END
>  <HBA>
0

>  <HBD>
0

>  <TPSA>
0.0

>  <cid>
9238

>  <dipole>
0.0

>  <excitation_energy_1>
6.739

>  <excitation_energy_2>
6.741

>  <excitation_energy_3>
6.742

>  <excitation_energy_4>
7.38

>  <homo_energy>
-7.437

>  <homo_lumo_gap>
9.325

>  <logP>
2.833

>  <lumo_energy>
1.888

>  <melting_point>
38.52

>  <molecular_refractivity>
43.84

>  <oscillator_strength_1>
0.006

>  <oscillator_strength_2>
0.006

>  <oscillator_strength_3>
0.006

>  <oscillator_strength_4>
0.0001

>  <open_babel_can_smiles>
C1[C@@H]2C[C@@H]3C[C@H]1C[C@H](C2)C3

>  <mulliken_charges>
26
1   -0.264008
2   -0.264262
3   -0.264323
4   -0.264026
5   -0.264312
6   -0.264175
7   -0.087419
8   -0.087631
9   -0.08776
10   -0.087275
11   0.123475
12   0.123545
13   0.123559
14   0.123581
15   0.123553
16   0.123591
17   0.123567
18   0.123538
19   0.123541
20   0.123547
21   0.123534
22   0.123541
23   0.113128
24   0.11316
25   0.113204
26   0.113121

>  <lowdin_charges>
26
1   -0.279014
2   -0.280794
3   -0.282797
4   -0.277075
5   -0.27909
6   -0.280795
7   -0.12924
8   -0.132616
9   -0.131104
10   -0.129215
11   0.138212
12   0.136736
13   0.136867
14   0.139706
15   0.139862
16   0.138575
17   0.136666
18   0.136641
19   0.138227
20   0.136761
21   0.136871
22   0.139685
23   0.13553
24   0.138677
25   0.137229
26   0.135497

$$$$

