PCCDB-ID:  22446
public computational chemistry database (PCCDB) project, http://pccdb.org

 23 22  0  0  0  0  0  0  0  0999 V2000
    0.6609   -1.2556    2.0101 C   0  0  0  0  0  0  0  0  0  0  0  0
    6.4991   -2.0723    2.7038 C   0  0  0  0  0  0  0  0  0  0  0  0
    2.1921   -1.2869    2.0385 C   0  0  0  0  0  0  0  0  0  0  0  0
    2.8241   -0.0170    1.4546 C   0  0  0  0  0  0  0  0  0  0  0  0
    4.3686   -0.0316    1.4441 C   0  0  0  0  0  0  0  0  0  0  0  0
    4.9590   -0.0214    2.8218 C   0  0  0  0  0  0  0  0  0  0  0  0
    5.8491   -0.8805    3.3348 C   0  0  0  0  0  0  0  0  0  0  0  0
    6.2787   -0.6327    4.7348 N   0  0  0  0  0  0  0  0  0  0  0  0
    7.1083   -1.4177    5.1988 O   0  0  0  0  0  0  0  0  0  0  0  0
    5.8025    0.3177    5.3563 O   0  0  0  0  0  0  0  0  0  0  0  0
    0.2362   -2.1759    2.4259 H   0  0  0  0  0  0  0  0  0  0  0  0
    0.2845   -1.1474    0.9854 H   0  0  0  0  0  0  0  0  0  0  0  0
    0.2708   -0.4146    2.5962 H   0  0  0  0  0  0  0  0  0  0  0  0
    6.1304   -2.2117    1.6857 H   0  0  0  0  0  0  0  0  0  0  0  0
    6.2970   -2.9816    3.2785 H   0  0  0  0  0  0  0  0  0  0  0  0
    7.5869   -1.9549    2.6683 H   0  0  0  0  0  0  0  0  0  0  0  0
    2.5524   -2.1600    1.4756 H   0  0  0  0  0  0  0  0  0  0  0  0
    2.5376   -1.4266    3.0715 H   0  0  0  0  0  0  0  0  0  0  0  0
    2.4743    0.8601    2.0177 H   0  0  0  0  0  0  0  0  0  0  0  0
    2.4753    0.1224    0.4226 H   0  0  0  0  0  0  0  0  0  0  0  0
    4.7188    0.8727    0.9239 H   0  0  0  0  0  0  0  0  0  0  0  0
    4.7262   -0.8854    0.8583 H   0  0  0  0  0  0  0  0  0  0  0  0
    4.6312    0.7803    3.4798 H   0  0  0  0  0  0  0  0  0  0  0  0
  1  3  1  0  0  0  0
  1 11  1  0  0  0  0
  1 13  1  0  0  0  0
  2 15  1  0  0  0  0
  2  7  1  0  0  0  0
  3 18  1  0  0  0  0
  4 19  1  0  0  0  0
  4  3  1  0  0  0  0
  5  4  1  0  0  0  0
  5  6  1  0  0  0  0
  6  7  2  0  0  0  0
  6 23  1  0  0  0  0
  7  8  1  0  0  0  0
  8  9  2  0  0  0  0
  8 10  2  0  0  0  0
 12  1  1  0  0  0  0
 14  2  1  0  0  0  0
 16  2  1  0  0  0  0
 17  3  1  0  0  0  0
 20  4  1  0  0  0  0
 21  5  1  0  0  0  0
 22  5  1  0  0  0  0
M  END
>  <HBA>
0

>  <HBD>
0

>  <TPSA>
45.82

>  <cid>
22446

>  <dipole>
4.62

>  <excitation_energy_1>
3.725

>  <excitation_energy_2>
4.263

>  <excitation_energy_3>
4.724

>  <excitation_energy_4>
6.02

>  <homo_energy>
-7.519

>  <homo_lumo_gap>
5.372

>  <logP>
2.88

>  <lumo_energy>
-2.147

>  <melting_point>
16.74

>  <molecular_refractivity>
43.39

>  <oscillator_strength_1>
0.0

>  <oscillator_strength_2>
0.0006

>  <oscillator_strength_3>
0.219

>  <oscillator_strength_4>
0.0954

>  <open_babel_can_smiles>
CCCC/C=C(/N(=O)=O)\C

>  <mulliken_charges>
23
1   -0.44291
2   -0.510077
3   -0.248414
4   -0.257402
5   -0.317078
6   -0.135713
7   0.271065
8   0.415639
9   -0.391658
10   -0.406806
11   0.148125
12   0.143496
13   0.146358
14   0.158635
15   0.185554
16   0.185383
17   0.131446
18   0.143908
19   0.140529
20   0.139606
21   0.163549
22   0.150621
23   0.186141

>  <lowdin_charges>
23
1   -0.444116
2   -0.441089
3   -0.274772
4   -0.270885
5   -0.274586
6   -0.122276
7   -0.005761
8   0.304164
9   -0.251273
10   -0.259051
11   0.153327
12   0.1465
13   0.149804
14   0.162042
15   0.176349
16   0.174211
17   0.140288
18   0.144433
19   0.144689
20   0.145433
21   0.165294
22   0.151463
23   0.18581

$$$$

