PCCDB-ID:  30976
public computational chemistry database (PCCDB) project, http://pccdb.org

 17 18  0  0  0  0  0  0  0  0999 V2000
    2.2472    0.0432    0.0227 C   0  0  0  0  0  0  0  0  0  0  0  0
    0.2762    0.7514   -0.0168 C   0  0  0  0  0  0  0  0  0  0  0  0
   -0.9155    1.4303   -0.0216 C   0  0  0  0  0  0  0  0  0  0  0  0
    0.2762   -0.6716    0.0292 C   0  0  0  0  0  0  0  0  0  0  0  0
   -2.1441   -0.7414    0.0486 C   0  0  0  0  0  0  0  0  0  0  0  0
   -1.0342    2.7875   -0.1236 N   0  0  0  0  0  0  0  0  0  0  0  0
   -3.2176   -1.4393    0.0533 N   0  0  0  0  0  0  0  0  0  0  0  0
    1.5891    1.1908   -0.0153 N   0  0  0  0  0  0  0  0  0  0  0  0
    1.5117   -1.1366    0.0557 N   0  0  0  0  0  0  0  0  0  0  0  0
   -2.0714    0.6745    0.0300 N   0  0  0  0  0  0  0  0  0  0  0  0
   -0.9082   -1.3654    0.0667 N   0  0  0  0  0  0  0  0  0  0  0  0
    3.3309    0.0033    0.0305 H   0  0  0  0  0  0  0  0  0  0  0  0
   -0.1468    3.2709   -0.0379 H   0  0  0  0  0  0  0  0  0  0  0  0
   -1.8008    3.2398    0.3591 H   0  0  0  0  0  0  0  0  0  0  0  0
   -4.0575   -0.8619    0.0545 H   0  0  0  0  0  0  0  0  0  0  0  0
   -2.9535    1.1438   -0.1236 H   0  0  0  0  0  0  0  0  0  0  0  0
   -0.9221   -2.3771    0.0985 H   0  0  0  0  0  0  0  0  0  0  0  0
  1 12  1  0  0  0  0
  1  9  1  0  0  0  0
  2  8  1  0  0  0  0
  2  4  1  0  0  0  0
  3  2  2  0  0  0  0
  3 10  1  0  0  0  0
  4  9  2  0  0  0  0
  4 11  1  0  0  0  0
  5  7  2  0  0  0  0
  5 11  1  0  0  0  0
  6 13  1  0  0  0  0
  6  3  1  0  0  0  0
  6 14  1  0  0  0  0
  7 15  1  0  0  0  0
  8  1  2  0  0  0  0
 10  5  1  0  0  0  0
 11 17  1  0  0  0  0
 16 10  1  0  0  0  0
M  END
>  <HBA>
5

>  <HBD>
3

>  <TPSA>
106.5

>  <cid>
30976

>  <dipole>
6.28

>  <excitation_energy_1>
3.776

>  <excitation_energy_2>
4.114

>  <excitation_energy_3>
4.619

>  <excitation_energy_4>
4.87

>  <homo_energy>
-5.45

>  <homo_lumo_gap>
4.335

>  <logP>
0.68

>  <lumo_energy>
-1.116

>  <melting_point>
241.76

>  <molecular_refractivity>
40.49

>  <oscillator_strength_1>
0.0678

>  <oscillator_strength_2>
0.0002

>  <oscillator_strength_3>
0.0017

>  <oscillator_strength_4>
0.0843

>  <open_babel_can_smiles>
N=c1[nH]c(N)c2c([nH]1)ncn2

>  <mulliken_charges>
17
1   0.168287
2   0.189176
3   0.540465
4   0.541355
5   0.688592
6   -0.775308
7   -0.651029
8   -0.532439
9   -0.516856
10   -0.744619
11   -0.727014
12   0.136947
13   0.375332
14   0.337398
15   0.274543
16   0.337532
17   0.357637

>  <lowdin_charges>
17
1   -0.05867
2   -0.089065
3   0.138849
4   0.0694
5   0.145542
6   -0.447981
7   -0.467709
8   -0.231794
9   -0.241166
10   -0.24216
11   -0.194644
12   0.154792
13   0.311836
14   0.290562
15   0.254795
16   0.295964
17   0.311449

$$$$

