PCCDB-ID:  28568
public computational chemistry database (PCCDB) project, http://pccdb.org

 28 28  0  0  0  0  0  0  0  0999 V2000
    1.4939   -0.9853   -0.2956 C   0  0  0  0  0  0  0  0  0  0  0  0
    3.8172   -0.6770    0.6865 C   0  0  0  0  0  0  0  0  0  0  0  0
    4.5836    0.2071   -4.5816 C   0  0  0  0  0  0  0  0  0  0  0  0
    3.5879    0.2482   -2.3024 C   0  0  0  0  0  0  0  0  0  0  0  0
    2.8035    2.2202   -1.2042 C   0  0  0  0  0  0  0  0  0  0  0  0
    2.6064    0.0254    0.0432 C   0  0  0  0  0  0  0  0  0  0  0  0
    3.9678    0.9755   -3.4344 C   0  0  0  0  0  0  0  0  0  0  0  0
    3.0089    0.8425   -1.1758 C   0  0  0  0  0  0  0  0  0  0  0  0
    3.1632    2.9668   -2.3243 C   0  0  0  0  0  0  0  0  0  0  0  0
    3.7518    2.3813   -3.4648 C   0  0  0  0  0  0  0  0  0  0  0  0
    4.1548    3.1794   -4.6807 C   0  0  0  0  0  0  0  0  0  0  0  0
    2.9484    4.3312   -2.3189 O   0  0  0  0  0  0  0  0  0  0  0  0
    4.8646    2.7297   -5.5555 O   0  0  0  0  0  0  0  0  0  0  0  0
    3.6813    4.4379   -4.8060 O   0  0  0  0  0  0  0  0  0  0  0  0
    1.1780   -1.5236    0.6057 H   0  0  0  0  0  0  0  0  0  0  0  0
    1.8400   -1.7275   -1.0239 H   0  0  0  0  0  0  0  0  0  0  0  0
    0.6168   -0.4846   -0.7196 H   0  0  0  0  0  0  0  0  0  0  0  0
    3.5115   -1.2093    1.5947 H   0  0  0  0  0  0  0  0  0  0  0  0
    4.5968    0.0429    0.9579 H   0  0  0  0  0  0  0  0  0  0  0  0
    4.2616   -1.4105    0.0043 H   0  0  0  0  0  0  0  0  0  0  0  0
    4.5565   -0.8654   -4.3639 H   0  0  0  0  0  0  0  0  0  0  0  0
    5.6199    0.5089   -4.7541 H   0  0  0  0  0  0  0  0  0  0  0  0
    4.0602    0.3910   -5.5235 H   0  0  0  0  0  0  0  0  0  0  0  0
    3.7549   -0.8253   -2.3078 H   0  0  0  0  0  0  0  0  0  0  0  0
    2.3596    2.7252   -0.3468 H   0  0  0  0  0  0  0  0  0  0  0  0
    2.2005    0.7277    0.7842 H   0  0  0  0  0  0  0  0  0  0  0  0
    2.4507    4.5817   -1.5255 H   0  0  0  0  0  0  0  0  0  0  0  0
    3.1848    4.7027   -4.0083 H   0  0  0  0  0  0  0  0  0  0  0  0
  1  6  1  0  0  0  0
  1 15  1  0  0  0  0
  2 19  1  0  0  0  0
  2 18  1  0  0  0  0
  3 21  1  0  0  0  0
  3  7  1  0  0  0  0
  4  8  2  0  0  0  0
  5  8  1  0  0  0  0
  5 25  1  0  0  0  0
  6  2  1  0  0  0  0
  6 26  1  0  0  0  0
  7  4  1  0  0  0  0
  8  6  1  0  0  0  0
  9 12  1  0  0  0  0
  9  5  2  0  0  0  0
 10  7  2  0  0  0  0
 10  9  1  0  0  0  0
 11 10  1  0  0  0  0
 12 27  1  0  0  0  0
 13 11  2  0  0  0  0
 14 11  1  0  0  0  0
 14 28  1  0  0  0  0
 16  1  1  0  0  0  0
 17  1  1  0  0  0  0
 20  2  1  0  0  0  0
 22  3  1  0  0  0  0
 23  3  1  0  0  0  0
 24  4  1  0  0  0  0
M  END
>  <HBA>
3

>  <HBD>
2

>  <TPSA>
57.53

>  <cid>
28568

>  <dipole>
6.59

>  <excitation_energy_1>
4.64

>  <excitation_energy_2>
4.66

>  <excitation_energy_3>
5.282

>  <excitation_energy_4>
5.322

>  <homo_energy>
-6.528

>  <homo_lumo_gap>
5.44

>  <logP>
2.522

>  <lumo_energy>
-1.088

>  <melting_point>
143.97

>  <molecular_refractivity>
54.97

>  <oscillator_strength_1>
0.0121

>  <oscillator_strength_2>
0.0426

>  <oscillator_strength_3>
0.0227

>  <oscillator_strength_4>
0.1679

>  <open_babel_can_smiles>
CC(c1cc(C)c(c(c1)O)C(=O)O)C

>  <mulliken_charges>
28
1   -0.43989
2   -0.440901
3   -0.49881
4   -0.254321
5   -0.27449
6   -0.167491
7   0.115179
8   0.211256
9   0.325132
10   -0.024534
11   0.566743
12   -0.690299
13   -0.466942
14   -0.598877
15   0.146715
16   0.15043
17   0.150991
18   0.146532
19   0.152731
20   0.150342
21   0.136392
22   0.187779
23   0.178656
24   0.126291
25   0.117829
26   0.129525
27   0.426029
28   0.438004

>  <lowdin_charges>
28
1   -0.442609
2   -0.44318
3   -0.436351
4   -0.191135
5   -0.228697
6   -0.11892
7   0.04591
8   0.0272
9   0.111341
10   -0.100929
11   0.197152
12   -0.389442
13   -0.255829
14   -0.367413
15   0.152082
16   0.152192
17   0.154285
18   0.15196
19   0.155366
20   0.152303
21   0.144782
22   0.176666
23   0.173249
24   0.155014
25   0.153663
26   0.143001
27   0.369064
28   0.359274

$$$$

