PCCDB-ID:  23426
public computational chemistry database (PCCDB) project, http://pccdb.org

 22 21  0  0  0  0  0  0  0  0999 V2000
    1.0675    2.0201   -0.2670 C   0  0  0  0  0  0  0  0  0  0  0  0
    4.7413   -3.1414    1.8155 C   0  0  0  0  0  0  0  0  0  0  0  0
    4.2910    1.4417    3.3431 C   0  0  0  0  0  0  0  0  0  0  0  0
    2.3469    1.2087   -0.1764 C   0  0  0  0  0  0  0  0  0  0  0  0
    4.5327   -1.8509    1.0442 C   0  0  0  0  0  0  0  0  0  0  0  0
    2.7843    1.2236    1.2020 O   0  0  0  0  0  0  0  0  0  0  0  0
    4.1880   -0.8169    1.9952 O   0  0  0  0  0  0  0  0  0  0  0  0
    4.2831    0.7749    1.6574 P   0  0  0  0  0  0  0  0  0  0  0  0
    5.7272    1.2977    0.4510 S   0  0  0  0  0  0  0  0  0  0  0  0
    0.6975    2.0160   -1.2984 H   0  0  0  0  0  0  0  0  0  0  0  0
    1.2470    3.0574    0.0326 H   0  0  0  0  0  0  0  0  0  0  0  0
    0.2913    1.6011    0.3812 H   0  0  0  0  0  0  0  0  0  0  0  0
    4.9832   -3.9537    1.1210 H   0  0  0  0  0  0  0  0  0  0  0  0
    3.8386   -3.4169    2.3699 H   0  0  0  0  0  0  0  0  0  0  0  0
    5.5667   -3.0365    2.5267 H   0  0  0  0  0  0  0  0  0  0  0  0
    3.4285    1.0567    3.8943 H   0  0  0  0  0  0  0  0  0  0  0  0
    4.2427    2.5320    3.2979 H   0  0  0  0  0  0  0  0  0  0  0  0
    5.2133    1.1379    3.8432 H   0  0  0  0  0  0  0  0  0  0  0  0
    3.1375    1.6288   -0.8065 H   0  0  0  0  0  0  0  0  0  0  0  0
    2.1766    0.1684   -0.4806 H   0  0  0  0  0  0  0  0  0  0  0  0
    3.7128   -1.9513    0.3221 H   0  0  0  0  0  0  0  0  0  0  0  0
    5.4362   -1.5522    0.5033 H   0  0  0  0  0  0  0  0  0  0  0  0
  1  4  1  0  0  0  0
  1 11  1  0  0  0  0
  1 12  1  0  0  0  0
  2 14  1  0  0  0  0
  2 15  1  0  0  0  0
  3 18  1  0  0  0  0
  3 16  1  0  0  0  0
  4  6  1  0  0  0  0
  5  2  1  0  0  0  0
  5  7  1  0  0  0  0
  6  8  1  0  0  0  0
  8  7  1  0  0  0  0
  8  3  1  0  0  0  0
  9  8  1  0  0  0  0
 10  1  1  0  0  0  0
 13  2  1  0  0  0  0
 17  3  1  0  0  0  0
 19  4  1  0  0  0  0
 20  4  1  0  0  0  0
 21  5  1  0  0  0  0
 22  5  1  0  0  0  0
M  RAD  1   9   2
M  END
>  <HBA>
3

>  <HBD>
0

>  <TPSA>
60.36

>  <cid>
23426

>  <dipole>
3.12

>  <excitation_energy_1>
5.652

>  <excitation_energy_2>
5.658

>  <excitation_energy_3>
6.093

>  <excitation_energy_4>
6.126

>  <homo_energy>
-6.308

>  <homo_lumo_gap>
7.625

>  <logP>
2.649

>  <lumo_energy>
1.317

>  <melting_point>
-29.73

>  <molecular_refractivity>
43.89

>  <oscillator_strength_1>
0.0402

>  <oscillator_strength_2>
0.0557

>  <oscillator_strength_3>
0.0002

>  <oscillator_strength_4>
0.0011

>  <open_babel_can_smiles>
CCOP(OCC)([S])C

>  <mulliken_charges>
22
1   -0.454966
2   -0.454682
3   -0.627063
4   -0.039342
5   -0.039678
6   -0.516518
7   -0.518624
8   0.865457
9   -0.425345
10   0.151238
11   0.166164
12   0.161648
13   0.151308
14   0.161514
15   0.165628
16   0.200747
17   0.200177
18   0.199677
19   0.181107
20   0.14486
21   0.144635
22   0.182059

>  <lowdin_charges>
22
1   -0.446263
2   -0.449428
3   -0.610521
4   -0.118735
5   -0.120717
6   -0.408338
7   -0.410463
8   0.854502
9   -0.434903
10   0.15811
11   0.160132
12   0.159615
13   0.159809
14   0.158953
15   0.161455
16   0.192555
17   0.1905
18   0.19214
19   0.164273
20   0.140773
21   0.142447
22   0.164105

$$$$

