PCCDB-ID:  69975
public computational chemistry database (PCCDB) project, http://pccdb.org

 13 13  0  0  0  0  0  0  0  0999 V2000
   -1.3784   -0.0697   -0.0202 C   0  0  0  0  0  0  0  0  0  0  0  0
   -0.7023   -1.3110    0.0497 C   0  0  0  0  0  0  0  0  0  0  0  0
   -0.6914    1.1218   -0.0709 C   0  0  0  0  0  0  0  0  0  0  0  0
    0.6724   -1.3077    0.0659 C   0  0  0  0  0  0  0  0  0  0  0  0
    0.7399    1.1546   -0.0565 C   0  0  0  0  0  0  0  0  0  0  0  0
    1.3233   -0.1289    0.0160 N   0  0  0  0  0  0  0  0  0  0  0  0
    1.5232    2.1180   -0.0975 O   0  0  0  0  0  0  0  0  0  0  0  0
    2.7015   -0.1210    0.0313 O   0  0  0  0  0  0  0  0  0  0  0  0
   -2.4649   -0.0580   -0.0339 H   0  0  0  0  0  0  0  0  0  0  0  0
   -1.2375   -2.2515    0.0897 H   0  0  0  0  0  0  0  0  0  0  0  0
   -1.1982    2.0784   -0.1258 H   0  0  0  0  0  0  0  0  0  0  0  0
    1.3010   -2.1883    0.1181 H   0  0  0  0  0  0  0  0  0  0  0  0
    2.8514    0.8654   -0.0188 H   0  0  0  0  0  0  0  0  0  0  0  0
  1  2  1  0  0  0  0
  2  4  2  0  0  0  0
  2 10  1  0  0  0  0
  3  5  1  0  0  0  0
  3  1  2  0  0  0  0
  4 12  1  0  0  0  0
  5  6  1  0  0  0  0
  6  8  1  0  0  0  0
  6  4  1  0  0  0  0
  7  5  2  0  0  0  0
  9  1  1  0  0  0  0
 11  3  1  0  0  0  0
 13  8  1  0  0  0  0
M  END
>  <HBA>
3

>  <HBD>
1

>  <TPSA>
42.23

>  <cid>
69975

>  <dipole>
3.45

>  <excitation_energy_1>
4.308

>  <excitation_energy_2>
5.2

>  <excitation_energy_3>
5.518

>  <excitation_energy_4>
5.555

>  <homo_energy>
-6.027

>  <homo_lumo_gap>
4.825

>  <logP>
0.086

>  <lumo_energy>
-1.203

>  <melting_point>
95.49

>  <molecular_refractivity>
28.24

>  <oscillator_strength_1>
0.0915

>  <oscillator_strength_2>
0.0

>  <oscillator_strength_3>
0.0038

>  <oscillator_strength_4>
0.034

>  <open_babel_can_smiles>
O=c1ccccn1O

>  <mulliken_charges>
13
1   -0.084389
2   -0.212651
3   -0.226891
4   0.117312
5   0.617206
6   -0.203699
7   -0.587948
8   -0.51401
9   0.151533
10   0.151756
11   0.159782
12   0.192011
13   0.439989

>  <lowdin_charges>
13
1   -0.116541
2   -0.210401
3   -0.205016
4   -0.078636
5   0.135654
6   0.106373
7   -0.352069
8   -0.355662
9   0.166997
10   0.173865
11   0.179511
12   0.188412
13   0.367514

$$$$

