PCCDB-ID:  29449
public computational chemistry database (PCCDB) project, http://pccdb.org

 34 36  0  0  1  0  0  0  0  0999 V2000
    4.0195    1.1523   -2.4444 C   0  0  0  0  0  0  0  0  0  0  0  0
    0.1542    5.4345   -1.0747 C   0  0  0  0  0  0  0  0  0  0  0  0
   -0.8775    0.9820   -3.6236 C   0  0  0  0  0  0  0  0  0  0  0  0
   -1.5287    2.2264   -3.7473 C   0  0  0  0  0  0  0  0  0  0  0  0
    4.7032    0.3689    0.5137 C   0  0  0  0  0  0  0  0  0  0  0  0
    0.1852    0.8111   -2.7443 C   0  0  0  0  0  0  0  0  0  0  0  0
   -1.1294    3.3277   -2.9973 C   0  0  0  0  0  0  0  0  0  0  0  0
    3.6091    1.4642    0.6053 C   0  0  0  0  0  0  0  0  0  0  0  0
    4.2486   -0.5182   -0.6867 C   0  0  0  0  0  0  0  0  0  0  0  0
    1.5589    3.3958   -0.5789 C   0  0  0  0  0  0  0  0  0  0  0  0
    0.6052    1.9032   -1.9664 C   0  0  0  0  0  0  0  0  0  0  0  0
    1.6412    2.0845   -0.9769 C   0  0  0  0  0  0  0  0  0  0  0  0
   -0.0604    3.1509   -2.1108 C   0  0  0  0  0  0  0  0  0  0  0  0
    2.5566    1.0215   -0.4494 C   0  0  1  0  0  0  0  0  0  0  0  0
    3.3193    0.2861   -1.4927 N   0  0  0  0  0  0  0  0  0  0  0  0
    0.5415    4.0516   -1.2519 N   0  0  0  0  0  0  0  0  0  0  0  0
    4.5527    0.5202   -3.1625 H   0  0  0  0  0  0  0  0  0  0  0  0
    4.7544    1.8419   -1.9900 H   0  0  0  0  0  0  0  0  0  0  0  0
    3.2917    1.7516   -2.9961 H   0  0  0  0  0  0  0  0  0  0  0  0
    0.8415    5.9096   -0.3711 H   0  0  0  0  0  0  0  0  0  0  0  0
   -0.8645    5.5153   -0.6752 H   0  0  0  0  0  0  0  0  0  0  0  0
    0.1996    5.9791   -2.0254 H   0  0  0  0  0  0  0  0  0  0  0  0
   -1.2133    0.1450   -4.2301 H   0  0  0  0  0  0  0  0  0  0  0  0
   -2.3564    2.3290   -4.4441 H   0  0  0  0  0  0  0  0  0  0  0  0
    4.7830   -0.2185    1.4343 H   0  0  0  0  0  0  0  0  0  0  0  0
    5.6880    0.8111    0.3308 H   0  0  0  0  0  0  0  0  0  0  0  0
    0.7032   -0.1399   -2.6635 H   0  0  0  0  0  0  0  0  0  0  0  0
   -1.6318    4.2858   -3.0984 H   0  0  0  0  0  0  0  0  0  0  0  0
    4.0207    2.4465    0.3475 H   0  0  0  0  0  0  0  0  0  0  0  0
    3.1705    1.5473    1.6050 H   0  0  0  0  0  0  0  0  0  0  0  0
    3.7086   -1.3978   -0.3127 H   0  0  0  0  0  0  0  0  0  0  0  0
    5.0780   -0.8780   -1.3025 H   0  0  0  0  0  0  0  0  0  0  0  0
    2.1406    3.9322    0.1585 H   0  0  0  0  0  0  0  0  0  0  0  0
    1.9324    0.2489    0.0284 H   0  0  0  0  0  0  0  0  0  0  0  0
  1 18  1  0  0  0  0
  1 15  1  0  0  0  0
  2 21  1  0  0  0  0
  2 20  1  0  0  0  0
  3  6  1  0  0  0  0
  4  3  2  0  0  0  0
  4  7  1  0  0  0  0
  5  8  1  0  0  0  0
  5 25  1  0  0  0  0
  6 27  1  0  0  0  0
  6 11  2  0  0  0  0
  7 13  2  0  0  0  0
  8 30  1  0  0  0  0
  9 31  1  0  0  0  0
  9  5  1  0  0  0  0
 10 33  1  0  0  0  0
 11 12  1  0  0  0  0
 12 10  2  0  0  0  0
 12 14  1  0  0  0  0
 13 11  1  0  0  0  0
 13 16  1  0  0  0  0
 14 34  1  1  0  0  0
 14  8  1  0  0  0  0
 15  9  1  0  0  0  0
 15 14  1  0  0  0  0
 16  2  1  0  0  0  0
 16 10  1  0  0  0  0
 17  1  1  0  0  0  0
 19  1  1  0  0  0  0
 22  2  1  0  0  0  0
 23  3  1  0  0  0  0
 24  4  1  0  0  0  0
 26  5  1  0  0  0  0
 28  7  1  0  0  0  0
 29  8  1  0  0  0  0
 32  9  1  0  0  0  0
M  END
>  <HBA>
2

>  <HBD>
0

>  <TPSA>
8.17

>  <cid>
29449

>  <dipole>
2.89

>  <excitation_energy_1>
4.466

>  <excitation_energy_2>
4.625

>  <excitation_energy_3>
4.725

>  <excitation_energy_4>
4.797

>  <homo_energy>
-5.206

>  <homo_lumo_gap>
5.203

>  <logP>
2.883

>  <lumo_energy>
-0.003

>  <melting_point>
78.21

>  <molecular_refractivity>
72.09

>  <oscillator_strength_1>
0.0848

>  <oscillator_strength_2>
0.0011

>  <oscillator_strength_3>
0.0104

>  <oscillator_strength_4>
0.0239

>  <open_babel_can_smiles>
CN1CCC[C@H]1c1cn(c2c1cccc2)C

>  <mulliken_charges>
34
1   -0.30916
2   -0.32066
3   -0.141799
4   -0.149928
5   -0.293316
6   -0.207657
7   -0.170576
8   -0.286368
9   -0.133306
10   -0.017642
11   0.070398
12   0.04179
13   0.301703
14   -0.041172
15   -0.380866
16   -0.507753
17   0.144578
18   0.115108
19   0.168007
20   0.167319
21   0.170092
22   0.170396
23   0.118269
24   0.119303
25   0.136551
26   0.139922
27   0.144148
28   0.119843
29   0.135421
30   0.137887
31   0.139991
32   0.136568
33   0.144718
34   0.13819

>  <lowdin_charges>
34
1   -0.368062
2   -0.34477
3   -0.1788
4   -0.164272
5   -0.302473
6   -0.159306
7   -0.193558
8   -0.297889
9   -0.212345
10   -0.142452
11   -0.03085
12   -0.070363
13   0.023033
14   -0.060625
15   -0.191995
16   -0.028425
17   0.149627
18   0.12061
19   0.162328
20   0.166664
21   0.156527
22   0.158677
23   0.154302
24   0.154025
25   0.147012
26   0.145022
27   0.166051
28   0.154673
29   0.141605
30   0.147437
31   0.141839
32   0.147202
33   0.163134
34   0.146418

$$$$

