PCCDB-ID:  28603
public computational chemistry database (PCCDB) project, http://pccdb.org

 25 25  0  0  0  0  0  0  0  0999 V2000
    4.3804   -5.5480   -1.3089 C   0  0  0  0  0  0  0  0  0  0  0  0
    3.7748   -4.1565   -1.4754 C   0  0  0  0  0  0  0  0  0  0  0  0
    8.4321    0.1032   -3.9002 C   0  0  0  0  0  0  0  0  0  0  0  0
    8.6451   -2.2811   -3.4657 C   0  0  0  0  0  0  0  0  0  0  0  0
    7.1142    0.0522   -3.4743 C   0  0  0  0  0  0  0  0  0  0  0  0
    7.3199   -2.3383   -3.0386 C   0  0  0  0  0  0  0  0  0  0  0  0
    9.1872   -1.0712   -3.8899 C   0  0  0  0  0  0  0  0  0  0  0  0
    6.5592   -1.1633   -3.0461 C   0  0  0  0  0  0  0  0  0  0  0  0
    4.4396   -2.0168   -2.1780 C   0  0  0  0  0  0  0  0  0  0  0  0
    4.7661   -3.2293   -2.0167 N   0  0  0  0  0  0  0  0  0  0  0  0
   10.5823   -1.0276   -4.3377 N   0  0  0  0  0  0  0  0  0  0  0  0
    3.2536   -1.4143   -1.9200 O   0  0  0  0  0  0  0  0  0  0  0  0
   11.0304    0.0579   -4.7106 O   0  0  0  0  0  0  0  0  0  0  0  0
   11.2262   -2.0775   -4.3155 O   0  0  0  0  0  0  0  0  0  0  0  0
    5.2408   -1.0385   -2.6618 O   0  0  0  0  0  0  0  0  0  0  0  0
    3.6387   -6.2491   -0.9111 H   0  0  0  0  0  0  0  0  0  0  0  0
    5.2311   -5.5148   -0.6208 H   0  0  0  0  0  0  0  0  0  0  0  0
    4.7355   -5.9274   -2.2723 H   0  0  0  0  0  0  0  0  0  0  0  0
    3.4043   -3.8072   -0.4957 H   0  0  0  0  0  0  0  0  0  0  0  0
    2.8994   -4.2229   -2.1444 H   0  0  0  0  0  0  0  0  0  0  0  0
    8.8831    1.0287   -4.2354 H   0  0  0  0  0  0  0  0  0  0  0  0
    9.2629   -3.1707   -3.4718 H   0  0  0  0  0  0  0  0  0  0  0  0
    6.4933    0.9414   -3.4637 H   0  0  0  0  0  0  0  0  0  0  0  0
    6.8774   -3.2650   -2.7071 H   0  0  0  0  0  0  0  0  0  0  0  0
    2.6363   -2.0833   -1.5838 H   0  0  0  0  0  0  0  0  0  0  0  0
  1 16  1  0  0  0  0
  1 17  1  0  0  0  0
  2  1  1  0  0  0  0
  2 19  1  0  0  0  0
  3  7  2  0  0  0  0
  3  5  1  0  0  0  0
  4  6  2  0  0  0  0
  5 23  1  0  0  0  0
  5  8  2  0  0  0  0
  6 24  1  0  0  0  0
  7  4  1  0  0  0  0
  8  6  1  0  0  0  0
  8 15  1  0  0  0  0
  9 10  2  0  0  0  0
  9 12  1  0  0  0  0
 10  2  1  0  0  0  0
 11 14  2  0  0  0  0
 11  7  1  0  0  0  0
 12 25  1  0  0  0  0
 13 11  2  0  0  0  0
 15  9  1  0  0  0  0
 18  1  1  0  0  0  0
 20  2  1  0  0  0  0
 21  3  1  0  0  0  0
 22  4  1  0  0  0  0
M  END
>  <HBA>
3

>  <HBD>
1

>  <TPSA>
84.15

>  <cid>
28603

>  <dipole>
6.96

>  <excitation_energy_1>
3.753

>  <excitation_energy_2>
4.12

>  <excitation_energy_3>
4.278

>  <excitation_energy_4>
4.36

>  <homo_energy>
-6.925

>  <homo_lumo_gap>
4.672

>  <logP>
2.617

>  <lumo_energy>
-2.253

>  <melting_point>
105.79

>  <molecular_refractivity>
54.76

>  <oscillator_strength_1>
0.0

>  <oscillator_strength_2>
0.305

>  <oscillator_strength_3>
0.0003

>  <oscillator_strength_4>
0.0252

>  <open_babel_can_smiles>
CC/N=C(/Oc1ccc(cc1)N(=O)=O)\O

>  <mulliken_charges>
25
1   -0.440166
2   -0.174472
3   -0.152192
4   -0.167279
5   -0.189511
6   -0.160527
7   0.281987
8   0.358041
9   0.697786
10   -0.449538
11   0.374953
12   -0.586341
13   -0.399315
14   -0.399909
15   -0.50984
16   0.144525
17   0.161224
18   0.161424
19   0.138703
20   0.14168
21   0.185047
22   0.185183
23   0.163331
24   0.203062
25   0.432143

>  <lowdin_charges>
25
1   -0.444162
2   -0.204458
3   -0.13282
4   -0.129727
5   -0.167129
6   -0.184856
7   -0.009178
8   0.130353
9   0.197806
10   -0.255269
11   0.309819
12   -0.351894
13   -0.252312
14   -0.252061
15   -0.121966
16   0.15363
17   0.158626
18   0.158347
19   0.133831
20   0.136105
21   0.189885
22   0.189313
23   0.179109
24   0.197558
25   0.371452

$$$$

