PCCDB-ID:  8026
public computational chemistry database (PCCDB) project, http://pccdb.org

 10  9  0  0  0  0  0  0  0  0999 V2000
    0.6755    0.5160   -0.7107 C   0  0  0  0  0  0  0  0  0  0  0  0
    1.9912    0.1258   -0.0615 C   0  0  0  0  0  0  0  0  0  0  0  0
    2.8632   -0.8998    1.8610 N   0  0  0  0  0  0  0  0  0  0  0  0
    2.6126   -1.4172    2.8955 O   0  0  0  0  0  0  0  0  0  0  0  0
    1.6744   -0.5046    1.2007 O   0  0  0  0  0  0  0  0  0  0  0  0
    0.8663    1.0023   -1.6736 H   0  0  0  0  0  0  0  0  0  0  0  0
    0.1194    1.2122   -0.0753 H   0  0  0  0  0  0  0  0  0  0  0  0
    0.0512   -0.3657   -0.8856 H   0  0  0  0  0  0  0  0  0  0  0  0
    2.6229    1.0021    0.1231 H   0  0  0  0  0  0  0  0  0  0  0  0
    2.5522   -0.5799   -0.6846 H   0  0  0  0  0  0  0  0  0  0  0  0
  1  7  1  0  0  0  0
  1  2  1  0  0  0  0
  2  9  1  0  0  0  0
  2  5  1  0  0  0  0
  3  4  1  0  0  0  0
  5  3  1  0  0  0  0
  6  1  1  0  0  0  0
  8  1  1  0  0  0  0
 10  2  1  0  0  0  0
M  RAD  2   3   2   4   2
M  END
>  <HBA>
1

>  <HBD>
0

>  <TPSA>
38.66

>  <cid>
8026

>  <dipole>
2.73

>  <excitation_energy_1>
3.297

>  <excitation_energy_2>
5.486

>  <excitation_energy_3>
6.384

>  <excitation_energy_4>
7.194

>  <homo_energy>
-7.266

>  <homo_lumo_gap>
5.203

>  <logP>
0.704

>  <lumo_energy>
-2.063

>  <melting_point>
-11.46

>  <molecular_refractivity>
17.55

>  <oscillator_strength_1>
0.0014

>  <oscillator_strength_2>
0.0575

>  <oscillator_strength_3>
0.0003

>  <oscillator_strength_4>
0.0157

>  <open_babel_can_smiles>
CCO[N][O]

>  <mulliken_charges>
10
1   -0.461481
2   -0.025521
3   0.285459
4   -0.241688
5   -0.362213
6   0.155958
7   0.168929
8   0.168825
9   0.155848
10   0.155883

>  <lowdin_charges>
10
1   -0.449547
2   -0.138676
3   0.131247
4   -0.126782
5   -0.200926
6   0.160896
7   0.16386
8   0.162942
9   0.147844
10   0.149143

$$$$

