PCCDB-ID:  7203
public computational chemistry database (PCCDB) project, http://pccdb.org

 21 21  0  0  0  0  0  0  0  0999 V2000
    0.8622    0.3572   -1.7429 C   0  0  0  0  0  0  0  0  0  0  0  0
    2.2803    0.9013   -1.7167 C   0  0  0  0  0  0  0  0  0  0  0  0
    7.2874    0.3449   -2.2448 C   0  0  0  0  0  0  0  0  0  0  0  0
    6.5037    1.4466   -1.9178 C   0  0  0  0  0  0  0  0  0  0  0  0
    6.6873   -0.8912   -2.5007 C   0  0  0  0  0  0  0  0  0  0  0  0
    5.1109    1.3123   -1.8426 C   0  0  0  0  0  0  0  0  0  0  0  0
    5.2998   -1.0459   -2.4348 C   0  0  0  0  0  0  0  0  0  0  0  0
    4.5123    0.0809   -2.0968 C   0  0  0  0  0  0  0  0  0  0  0  0
    4.6655   -2.2526   -2.7436 N   0  0  0  0  0  0  0  0  0  0  0  0
    3.1613   -0.1708   -2.0377 O   0  0  0  0  0  0  0  0  0  0  0  0
    0.1487    1.1518   -1.4996 H   0  0  0  0  0  0  0  0  0  0  0  0
    0.7440   -0.4495   -1.0122 H   0  0  0  0  0  0  0  0  0  0  0  0
    0.6186   -0.0369   -2.7346 H   0  0  0  0  0  0  0  0  0  0  0  0
    2.5277    1.3039   -0.7235 H   0  0  0  0  0  0  0  0  0  0  0  0
    2.4018    1.7130   -2.4482 H   0  0  0  0  0  0  0  0  0  0  0  0
    8.3683    0.4373   -2.3040 H   0  0  0  0  0  0  0  0  0  0  0  0
    6.9602    2.4117   -1.7184 H   0  0  0  0  0  0  0  0  0  0  0  0
    7.2979   -1.7518   -2.7656 H   0  0  0  0  0  0  0  0  0  0  0  0
    4.5030    2.1708   -1.5795 H   0  0  0  0  0  0  0  0  0  0  0  0
    5.2171   -3.0782   -2.5461 H   0  0  0  0  0  0  0  0  0  0  0  0
    3.7275   -2.3201   -2.3683 H   0  0  0  0  0  0  0  0  0  0  0  0
  1  2  1  0  0  0  0
  1 11  1  0  0  0  0
  1 12  1  0  0  0  0
  2 14  1  0  0  0  0
  3  4  2  0  0  0  0
  4  6  1  0  0  0  0
  4 17  1  0  0  0  0
  5  7  2  0  0  0  0
  5  3  1  0  0  0  0
  6 19  1  0  0  0  0
  7  8  1  0  0  0  0
  8 10  1  0  0  0  0
  8  6  2  0  0  0  0
  9 20  1  0  0  0  0
  9  7  1  0  0  0  0
  9 21  1  0  0  0  0
 10  2  1  0  0  0  0
 13  1  1  0  0  0  0
 15  2  1  0  0  0  0
 16  3  1  0  0  0  0
 18  5  1  0  0  0  0
M  END
>  <HBA>
2

>  <HBD>
1

>  <TPSA>
35.25

>  <cid>
7203

>  <dipole>
1.82

>  <excitation_energy_1>
4.613

>  <excitation_energy_2>
4.759

>  <excitation_energy_3>
4.97

>  <excitation_energy_4>
5.117

>  <homo_energy>
-5.018

>  <homo_lumo_gap>
5.548

>  <logP>
2.249

>  <lumo_energy>
0.531

>  <melting_point>
57.92

>  <molecular_refractivity>
42.15

>  <oscillator_strength_1>
0.0271

>  <oscillator_strength_2>
0.0434

>  <oscillator_strength_3>
0.0005

>  <oscillator_strength_4>
0.0025

>  <open_babel_can_smiles>
CCOc1ccccc1N

>  <mulliken_charges>
21
1   -0.459383
2   -0.022938
3   -0.136795
4   -0.148058
5   -0.182654
6   -0.202706
7   0.253703
8   0.353841
9   -0.789607
10   -0.54649
11   0.149503
12   0.15852
13   0.164139
14   0.139572
15   0.142585
16   0.119262
17   0.118717
18   0.113781
19   0.127723
20   0.314827
21   0.332459

>  <lowdin_charges>
21
1   -0.449462
2   -0.122388
3   -0.164138
4   -0.179872
5   -0.198337
6   -0.208086
7   0.036239
8   0.070299
9   -0.490688
10   -0.219355
11   0.158473
12   0.157698
13   0.159523
14   0.136719
15   0.139988
16   0.152326
17   0.153826
18   0.152915
19   0.160634
20   0.273865
21   0.27982

$$$$

