PCCDB-ID:  48820
public computational chemistry database (PCCDB) project, http://pccdb.org

 24 24  0  0  0  0  0  0  0  0999 V2000
    1.5683   -1.6150    0.7968 C   0  0  0  0  0  0  0  0  0  0  0  0
    2.6351    0.5221   -0.0545 C   0  0  0  0  0  0  0  0  0  0  0  0
    6.5304   -3.3071   -4.1704 C   0  0  0  0  0  0  0  0  0  0  0  0
    5.8175   -1.1985   -3.1874 C   0  0  0  0  0  0  0  0  0  0  0  0
    4.7233   -3.2519   -2.5327 C   0  0  0  0  0  0  0  0  0  0  0  0
    7.6370   -1.2202   -4.8338 C   0  0  0  0  0  0  0  0  0  0  0  0
    5.4171   -5.3902   -3.5062 C   0  0  0  0  0  0  0  0  0  0  0  0
    6.6517   -1.9164   -4.0558 C   0  0  0  0  0  0  0  0  0  0  0  0
    5.5591   -3.9650   -3.4011 C   0  0  0  0  0  0  0  0  0  0  0  0
    4.8496   -1.8577   -2.4190 C   0  0  0  0  0  0  0  0  0  0  0  0
    8.4347   -0.6549   -5.4633 N   0  0  0  0  0  0  0  0  0  0  0  0
    5.2985   -6.5442   -3.5879 N   0  0  0  0  0  0  0  0  0  0  0  0
    4.0691   -1.0304   -1.5833 N   0  0  0  0  0  0  0  0  0  0  0  0
    3.2322   -1.6810   -0.8738 N   0  0  0  0  0  0  0  0  0  0  0  0
    2.4759   -0.9252   -0.1025 N   0  0  0  0  0  0  0  0  0  0  0  0
    0.5481   -1.2322    0.6797 H   0  0  0  0  0  0  0  0  0  0  0  0
    1.8740   -1.4885    1.8435 H   0  0  0  0  0  0  0  0  0  0  0  0
    1.5881   -2.6754    0.5432 H   0  0  0  0  0  0  0  0  0  0  0  0
    1.8927    0.9258    0.6357 H   0  0  0  0  0  0  0  0  0  0  0  0
    2.4931    0.9497   -1.0519 H   0  0  0  0  0  0  0  0  0  0  0  0
    3.6442    0.7872    0.2811 H   0  0  0  0  0  0  0  0  0  0  0  0
    7.1727   -3.8645   -4.8421 H   0  0  0  0  0  0  0  0  0  0  0  0
    5.9093   -0.1217   -3.0984 H   0  0  0  0  0  0  0  0  0  0  0  0
    3.9760   -3.7719   -1.9463 H   0  0  0  0  0  0  0  0  0  0  0  0
  1 17  1  0  0  0  0
  2 21  1  0  0  0  0
  2 19  1  0  0  0  0
  3  8  2  0  0  0  0
  3  9  1  0  0  0  0
  4 23  1  0  0  0  0
  4 10  2  0  0  0  0
  5 10  1  0  0  0  0
  5 24  1  0  0  0  0
  6  8  1  0  0  0  0
  7  9  1  0  0  0  0
  8  4  1  0  0  0  0
  9  5  2  0  0  0  0
 10 13  1  0  0  0  0
 11  6  3  0  0  0  0
 12  7  3  0  0  0  0
 13 14  1  0  0  0  0
 14 15  1  0  0  0  0
 15  2  1  0  0  0  0
 15  1  1  0  0  0  0
 16  1  1  0  0  0  0
 18  1  1  0  0  0  0
 20  2  1  0  0  0  0
 22  3  1  0  0  0  0
M  RAD  2  13   2  14   2
M  END
>  <HBA>
5

>  <HBD>
0

>  <TPSA>
75.54

>  <cid>
48820

>  <dipole>
8.48

>  <excitation_energy_1>
3.824

>  <excitation_energy_2>
3.905

>  <excitation_energy_3>
4.26

>  <excitation_energy_4>
4.563

>  <homo_energy>
-6.425

>  <homo_lumo_gap>
4.384

>  <logP>
1.99

>  <lumo_energy>
-2.041

>  <melting_point>
105.67

>  <molecular_refractivity>
53.95

>  <oscillator_strength_1>
0.0939

>  <oscillator_strength_2>
0.001

>  <oscillator_strength_3>
0.4859

>  <oscillator_strength_4>
0.0011

>  <open_babel_can_smiles>
CN([N][N]c1cc(C#N)cc(c1)C#N)C

>  <mulliken_charges>
24
1   -0.308269
2   -0.308522
3   -0.15524
4   -0.164601
5   -0.150366
6   0.240682
7   0.242817
8   0.139815
9   0.129504
10   0.307779
11   -0.473797
12   -0.474661
13   -0.410467
14   -0.040987
15   -0.180783
16   0.171995
17   0.172069
18   0.19456
19   0.165542
20   0.191652
21   0.186604
22   0.180196
23   0.168509
24   0.175969

>  <lowdin_charges>
24
1   -0.347798
2   -0.363655
3   -0.1273
4   -0.127912
5   -0.13897
6   -0.009819
7   -0.012441
8   -0.014229
9   -0.010526
10   0.036032
11   -0.107832
12   -0.108835
13   -0.184667
14   -0.024209
15   -0.017409
16   0.15931
17   0.156772
18   0.177183
19   0.166144
20   0.173999
21   0.170045
22   0.188445
23   0.181747
24   0.185926

$$$$

