PCCDB-ID:  19296
public computational chemistry database (PCCDB) project, http://pccdb.org

 22 22  0  0  0  0  0  0  0  0999 V2000
    1.0359    0.5400   -0.6786 C   0  0  0  0  0  0  0  0  0  0  0  0
    5.3681   -1.3012   -0.2016 C   0  0  0  0  0  0  0  0  0  0  0  0
    3.4584    0.1616   -0.4908 C   0  0  0  0  0  0  0  0  0  0  0  0
    5.0147    0.6287    1.2626 C   0  0  0  0  0  0  0  0  0  0  0  0
    4.7691   -2.6978   -0.4438 C   0  0  0  0  0  0  0  0  0  0  0  0
    2.2350    1.3678    1.3054 C   0  0  0  0  0  0  0  0  0  0  0  0
    2.2396    0.6573    0.1489 N   0  0  0  0  0  0  0  0  0  0  0  0
    4.4002   -0.4175    0.4617 N   0  0  0  0  0  0  0  0  0  0  0  0
    5.2290   -3.4732   -1.2431 O   0  0  0  0  0  0  0  0  0  0  0  0
    3.7119   -2.9795    0.3380 O   0  0  0  0  0  0  0  0  0  0  0  0
    0.9145    2.1117    2.0036 S   0  0  0  0  0  0  0  0  0  0  0  0
    3.7317    1.5164    2.2540 S   0  0  0  0  0  0  0  0  0  0  0  0
    0.8942   -0.5085   -0.9612 H   0  0  0  0  0  0  0  0  0  0  0  0
    1.1328    1.1485   -1.5868 H   0  0  0  0  0  0  0  0  0  0  0  0
    0.1777    0.8882   -0.1077 H   0  0  0  0  0  0  0  0  0  0  0  0
    5.7484   -0.9130   -1.1571 H   0  0  0  0  0  0  0  0  0  0  0  0
    6.2315   -1.4302    0.4605 H   0  0  0  0  0  0  0  0  0  0  0  0
    3.9329    0.9718   -1.0772 H   0  0  0  0  0  0  0  0  0  0  0  0
    3.1537   -0.6193   -1.1910 H   0  0  0  0  0  0  0  0  0  0  0  0
    5.5686    1.3550    0.6472 H   0  0  0  0  0  0  0  0  0  0  0  0
    5.7023    0.1843    1.9871 H   0  0  0  0  0  0  0  0  0  0  0  0
    3.5515   -2.1778    0.8872 H   0  0  0  0  0  0  0  0  0  0  0  0
  1 15  1  0  0  0  0
  1  7  1  0  0  0  0
  2 17  1  0  0  0  0
  2  8  1  0  0  0  0
  3  7  1  0  0  0  0
  3  8  1  0  0  0  0
  4 21  1  0  0  0  0
  4 12  1  0  0  0  0
  5  2  1  0  0  0  0
  5 10  1  0  0  0  0
  6 11  2  0  0  0  0
  6 12  1  0  0  0  0
  7  6  1  0  0  0  0
  8  4  1  0  0  0  0
  9  5  2  0  0  0  0
 10 22  1  0  0  0  0
 13  1  1  0  0  0  0
 14  1  1  0  0  0  0
 16  2  1  0  0  0  0
 18  3  1  0  0  0  0
 19  3  1  0  0  0  0
 20  4  1  0  0  0  0
M  END
>  <HBA>
6

>  <HBD>
1

>  <TPSA>
101.17

>  <cid>
19296

>  <dipole>
3.84

>  <excitation_energy_1>
3.475

>  <excitation_energy_2>
4.535

>  <excitation_energy_3>
4.916

>  <excitation_energy_4>
5.03

>  <homo_energy>
-6.052

>  <homo_lumo_gap>
4.838

>  <logP>
0.127

>  <lumo_energy>
-1.214

>  <melting_point>
117.78

>  <molecular_refractivity>
59.62

>  <oscillator_strength_1>
0.0003

>  <oscillator_strength_2>
0.1162

>  <oscillator_strength_3>
0.0432

>  <oscillator_strength_4>
0.0091

>  <open_babel_can_smiles>
OC(=O)CN1CSC(=S)N(C1)C

>  <mulliken_charges>
22
1   -0.331627
2   -0.246405
3   -0.000585
4   -0.313151
5   0.590966
6   -0.03573
7   -0.344634
8   -0.443851
9   -0.441789
10   -0.565314
11   -0.201176
12   0.234692
13   0.174385
14   0.171047
15   0.224837
16   0.180495
17   0.196219
18   0.162776
19   0.183208
20   0.175942
21   0.19881
22   0.430883

>  <lowdin_charges>
22
1   -0.354613
2   -0.245015
3   -0.131598
4   -0.319206
5   0.176697
6   -0.158581
7   -0.082026
8   -0.189748
9   -0.238528
10   -0.349711
11   -0.183653
12   0.210754
13   0.161306
14   0.159147
15   0.19731
16   0.164329
17   0.18234
18   0.141908
19   0.170463
20   0.150192
21   0.178498
22   0.359735

$$$$

