PCCDB-ID:  14351
public computational chemistry database (PCCDB) project, http://pccdb.org

 28 30  0  0  0  0  0  0  0  0999 V2000
    3.5638    0.5088    0.0838 C   0  0  0  0  0  0  0  0  0  0  0  0
   -3.5496    0.6332   -0.0796 C   0  0  0  0  0  0  0  0  0  0  0  0
    2.8508    1.6174    0.5416 C   0  0  0  0  0  0  0  0  0  0  0  0
   -2.7984    1.7240   -0.5188 C   0  0  0  0  0  0  0  0  0  0  0  0
    2.8744   -0.5982   -0.4083 C   0  0  0  0  0  0  0  0  0  0  0  0
   -2.8990   -0.5049    0.3940 C   0  0  0  0  0  0  0  0  0  0  0  0
    1.4585    1.6049    0.5057 C   0  0  0  0  0  0  0  0  0  0  0  0
   -1.4075    1.6627   -0.4834 C   0  0  0  0  0  0  0  0  0  0  0  0
    0.7703   -1.8293   -1.0357 C   0  0  0  0  0  0  0  0  0  0  0  0
   -0.8392   -1.8182    1.0014 C   0  0  0  0  0  0  0  0  0  0  0  0
    1.4754   -0.6224   -0.4565 C   0  0  0  0  0  0  0  0  0  0  0  0
   -1.5017   -0.5783    0.4418 C   0  0  0  0  0  0  0  0  0  0  0  0
   -0.0480   -2.6359   -0.0235 C   0  0  0  0  0  0  0  0  0  0  0  0
    0.7493    0.4952    0.0162 C   0  0  0  0  0  0  0  0  0  0  0  0
   -0.7372    0.5212   -0.0124 C   0  0  0  0  0  0  0  0  0  0  0  0
   -0.0684   -3.8480   -0.0330 O   0  0  0  0  0  0  0  0  0  0  0  0
    4.6501    0.5043    0.1094 H   0  0  0  0  0  0  0  0  0  0  0  0
   -4.6353    0.6667   -0.1052 H   0  0  0  0  0  0  0  0  0  0  0  0
    3.3751    2.4849    0.9329 H   0  0  0  0  0  0  0  0  0  0  0  0
   -3.2922    2.6155   -0.8956 H   0  0  0  0  0  0  0  0  0  0  0  0
    3.4283   -1.4593   -0.7745 H   0  0  0  0  0  0  0  0  0  0  0  0
   -3.4826   -1.3523    0.7459 H   0  0  0  0  0  0  0  0  0  0  0  0
    0.9017    2.4578    0.8842 H   0  0  0  0  0  0  0  0  0  0  0  0
   -0.8214    2.5019   -0.8478 H   0  0  0  0  0  0  0  0  0  0  0  0
    1.4754   -2.5150   -1.5120 H   0  0  0  0  0  0  0  0  0  0  0  0
    0.0548   -1.5058   -1.8076 H   0  0  0  0  0  0  0  0  0  0  0  0
   -1.5682   -2.4869    1.4659 H   0  0  0  0  0  0  0  0  0  0  0  0
   -0.1140   -1.5324    1.7790 H   0  0  0  0  0  0  0  0  0  0  0  0
  1 17  1  0  0  0  0
  1  3  2  0  0  0  0
  2  6  2  0  0  0  0
  3 19  1  0  0  0  0
  4  8  2  0  0  0  0
  4  2  1  0  0  0  0
  5  1  1  0  0  0  0
  6 12  1  0  0  0  0
  6 22  1  0  0  0  0
  7  3  1  0  0  0  0
  7 23  1  0  0  0  0
  8 15  1  0  0  0  0
  9 11  1  0  0  0  0
  9 13  1  0  0  0  0
 10 27  1  0  0  0  0
 10 28  1  0  0  0  0
 11  5  2  0  0  0  0
 11 14  1  0  0  0  0
 12 10  1  0  0  0  0
 13 10  1  0  0  0  0
 14  7  2  0  0  0  0
 15 14  1  0  0  0  0
 15 12  2  0  0  0  0
 16 13  2  0  0  0  0
 18  2  1  0  0  0  0
 20  4  1  0  0  0  0
 21  5  1  0  0  0  0
 24  8  1  0  0  0  0
 25  9  1  0  0  0  0
 26  9  1  0  0  0  0
M  END
>  <HBA>
1

>  <HBD>
0

>  <TPSA>
17.07

>  <cid>
14351

>  <dipole>
2.73

>  <excitation_energy_1>
4.201

>  <excitation_energy_2>
4.702

>  <excitation_energy_3>
4.725

>  <excitation_energy_4>
4.952

>  <homo_energy>
-6.272

>  <homo_lumo_gap>
5.298

>  <logP>
3.021

>  <lumo_energy>
-0.974

>  <melting_point>
93.57

>  <molecular_refractivity>
64.7

>  <oscillator_strength_1>
0.015

>  <oscillator_strength_2>
0.1758

>  <oscillator_strength_3>
0.011

>  <oscillator_strength_4>
0.0138

>  <open_babel_can_smiles>
O=C1Cc2ccccc2c2c(C1)cccc2

>  <mulliken_charges>
28
1   -0.121532
2   -0.121548
3   -0.13567
4   -0.135723
5   -0.193002
6   -0.192993
7   -0.17114
8   -0.17104
9   -0.451205
10   -0.451319
11   0.12297
12   0.123008
13   0.481211
14   0.029896
15   0.029899
16   -0.436594
17   0.133051
18   0.133059
19   0.132711
20   0.132718
21   0.133548
22   0.133519
23   0.135997
24   0.135961
25   0.173099
26   0.188978
27   0.17312
28   0.189021

>  <lowdin_charges>
28
1   -0.151466
2   -0.151475
3   -0.15848
4   -0.15826
5   -0.163167
6   -0.163309
7   -0.158316
8   -0.158456
9   -0.307752
10   -0.307703
11   -0.010477
12   -0.01041
13   0.165928
14   -0.016114
15   -0.016117
16   -0.225165
17   0.158012
18   0.158024
19   0.160417
20   0.16023
21   0.159902
22   0.15998
23   0.162017
24   0.162097
25   0.172474
26   0.182596
27   0.172461
28   0.182531

$$$$

