PCCDB-ID:  66520
public computational chemistry database (PCCDB) project, http://pccdb.org

 18 18  0  0  0  0  0  0  0  0999 V2000
   -0.7315    1.2069    0.0290 C   0  0  0  0  0  0  0  0  0  0  0  0
   -0.6886   -1.2091   -0.0356 C   0  0  0  0  0  0  0  0  0  0  0  0
   -1.4048   -0.0159   -0.0218 C   0  0  0  0  0  0  0  0  0  0  0  0
    0.6618    1.2078    0.0623 C   0  0  0  0  0  0  0  0  0  0  0  0
    0.7088   -1.1903   -0.0099 C   0  0  0  0  0  0  0  0  0  0  0  0
    1.4369    0.0300    0.0364 C   0  0  0  0  0  0  0  0  0  0  0  0
    2.9434    0.0133    0.0263 C   0  0  0  0  0  0  0  0  0  0  0  0
   -2.7621   -0.1030   -0.0549 O   0  0  0  0  0  0  0  0  0  0  0  0
    1.3306    2.4104    0.1133 O   0  0  0  0  0  0  0  0  0  0  0  0
    1.3945   -2.3551   -0.0026 O   0  0  0  0  0  0  0  0  0  0  0  0
    3.5935   -0.9349   -0.3445 O   0  0  0  0  0  0  0  0  0  0  0  0
    3.5812    1.1218    0.4792 O   0  0  0  0  0  0  0  0  0  0  0  0
   -1.2823    2.1458    0.0365 H   0  0  0  0  0  0  0  0  0  0  0  0
   -1.2314   -2.1494   -0.0665 H   0  0  0  0  0  0  0  0  0  0  0  0
   -3.1442    0.7884   -0.0443 H   0  0  0  0  0  0  0  0  0  0  0  0
    0.6962    3.1373    0.2074 H   0  0  0  0  0  0  0  0  0  0  0  0
    0.7571   -3.0871   -0.0086 H   0  0  0  0  0  0  0  0  0  0  0  0
    2.9438    1.8373    0.6566 H   0  0  0  0  0  0  0  0  0  0  0  0
  1 13  1  0  0  0  0
  1  4  2  0  0  0  0
  2  3  2  0  0  0  0
  2  5  1  0  0  0  0
  3  1  1  0  0  0  0
  4  9  1  0  0  0  0
  5 10  1  0  0  0  0
  5  6  2  0  0  0  0
  6  4  1  0  0  0  0
  7  6  1  0  0  0  0
  7 12  1  0  0  0  0
  8 15  1  0  0  0  0
  8  3  1  0  0  0  0
  9 16  1  0  0  0  0
 11  7  2  0  0  0  0
 12 18  1  0  0  0  0
 14  2  1  0  0  0  0
 17 10  1  0  0  0  0
M  END
>  <HBA>
5

>  <HBD>
4

>  <TPSA>
97.99

>  <cid>
66520

>  <dipole>
7.93

>  <excitation_energy_1>
4.714

>  <excitation_energy_2>
4.759

>  <excitation_energy_3>
5.143

>  <excitation_energy_4>
5.244

>  <homo_energy>
-6.425

>  <homo_lumo_gap>
5.668

>  <logP>
0.502

>  <lumo_energy>
-0.756

>  <melting_point>
217.57

>  <molecular_refractivity>
39.47

>  <oscillator_strength_1>
0.0049

>  <oscillator_strength_2>
0.0172

>  <oscillator_strength_3>
0.0028

>  <oscillator_strength_4>
0.0016

>  <open_babel_can_smiles>
Oc1cc(O)c(c(c1)O)C(=O)O

>  <mulliken_charges>
18
1   -0.279307
2   -0.249634
3   0.373979
4   0.317922
5   0.321215
6   -0.036857
7   0.573588
8   -0.637442
9   -0.679958
10   -0.595565
11   -0.442246
12   -0.599982
13   0.11357
14   0.136997
15   0.414031
16   0.425708
17   0.413167
18   0.430813

>  <lowdin_charges>
18
1   -0.290548
2   -0.262066
3   0.134097
4   0.125521
5   0.14449
6   -0.13435
7   0.197979
8   -0.362046
9   -0.380216
10   -0.329209
11   -0.241025
12   -0.373558
13   0.153644
14   0.168879
15   0.361214
16   0.369348
17   0.361521
18   0.356325

$$$$

