PCCDB-ID:  41515
public computational chemistry database (PCCDB) project, http://pccdb.org

 29 30  0  0  1  0  0  0  0  0999 V2000
    0.8380    0.0505   -0.1829 C   0  0  0  0  0  0  0  0  0  0  0  0
    7.0741    0.3575    1.6561 C   0  0  0  0  0  0  0  0  0  0  0  0
    4.5722   -3.6109    0.5010 C   0  0  0  0  0  0  0  0  0  0  0  0
    3.0358    1.3179   -0.1771 C   0  0  0  0  0  0  0  0  0  0  0  0
    7.3295   -1.0304   -0.4661 C   0  0  0  0  0  0  0  0  0  0  0  0
    6.6022   -2.2930   -0.0821 C   0  0  0  0  0  0  0  0  0  0  0  0
    4.4312    1.3459   -0.1112 C   0  0  0  0  0  0  0  0  0  0  0  0
    3.0959   -1.0730    0.0157 C   0  0  0  0  0  0  0  0  0  0  0  0
    2.3471    0.1045   -0.1110 C   0  0  0  0  0  0  0  0  0  0  0  0
    6.6872    0.2180    0.1685 C   0  0  1  0  0  0  0  0  0  0  0  0
    5.2804   -2.3205    0.1682 C   0  0  0  0  0  0  0  0  0  0  0  0
    5.1751    0.1750    0.0140 C   0  0  0  0  0  0  0  0  0  0  0  0
    4.4965   -1.0663    0.0717 C   0  0  0  0  0  0  0  0  0  0  0  0
    0.4040    1.0551   -0.2132 H   0  0  0  0  0  0  0  0  0  0  0  0
    0.4126   -0.4713    0.6833 H   0  0  0  0  0  0  0  0  0  0  0  0
    0.4972   -0.4849   -1.0784 H   0  0  0  0  0  0  0  0  0  0  0  0
    8.1621    0.4476    1.7657 H   0  0  0  0  0  0  0  0  0  0  0  0
    6.7444   -0.5147    2.2307 H   0  0  0  0  0  0  0  0  0  0  0  0
    6.6117    1.2468    2.0977 H   0  0  0  0  0  0  0  0  0  0  0  0
    5.2884   -4.4320    0.6016 H   0  0  0  0  0  0  0  0  0  0  0  0
    3.8523   -3.8928   -0.2790 H   0  0  0  0  0  0  0  0  0  0  0  0
    4.0091   -3.5328    1.4398 H   0  0  0  0  0  0  0  0  0  0  0  0
    2.4816    2.2481   -0.2796 H   0  0  0  0  0  0  0  0  0  0  0  0
    7.3273   -0.9319   -1.5642 H   0  0  0  0  0  0  0  0  0  0  0  0
    8.3845   -1.0934   -0.1704 H   0  0  0  0  0  0  0  0  0  0  0  0
    7.1715   -3.2206   -0.0506 H   0  0  0  0  0  0  0  0  0  0  0  0
    4.9501    2.3017   -0.1560 H   0  0  0  0  0  0  0  0  0  0  0  0
    2.5653   -2.0205    0.0620 H   0  0  0  0  0  0  0  0  0  0  0  0
    7.0633    1.1054   -0.3572 H   0  0  0  0  0  0  0  0  0  0  0  0
  1  9  1  0  0  0  0
  1 15  1  0  0  0  0
  2 17  1  0  0  0  0
  2 19  1  0  0  0  0
  2 18  1  0  0  0  0
  3 20  1  0  0  0  0
  3 22  1  0  0  0  0
  4  7  2  0  0  0  0
  4  9  1  0  0  0  0
  5 25  1  0  0  0  0
  5  6  1  0  0  0  0
  5 10  1  0  0  0  0
  6 26  1  0  0  0  0
  6 11  2  0  0  0  0
  7 12  1  0  0  0  0
  8 28  1  0  0  0  0
  8 13  1  0  0  0  0
  9  8  2  0  0  0  0
 10 29  1  6  0  0  0
 10  2  1  0  0  0  0
 11  3  1  0  0  0  0
 12 13  2  0  0  0  0
 12 10  1  0  0  0  0
 13 11  1  0  0  0  0
 14  1  1  0  0  0  0
 16  1  1  0  0  0  0
 21  3  1  0  0  0  0
 23  4  1  0  0  0  0
 24  5  1  0  0  0  0
 27  7  1  0  0  0  0
M  END
>  <HBA>
0

>  <HBD>
0

>  <TPSA>
0.0

>  <cid>
41515

>  <dipole>
0.16

>  <excitation_energy_1>
4.494

>  <excitation_energy_2>
4.67

>  <excitation_energy_3>
5.189

>  <excitation_energy_4>
5.404

>  <homo_energy>
-5.551

>  <homo_lumo_gap>
5.075

>  <logP>
3.905

>  <lumo_energy>
-0.476

>  <melting_point>
49.62

>  <molecular_refractivity>
58.77

>  <oscillator_strength_1>
0.1269

>  <oscillator_strength_2>
0.0434

>  <oscillator_strength_3>
0.0096

>  <oscillator_strength_4>
0.2431

>  <open_babel_can_smiles>
Cc1ccc2c(c1)C(=CC[C@@H]2C)C

>  <mulliken_charges>
29
1   -0.530424
2   -0.437734
3   -0.529848
4   -0.183753
5   -0.297591
6   -0.206598
7   -0.196899
8   -0.257946
9   0.185666
10   -0.166398
11   0.165768
12   0.114877
13   0.08218
14   0.152795
15   0.158991
16   0.16067
17   0.136705
18   0.154548
19   0.145666
20   0.152248
21   0.157232
22   0.157095
23   0.117301
24   0.150245
25   0.135701
26   0.118002
27   0.118582
28   0.116504
29   0.126417

>  <lowdin_charges>
29
1   -0.443167
2   -0.442522
3   -0.441909
4   -0.171258
5   -0.270415
6   -0.180938
7   -0.16693
8   -0.17571
9   -0.001752
10   -0.120214
11   -0.014999
12   -0.006948
13   -0.012036
14   0.154997
15   0.159443
16   0.159795
17   0.143398
18   0.155021
19   0.151758
20   0.157409
21   0.156887
22   0.156544
23   0.152954
24   0.150954
25   0.147446
26   0.150729
27   0.152571
28   0.154233
29   0.14466

$$$$

