PCCDB-ID:  70825
public computational chemistry database (PCCDB) project, http://pccdb.org

 37 37  0  0  0  0  0  0  0  0999 V2000
    3.4076    0.8247   -1.0095 C   0  0  0  0  0  0  0  0  0  0  0  0
    2.5102    0.8017    1.3501 C   0  0  0  0  0  0  0  0  0  0  0  0
    1.0401    0.1625   -0.5659 C   0  0  0  0  0  0  0  0  0  0  0  0
    6.5640   -4.6018    1.4983 C   0  0  0  0  0  0  0  0  0  0  0  0
    7.1955   -2.4570    0.3818 C   0  0  0  0  0  0  0  0  0  0  0  0
    6.3169   -2.4521    2.7482 C   0  0  0  0  0  0  0  0  0  0  0  0
    4.2556   -1.6188    0.6383 C   0  0  0  0  0  0  0  0  0  0  0  0
    2.1561   -2.4703   -0.1574 C   0  0  0  0  0  0  0  0  0  0  0  0
    3.9264   -3.9963    0.5047 C   0  0  0  0  0  0  0  0  0  0  0  0
    2.9649   -1.3695    0.1528 C   0  0  0  0  0  0  0  0  0  0  0  0
    4.7566   -2.9179    0.8219 C   0  0  0  0  0  0  0  0  0  0  0  0
    2.6372   -3.7689    0.0192 C   0  0  0  0  0  0  0  0  0  0  0  0
    2.4782    0.0830   -0.0196 C   0  0  0  0  0  0  0  0  0  0  0  0
    6.1890   -3.1144    1.3557 C   0  0  0  0  0  0  0  0  0  0  0  0
    1.8787   -4.8737   -0.2710 O   0  0  0  0  0  0  0  0  0  0  0  0
    3.0727    1.8605   -1.1453 H   0  0  0  0  0  0  0  0  0  0  0  0
    3.4058    0.3352   -1.9901 H   0  0  0  0  0  0  0  0  0  0  0  0
    4.4426    0.8530   -0.6537 H   0  0  0  0  0  0  0  0  0  0  0  0
    2.1685    1.8392    1.2462 H   0  0  0  0  0  0  0  0  0  0  0  0
    3.5190    0.8235    1.7745 H   0  0  0  0  0  0  0  0  0  0  0  0
    1.8560    0.2988    2.0714 H   0  0  0  0  0  0  0  0  0  0  0  0
    0.7431    1.2120   -0.6716 H   0  0  0  0  0  0  0  0  0  0  0  0
    0.3203   -0.3169    0.1076 H   0  0  0  0  0  0  0  0  0  0  0  0
    0.9520   -0.3060   -1.5529 H   0  0  0  0  0  0  0  0  0  0  0  0
    7.5867   -4.6899    1.8821 H   0  0  0  0  0  0  0  0  0  0  0  0
    6.5258   -5.1262    0.5369 H   0  0  0  0  0  0  0  0  0  0  0  0
    5.9020   -5.1237    2.1985 H   0  0  0  0  0  0  0  0  0  0  0  0
    8.2213   -2.5846    0.7495 H   0  0  0  0  0  0  0  0  0  0  0  0
    7.0127   -1.3835    0.2690 H   0  0  0  0  0  0  0  0  0  0  0  0
    7.1319   -2.9125   -0.6130 H   0  0  0  0  0  0  0  0  0  0  0  0
    7.3332   -2.5819    3.1403 H   0  0  0  0  0  0  0  0  0  0  0  0
    5.6171   -2.9023    3.4615 H   0  0  0  0  0  0  0  0  0  0  0  0
    6.1094   -1.3777    2.7101 H   0  0  0  0  0  0  0  0  0  0  0  0
    4.8930   -0.7752    0.8825 H   0  0  0  0  0  0  0  0  0  0  0  0
    1.1484   -2.3320   -0.5390 H   0  0  0  0  0  0  0  0  0  0  0  0
    4.2461   -5.0242    0.6233 H   0  0  0  0  0  0  0  0  0  0  0  0
    1.0137   -4.5798   -0.5964 H   0  0  0  0  0  0  0  0  0  0  0  0
  1 18  1  0  0  0  0
  1 13  1  0  0  0  0
  2 20  1  0  0  0  0
  2 21  1  0  0  0  0
  3 13  1  0  0  0  0
  3 23  1  0  0  0  0
  4 25  1  0  0  0  0
  4 27  1  0  0  0  0
  5 28  1  0  0  0  0
  5 14  1  0  0  0  0
  6 31  1  0  0  0  0
  6 32  1  0  0  0  0
  7 11  1  0  0  0  0
  7 34  1  0  0  0  0
  8 12  2  0  0  0  0
  8 10  1  0  0  0  0
  9 36  1  0  0  0  0
  9 11  2  0  0  0  0
 10  7  2  0  0  0  0
 11 14  1  0  0  0  0
 12  9  1  0  0  0  0
 13 10  1  0  0  0  0
 13  2  1  0  0  0  0
 14  4  1  0  0  0  0
 14  6  1  0  0  0  0
 15 12  1  0  0  0  0
 16  1  1  0  0  0  0
 17  1  1  0  0  0  0
 19  2  1  0  0  0  0
 22  3  1  0  0  0  0
 24  3  1  0  0  0  0
 26  4  1  0  0  0  0
 29  5  1  0  0  0  0
 30  5  1  0  0  0  0
 33  6  1  0  0  0  0
 35  8  1  0  0  0  0
 37 15  1  0  0  0  0
M  END
>  <HBA>
1

>  <HBD>
1

>  <TPSA>
20.23

>  <cid>
70825

>  <dipole>
1.35

>  <excitation_energy_1>
4.981

>  <excitation_energy_2>
4.991

>  <excitation_energy_3>
5.463

>  <excitation_energy_4>
5.65

>  <homo_energy>
-5.695

>  <homo_lumo_gap>
5.94

>  <logP>
3.987

>  <lumo_energy>
0.245

>  <melting_point>
62.87

>  <molecular_refractivity>
67.0

>  <oscillator_strength_1>
0.0007

>  <oscillator_strength_2>
0.0411

>  <oscillator_strength_3>
0.0039

>  <oscillator_strength_4>
0.012

>  <open_babel_can_smiles>
Oc1cc(cc(c1)C(C)(C)C)C(C)(C)C

>  <mulliken_charges>
37
1   -0.437393
2   -0.437381
3   -0.456223
4   -0.455484
5   -0.437883
6   -0.43817
7   -0.264258
8   -0.277923
9   -0.243355
10   0.182753
11   0.180612
12   0.370872
13   0.016349
14   0.016394
15   -0.649009
16   0.136543
17   0.146762
18   0.143541
19   0.136537
20   0.143691
21   0.146759
22   0.141676
23   0.143296
24   0.143364
25   0.139041
26   0.146854
27   0.146861
28   0.136619
29   0.141535
30   0.147381
31   0.136659
32   0.147372
33   0.141467
34   0.116827
35   0.109404
36   0.133252
37   0.404658

>  <lowdin_charges>
37
1   -0.435853
2   -0.438218
3   -0.444394
4   -0.444706
5   -0.435465
6   -0.437713
7   -0.199689
8   -0.232937
9   -0.206429
10   0.011169
11   0.012815
12   0.102122
13   0.01806
14   0.017908
15   -0.382655
16   0.144695
17   0.150931
18   0.147732
19   0.144627
20   0.148317
21   0.152637
22   0.149594
23   0.149429
24   0.147748
25   0.148506
26   0.150168
27   0.151641
28   0.144853
29   0.146059
30   0.151035
31   0.145155
32   0.152827
33   0.145943
34   0.150984
35   0.151503
36   0.166538
37   0.355063

$$$$

