PCCDB-ID:  40858
public computational chemistry database (PCCDB) project, http://pccdb.org

 20 22  0  0  1  0  0  0  0  0999 V2000
   -2.7356   -1.0736    0.2741 C   0  0  0  0  0  0  0  0  0  0  0  0
   -2.9346    0.2887    0.5152 C   0  0  0  0  0  0  0  0  0  0  0  0
   -1.4912   -1.5383   -0.1725 C   0  0  0  0  0  0  0  0  0  0  0  0
   -1.9081    1.2192    0.3137 C   0  0  0  0  0  0  0  0  0  0  0  0
    1.9023   -1.3854    0.2383 C   0  0  0  0  0  0  0  0  0  0  0  0
    2.7329   -0.4323    0.6569 C   0  0  0  0  0  0  0  0  0  0  0  0
   -0.4648   -0.6244   -0.3741 C   0  0  0  0  0  0  0  0  0  0  0  0
    0.9768   -0.7950   -0.8075 C   0  0  1  0  0  0  0  0  0  0  0  0
   -0.6860    0.7313   -0.1297 C   0  0  0  0  0  0  0  0  0  0  0  0
    1.4761    0.6883   -0.8502 C   0  0  2  0  0  0  0  0  0  0  0  0
    2.5898    0.7875    0.0353 O   0  0  0  0  0  0  0  0  0  0  0  0
    0.4060    1.5209   -0.3955 O   0  0  0  0  0  0  0  0  0  0  0  0
   -3.5481   -1.7761    0.4351 H   0  0  0  0  0  0  0  0  0  0  0  0
   -3.9036    0.6373    0.8621 H   0  0  0  0  0  0  0  0  0  0  0  0
   -1.3351   -2.5983   -0.3577 H   0  0  0  0  0  0  0  0  0  0  0  0
   -2.0519    2.2797    0.4919 H   0  0  0  0  0  0  0  0  0  0  0  0
    1.8503   -2.3997    0.6093 H   0  0  0  0  0  0  0  0  0  0  0  0
    3.5206   -0.4588    1.3993 H   0  0  0  0  0  0  0  0  0  0  0  0
    1.0646   -1.2970   -1.7791 H   0  0  0  0  0  0  0  0  0  0  0  0
    1.7985    1.0714   -1.8198 H   0  0  0  0  0  0  0  0  0  0  0  0
  1 13  1  0  0  0  0
  1  2  2  0  0  0  0
  2 14  1  0  0  0  0
  3  1  1  0  0  0  0
  4 16  1  0  0  0  0
  4  2  1  0  0  0  0
  5 17  1  0  0  0  0
  5  6  2  0  0  0  0
  6 18  1  0  0  0  0
  7  3  2  0  0  0  0
  7  9  1  0  0  0  0
  8 19  1  6  0  0  0
  8  7  1  0  0  0  0
  8  5  1  0  0  0  0
  9  4  2  0  0  0  0
 10 20  1  6  0  0  0
 10  8  1  0  0  0  0
 10 12  1  0  0  0  0
 10 11  1  0  0  0  0
 11  6  1  0  0  0  0
 12  9  1  0  0  0  0
 15  3  1  0  0  0  0
M  END
>  <HBA>
2

>  <HBD>
0

>  <TPSA>
18.46

>  <cid>
40858

>  <dipole>
1.99

>  <excitation_energy_1>
4.811

>  <excitation_energy_2>
5.184

>  <excitation_energy_3>
5.353

>  <excitation_energy_4>
5.545

>  <homo_energy>
-5.867

>  <homo_lumo_gap>
5.698

>  <logP>
2.033

>  <lumo_energy>
-0.169

>  <melting_point>
57.93

>  <molecular_refractivity>
43.9

>  <oscillator_strength_1>
0.0579

>  <oscillator_strength_2>
0.0084

>  <oscillator_strength_3>
0.0025

>  <oscillator_strength_4>
0.0039

>  <open_babel_can_smiles>
C1=C[C@@H]2[C@H](O1)Oc1c2cccc1

>  <mulliken_charges>
20
1   -0.138674
2   -0.136764
3   -0.199533
4   -0.185037
5   -0.167918
6   0.129746
7   0.129538
8   -0.300874
9   0.342234
10   0.35697
11   -0.458011
12   -0.522673
13   0.126847
14   0.131532
15   0.127689
16   0.142485
17   0.145341
18   0.158799
19   0.164201
20   0.154099

>  <lowdin_charges>
20
1   -0.177302
2   -0.14604
3   -0.153467
4   -0.184649
5   -0.234403
6   -0.037878
7   -0.043619
8   -0.136889
9   0.096323
10   0.11967
11   -0.202526
12   -0.196645
13   0.158569
14   0.159308
15   0.155934
16   0.167234
17   0.170837
18   0.170527
19   0.162325
20   0.152691

$$$$

