PCCDB-ID:  13939
public computational chemistry database (PCCDB) project, http://pccdb.org

 21 20  0  0  0  0  0  0  0  0999 V2000
    1.0823   -2.0926    0.2815 C   0  0  0  0  0  0  0  0  0  0  0  0
    0.1070   -1.0392   -0.2722 C   0  0  0  0  0  0  0  0  0  0  0  0
   -0.1734    1.3418   -0.7157 C   0  0  0  0  0  0  0  0  0  0  0  0
    0.4227    2.7305   -0.4923 C   0  0  0  0  0  0  0  0  0  0  0  0
    0.4919   -3.4922    0.3197 C   0  0  0  0  0  0  0  0  0  0  0  0
    0.2434   -4.2059    1.3390 N   0  0  0  0  0  0  0  0  0  0  0  0
    0.6985    0.2918   -0.1970 N   0  0  0  0  0  0  0  0  0  0  0  0
    0.1776   -4.0235   -0.8997 O   0  0  0  0  0  0  0  0  0  0  0  0
    2.0353    3.0224   -1.3484 S   0  0  0  0  0  0  0  0  0  0  0  0
    1.3861   -1.7949    1.2889 H   0  0  0  0  0  0  0  0  0  0  0  0
    1.9943   -2.1054   -0.3361 H   0  0  0  0  0  0  0  0  0  0  0  0
   -0.8065   -1.0445    0.3354 H   0  0  0  0  0  0  0  0  0  0  0  0
   -0.2069   -1.3122   -1.3001 H   0  0  0  0  0  0  0  0  0  0  0  0
   -0.4154    1.2124   -1.7870 H   0  0  0  0  0  0  0  0  0  0  0  0
   -1.1238    1.2930   -0.1664 H   0  0  0  0  0  0  0  0  0  0  0  0
    0.5577    2.9251    0.5745 H   0  0  0  0  0  0  0  0  0  0  0  0
   -0.2517    3.4925   -0.8938 H   0  0  0  0  0  0  0  0  0  0  0  0
    0.5082   -3.7029    2.1867 H   0  0  0  0  0  0  0  0  0  0  0  0
    1.5602    0.3015   -0.7436 H   0  0  0  0  0  0  0  0  0  0  0  0
    0.4492   -3.4119   -1.6003 H   0  0  0  0  0  0  0  0  0  0  0  0
    2.8150    2.4151   -0.4282 H   0  0  0  0  0  0  0  0  0  0  0  0
  1  5  1  0  0  0  0
  1 10  1  0  0  0  0
  2  7  1  0  0  0  0
  2  1  1  0  0  0  0
  2 12  1  0  0  0  0
  3  4  1  0  0  0  0
  3  7  1  0  0  0  0
  3 15  1  0  0  0  0
  4 16  1  0  0  0  0
  5  6  2  0  0  0  0
  6 18  1  0  0  0  0
  8  5  1  0  0  0  0
  9  4  1  0  0  0  0
  9 21  1  0  0  0  0
 11  1  1  0  0  0  0
 13  2  1  0  0  0  0
 14  3  1  0  0  0  0
 17  4  1  0  0  0  0
 19  7  1  0  0  0  0
 20  8  1  0  0  0  0
M  END
>  <HBA>
4

>  <HBD>
3

>  <TPSA>
93.92

>  <cid>
13939

>  <dipole>
3.32

>  <excitation_energy_1>
5.358

>  <excitation_energy_2>
5.537

>  <excitation_energy_3>
5.805

>  <excitation_energy_4>
5.92

>  <homo_energy>
-6.539

>  <homo_lumo_gap>
7.018

>  <logP>
0.472

>  <lumo_energy>
0.479

>  <melting_point>
97.18

>  <molecular_refractivity>
39.79

>  <oscillator_strength_1>
0.0155

>  <oscillator_strength_2>
0.0028

>  <oscillator_strength_3>
0.0324

>  <oscillator_strength_4>
0.0414

>  <open_babel_can_smiles>
SCCNCCC(=N)O

>  <mulliken_charges>
21
1   -0.376344
2   -0.113465
3   -0.102063
4   -0.42284
5   0.483338
6   -0.580742
7   -0.56039
8   -0.573356
9   -0.092086
10   0.169341
11   0.15108
12   0.162809
13   0.108908
14   0.13073
15   0.150059
16   0.190858
17   0.182972
18   0.283631
19   0.298957
20   0.405807
21   0.102797

>  <lowdin_charges>
21
1   -0.314456
2   -0.199338
3   -0.203585
4   -0.373334
5   0.126729
6   -0.394123
7   -0.365369
8   -0.368867
9   -0.092677
10   0.165993
11   0.152621
12   0.152672
13   0.113368
14   0.125206
15   0.149831
16   0.168627
17   0.173047
18   0.257844
19   0.253591
20   0.353739
21   0.118483

$$$$

