PCCDB-ID:  14527
public computational chemistry database (PCCDB) project, http://pccdb.org

 27 27  0  0  0  0  0  0  0  0999 V2000
    1.2933    0.1720    0.0068 C   0  0  0  0  0  0  0  0  0  0  0  0
    3.2193   -3.6321    1.5545 C   0  0  0  0  0  0  0  0  0  0  0  0
    2.7033   -0.2505   -0.4237 C   0  0  0  0  0  0  0  0  0  0  0  0
    2.6752   -2.6449    0.5163 C   0  0  0  0  0  0  0  0  0  0  0  0
    7.6229   -1.5917   -0.4188 C   0  0  0  0  0  0  0  0  0  0  0  0
    6.6644   -1.9881   -1.3541 C   0  0  0  0  0  0  0  0  0  0  0  0
    7.2083   -1.0983    0.8182 C   0  0  0  0  0  0  0  0  0  0  0  0
    5.3060   -1.8919   -1.0525 C   0  0  0  0  0  0  0  0  0  0  0  0
    5.8468   -1.0043    1.1142 C   0  0  0  0  0  0  0  0  0  0  0  0
    3.3894   -1.2732    0.5172 C   0  0  0  0  0  0  0  0  0  0  0  0
    4.8720   -1.3975    0.1878 C   0  0  0  0  0  0  0  0  0  0  0  0
    0.9061    0.9549   -0.6553 H   0  0  0  0  0  0  0  0  0  0  0  0
    1.2960    0.5737    1.0279 H   0  0  0  0  0  0  0  0  0  0  0  0
    0.5817   -0.6601   -0.0214 H   0  0  0  0  0  0  0  0  0  0  0  0
    2.6634   -4.5762    1.5263 H   0  0  0  0  0  0  0  0  0  0  0  0
    3.1309   -3.2252    2.5697 H   0  0  0  0  0  0  0  0  0  0  0  0
    4.2762   -3.8582    1.3787 H   0  0  0  0  0  0  0  0  0  0  0  0
    3.3386    0.6426   -0.4790 H   0  0  0  0  0  0  0  0  0  0  0  0
    2.6693   -0.6604   -1.4427 H   0  0  0  0  0  0  0  0  0  0  0  0
    1.6053   -2.4887    0.7015 H   0  0  0  0  0  0  0  0  0  0  0  0
    2.7491   -3.0877   -0.4868 H   0  0  0  0  0  0  0  0  0  0  0  0
    8.6814   -1.6677   -0.6529 H   0  0  0  0  0  0  0  0  0  0  0  0
    6.9751   -2.3740   -2.3218 H   0  0  0  0  0  0  0  0  0  0  0  0
    7.9433   -0.7871    1.5563 H   0  0  0  0  0  0  0  0  0  0  0  0
    4.5751   -2.2042   -1.7946 H   0  0  0  0  0  0  0  0  0  0  0  0
    5.5337   -0.6181    2.0819 H   0  0  0  0  0  0  0  0  0  0  0  0
    3.3189   -0.8695    1.5387 H   0  0  0  0  0  0  0  0  0  0  0  0
  1 13  1  0  0  0  0
  2 16  1  0  0  0  0
  3  1  1  0  0  0  0
  3 10  1  0  0  0  0
  4 10  1  0  0  0  0
  4 20  1  0  0  0  0
  4  2  1  0  0  0  0
  5  7  2  0  0  0  0
  6  8  2  0  0  0  0
  6  5  1  0  0  0  0
  7  9  1  0  0  0  0
  7 24  1  0  0  0  0
  8 11  1  0  0  0  0
  9 26  1  0  0  0  0
 10 27  1  0  0  0  0
 11 10  1  0  0  0  0
 11  9  2  0  0  0  0
 12  1  1  0  0  0  0
 14  1  1  0  0  0  0
 15  2  1  0  0  0  0
 17  2  1  0  0  0  0
 18  3  1  0  0  0  0
 19  3  1  0  0  0  0
 21  4  1  0  0  0  0
 22  5  1  0  0  0  0
 23  6  1  0  0  0  0
 25  8  1  0  0  0  0
M  END
>  <HBA>
0

>  <HBD>
0

>  <TPSA>
0.0

>  <cid>
14527

>  <dipole>
0.27

>  <excitation_energy_1>
5.299

>  <excitation_energy_2>
5.905

>  <excitation_energy_3>
6.003

>  <excitation_energy_4>
6.216

>  <homo_energy>
-6.4

>  <homo_lumo_gap>
6.506

>  <logP>
3.59

>  <lumo_energy>
0.106

>  <melting_point>
4.49

>  <molecular_refractivity>
50.64

>  <oscillator_strength_1>
0.0013

>  <oscillator_strength_2>
0.0313

>  <oscillator_strength_3>
0.001

>  <oscillator_strength_4>
0.0013

>  <open_babel_can_smiles>
CCC(c1ccccc1)CC

>  <mulliken_charges>
27
1   -0.449034
2   -0.446554
3   -0.251519
4   -0.254681
5   -0.131962
6   -0.130138
7   -0.125888
8   -0.184388
9   -0.194692
10   -0.157213
11   0.177072
12   0.144322
13   0.141981
14   0.146943
15   0.140015
16   0.138164
17   0.157378
18   0.139685
19   0.130965
20   0.134828
21   0.130623
22   0.126165
23   0.126475
24   0.126448
25   0.124657
26   0.121904
27   0.118444

>  <lowdin_charges>
27
1   -0.448358
2   -0.444704
3   -0.271205
4   -0.270827
5   -0.161173
6   -0.154752
7   -0.157773
8   -0.169665
9   -0.170033
10   -0.123749
11   0.001696
12   0.152585
13   0.145629
14   0.148012
15   0.14888
16   0.144173
17   0.153173
18   0.14716
19   0.13917
20   0.141072
21   0.138683
22   0.154574
23   0.155528
24   0.15734
25   0.154889
26   0.152841
27   0.136833

$$$$

