PCCDB-ID:  30349
public computational chemistry database (PCCDB) project, http://pccdb.org

 19 20  0  0  0  0  0  0  0  0999 V2000
    1.0391   -0.0900   -0.0601 C   0  0  0  0  0  0  0  0  0  0  0  0
    3.2881   -1.2603   -0.0665 C   0  0  0  0  0  0  0  0  0  0  0  0
    4.6782   -1.2548   -0.0739 C   0  0  0  0  0  0  0  0  0  0  0  0
    3.2146    1.1775   -0.0775 C   0  0  0  0  0  0  0  0  0  0  0  0
    6.7576    1.8772   -0.0978 C   0  0  0  0  0  0  0  0  0  0  0  0
    2.5497   -0.0558   -0.0687 C   0  0  0  0  0  0  0  0  0  0  0  0
    5.3388   -0.0239   -0.0835 C   0  0  0  0  0  0  0  0  0  0  0  0
    6.7588    0.3348   -0.0906 C   0  0  0  0  0  0  0  0  0  0  0  0
    4.6059    1.1689   -0.0850 C   0  0  0  0  0  0  0  0  0  0  0  0
    7.7508   -0.3704   -0.0905 O   0  0  0  0  0  0  0  0  0  0  0  0
    5.3767    2.2927   -0.0944 O   0  0  0  0  0  0  0  0  0  0  0  0
    0.6609   -1.1162   -0.0674 H   0  0  0  0  0  0  0  0  0  0  0  0
    0.6263    0.4278   -0.9344 H   0  0  0  0  0  0  0  0  0  0  0  0
    0.6369    0.4110    0.8289 H   0  0  0  0  0  0  0  0  0  0  0  0
    2.7507   -2.2045   -0.0577 H   0  0  0  0  0  0  0  0  0  0  0  0
    5.2507   -2.1779   -0.0728 H   0  0  0  0  0  0  0  0  0  0  0  0
    2.6675    2.1155   -0.0777 H   0  0  0  0  0  0  0  0  0  0  0  0
    7.2477    2.2738   -0.9930 H   0  0  0  0  0  0  0  0  0  0  0  0
    7.2547    2.2818    0.7899 H   0  0  0  0  0  0  0  0  0  0  0  0
  1 14  1  0  0  0  0
  2 15  1  0  0  0  0
  3 16  1  0  0  0  0
  3  2  2  0  0  0  0
  4  6  2  0  0  0  0
  5 11  1  0  0  0  0
  5  8  1  0  0  0  0
  5 19  1  0  0  0  0
  6  2  1  0  0  0  0
  6  1  1  0  0  0  0
  7  3  1  0  0  0  0
  8 10  2  0  0  0  0
  8  7  1  0  0  0  0
  9  7  2  0  0  0  0
  9  4  1  0  0  0  0
 11  9  1  0  0  0  0
 12  1  1  0  0  0  0
 13  1  1  0  0  0  0
 17  4  1  0  0  0  0
 18  5  1  0  0  0  0
M  END
>  <HBA>
2

>  <HBD>
0

>  <TPSA>
26.3

>  <cid>
30349

>  <dipole>
3.01

>  <excitation_energy_1>
3.77

>  <excitation_energy_2>
4.09

>  <excitation_energy_3>
4.997

>  <excitation_energy_4>
5.783

>  <homo_energy>
-6.343

>  <homo_lumo_gap>
4.729

>  <logP>
1.57

>  <lumo_energy>
-1.614

>  <melting_point>
72.4

>  <molecular_refractivity>
41.17

>  <oscillator_strength_1>
0.0001

>  <oscillator_strength_2>
0.0935

>  <oscillator_strength_3>
0.2115

>  <oscillator_strength_4>
0.0004

>  <open_babel_can_smiles>
Cc1ccc2c(c1)OCC2=O

>  <mulliken_charges>
19
1   -0.532392
2   -0.19263
3   -0.171903
4   -0.228115
5   -0.12054
6   0.174705
7   0.072347
8   0.344289
9   0.331683
10   -0.467792
11   -0.523675
12   0.161528
13   0.171008
14   0.171329
15   0.130819
16   0.158962
17   0.1407
18   0.189834
19   0.189845

>  <lowdin_charges>
19
1   -0.442799
2   -0.185957
3   -0.115901
4   -0.199607
5   -0.156163
6   0.034829
7   -0.095698
8   0.135631
9   0.116632
10   -0.244771
11   -0.194692
12   0.159481
13   0.167002
14   0.167067
15   0.159761
16   0.174153
17   0.168854
18   0.17606
19   0.176118

$$$$

