PCCDB-ID:  5826
public computational chemistry database (PCCDB) project, http://pccdb.org

 23 23  0  0  1  0  0  0  0  0999 V2000
    1.8468   -0.3061   -1.2492 C   0  0  0  0  0  0  0  0  0  0  0  0
    1.7307    0.1672    5.3316 C   0  0  0  0  0  0  0  0  0  0  0  0
    1.0583   -0.8663    4.6791 C   0  0  0  0  0  0  0  0  0  0  0  0
    2.6750    0.9217    4.6315 C   0  0  0  0  0  0  0  0  0  0  0  0
    1.3326   -1.1397    3.3376 C   0  0  0  0  0  0  0  0  0  0  0  0
    2.9453    0.6458    3.2913 C   0  0  0  0  0  0  0  0  0  0  0  0
    2.5445   -0.6974    1.1642 C   0  0  0  0  0  0  0  0  0  0  0  0
    1.8985    0.2936    0.1662 C   0  0  1  0  0  0  0  0  0  0  0  0
    2.2771   -0.3908    2.6230 C   0  0  0  0  0  0  0  0  0  0  0  0
    2.6032    1.5833    0.2350 N   0  0  0  0  0  0  0  0  0  0  0  0
    2.8573   -0.5470   -1.6067 H   0  0  0  0  0  0  0  0  0  0  0  0
    1.4021    0.4040   -1.9571 H   0  0  0  0  0  0  0  0  0  0  0  0
    1.2533   -1.2282   -1.2806 H   0  0  0  0  0  0  0  0  0  0  0  0
    1.5239    0.3818    6.3769 H   0  0  0  0  0  0  0  0  0  0  0  0
    0.3232   -1.4636    5.2128 H   0  0  0  0  0  0  0  0  0  0  0  0
    3.2044    1.7289    5.1318 H   0  0  0  0  0  0  0  0  0  0  0  0
    0.8074   -1.9516    2.8379 H   0  0  0  0  0  0  0  0  0  0  0  0
    3.6678    1.2459    2.7481 H   0  0  0  0  0  0  0  0  0  0  0  0
    3.6272   -0.7173    0.9701 H   0  0  0  0  0  0  0  0  0  0  0  0
    2.1741   -1.7050    0.9387 H   0  0  0  0  0  0  0  0  0  0  0  0
    0.8706    0.4832    0.5025 H   0  0  0  0  0  0  0  0  0  0  0  0
    3.5177    1.4877   -0.2095 H   0  0  0  0  0  0  0  0  0  0  0  0
    2.0988    2.2800   -0.3122 H   0  0  0  0  0  0  0  0  0  0  0  0
  1  8  1  0  0  0  0
  2 14  1  0  0  0  0
  3 15  1  0  0  0  0
  3  2  1  0  0  0  0
  4 16  1  0  0  0  0
  4  2  2  0  0  0  0
  5  3  2  0  0  0  0
  6  4  1  0  0  0  0
  7  9  1  0  0  0  0
  8 10  1  0  0  0  0
  8 21  1  1  0  0  0
  8  7  1  0  0  0  0
  9  6  2  0  0  0  0
  9  5  1  0  0  0  0
 11  1  1  0  0  0  0
 12  1  1  0  0  0  0
 13  1  1  0  0  0  0
 17  5  1  0  0  0  0
 18  6  1  0  0  0  0
 19  7  1  0  0  0  0
 20  7  1  0  0  0  0
 22 10  1  0  0  0  0
 23 10  1  0  0  0  0
M  END
>  <HBA>
1

>  <HBD>
1

>  <TPSA>
26.02

>  <cid>
5826

>  <dipole>
1.87

>  <excitation_energy_1>
5.28

>  <excitation_energy_2>
5.652

>  <excitation_energy_3>
5.789

>  <excitation_energy_4>
5.829

>  <homo_energy>
-6.207

>  <homo_lumo_gap>
6.525

>  <logP>
2.277

>  <lumo_energy>
0.318

>  <melting_point>
60.07

>  <molecular_refractivity>
43.73

>  <oscillator_strength_1>
0.0002

>  <oscillator_strength_2>
0.0044

>  <oscillator_strength_3>
0.035

>  <oscillator_strength_4>
0.0462

>  <open_babel_can_smiles>
C[C@@H](Cc1ccccc1)N

>  <mulliken_charges>
23
1   -0.447718
2   -0.131198
3   -0.128535
4   -0.133555
5   -0.187762
6   -0.154112
7   -0.342541
8   0.031036
9   0.1719
10   -0.70228
11   0.135642
12   0.136815
13   0.142127
14   0.122674
15   0.122523
16   0.12337
17   0.115139
18   0.133475
19   0.13427
20   0.136887
21   0.139629
22   0.286496
23   0.295717

>  <lowdin_charges>
23
1   -0.463165
2   -0.161791
3   -0.161744
4   -0.159742
5   -0.172406
6   -0.156842
7   -0.273187
8   -0.061294
9   -0.000313
10   -0.546298
11   0.143617
12   0.147493
13   0.14989
14   0.152941
15   0.155456
16   0.155497
17   0.151002
18   0.163326
19   0.144627
20   0.147525
21   0.141832
22   0.247525
23   0.256052

$$$$

