PCCDB-ID:  14547
public computational chemistry database (PCCDB) project, http://pccdb.org

 22 23  0  0  0  0  0  0  0  0999 V2000
   -1.3310   -0.7548    0.4554 C   0  0  0  0  0  0  0  0  0  0  0  0
   -0.6411    6.0342   -0.3395 C   0  0  0  0  0  0  0  0  0  0  0  0
   -1.7751   -0.2808    1.6967 C   0  0  0  0  0  0  0  0  0  0  0  0
   -0.1522    6.5175   -1.5552 C   0  0  0  0  0  0  0  0  0  0  0  0
   -0.9134    0.1472   -0.5073 C   0  0  0  0  0  0  0  0  0  0  0  0
   -0.7939    4.6665   -0.1414 C   0  0  0  0  0  0  0  0  0  0  0  0
   -1.7705    1.0939    1.8967 C   0  0  0  0  0  0  0  0  0  0  0  0
    0.1670    5.5815   -2.5366 C   0  0  0  0  0  0  0  0  0  0  0  0
   -0.9493    1.5281   -0.2019 C   0  0  0  0  0  0  0  0  0  0  0  0
   -0.4400    3.8123   -1.2016 C   0  0  0  0  0  0  0  0  0  0  0  0
   -1.3712    1.9896    0.9825 N   0  0  0  0  0  0  0  0  0  0  0  0
    0.0324    4.2624   -2.3778 N   0  0  0  0  0  0  0  0  0  0  0  0
   -0.5297    2.4201   -1.1733 N   0  0  0  0  0  0  0  0  0  0  0  0
   -1.3135   -1.8205    0.2431 H   0  0  0  0  0  0  0  0  0  0  0  0
   -0.9052    6.7216    0.4601 H   0  0  0  0  0  0  0  0  0  0  0  0
   -2.1095   -0.9551    2.4780 H   0  0  0  0  0  0  0  0  0  0  0  0
   -0.0220    7.5794   -1.7374 H   0  0  0  0  0  0  0  0  0  0  0  0
   -0.5652   -0.1906   -1.4797 H   0  0  0  0  0  0  0  0  0  0  0  0
   -1.1684    4.2509    0.7827 H   0  0  0  0  0  0  0  0  0  0  0  0
   -2.1049    1.5142    2.8440 H   0  0  0  0  0  0  0  0  0  0  0  0
    0.5530    5.9014   -3.5035 H   0  0  0  0  0  0  0  0  0  0  0  0
   -0.2222    2.0194   -2.0507 H   0  0  0  0  0  0  0  0  0  0  0  0
  1  3  2  0  0  0  0
  2  6  1  0  0  0  0
  2 15  1  0  0  0  0
  3  7  1  0  0  0  0
  3 16  1  0  0  0  0
  4  2  2  0  0  0  0
  5  9  2  0  0  0  0
  5  1  1  0  0  0  0
  6 19  1  0  0  0  0
  7 20  1  0  0  0  0
  8 12  2  0  0  0  0
  8  4  1  0  0  0  0
  9 11  1  0  0  0  0
 10 13  1  0  0  0  0
 10  6  2  0  0  0  0
 11  7  2  0  0  0  0
 12 10  1  0  0  0  0
 13  9  1  0  0  0  0
 14  1  1  0  0  0  0
 17  4  1  0  0  0  0
 18  5  1  0  0  0  0
 21  8  1  0  0  0  0
 22 13  1  0  0  0  0
M  END
>  <HBA>
2

>  <HBD>
1

>  <TPSA>
37.81

>  <cid>
14547

>  <dipole>
1.31

>  <excitation_energy_1>
4.121

>  <excitation_energy_2>
4.452

>  <excitation_energy_3>
4.636

>  <excitation_energy_4>
5.008

>  <homo_energy>
-5.486

>  <homo_lumo_gap>
4.825

>  <logP>
2.293

>  <lumo_energy>
-0.661

>  <melting_point>
108.45

>  <molecular_refractivity>
51.58

>  <oscillator_strength_1>
0.1416

>  <oscillator_strength_2>
0.0754

>  <oscillator_strength_3>
0.5095

>  <oscillator_strength_4>
0.0

>  <open_babel_can_smiles>
c1ccc(nc1)Nc1ccccn1

>  <mulliken_charges>
22
1   -0.096377
2   -0.114574
3   -0.162793
4   -0.148421
5   -0.200631
6   -0.148297
7   0.050566
8   0.044979
9   0.572056
10   0.49052
11   -0.511808
12   -0.513411
13   -0.737927
14   0.142468
15   0.139427
16   0.134645
17   0.130449
18   0.134036
19   0.18021
20   0.139552
21   0.137192
22   0.33814

>  <lowdin_charges>
22
1   -0.11815
2   -0.123324
3   -0.206149
4   -0.199482
5   -0.205656
6   -0.2044
7   -0.076174
8   -0.083552
9   0.106108
10   0.108558
11   -0.184176
12   -0.1893
13   -0.22704
14   0.162318
15   0.162959
16   0.165011
17   0.160071
18   0.160881
19   0.187556
20   0.156075
21   0.154535
22   0.29333

$$$$

