PCCDB-ID:  16244
public computational chemistry database (PCCDB) project, http://pccdb.org

 27 28  0  0  0  0  0  0  0  0999 V2000
    2.5724    0.9892   -4.9271 C   0  0  0  0  0  0  0  0  0  0  0  0
    2.2694    0.1468   -3.8546 C   0  0  0  0  0  0  0  0  0  0  0  0
    3.5660    1.9592   -4.7850 C   0  0  0  0  0  0  0  0  0  0  0  0
    2.9584    0.2671   -2.6494 C   0  0  0  0  0  0  0  0  0  0  0  0
    4.2411    2.0973   -3.5725 C   0  0  0  0  0  0  0  0  0  0  0  0
    3.8221    3.6568   -0.8463 C   0  0  0  0  0  0  0  0  0  0  0  0
    5.6301    2.8250    0.5530 C   0  0  0  0  0  0  0  0  0  0  0  0
    3.0347    3.9434    0.4394 C   0  0  0  0  0  0  0  0  0  0  0  0
    4.7737    3.1339    1.7805 C   0  0  0  0  0  0  0  0  0  0  0  0
    3.9444    1.2516   -2.4911 C   0  0  0  0  0  0  0  0  0  0  0  0
    4.7260    1.3438   -1.2173 C   0  0  0  0  0  0  0  0  0  0  0  0
    4.7714    2.5579   -0.6088 N   0  0  0  0  0  0  0  0  0  0  0  0
    3.8935    4.2246    1.5309 O   0  0  0  0  0  0  0  0  0  0  0  0
    5.5353   -0.0206   -0.6697 S   0  0  0  0  0  0  0  0  0  0  0  0
    2.0430    0.8845   -5.8701 H   0  0  0  0  0  0  0  0  0  0  0  0
    1.5001   -0.6134   -3.9595 H   0  0  0  0  0  0  0  0  0  0  0  0
    3.8203    2.6074   -5.6193 H   0  0  0  0  0  0  0  0  0  0  0  0
    2.7489   -0.4059   -1.8243 H   0  0  0  0  0  0  0  0  0  0  0  0
    5.0207    2.8473   -3.4685 H   0  0  0  0  0  0  0  0  0  0  0  0
    4.3845    4.5537   -1.1376 H   0  0  0  0  0  0  0  0  0  0  0  0
    3.1400    3.3963   -1.6539 H   0  0  0  0  0  0  0  0  0  0  0  0
    6.2661    1.9560    0.7222 H   0  0  0  0  0  0  0  0  0  0  0  0
    6.2531    3.6973    0.3147 H   0  0  0  0  0  0  0  0  0  0  0  0
    2.3895    3.0794    0.6707 H   0  0  0  0  0  0  0  0  0  0  0  0
    2.4020    4.8256    0.3010 H   0  0  0  0  0  0  0  0  0  0  0  0
    5.4066    3.4315    2.6215 H   0  0  0  0  0  0  0  0  0  0  0  0
    4.2016    2.2378    2.0686 H   0  0  0  0  0  0  0  0  0  0  0  0
  1  3  2  0  0  0  0
  1  2  1  0  0  0  0
  2  4  2  0  0  0  0
  3  5  1  0  0  0  0
  4 10  1  0  0  0  0
  4 18  1  0  0  0  0
  5 19  1  0  0  0  0
  5 10  2  0  0  0  0
  6 12  1  0  0  0  0
  6  8  1  0  0  0  0
  7 22  1  0  0  0  0
  7  9  1  0  0  0  0
  8 24  1  0  0  0  0
  8 13  1  0  0  0  0
  9 27  1  0  0  0  0
  9 26  1  0  0  0  0
 10 11  1  0  0  0  0
 11 14  2  0  0  0  0
 11 12  1  0  0  0  0
 12  7  1  0  0  0  0
 13  9  1  0  0  0  0
 15  1  1  0  0  0  0
 16  2  1  0  0  0  0
 17  3  1  0  0  0  0
 20  6  1  0  0  0  0
 21  6  1  0  0  0  0
 23  7  1  0  0  0  0
 25  8  1  0  0  0  0
M  END
>  <HBA>
3

>  <HBD>
0

>  <TPSA>
44.56

>  <cid>
16244

>  <dipole>
3.97

>  <excitation_energy_1>
3.005

>  <excitation_energy_2>
4.174

>  <excitation_energy_3>
4.317

>  <excitation_energy_4>
4.52

>  <homo_energy>
-5.434

>  <homo_lumo_gap>
4.172

>  <logP>
1.632

>  <lumo_energy>
-1.263

>  <melting_point>
51.12

>  <molecular_refractivity>
64.21

>  <oscillator_strength_1>
0.0102

>  <oscillator_strength_2>
0.0768

>  <oscillator_strength_3>
0.029

>  <oscillator_strength_4>
0.0268

>  <open_babel_can_smiles>
S=C(c1ccccc1)N1CCOCC1

>  <mulliken_charges>
27
1   -0.124078
2   -0.134627
3   -0.130665
4   -0.147326
5   -0.159503
6   -0.168198
7   -0.162388
8   -0.032873
9   -0.042575
10   0.083046
11   0.076125
12   -0.36307
13   -0.460702
14   -0.246116
15   0.13565
16   0.137746
17   0.135777
18   0.155981
19   0.139491
20   0.161029
21   0.183912
22   0.204993
23   0.157959
24   0.137016
25   0.156796
26   0.158225
27   0.148375

>  <lowdin_charges>
27
1   -0.150865
2   -0.153048
3   -0.156566
4   -0.141288
5   -0.15862
6   -0.218881
7   -0.219219
8   -0.14096
9   -0.140549
10   -0.021541
11   -0.038904
12   -0.062938
13   -0.269327
14   -0.219957
15   0.160694
16   0.162182
17   0.161579
18   0.174135
19   0.16204
20   0.153858
21   0.177403
22   0.189697
23   0.153947
24   0.136206
25   0.158762
26   0.159899
27   0.142262

$$$$

