PCCDB-ID:  69705
public computational chemistry database (PCCDB) project, http://pccdb.org

 23 23  0  0  0  0  0  0  0  0999 V2000
    0.9873    0.7528   -0.3781 C   0  0  0  0  0  0  0  0  0  0  0  0
    3.4043    3.2732    2.0172 C   0  0  0  0  0  0  0  0  0  0  0  0
    4.8263    1.3901    2.4436 C   0  0  0  0  0  0  0  0  0  0  0  0
    2.5760    2.4820    1.2134 C   0  0  0  0  0  0  0  0  0  0  0  0
    4.0159    0.5882    1.6514 C   0  0  0  0  0  0  0  0  0  0  0  0
    5.4549    3.6337    3.4673 C   0  0  0  0  0  0  0  0  0  0  0  0
    6.5303    4.3263    2.6079 C   0  0  0  0  0  0  0  0  0  0  0  0
    4.5391    2.7508    2.6481 C   0  0  0  0  0  0  0  0  0  0  0  0
    2.8814    1.1300    1.0279 C   0  0  0  0  0  0  0  0  0  0  0  0
    5.9774    5.1760    1.6148 O   0  0  0  0  0  0  0  0  0  0  0  0
    2.1474    0.2605    0.2724 O   0  0  0  0  0  0  0  0  0  0  0  0
    0.5626   -0.0963   -0.9167 H   0  0  0  0  0  0  0  0  0  0  0  0
    1.2320    1.5494   -1.0935 H   0  0  0  0  0  0  0  0  0  0  0  0
    0.2493    1.1305    0.3420 H   0  0  0  0  0  0  0  0  0  0  0  0
    3.1475    4.3196    2.1658 H   0  0  0  0  0  0  0  0  0  0  0  0
    5.6996    0.9509    2.9214 H   0  0  0  0  0  0  0  0  0  0  0  0
    1.7021    2.9269    0.7513 H   0  0  0  0  0  0  0  0  0  0  0  0
    4.2355   -0.4646    1.5027 H   0  0  0  0  0  0  0  0  0  0  0  0
    4.8724    4.4107    3.9769 H   0  0  0  0  0  0  0  0  0  0  0  0
    5.9568    3.0414    4.2437 H   0  0  0  0  0  0  0  0  0  0  0  0
    7.1896    3.5653    2.1586 H   0  0  0  0  0  0  0  0  0  0  0  0
    7.1509    4.9702    3.2397 H   0  0  0  0  0  0  0  0  0  0  0  0
    5.4230    4.6182    1.0445 H   0  0  0  0  0  0  0  0  0  0  0  0
  1 11  1  0  0  0  0
  1 14  1  0  0  0  0
  2 15  1  0  0  0  0
  2  8  2  0  0  0  0
  3  8  1  0  0  0  0
  3 16  1  0  0  0  0
  4  2  1  0  0  0  0
  5  3  2  0  0  0  0
  6 19  1  0  0  0  0
  6 20  1  0  0  0  0
  7 22  1  0  0  0  0
  7  6  1  0  0  0  0
  8  6  1  0  0  0  0
  9  4  2  0  0  0  0
  9  5  1  0  0  0  0
 10  7  1  0  0  0  0
 11  9  1  0  0  0  0
 12  1  1  0  0  0  0
 13  1  1  0  0  0  0
 17  4  1  0  0  0  0
 18  5  1  0  0  0  0
 21  7  1  0  0  0  0
 23 10  1  0  0  0  0
M  END
>  <HBA>
2

>  <HBD>
1

>  <TPSA>
29.46

>  <cid>
69705

>  <dipole>
1.9

>  <excitation_energy_1>
4.899

>  <excitation_energy_2>
5.375

>  <excitation_energy_3>
5.533

>  <excitation_energy_4>
5.804

>  <homo_energy>
-5.894

>  <homo_lumo_gap>
5.744

>  <logP>
1.23

>  <lumo_energy>
-0.15

>  <melting_point>
31.21

>  <molecular_refractivity>
43.87

>  <oscillator_strength_1>
0.0323

>  <oscillator_strength_2>
0.0391

>  <oscillator_strength_3>
0.119

>  <oscillator_strength_4>
0.0031

>  <open_babel_can_smiles>
OCCc1ccc(cc1)OC

>  <mulliken_charges>
23
1   -0.215035
2   -0.215182
3   -0.184728
4   -0.192778
5   -0.169138
6   -0.354552
7   -0.023682
8   0.146171
9   0.373615
10   -0.619351
11   -0.506656
12   0.170545
13   0.151574
14   0.15244
15   0.139139
16   0.126561
17   0.133109
18   0.139267
19   0.15203
20   0.137999
21   0.121492
22   0.14462
23   0.392539

>  <lowdin_charges>
23
1   -0.280321
2   -0.167881
3   -0.157556
4   -0.214647
5   -0.177912
6   -0.294171
7   -0.135883
8   -0.029685
9   0.098699
10   -0.471421
11   -0.198304
12   0.164379
13   0.145505
14   0.146577
15   0.159243
16   0.157103
17   0.163404
18   0.165719
19   0.156083
20   0.153149
21   0.126661
22   0.14849
23   0.342769

$$$$

