PCCDB-ID:  11830
public computational chemistry database (PCCDB) project, http://pccdb.org

 19 20  0  0  0  0  0  0  0  0999 V2000
    2.3961    0.7014   -0.1356 C   0  0  0  0  0  0  0  0  0  0  0  0
   -2.4398    0.6838    0.0598 C   0  0  0  0  0  0  0  0  0  0  0  0
    1.2157    1.4037   -0.0459 C   0  0  0  0  0  0  0  0  0  0  0  0
   -1.2721    1.4063    0.0504 C   0  0  0  0  0  0  0  0  0  0  0  0
    2.3795   -0.7099   -0.1730 C   0  0  0  0  0  0  0  0  0  0  0  0
   -2.3604   -0.7304   -0.0024 C   0  0  0  0  0  0  0  0  0  0  0  0
   -0.0291    0.7240   -0.0052 C   0  0  0  0  0  0  0  0  0  0  0  0
    1.1847   -1.3876   -0.0941 C   0  0  0  0  0  0  0  0  0  0  0  0
   -0.0688   -0.7090   -0.0302 C   0  0  0  0  0  0  0  0  0  0  0  0
   -1.2332   -1.4100   -0.0466 N   0  0  0  0  0  0  0  0  0  0  0  0
    1.2522   -2.8583   -0.0624 N   0  0  0  0  0  0  0  0  0  0  0  0
    2.0442   -3.3923   -0.8423 O   0  0  0  0  0  0  0  0  0  0  0  0
    0.5575   -3.4465    0.7570 O   0  0  0  0  0  0  0  0  0  0  0  0
    3.3470    1.2234   -0.1758 H   0  0  0  0  0  0  0  0  0  0  0  0
   -3.4087    1.1717    0.1016 H   0  0  0  0  0  0  0  0  0  0  0  0
    1.2201    2.4904   -0.0148 H   0  0  0  0  0  0  0  0  0  0  0  0
   -1.2804    2.4932    0.0776 H   0  0  0  0  0  0  0  0  0  0  0  0
    3.3012   -1.2748   -0.2533 H   0  0  0  0  0  0  0  0  0  0  0  0
   -3.2757   -1.3207   -0.0207 H   0  0  0  0  0  0  0  0  0  0  0  0
  1  3  1  0  0  0  0
  2 15  1  0  0  0  0
  3 16  1  0  0  0  0
  3  7  2  0  0  0  0
  4  2  2  0  0  0  0
  4 17  1  0  0  0  0
  5  1  2  0  0  0  0
  5  8  1  0  0  0  0
  6  2  1  0  0  0  0
  7  4  1  0  0  0  0
  8 11  1  0  0  0  0
  8  9  2  0  0  0  0
  9  7  1  0  0  0  0
 10  9  1  0  0  0  0
 10  6  2  0  0  0  0
 11 13  2  0  0  0  0
 12 11  2  0  0  0  0
 14  1  1  0  0  0  0
 18  5  1  0  0  0  0
 19  6  1  0  0  0  0
M  END
>  <HBA>
1

>  <HBD>
0

>  <TPSA>
58.71

>  <cid>
11830

>  <dipole>
6.28

>  <excitation_energy_1>
3.597

>  <excitation_energy_2>
3.771

>  <excitation_energy_3>
4.208

>  <excitation_energy_4>
4.258

>  <homo_energy>
-6.904

>  <homo_lumo_gap>
4.569

>  <logP>
2.666

>  <lumo_energy>
-2.335

>  <melting_point>
102.95

>  <molecular_refractivity>
50.56

>  <oscillator_strength_1>
0.0238

>  <oscillator_strength_2>
0.0241

>  <oscillator_strength_3>
0.0316

>  <oscillator_strength_4>
0.043

>  <open_babel_can_smiles>
O=N(=O)c1cccc2c1nccc2

>  <mulliken_charges>
19
1   -0.142914
2   -0.149717
3   -0.174822
4   -0.145593
5   -0.146372
6   0.050142
7   0.146868
8   0.262234
9   0.242818
10   -0.483317
11   0.350358
12   -0.389253
13   -0.355352
14   0.152293
15   0.149328
16   0.146877
17   0.151543
18   0.179373
19   0.155508

>  <lowdin_charges>
19
1   -0.150694
2   -0.172803
3   -0.135249
4   -0.119256
5   -0.131989
6   -0.070576
7   -0.012005
8   0.014541
9   0.045944
10   -0.132276
11   0.311371
12   -0.252464
13   -0.215573
14   0.170361
15   0.170266
16   0.164343
17   0.165543
18   0.186031
19   0.164486

$$$$

