PCCDB-ID:  12020
public computational chemistry database (PCCDB) project, http://pccdb.org

 16 15  0  0  1  0  0  0  0  0999 V2000
    2.2080   -0.0874    1.5482 C   0  0  0  0  0  0  0  0  0  0  0  0
    2.6581    3.3876   -1.2978 C   0  0  0  0  0  0  0  0  0  0  0  0
    2.6750   -0.1963    0.3034 C   0  0  0  0  0  0  0  0  0  0  0  0
    2.4836    2.3181   -0.2159 C   0  0  0  0  0  0  0  0  0  0  0  0
    2.8582    0.9140   -0.7061 C   0  0  1  0  0  0  0  0  0  0  0  0
    4.2036    0.8699   -1.2110 O   0  0  0  0  0  0  0  0  0  0  0  0
    2.1373   -0.9536    2.2009 H   0  0  0  0  0  0  0  0  0  0  0  0
    1.8700    0.8569    1.9663 H   0  0  0  0  0  0  0  0  0  0  0  0
    2.4234    4.3842   -0.9081 H   0  0  0  0  0  0  0  0  0  0  0  0
    1.9951    3.1974   -2.1508 H   0  0  0  0  0  0  0  0  0  0  0  0
    3.6858    3.3942   -1.6722 H   0  0  0  0  0  0  0  0  0  0  0  0
    3.0011   -1.1704   -0.0625 H   0  0  0  0  0  0  0  0  0  0  0  0
    1.4431    2.3065    0.1341 H   0  0  0  0  0  0  0  0  0  0  0  0
    3.1029    2.5667    0.6584 H   0  0  0  0  0  0  0  0  0  0  0  0
    2.2465    0.6815   -1.5894 H   0  0  0  0  0  0  0  0  0  0  0  0
    4.7910    0.9709   -0.4437 H   0  0  0  0  0  0  0  0  0  0  0  0
  1  8  1  0  0  0  0
  1  7  1  0  0  0  0
  2  9  1  0  0  0  0
  2  4  1  0  0  0  0
  3  1  2  0  0  0  0
  4 13  1  0  0  0  0
  4 14  1  0  0  0  0
  5 15  1  6  0  0  0
  5  4  1  0  0  0  0
  5  3  1  0  0  0  0
  6  5  1  0  0  0  0
  6 16  1  0  0  0  0
 10  2  1  0  0  0  0
 11  2  1  0  0  0  0
 12  3  1  0  0  0  0
M  END
>  <HBA>
1

>  <HBD>
1

>  <TPSA>
20.23

>  <cid>
12020

>  <dipole>
1.48

>  <excitation_energy_1>
6.162

>  <excitation_energy_2>
6.676

>  <excitation_energy_3>
7.068

>  <excitation_energy_4>
7.08

>  <homo_energy>
-6.974

>  <homo_lumo_gap>
7.225

>  <logP>
0.943

>  <lumo_energy>
0.25

>  <melting_point>
-27.88

>  <molecular_refractivity>
26.84

>  <oscillator_strength_1>
0.0538

>  <oscillator_strength_2>
0.04

>  <oscillator_strength_3>
0.0057

>  <oscillator_strength_4>
0.1753

>  <open_babel_can_smiles>
CC[C@H](C=C)O

>  <mulliken_charges>
16
1   -0.338472
2   -0.44169
3   -0.090431
4   -0.274299
5   0.10715
6   -0.620439
7   0.143541
8   0.14393
9   0.139564
10   0.141884
11   0.161184
12   0.137058
13   0.138216
14   0.125973
15   0.143023
16   0.383809

>  <lowdin_charges>
16
1   -0.339012
2   -0.444002
3   -0.169411
4   -0.288286
5   -0.001124
6   -0.463635
7   0.162137
8   0.158684
9   0.14826
10   0.14811
11   0.15607
12   0.157095
13   0.146698
14   0.13882
15   0.149851
16   0.339745

$$$$

