PCCDB-ID:  14075
public computational chemistry database (PCCDB) project, http://pccdb.org

 11 11  0  0  0  0  0  0  0  0999 V2000
   -0.8026   -1.0314   -0.1575 C   0  0  0  0  0  0  0  0  0  0  0  0
    0.7417   -1.0419    0.0146 C   0  0  0  0  0  0  0  0  0  0  0  0
   -0.1146    2.2516    0.8660 O   0  0  0  0  0  0  0  0  0  0  0  0
    0.1648    1.9944   -1.6254 O   0  0  0  0  0  0  0  0  0  0  0  0
   -1.2212    0.3289   -0.3338 O   0  0  0  0  0  0  0  0  0  0  0  0
    1.2068    0.3129   -0.0595 O   0  0  0  0  0  0  0  0  0  0  0  0
    0.0125    1.4135   -0.3078 S   0  0  0  0  0  0  0  0  0  0  0  0
   -1.3118   -1.4241    0.7260 H   0  0  0  0  0  0  0  0  0  0  0  0
   -1.1159   -1.5937   -1.0404 H   0  0  0  0  0  0  0  0  0  0  0  0
    1.2344   -1.6076   -0.7800 H   0  0  0  0  0  0  0  0  0  0  0  0
    1.0387   -1.4421    0.9869 H   0  0  0  0  0  0  0  0  0  0  0  0
  1  2  1  0  0  0  0
  1  8  1  0  0  0  0
  2 11  1  0  0  0  0
  4  7  2  0  0  0  0
  5  7  1  0  0  0  0
  5  1  1  0  0  0  0
  6  2  1  0  0  0  0
  7  6  1  0  0  0  0
  7  3  2  0  0  0  0
  9  1  1  0  0  0  0
 10  2  1  0  0  0  0
M  END
>  <HBA>
4

>  <HBD>
0

>  <TPSA>
60.98

>  <cid>
14075

>  <dipole>
5.81

>  <excitation_energy_1>
6.576

>  <excitation_energy_2>
6.63

>  <excitation_energy_3>
7.388

>  <excitation_energy_4>
7.496

>  <homo_energy>
-8.338

>  <homo_lumo_gap>
8.346

>  <logP>
0.359

>  <lumo_energy>
0.008

>  <melting_point>
15.1

>  <molecular_refractivity>
20.75

>  <oscillator_strength_1>
0.0

>  <oscillator_strength_2>
0.0004

>  <oscillator_strength_3>
0.0

>  <oscillator_strength_4>
0.0

>  <open_babel_can_smiles>
O=S1(=O)OCCO1

>  <mulliken_charges>
11
1   -0.063606
2   -0.063688
3   -0.445531
4   -0.445949
5   -0.517597
6   -0.517706
7   1.300812
8   0.188349
9   0.188275
10   0.188246
11   0.188397

>  <lowdin_charges>
11
1   -0.132962
2   -0.132733
3   -0.522347
4   -0.522543
5   -0.392858
6   -0.392738
7   1.423694
8   0.168215
9   0.168169
10   0.168663
11   0.167441

$$$$

