PCCDB-ID:  44442
public computational chemistry database (PCCDB) project, http://pccdb.org

 30 30  0  0  1  0  0  0  0  0999 V2000
    4.2636    4.1058    1.8338 C   0  0  0  0  0  0  0  0  0  0  0  0
    3.8700    2.7908    2.0716 C   0  0  0  0  0  0  0  0  0  0  0  0
    5.1059    4.3799    0.7507 C   0  0  0  0  0  0  0  0  0  0  0  0
    4.3052    1.7480    1.2475 C   0  0  0  0  0  0  0  0  0  0  0  0
    5.5473    3.3545   -0.0780 C   0  0  0  0  0  0  0  0  0  0  0  0
    7.4837   -1.0660   -1.4638 C   0  0  0  0  0  0  0  0  0  0  0  0
    5.2801   -0.2720   -0.5094 C   0  0  0  0  0  0  0  0  0  0  0  0
    5.9464   -1.0999   -1.6077 C   0  0  2  0  0  0  0  0  0  0  0  0
    5.1494    2.0317    0.1673 C   0  0  0  0  0  0  0  0  0  0  0  0
    8.2729   -2.6145   -3.2478 C   0  0  0  0  0  0  0  0  0  0  0  0
    7.5508   -3.5785   -2.7833 N   0  0  0  0  0  0  0  0  0  0  0  0
    9.1111   -2.6726   -4.3642 N   0  0  0  0  0  0  0  0  0  0  0  0
    8.2585   -1.3660   -2.6669 N   0  0  0  0  0  0  0  0  0  0  0  0
    5.4061   -2.3949   -1.4768 O   0  0  0  0  0  0  0  0  0  0  0  0
    5.6366    1.0955   -0.7006 O   0  0  0  0  0  0  0  0  0  0  0  0
    3.9200    4.9081    2.4802 H   0  0  0  0  0  0  0  0  0  0  0  0
    3.2147    2.5616    2.9081 H   0  0  0  0  0  0  0  0  0  0  0  0
    5.4214    5.4006    0.5498 H   0  0  0  0  0  0  0  0  0  0  0  0
    3.9838    0.7331    1.4509 H   0  0  0  0  0  0  0  0  0  0  0  0
    6.1999    3.5506   -0.9234 H   0  0  0  0  0  0  0  0  0  0  0  0
    7.7712   -1.7779   -0.6823 H   0  0  0  0  0  0  0  0  0  0  0  0
    7.7902   -0.0657   -1.1440 H   0  0  0  0  0  0  0  0  0  0  0  0
    5.6105   -0.6242    0.4781 H   0  0  0  0  0  0  0  0  0  0  0  0
    4.1935   -0.4057   -0.5772 H   0  0  0  0  0  0  0  0  0  0  0  0
    5.6851   -0.6410   -2.5792 H   0  0  0  0  0  0  0  0  0  0  0  0
    7.7741   -4.4718   -3.2194 H   0  0  0  0  0  0  0  0  0  0  0  0
    9.2270   -3.5982   -4.7565 H   0  0  0  0  0  0  0  0  0  0  0  0
    9.9945   -2.1862   -4.2600 H   0  0  0  0  0  0  0  0  0  0  0  0
    8.3747   -0.5988   -3.3161 H   0  0  0  0  0  0  0  0  0  0  0  0
    6.0395   -3.0106   -1.9218 H   0  0  0  0  0  0  0  0  0  0  0  0
  1  2  1  0  0  0  0
  1 16  1  0  0  0  0
  2 17  1  0  0  0  0
  3  1  2  0  0  0  0
  4 19  1  0  0  0  0
  4  2  2  0  0  0  0
  5  9  2  0  0  0  0
  5  3  1  0  0  0  0
  6 22  1  0  0  0  0
  6 21  1  0  0  0  0
  7 23  1  0  0  0  0
  8 25  1  6  0  0  0
  8 14  1  0  0  0  0
  8  6  1  0  0  0  0
  8  7  1  0  0  0  0
  9  4  1  0  0  0  0
 10 11  1  0  0  0  0
 10 13  1  0  0  0  0
 12 28  1  0  0  0  0
 12 10  2  0  0  0  0
 13  6  1  0  0  0  0
 15  7  1  0  0  0  0
 15  9  1  0  0  0  0
 18  3  1  0  0  0  0
 20  5  1  0  0  0  0
 24  7  1  0  0  0  0
 26 11  1  0  0  0  0
 27 12  1  0  0  0  0
 29 13  1  0  0  0  0
 30 14  1  0  0  0  0
M  RAD  1  11   2
M  END
>  <HBA>
5

>  <HBD>
3

>  <TPSA>
93.86

>  <cid>
44442

>  <dipole>
4.85

>  <excitation_energy_1>
5.04

>  <excitation_energy_2>
5.169

>  <excitation_energy_3>
5.335

>  <excitation_energy_4>
5.574

>  <homo_energy>
-5.761

>  <homo_lumo_gap>
5.948

>  <logP>
1.1

>  <lumo_energy>
0.188

>  <melting_point>
151.41

>  <molecular_refractivity>
57.62

>  <oscillator_strength_1>
0.0308

>  <oscillator_strength_2>
0.0006

>  <oscillator_strength_3>
0.0013

>  <oscillator_strength_4>
0.0002

>  <open_babel_can_smiles>
O[C@@H](COc1ccccc1)CNC(=[NH2])[NH]

>  <mulliken_charges>
30
1   -0.133709
2   -0.1384
3   -0.132985
4   -0.193906
5   -0.177348
6   -0.170495
7   -0.051584
8   0.153564
9   0.3821
10   0.64458
11   -0.69659
12   -0.757779
13   -0.601447
14   -0.679987
15   -0.53476
16   0.12325
17   0.128793
18   0.126907
19   0.140499
20   0.128553
21   0.169734
22   0.160454
23   0.14204
24   0.158739
25   0.108909
26   0.278207
27   0.326267
28   0.33031
29   0.328224
30   0.437861

>  <lowdin_charges>
30
1   -0.182276
2   -0.146236
3   -0.147457
4   -0.212716
5   -0.186147
6   -0.219563
7   -0.132245
8   -0.012587
9   0.103161
10   0.142895
11   -0.485663
12   -0.500955
13   -0.297266
14   -0.493495
15   -0.207986
16   0.15681
17   0.157524
18   0.15588
19   0.164419
20   0.162162
21   0.162273
22   0.160464
23   0.140724
24   0.149855
25   0.121913
26   0.255036
27   0.27963
28   0.282971
29   0.282577
30   0.346298

$$$$

