PCCDB-ID:  41361
public computational chemistry database (PCCDB) project, http://pccdb.org

 29 30  0  0  0  0  0  0  0  0999 V2000
    0.1313   -2.5502   -0.1813 C   0  0  0  0  0  0  0  0  0  0  0  0
   -0.4777   -1.1634   -0.4857 C   0  0  0  0  0  0  0  0  0  0  0  0
   -4.7274   -1.4692   -2.5817 C   0  0  0  0  0  0  0  0  0  0  0  0
   -5.7938   -1.2185   -1.6850 C   0  0  0  0  0  0  0  0  0  0  0  0
   -0.5403   -3.7154   -0.9091 C   0  0  0  0  0  0  0  0  0  0  0  0
   -2.3137   -0.6588    1.2365 C   0  0  0  0  0  0  0  0  0  0  0  0
   -1.9069   -0.9834   -0.0370 C   0  0  0  0  0  0  0  0  0  0  0  0
   -3.4056   -1.4255   -2.1663 C   0  0  0  0  0  0  0  0  0  0  0  0
   -5.5460   -0.9194   -0.3574 C   0  0  0  0  0  0  0  0  0  0  0  0
   -3.1168   -1.1269   -0.8143 C   0  0  0  0  0  0  0  0  0  0  0  0
   -4.2056   -0.8779    0.0562 C   0  0  0  0  0  0  0  0  0  0  0  0
    0.1638   -4.9725   -0.6080 N   0  0  0  0  0  0  0  0  0  0  0  0
   -3.6924   -0.6006    1.2996 N   0  0  0  0  0  0  0  0  0  0  0  0
   -2.3472   -1.6576   -3.0148 O   0  0  0  0  0  0  0  0  0  0  0  0
   -6.5048   -0.6546    0.5963 O   0  0  0  0  0  0  0  0  0  0  0  0
    0.0851   -2.7295    0.9038 H   0  0  0  0  0  0  0  0  0  0  0  0
    1.1951   -2.5437   -0.4509 H   0  0  0  0  0  0  0  0  0  0  0  0
   -0.4108   -0.9710   -1.5610 H   0  0  0  0  0  0  0  0  0  0  0  0
    0.1475   -0.4064    0.0059 H   0  0  0  0  0  0  0  0  0  0  0  0
   -4.9570   -1.6981   -3.6207 H   0  0  0  0  0  0  0  0  0  0  0  0
   -6.8178   -1.2606   -2.0504 H   0  0  0  0  0  0  0  0  0  0  0  0
   -0.4828   -3.5470   -1.9909 H   0  0  0  0  0  0  0  0  0  0  0  0
   -1.6137   -3.7349   -0.6548 H   0  0  0  0  0  0  0  0  0  0  0  0
   -1.7163   -0.4569    2.1156 H   0  0  0  0  0  0  0  0  0  0  0  0
    0.0406   -5.1943    0.3804 H   0  0  0  0  0  0  0  0  0  0  0  0
   -0.2790   -5.7380   -1.1152 H   0  0  0  0  0  0  0  0  0  0  0  0
   -4.2471   -0.3590    2.1053 H   0  0  0  0  0  0  0  0  0  0  0  0
   -2.6994   -1.8428   -3.8992 H   0  0  0  0  0  0  0  0  0  0  0  0
   -7.3779   -0.7061    0.1785 H   0  0  0  0  0  0  0  0  0  0  0  0
  1 16  1  0  0  0  0
  2  1  1  0  0  0  0
  2  7  1  0  0  0  0
  2 19  1  0  0  0  0
  3  8  2  0  0  0  0
  3  4  1  0  0  0  0
  4  9  2  0  0  0  0
  5 23  1  0  0  0  0
  5 12  1  0  0  0  0
  5  1  1  0  0  0  0
  6 13  1  0  0  0  0
  6 24  1  0  0  0  0
  7  6  2  0  0  0  0
  8 10  1  0  0  0  0
  9 11  1  0  0  0  0
  9 15  1  0  0  0  0
 10  7  1  0  0  0  0
 10 11  2  0  0  0  0
 11 13  1  0  0  0  0
 12 25  1  0  0  0  0
 13 27  1  0  0  0  0
 14  8  1  0  0  0  0
 17  1  1  0  0  0  0
 18  2  1  0  0  0  0
 20  3  1  0  0  0  0
 21  4  1  0  0  0  0
 22  5  1  0  0  0  0
 26 12  1  0  0  0  0
 28 14  1  0  0  0  0
 29 15  1  0  0  0  0
M  END
>  <HBA>
3

>  <HBD>
4

>  <TPSA>
82.27

>  <cid>
41361

>  <dipole>
3.34

>  <excitation_energy_1>
4.105

>  <excitation_energy_2>
4.296

>  <excitation_energy_3>
4.473

>  <excitation_energy_4>
4.59

>  <homo_energy>
-4.757

>  <homo_lumo_gap>
5.078

>  <logP>
2.171

>  <lumo_energy>
0.321

>  <melting_point>
234.64

>  <molecular_refractivity>
59.63

>  <oscillator_strength_1>
0.0002

>  <oscillator_strength_2>
0.0011

>  <oscillator_strength_3>
0.0954

>  <oscillator_strength_4>
0.0033

>  <open_babel_can_smiles>
NCCCc1c[nH]c2c1c(O)ccc2O

>  <mulliken_charges>
29
1   -0.238069
2   -0.351717
3   -0.205816
4   -0.221861
5   -0.137514
6   -0.001273
7   0.077633
8   0.259208
9   0.317984
10   0.056186
11   0.273714
12   -0.71931
13   -0.686796
14   -0.65494
15   -0.673329
16   0.114773
17   0.14103
18   0.164457
19   0.132107
20   0.105673
21   0.110397
22   0.143964
23   0.124038
24   0.143668
25   0.286062
26   0.2898
27   0.33704
28   0.404667
29   0.408224

>  <lowdin_charges>
29
1   -0.270629
2   -0.273405
3   -0.230803
4   -0.218837
5   -0.205111
6   -0.140987
7   -0.050949
8   0.084004
9   0.062817
10   -0.053231
11   0.01399
12   -0.562374
13   -0.190229
14   -0.385467
15   -0.400213
16   0.129284
17   0.145032
18   0.159754
19   0.149011
20   0.148556
21   0.150987
22   0.141855
23   0.122363
24   0.163338
25   0.245975
26   0.251858
27   0.298546
28   0.355632
29   0.359233

$$$$

