PCCDB-ID:  23313
public computational chemistry database (PCCDB) project, http://pccdb.org

 24 24  0  0  1  0  0  0  0  0999 V2000
    2.8180   -0.2068   -1.5021 C   0  0  0  0  0  0  0  0  0  0  0  0
    2.5370   -1.5713    2.1393 C   0  0  0  0  0  0  0  0  0  0  0  0
    4.6751    1.2328    0.6849 C   0  0  0  0  0  0  0  0  0  0  0  0
    5.2303    0.0214    1.4490 C   0  0  0  0  0  0  0  0  0  0  0  0
    3.1399    1.1896    0.6153 C   0  0  0  0  0  0  0  0  0  0  0  0
    4.7214   -1.2971    0.8432 C   0  0  0  0  0  0  0  0  0  0  0  0
    2.5961   -0.1292    0.0182 C   0  0  2  0  0  0  0  0  0  0  0  0
    3.1788   -1.3680    0.7561 C   0  0  2  0  0  0  0  0  0  0  0  0
    2.3512    0.6470   -2.0082 H   0  0  0  0  0  0  0  0  0  0  0  0
    2.3748   -1.1213   -1.9146 H   0  0  0  0  0  0  0  0  0  0  0  0
    3.8795   -0.2068   -1.7737 H   0  0  0  0  0  0  0  0  0  0  0  0
    2.9178   -2.4836    2.6145 H   0  0  0  0  0  0  0  0  0  0  0  0
    1.4479   -1.6694    2.0549 H   0  0  0  0  0  0  0  0  0  0  0  0
    2.7394   -0.7387    2.8220 H   0  0  0  0  0  0  0  0  0  0  0  0
    5.0971    1.2453   -0.3300 H   0  0  0  0  0  0  0  0  0  0  0  0
    4.9994    2.1668    1.1618 H   0  0  0  0  0  0  0  0  0  0  0  0
    4.9318    0.0897    2.5046 H   0  0  0  0  0  0  0  0  0  0  0  0
    6.3279    0.0351    1.4405 H   0  0  0  0  0  0  0  0  0  0  0  0
    2.7622    2.0391    0.0304 H   0  0  0  0  0  0  0  0  0  0  0  0
    2.7395    1.3180    1.6305 H   0  0  0  0  0  0  0  0  0  0  0  0
    5.0942   -2.1511    1.4247 H   0  0  0  0  0  0  0  0  0  0  0  0
    5.1460   -1.4070   -0.1644 H   0  0  0  0  0  0  0  0  0  0  0  0
    1.5075   -0.1363    0.1775 H   0  0  0  0  0  0  0  0  0  0  0  0
    2.9243   -2.2549    0.1568 H   0  0  0  0  0  0  0  0  0  0  0  0
  1  7  1  0  0  0  0
  2 12  1  0  0  0  0
  2 14  1  0  0  0  0
  3 16  1  0  0  0  0
  3  4  1  0  0  0  0
  4 17  1  0  0  0  0
  5  3  1  0  0  0  0
  5 20  1  0  0  0  0
  6 21  1  0  0  0  0
  6  4  1  0  0  0  0
  7 23  1  1  0  0  0
  7  5  1  0  0  0  0
  7  8  1  0  0  0  0
  8 24  1  6  0  0  0
  8  6  1  0  0  0  0
  8  2  1  0  0  0  0
  9  1  1  0  0  0  0
 10  1  1  0  0  0  0
 11  1  1  0  0  0  0
 13  2  1  0  0  0  0
 15  3  1  0  0  0  0
 18  4  1  0  0  0  0
 19  5  1  0  0  0  0
 22  6  1  0  0  0  0
M  END
>  <HBA>
0

>  <HBD>
0

>  <TPSA>
0.0

>  <cid>
23313

>  <dipole>
0.01

>  <excitation_energy_1>
7.175

>  <excitation_energy_2>
7.253

>  <excitation_energy_3>
7.532

>  <excitation_energy_4>
7.606

>  <homo_energy>
-7.725

>  <homo_lumo_gap>
9.78

>  <logP>
2.833

>  <lumo_energy>
2.054

>  <melting_point>
-5.31

>  <molecular_refractivity>
38.46

>  <oscillator_strength_1>
0.0017

>  <oscillator_strength_2>
0.0022

>  <oscillator_strength_3>
0.0022

>  <oscillator_strength_4>
0.001

>  <open_babel_can_smiles>
C[C@@H]1CCCC[C@H]1C

>  <mulliken_charges>
24
1   -0.455581
2   -0.455602
3   -0.259186
4   -0.259363
5   -0.264331
6   -0.264335
7   -0.068729
8   -0.068373
9   0.138548
10   0.139156
11   0.14439
12   0.138551
13   0.139055
14   0.144471
15   0.129566
16   0.12796
17   0.129602
18   0.127955
19   0.125592
20   0.128448
21   0.125558
22   0.128395
23   0.114186
24   0.114067

>  <lowdin_charges>
24
1   -0.448937
2   -0.447968
3   -0.278757
4   -0.275442
5   -0.280858
6   -0.281153
7   -0.124928
8   -0.127629
9   0.14818
10   0.147675
11   0.144205
12   0.14776
13   0.145273
14   0.146309
15   0.136639
16   0.14265
17   0.135951
18   0.140283
19   0.141949
20   0.138259
21   0.141877
22   0.138318
23   0.133844
24   0.136499

$$$$

