PCCDB-ID:  28569
public computational chemistry database (PCCDB) project, http://pccdb.org

 24 25  0  0  1  0  0  0  0  0999 V2000
    1.7970    0.2561   -1.1893 C   0  0  0  0  0  0  0  0  0  0  0  0
    2.6676   -1.4060    0.6024 C   0  0  0  0  0  0  0  0  0  0  0  0
    2.5349   -1.3021    2.1443 C   0  0  0  0  0  0  0  0  0  0  0  0
    3.4848    1.3643    4.9427 C   0  0  0  0  0  0  0  0  0  0  0  0
    4.4916    1.8165    3.8908 C   0  0  0  0  0  0  0  0  0  0  0  0
    2.2351    0.9164    1.2610 C   0  0  0  0  0  0  0  0  0  0  0  0
    2.6639    0.0571    0.0557 C   0  0  2  0  0  0  0  0  0  0  0  0
    2.8116    0.1817    2.4875 C   0  0  0  0  0  0  0  0  0  0  0  0
    1.9945    0.7331    4.0750 S   0  0  0  0  0  0  0  0  0  0  0  0
    4.6426    0.4613    2.6709 S   0  0  0  0  0  0  0  0  0  0  0  0
    2.1418   -0.3754   -2.0169 H   0  0  0  0  0  0  0  0  0  0  0  0
    1.8231    1.2971   -1.5335 H   0  0  0  0  0  0  0  0  0  0  0  0
    0.7500   -0.0030   -0.9860 H   0  0  0  0  0  0  0  0  0  0  0  0
    1.8347   -1.9826    0.1836 H   0  0  0  0  0  0  0  0  0  0  0  0
    3.5867   -1.9256    0.3115 H   0  0  0  0  0  0  0  0  0  0  0  0
    3.1919   -1.9800    2.6953 H   0  0  0  0  0  0  0  0  0  0  0  0
    1.5078   -1.5315    2.4491 H   0  0  0  0  0  0  0  0  0  0  0  0
    3.1663    2.1984    5.5773 H   0  0  0  0  0  0  0  0  0  0  0  0
    3.9113    0.5798    5.5736 H   0  0  0  0  0  0  0  0  0  0  0  0
    5.4840    1.9791    4.3246 H   0  0  0  0  0  0  0  0  0  0  0  0
    4.1656    2.7397    3.4018 H   0  0  0  0  0  0  0  0  0  0  0  0
    1.1385    0.9242    1.3469 H   0  0  0  0  0  0  0  0  0  0  0  0
    2.5658    1.9577    1.1974 H   0  0  0  0  0  0  0  0  0  0  0  0
    3.6962    0.3309   -0.1960 H   0  0  0  0  0  0  0  0  0  0  0  0
  1 13  1  0  0  0  0
  1  7  1  0  0  0  0
  2  3  1  0  0  0  0
  3 17  1  0  0  0  0
  3  8  1  0  0  0  0
  3 16  1  0  0  0  0
  4 19  1  0  0  0  0
  4 18  1  0  0  0  0
  5 20  1  0  0  0  0
  5  4  1  0  0  0  0
  6 22  1  0  0  0  0
  6  8  1  0  0  0  0
  7 24  1  6  0  0  0
  7  2  1  0  0  0  0
  7  6  1  0  0  0  0
  8 10  1  0  0  0  0
  8  9  1  0  0  0  0
  9  4  1  0  0  0  0
 10  5  1  0  0  0  0
 11  1  1  0  0  0  0
 12  1  1  0  0  0  0
 14  2  1  0  0  0  0
 15  2  1  0  0  0  0
 21  5  1  0  0  0  0
 23  6  1  0  0  0  0
M  END
>  <HBA>
2

>  <HBD>
0

>  <TPSA>
50.6

>  <cid>
28569

>  <dipole>
0.87

>  <excitation_energy_1>
4.667

>  <excitation_energy_2>
4.841

>  <excitation_energy_3>
5.464

>  <excitation_energy_4>
5.627

>  <homo_energy>
-5.989

>  <homo_lumo_gap>
6.057

>  <logP>
2.983

>  <lumo_energy>
0.068

>  <melting_point>
46.23

>  <molecular_refractivity>
51.56

>  <oscillator_strength_1>
0.0002

>  <oscillator_strength_2>
0.0056

>  <oscillator_strength_3>
0.0123

>  <oscillator_strength_4>
0.0136

>  <open_babel_can_smiles>
C[C@@H]1CCC2(C1)SCCS2

>  <mulliken_charges>
24
1   -0.452664
2   -0.285302
3   -0.27283
4   -0.409344
5   -0.416534
6   -0.247465
7   -0.077963
8   -0.261576
9   0.100159
10   0.107652
11   0.144593
12   0.143329
13   0.139494
14   0.139871
15   0.146526
16   0.163081
17   0.159575
18   0.180373
19   0.189059
20   0.182154
21   0.185503
22   0.146392
23   0.149084
24   0.146835

>  <lowdin_charges>
24
1   -0.441041
2   -0.291212
3   -0.285276
4   -0.376624
5   -0.374278
6   -0.281629
7   -0.129645
8   -0.179276
9   0.084336
10   0.09612
11   0.150761
12   0.148283
13   0.143674
14   0.1481
15   0.150529
16   0.16189
17   0.155759
18   0.171264
19   0.166212
20   0.172621
21   0.162846
22   0.14709
23   0.152326
24   0.14717

$$$$

