PCCDB-ID:  69058
public computational chemistry database (PCCDB) project, http://pccdb.org

 23 23  0  0  0  0  0  0  0  0999 V2000
    3.4538   -1.3533   -0.3151 C   0  0  0  0  0  0  0  0  0  0  0  0
    2.1612    3.7509    2.8844 C   0  0  0  0  0  0  0  0  0  0  0  0
    1.6540   -2.2396    4.8784 C   0  0  0  0  0  0  0  0  0  0  0  0
    2.1018   -2.0336    3.5787 C   0  0  0  0  0  0  0  0  0  0  0  0
    1.0938   -1.1601    5.5625 C   0  0  0  0  0  0  0  0  0  0  0  0
    1.9797   -0.7611    3.0073 C   0  0  0  0  0  0  0  0  0  0  0  0
    1.3999    0.2569    3.7875 C   0  0  0  0  0  0  0  0  0  0  0  0
    2.4292   -0.4755    1.6154 C   0  0  0  0  0  0  0  0  0  0  0  0
    1.1683    1.6615    3.2668 C   0  0  0  0  0  0  0  0  0  0  0  0
    0.9642    0.0629    5.0369 N   0  0  0  0  0  0  0  0  0  0  0  0
    2.2944    0.5917    1.0512 O   0  0  0  0  0  0  0  0  0  0  0  0
    0.0988    2.0553    2.8663 O   0  0  0  0  0  0  0  0  0  0  0  0
    3.0083   -1.5505    1.0376 O   0  0  0  0  0  0  0  0  0  0  0  0
    2.2771    2.4084    3.3882 O   0  0  0  0  0  0  0  0  0  0  0  0
    4.2086   -0.5639   -0.3569 H   0  0  0  0  0  0  0  0  0  0  0  0
    2.6137   -1.0776   -0.9575 H   0  0  0  0  0  0  0  0  0  0  0  0
    3.8784   -2.3088   -0.6233 H   0  0  0  0  0  0  0  0  0  0  0  0
    1.3645    4.2888    3.4043 H   0  0  0  0  0  0  0  0  0  0  0  0
    1.9454    3.7283    1.8132 H   0  0  0  0  0  0  0  0  0  0  0  0
    3.1285    4.2170    3.0732 H   0  0  0  0  0  0  0  0  0  0  0  0
    1.7322   -3.2126    5.3531 H   0  0  0  0  0  0  0  0  0  0  0  0
    2.5417   -2.8390    3.0015 H   0  0  0  0  0  0  0  0  0  0  0  0
    0.7300   -1.2785    6.5815 H   0  0  0  0  0  0  0  0  0  0  0  0
  1 13  1  0  0  0  0
  2 20  1  0  0  0  0
  2 14  1  0  0  0  0
  2 18  1  0  0  0  0
  3 21  1  0  0  0  0
  3  5  2  0  0  0  0
  4  3  1  0  0  0  0
  5 23  1  0  0  0  0
  6  4  2  0  0  0  0
  6  7  1  0  0  0  0
  7 10  2  0  0  0  0
  8  6  1  0  0  0  0
  9 14  1  0  0  0  0
  9  7  1  0  0  0  0
 10  5  1  0  0  0  0
 11  8  2  0  0  0  0
 12  9  2  0  0  0  0
 13  8  1  0  0  0  0
 15  1  1  0  0  0  0
 16  1  1  0  0  0  0
 17  1  1  0  0  0  0
 19  2  1  0  0  0  0
 22  4  1  0  0  0  0
M  END
>  <HBA>
5

>  <HBD>
0

>  <TPSA>
65.49

>  <cid>
69058

>  <dipole>
4.35

>  <excitation_energy_1>
4.232

>  <excitation_energy_2>
4.749

>  <excitation_energy_3>
4.821

>  <excitation_energy_4>
4.896

>  <homo_energy>
-6.95

>  <homo_lumo_gap>
5.23

>  <logP>
0.655

>  <lumo_energy>
-1.72

>  <melting_point>
71.72

>  <molecular_refractivity>
46.8

>  <oscillator_strength_1>
0.0034

>  <oscillator_strength_2>
0.0113

>  <oscillator_strength_3>
0.0061

>  <oscillator_strength_4>
0.0264

>  <open_babel_can_smiles>
COC(=O)c1ncccc1C(=O)OC

>  <mulliken_charges>
23
1   -0.219374
2   -0.221057
3   -0.144718
4   -0.131241
5   0.053916
6   0.051913
7   0.204574
8   0.604136
9   0.594603
10   -0.457005
11   -0.486764
12   -0.459235
13   -0.468837
14   -0.436647
15   0.175703
16   0.178016
17   0.168143
18   0.172625
19   0.179882
20   0.162448
21   0.149407
22   0.173843
23   0.15567

>  <lowdin_charges>
23
1   -0.2765
2   -0.275738
3   -0.171796
4   -0.110161
5   -0.066492
6   -0.056252
7   0.056363
8   0.198305
9   0.19874
10   -0.130249
11   -0.25098
12   -0.239374
13   -0.188816
14   -0.176608
15   0.163036
16   0.164654
17   0.16267
18   0.161957
19   0.163004
20   0.159829
21   0.170093
22   0.181158
23   0.163159

$$$$

