PCCDB-ID:  4378
public computational chemistry database (PCCDB) project, http://pccdb.org

 22 21  0  0  1  0  0  0  0  0999 V2000
    1.0532    0.2864   -0.6058 C   0  0  0  0  0  0  0  0  0  0  0  0
    3.3325    1.0776    0.0911 C   0  0  0  0  0  0  0  0  0  0  0  0
    5.3666   -1.6383   -2.2954 C   0  0  0  0  0  0  0  0  0  0  0  0
    2.4998    0.5116   -1.0739 C   0  0  0  0  0  0  0  0  0  0  0  0
    3.1454   -0.7811   -1.6505 C   0  0  1  0  0  0  0  0  0  0  0  0
    2.2496   -1.4085   -2.7434 C   0  0  0  0  0  0  0  0  0  0  0  0
    4.4524   -0.4919   -2.2624 N   0  0  0  0  0  0  0  0  0  0  0  0
    1.3063   -2.1269   -2.5093 O   0  0  0  0  0  0  0  0  0  0  0  0
    2.6056   -1.0485   -3.9895 O   0  0  0  0  0  0  0  0  0  0  0  0
    0.6479    1.2191   -0.1977 H   0  0  0  0  0  0  0  0  0  0  0  0
    1.0112   -0.4729    0.1841 H   0  0  0  0  0  0  0  0  0  0  0  0
    0.4010   -0.0478   -1.4148 H   0  0  0  0  0  0  0  0  0  0  0  0
    2.8668    1.9907    0.4775 H   0  0  0  0  0  0  0  0  0  0  0  0
    4.3597    1.3414   -0.1881 H   0  0  0  0  0  0  0  0  0  0  0  0
    3.3856    0.3565    0.9162 H   0  0  0  0  0  0  0  0  0  0  0  0
    5.5649   -2.0670   -1.3000 H   0  0  0  0  0  0  0  0  0  0  0  0
    6.3168   -1.3300   -2.7416 H   0  0  0  0  0  0  0  0  0  0  0  0
    4.9397   -2.4264   -2.9244 H   0  0  0  0  0  0  0  0  0  0  0  0
    2.4896    1.2524   -1.8873 H   0  0  0  0  0  0  0  0  0  0  0  0
    3.2185   -1.5225   -0.8395 H   0  0  0  0  0  0  0  0  0  0  0  0
    4.9005    0.2902   -1.7954 H   0  0  0  0  0  0  0  0  0  0  0  0
    3.4461   -0.5372   -3.8640 H   0  0  0  0  0  0  0  0  0  0  0  0
  1 10  1  0  0  0  0
  1 11  1  0  0  0  0
  2 13  1  0  0  0  0
  2 15  1  0  0  0  0
  3  7  1  0  0  0  0
  3 16  1  0  0  0  0
  4  1  1  0  0  0  0
  4  2  1  0  0  0  0
  5  4  1  0  0  0  0
  5 20  1  1  0  0  0
  6  8  2  0  0  0  0
  6  5  1  0  0  0  0
  7 21  1  0  0  0  0
  7  5  1  0  0  0  0
  9 22  1  0  0  0  0
  9  6  1  0  0  0  0
 12  1  1  0  0  0  0
 14  2  1  0  0  0  0
 17  3  1  0  0  0  0
 18  3  1  0  0  0  0
 19  4  1  0  0  0  0
M  END
>  <HBA>
3

>  <HBD>
2

>  <TPSA>
49.33

>  <cid>
4378

>  <dipole>
5.19

>  <excitation_energy_1>
5.452

>  <excitation_energy_2>
6.001

>  <excitation_energy_3>
6.487

>  <excitation_energy_4>
6.674

>  <homo_energy>
-6.713

>  <homo_lumo_gap>
7.195

>  <logP>
0.706

>  <lumo_energy>
0.482

>  <melting_point>
77.78

>  <molecular_refractivity>
35.53

>  <oscillator_strength_1>
0.0014

>  <oscillator_strength_2>
0.0007

>  <oscillator_strength_3>
0.0188

>  <oscillator_strength_4>
0.0239

>  <open_babel_can_smiles>
CN[C@H](C(=O)O)C(C)C

>  <mulliken_charges>
22
1   -0.448267
2   -0.454786
3   -0.312735
4   -0.102927
5   -0.038474
6   0.602963
7   -0.61888
8   -0.468707
9   -0.58334
10   0.140315
11   0.150858
12   0.180613
13   0.158152
14   0.133716
15   0.152689
16   0.1463
17   0.160819
18   0.173872
19   0.136709
20   0.144301
21   0.318985
22   0.427823

>  <lowdin_charges>
22
1   -0.446815
2   -0.446522
3   -0.363734
4   -0.12397
5   -0.104515
6   0.173018
7   -0.367299
8   -0.255335
9   -0.359405
10   0.150082
11   0.153904
12   0.169512
13   0.159
14   0.140274
15   0.153087
16   0.137347
17   0.157617
18   0.16041
19   0.143612
20   0.148439
21   0.264412
22   0.35688

$$$$

