PCCDB-ID:  262
public computational chemistry database (PCCDB) project, http://pccdb.org

 16 15  0  0  1  0  0  0  0  0999 V2000
    0.9954   -0.0575   -0.1370 C   0  0  0  0  0  0  0  0  0  0  0  0
    4.5830    0.4318    1.3525 C   0  0  0  0  0  0  0  0  0  0  0  0
    2.5213   -0.0497   -0.0765 C   0  0  1  0  0  0  0  0  0  0  0  0
    3.0572    0.4240    1.2920 C   0  0  2  0  0  0  0  0  0  0  0  0
    3.0645   -1.3272   -0.4231 O   0  0  0  0  0  0  0  0  0  0  0  0
    2.5140    1.7016    1.6385 O   0  0  0  0  0  0  0  0  0  0  0  0
    0.5898    0.9314    0.0922 H   0  0  0  0  0  0  0  0  0  0  0  0
    0.5857   -0.7611    0.6019 H   0  0  0  0  0  0  0  0  0  0  0  0
    0.6545   -0.3673   -1.1299 H   0  0  0  0  0  0  0  0  0  0  0  0
    4.9886   -0.5572    1.1231 H   0  0  0  0  0  0  0  0  0  0  0  0
    4.9239    0.7412    2.3455 H   0  0  0  0  0  0  0  0  0  0  0  0
    4.9928    1.1355    0.6139 H   0  0  0  0  0  0  0  0  0  0  0  0
    2.9138    0.6307   -0.8458 H   0  0  0  0  0  0  0  0  0  0  0  0
    2.6646   -0.2563    2.0613 H   0  0  0  0  0  0  0  0  0  0  0  0
    2.6239   -1.9867    0.1373 H   0  0  0  0  0  0  0  0  0  0  0  0
    2.9548    2.3611    1.0783 H   0  0  0  0  0  0  0  0  0  0  0  0
  1  3  1  0  0  0  0
  1  7  1  0  0  0  0
  1  8  1  0  0  0  0
  2 11  1  0  0  0  0
  3 13  1  6  0  0  0
  3  4  1  0  0  0  0
  4  2  1  0  0  0  0
  4  6  1  0  0  0  0
  4 14  1  1  0  0  0
  5  3  1  0  0  0  0
  5 15  1  0  0  0  0
  9  1  1  0  0  0  0
 10  2  1  0  0  0  0
 12  2  1  0  0  0  0
 16  6  1  0  0  0  0
M  END
>  <HBA>
2

>  <HBD>
2

>  <TPSA>
40.46

>  <cid>
262

>  <dipole>
0.0

>  <excitation_energy_1>
6.338

>  <excitation_energy_2>
6.432

>  <excitation_energy_3>
7.145

>  <excitation_energy_4>
7.167

>  <homo_energy>
-6.77

>  <homo_lumo_gap>
8.672

>  <logP>
-0.252

>  <lumo_energy>
1.902

>  <melting_point>
12.0

>  <molecular_refractivity>
23.67

>  <oscillator_strength_1>
0.0143

>  <oscillator_strength_2>
0.0

>  <oscillator_strength_3>
0.016

>  <oscillator_strength_4>
0.0236

>  <open_babel_can_smiles>
C[C@H]([C@@H](O)C)O

>  <mulliken_charges>
16
1   -0.459034
2   -0.459079
3   0.124959
4   0.124906
5   -0.619677
6   -0.619675
7   0.165339
8   0.129256
9   0.154257
10   0.165349
11   0.154263
12   0.129259
13   0.120666
14   0.120666
15   0.384272
16   0.384274

>  <lowdin_charges>
16
1   -0.46171
2   -0.461719
3   -0.017537
4   -0.017537
5   -0.463496
6   -0.463499
7   0.16488
8   0.144096
9   0.155947
10   0.164883
11   0.155947
12   0.144097
13   0.137103
14   0.1371
15   0.340723
16   0.340724

$$$$

