PCCDB-ID:  61237
public computational chemistry database (PCCDB) project, http://pccdb.org

 14 13  0  0  0  0  0  0  0  0999 V2000
    0.9052   -0.0431   -0.2144 C   0  0  0  0  0  0  0  0  0  0  0  0
    2.6449   -0.5168    1.3937 C   0  0  0  0  0  0  0  0  0  0  0  0
    4.4229   -0.9969   -0.9100 C   0  0  0  0  0  0  0  0  0  0  0  0
    2.9518   -1.0513   -0.9491 C   0  0  0  0  0  0  0  0  0  0  0  0
    5.5824   -0.9724   -0.8796 N   0  0  0  0  0  0  0  0  0  0  0  0
    2.3416   -0.1429    0.0154 N   0  0  0  0  0  0  0  0  0  0  0  0
    0.4808    0.6849    0.4836 H   0  0  0  0  0  0  0  0  0  0  0  0
    0.3706   -1.0031   -0.0752 H   0  0  0  0  0  0  0  0  0  0  0  0
    0.7143    0.3121   -1.2329 H   0  0  0  0  0  0  0  0  0  0  0  0
    2.2202    0.2317    2.0694 H   0  0  0  0  0  0  0  0  0  0  0  0
    3.7283   -0.5349    1.5441 H   0  0  0  0  0  0  0  0  0  0  0  0
    2.2362   -1.5076    1.6722 H   0  0  0  0  0  0  0  0  0  0  0  0
    2.6469   -2.1086   -0.8076 H   0  0  0  0  0  0  0  0  0  0  0  0
    2.6321   -0.7621   -1.9573 H   0  0  0  0  0  0  0  0  0  0  0  0
  1  8  1  0  0  0  0
  1  6  1  0  0  0  0
  1  7  1  0  0  0  0
  2 11  1  0  0  0  0
  2 12  1  0  0  0  0
  2 10  1  0  0  0  0
  3  5  3  0  0  0  0
  4  3  1  0  0  0  0
  4 13  1  0  0  0  0
  4  6  1  0  0  0  0
  6  2  1  0  0  0  0
  9  1  1  0  0  0  0
 14  4  1  0  0  0  0
M  END
>  <HBA>
2

>  <HBD>
0

>  <TPSA>
27.03

>  <cid>
61237

>  <dipole>
4.12

>  <excitation_energy_1>
5.514

>  <excitation_energy_2>
5.933

>  <excitation_energy_3>
6.369

>  <excitation_energy_4>
6.42

>  <homo_energy>
-6.452

>  <homo_lumo_gap>
7.01

>  <logP>
0.072

>  <lumo_energy>
0.558

>  <melting_point>
11.3

>  <molecular_refractivity>
23.99

>  <oscillator_strength_1>
0.0155

>  <oscillator_strength_2>
0.018

>  <oscillator_strength_3>
0.0199

>  <oscillator_strength_4>
0.0081

>  <open_babel_can_smiles>
CN(CC#N)C

>  <mulliken_charges>
14
1   -0.298659
2   -0.316582
3   0.363453
4   -0.179146
5   -0.47423
6   -0.363585
7   0.16354
8   0.125616
9   0.156295
10   0.160912
11   0.180647
12   0.124645
13   0.163743
14   0.19335

>  <lowdin_charges>
14
1   -0.356401
2   -0.359628
3   -0.017282
4   -0.191201
5   -0.117903
6   -0.173022
7   0.160091
8   0.125054
9   0.152778
10   0.158976
11   0.164019
12   0.124515
13   0.149812
14   0.180193

$$$$

