PCCDB-ID:  556
public computational chemistry database (PCCDB) project, http://pccdb.org

 29 28  0  0  1  0  0  0  0  0999 V2000
    1.6164    0.4608   -2.0667 C   0  0  0  0  0  0  0  0  0  0  0  0
    0.7925   -0.3832   -1.0740 C   0  0  0  0  0  0  0  0  0  0  0  0
   -1.6804   -2.7957   -2.2494 C   0  0  0  0  0  0  0  0  0  0  0  0
   -3.0856   -3.3797   -1.9879 C   0  0  0  0  0  0  0  0  0  0  0  0
    3.0967    0.2582   -1.8332 C   0  0  0  0  0  0  0  0  0  0  0  0
   -0.7345   -0.1523   -1.1701 C   0  0  1  0  0  0  0  0  0  0  0  0
   -1.6700   -1.4523   -2.9703 C   0  0  0  0  0  0  0  0  0  0  0  0
   -3.7237   -4.0393   -3.2038 C   0  0  0  0  0  0  0  0  0  0  0  0
   -1.0446    1.2981   -0.7294 C   0  0  0  0  0  0  0  0  0  0  0  0
   -1.2519   -0.3377   -2.5125 N   0  0  0  0  0  0  0  0  0  0  0  0
    3.8594   -0.2419   -2.6299 O   0  0  0  0  0  0  0  0  0  0  0  0
   -2.1476   -1.4553   -4.2251 O   0  0  0  0  0  0  0  0  0  0  0  0
   -3.3128   -3.9222   -4.3404 O   0  0  0  0  0  0  0  0  0  0  0  0
   -4.8122   -4.7950   -2.9720 O   0  0  0  0  0  0  0  0  0  0  0  0
   -0.8298    1.6858    0.3960 O   0  0  0  0  0  0  0  0  0  0  0  0
   -1.5304    2.0812   -1.7004 O   0  0  0  0  0  0  0  0  0  0  0  0
    1.3900    1.5263   -1.9144 H   0  0  0  0  0  0  0  0  0  0  0  0
    1.3803    0.1994   -3.1014 H   0  0  0  0  0  0  0  0  0  0  0  0
    1.0882   -0.1531   -0.0438 H   0  0  0  0  0  0  0  0  0  0  0  0
    1.0002   -1.4471   -1.2463 H   0  0  0  0  0  0  0  0  0  0  0  0
   -1.1022   -3.5125   -2.8450 H   0  0  0  0  0  0  0  0  0  0  0  0
   -1.1693   -2.6982   -1.2907 H   0  0  0  0  0  0  0  0  0  0  0  0
   -3.7702   -2.6033   -1.6186 H   0  0  0  0  0  0  0  0  0  0  0  0
   -3.0152   -4.1304   -1.1897 H   0  0  0  0  0  0  0  0  0  0  0  0
    3.4606    0.5943   -0.8343 H   0  0  0  0  0  0  0  0  0  0  0  0
   -1.2158   -0.7952   -0.4189 H   0  0  0  0  0  0  0  0  0  0  0  0
   -2.4510   -2.3590   -4.4698 H   0  0  0  0  0  0  0  0  0  0  0  0
   -5.0276   -4.8138   -2.0242 H   0  0  0  0  0  0  0  0  0  0  0  0
   -1.6078    1.4939   -2.4947 H   0  0  0  0  0  0  0  0  0  0  0  0
  1 17  1  0  0  0  0
  1  5  1  0  0  0  0
  1  2  1  0  0  0  0
  2 19  1  0  0  0  0
  3  4  1  0  0  0  0
  3 22  1  0  0  0  0
  4 23  1  0  0  0  0
  4 24  1  0  0  0  0
  5 25  1  0  0  0  0
  6  2  1  0  0  0  0
  6  9  1  0  0  0  0
  6 26  1  1  0  0  0
  7 10  2  0  0  0  0
  7  3  1  0  0  0  0
  8 14  1  0  0  0  0
  8  4  1  0  0  0  0
  9 15  2  0  0  0  0
 10  6  1  0  0  0  0
 11  5  2  0  0  0  0
 12  7  1  0  0  0  0
 13  8  2  0  0  0  0
 14 28  1  0  0  0  0
 16  9  1  0  0  0  0
 18  1  1  0  0  0  0
 20  2  1  0  0  0  0
 21  3  1  0  0  0  0
 27 12  1  0  0  0  0
 29 16  1  0  0  0  0
M  END
>  <HBA>
7

>  <HBD>
3

>  <TPSA>
120.77

>  <cid>
556

>  <dipole>
8.23

>  <excitation_energy_1>
4.197

>  <excitation_energy_2>
5.254

>  <excitation_energy_3>
5.295

>  <excitation_energy_4>
5.379

>  <homo_energy>
-6.836

>  <homo_lumo_gap>
5.704

>  <logP>
-0.209

>  <lumo_energy>
-1.132

>  <melting_point>
206.06

>  <molecular_refractivity>
52.12

>  <oscillator_strength_1>
0.0003

>  <oscillator_strength_2>
0.0183

>  <oscillator_strength_3>
0.0004

>  <oscillator_strength_4>
0.0002

>  <open_babel_can_smiles>
O=CCC[C@@H](C(=O)O)/N=C(\CCC(=O)O)/O

>  <mulliken_charges>
29
1   -0.34103
2   -0.282921
3   -0.380246
4   -0.413663
5   0.252402
6   -0.077868
7   0.508227
8   0.629774
9   0.600025
10   -0.479801
11   -0.380936
12   -0.593482
13   -0.456455
14   -0.540084
15   -0.472939
16   -0.578181
17   0.176146
18   0.180254
19   0.174597
20   0.146556
21   0.197688
22   0.179604
23   0.20857
24   0.182282
25   0.105357
26   0.147564
27   0.449933
28   0.425027
29   0.4336

>  <lowdin_charges>
29
1   -0.310637
2   -0.269893
3   -0.307732
4   -0.322814
5   0.059073
6   -0.106228
7   0.145087
8   0.21049
9   0.173872
10   -0.236138
11   -0.216354
12   -0.355741
13   -0.247893
14   -0.320932
15   -0.26332
16   -0.347388
17   0.169194
18   0.168346
19   0.164199
20   0.144691
21   0.181397
22   0.17273
23   0.185111
24   0.173668
25   0.114438
26   0.151141
27   0.362505
28   0.367609
29   0.361517

$$$$

