PCCDB-ID:  18488
public computational chemistry database (PCCDB) project, http://pccdb.org

 37 37  0  0  0  0  0  0  0  0999 V2000
    2.5283    0.6557   -4.0270 C   0  0  0  0  0  0  0  0  0  0  0  0
    3.5799   -0.0633    0.9983 C   0  0  0  0  0  0  0  0  0  0  0  0
    7.6857    2.3817   -1.6857 C   0  0  0  0  0  0  0  0  0  0  0  0
    3.4853    0.1504   -2.9418 C   0  0  0  0  0  0  0  0  0  0  0  0
    3.9573   -0.2736   -0.4737 C   0  0  0  0  0  0  0  0  0  0  0  0
    7.3956    5.8969   -0.2149 C   0  0  0  0  0  0  0  0  0  0  0  0
    6.0327    5.9644    0.0727 C   0  0  0  0  0  0  0  0  0  0  0  0
    7.9100    4.7322   -0.7862 C   0  0  0  0  0  0  0  0  0  0  0  0
    5.1954    4.8864   -0.2074 C   0  0  0  0  0  0  0  0  0  0  0  0
    7.0980    3.6336   -1.0794 C   0  0  0  0  0  0  0  0  0  0  0  0
    5.7185    3.7214   -0.7841 C   0  0  0  0  0  0  0  0  0  0  0  0
    2.7164    1.8675   -1.2149 C   0  0  0  0  0  0  0  0  0  0  0  0
    2.9905    0.3628   -1.4953 C   0  0  0  0  0  0  0  0  0  0  0  0
    4.9018    2.5951   -1.0242 N   0  0  0  0  0  0  0  0  0  0  0  0
    3.5289    2.8337   -1.0206 N   0  0  0  0  0  0  0  0  0  0  0  0
    1.4001    2.1915   -1.2116 O   0  0  0  0  0  0  0  0  0  0  0  0
    1.7144   -0.3233   -1.4277 O   0  0  0  0  0  0  0  0  0  0  0  0
    2.9490    0.4653   -5.0199 H   0  0  0  0  0  0  0  0  0  0  0  0
    2.3490    1.7326   -3.9397 H   0  0  0  0  0  0  0  0  0  0  0  0
    1.5646    0.1419   -3.9650 H   0  0  0  0  0  0  0  0  0  0  0  0
    4.2999   -0.5727    1.6468 H   0  0  0  0  0  0  0  0  0  0  0  0
    2.5907   -0.4704    1.2531 H   0  0  0  0  0  0  0  0  0  0  0  0
    3.5828    0.9995    1.2567 H   0  0  0  0  0  0  0  0  0  0  0  0
    8.7695    2.4775   -1.7997 H   0  0  0  0  0  0  0  0  0  0  0  0
    7.2778    2.1659   -2.6858 H   0  0  0  0  0  0  0  0  0  0  0  0
    7.4938    1.4969   -1.0630 H   0  0  0  0  0  0  0  0  0  0  0  0
    4.4645    0.6325   -3.0602 H   0  0  0  0  0  0  0  0  0  0  0  0
    3.6543   -0.9265   -3.0666 H   0  0  0  0  0  0  0  0  0  0  0  0
    3.9974   -1.3454   -0.7083 H   0  0  0  0  0  0  0  0  0  0  0  0
    4.9621    0.1255   -0.6290 H   0  0  0  0  0  0  0  0  0  0  0  0
    8.0513    6.7348    0.0041 H   0  0  0  0  0  0  0  0  0  0  0  0
    5.6110    6.8624    0.5172 H   0  0  0  0  0  0  0  0  0  0  0  0
    8.9720    4.6666   -1.0139 H   0  0  0  0  0  0  0  0  0  0  0  0
    4.1341    4.9301    0.0032 H   0  0  0  0  0  0  0  0  0  0  0  0
    5.2316    2.0263   -1.7977 H   0  0  0  0  0  0  0  0  0  0  0  0
    0.9318    1.3460   -1.3698 H   0  0  0  0  0  0  0  0  0  0  0  0
    1.5851   -0.6181   -0.5115 H   0  0  0  0  0  0  0  0  0  0  0  0
  1 20  1  0  0  0  0
  1 19  1  0  0  0  0
  1  4  1  0  0  0  0
  2 22  1  0  0  0  0
  2 23  1  0  0  0  0
  2 21  1  0  0  0  0
  3 10  1  0  0  0  0
  3 26  1  0  0  0  0
  4 13  1  0  0  0  0
  5  2  1  0  0  0  0
  6 31  1  0  0  0  0
  6  7  2  0  0  0  0
  7 32  1  0  0  0  0
  8  6  1  0  0  0  0
  9 34  1  0  0  0  0
  9  7  1  0  0  0  0
 10  8  2  0  0  0  0
 10 11  1  0  0  0  0
 11  9  2  0  0  0  0
 12 16  1  0  0  0  0
 12 15  2  0  0  0  0
 13 17  1  0  0  0  0
 13 12  1  0  0  0  0
 13  5  1  0  0  0  0
 14 15  1  0  0  0  0
 14 11  1  0  0  0  0
 17 37  1  0  0  0  0
 18  1  1  0  0  0  0
 24  3  1  0  0  0  0
 25  3  1  0  0  0  0
 27  4  1  0  0  0  0
 28  4  1  0  0  0  0
 29  5  1  0  0  0  0
 30  5  1  0  0  0  0
 33  8  1  0  0  0  0
 35 14  1  0  0  0  0
 36 16  1  0  0  0  0
M  END
>  <HBA>
4

>  <HBD>
3

>  <TPSA>
61.36

>  <cid>
18488

>  <dipole>
4.5

>  <excitation_energy_1>
4.153

>  <excitation_energy_2>
4.356

>  <excitation_energy_3>
4.54

>  <excitation_energy_4>
4.685

>  <homo_energy>
-4.936

>  <homo_lumo_gap>
5.233

>  <logP>
2.453

>  <lumo_energy>
0.297

>  <melting_point>
117.6

>  <molecular_refractivity>
68.95

>  <oscillator_strength_1>
0.0013

>  <oscillator_strength_2>
0.1076

>  <oscillator_strength_3>
0.0253

>  <oscillator_strength_4>
0.159

>  <open_babel_can_smiles>
CCC(/C(=N\Nc1ccccc1C)/O)(CC)O

>  <mulliken_charges>
37
1   -0.468446
2   -0.473751
3   -0.561485
4   -0.256608
5   -0.284847
6   -0.127166
7   -0.146945
8   -0.20112
9   -0.153871
10   0.153492
11   0.267691
12   0.488478
13   0.220285
14   -0.567392
15   -0.315018
16   -0.605782
17   -0.671172
18   0.150119
19   0.170274
20   0.167784
21   0.161762
22   0.126069
23   0.191992
24   0.162511
25   0.147361
26   0.160843
27   0.132603
28   0.151731
29   0.147445
30   0.159163
31   0.11682
32   0.122524
33   0.113634
34   0.157122
35   0.330371
36   0.423986
37   0.409543

>  <lowdin_charges>
37
1   -0.44963
2   -0.450602
3   -0.446235
4   -0.270031
5   -0.288815
6   -0.185332
7   -0.1526
8   -0.161583
9   -0.186749
10   -0.038317
11   0.040732
12   0.084697
13   0.092285
14   -0.227536
15   -0.144435
16   -0.3691
17   -0.452168
18   0.155317
19   0.158845
20   0.159595
21   0.16406
22   0.135784
23   0.170211
24   0.160292
25   0.147058
26   0.154327
27   0.141319
28   0.152108
29   0.148591
30   0.159821
31   0.153938
32   0.155089
33   0.148805
34   0.17274
35   0.262267
36   0.356363
37   0.348886

$$$$

