PCCDB-ID:  36292
public computational chemistry database (PCCDB) project, http://pccdb.org

 27 26  0  0  1  0  0  0  0  0999 V2000
    2.5728   -1.9244   -1.0549 C   0  0  0  0  0  0  0  0  0  0  0  0
    4.0650   -5.3938   -0.0142 C   0  0  0  0  0  0  0  0  0  0  0  0
    6.7104   -3.3159   -2.9769 C   0  0  0  0  0  0  0  0  0  0  0  0
    6.2505   -1.7813   -1.0380 C   0  0  0  0  0  0  0  0  0  0  0  0
    7.1098   -4.1208   -0.6282 C   0  0  0  0  0  0  0  0  0  0  0  0
    2.6655   -3.4154   -0.7254 C   0  0  0  0  0  0  0  0  0  0  0  0
    4.0855   -3.9157   -0.4212 C   0  0  2  0  0  0  0  0  0  0  0  0
    6.2224   -3.2406   -1.5249 C   0  0  0  0  0  0  0  0  0  0  0  0
    4.8696   -3.7362   -1.6069 O   0  0  0  0  0  0  0  0  0  0  0  0
    1.5372   -1.6327   -1.2633 H   0  0  0  0  0  0  0  0  0  0  0  0
    3.1761   -1.6861   -1.9358 H   0  0  0  0  0  0  0  0  0  0  0  0
    2.9306   -1.3062   -0.2219 H   0  0  0  0  0  0  0  0  0  0  0  0
    3.4378   -5.5442    0.8728 H   0  0  0  0  0  0  0  0  0  0  0  0
    5.0679   -5.7651    0.2119 H   0  0  0  0  0  0  0  0  0  0  0  0
    3.6563   -5.9994   -0.8311 H   0  0  0  0  0  0  0  0  0  0  0  0
    7.7394   -2.9503   -3.0643 H   0  0  0  0  0  0  0  0  0  0  0  0
    6.0678   -2.7094   -3.6233 H   0  0  0  0  0  0  0  0  0  0  0  0
    6.6742   -4.3499   -3.3348 H   0  0  0  0  0  0  0  0  0  0  0  0
    7.2749   -1.3919   -1.0588 H   0  0  0  0  0  0  0  0  0  0  0  0
    5.8849   -1.6855   -0.0100 H   0  0  0  0  0  0  0  0  0  0  0  0
    5.6302   -1.1504   -1.6823 H   0  0  0  0  0  0  0  0  0  0  0  0
    8.1485   -3.7728   -0.6664 H   0  0  0  0  0  0  0  0  0  0  0  0
    7.0860   -5.1622   -0.9655 H   0  0  0  0  0  0  0  0  0  0  0  0
    6.7910   -4.0874    0.4194 H   0  0  0  0  0  0  0  0  0  0  0  0
    2.2767   -4.0036   -1.5675 H   0  0  0  0  0  0  0  0  0  0  0  0
    2.0282   -3.6462    0.1391 H   0  0  0  0  0  0  0  0  0  0  0  0
    4.5001   -3.3167    0.4030 H   0  0  0  0  0  0  0  0  0  0  0  0
  1  6  1  0  0  0  0
  1 12  1  0  0  0  0
  2 14  1  0  0  0  0
  2 13  1  0  0  0  0
  3  8  1  0  0  0  0
  4 20  1  0  0  0  0
  5 24  1  0  0  0  0
  6  7  1  0  0  0  0
  6 26  1  0  0  0  0
  7  2  1  0  0  0  0
  7 27  1  1  0  0  0
  8  4  1  0  0  0  0
  8  5  1  0  0  0  0
  9  8  1  0  0  0  0
  9  7  1  0  0  0  0
 10  1  1  0  0  0  0
 11  1  1  0  0  0  0
 15  2  1  0  0  0  0
 16  3  1  0  0  0  0
 17  3  1  0  0  0  0
 18  3  1  0  0  0  0
 19  4  1  0  0  0  0
 21  4  1  0  0  0  0
 22  5  1  0  0  0  0
 23  5  1  0  0  0  0
 25  6  1  0  0  0  0
M  END
>  <HBA>
1

>  <HBD>
0

>  <TPSA>
9.23

>  <cid>
36292

>  <dipole>
1.05

>  <excitation_energy_1>
6.164

>  <excitation_energy_2>
6.629

>  <excitation_energy_3>
6.692

>  <excitation_energy_4>
6.791

>  <homo_energy>
-6.534

>  <homo_lumo_gap>
8.626

>  <logP>
2.6

>  <lumo_energy>
2.093

>  <melting_point>
-25.82

>  <molecular_refractivity>
41.69

>  <oscillator_strength_1>
0.0167

>  <oscillator_strength_2>
0.0105

>  <oscillator_strength_3>
0.0059

>  <oscillator_strength_4>
0.0033

>  <open_babel_can_smiles>
CC[C@H](OC(C)(C)C)C

>  <mulliken_charges>
27
1   -0.447891
2   -0.452711
3   -0.444196
4   -0.454988
5   -0.45922
6   -0.250557
7   0.159422
8   0.326934
9   -0.515408
10   0.138975
11   0.159392
12   0.134327
13   0.134062
14   0.146604
15   0.149617
16   0.134185
17   0.149627
18   0.149541
19   0.138893
20   0.14184
21   0.152472
22   0.140526
23   0.151794
24   0.142965
25   0.139074
26   0.125443
27   0.10928

>  <lowdin_charges>
27
1   -0.447404
2   -0.458111
3   -0.443254
4   -0.456929
5   -0.453509
6   -0.279949
7   0.004647
8   0.136191
9   -0.281017
10   0.147781
11   0.154466
12   0.143834
13   0.148252
14   0.152135
15   0.154362
16   0.146894
17   0.156073
18   0.153654
19   0.150565
20   0.147229
21   0.156322
22   0.15145
23   0.152902
24   0.147858
25   0.147206
26   0.14208
27   0.12627

$$$$

