PCCDB-ID:  24361
public computational chemistry database (PCCDB) project, http://pccdb.org

 37 38  0  0  0  0  0  0  0  0999 V2000
    1.1598    1.3615   -1.6513 C   0  0  0  0  0  0  0  0  0  0  0  0
    3.2379   -1.2004    2.1933 C   0  0  0  0  0  0  0  0  0  0  0  0
    1.0774   -5.9721   -2.1846 C   0  0  0  0  0  0  0  0  0  0  0  0
    1.3098   -6.0983   -0.6495 C   0  0  0  0  0  0  0  0  0  0  0  0
    4.6573    1.4829   -0.1240 C   0  0  0  0  0  0  0  0  0  0  0  0
    3.5599    1.7413   -0.9436 C   0  0  0  0  0  0  0  0  0  0  0  0
    4.5485    0.5272    0.8849 C   0  0  0  0  0  0  0  0  0  0  0  0
    1.3889   -4.4989   -2.5021 C   0  0  0  0  0  0  0  0  0  0  0  0
    1.7019   -4.6785   -0.1984 C   0  0  0  0  0  0  0  0  0  0  0  0
    1.5456   -2.4135   -1.1711 C   0  0  0  0  0  0  0  0  0  0  0  0
    2.3550    1.0498   -0.7820 C   0  0  0  0  0  0  0  0  0  0  0  0
    3.3621   -0.1860    1.0823 C   0  0  0  0  0  0  0  0  0  0  0  0
    0.7210   -1.6572   -0.1214 C   0  0  0  0  0  0  0  0  0  0  0  0
    2.2666    0.0655    0.2265 C   0  0  0  0  0  0  0  0  0  0  0  0
    1.0353   -0.5798    0.4718 N   0  0  0  0  0  0  0  0  0  0  0  0
    1.1177   -3.8078   -1.2334 N   0  0  0  0  0  0  0  0  0  0  0  0
   -0.4693   -2.2351    0.1308 O   0  0  0  0  0  0  0  0  0  0  0  0
    1.3275    2.2744   -2.2317 H   0  0  0  0  0  0  0  0  0  0  0  0
    0.2565    1.4940   -1.0454 H   0  0  0  0  0  0  0  0  0  0  0  0
    0.9413    0.5567   -2.3671 H   0  0  0  0  0  0  0  0  0  0  0  0
    4.0954   -1.1455    2.8716 H   0  0  0  0  0  0  0  0  0  0  0  0
    3.1863   -2.2298    1.8120 H   0  0  0  0  0  0  0  0  0  0  0  0
    2.3217   -1.0377    2.7723 H   0  0  0  0  0  0  0  0  0  0  0  0
    0.0381   -6.2052   -2.4345 H   0  0  0  0  0  0  0  0  0  0  0  0
    1.7133   -6.6480   -2.7633 H   0  0  0  0  0  0  0  0  0  0  0  0
    2.0925   -6.8213   -0.4026 H   0  0  0  0  0  0  0  0  0  0  0  0
    0.3950   -6.4257   -0.1468 H   0  0  0  0  0  0  0  0  0  0  0  0
    5.5848    2.0322   -0.2606 H   0  0  0  0  0  0  0  0  0  0  0  0
    3.6297    2.4995   -1.7207 H   0  0  0  0  0  0  0  0  0  0  0  0
    5.3943    0.3319    1.5408 H   0  0  0  0  0  0  0  0  0  0  0  0
    0.7693   -4.0825   -3.3033 H   0  0  0  0  0  0  0  0  0  0  0  0
    2.4472   -4.3819   -2.7977 H   0  0  0  0  0  0  0  0  0  0  0  0
    2.8012   -4.5654   -0.1724 H   0  0  0  0  0  0  0  0  0  0  0  0
    1.3150   -4.4104    0.7899 H   0  0  0  0  0  0  0  0  0  0  0  0
    2.6195   -2.2964   -0.9625 H   0  0  0  0  0  0  0  0  0  0  0  0
    1.3542   -1.9483   -2.1464 H   0  0  0  0  0  0  0  0  0  0  0  0
   -0.4541   -3.0680   -0.4000 H   0  0  0  0  0  0  0  0  0  0  0  0
  1 19  1  0  0  0  0
  1 11  1  0  0  0  0
  2 23  1  0  0  0  0
  2 21  1  0  0  0  0
  3  4  1  0  0  0  0
  4 26  1  0  0  0  0
  4  9  1  0  0  0  0
  4 27  1  0  0  0  0
  5  7  2  0  0  0  0
  6 11  2  0  0  0  0
  6  5  1  0  0  0  0
  7 12  1  0  0  0  0
  7 30  1  0  0  0  0
  8  3  1  0  0  0  0
  8 16  1  0  0  0  0
  9 33  1  0  0  0  0
  9 34  1  0  0  0  0
 10 35  1  0  0  0  0
 10 13  1  0  0  0  0
 11 14  1  0  0  0  0
 12  2  1  0  0  0  0
 13 17  1  0  0  0  0
 13 15  2  0  0  0  0
 14 15  1  0  0  0  0
 14 12  2  0  0  0  0
 16 10  1  0  0  0  0
 16  9  1  0  0  0  0
 18  1  1  0  0  0  0
 20  1  1  0  0  0  0
 22  2  1  0  0  0  0
 24  3  1  0  0  0  0
 25  3  1  0  0  0  0
 28  5  1  0  0  0  0
 29  6  1  0  0  0  0
 31  8  1  0  0  0  0
 32  8  1  0  0  0  0
 36 10  1  0  0  0  0
 37 17  1  0  0  0  0
M  END
>  <HBA>
3

>  <HBD>
1

>  <TPSA>
32.34

>  <cid>
24361

>  <dipole>
5.18

>  <excitation_energy_1>
4.685

>  <excitation_energy_2>
4.919

>  <excitation_energy_3>
5.008

>  <excitation_energy_4>
5.324

>  <homo_energy>
-5.415

>  <homo_lumo_gap>
5.878

>  <logP>
2.349

>  <lumo_energy>
0.463

>  <melting_point>
90.83

>  <molecular_refractivity>
74.61

>  <oscillator_strength_1>
0.004

>  <oscillator_strength_2>
0.0212

>  <oscillator_strength_3>
0.0129

>  <oscillator_strength_4>
0.0676

>  <open_babel_can_smiles>
O/C(=N/c1c(C)cccc1C)/CN1CCCC1

>  <mulliken_charges>
37
1   -0.533044
2   -0.530905
3   -0.285621
4   -0.286527
5   -0.120307
6   -0.207525
7   -0.208375
8   -0.119828
9   -0.132936
10   -0.208829
11   0.176315
12   0.17579
13   0.495967
14   0.088336
15   -0.48235
16   -0.463866
17   -0.592623
18   0.147995
19   0.178375
20   0.142691
21   0.146444
22   0.142304
23   0.177527
24   0.153783
25   0.148992
26   0.150081
27   0.154906
28   0.117309
29   0.114341
30   0.114249
31   0.150988
32   0.129499
33   0.13267
34   0.163889
35   0.170449
36   0.180003
37   0.419835

>  <lowdin_charges>
37
1   -0.442922
2   -0.441808
3   -0.286346
4   -0.286776
5   -0.175268
6   -0.170654
7   -0.172302
8   -0.201238
9   -0.204909
10   -0.234982
11   -0.025432
12   -0.023838
13   0.129476
14   0.026767
15   -0.179679
16   -0.194943
17   -0.360692
18   0.15384
19   0.16852
20   0.148494
21   0.15321
22   0.147265
23   0.16822
24   0.152161
25   0.154366
26   0.15425
27   0.154063
28   0.153223
29   0.151144
30   0.151496
31   0.151543
32   0.125842
33   0.125372
34   0.154248
35   0.156779
36   0.169753
37   0.351758

$$$$

