PCCDB-ID:  33069
public computational chemistry database (PCCDB) project, http://pccdb.org

 31 31  0  0  1  0  0  0  0  0999 V2000
    0.8945   -1.1502   -0.9559 C   0  0  0  0  0  0  0  0  0  0  0  0
    4.3953   -1.9894    0.5405 C   0  0  0  0  0  0  0  0  0  0  0  0
    5.2358    2.0378    2.2490 C   0  0  0  0  0  0  0  0  0  0  0  0
    2.9910   -2.2482   -0.0177 C   0  0  0  0  0  0  0  0  0  0  0  0
    5.7878    2.6552    0.9628 C   0  0  0  0  0  0  0  0  0  0  0  0
    4.3627   -0.9060    1.6222 C   0  0  0  0  0  0  0  0  0  0  0  0
    3.8377    1.4266    2.0864 C   0  0  0  0  0  0  0  0  0  0  0  0
    2.3975    0.0999    0.6535 C   0  0  0  0  0  0  0  0  0  0  0  0
    2.3348   -0.9373   -0.4781 C   0  0  2  0  0  0  0  0  0  0  0  0
    7.0965    3.2770    1.2170 N   0  0  0  0  0  0  0  0  0  0  0  0
    3.7687    0.3320    1.1129 N   0  0  0  0  0  0  0  0  0  0  0  0
    0.8559   -1.8731   -1.7793 H   0  0  0  0  0  0  0  0  0  0  0  0
    0.4467   -0.2144   -1.3117 H   0  0  0  0  0  0  0  0  0  0  0  0
    0.2623   -1.5361   -0.1458 H   0  0  0  0  0  0  0  0  0  0  0  0
    5.0601   -1.6596   -0.2686 H   0  0  0  0  0  0  0  0  0  0  0  0
    4.8226   -2.9100    0.9579 H   0  0  0  0  0  0  0  0  0  0  0  0
    5.1887    2.8151    3.0217 H   0  0  0  0  0  0  0  0  0  0  0  0
    5.9430    1.2840    2.6238 H   0  0  0  0  0  0  0  0  0  0  0  0
    2.3657   -2.7051    0.7650 H   0  0  0  0  0  0  0  0  0  0  0  0
    3.0296   -2.9668   -0.8472 H   0  0  0  0  0  0  0  0  0  0  0  0
    5.1055    3.4477    0.6269 H   0  0  0  0  0  0  0  0  0  0  0  0
    5.7936    1.8894    0.1704 H   0  0  0  0  0  0  0  0  0  0  0  0
    5.3811   -0.6959    1.9644 H   0  0  0  0  0  0  0  0  0  0  0  0
    3.7996   -1.2811    2.5043 H   0  0  0  0  0  0  0  0  0  0  0  0
    3.1586    2.2154    1.7384 H   0  0  0  0  0  0  0  0  0  0  0  0
    3.4588    1.1061    3.0780 H   0  0  0  0  0  0  0  0  0  0  0  0
    1.7420   -0.2359    1.4868 H   0  0  0  0  0  0  0  0  0  0  0  0
    1.9907    1.0546    0.2974 H   0  0  0  0  0  0  0  0  0  0  0  0
    2.9275   -0.5363   -1.3134 H   0  0  0  0  0  0  0  0  0  0  0  0
    7.7769    2.5485    1.4343 H   0  0  0  0  0  0  0  0  0  0  0  0
    7.4341    3.7189    0.3627 H   0  0  0  0  0  0  0  0  0  0  0  0
  1  9  1  0  0  0  0
  1 14  1  0  0  0  0
  2 16  1  0  0  0  0
  2  6  1  0  0  0  0
  3 18  1  0  0  0  0
  3 17  1  0  0  0  0
  4  2  1  0  0  0  0
  4 19  1  0  0  0  0
  5 10  1  0  0  0  0
  5  3  1  0  0  0  0
  6 23  1  0  0  0  0
  6 24  1  0  0  0  0
  7  3  1  0  0  0  0
  7 26  1  0  0  0  0
  8 11  1  0  0  0  0
  8 27  1  0  0  0  0
  9 29  1  6  0  0  0
  9  4  1  0  0  0  0
  9  8  1  0  0  0  0
 10 30  1  0  0  0  0
 11  6  1  0  0  0  0
 11  7  1  0  0  0  0
 12  1  1  0  0  0  0
 13  1  1  0  0  0  0
 15  2  1  0  0  0  0
 20  4  1  0  0  0  0
 21  5  1  0  0  0  0
 22  5  1  0  0  0  0
 25  7  1  0  0  0  0
 28  8  1  0  0  0  0
 31 10  1  0  0  0  0
M  END
>  <HBA>
2

>  <HBD>
1

>  <TPSA>
29.26

>  <cid>
33069

>  <dipole>
1.39

>  <excitation_energy_1>
5.141

>  <excitation_energy_2>
5.386

>  <excitation_energy_3>
5.502

>  <excitation_energy_4>
5.55

>  <homo_energy>
-5.578

>  <homo_lumo_gap>
7.818

>  <logP>
1.705

>  <lumo_energy>
2.24

>  <melting_point>
50.91

>  <molecular_refractivity>
52.78

>  <oscillator_strength_1>
0.0041

>  <oscillator_strength_2>
0.0379

>  <oscillator_strength_3>
0.0455

>  <oscillator_strength_4>
0.005

>  <open_babel_can_smiles>
NCCCN1CCC[C@H](C1)C

>  <mulliken_charges>
31
1   -0.449378
2   -0.264006
3   -0.260316
4   -0.260479
5   -0.130626
6   -0.121418
7   -0.117062
8   -0.110432
9   -0.077611
10   -0.718879
11   -0.393552
12   0.142437
13   0.140396
14   0.140472
15   0.137721
16   0.129431
17   0.146688
18   0.12606
19   0.124504
20   0.129742
21   0.130657
22   0.132355
23   0.137026
24   0.103563
25   0.131225
26   0.110195
27   0.100224
28   0.132019
29   0.128405
30   0.288042
31   0.292598

>  <lowdin_charges>
31
1   -0.445529
2   -0.28196
3   -0.286467
4   -0.280978
5   -0.208864
6   -0.201657
7   -0.198754
8   -0.202408
9   -0.130582
10   -0.562732
11   -0.19133
12   0.15054
13   0.1484
14   0.147208
15   0.144958
16   0.145319
17   0.153308
18   0.137237
19   0.137747
20   0.143318
21   0.139028
22   0.127043
23   0.143891
24   0.112724
25   0.143357
26   0.119006
27   0.112547
28   0.14271
29   0.141001
30   0.249367
31   0.252552

$$$$

