PCCDB-ID:  18614
public computational chemistry database (PCCDB) project, http://pccdb.org

 19 18  0  0  0  0  0  0  0  0999 V2000
    4.8267   -0.3417    0.0158 C   0  0  0  0  0  0  0  0  0  0  0  0
    0.7224    1.9873   -1.3130 C   0  0  0  0  0  0  0  0  0  0  0  0
    2.2331    1.8143   -1.4935 C   0  0  0  0  0  0  0  0  0  0  0  0
   -0.0992    0.8307   -1.8965 C   0  0  0  0  0  0  0  0  0  0  0  0
    2.8305    0.7654   -0.5770 C   0  0  0  0  0  0  0  0  0  0  0  0
    0.1323    0.7034   -3.3427 N   0  0  0  0  0  0  0  0  0  0  0  0
    2.2339    0.1245    0.2634 O   0  0  0  0  0  0  0  0  0  0  0  0
    4.1577    0.6269   -0.8060 O   0  0  0  0  0  0  0  0  0  0  0  0
    5.8712   -0.3207   -0.2973 H   0  0  0  0  0  0  0  0  0  0  0  0
    4.4008   -1.3373   -0.1367 H   0  0  0  0  0  0  0  0  0  0  0  0
    4.7380   -0.0788    1.0736 H   0  0  0  0  0  0  0  0  0  0  0  0
    0.4175    2.9249   -1.7987 H   0  0  0  0  0  0  0  0  0  0  0  0
    0.4835    2.0879   -0.2483 H   0  0  0  0  0  0  0  0  0  0  0  0
    2.7670    2.7548   -1.3058 H   0  0  0  0  0  0  0  0  0  0  0  0
    2.4569    1.5327   -2.5287 H   0  0  0  0  0  0  0  0  0  0  0  0
   -1.1598    0.9814   -1.6280 H   0  0  0  0  0  0  0  0  0  0  0  0
    0.2173   -0.1032   -1.4210 H   0  0  0  0  0  0  0  0  0  0  0  0
   -0.3234    1.4729   -3.8326 H   0  0  0  0  0  0  0  0  0  0  0  0
   -0.3042   -0.1486   -3.6898 H   0  0  0  0  0  0  0  0  0  0  0  0
  1 11  1  0  0  0  0
  2 13  1  0  0  0  0
  3  2  1  0  0  0  0
  3 14  1  0  0  0  0
  3  5  1  0  0  0  0
  4 16  1  0  0  0  0
  4 17  1  0  0  0  0
  4  2  1  0  0  0  0
  5  7  2  0  0  0  0
  6  4  1  0  0  0  0
  8  5  1  0  0  0  0
  8  1  1  0  0  0  0
  9  1  1  0  0  0  0
 10  1  1  0  0  0  0
 12  2  1  0  0  0  0
 15  3  1  0  0  0  0
 18  6  1  0  0  0  0
 19  6  1  0  0  0  0
M  END
>  <HBA>
3

>  <HBD>
1

>  <TPSA>
52.32

>  <cid>
18614

>  <dipole>
1.09

>  <excitation_energy_1>
5.649

>  <excitation_energy_2>
5.853

>  <excitation_energy_3>
6.053

>  <excitation_energy_4>
6.484

>  <homo_energy>
-6.329

>  <homo_lumo_gap>
6.895

>  <logP>
0.599

>  <lumo_energy>
0.566

>  <melting_point>
40.79

>  <molecular_refractivity>
30.14

>  <oscillator_strength_1>
0.0116

>  <oscillator_strength_2>
0.0011

>  <oscillator_strength_3>
0.0031

>  <oscillator_strength_4>
0.0022

>  <open_babel_can_smiles>
COC(=O)CCCN

>  <mulliken_charges>
19
1   -0.215842
2   -0.249953
3   -0.355323
4   -0.150689
5   0.619687
6   -0.717614
7   -0.48582
8   -0.451755
9   0.161946
10   0.167816
11   0.167152
12   0.124009
13   0.151147
14   0.164835
15   0.200282
16   0.114917
17   0.165143
18   0.291158
19   0.298904

>  <lowdin_charges>
19
1   -0.275877
2   -0.275494
3   -0.306816
4   -0.207301
5   0.202806
6   -0.56481
7   -0.273127
8   -0.196577
9   0.157608
10   0.157057
11   0.155738
12   0.140586
13   0.153949
14   0.16789
15   0.181964
16   0.119749
17   0.153749
18   0.251698
19   0.25721

$$$$

