PCCDB-ID:  29709
public computational chemistry database (PCCDB) project, http://pccdb.org

 32 32  0  0  0  0  0  0  0  0999 V2000
    0.6606    0.1949    0.0990 C   0  0  0  0  0  0  0  0  0  0  0  0
    2.6583   -4.8074    1.0799 C   0  0  0  0  0  0  0  0  0  0  0  0
    2.6861   -4.1511   -1.2480 C   0  0  0  0  0  0  0  0  0  0  0  0
    2.8418   -6.1347    0.7124 C   0  0  0  0  0  0  0  0  0  0  0  0
    2.8695   -5.4745   -1.6250 C   0  0  0  0  0  0  0  0  0  0  0  0
    0.4398    1.6477    0.5295 C   0  0  0  0  0  0  0  0  0  0  0  0
    2.1362   -0.1368   -0.1129 C   0  0  0  0  0  0  0  0  0  0  0  0
    2.5786   -3.8009    0.1080 C   0  0  0  0  0  0  0  0  0  0  0  0
    2.9480   -6.4720   -0.6437 C   0  0  0  0  0  0  0  0  0  0  0  0
    2.3805   -2.4030    0.5649 C   0  0  0  0  0  0  0  0  0  0  0  0
    1.0901    3.1969    2.3200 C   0  0  0  0  0  0  0  0  0  0  0  0
    0.6637    4.1797    1.6123 N   0  0  0  0  0  0  0  0  0  0  0  0
    1.5703    3.2384    3.6410 N   0  0  0  0  0  0  0  0  0  0  0  0
    1.0881    1.9037    1.8130 N   0  0  0  0  0  0  0  0  0  0  0  0
    3.1282   -7.7537   -1.0690 O   0  0  0  0  0  0  0  0  0  0  0  0
    2.2847   -2.0698    1.7337 O   0  0  0  0  0  0  0  0  0  0  0  0
    2.3190   -1.5261   -0.4665 O   0  0  0  0  0  0  0  0  0  0  0  0
    0.1056    0.0078   -0.8279 H   0  0  0  0  0  0  0  0  0  0  0  0
    0.2528   -0.4841    0.8584 H   0  0  0  0  0  0  0  0  0  0  0  0
    2.5741   -4.5283    2.1250 H   0  0  0  0  0  0  0  0  0  0  0  0
    2.6250   -3.3770   -2.0046 H   0  0  0  0  0  0  0  0  0  0  0  0
    2.9040   -6.9112    1.4728 H   0  0  0  0  0  0  0  0  0  0  0  0
    2.9535   -5.7588   -2.6689 H   0  0  0  0  0  0  0  0  0  0  0  0
   -0.6374    1.8672    0.5709 H   0  0  0  0  0  0  0  0  0  0  0  0
    0.8642    2.3464   -0.1977 H   0  0  0  0  0  0  0  0  0  0  0  0
    2.7172    0.0830    0.7839 H   0  0  0  0  0  0  0  0  0  0  0  0
    2.5488    0.4212   -0.9578 H   0  0  0  0  0  0  0  0  0  0  0  0
    0.8322    5.0687    2.0866 H   0  0  0  0  0  0  0  0  0  0  0  0
    1.7759    4.1756    3.9654 H   0  0  0  0  0  0  0  0  0  0  0  0
    2.3516    2.6131    3.8126 H   0  0  0  0  0  0  0  0  0  0  0  0
    0.9073    1.1927    2.5142 H   0  0  0  0  0  0  0  0  0  0  0  0
    3.1659   -8.3428   -0.2990 H   0  0  0  0  0  0  0  0  0  0  0  0
  1  6  1  0  0  0  0
  1 19  1  0  0  0  0
  2 20  1  0  0  0  0
  3  8  1  0  0  0  0
  4  2  1  0  0  0  0
  4 22  1  0  0  0  0
  5  3  2  0  0  0  0
  5  9  1  0  0  0  0
  6 24  1  0  0  0  0
  6 14  1  0  0  0  0
  7  1  1  0  0  0  0
  7 26  1  0  0  0  0
  8 10  1  0  0  0  0
  8  2  2  0  0  0  0
  9  4  2  0  0  0  0
 10 16  2  0  0  0  0
 11 13  2  0  0  0  0
 12 28  1  0  0  0  0
 12 11  1  0  0  0  0
 13 30  1  0  0  0  0
 13 29  1  0  0  0  0
 14 11  1  0  0  0  0
 14 31  1  0  0  0  0
 15  9  1  0  0  0  0
 15 32  1  0  0  0  0
 17  7  1  0  0  0  0
 17 10  1  0  0  0  0
 18  1  1  0  0  0  0
 21  3  1  0  0  0  0
 23  5  1  0  0  0  0
 25  6  1  0  0  0  0
 27  7  1  0  0  0  0
M  RAD  1  12   2
M  END
>  <HBA>
6

>  <HBD>
3

>  <TPSA>
110.93

>  <cid>
29709

>  <dipole>
3.04

>  <excitation_energy_1>
4.615

>  <excitation_energy_2>
4.93

>  <excitation_energy_3>
4.998

>  <excitation_energy_4>
5.013

>  <homo_energy>
-6.011

>  <homo_lumo_gap>
5.048

>  <logP>
1.613

>  <lumo_energy>
-0.963

>  <melting_point>
194.61

>  <molecular_refractivity>
63.27

>  <oscillator_strength_1>
0.0099

>  <oscillator_strength_2>
0.0045

>  <oscillator_strength_3>
0.2286

>  <oscillator_strength_4>
0.1747

>  <open_babel_can_smiles>
O=C(c1ccc(cc1)O)OCCCNC(=[NH2])[NH]

>  <mulliken_charges>
32
1   -0.312635
2   -0.15903
3   -0.164967
4   -0.202397
5   -0.165657
6   -0.106415
7   -0.033456
8   0.045323
9   0.362777
10   0.594097
11   0.586991
12   -0.646963
13   -0.755947
14   -0.606335
15   -0.633325
16   -0.509627
17   -0.486034
18   0.150041
19   0.157676
20   0.163979
21   0.159346
22   0.126815
23   0.147011
24   0.149787
25   0.171624
26   0.175614
27   0.15058
28   0.262972
29   0.317925
30   0.323409
31   0.324928
32   0.411893

>  <lowdin_charges>
32
1   -0.295664
2   -0.116771
3   -0.127349
4   -0.215796
5   -0.185392
6   -0.187218
7   -0.132276
8   -0.066153
9   0.117763
10   0.195309
11   0.125311
12   -0.481034
13   -0.513887
14   -0.313943
15   -0.36746
16   -0.289083
17   -0.193932
18   0.154412
19   0.154554
20   0.176561
21   0.175466
22   0.157827
23   0.169726
24   0.142512
25   0.163229
26   0.161293
27   0.153592
28   0.245966
29   0.274197
30   0.278746
31   0.27832
32   0.361171

$$$$

