PCCDB-ID:  24946
public computational chemistry database (PCCDB) project, http://pccdb.org

 32 32  0  0  0  0  0  0  0  0999 V2000
    8.2315    0.3692    5.5025 C   0  0  0  0  0  0  0  0  0  0  0  0
    8.5474    0.0541    4.0370 C   0  0  0  0  0  0  0  0  0  0  0  0
    7.3070   -0.3456    3.2281 C   0  0  0  0  0  0  0  0  0  0  0  0
   11.6740   -2.9033    0.2218 C   0  0  0  0  0  0  0  0  0  0  0  0
   10.6822   -3.8406    0.9273 C   0  0  0  0  0  0  0  0  0  0  0  0
   11.1537   -1.4580    0.1952 C   0  0  0  0  0  0  0  0  0  0  0  0
    9.2837   -3.7438    0.2962 C   0  0  0  0  0  0  0  0  0  0  0  0
    9.7532   -1.3756   -0.4306 C   0  0  0  0  0  0  0  0  0  0  0  0
    7.5983   -0.6903    1.7633 C   0  0  0  0  0  0  0  0  0  0  0  0
    8.7388   -2.3028    0.2727 C   0  0  0  0  0  0  0  0  0  0  0  0
    8.4767   -1.8548    1.6489 N   0  0  0  0  0  0  0  0  0  0  0  0
    9.1346    0.6563    6.0533 H   0  0  0  0  0  0  0  0  0  0  0  0
    7.7956   -0.5002    6.0108 H   0  0  0  0  0  0  0  0  0  0  0  0
    7.5133    1.1945    5.5885 H   0  0  0  0  0  0  0  0  0  0  0  0
    9.2877   -0.7516    3.9757 H   0  0  0  0  0  0  0  0  0  0  0  0
    9.0125    0.9317    3.5653 H   0  0  0  0  0  0  0  0  0  0  0  0
    6.5716    0.4709    3.2516 H   0  0  0  0  0  0  0  0  0  0  0  0
    6.8160   -1.2062    3.7099 H   0  0  0  0  0  0  0  0  0  0  0  0
   11.8287   -3.2523   -0.8108 H   0  0  0  0  0  0  0  0  0  0  0  0
   12.6537   -2.9465    0.7150 H   0  0  0  0  0  0  0  0  0  0  0  0
   10.6205   -3.5702    1.9890 H   0  0  0  0  0  0  0  0  0  0  0  0
   11.0387   -4.8779    0.8818 H   0  0  0  0  0  0  0  0  0  0  0  0
   11.8486   -0.8153   -0.3608 H   0  0  0  0  0  0  0  0  0  0  0  0
   11.1066   -1.0704    1.2201 H   0  0  0  0  0  0  0  0  0  0  0  0
    8.5763   -4.3984    0.8261 H   0  0  0  0  0  0  0  0  0  0  0  0
    9.3249   -4.1110   -0.7388 H   0  0  0  0  0  0  0  0  0  0  0  0
    9.8017   -1.6704   -1.4889 H   0  0  0  0  0  0  0  0  0  0  0  0
    9.3933   -0.3395   -0.4199 H   0  0  0  0  0  0  0  0  0  0  0  0
    8.0921    0.1660    1.2871 H   0  0  0  0  0  0  0  0  0  0  0  0
    6.6414   -0.8346    1.2223 H   0  0  0  0  0  0  0  0  0  0  0  0
    7.8037   -2.2991   -0.3225 H   0  0  0  0  0  0  0  0  0  0  0  0
    8.0448   -2.6254    2.1592 H   0  0  0  0  0  0  0  0  0  0  0  0
  1 14  1  0  0  0  0
  1 13  1  0  0  0  0
  1 12  1  0  0  0  0
  2  1  1  0  0  0  0
  3 17  1  0  0  0  0
  3 18  1  0  0  0  0
  3  2  1  0  0  0  0
  4 20  1  0  0  0  0
  4  5  1  0  0  0  0
  5 21  1  0  0  0  0
  6  4  1  0  0  0  0
  6 24  1  0  0  0  0
  7 25  1  0  0  0  0
  7  5  1  0  0  0  0
  8 28  1  0  0  0  0
  8  6  1  0  0  0  0
  8 10  1  0  0  0  0
  9  3  1  0  0  0  0
 10  7  1  0  0  0  0
 10 11  1  0  0  0  0
 11  9  1  0  0  0  0
 11 32  1  0  0  0  0
 15  2  1  0  0  0  0
 16  2  1  0  0  0  0
 19  4  1  0  0  0  0
 22  5  1  0  0  0  0
 23  6  1  0  0  0  0
 26  7  1  0  0  0  0
 27  8  1  0  0  0  0
 29  9  1  0  0  0  0
 30  9  1  0  0  0  0
 31 10  1  0  0  0  0
M  END
>  <HBA>
1

>  <HBD>
1

>  <TPSA>
12.03

>  <cid>
24946

>  <dipole>
0.8

>  <excitation_energy_1>
5.306

>  <excitation_energy_2>
5.67

>  <excitation_energy_3>
5.773

>  <excitation_energy_4>
5.846

>  <homo_energy>
-5.818

>  <homo_lumo_gap>
7.919

>  <logP>
3.1

>  <lumo_energy>
2.101

>  <melting_point>
20.54

>  <molecular_refractivity>
50.87

>  <oscillator_strength_1>
0.0127

>  <oscillator_strength_2>
0.0195

>  <oscillator_strength_3>
0.0148

>  <oscillator_strength_4>
0.0114

>  <open_babel_can_smiles>
CCCCNC1CCCCC1

>  <mulliken_charges>
32
1   -0.442279
2   -0.239353
3   -0.267113
4   -0.257585
5   -0.248552
6   -0.251464
7   -0.287327
8   -0.262563
9   -0.116425
10   0.06202
11   -0.559258
12   0.141432
13   0.138434
14   0.13817
15   0.152006
16   0.126666
17   0.129475
18   0.12133
19   0.121306
20   0.127212
21   0.142167
22   0.124564
23   0.122729
24   0.148843
25   0.120835
26   0.13094
27   0.123627
28   0.130473
29   0.139766
30   0.106794
31   0.096005
32   0.287122

>  <lowdin_charges>
32
1   -0.446846
2   -0.275279
3   -0.280171
4   -0.27495
5   -0.276372
6   -0.279923
7   -0.283481
8   -0.281424
9   -0.202559
10   -0.064042
11   -0.366443
12   0.149507
13   0.145356
14   0.144678
15   0.14988
16   0.138923
17   0.143123
18   0.134885
19   0.132618
20   0.141357
21   0.143398
22   0.139314
23   0.141539
24   0.147346
25   0.138369
26   0.141629
27   0.137331
28   0.141414
29   0.141067
30   0.115476
31   0.114694
32   0.249582

$$$$

