PCCDB-ID:  9205
public computational chemistry database (PCCDB) project, http://pccdb.org

 22 24  0  0  0  0  0  0  0  0999 V2000
   -3.4285    0.0845    0.0013 C   0  0  0  0  0  0  0  0  0  0  0  0
   -2.9607   -1.2361   -0.0012 C   0  0  0  0  0  0  0  0  0  0  0  0
    3.4247    0.0879   -0.0010 C   0  0  0  0  0  0  0  0  0  0  0  0
   -2.5351    1.1616    0.0029 C   0  0  0  0  0  0  0  0  0  0  0  0
    2.5621    1.1909    0.0008 C   0  0  0  0  0  0  0  0  0  0  0  0
   -1.5915   -1.5052   -0.0018 C   0  0  0  0  0  0  0  0  0  0  0  0
    2.8858   -1.2022   -0.0023 C   0  0  0  0  0  0  0  0  0  0  0  0
    0.0033    1.8666    0.0029 C   0  0  0  0  0  0  0  0  0  0  0  0
   -1.1690    0.8999    0.0020 C   0  0  0  0  0  0  0  0  0  0  0  0
    1.1984    0.9382    0.0004 C   0  0  0  0  0  0  0  0  0  0  0  0
   -0.7038   -0.4290   -0.0001 C   0  0  0  0  0  0  0  0  0  0  0  0
    0.7642   -0.4051   -0.0010 C   0  0  0  0  0  0  0  0  0  0  0  0
    1.5716   -1.4698   -0.0020 N   0  0  0  0  0  0  0  0  0  0  0  0
   -4.4985    0.2750    0.0027 H   0  0  0  0  0  0  0  0  0  0  0  0
   -3.6725   -2.0573   -0.0037 H   0  0  0  0  0  0  0  0  0  0  0  0
    4.5020    0.2238   -0.0018 H   0  0  0  0  0  0  0  0  0  0  0  0
   -2.9085    2.1831    0.0045 H   0  0  0  0  0  0  0  0  0  0  0  0
    2.9549    2.2052    0.0030 H   0  0  0  0  0  0  0  0  0  0  0  0
   -1.2136   -2.5232   -0.0026 H   0  0  0  0  0  0  0  0  0  0  0  0
    3.5470   -2.0673   -0.0030 H   0  0  0  0  0  0  0  0  0  0  0  0
   -0.0059    2.5238    0.8837 H   0  0  0  0  0  0  0  0  0  0  0  0
   -0.0074    2.5272   -0.8753 H   0  0  0  0  0  0  0  0  0  0  0  0
  1 14  1  0  0  0  0
  1  4  2  0  0  0  0
  2  1  1  0  0  0  0
  3  5  2  0  0  0  0
  4 17  1  0  0  0  0
  5 18  1  0  0  0  0
  6  2  2  0  0  0  0
  6 11  1  0  0  0  0
  7 13  2  0  0  0  0
  7  3  1  0  0  0  0
  8 21  1  0  0  0  0
  9  4  1  0  0  0  0
  9  8  1  0  0  0  0
 10  5  1  0  0  0  0
 10  8  1  0  0  0  0
 11  9  2  0  0  0  0
 12 11  1  0  0  0  0
 12 10  2  0  0  0  0
 13 12  1  0  0  0  0
 15  2  1  0  0  0  0
 16  3  1  0  0  0  0
 19  6  1  0  0  0  0
 20  7  1  0  0  0  0
 22  8  1  0  0  0  0
M  END
>  <HBA>
1

>  <HBD>
0

>  <TPSA>
12.89

>  <cid>
9205

>  <dipole>
2.31

>  <excitation_energy_1>
4.444

>  <excitation_energy_2>
4.597

>  <excitation_energy_3>
4.713

>  <excitation_energy_4>
4.88

>  <homo_energy>
-6.006

>  <homo_lumo_gap>
4.972

>  <logP>
2.653

>  <lumo_energy>
-1.034

>  <melting_point>
89.01

>  <molecular_refractivity>
52.68

>  <oscillator_strength_1>
0.2982

>  <oscillator_strength_2>
0.0026

>  <oscillator_strength_3>
0.1173

>  <oscillator_strength_4>
0.0533

>  <open_babel_can_smiles>
c1ccc2c(c1)Cc1c2nccc1

>  <mulliken_charges>
22
1   -0.127949
2   -0.1385
3   -0.154559
4   -0.202453
5   -0.156649
6   -0.184139
7   0.038174
8   -0.426051
9   0.093789
10   0.130147
11   0.13247
12   0.209135
13   -0.50753
14   0.128837
15   0.130582
16   0.13493
17   0.125294
18   0.136198
19   0.150417
20   0.137352
21   0.175279
22   0.175226

>  <lowdin_charges>
22
1   -0.151648
2   -0.157392
3   -0.178668
4   -0.164372
5   -0.13679
6   -0.145975
7   -0.089823
8   -0.274228
9   -0.004189
10   -0.021721
11   -0.01816
12   0.036651
13   -0.153697
14   0.156171
15   0.159318
16   0.161393
17   0.155627
18   0.160226
19   0.169238
20   0.156793
21   0.170632
22   0.170614

$$$$

