PCCDB-ID:  12251
public computational chemistry database (PCCDB) project, http://pccdb.org

 12 11  0  0  0  0  0  0  0  0999 V2000
    1.3137   -0.1083    0.2705 C   0  0  0  0  0  0  0  0  0  0  0  0
    3.0541    0.2457   -1.3086 C   0  0  0  0  0  0  0  0  0  0  0  0
    4.5657    0.4611   -1.4094 C   0  0  0  0  0  0  0  0  0  0  0  0
    5.1238    0.5938   -2.4695 O   0  0  0  0  0  0  0  0  0  0  0  0
    5.2118    0.4764   -0.2305 O   0  0  0  0  0  0  0  0  0  0  0  0
    2.6817    0.1975    0.0560 O   0  0  0  0  0  0  0  0  0  0  0  0
    1.1553   -0.1221    1.3509 H   0  0  0  0  0  0  0  0  0  0  0  0
    1.0560   -1.0922   -0.1479 H   0  0  0  0  0  0  0  0  0  0  0  0
    0.6611    0.6523   -0.1816 H   0  0  0  0  0  0  0  0  0  0  0  0
    2.8060   -0.6929   -1.8278 H   0  0  0  0  0  0  0  0  0  0  0  0
    2.5481    1.0649   -1.8399 H   0  0  0  0  0  0  0  0  0  0  0  0
    4.5397    0.3531    0.4709 H   0  0  0  0  0  0  0  0  0  0  0  0
  1  7  1  0  0  0  0
  2  6  1  0  0  0  0
  3  2  1  0  0  0  0
  3  5  1  0  0  0  0
  4  3  2  0  0  0  0
  5 12  1  0  0  0  0
  6  1  1  0  0  0  0
  8  1  1  0  0  0  0
  9  1  1  0  0  0  0
 10  2  1  0  0  0  0
 11  2  1  0  0  0  0
M  END
>  <HBA>
3

>  <HBD>
1

>  <TPSA>
46.53

>  <cid>
12251

>  <dipole>
5.07

>  <excitation_energy_1>
5.802

>  <excitation_energy_2>
6.795

>  <excitation_energy_3>
6.953

>  <excitation_energy_4>
7.16

>  <homo_energy>
-7.353

>  <homo_lumo_gap>
7.698

>  <logP>
-0.283

>  <lumo_energy>
0.346

>  <melting_point>
43.64

>  <molecular_refractivity>
19.39

>  <oscillator_strength_1>
0.0005

>  <oscillator_strength_2>
0.0164

>  <oscillator_strength_3>
0.0134

>  <oscillator_strength_4>
0.0058

>  <open_babel_can_smiles>
COCC(=O)O

>  <mulliken_charges>
12
1   -0.198193
2   -0.114472
3   0.576344
4   -0.447694
5   -0.568022
6   -0.496372
7   0.172018
8   0.148276
9   0.149427
10   0.170486
11   0.173454
12   0.434749

>  <lowdin_charges>
12
1   -0.273672
2   -0.172872
3   0.184071
4   -0.24546
5   -0.345827
6   -0.284353
7   0.161413
8   0.142253
9   0.144913
10   0.160483
11   0.162809
12   0.366242

$$$$

