PCCDB-ID:  7732
public computational chemistry database (PCCDB) project, http://pccdb.org

 18 18  0  0  0  0  0  0  0  0999 V2000
    2.9107   -1.1327    0.5418 C   0  0  0  0  0  0  0  0  0  0  0  0
    3.6573    2.1269   -2.9144 C   0  0  0  0  0  0  0  0  0  0  0  0
    4.3009   -0.1512   -3.3356 C   0  0  0  0  0  0  0  0  0  0  0  0
    3.2113    1.7681   -1.6495 C   0  0  0  0  0  0  0  0  0  0  0  0
    3.8547   -0.5187   -2.0626 C   0  0  0  0  0  0  0  0  0  0  0  0
    4.2118    1.1711   -3.7845 C   0  0  0  0  0  0  0  0  0  0  0  0
    3.3057    0.4414   -1.2087 C   0  0  0  0  0  0  0  0  0  0  0  0
    4.7214    1.5512   -5.0403 N   0  0  0  0  0  0  0  0  0  0  0  0
    2.8350    0.1943    0.0571 O   0  0  0  0  0  0  0  0  0  0  0  0
    2.4913   -1.1108    1.5499 H   0  0  0  0  0  0  0  0  0  0  0  0
    3.9490   -1.4898    0.5915 H   0  0  0  0  0  0  0  0  0  0  0  0
    2.3242   -1.8266   -0.0768 H   0  0  0  0  0  0  0  0  0  0  0  0
    3.5800    3.1634   -3.2360 H   0  0  0  0  0  0  0  0  0  0  0  0
    4.7291   -0.9109   -3.9862 H   0  0  0  0  0  0  0  0  0  0  0  0
    2.7810    2.5076   -0.9810 H   0  0  0  0  0  0  0  0  0  0  0  0
    3.9416   -1.5552   -1.7566 H   0  0  0  0  0  0  0  0  0  0  0  0
    4.2714    2.3711   -5.4312 H   0  0  0  0  0  0  0  0  0  0  0  0
    4.7297    0.8006   -5.7215 H   0  0  0  0  0  0  0  0  0  0  0  0
  1 11  1  0  0  0  0
  1 10  1  0  0  0  0
  2  4  2  0  0  0  0
  3  5  1  0  0  0  0
  4  7  1  0  0  0  0
  4 15  1  0  0  0  0
  5 16  1  0  0  0  0
  5  7  2  0  0  0  0
  6  3  2  0  0  0  0
  6  2  1  0  0  0  0
  7  9  1  0  0  0  0
  8  6  1  0  0  0  0
  9  1  1  0  0  0  0
 12  1  1  0  0  0  0
 13  2  1  0  0  0  0
 14  3  1  0  0  0  0
 17  8  1  0  0  0  0
 18  8  1  0  0  0  0
M  END
>  <HBA>
2

>  <HBD>
1

>  <TPSA>
35.25

>  <cid>
7732

>  <dipole>
1.81

>  <excitation_energy_1>
4.356

>  <excitation_energy_2>
4.427

>  <excitation_energy_3>
4.839

>  <excitation_energy_4>
5.164

>  <homo_energy>
-4.942

>  <homo_lumo_gap>
5.129

>  <logP>
1.859

>  <lumo_energy>
0.188

>  <melting_point>
58.58

>  <molecular_refractivity>
37.34

>  <oscillator_strength_1>
0.0507

>  <oscillator_strength_2>
0.0047

>  <oscillator_strength_3>
0.0026

>  <oscillator_strength_4>
0.0015

>  <open_babel_can_smiles>
COc1ccc(cc1)N

>  <mulliken_charges>
18
1   -0.209967
2   -0.174251
3   -0.182717
4   -0.178099
5   -0.199982
6   0.299175
7   0.366785
8   -0.786687
9   -0.513703
10   0.164768
11   0.146756
12   0.145452
13   0.117725
14   0.115361
15   0.134195
16   0.127061
17   0.314265
18   0.313865

>  <lowdin_charges>
18
1   -0.277005
2   -0.186664
3   -0.193855
4   -0.172911
5   -0.202516
6   0.043698
7   0.080826
8   -0.500437
9   -0.209038
10   0.159065
11   0.140691
12   0.142487
13   0.152309
14   0.153245
15   0.166411
16   0.159395
17   0.272343
18   0.271956

$$$$

