PCCDB-ID:  752
public computational chemistry database (PCCDB) project, http://pccdb.org

 13 12  0  0  1  0  0  0  0  0999 V2000
    1.5935   -0.1218   -0.0030 C   0  0  0  0  0  0  0  0  0  0  0  0
    0.8185   -0.9331   -1.0397 C   0  0  1  0  0  0  0  0  0  0  0  0
    1.2320   -2.4196   -0.9874 C   0  0  0  0  0  0  0  0  0  0  0  0
    1.1547   -0.4918    1.3050 O   0  0  0  0  0  0  0  0  0  0  0  0
   -0.5881   -0.8143   -0.8221 O   0  0  0  0  0  0  0  0  0  0  0  0
    2.3746   -2.7823   -0.8249 O   0  0  0  0  0  0  0  0  0  0  0  0
    0.2053   -3.2693   -1.1380 O   0  0  0  0  0  0  0  0  0  0  0  0
    1.3574    0.9398   -0.1160 H   0  0  0  0  0  0  0  0  0  0  0  0
    2.6699   -0.2697   -0.1348 H   0  0  0  0  0  0  0  0  0  0  0  0
    1.0249   -0.5616   -2.0510 H   0  0  0  0  0  0  0  0  0  0  0  0
    1.6139   -1.3142    1.5427 H   0  0  0  0  0  0  0  0  0  0  0  0
   -0.6817   -0.7449    0.1488 H   0  0  0  0  0  0  0  0  0  0  0  0
   -0.5996   -2.7062   -1.1816 H   0  0  0  0  0  0  0  0  0  0  0  0
  1  4  1  0  0  0  0
  2 10  1  6  0  0  0
  2  3  1  0  0  0  0
  2  5  1  0  0  0  0
  2  1  1  0  0  0  0
  3  6  2  0  0  0  0
  4 11  1  0  0  0  0
  5 12  1  0  0  0  0
  7  3  1  0  0  0  0
  8  1  1  0  0  0  0
  9  1  1  0  0  0  0
 13  7  1  0  0  0  0
M  END
>  <HBA>
4

>  <HBD>
3

>  <TPSA>
77.76

>  <cid>
752

>  <dipole>
2.24

>  <excitation_energy_1>
5.461

>  <excitation_energy_2>
6.435

>  <excitation_energy_3>
6.936

>  <excitation_energy_4>
7.166

>  <homo_energy>
-7.285

>  <homo_lumo_gap>
7.236

>  <logP>
-1.576

>  <lumo_energy>
-0.049

>  <melting_point>
89.82

>  <molecular_refractivity>
20.63

>  <oscillator_strength_1>
0.0011

>  <oscillator_strength_2>
0.0042

>  <oscillator_strength_3>
0.0043

>  <oscillator_strength_4>
0.0023

>  <open_babel_can_smiles>
OC[C@@H](C(=O)O)O

>  <mulliken_charges>
13
1   -0.076837
2   0.022117
3   0.56826
4   -0.627508
5   -0.64684
6   -0.461406
7   -0.56846
8   0.170231
9   0.174701
10   0.183527
11   0.414665
12   0.417229
13   0.430322

>  <lowdin_charges>
13
1   -0.143243
2   -0.061957
3   0.16141
4   -0.465762
5   -0.455623
6   -0.257122
7   -0.340749
8   0.158178
9   0.159629
10   0.17193
11   0.357014
12   0.350979
13   0.365319

$$$$

