PCCDB-ID:  50223
public computational chemistry database (PCCDB) project, http://pccdb.org

 21 20  0  0  1  0  0  0  0  0999 V2000
    0.5081   -0.7333   -0.6213 C   0  0  0  0  0  0  0  0  0  0  0  0
    5.6917   -1.2435   -0.9405 C   0  0  0  0  0  0  0  0  0  0  0  0
    3.0075    1.2685   -2.2108 C   0  0  0  0  0  0  0  0  0  0  0  0
    1.3983    0.2537   -0.5182 C   0  0  0  0  0  0  0  0  0  0  0  0
    4.6567   -0.9783    0.1557 C   0  0  0  0  0  0  0  0  0  0  0  0
    2.7780    0.1923   -1.1347 C   0  0  2  0  0  0  0  0  0  0  0  0
    4.0649    1.2320    0.7385 N   0  0  0  0  0  0  0  0  0  0  0  0
    3.8380    0.2089   -0.0876 N   0  0  0  0  0  0  0  0  0  0  0  0
    3.3449    2.2192    0.5834 O   0  0  0  0  0  0  0  0  0  0  0  0
   -0.4830   -0.6545   -0.1825 H   0  0  0  0  0  0  0  0  0  0  0  0
    0.7283   -1.6566   -1.1550 H   0  0  0  0  0  0  0  0  0  0  0  0
    6.2720   -2.1401   -0.6960 H   0  0  0  0  0  0  0  0  0  0  0  0
    6.3823   -0.3988   -1.0311 H   0  0  0  0  0  0  0  0  0  0  0  0
    5.2205   -1.4077   -1.9162 H   0  0  0  0  0  0  0  0  0  0  0  0
    2.2828    1.1259   -3.0195 H   0  0  0  0  0  0  0  0  0  0  0  0
    4.0158    1.1818   -2.6301 H   0  0  0  0  0  0  0  0  0  0  0  0
    2.8861    2.2710   -1.8000 H   0  0  0  0  0  0  0  0  0  0  0  0
    1.1561    1.1664    0.0178 H   0  0  0  0  0  0  0  0  0  0  0  0
    5.1512   -0.8060    1.1148 H   0  0  0  0  0  0  0  0  0  0  0  0
    3.9880   -1.8407    0.2737 H   0  0  0  0  0  0  0  0  0  0  0  0
    2.8881   -0.7891   -1.6083 H   0  0  0  0  0  0  0  0  0  0  0  0
  1  4  2  0  0  0  0
  1 10  1  0  0  0  0
  2 12  1  0  0  0  0
  2  5  1  0  0  0  0
  3 17  1  0  0  0  0
  3  6  1  0  0  0  0
  4 18  1  0  0  0  0
  5 20  1  0  0  0  0
  5 19  1  0  0  0  0
  6 21  1  6  0  0  0
  6  4  1  0  0  0  0
  6  8  1  0  0  0  0
  8  5  1  0  0  0  0
  8  7  1  0  0  0  0
  9  7  2  0  0  0  0
 11  1  1  0  0  0  0
 13  2  1  0  0  0  0
 14  2  1  0  0  0  0
 15  3  1  0  0  0  0
 16  3  1  0  0  0  0
M  END
>  <HBA>
3

>  <HBD>
0

>  <TPSA>
32.67

>  <cid>
50223

>  <dipole>
3.92

>  <excitation_energy_1>
3.274

>  <excitation_energy_2>
5.15

>  <excitation_energy_3>
5.507

>  <excitation_energy_4>
5.566

>  <homo_energy>
-5.87

>  <homo_lumo_gap>
5.08

>  <logP>
1.564

>  <lumo_energy>
-0.789

>  <melting_point>
-25.47

>  <molecular_refractivity>
38.12

>  <oscillator_strength_1>
0.0005

>  <oscillator_strength_2>
0.0104

>  <oscillator_strength_3>
0.0171

>  <oscillator_strength_4>
0.0766

>  <open_babel_can_smiles>
C[C@@H](N(N=O)CC)C=C

>  <mulliken_charges>
21
1   -0.343436
2   -0.448941
3   -0.452698
4   -0.038844
5   -0.138734
6   -0.032613
7   0.143475
8   -0.203505
9   -0.39212
10   0.14946
11   0.13548
12   0.15595
13   0.166947
14   0.153786
15   0.152709
16   0.148798
17   0.193213
18   0.168994
19   0.181043
20   0.157531
21   0.143506

>  <lowdin_charges>
21
1   -0.332505
2   -0.453833
3   -0.449867
4   -0.151537
5   -0.199678
6   -0.057262
7   0.049963
8   -0.038485
9   -0.284306
10   0.162613
11   0.152181
12   0.160039
13   0.161078
14   0.151597
15   0.158238
16   0.152988
17   0.17297
18   0.172661
19   0.168613
20   0.151254
21   0.153278

$$$$

