PCCDB-ID:  23368
public computational chemistry database (PCCDB) project, http://pccdb.org

 38 37  0  0  0  0  0  0  0  0999 V2000
    7.8903    2.6058   -2.8459 C   0  0  0  0  0  0  0  0  0  0  0  0
    9.9561    1.2286   -2.2625 C   0  0  0  0  0  0  0  0  0  0  0  0
    2.8457   -1.4673   -3.7257 C   0  0  0  0  0  0  0  0  0  0  0  0
    3.6552   -3.5657   -4.9272 C   0  0  0  0  0  0  0  0  0  0  0  0
    5.0483   -1.2335    0.1109 C   0  0  0  0  0  0  0  0  0  0  0  0
    5.5310   -2.6384   -0.2744 C   0  0  0  0  0  0  0  0  0  0  0  0
    6.1669   -0.1867    0.1059 C   0  0  0  0  0  0  0  0  0  0  0  0
    4.4010   -3.6862   -0.2953 C   0  0  0  0  0  0  0  0  0  0  0  0
    8.4499    1.2339   -2.4839 C   0  0  0  0  0  0  0  0  0  0  0  0
    2.9999   -2.9847   -3.6818 C   0  0  0  0  0  0  0  0  0  0  0  0
    6.6599    0.1674   -1.2878 C   0  0  0  0  0  0  0  0  0  0  0  0
    3.3341   -3.3819   -1.3328 C   0  0  0  0  0  0  0  0  0  0  0  0
    6.0576   -0.0471   -2.3207 O   0  0  0  0  0  0  0  0  0  0  0  0
    2.1612   -3.1855   -1.0905 O   0  0  0  0  0  0  0  0  0  0  0  0
    7.8583    0.7865   -1.2268 O   0  0  0  0  0  0  0  0  0  0  0  0
    3.8714   -3.3509   -2.5711 O   0  0  0  0  0  0  0  0  0  0  0  0
    8.3436    2.9646   -3.7770 H   0  0  0  0  0  0  0  0  0  0  0  0
    8.1079    3.3321   -2.0548 H   0  0  0  0  0  0  0  0  0  0  0  0
    6.8078    2.5533   -2.9921 H   0  0  0  0  0  0  0  0  0  0  0  0
   10.4714    1.5342   -3.1796 H   0  0  0  0  0  0  0  0  0  0  0  0
   10.3059    0.2288   -1.9867 H   0  0  0  0  0  0  0  0  0  0  0  0
   10.2344    1.9244   -1.4633 H   0  0  0  0  0  0  0  0  0  0  0  0
    2.2712   -1.1726   -4.6116 H   0  0  0  0  0  0  0  0  0  0  0  0
    3.8273   -0.9831   -3.7608 H   0  0  0  0  0  0  0  0  0  0  0  0
    2.3113   -1.1125   -2.8402 H   0  0  0  0  0  0  0  0  0  0  0  0
    3.0426   -3.3498   -5.8093 H   0  0  0  0  0  0  0  0  0  0  0  0
    3.7653   -4.6515   -4.8403 H   0  0  0  0  0  0  0  0  0  0  0  0
    4.6476   -3.1282   -5.0813 H   0  0  0  0  0  0  0  0  0  0  0  0
    4.5992   -1.2632    1.1121 H   0  0  0  0  0  0  0  0  0  0  0  0
    4.2612   -0.9082   -0.5786 H   0  0  0  0  0  0  0  0  0  0  0  0
    6.2979   -2.9692    0.4392 H   0  0  0  0  0  0  0  0  0  0  0  0
    6.0000   -2.6074   -1.2632 H   0  0  0  0  0  0  0  0  0  0  0  0
    7.0249   -0.5056    0.7094 H   0  0  0  0  0  0  0  0  0  0  0  0
    5.8147    0.7504    0.5596 H   0  0  0  0  0  0  0  0  0  0  0  0
    3.9001   -3.7479    0.6755 H   0  0  0  0  0  0  0  0  0  0  0  0
    4.8268   -4.6718   -0.5215 H   0  0  0  0  0  0  0  0  0  0  0  0
    8.1689    0.5073   -3.2515 H   0  0  0  0  0  0  0  0  0  0  0  0
    2.0280   -3.4543   -3.5018 H   0  0  0  0  0  0  0  0  0  0  0  0
  1  9  1  0  0  0  0
  1 18  1  0  0  0  0
  2 21  1  0  0  0  0
  2 22  1  0  0  0  0
  3 10  1  0  0  0  0
  3 25  1  0  0  0  0
  4 27  1  0  0  0  0
  4 10  1  0  0  0  0
  5 29  1  0  0  0  0
  6  5  1  0  0  0  0
  6 31  1  0  0  0  0
  7  5  1  0  0  0  0
  7 34  1  0  0  0  0
  7 33  1  0  0  0  0
  8  6  1  0  0  0  0
  8 35  1  0  0  0  0
  9  2  1  0  0  0  0
  9 15  1  0  0  0  0
 10 38  1  0  0  0  0
 10 16  1  0  0  0  0
 11 15  1  0  0  0  0
 11  7  1  0  0  0  0
 12 14  2  0  0  0  0
 12  8  1  0  0  0  0
 13 11  2  0  0  0  0
 16 12  1  0  0  0  0
 17  1  1  0  0  0  0
 19  1  1  0  0  0  0
 20  2  1  0  0  0  0
 23  3  1  0  0  0  0
 24  3  1  0  0  0  0
 26  4  1  0  0  0  0
 28  4  1  0  0  0  0
 30  5  1  0  0  0  0
 32  6  1  0  0  0  0
 36  8  1  0  0  0  0
 37  9  1  0  0  0  0
M  END
>  <HBA>
4

>  <HBD>
0

>  <TPSA>
52.6

>  <cid>
23368

>  <dipole>
3.35

>  <excitation_energy_1>
5.671

>  <excitation_energy_2>
5.798

>  <excitation_energy_3>
6.623

>  <excitation_energy_4>
6.8

>  <homo_energy>
-6.955

>  <homo_lumo_gap>
7.298

>  <logP>
2.45

>  <lumo_energy>
0.343

>  <melting_point>
-5.66

>  <molecular_refractivity>
62.37

>  <oscillator_strength_1>
0.0027

>  <oscillator_strength_2>
0.0008

>  <oscillator_strength_3>
0.0004

>  <oscillator_strength_4>
0.0088

>  <open_babel_can_smiles>
CC(OC(=O)CCCCC(=O)OC(C)C)C

>  <mulliken_charges>
38
1   -0.45826
2   -0.451352
3   -0.474172
4   -0.453758
5   -0.258765
6   -0.272564
7   -0.364082
8   -0.341107
9   0.12835
10   0.133932
11   0.631003
12   0.614008
13   -0.484243
14   -0.484429
15   -0.472546
16   -0.462835
17   0.14872
18   0.151385
19   0.171851
20   0.149745
21   0.157366
22   0.155628
23   0.139396
24   0.181844
25   0.16882
26   0.146263
27   0.152881
28   0.158434
29   0.136191
30   0.168961
31   0.131547
32   0.170873
33   0.165558
34   0.17508
35   0.161356
36   0.16152
37   0.161753
38   0.155648

>  <lowdin_charges>
38
1   -0.453123
2   -0.448325
3   -0.461281
4   -0.446198
5   -0.276223
6   -0.275704
7   -0.302288
8   -0.294965
9   0.010592
10   0.014068
11   0.201688
12   0.19367
13   -0.276568
14   -0.272614
15   -0.197399
16   -0.195719
17   0.157601
18   0.154685
19   0.163435
20   0.15751
21   0.158196
22   0.157021
23   0.153498
24   0.167266
25   0.163944
26   0.15569
27   0.154298
28   0.157044
29   0.146323
30   0.16034
31   0.142921
32   0.158226
33   0.16519
34   0.173406
35   0.161548
36   0.166307
37   0.155394
38   0.150545

$$$$

