PCCDB-ID:  22263
public computational chemistry database (PCCDB) project, http://pccdb.org

 28 27  0  0  0  0  0  0  0  0999 V2000
    0.2040   -1.0121    0.4541 C   0  0  0  0  0  0  0  0  0  0  0  0
    1.1914    1.1847    0.4678 C   0  0  0  0  0  0  0  0  0  0  0  0
    7.3203   -1.0227    1.9220 C   0  0  0  0  0  0  0  0  0  0  0  0
    6.8503   -0.6873   -0.4073 C   0  0  0  0  0  0  0  0  0  0  0  0
    2.5372   -0.7442    1.1008 C   0  0  0  0  0  0  0  0  0  0  0  0
    5.0359   -1.1180    1.1638 C   0  0  0  0  0  0  0  0  0  0  0  0
    3.8924   -0.3723    0.4696 C   0  0  0  0  0  0  0  0  0  0  0  0
    1.4321   -0.2440    0.2741 N   0  0  0  0  0  0  0  0  0  0  0  0
    6.3527   -0.5199    0.9567 N   0  0  0  0  0  0  0  0  0  0  0  0
    3.8486   -0.7032   -0.9121 O   0  0  0  0  0  0  0  0  0  0  0  0
   -0.5593   -0.6499   -0.2432 H   0  0  0  0  0  0  0  0  0  0  0  0
   -0.2076   -0.9372    1.4781 H   0  0  0  0  0  0  0  0  0  0  0  0
    0.3922   -2.0680    0.2360 H   0  0  0  0  0  0  0  0  0  0  0  0
    0.4223    1.5245   -0.2337 H   0  0  0  0  0  0  0  0  0  0  0  0
    2.1036    1.7540    0.2687 H   0  0  0  0  0  0  0  0  0  0  0  0
    0.8532    1.4225    1.4939 H   0  0  0  0  0  0  0  0  0  0  0  0
    8.2770   -0.5071    1.7821 H   0  0  0  0  0  0  0  0  0  0  0  0
    7.5085   -2.1118    1.8322 H   0  0  0  0  0  0  0  0  0  0  0  0
    6.9731   -0.8217    2.9420 H   0  0  0  0  0  0  0  0  0  0  0  0
    7.7955   -0.1428   -0.5138 H   0  0  0  0  0  0  0  0  0  0  0  0
    6.1281   -0.2897   -1.1212 H   0  0  0  0  0  0  0  0  0  0  0  0
    7.0345   -1.7490   -0.6667 H   0  0  0  0  0  0  0  0  0  0  0  0
    2.4782   -0.3799    2.1428 H   0  0  0  0  0  0  0  0  0  0  0  0
    2.4626   -1.8379    1.1277 H   0  0  0  0  0  0  0  0  0  0  0  0
    4.9966   -2.1802    0.8480 H   0  0  0  0  0  0  0  0  0  0  0  0
    4.8399   -1.0954    2.2442 H   0  0  0  0  0  0  0  0  0  0  0  0
    4.0809    0.7063    0.6003 H   0  0  0  0  0  0  0  0  0  0  0  0
    2.9154   -0.5453   -1.1633 H   0  0  0  0  0  0  0  0  0  0  0  0
  1 12  1  0  0  0  0
  2 16  1  0  0  0  0
  3 19  1  0  0  0  0
  4  9  1  0  0  0  0
  5 24  1  0  0  0  0
  5 23  1  0  0  0  0
  6 26  1  0  0  0  0
  7 27  1  0  0  0  0
  7  5  1  0  0  0  0
  7  6  1  0  0  0  0
  8  1  1  0  0  0  0
  8  2  1  0  0  0  0
  8  5  1  0  0  0  0
  9  6  1  0  0  0  0
  9  3  1  0  0  0  0
 10  7  1  0  0  0  0
 11  1  1  0  0  0  0
 13  1  1  0  0  0  0
 14  2  1  0  0  0  0
 15  2  1  0  0  0  0
 17  3  1  0  0  0  0
 18  3  1  0  0  0  0
 20  4  1  0  0  0  0
 21  4  1  0  0  0  0
 22  4  1  0  0  0  0
 25  6  1  0  0  0  0
 28 10  1  0  0  0  0
M  END
>  <HBA>
3

>  <HBD>
1

>  <TPSA>
26.71

>  <cid>
22263

>  <dipole>
2.57

>  <excitation_energy_1>
5.245

>  <excitation_energy_2>
5.45

>  <excitation_energy_3>
5.658

>  <excitation_energy_4>
5.742

>  <homo_energy>
-5.475

>  <homo_lumo_gap>
7.554

>  <logP>
-0.529

>  <lumo_energy>
2.079

>  <melting_point>
-3.34

>  <molecular_refractivity>
42.72

>  <oscillator_strength_1>
0.0065

>  <oscillator_strength_2>
0.0173

>  <oscillator_strength_3>
0.0297

>  <oscillator_strength_4>
0.0296

>  <open_babel_can_smiles>
OC(CN(C)C)CN(C)C

>  <mulliken_charges>
28
1   -0.295456
2   -0.306397
3   -0.290477
4   -0.307253
5   -0.150903
6   -0.117455
7   0.147085
8   -0.405295
9   -0.377162
10   -0.649498
11   0.152319
12   0.126741
13   0.157303
14   0.154085
15   0.165731
16   0.12796
17   0.145974
18   0.114471
19   0.141907
20   0.135887
21   0.188722
22   0.112197
23   0.120363
24   0.144248
25   0.117041
26   0.125568
27   0.12212
28   0.400176

>  <lowdin_charges>
28
1   -0.354772
2   -0.360408
3   -0.353158
4   -0.363268
5   -0.21728
6   -0.201722
7   -0.010067
8   -0.184813
9   -0.184021
10   -0.477554
11   0.15273
12   0.125775
13   0.152417
14   0.154072
15   0.157522
16   0.126629
17   0.148345
18   0.116148
19   0.144215
20   0.143163
21   0.170264
22   0.117713
23   0.126822
24   0.147248
25   0.121908
26   0.141465
27   0.125542
28   0.335086

$$$$

