PCCDB-ID:  28953
public computational chemistry database (PCCDB) project, http://pccdb.org

 35 36  0  0  1  0  0  0  0  0999 V2000
    6.2830    0.4180   -2.4882 C   0  0  0  0  0  0  0  0  0  0  0  0
    6.8866   -0.8076   -2.2499 C   0  0  0  0  0  0  0  0  0  0  0  0
    5.2775    0.3926   -3.5478 C   0  0  0  0  0  0  0  0  0  0  0  0
    6.3474   -1.4744   -1.1340 C   0  0  0  0  0  0  0  0  0  0  0  0
    4.0892   -0.0120   -3.0343 C   0  0  0  0  0  0  0  0  0  0  0  0
    5.1772   -2.2685    1.4564 C   0  0  0  0  0  0  0  0  0  0  0  0
    4.4021   -2.1185    2.7724 C   0  0  0  0  0  0  0  0  0  0  0  0
    4.0945   -3.1381    4.9565 C   0  0  0  0  0  0  0  0  0  0  0  0
    6.2166   -2.1717    4.4033 C   0  0  0  0  0  0  0  0  0  0  0  0
    4.7884   -3.9761    6.0280 C   0  0  0  0  0  0  0  0  0  0  0  0
    6.8573   -3.0313    5.4913 C   0  0  0  0  0  0  0  0  0  0  0  0
    5.0269   -1.1486   -0.7671 C   0  0  1  0  0  0  0  0  0  0  0  0
    3.9266   -0.4867   -1.6394 C   0  0  0  0  0  0  0  0  0  0  0  0
    4.4807   -1.5855    0.3878 N   0  0  0  0  0  0  0  0  0  0  0  0
    5.0318   -2.8496    3.8668 N   0  0  0  0  0  0  0  0  0  0  0  0
    2.7925   -0.4884   -1.1408 O   0  0  0  0  0  0  0  0  0  0  0  0
    5.9387   -3.3146    6.5367 O   0  0  0  0  0  0  0  0  0  0  0  0
    5.9661    0.9543   -1.5927 H   0  0  0  0  0  0  0  0  0  0  0  0
    7.4475   -1.3508   -3.0132 H   0  0  0  0  0  0  0  0  0  0  0  0
    5.4410    0.5705   -4.6093 H   0  0  0  0  0  0  0  0  0  0  0  0
    6.8275   -2.3346   -0.6700 H   0  0  0  0  0  0  0  0  0  0  0  0
    3.1613   -0.0036   -3.6029 H   0  0  0  0  0  0  0  0  0  0  0  0
    5.3035   -3.3404    1.2439 H   0  0  0  0  0  0  0  0  0  0  0  0
    6.1821   -1.8365    1.5393 H   0  0  0  0  0  0  0  0  0  0  0  0
    3.3976   -2.5362    2.6265 H   0  0  0  0  0  0  0  0  0  0  0  0
    4.2706   -1.0436    3.0021 H   0  0  0  0  0  0  0  0  0  0  0  0
    3.7056   -2.2106    5.4205 H   0  0  0  0  0  0  0  0  0  0  0  0
    3.2402   -3.6950    4.5528 H   0  0  0  0  0  0  0  0  0  0  0  0
    6.9448   -2.0090    3.6013 H   0  0  0  0  0  0  0  0  0  0  0  0
    5.9568   -1.1818    4.8275 H   0  0  0  0  0  0  0  0  0  0  0  0
    5.0702   -4.9531    5.6018 H   0  0  0  0  0  0  0  0  0  0  0  0
    4.1226   -4.1420    6.8801 H   0  0  0  0  0  0  0  0  0  0  0  0
    7.6994   -2.5057    5.9512 H   0  0  0  0  0  0  0  0  0  0  0  0
    7.2259   -3.9698    5.0451 H   0  0  0  0  0  0  0  0  0  0  0  0
    3.4738   -1.4390    0.4344 H   0  0  0  0  0  0  0  0  0  0  0  0
  1  2  1  0  0  0  0
  1 18  1  0  0  0  0
  2  4  1  0  0  0  0
  3  5  2  0  0  0  0
  3  1  1  0  0  0  0
  4 12  1  0  0  0  0
  4 21  1  0  0  0  0
  5 13  1  0  0  0  0
  6 24  1  0  0  0  0
  6  7  1  0  0  0  0
  7 26  1  0  0  0  0
  7 15  1  0  0  0  0
  8 27  1  0  0  0  0
  8 10  1  0  0  0  0
  9 30  1  0  0  0  0
  9 11  1  0  0  0  0
 10 17  1  0  0  0  0
 10 32  1  0  0  0  0
 11 33  1  0  0  0  0
 11 17  1  0  0  0  0
 12 14  1  6  0  0  0
 13 16  2  0  0  0  0
 13 12  1  0  0  0  0
 14 35  1  0  0  0  0
 14  6  1  0  0  0  0
 15  9  1  0  0  0  0
 15  8  1  0  0  0  0
 19  2  1  0  0  0  0
 20  3  1  0  0  0  0
 22  5  1  0  0  0  0
 23  6  1  0  0  0  0
 25  7  1  0  0  0  0
 28  8  1  0  0  0  0
 29  9  1  0  0  0  0
 31 10  1  0  0  0  0
 34 11  1  0  0  0  0
M  RAD  4   1   2   2   2   4   2  12   2
M  END
>  <HBA>
4

>  <HBD>
1

>  <TPSA>
41.57

>  <cid>
28953

>  <dipole>
1.92

>  <excitation_energy_1>
3.258

>  <excitation_energy_2>
3.576

>  <excitation_energy_3>
3.872

>  <excitation_energy_4>
3.9

>  <homo_energy>
-5.298

>  <homo_lumo_gap>
3.573

>  <logP>
0.802

>  <lumo_energy>
-1.725

>  <melting_point>
86.26

>  <molecular_refractivity>
71.83

>  <oscillator_strength_1>
0.1011

>  <oscillator_strength_2>
0.013

>  <oscillator_strength_3>
0.0504

>  <oscillator_strength_4>
0.0811

>  <open_babel_can_smiles>
O=C1C=C[CH][CH][CH][C]1NCCN1CCOCC1

>  <mulliken_charges>
35
1   -0.25176
2   -0.092526
3   -0.107064
4   -0.206831
5   -0.165939
6   -0.103656
7   -0.135443
8   -0.135456
9   -0.14282
10   -0.033997
11   -0.032293
12   0.278901
13   0.391691
14   -0.629685
15   -0.407923
16   -0.530705
17   -0.465562
18   0.159767
19   0.141192
20   0.148661
21   0.133548
22   0.14687
23   0.160298
24   0.156535
25   0.144518
26   0.133507
27   0.125082
28   0.14197
29   0.142748
30   0.125605
31   0.129789
32   0.147513
33   0.147661
34   0.129311
35   0.356494

>  <lowdin_charges>
35
1   -0.194076
2   -0.125296
3   -0.114712
4   -0.232891
5   -0.204295
6   -0.196939
7   -0.201967
8   -0.217045
9   -0.217628
10   -0.13741
11   -0.138699
12   0.03947
13   0.131809
14   -0.236688
15   -0.191766
16   -0.296726
17   -0.271136
18   0.163652
19   0.160927
20   0.164931
21   0.156981
22   0.168567
23   0.146515
24   0.150583
25   0.147698
26   0.127251
27   0.125869
28   0.151102
29   0.150408
30   0.124721
31   0.131878
32   0.153929
33   0.154043
34   0.132683
35   0.294259

$$$$

