PCCDB-ID:  39244
public computational chemistry database (PCCDB) project, http://pccdb.org

 22 21  0  0  0  0  0  0  0  0999 V2000
    0.9074    0.6045   -0.3130 C   0  0  0  0  0  0  0  0  0  0  0  0
    6.7670    2.7374   -1.4528 C   0  0  0  0  0  0  0  0  0  0  0  0
    5.2358    2.6396   -1.4087 C   0  0  0  0  0  0  0  0  0  0  0  0
    7.2550    4.0141   -2.1433 C   0  0  0  0  0  0  0  0  0  0  0  0
    4.7698    1.3733   -0.7082 C   0  0  0  0  0  0  0  0  0  0  0  0
    8.6710    4.0796   -2.2423 O   0  0  0  0  0  0  0  0  0  0  0  0
    2.8571    0.2036    1.4689 O   0  0  0  0  0  0  0  0  0  0  0  0
    2.9162   -1.1175   -0.6879 O   0  0  0  0  0  0  0  0  0  0  0  0
    3.3128    1.3844   -0.7255 O   0  0  0  0  0  0  0  0  0  0  0  0
    2.5987    0.1147    0.0324 S   0  0  0  0  0  0  0  0  0  0  0  0
    0.2650   -0.1534    0.1400 H   0  0  0  0  0  0  0  0  0  0  0  0
    0.7636    0.6333   -1.3937 H   0  0  0  0  0  0  0  0  0  0  0  0
    0.7248    1.5809    0.1372 H   0  0  0  0  0  0  0  0  0  0  0  0
    7.1922    1.8745   -1.9809 H   0  0  0  0  0  0  0  0  0  0  0  0
    7.1683    2.7087   -0.4283 H   0  0  0  0  0  0  0  0  0  0  0  0
    4.8285    2.6512   -2.4276 H   0  0  0  0  0  0  0  0  0  0  0  0
    4.8144    3.5079   -0.8863 H   0  0  0  0  0  0  0  0  0  0  0  0
    6.8477    4.9002   -1.6279 H   0  0  0  0  0  0  0  0  0  0  0  0
    6.8888    4.0454   -3.1753 H   0  0  0  0  0  0  0  0  0  0  0  0
    5.1074    1.3418    0.3334 H   0  0  0  0  0  0  0  0  0  0  0  0
    5.1189    0.4729   -1.2246 H   0  0  0  0  0  0  0  0  0  0  0  0
    9.0267    4.1296   -1.3414 H   0  0  0  0  0  0  0  0  0  0  0  0
  1 10  1  0  0  0  0
  1 13  1  0  0  0  0
  1 11  1  0  0  0  0
  2  3  1  0  0  0  0
  2 15  1  0  0  0  0
  3 17  1  0  0  0  0
  3  5  1  0  0  0  0
  4 18  1  0  0  0  0
  4  2  1  0  0  0  0
  5 20  1  0  0  0  0
  6  4  1  0  0  0  0
  6 22  1  0  0  0  0
  8 10  1  0  0  0  0
  9  5  1  0  0  0  0
  9 10  1  0  0  0  0
 10  7  1  0  0  0  0
 12  1  1  0  0  0  0
 14  2  1  0  0  0  0
 16  3  1  0  0  0  0
 19  4  1  0  0  0  0
 21  5  1  0  0  0  0
M  RAD  2   7   2   8   2
M  END
>  <HBA>
4

>  <HBD>
1

>  <TPSA>
71.98

>  <cid>
39244

>  <dipole>
2.99

>  <excitation_energy_1>
6.536

>  <excitation_energy_2>
7.072

>  <excitation_energy_3>
7.165

>  <excitation_energy_4>
7.426

>  <homo_energy>
-7.393

>  <homo_lumo_gap>
8.596

>  <logP>
0.816

>  <lumo_energy>
1.203

>  <melting_point>
15.75

>  <molecular_refractivity>
37.36

>  <oscillator_strength_1>
0.0106

>  <oscillator_strength_2>
0.0014

>  <oscillator_strength_3>
0.0074

>  <oscillator_strength_4>
0.0302

>  <open_babel_can_smiles>
OCCCCOS([O])([O])C

>  <mulliken_charges>
22
1   -0.635572
2   -0.289596
3   -0.285605
4   -0.025968
5   -0.049007
6   -0.611276
7   -0.509308
8   -0.509596
9   -0.546723
10   1.206392
11   0.219052
12   0.217664
13   0.217362
14   0.155809
15   0.12963
16   0.156478
17   0.153701
18   0.121505
19   0.149708
20   0.172296
21   0.174989
22   0.388065

>  <lowdin_charges>
22
1   -0.584445
2   -0.293157
3   -0.278763
4   -0.13273
5   -0.125245
6   -0.463413
7   -0.578579
8   -0.578863
9   -0.427051
10   1.33864
11   0.201142
12   0.197382
13   0.198655
14   0.153303
15   0.137822
16   0.152978
17   0.15294
18   0.126647
19   0.147051
20   0.156192
21   0.159085
22   0.340409

$$$$

