PCCDB-ID:  19376
public computational chemistry database (PCCDB) project, http://pccdb.org

 12 11  0  0  0  0  0  0  0  0999 V2000
    1.0524    0.1345    0.0951 C   0  0  0  0  0  0  0  0  0  0  0  0
    2.8388   -0.4627   -2.3166 C   0  0  0  0  0  0  0  0  0  0  0  0
    3.2259   -0.7082   -0.9218 C   0  0  0  0  0  0  0  0  0  0  0  0
    2.5073   -0.2743   -3.4126 N   0  0  0  0  0  0  0  0  0  0  0  0
    3.1537    0.9899    0.8419 N   0  0  0  0  0  0  0  0  0  0  0  0
    2.5019    0.1502    0.0089 N   0  0  0  0  0  0  0  0  0  0  0  0
    4.3722    0.9842    0.7595 O   0  0  0  0  0  0  0  0  0  0  0  0
    0.6050    0.4066   -0.8668 H   0  0  0  0  0  0  0  0  0  0  0  0
    0.7665    0.8660    0.8528 H   0  0  0  0  0  0  0  0  0  0  0  0
    0.6922   -0.8582    0.3904 H   0  0  0  0  0  0  0  0  0  0  0  0
    4.2880   -0.4833   -0.7711 H   0  0  0  0  0  0  0  0  0  0  0  0
    3.0527   -1.7650   -0.6802 H   0  0  0  0  0  0  0  0  0  0  0  0
  1 10  1  0  0  0  0
  1  9  1  0  0  0  0
  2  3  1  0  0  0  0
  3 11  1  0  0  0  0
  3 12  1  0  0  0  0
  3  6  1  0  0  0  0
  4  2  3  0  0  0  0
  6  1  1  0  0  0  0
  6  5  1  0  0  0  0
  7  5  2  0  0  0  0
  8  1  1  0  0  0  0
M  END
>  <HBA>
4

>  <HBD>
0

>  <TPSA>
56.46

>  <cid>
19376

>  <dipole>
3.38

>  <excitation_energy_1>
3.435

>  <excitation_energy_2>
5.692

>  <excitation_energy_3>
5.978

>  <excitation_energy_4>
6.324

>  <homo_energy>
-6.865

>  <homo_lumo_gap>
5.276

>  <logP>
0.123

>  <lumo_energy>
-1.589

>  <melting_point>
31.02

>  <molecular_refractivity>
23.92

>  <oscillator_strength_1>
0.0009

>  <oscillator_strength_2>
0.0861

>  <oscillator_strength_3>
0.0003

>  <oscillator_strength_4>
0.1092

>  <open_babel_can_smiles>
CN(N=O)CC#N

>  <mulliken_charges>
12
1   -0.318856
2   0.364814
3   -0.228461
4   -0.451846
5   0.179567
6   -0.216579
7   -0.355386
8   0.192885
9   0.200812
10   0.171835
11   0.248421
12   0.212795

>  <lowdin_charges>
12
1   -0.354014
2   -0.02413
3   -0.21076
4   -0.103345
5   0.070001
6   -0.044752
7   -0.243753
8   0.170874
9   0.18386
10   0.160046
11   0.209061
12   0.186911

$$$$

