PCCDB-ID:  32737
public computational chemistry database (PCCDB) project, http://pccdb.org

 21 20  0  0  0  0  0  0  0  0999 V2000
    0.7619    0.1170    0.0800 C   0  0  0  0  0  0  0  0  0  0  0  0
    5.0995   -0.3014   -1.9082 C   0  0  0  0  0  0  0  0  0  0  0  0
    5.1277   -0.3943    0.6126 C   0  0  0  0  0  0  0  0  0  0  0  0
    2.3505   -1.9688   -1.6193 C   0  0  0  0  0  0  0  0  0  0  0  0
    2.2546   -0.0633    0.0261 C   0  0  0  0  0  0  0  0  0  0  0  0
    4.4956   -0.9792   -0.6586 C   0  0  0  0  0  0  0  0  0  0  0  0
    2.9668   -0.9397   -0.6988 C   0  0  0  0  0  0  0  0  0  0  0  0
    0.3888   -0.0316    1.1029 H   0  0  0  0  0  0  0  0  0  0  0  0
    0.2151   -0.5682   -0.5728 H   0  0  0  0  0  0  0  0  0  0  0  0
    0.4835    1.1412   -0.2049 H   0  0  0  0  0  0  0  0  0  0  0  0
    6.1896   -0.4199   -1.9268 H   0  0  0  0  0  0  0  0  0  0  0  0
    4.8743    0.7717   -1.9066 H   0  0  0  0  0  0  0  0  0  0  0  0
    4.7040   -0.7240   -2.8381 H   0  0  0  0  0  0  0  0  0  0  0  0
    6.2086   -0.5770    0.6139 H   0  0  0  0  0  0  0  0  0  0  0  0
    4.7045   -0.8447    1.5169 H   0  0  0  0  0  0  0  0  0  0  0  0
    4.9841    0.6909    0.6761 H   0  0  0  0  0  0  0  0  0  0  0  0
    1.2711   -1.8518   -1.7362 H   0  0  0  0  0  0  0  0  0  0  0  0
    2.5365   -2.9840   -1.2404 H   0  0  0  0  0  0  0  0  0  0  0  0
    2.7965   -1.9267   -2.6214 H   0  0  0  0  0  0  0  0  0  0  0  0
    2.8001    0.6240    0.6713 H   0  0  0  0  0  0  0  0  0  0  0  0
    4.7813   -2.0423   -0.7007 H   0  0  0  0  0  0  0  0  0  0  0  0
  1  8  1  0  0  0  0
  2 12  1  0  0  0  0
  2  6  1  0  0  0  0
  3 14  1  0  0  0  0
  3 16  1  0  0  0  0
  3 15  1  0  0  0  0
  4 18  1  0  0  0  0
  4  7  1  0  0  0  0
  5  1  1  0  0  0  0
  5 20  1  0  0  0  0
  6  3  1  0  0  0  0
  7  6  1  0  0  0  0
  7  5  2  0  0  0  0
  9  1  1  0  0  0  0
 10  1  1  0  0  0  0
 11  2  1  0  0  0  0
 13  2  1  0  0  0  0
 17  4  1  0  0  0  0
 19  4  1  0  0  0  0
 21  6  1  0  0  0  0
M  END
>  <HBA>
0

>  <HBD>
0

>  <TPSA>
0.0

>  <cid>
32737

>  <dipole>
0.17

>  <excitation_energy_1>
5.668

>  <excitation_energy_2>
6.115

>  <excitation_energy_3>
6.223

>  <excitation_energy_4>
6.434

>  <homo_energy>
-6.125

>  <homo_lumo_gap>
7.138

>  <logP>
2.609

>  <lumo_energy>
1.012

>  <melting_point>
-14.02

>  <molecular_refractivity>
35.29

>  <oscillator_strength_1>
0.0065

>  <oscillator_strength_2>
0.0191

>  <oscillator_strength_3>
0.017

>  <oscillator_strength_4>
0.0346

>  <open_babel_can_smiles>
C/C=C(/C(C)C)\C

>  <mulliken_charges>
21
1   -0.488204
2   -0.438326
3   -0.448917
4   -0.522634
5   -0.159837
6   -0.128794
7   0.182945
8   0.152129
9   0.15029
10   0.1517
11   0.139148
12   0.144933
13   0.142128
14   0.138354
15   0.146936
16   0.143469
17   0.152026
18   0.152341
19   0.151976
20   0.115427
21   0.122911

>  <lowdin_charges>
21
1   -0.44204
2   -0.4382
3   -0.441463
4   -0.442554
5   -0.192484
6   -0.116608
7   -0.017373
8   0.154159
9   0.153487
10   0.154154
11   0.144911
12   0.14689
13   0.147588
14   0.146929
15   0.151691
16   0.14449
17   0.152877
18   0.153816
19   0.152731
20   0.15011
21   0.136889

$$$$

