PCCDB-ID:  18230
public computational chemistry database (PCCDB) project, http://pccdb.org

 31 30  0  0  1  0  0  0  0  0999 V2000
    3.7553   -1.6919    1.2557 C   0  0  0  0  0  0  0  0  0  0  0  0
    7.0982    3.7971    0.7147 C   0  0  0  0  0  0  0  0  0  0  0  0
    7.1117    1.3649    0.9645 C   0  0  0  0  0  0  0  0  0  0  0  0
    7.0374    2.3675   -1.2771 C   0  0  0  0  0  0  0  0  0  0  0  0
    2.7519    1.6894   -0.4375 C   0  0  0  0  0  0  0  0  0  0  0  0
    5.0215    2.5701    0.2095 C   0  0  0  0  0  0  0  0  0  0  0  0
    4.1759   -0.2543    1.2413 C   0  0  0  0  0  0  0  0  0  0  0  0
    4.2556    1.4558   -0.4929 C   0  0  1  0  0  0  0  0  0  0  0  0
    2.1054    0.4516   -1.2170 C   0  0  0  0  0  0  0  0  0  0  0  0
    6.5733    2.5111    0.1442 N   0  0  0  0  0  0  0  0  0  0  0  0
    4.1685    0.5115    2.1859 O   0  0  0  0  0  0  0  0  0  0  0  0
    2.4254    0.4197   -2.4230 O   0  0  0  0  0  0  0  0  0  0  0  0
    1.4451   -0.3296   -0.4981 O   0  0  0  0  0  0  0  0  0  0  0  0
    4.5942    0.1244   -0.0086 O   0  0  0  0  0  0  0  0  0  0  0  0
    2.7761   -1.7059    0.7529 H   0  0  0  0  0  0  0  0  0  0  0  0
    3.6760   -2.0563    2.2810 H   0  0  0  0  0  0  0  0  0  0  0  0
    4.4411   -2.3095    0.6685 H   0  0  0  0  0  0  0  0  0  0  0  0
    8.1899    3.7719    0.7142 H   0  0  0  0  0  0  0  0  0  0  0  0
    6.7270    3.9020    1.7351 H   0  0  0  0  0  0  0  0  0  0  0  0
    6.7439    4.6293    0.1043 H   0  0  0  0  0  0  0  0  0  0  0  0
    8.1995    1.4526    1.0046 H   0  0  0  0  0  0  0  0  0  0  0  0
    6.8081    0.4339    0.4922 H   0  0  0  0  0  0  0  0  0  0  0  0
    6.6768    1.4170    1.9624 H   0  0  0  0  0  0  0  0  0  0  0  0
    8.1274    2.4310   -1.2996 H   0  0  0  0  0  0  0  0  0  0  0  0
    6.6022    3.1696   -1.8760 H   0  0  0  0  0  0  0  0  0  0  0  0
    6.7088    1.4026   -1.6593 H   0  0  0  0  0  0  0  0  0  0  0  0
    2.5235    2.6151   -0.9797 H   0  0  0  0  0  0  0  0  0  0  0  0
    2.3873    1.7676    0.5908 H   0  0  0  0  0  0  0  0  0  0  0  0
    4.7744    2.5972    1.2700 H   0  0  0  0  0  0  0  0  0  0  0  0
    4.7615    3.5205   -0.2643 H   0  0  0  0  0  0  0  0  0  0  0  0
    4.4982    1.3952   -1.5574 H   0  0  0  0  0  0  0  0  0  0  0  0
  1 16  1  0  0  0  0
  2 19  1  0  0  0  0
  3 21  1  0  0  0  0
  3 23  1  0  0  0  0
  4 10  1  0  0  0  0
  5 28  1  0  0  0  0
  6 29  1  0  0  0  0
  7  1  1  0  0  0  0
  7 11  2  0  0  0  0
  8 31  1  6  0  0  0
  8  5  1  0  0  0  0
  8 14  1  0  0  0  0
  8  6  1  0  0  0  0
  9 13  1  0  0  0  0
  9  5  1  0  0  0  0
 10  6  1  0  0  0  0
 10  2  1  0  0  0  0
 10  3  1  0  0  0  0
 12  9  2  0  0  0  0
 14  7  1  0  0  0  0
 15  1  1  0  0  0  0
 17  1  1  0  0  0  0
 18  2  1  0  0  0  0
 20  2  1  0  0  0  0
 22  3  1  0  0  0  0
 24  4  1  0  0  0  0
 25  4  1  0  0  0  0
 26  4  1  0  0  0  0
 27  5  1  0  0  0  0
 30  6  1  0  0  0  0
M  RAD  1  13   2
M  END
>  <HBA>
4

>  <HBD>
0

>  <TPSA>
66.43

>  <cid>
18230

>  <dipole>
18.88

>  <excitation_energy_1>
2.911

>  <excitation_energy_2>
2.962

>  <excitation_energy_3>
3.374

>  <excitation_energy_4>
3.524

>  <homo_energy>
-4.006

>  <homo_lumo_gap>
3.733

>  <logP>
-1.236

>  <lumo_energy>
-0.272

>  <melting_point>
90.67

>  <molecular_refractivity>
48.87

>  <oscillator_strength_1>
0.0019

>  <oscillator_strength_2>
0.0001

>  <oscillator_strength_3>
0.0005

>  <oscillator_strength_4>
0.0034

>  <open_babel_can_smiles>
[O]C(=O)C[C@@H](C[N](C)(C)C)OC(=O)C

>  <mulliken_charges>
31
1   -0.530357
2   -0.317732
3   -0.335709
4   -0.33269
5   -0.377501
6   -0.177919
7   0.616013
8   0.09316
9   0.570176
10   -0.36629
11   -0.493954
12   -0.597395
13   -0.591535
14   -0.491245
15   0.268323
16   0.159971
17   0.161373
18   0.194138
19   0.212934
20   0.203706
21   0.179531
22   0.235804
23   0.224854
24   0.190122
25   0.207014
26   0.240891
27   0.124952
28   0.146153
29   0.223141
30   0.178277
31   0.181794

>  <lowdin_charges>
31
1   -0.4743
2   -0.348895
3   -0.356429
4   -0.351054
5   -0.353727
6   -0.212441
7   0.230041
8   -0.009023
9   0.122427
10   0.069566
11   -0.286282
12   -0.423799
13   -0.419781
14   -0.223007
15   0.22532
16   0.16492
17   0.17168
18   0.173097
19   0.185167
20   0.181377
21   0.165551
22   0.197547
23   0.192029
24   0.172319
25   0.183951
26   0.198974
27   0.149598
28   0.149986
29   0.187183
30   0.169477
31   0.168528

$$$$

