PCCDB-ID:  1256
public computational chemistry database (PCCDB) project, http://pccdb.org

 26 26  0  0  1  0  0  0  0  0999 V2000
    0.2244    1.2296    0.5087 C   0  0  0  0  0  0  0  0  0  0  0  0
    0.7674   -1.1653    0.1657 C   0  0  0  0  0  0  0  0  0  0  0  0
    3.0940    1.9240    0.8384 C   0  0  0  0  0  0  0  0  0  0  0  0
    2.9144   -0.0936    2.3276 C   0  0  0  0  0  0  0  0  0  0  0  0
    2.8482    2.7286    2.0876 C   0  0  0  0  0  0  0  0  0  0  0  0
    2.2251    0.7181    3.4299 C   0  0  0  0  0  0  0  0  0  0  0  0
    1.1385    0.2534    0.5343 C   0  0  0  0  0  0  0  0  0  0  0  0
    2.6007    0.4638    0.9142 C   0  0  1  0  0  0  0  0  0  0  0  0
    2.4430    2.2027    3.2565 C   0  0  0  0  0  0  0  0  0  0  0  0
    2.2751    3.0422    4.4870 C   0  0  0  0  0  0  0  0  0  0  0  0
    2.4023    2.6060    5.6078 O   0  0  0  0  0  0  0  0  0  0  0  0
    1.9745    4.3589    4.3027 O   0  0  0  0  0  0  0  0  0  0  0  0
   -0.8079    1.0284    0.2336 H   0  0  0  0  0  0  0  0  0  0  0  0
    0.4583    2.2583    0.7650 H   0  0  0  0  0  0  0  0  0  0  0  0
   -0.2923   -1.2481   -0.0933 H   0  0  0  0  0  0  0  0  0  0  0  0
    0.9673   -1.8672    0.9856 H   0  0  0  0  0  0  0  0  0  0  0  0
    1.3565   -1.5138   -0.6939 H   0  0  0  0  0  0  0  0  0  0  0  0
    4.1776    1.9272    0.6443 H   0  0  0  0  0  0  0  0  0  0  0  0
    2.6450    2.4342   -0.0238 H   0  0  0  0  0  0  0  0  0  0  0  0
    2.6254   -1.1475    2.4020 H   0  0  0  0  0  0  0  0  0  0  0  0
    4.0018   -0.0564    2.4767 H   0  0  0  0  0  0  0  0  0  0  0  0
    3.0787    3.7926    2.0152 H   0  0  0  0  0  0  0  0  0  0  0  0
    2.5925    0.4281    4.4196 H   0  0  0  0  0  0  0  0  0  0  0  0
    1.1451    0.5117    3.4326 H   0  0  0  0  0  0  0  0  0  0  0  0
    3.1948   -0.1200    0.1963 H   0  0  0  0  0  0  0  0  0  0  0  0
    1.7440    4.5047    3.3707 H   0  0  0  0  0  0  0  0  0  0  0  0
  1  7  2  0  0  0  0
  1 14  1  0  0  0  0
  2  7  1  0  0  0  0
  2 16  1  0  0  0  0
  3  8  1  0  0  0  0
  3  5  1  0  0  0  0
  4 20  1  0  0  0  0
  4 21  1  0  0  0  0
  4  6  1  0  0  0  0
  5  9  2  0  0  0  0
  6 24  1  0  0  0  0
  6 23  1  0  0  0  0
  7  8  1  0  0  0  0
  8 25  1  6  0  0  0
  8  4  1  0  0  0  0
  9  6  1  0  0  0  0
  9 10  1  0  0  0  0
 10 11  2  0  0  0  0
 12 10  1  0  0  0  0
 13  1  1  0  0  0  0
 15  2  1  0  0  0  0
 17  2  1  0  0  0  0
 18  3  1  0  0  0  0
 19  3  1  0  0  0  0
 22  5  1  0  0  0  0
 26 12  1  0  0  0  0
M  END
>  <HBA>
2

>  <HBD>
1

>  <TPSA>
37.3

>  <cid>
1256

>  <dipole>
4.89

>  <excitation_energy_1>
4.8

>  <excitation_energy_2>
4.953

>  <excitation_energy_3>
5.753

>  <excitation_energy_4>
5.907

>  <homo_energy>
-6.803

>  <homo_lumo_gap>
5.788

>  <logP>
2.374

>  <lumo_energy>
-1.015

>  <melting_point>
66.55

>  <molecular_refractivity>
48.89

>  <oscillator_strength_1>
0.0039

>  <oscillator_strength_2>
0.0163

>  <oscillator_strength_3>
0.1962

>  <oscillator_strength_4>
0.0109

>  <open_babel_can_smiles>
CC(=C)[C@@H]1CCC(=CC1)C(=O)O

>  <mulliken_charges>
26
1   -0.39979
2   -0.515551
3   -0.317138
4   -0.282405
5   -0.189478
6   -0.32942
7   0.22542
8   -0.153937
9   0.087594
10   0.547653
11   -0.448357
12   -0.57272
13   0.135178
14   0.128639
15   0.156429
16   0.158955
17   0.154407
18   0.159694
19   0.158228
20   0.141256
21   0.14435
22   0.129952
23   0.182553
24   0.162969
25   0.130778
26   0.404739

>  <lowdin_charges>
26
1   -0.364137
2   -0.441966
3   -0.276716
4   -0.268741
5   -0.163415
6   -0.273852
7   0.006744
8   -0.12973
9   -0.058129
10   0.192095
11   -0.241397
12   -0.359401
13   0.155478
14   0.152985
15   0.1573
16   0.157439
17   0.156558
18   0.159526
19   0.161085
20   0.14699
21   0.145723
22   0.150783
23   0.173562
24   0.158583
25   0.149464
26   0.35317

$$$$

