PCCDB-ID:  11599
public computational chemistry database (PCCDB) project, http://pccdb.org

 16 15  0  0  0  0  0  0  0  0999 V2000
    1.3285   -1.1799   -0.2074 C   0  0  0  0  0  0  0  0  0  0  0  0
    6.8017    1.2484   -0.2158 C   0  0  0  0  0  0  0  0  0  0  0  0
    2.1531   -0.1376   -0.3135 C   0  0  0  0  0  0  0  0  0  0  0  0
    5.3665    1.3128    0.2227 C   0  0  0  0  0  0  0  0  0  0  0  0
    3.1002    0.3344    0.7646 C   0  0  0  0  0  0  0  0  0  0  0  0
    4.5451    0.2651    0.3295 C   0  0  0  0  0  0  0  0  0  0  0  0
    0.6724   -1.4773   -1.0212 H   0  0  0  0  0  0  0  0  0  0  0  0
    1.2747   -1.7757    0.7021 H   0  0  0  0  0  0  0  0  0  0  0  0
    6.9742    1.8659   -1.1079 H   0  0  0  0  0  0  0  0  0  0  0  0
    7.1051    0.2225   -0.4504 H   0  0  0  0  0  0  0  0  0  0  0  0
    7.4743    1.6314    0.5638 H   0  0  0  0  0  0  0  0  0  0  0  0
    2.1841    0.4293   -1.2448 H   0  0  0  0  0  0  0  0  0  0  0  0
    4.9860    2.3049    0.4753 H   0  0  0  0  0  0  0  0  0  0  0  0
    2.9490   -0.2787    1.6648 H   0  0  0  0  0  0  0  0  0  0  0  0
    2.8585    1.3709    1.0410 H   0  0  0  0  0  0  0  0  0  0  0  0
    4.9139   -0.7298    0.0730 H   0  0  0  0  0  0  0  0  0  0  0  0
  1  8  1  0  0  0  0
  2  4  1  0  0  0  0
  2 11  1  0  0  0  0
  3  1  2  0  0  0  0
  3  5  1  0  0  0  0
  4  6  2  0  0  0  0
  4 13  1  0  0  0  0
  5 15  1  0  0  0  0
  5 14  1  0  0  0  0
  6  5  1  0  0  0  0
  7  1  1  0  0  0  0
  9  2  1  0  0  0  0
 10  2  1  0  0  0  0
 12  3  1  0  0  0  0
 16  6  1  0  0  0  0
M  END
>  <HBA>
0

>  <HBD>
0

>  <TPSA>
0.0

>  <cid>
11599

>  <dipole>
0.42

>  <excitation_energy_1>
5.891

>  <excitation_energy_2>
6.236

>  <excitation_energy_3>
6.406

>  <excitation_energy_4>
6.519

>  <homo_energy>
-6.476

>  <homo_lumo_gap>
6.803

>  <logP>
2.139

>  <lumo_energy>
0.327

>  <melting_point>
-37.37

>  <molecular_refractivity>
30.01

>  <oscillator_strength_1>
0.1659

>  <oscillator_strength_2>
0.0202

>  <oscillator_strength_3>
0.1298

>  <oscillator_strength_4>
0.0185

>  <open_babel_can_smiles>
C=CC/C=C/C

>  <mulliken_charges>
16
1   -0.341095
2   -0.485952
3   -0.038237
4   -0.091672
5   -0.351501
6   -0.085353
7   0.138538
8   0.133938
9   0.154156
10   0.152682
11   0.154296
12   0.129117
13   0.117597
14   0.145312
15   0.146482
16   0.121692

>  <lowdin_charges>
16
1   -0.345459
2   -0.439509
3   -0.143007
4   -0.164682
5   -0.266314
6   -0.169074
7   0.158954
8   0.153333
9   0.156426
10   0.153976
11   0.157205
12   0.151428
13   0.144785
14   0.152383
15   0.151901
16   0.147655

$$$$

