PCCDB-ID:  977
public computational chemistry database (PCCDB) project, http://pccdb.org

  2  1  0  0  0  0  0  0  0  0999 V2000
    0.9587   -0.0997   -0.0063 O   0  0  0  0  0  0  0  0  0  0  0  0
    2.1747   -0.0997   -0.0063 O   0  0  0  0  0  0  0  0  0  0  0  0
  1  2  2  0  0  0  0
M  END
>  <HBA>
2

>  <HBD>
0

>  <TPSA>
34.14

>  <cid>
977

>  <dipole>
0.0

>  <excitation_energy_1>
6.361

>  <excitation_energy_2>
7.418

>  <excitation_energy_3>
8.037

>  <excitation_energy_4>
8.212

>  <homo_energy>
-6.808

>  <homo_lumo_gap>
1.929

>  <logP>
0.067

>  <lumo_energy>
-4.879

>  <melting_point>
0.0

>  <molecular_refractivity>
6.73

>  <oscillator_strength_1>
0.0

>  <oscillator_strength_2>
0.0

>  <oscillator_strength_3>
0.0

>  <oscillator_strength_4>
0.0146

>  <open_babel_can_smiles>
O=O

>  <mulliken_charges>
2
1   1.1e-05
2   -1.1e-05

>  <lowdin_charges>
2
1   2e-06
2   -2e-06

$$$$

