PCCDB-ID:  56637
public computational chemistry database (PCCDB) project, http://pccdb.org

 25 25  0  0  1  0  0  0  0  0999 V2000
    0.4805    1.4062   -0.1563 C   0  0  0  0  0  0  0  0  0  0  0  0
    0.7982   -1.1400    0.0409 C   0  0  0  0  0  0  0  0  0  0  0  0
    1.3837    0.2602    0.3051 C   0  0  2  0  0  0  0  0  0  0  0  0
   -0.9974    1.2320    0.2247 C   0  0  2  0  0  0  0  0  0  0  0  0
   -0.6827   -1.2777    0.4078 C   0  0  2  0  0  0  0  0  0  0  0  0
   -1.5413   -0.1488   -0.1948 C   0  0  1  0  0  0  0  0  0  0  0  0
    1.7431    0.3784    1.7859 N   0  0  0  0  0  0  0  0  0  0  0  0
   -1.8165    2.2779   -0.5117 N   0  0  0  0  0  0  0  0  0  0  0  0
   -0.8516   -1.4134    1.9297 N   0  0  0  0  0  0  0  0  0  0  0  0
   -2.9181   -0.2948    0.0245 O   0  0  0  0  0  0  0  0  0  0  0  0
    2.7754   -0.1774    2.1348 O   0  0  0  0  0  0  0  0  0  0  0  0
    0.9787    1.0011    2.5197 O   0  0  0  0  0  0  0  0  0  0  0  0
   -2.5301    3.0068    0.1624 O   0  0  0  0  0  0  0  0  0  0  0  0
   -1.7065    2.3100   -1.7362 O   0  0  0  0  0  0  0  0  0  0  0  0
   -1.8220   -0.8705    2.4606 O   0  0  0  0  0  0  0  0  0  0  0  0
   -0.0357   -2.1079    2.5146 O   0  0  0  0  0  0  0  0  0  0  0  0
    0.5426    1.4477   -1.2493 H   0  0  0  0  0  0  0  0  0  0  0  0
    0.8580    2.3578    0.2294 H   0  0  0  0  0  0  0  0  0  0  0  0
    1.3947   -1.9003    0.5492 H   0  0  0  0  0  0  0  0  0  0  0  0
    0.8804   -1.3269   -1.0359 H   0  0  0  0  0  0  0  0  0  0  0  0
    2.3576    0.3272   -0.1833 H   0  0  0  0  0  0  0  0  0  0  0  0
   -1.1734    1.4264    1.2806 H   0  0  0  0  0  0  0  0  0  0  0  0
   -1.0682   -2.2365    0.0458 H   0  0  0  0  0  0  0  0  0  0  0  0
   -1.4080   -0.2267   -1.2806 H   0  0  0  0  0  0  0  0  0  0  0  0
   -3.0484   -0.3065    0.9901 H   0  0  0  0  0  0  0  0  0  0  0  0
  1  4  1  0  0  0  0
  1 18  1  0  0  0  0
  1  3  1  0  0  0  0
  2  3  1  0  0  0  0
  2  5  1  0  0  0  0
  2 19  1  0  0  0  0
  3 21  1  6  0  0  0
  3  7  1  0  0  0  0
  4 22  1  1  0  0  0
  5 23  1  6  0  0  0
  5  9  1  0  0  0  0
  6 24  1  6  0  0  0
  6 10  1  0  0  0  0
  6  4  1  0  0  0  0
  6  5  1  0  0  0  0
  7 11  2  0  0  0  0
  7 12  2  0  0  0  0
  8 13  2  0  0  0  0
  8  4  1  0  0  0  0
  9 15  2  0  0  0  0
  9 16  2  0  0  0  0
 10 25  1  0  0  0  0
 14  8  2  0  0  0  0
 17  1  1  0  0  0  0
 20  2  1  0  0  0  0
M  END
>  <HBA>
1

>  <HBD>
1

>  <TPSA>
157.69

>  <cid>
56637

>  <dipole>
5.01

>  <excitation_energy_1>
4.104

>  <excitation_energy_2>
4.112

>  <excitation_energy_3>
4.153

>  <excitation_energy_4>
4.3

>  <homo_energy>
-8.155

>  <homo_lumo_gap>
5.339

>  <logP>
0.647

>  <lumo_energy>
-2.816

>  <melting_point>
106.9

>  <molecular_refractivity>
54.32

>  <oscillator_strength_1>
0.0002

>  <oscillator_strength_2>
0.0001

>  <oscillator_strength_3>
0.0001

>  <oscillator_strength_4>
0.0001

>  <open_babel_can_smiles>
O=N(=O)[C@@H]1C[C@@H](N(=O)=O)[C@@H]([C@@H](C1)N(=O)=O)O

>  <mulliken_charges>
25
1   -0.30272
2   -0.307162
3   -0.031253
4   -0.044889
5   -0.062396
6   0.131764
7   0.453972
8   0.470098
9   0.464025
10   -0.629772
11   -0.352934
12   -0.368373
13   -0.360492
14   -0.380972
15   -0.380796
16   -0.338407
17   0.192777
18   0.195697
19   0.222693
20   0.185765
21   0.200873
22   0.218877
23   0.219745
24   0.178515
25   0.425367

>  <lowdin_charges>
25
1   -0.287666
2   -0.284841
3   -0.082959
4   -0.108445
5   -0.101399
6   -0.018906
7   0.28926
8   0.299496
9   0.295109
10   -0.438265
11   -0.221676
12   -0.237961
13   -0.217358
14   -0.245497
15   -0.23672
16   -0.208253
17   0.176158
18   0.17925
19   0.192191
20   0.175921
21   0.185006
22   0.185607
23   0.193923
24   0.167762
25   0.350263

$$$$

