PCCDB-ID:  66319
public computational chemistry database (PCCDB) project, http://pccdb.org

 21 22  0  0  0  0  0  0  0  0999 V2000
   -2.1983   -0.2286    0.3257 C   0  0  0  0  0  0  0  0  0  0  0  0
   -1.6625    0.6807   -0.5908 C   0  0  0  0  0  0  0  0  0  0  0  0
   -1.3556   -1.0926    1.0271 C   0  0  0  0  0  0  0  0  0  0  0  0
   -0.2883    0.7238   -0.8061 C   0  0  0  0  0  0  0  0  0  0  0  0
    0.0202   -1.0672    0.7997 C   0  0  0  0  0  0  0  0  0  0  0  0
    3.6844   -3.2084   -0.3427 C   0  0  0  0  0  0  0  0  0  0  0  0
    2.5019   -2.5331   -0.4143 C   0  0  0  0  0  0  0  0  0  0  0  0
    4.2180   -1.1427   -0.1611 C   0  0  0  0  0  0  0  0  0  0  0  0
    0.5615   -0.1634   -0.1275 C   0  0  0  0  0  0  0  0  0  0  0  0
    2.0268   -0.0174   -0.3679 C   0  0  0  0  0  0  0  0  0  0  0  0
    4.7490   -2.3346   -0.1727 N   0  0  0  0  0  0  0  0  0  0  0  0
    2.8373   -1.1809   -0.2905 N   0  0  0  0  0  0  0  0  0  0  0  0
    2.5443    1.0550   -0.6172 O   0  0  0  0  0  0  0  0  0  0  0  0
   -3.2705   -0.2569    0.4993 H   0  0  0  0  0  0  0  0  0  0  0  0
   -2.3161    1.3599   -1.1306 H   0  0  0  0  0  0  0  0  0  0  0  0
   -1.7678   -1.7845    1.7560 H   0  0  0  0  0  0  0  0  0  0  0  0
    0.1470    1.4384   -1.4971 H   0  0  0  0  0  0  0  0  0  0  0  0
    0.6719   -1.7259    1.3642 H   0  0  0  0  0  0  0  0  0  0  0  0
    3.8428   -4.2764   -0.4071 H   0  0  0  0  0  0  0  0  0  0  0  0
    1.4890   -2.8578   -0.5849 H   0  0  0  0  0  0  0  0  0  0  0  0
    4.7372   -0.2021   -0.0520 H   0  0  0  0  0  0  0  0  0  0  0  0
  1 14  1  0  0  0  0
  1  3  2  0  0  0  0
  2  1  1  0  0  0  0
  3 16  1  0  0  0  0
  4  2  2  0  0  0  0
  4  9  1  0  0  0  0
  5  3  1  0  0  0  0
  5 18  1  0  0  0  0
  6 11  1  0  0  0  0
  7  6  2  0  0  0  0
  7 12  1  0  0  0  0
  8 21  1  0  0  0  0
  9  5  2  0  0  0  0
 10 12  1  0  0  0  0
 10  9  1  0  0  0  0
 11  8  2  0  0  0  0
 12  8  1  0  0  0  0
 13 10  2  0  0  0  0
 15  2  1  0  0  0  0
 17  4  1  0  0  0  0
 19  6  1  0  0  0  0
 20  7  1  0  0  0  0
M  END
>  <HBA>
3

>  <HBD>
0

>  <TPSA>
34.89

>  <cid>
66319

>  <dipole>
4.9

>  <excitation_energy_1>
3.908

>  <excitation_energy_2>
4.338

>  <excitation_energy_3>
4.755

>  <excitation_energy_4>
4.801

>  <homo_energy>
-6.547

>  <homo_lumo_gap>
4.694

>  <logP>
1.572

>  <lumo_energy>
-1.853

>  <melting_point>
83.1

>  <molecular_refractivity>
48.4

>  <oscillator_strength_1>
0.0093

>  <oscillator_strength_2>
0.0086

>  <oscillator_strength_3>
0.0169

>  <oscillator_strength_4>
0.079

>  <open_babel_can_smiles>
O=C(n1cncc1)c1ccccc1

>  <mulliken_charges>
21
1   -0.11555
2   -0.136665
3   -0.137274
4   -0.143056
5   -0.170773
6   -0.038059
7   0.00568
8   0.23094
9   0.064313
10   0.525741
11   -0.432794
12   -0.471189
13   -0.455299
14   0.144558
15   0.145895
16   0.144797
17   0.165855
18   0.161188
19   0.14721
20   0.175995
21   0.188489

>  <lowdin_charges>
21
1   -0.134143
2   -0.152321
3   -0.154174
4   -0.127306
5   -0.152113
6   -0.138333
7   -0.166158
8   -0.065942
9   -0.045379
10   0.18793
11   -0.16829
12   -0.023091
13   -0.238874
14   0.163182
15   0.167225
16   0.166085
17   0.178664
18   0.172818
19   0.165153
20   0.179804
21   0.185264

$$$$

