PCCDB-ID:  27673
public computational chemistry database (PCCDB) project, http://pccdb.org

 23 24  0  0  0  0  0  0  0  0999 V2000
    3.0338    1.6157   -0.6714 C   0  0  0  0  0  0  0  0  0  0  0  0
    2.2723   -4.9356   -0.5047 C   0  0  0  0  0  0  0  0  0  0  0  0
    1.5340   -4.0774    0.3129 C   0  0  0  0  0  0  0  0  0  0  0  0
    3.2156   -4.4112   -1.3956 C   0  0  0  0  0  0  0  0  0  0  0  0
    1.7113   -2.6907    0.2677 C   0  0  0  0  0  0  0  0  0  0  0  0
    4.3487   -2.2351   -2.3182 C   0  0  0  0  0  0  0  0  0  0  0  0
    4.0702   -0.7650   -1.9099 C   0  0  0  0  0  0  0  0  0  0  0  0
    2.4853    0.2654   -0.2332 C   0  0  0  0  0  0  0  0  0  0  0  0
    3.4037   -3.0363   -1.4527 C   0  0  0  0  0  0  0  0  0  0  0  0
    2.6569   -2.1842   -0.6280 C   0  0  0  0  0  0  0  0  0  0  0  0
    3.0211   -0.8363   -0.8668 N   0  0  0  0  0  0  0  0  0  0  0  0
    1.6200    0.1757    0.6302 O   0  0  0  0  0  0  0  0  0  0  0  0
    4.1119    1.6964   -0.4886 H   0  0  0  0  0  0  0  0  0  0  0  0
    2.5164    2.3844   -0.0966 H   0  0  0  0  0  0  0  0  0  0  0  0
    2.8667    1.7949   -1.7401 H   0  0  0  0  0  0  0  0  0  0  0  0
    2.1167   -6.0093   -0.4501 H   0  0  0  0  0  0  0  0  0  0  0  0
    0.8023   -4.4890    1.0030 H   0  0  0  0  0  0  0  0  0  0  0  0
    3.7962   -5.0720   -2.0351 H   0  0  0  0  0  0  0  0  0  0  0  0
    1.1435   -2.0214    0.8976 H   0  0  0  0  0  0  0  0  0  0  0  0
    5.3962   -2.5050   -2.1391 H   0  0  0  0  0  0  0  0  0  0  0  0
    4.1600   -2.3929   -3.3865 H   0  0  0  0  0  0  0  0  0  0  0  0
    3.7192   -0.1684   -2.7586 H   0  0  0  0  0  0  0  0  0  0  0  0
    4.9667   -0.2785   -1.5113 H   0  0  0  0  0  0  0  0  0  0  0  0
  1 13  1  0  0  0  0
  1  8  1  0  0  0  0
  1 14  1  0  0  0  0
  2 16  1  0  0  0  0
  2  3  2  0  0  0  0
  3 17  1  0  0  0  0
  4  2  1  0  0  0  0
  5  3  1  0  0  0  0
  5 19  1  0  0  0  0
  6 20  1  0  0  0  0
  6  7  1  0  0  0  0
  6  9  1  0  0  0  0
  7 23  1  0  0  0  0
  7 11  1  0  0  0  0
  8 12  2  0  0  0  0
  9  4  2  0  0  0  0
  9 10  1  0  0  0  0
 10  5  2  0  0  0  0
 11 10  1  0  0  0  0
 11  8  1  0  0  0  0
 15  1  1  0  0  0  0
 18  4  1  0  0  0  0
 21  6  1  0  0  0  0
 22  7  1  0  0  0  0
M  END
>  <HBA>
2

>  <HBD>
0

>  <TPSA>
20.31

>  <cid>
27673

>  <dipole>
3.93

>  <excitation_energy_1>
4.697

>  <excitation_energy_2>
5.02

>  <excitation_energy_3>
5.028

>  <excitation_energy_4>
5.14

>  <homo_energy>
-5.614

>  <homo_lumo_gap>
5.483

>  <logP>
1.661

>  <lumo_energy>
-0.131

>  <melting_point>
60.81

>  <molecular_refractivity>
51.44

>  <oscillator_strength_1>
0.0345

>  <oscillator_strength_2>
0.3078

>  <oscillator_strength_3>
0.0066

>  <oscillator_strength_4>
0.0005

>  <open_babel_can_smiles>
CC(=O)N1CCc2c1cccc2

>  <mulliken_charges>
23
1   -0.544399
2   -0.129384
3   -0.148204
4   -0.203118
5   -0.152385
6   -0.369219
7   -0.128898
8   0.569585
9   0.088551
10   0.32679
11   -0.555867
12   -0.494545
13   0.167656
14   0.188995
15   0.167297
16   0.125099
17   0.130542
18   0.123584
19   0.181451
20   0.166456
21   0.166335
22   0.161792
23   0.161885

>  <lowdin_charges>
23
1   -0.469102
2   -0.167682
3   -0.15234
4   -0.164392
5   -0.180561
6   -0.274868
7   -0.188265
8   0.161572
9   -0.030964
10   0.052384
11   -0.082547
12   -0.296907
13   0.164955
14   0.180876
15   0.164854
16   0.154711
17   0.15977
18   0.157364
19   0.187859
20   0.159368
21   0.159021
22   0.152507
23   0.152387

$$$$

