PCCDB-ID:  17111
public computational chemistry database (PCCDB) project, http://pccdb.org

 23 22  0  0  0  0  0  0  0  0999 V2000
    3.8064   -2.5538   -0.2343 C   0  0  0  0  0  0  0  0  0  0  0  0
    6.8307    1.7136    4.6493 C   0  0  0  0  0  0  0  0  0  0  0  0
    8.6212    2.5301    3.2748 C   0  0  0  0  0  0  0  0  0  0  0  0
    4.2063   -1.2805   -0.2298 C   0  0  0  0  0  0  0  0  0  0  0  0
    6.7826    1.3360    2.2501 C   0  0  0  0  0  0  0  0  0  0  0  0
    5.2877    1.4781    1.9540 C   0  0  0  0  0  0  0  0  0  0  0  0
    4.5519   -0.5983    1.0436 C   0  0  0  0  0  0  0  0  0  0  0  0
    7.1967    2.2268    3.3327 N   0  0  0  0  0  0  0  0  0  0  0  0
    4.5049   -1.1006    2.1492 O   0  0  0  0  0  0  0  0  0  0  0  0
    4.9274    0.6825    0.8045 O   0  0  0  0  0  0  0  0  0  0  0  0
    3.5481   -3.0685   -1.1547 H   0  0  0  0  0  0  0  0  0  0  0  0
    3.7293   -3.1081    0.6968 H   0  0  0  0  0  0  0  0  0  0  0  0
    7.0804    2.4582    5.4129 H   0  0  0  0  0  0  0  0  0  0  0  0
    7.3518    0.7700    4.9036 H   0  0  0  0  0  0  0  0  0  0  0  0
    5.7545    1.5276    4.7049 H   0  0  0  0  0  0  0  0  0  0  0  0
    8.8727    3.2495    4.0619 H   0  0  0  0  0  0  0  0  0  0  0  0
    8.8665    2.9848    2.3092 H   0  0  0  0  0  0  0  0  0  0  0  0
    9.2666    1.6399    3.4111 H   0  0  0  0  0  0  0  0  0  0  0  0
    4.2962   -0.6951   -1.1399 H   0  0  0  0  0  0  0  0  0  0  0  0
    7.3300    1.6152    1.3430 H   0  0  0  0  0  0  0  0  0  0  0  0
    7.0180    0.2762    2.4599 H   0  0  0  0  0  0  0  0  0  0  0  0
    5.0553    2.5094    1.6815 H   0  0  0  0  0  0  0  0  0  0  0  0
    4.6715    1.1717    2.8012 H   0  0  0  0  0  0  0  0  0  0  0  0
  1  4  2  0  0  0  0
  1 12  1  0  0  0  0
  2 15  1  0  0  0  0
  2 14  1  0  0  0  0
  2 13  1  0  0  0  0
  3  8  1  0  0  0  0
  3 18  1  0  0  0  0
  3 16  1  0  0  0  0
  4  7  1  0  0  0  0
  5 21  1  0  0  0  0
  5  8  1  0  0  0  0
  6  5  1  0  0  0  0
  6 23  1  0  0  0  0
  7  9  2  0  0  0  0
  8  2  1  0  0  0  0
 10  7  1  0  0  0  0
 10  6  1  0  0  0  0
 11  1  1  0  0  0  0
 17  3  1  0  0  0  0
 19  4  1  0  0  0  0
 20  5  1  0  0  0  0
 22  6  1  0  0  0  0
M  END
>  <HBA>
3

>  <HBD>
0

>  <TPSA>
29.54

>  <cid>
17111

>  <dipole>
1.27

>  <excitation_energy_1>
3.946

>  <excitation_energy_2>
4.765

>  <excitation_energy_3>
5.475

>  <excitation_energy_4>
5.876

>  <homo_energy>
-5.834

>  <homo_lumo_gap>
4.637

>  <logP>
0.277

>  <lumo_energy>
-1.197

>  <melting_point>
-32.75

>  <molecular_refractivity>
39.47

>  <oscillator_strength_1>
0.0032

>  <oscillator_strength_2>
0.0001

>  <oscillator_strength_3>
0.0108

>  <oscillator_strength_4>
0.0269

>  <open_babel_can_smiles>
C=CC(=O)OCCN(C)C

>  <mulliken_charges>
23
1   -0.302545
2   -0.303302
3   -0.295149
4   -0.133443
5   -0.138939
6   -0.048987
7   0.607941
8   -0.375356
9   -0.49271
10   -0.477702
11   0.157328
12   0.180654
13   0.149701
14   0.125337
15   0.157166
16   0.149253
17   0.150055
18   0.120999
19   0.153919
20   0.145224
21   0.138358
22   0.161351
23   0.170846

>  <lowdin_charges>
23
1   -0.266437
2   -0.35689
3   -0.356164
4   -0.186412
5   -0.20943
6   -0.137852
7   0.196491
8   -0.185319
9   -0.274727
10   -0.191688
11   0.169385
12   0.179964
13   0.151689
14   0.124621
15   0.151083
16   0.151016
17   0.149762
18   0.122585
19   0.170747
20   0.150274
21   0.131208
22   0.156652
23   0.159441

$$$$

