PCCDB-ID:  69953
public computational chemistry database (PCCDB) project, http://pccdb.org

 24 23  0  0  0  0  0  0  0  0999 V2000
    5.4538    1.3912   -0.1807 C   0  0  0  0  0  0  0  0  0  0  0  0
    6.6154    0.5937    1.8863 C   0  0  0  0  0  0  0  0  0  0  0  0
    4.7451   -2.6496    4.7256 C   0  0  0  0  0  0  0  0  0  0  0  0
    2.2994   -2.0060    4.9815 C   0  0  0  0  0  0  0  0  0  0  0  0
    4.0774    0.9522    1.8205 C   0  0  0  0  0  0  0  0  0  0  0  0
    5.3968    0.9874    1.0917 C   0  0  0  0  0  0  0  0  0  0  0  0
    3.5236   -2.0022    4.0496 C   0  0  0  0  0  0  0  0  0  0  0  0
    3.8621   -0.5672    3.6695 C   0  0  0  0  0  0  0  0  0  0  0  0
    4.1557    0.2986    4.4675 O   0  0  0  0  0  0  0  0  0  0  0  0
    3.7972   -0.3803    2.3285 O   0  0  0  0  0  0  0  0  0  0  0  0
    6.3991    1.4761   -0.7105 H   0  0  0  0  0  0  0  0  0  0  0  0
    4.5594    1.6593   -0.7378 H   0  0  0  0  0  0  0  0  0  0  0  0
    7.5320    0.7277    1.3045 H   0  0  0  0  0  0  0  0  0  0  0  0
    6.5587   -0.4588    2.1916 H   0  0  0  0  0  0  0  0  0  0  0  0
    6.6941    1.1838    2.8081 H   0  0  0  0  0  0  0  0  0  0  0  0
    4.5135   -3.6789    5.0207 H   0  0  0  0  0  0  0  0  0  0  0  0
    5.0281   -2.0861    5.6204 H   0  0  0  0  0  0  0  0  0  0  0  0
    5.6092   -2.6777    4.0520 H   0  0  0  0  0  0  0  0  0  0  0  0
    2.0548   -3.0310    5.2807 H   0  0  0  0  0  0  0  0  0  0  0  0
    1.4192   -1.5775    4.4892 H   0  0  0  0  0  0  0  0  0  0  0  0
    2.5053   -1.4195    5.8825 H   0  0  0  0  0  0  0  0  0  0  0  0
    3.2492    1.1939    1.1500 H   0  0  0  0  0  0  0  0  0  0  0  0
    4.0773    1.6418    2.6700 H   0  0  0  0  0  0  0  0  0  0  0  0
    3.2849   -2.5468    3.1304 H   0  0  0  0  0  0  0  0  0  0  0  0
  1  6  2  0  0  0  0
  2 14  1  0  0  0  0
  2 15  1  0  0  0  0
  3 16  1  0  0  0  0
  3 17  1  0  0  0  0
  4 19  1  0  0  0  0
  4 21  1  0  0  0  0
  5 10  1  0  0  0  0
  5 23  1  0  0  0  0
  6  5  1  0  0  0  0
  6  2  1  0  0  0  0
  7  3  1  0  0  0  0
  7  4  1  0  0  0  0
  8  7  1  0  0  0  0
  8  9  2  0  0  0  0
 10  8  1  0  0  0  0
 11  1  1  0  0  0  0
 12  1  1  0  0  0  0
 13  2  1  0  0  0  0
 18  3  1  0  0  0  0
 20  4  1  0  0  0  0
 22  5  1  0  0  0  0
 24  7  1  0  0  0  0
M  END
>  <HBA>
2

>  <HBD>
0

>  <TPSA>
26.3

>  <cid>
69953

>  <dipole>
1.37

>  <excitation_energy_1>
5.734

>  <excitation_energy_2>
6.395

>  <excitation_energy_3>
6.463

>  <excitation_energy_4>
6.668

>  <homo_energy>
-6.86

>  <homo_lumo_gap>
7.034

>  <logP>
1.762

>  <lumo_energy>
0.174

>  <melting_point>
-32.63

>  <molecular_refractivity>
41.38

>  <oscillator_strength_1>
0.0072

>  <oscillator_strength_2>
0.0642

>  <oscillator_strength_3>
0.0181

>  <oscillator_strength_4>
0.2216

>  <open_babel_can_smiles>
CC(=C)COC(=O)C(C)C

>  <mulliken_charges>
24
1   -0.39786
2   -0.517682
3   -0.451494
4   -0.450058
5   -0.13314
6   0.233109
7   -0.155364
8   0.631441
9   -0.488482
10   -0.463464
11   0.140114
12   0.137644
13   0.153949
14   0.163174
15   0.170052
16   0.148646
17   0.168955
18   0.150711
19   0.1476
20   0.151364
21   0.169243
22   0.153973
23   0.185608
24   0.151963

>  <lowdin_charges>
24
1   -0.349443
2   -0.441478
3   -0.438289
4   -0.438379
5   -0.134507
6   -0.000559
7   -0.143103
8   0.202011
9   -0.275713
10   -0.197061
11   0.158636
12   0.157344
13   0.158449
14   0.159389
15   0.165352
16   0.152242
17   0.161716
18   0.152545
19   0.151937
20   0.15413
21   0.161803
22   0.157352
23   0.170199
24   0.155427

$$$$

