PCCDB-ID:  33047
public computational chemistry database (PCCDB) project, http://pccdb.org

 27 27  0  0  0  0  0  0  0  0999 V2000
    3.7568   -0.8346    0.6063 C   0  0  0  0  0  0  0  0  0  0  0  0
    0.5451    2.4862    1.2709 C   0  0  0  0  0  0  0  0  0  0  0  0
    3.7866    4.7768   -2.8616 C   0  0  0  0  0  0  0  0  0  0  0  0
    2.5349   -0.2726   -0.1438 C   0  0  0  0  0  0  0  0  0  0  0  0
    2.0827    2.4042    1.2408 C   0  0  0  0  0  0  0  0  0  0  0  0
    3.6125    2.2445   -2.7998 C   0  0  0  0  0  0  0  0  0  0  0  0
    3.2972    1.0606   -2.1344 C   0  0  0  0  0  0  0  0  0  0  0  0
    2.9666    3.4742   -0.8508 C   0  0  0  0  0  0  0  0  0  0  0  0
    3.4512    3.4785   -2.1641 C   0  0  0  0  0  0  0  0  0  0  0  0
    2.8130    1.0570   -0.8212 C   0  0  0  0  0  0  0  0  0  0  0  0
    2.6443    2.2967   -0.1661 C   0  0  0  0  0  0  0  0  0  0  0  0
    3.5250   -1.8037    1.0640 H   0  0  0  0  0  0  0  0  0  0  0  0
    4.0853   -0.1547    1.4005 H   0  0  0  0  0  0  0  0  0  0  0  0
    4.6020   -0.9742   -0.0770 H   0  0  0  0  0  0  0  0  0  0  0  0
    0.1777    2.5805    2.2996 H   0  0  0  0  0  0  0  0  0  0  0  0
    0.0885    1.5936    0.8285 H   0  0  0  0  0  0  0  0  0  0  0  0
    0.1909    3.3530    0.7020 H   0  0  0  0  0  0  0  0  0  0  0  0
    4.1515    4.6002   -3.8785 H   0  0  0  0  0  0  0  0  0  0  0  0
    4.5625    5.3346   -2.3219 H   0  0  0  0  0  0  0  0  0  0  0  0
    2.9107    5.4340   -2.9319 H   0  0  0  0  0  0  0  0  0  0  0  0
    1.6926   -0.1860    0.5516 H   0  0  0  0  0  0  0  0  0  0  0  0
    2.2243   -0.9994   -0.9050 H   0  0  0  0  0  0  0  0  0  0  0  0
    2.4118    1.5592    1.8560 H   0  0  0  0  0  0  0  0  0  0  0  0
    2.4925    3.3034    1.7176 H   0  0  0  0  0  0  0  0  0  0  0  0
    3.9856    2.2074   -3.8209 H   0  0  0  0  0  0  0  0  0  0  0  0
    3.4292    0.1105   -2.6489 H   0  0  0  0  0  0  0  0  0  0  0  0
    2.8351    4.4259   -0.3366 H   0  0  0  0  0  0  0  0  0  0  0  0
  1 12  1  0  0  0  0
  1 13  1  0  0  0  0
  2 15  1  0  0  0  0
  3 19  1  0  0  0  0
  3  9  1  0  0  0  0
  4 21  1  0  0  0  0
  4  1  1  0  0  0  0
  5  2  1  0  0  0  0
  5 24  1  0  0  0  0
  5 23  1  0  0  0  0
  6  9  2  0  0  0  0
  6  7  1  0  0  0  0
  7 10  2  0  0  0  0
  8 27  1  0  0  0  0
  8 11  2  0  0  0  0
  9  8  1  0  0  0  0
 10 11  1  0  0  0  0
 10  4  1  0  0  0  0
 11  5  1  0  0  0  0
 14  1  1  0  0  0  0
 16  2  1  0  0  0  0
 17  2  1  0  0  0  0
 18  3  1  0  0  0  0
 20  3  1  0  0  0  0
 22  4  1  0  0  0  0
 25  6  1  0  0  0  0
 26  7  1  0  0  0  0
M  END
>  <HBA>
0

>  <HBD>
0

>  <TPSA>
0.0

>  <cid>
33047

>  <dipole>
0.26

>  <excitation_energy_1>
5.075

>  <excitation_energy_2>
5.504

>  <excitation_energy_3>
5.78

>  <excitation_energy_4>
5.931

>  <homo_energy>
-6.046

>  <homo_lumo_gap>
6.24

>  <logP>
3.12

>  <lumo_energy>
0.193

>  <melting_point>
15.5

>  <molecular_refractivity>
50.95

>  <oscillator_strength_1>
0.0061

>  <oscillator_strength_2>
0.0607

>  <oscillator_strength_3>
0.0028

>  <oscillator_strength_4>
0.1211

>  <open_babel_can_smiles>
CCc1cc(C)ccc1CC

>  <mulliken_charges>
27
1   -0.436177
2   -0.436506
3   -0.530476
4   -0.346395
5   -0.346135
6   -0.184778
7   -0.182572
8   -0.240361
9   0.186446
10   0.120413
11   0.126897
12   0.141298
13   0.149937
14   0.149503
15   0.141717
16   0.150686
17   0.14936
18   0.152584
19   0.159735
20   0.159479
21   0.143783
22   0.141758
23   0.14427
24   0.141877
25   0.11645
26   0.11692
27   0.110287

>  <lowdin_charges>
27
1   -0.442759
2   -0.441965
3   -0.442736
4   -0.276084
5   -0.276379
6   -0.171549
7   -0.166041
8   -0.176774
9   -0.003058
10   -0.016244
11   -0.007422
12   0.147828
13   0.149866
14   0.151393
15   0.147447
16   0.149883
17   0.151529
18   0.154548
19   0.160145
20   0.15925
21   0.148954
22   0.149951
23   0.149527
24   0.149499
25   0.150789
26   0.151658
27   0.148743

$$$$

