PCCDB-ID:  15952
public computational chemistry database (PCCDB) project, http://pccdb.org

 15 14  0  0  0  0  0  0  0  0999 V2000
    1.0261    0.0391   -0.5854 C   0  0  0  0  0  0  0  0  0  0  0  0
    5.3438    2.2389    1.4336 C   0  0  0  0  0  0  0  0  0  0  0  0
    2.4352   -0.0299    0.0016 C   0  0  0  0  0  0  0  0  0  0  0  0
    3.2254    2.3948   -0.8508 O   0  0  0  0  0  0  0  0  0  0  0  0
    2.2650    2.2099    1.4818 O   0  0  0  0  0  0  0  0  0  0  0  0
    4.5104    1.1590    0.9535 O   0  0  0  0  0  0  0  0  0  0  0  0
    3.0401    1.6297    0.3835 S   0  0  0  0  0  0  0  0  0  0  0  0
    0.6782   -0.9743   -0.8083 H   0  0  0  0  0  0  0  0  0  0  0  0
    1.0164    0.6206   -1.5115 H   0  0  0  0  0  0  0  0  0  0  0  0
    0.3295    0.4965    0.1229 H   0  0  0  0  0  0  0  0  0  0  0  0
    6.2618    1.7597    1.7750 H   0  0  0  0  0  0  0  0  0  0  0  0
    4.8546    2.7556    2.2638 H   0  0  0  0  0  0  0  0  0  0  0  0
    5.5623    2.9392    0.6226 H   0  0  0  0  0  0  0  0  0  0  0  0
    3.1574   -0.4610   -0.6964 H   0  0  0  0  0  0  0  0  0  0  0  0
    2.4690   -0.5866    0.9416 H   0  0  0  0  0  0  0  0  0  0  0  0
  1  3  1  0  0  0  0
  1 10  1  0  0  0  0
  2 11  1  0  0  0  0
  2 12  1  0  0  0  0
  3  7  1  0  0  0  0
  3 15  1  0  0  0  0
  4  7  1  0  0  0  0
  6  2  1  0  0  0  0
  7  6  1  0  0  0  0
  7  5  1  0  0  0  0
  8  1  1  0  0  0  0
  9  1  1  0  0  0  0
 13  2  1  0  0  0  0
 14  3  1  0  0  0  0
M  RAD  2   4   2   5   2
M  END
>  <HBA>
3

>  <HBD>
0

>  <TPSA>
51.75

>  <cid>
15952

>  <dipole>
2.92

>  <excitation_energy_1>
7.055

>  <excitation_energy_2>
7.384

>  <excitation_energy_3>
7.741

>  <excitation_energy_4>
7.759

>  <homo_energy>
-7.832

>  <homo_lumo_gap>
9.032

>  <logP>
1.063

>  <lumo_energy>
1.2

>  <melting_point>
-1.54

>  <molecular_refractivity>
26.58

>  <oscillator_strength_1>
0.0051

>  <oscillator_strength_2>
0.0066

>  <oscillator_strength_3>
0.0015

>  <oscillator_strength_4>
0.0489

>  <open_babel_can_smiles>
CCS(OC)([O])[O]

>  <mulliken_charges>
15
1   -0.474559
2   -0.236451
3   -0.456897
4   -0.51442
5   -0.51735
6   -0.531616
7   1.218746
8   0.170063
9   0.188532
10   0.188166
11   0.180266
12   0.18594
13   0.184814
14   0.207531
15   0.207233

>  <lowdin_charges>
15
1   -0.445692
2   -0.283291
3   -0.413882
4   -0.580362
5   -0.582333
6   -0.42137
7   1.332896
8   0.166378
9   0.172202
10   0.173204
11   0.170619
12   0.166923
13   0.166305
14   0.189921
15   0.188481

$$$$

