PCCDB-ID:  69381
public computational chemistry database (PCCDB) project, http://pccdb.org

 20 20  0  0  0  0  0  0  0  0999 V2000
    1.0010    0.0644   -0.0689 C   0  0  0  0  0  0  0  0  0  0  0  0
    3.1378    1.2628   -0.7640 C   0  0  0  0  0  0  0  0  0  0  0  0
    3.0748   -1.2533   -0.7394 C   0  0  0  0  0  0  0  0  0  0  0  0
    4.6668    1.1784   -0.8215 C   0  0  0  0  0  0  0  0  0  0  0  0
    4.6060   -1.2464   -0.7973 C   0  0  0  0  0  0  0  0  0  0  0  0
    2.5325    0.0257   -0.0750 C   0  0  0  0  0  0  0  0  0  0  0  0
    5.0652   -0.0517   -1.5079 N   0  0  0  0  0  0  0  0  0  0  0  0
    0.6268    0.9652    0.4327 H   0  0  0  0  0  0  0  0  0  0  0  0
    0.5819   -0.8069    0.4493 H   0  0  0  0  0  0  0  0  0  0  0  0
    0.6051    0.0648   -1.0926 H   0  0  0  0  0  0  0  0  0  0  0  0
    2.7508    1.3336   -1.7897 H   0  0  0  0  0  0  0  0  0  0  0  0
    2.8357    2.1770   -0.2359 H   0  0  0  0  0  0  0  0  0  0  0  0
    2.7275   -2.1408   -0.1938 H   0  0  0  0  0  0  0  0  0  0  0  0
    2.6847   -1.3248   -1.7639 H   0  0  0  0  0  0  0  0  0  0  0  0
    5.0679    1.2373    0.2115 H   0  0  0  0  0  0  0  0  0  0  0  0
    5.0746    2.0329   -1.3746 H   0  0  0  0  0  0  0  0  0  0  0  0
    4.9705   -2.1311   -1.3330 H   0  0  0  0  0  0  0  0  0  0  0  0
    5.0040   -1.3048    0.2369 H   0  0  0  0  0  0  0  0  0  0  0  0
    2.8801    0.0272    0.9711 H   0  0  0  0  0  0  0  0  0  0  0  0
    6.0779   -0.0781   -1.6058 H   0  0  0  0  0  0  0  0  0  0  0  0
  1  8  1  0  0  0  0
  1  9  1  0  0  0  0
  2 12  1  0  0  0  0
  2  6  1  0  0  0  0
  3 13  1  0  0  0  0
  3  6  1  0  0  0  0
  4  2  1  0  0  0  0
  4 15  1  0  0  0  0
  5  3  1  0  0  0  0
  5 18  1  0  0  0  0
  6  1  1  0  0  0  0
  6 19  1  0  0  0  0
  7  4  1  0  0  0  0
  7  5  1  0  0  0  0
 10  1  1  0  0  0  0
 11  2  1  0  0  0  0
 14  3  1  0  0  0  0
 16  4  1  0  0  0  0
 17  5  1  0  0  0  0
 20  7  1  0  0  0  0
M  END
>  <HBA>
1

>  <HBD>
1

>  <TPSA>
12.03

>  <cid>
69381

>  <dipole>
0.91

>  <excitation_energy_1>
5.267

>  <excitation_energy_2>
5.953

>  <excitation_energy_3>
6.058

>  <excitation_energy_4>
6.087

>  <homo_energy>
-5.845

>  <homo_lumo_gap>
8.144

>  <logP>
1.335

>  <lumo_energy>
2.299

>  <melting_point>
23.19

>  <molecular_refractivity>
35.56

>  <oscillator_strength_1>
0.004

>  <oscillator_strength_2>
0.0193

>  <oscillator_strength_3>
0.081

>  <oscillator_strength_4>
0.0105

>  <open_babel_can_smiles>
CC1CCNCC1

>  <mulliken_charges>
20
1   -0.443413
2   -0.246369
3   -0.246486
4   -0.132864
5   -0.132739
6   -0.077762
7   -0.544766
8   0.138343
9   0.138342
10   0.140503
11   0.136857
12   0.124367
13   0.124372
14   0.136877
15   0.105005
16   0.13336
17   0.133333
18   0.104995
19   0.114628
20   0.293416

>  <lowdin_charges>
20
1   -0.443829
2   -0.280959
3   -0.28127
4   -0.204112
5   -0.203898
6   -0.124986
7   -0.365473
8   0.147818
9   0.148035
10   0.145677
11   0.143327
12   0.142183
13   0.14242
14   0.143354
15   0.110863
16   0.144542
17   0.144288
18   0.110845
19   0.130344
20   0.250831

$$$$

