PCCDB-ID:  19136
public computational chemistry database (PCCDB) project, http://pccdb.org

 31 31  0  0  1  0  0  0  0  0999 V2000
    5.0222   -1.5388    0.0038 C   0  0  0  0  0  0  0  0  0  0  0  0
    4.8686   -0.7292    2.3887 C   0  0  0  0  0  0  0  0  0  0  0  0
    5.4272    5.4208    1.6089 C   0  0  0  0  0  0  0  0  0  0  0  0
    5.6961    4.3741    0.7257 C   0  0  0  0  0  0  0  0  0  0  0  0
    4.1515    5.9773    1.6898 C   0  0  0  0  0  0  0  0  0  0  0  0
    3.3981    4.4314   -0.0176 C   0  0  0  0  0  0  0  0  0  0  0  0
    4.1801    1.4314   -0.6322 C   0  0  0  0  0  0  0  0  0  0  0  0
    4.4247   -0.4857    0.9435 C   0  0  0  0  0  0  0  0  0  0  0  0
    4.6776    3.8702   -0.0914 C   0  0  0  0  0  0  0  0  0  0  0  0
    3.1346    5.4795    0.8669 C   0  0  0  0  0  0  0  0  0  0  0  0
    4.9403    2.7100   -1.0547 C   0  0  1  0  0  0  0  0  0  0  0  0
    4.8464    0.8698    0.5455 N   0  0  0  0  0  0  0  0  0  0  0  0
    1.8597    5.9804    0.8848 O   0  0  0  0  0  0  0  0  0  0  0  0
    6.3157    2.3943   -1.1727 O   0  0  0  0  0  0  0  0  0  0  0  0
    4.6990   -2.5425    0.3021 H   0  0  0  0  0  0  0  0  0  0  0  0
    6.1169   -1.5001    0.0385 H   0  0  0  0  0  0  0  0  0  0  0  0
    4.7113   -1.3891   -1.0354 H   0  0  0  0  0  0  0  0  0  0  0  0
    4.5847   -1.7337    2.7194 H   0  0  0  0  0  0  0  0  0  0  0  0
    4.4061   -0.0084    3.0747 H   0  0  0  0  0  0  0  0  0  0  0  0
    5.9572   -0.6322    2.4752 H   0  0  0  0  0  0  0  0  0  0  0  0
    6.2201    5.8128    2.2408 H   0  0  0  0  0  0  0  0  0  0  0  0
    6.6933    3.9581    0.6396 H   0  0  0  0  0  0  0  0  0  0  0  0
    3.9459    6.7944    2.3793 H   0  0  0  0  0  0  0  0  0  0  0  0
    2.5886    4.0749   -0.6497 H   0  0  0  0  0  0  0  0  0  0  0  0
    4.2537    0.7074   -1.4494 H   0  0  0  0  0  0  0  0  0  0  0  0
    3.1108    1.6455   -0.4696 H   0  0  0  0  0  0  0  0  0  0  0  0
    3.3225   -0.5733    0.9044 H   0  0  0  0  0  0  0  0  0  0  0  0
    4.5899    3.0050   -2.0525 H   0  0  0  0  0  0  0  0  0  0  0  0
    4.6928    1.5053    1.3284 H   0  0  0  0  0  0  0  0  0  0  0  0
    1.8192    6.7091    1.5234 H   0  0  0  0  0  0  0  0  0  0  0  0
    6.4549    1.7056   -0.4896 H   0  0  0  0  0  0  0  0  0  0  0  0
  1 16  1  0  0  0  0
  1 15  1  0  0  0  0
  1  8  1  0  0  0  0
  2 20  1  0  0  0  0
  2 18  1  0  0  0  0
  2 19  1  0  0  0  0
  3  5  1  0  0  0  0
  3 21  1  0  0  0  0
  4  3  2  0  0  0  0
  5 23  1  0  0  0  0
  6 10  1  0  0  0  0
  7 26  1  0  0  0  0
  7 12  1  0  0  0  0
  8  2  1  0  0  0  0
  9  6  2  0  0  0  0
  9  4  1  0  0  0  0
 10 13  1  0  0  0  0
 10  5  2  0  0  0  0
 11 28  1  6  0  0  0
 11  7  1  0  0  0  0
 11  9  1  0  0  0  0
 12  8  1  0  0  0  0
 12 29  1  0  0  0  0
 13 30  1  0  0  0  0
 14 11  1  0  0  0  0
 14 31  1  0  0  0  0
 17  1  1  0  0  0  0
 22  4  1  0  0  0  0
 24  6  1  0  0  0  0
 25  7  1  0  0  0  0
 27  8  1  0  0  0  0
M  END
>  <HBA>
3

>  <HBD>
3

>  <TPSA>
52.49

>  <cid>
19136

>  <dipole>
2.98

>  <excitation_energy_1>
4.977

>  <excitation_energy_2>
5.194

>  <excitation_energy_3>
5.483

>  <excitation_energy_4>
5.709

>  <homo_energy>
-5.924

>  <homo_lumo_gap>
5.889

>  <logP>
1.815

>  <lumo_energy>
-0.035

>  <melting_point>
91.27

>  <molecular_refractivity>
56.62

>  <oscillator_strength_1>
0.0463

>  <oscillator_strength_2>
0.0001

>  <oscillator_strength_3>
0.0064

>  <oscillator_strength_4>
0.005

>  <open_babel_can_smiles>
CC(NC[C@@H](c1cccc(c1)O)O)C

>  <mulliken_charges>
31
1   -0.437503
2   -0.462023
3   -0.134387
4   -0.18807
5   -0.195461
6   -0.218654
7   -0.153533
8   0.071326
9   0.118582
10   0.350476
11   0.072936
12   -0.595946
13   -0.645482
14   -0.644075
15   0.141805
16   0.151074
17   0.148482
18   0.149586
19   0.14214
20   0.15511
21   0.129676
22   0.138123
23   0.115107
24   0.130421
25   0.15453
26   0.130959
27   0.112214
28   0.144093
29   0.309561
30   0.406263
31   0.40267

>  <lowdin_charges>
31
1   -0.445601
2   -0.447969
3   -0.145173
4   -0.190244
5   -0.219508
6   -0.204747
7   -0.219397
8   -0.049355
9   -0.013745
10   0.103573
11   -0.005913
12   -0.36692
13   -0.383083
14   -0.464774
15   0.150775
16   0.151092
17   0.149879
18   0.154955
19   0.149378
20   0.152359
21   0.158939
22   0.165132
23   0.152133
24   0.163034
25   0.151087
26   0.129677
27   0.117917
28   0.149987
29   0.261109
30   0.357297
31   0.338108

$$$$

