PCCDB-ID:  12110
public computational chemistry database (PCCDB) project, http://pccdb.org

 25 26  0  0  0  0  0  0  0  0999 V2000
    3.8776    3.1668    1.2308 C   0  0  0  0  0  0  0  0  0  0  0  0
    3.0989    2.8033    0.1304 C   0  0  0  0  0  0  0  0  0  0  0  0
    4.3516    2.1840    2.1034 C   0  0  0  0  0  0  0  0  0  0  0  0
    2.7964    1.4609   -0.1059 C   0  0  0  0  0  0  0  0  0  0  0  0
    4.0516    0.8396    1.8809 C   0  0  0  0  0  0  0  0  0  0  0  0
    5.9291   -2.4475   -0.7729 C   0  0  0  0  0  0  0  0  0  0  0  0
    4.2129   -4.1007   -0.2752 C   0  0  0  0  0  0  0  0  0  0  0  0
    5.0862   -1.4327   -0.3329 C   0  0  0  0  0  0  0  0  0  0  0  0
    3.3720   -3.0905    0.1646 C   0  0  0  0  0  0  0  0  0  0  0  0
    5.4885   -3.7696   -0.7395 C   0  0  0  0  0  0  0  0  0  0  0  0
    3.2786    0.4929    0.7723 C   0  0  0  0  0  0  0  0  0  0  0  0
    3.8062   -1.7558    0.1390 C   0  0  0  0  0  0  0  0  0  0  0  0
    6.3807   -4.8330   -1.2002 N   0  0  0  0  0  0  0  0  0  0  0  0
    7.5018   -4.5109   -1.5989 O   0  0  0  0  0  0  0  0  0  0  0  0
    5.9607   -5.9912   -1.1633 O   0  0  0  0  0  0  0  0  0  0  0  0
    2.8970   -0.8320    0.5714 O   0  0  0  0  0  0  0  0  0  0  0  0
    4.1111    4.2121    1.4109 H   0  0  0  0  0  0  0  0  0  0  0  0
    2.7245    3.5640   -0.5488 H   0  0  0  0  0  0  0  0  0  0  0  0
    4.9513    2.4629    2.9653 H   0  0  0  0  0  0  0  0  0  0  0  0
    2.1888    1.1559   -0.9520 H   0  0  0  0  0  0  0  0  0  0  0  0
    4.4009    0.0651    2.5567 H   0  0  0  0  0  0  0  0  0  0  0  0
    6.9227   -2.2281   -1.1440 H   0  0  0  0  0  0  0  0  0  0  0  0
    3.9030   -5.1383   -0.2634 H   0  0  0  0  0  0  0  0  0  0  0  0
    5.4158   -0.4008   -0.3590 H   0  0  0  0  0  0  0  0  0  0  0  0
    2.3752   -3.3084    0.5330 H   0  0  0  0  0  0  0  0  0  0  0  0
  1 17  1  0  0  0  0
  1  3  2  0  0  0  0
  2  1  1  0  0  0  0
  3 19  1  0  0  0  0
  4  2  2  0  0  0  0
  4 11  1  0  0  0  0
  5  3  1  0  0  0  0
  5 21  1  0  0  0  0
  6 10  2  0  0  0  0
  6  8  1  0  0  0  0
  7 23  1  0  0  0  0
  7  9  2  0  0  0  0
  8 12  2  0  0  0  0
  9 25  1  0  0  0  0
 10  7  1  0  0  0  0
 11  5  2  0  0  0  0
 12  9  1  0  0  0  0
 12 16  1  0  0  0  0
 13 15  2  0  0  0  0
 13 10  1  0  0  0  0
 14 13  2  0  0  0  0
 16 11  1  0  0  0  0
 18  2  1  0  0  0  0
 20  4  1  0  0  0  0
 22  6  1  0  0  0  0
 24  8  1  0  0  0  0
M  END
>  <HBA>
1

>  <HBD>
0

>  <TPSA>
55.05

>  <cid>
12110

>  <dipole>
5.9

>  <excitation_energy_1>
3.767

>  <excitation_energy_2>
3.981

>  <excitation_energy_3>
4.304

>  <excitation_energy_4>
4.374

>  <homo_energy>
-6.735

>  <homo_lumo_gap>
4.539

>  <logP>
3.91

>  <lumo_energy>
-2.196

>  <melting_point>
80.55

>  <molecular_refractivity>
61.78

>  <oscillator_strength_1>
0.0004

>  <oscillator_strength_2>
0.2677

>  <oscillator_strength_3>
0.0318

>  <oscillator_strength_4>
0.0681

>  <open_babel_can_smiles>
O=N(=O)c1ccc(cc1)Oc1ccccc1

>  <mulliken_charges>
25
1   -0.121476
2   -0.140506
3   -0.139622
4   -0.156447
5   -0.151005
6   -0.15791
7   -0.153487
8   -0.191577
9   -0.183535
10   0.275578
11   0.321774
12   0.376744
13   0.373896
14   -0.403283
15   -0.402088
16   -0.568309
17   0.139283
18   0.143411
19   0.14372
20   0.149562
21   0.150453
22   0.185436
23   0.184998
24   0.165569
25   0.158822

>  <lowdin_charges>
25
1   -0.15668
2   -0.146818
3   -0.145692
4   -0.171105
5   -0.175481
6   -0.123954
7   -0.125983
8   -0.195653
9   -0.174245
10   -0.017682
11   0.095295
12   0.12424
13   0.306741
14   -0.254704
15   -0.253723
16   -0.152726
17   0.162012
18   0.165777
19   0.164962
20   0.172415
21   0.172548
22   0.188194
23   0.188153
24   0.178073
25   0.176034

$$$$

