PCCDB-ID:  20936
public computational chemistry database (PCCDB) project, http://pccdb.org

 32 32  0  0  1  0  0  0  0  0999 V2000
    0.4947    0.1956   -0.7637 C   0  0  0  0  0  0  0  0  0  0  0  0
    7.0943   -1.5154   -0.5278 C   0  0  0  0  0  0  0  0  0  0  0  0
    2.7889    1.2529   -0.7811 C   0  0  0  0  0  0  0  0  0  0  0  0
    4.2468    1.2139   -0.3085 C   0  0  0  0  0  0  0  0  0  0  0  0
    4.0886   -1.2886   -0.1316 C   0  0  0  0  0  0  0  0  0  0  0  0
    7.2749    1.0092   -0.5796 C   0  0  0  0  0  0  0  0  0  0  0  0
    1.9317    0.0906   -0.2407 C   0  0  2  0  0  0  0  0  0  0  0  0
    6.4008   -0.1920   -0.1603 C   0  0  1  0  0  0  0  0  0  0  0  0
    4.9364   -0.1150   -0.6696 C   0  0  2  0  0  0  0  0  0  0  0  0
    2.6212   -1.2441   -0.5919 C   0  0  2  0  0  0  0  0  0  0  0  0
    7.4692    1.3175   -2.3921 S   0  0  0  0  0  0  0  0  0  0  0  0
    1.7105   -2.7479    0.0102 S   0  0  0  0  0  0  0  0  0  0  0  0
    0.0574    1.1628   -0.4895 H   0  0  0  0  0  0  0  0  0  0  0  0
   -0.1412   -0.5962   -0.3594 H   0  0  0  0  0  0  0  0  0  0  0  0
    0.4711    0.1194   -1.8588 H   0  0  0  0  0  0  0  0  0  0  0  0
    8.1485   -1.4977   -0.2251 H   0  0  0  0  0  0  0  0  0  0  0  0
    7.0578   -1.6994   -1.6083 H   0  0  0  0  0  0  0  0  0  0  0  0
    6.6305   -2.3725   -0.0318 H   0  0  0  0  0  0  0  0  0  0  0  0
    2.7660    1.2266   -1.8811 H   0  0  0  0  0  0  0  0  0  0  0  0
    2.3278    2.2051   -0.4879 H   0  0  0  0  0  0  0  0  0  0  0  0
    4.2827    1.3554    0.7833 H   0  0  0  0  0  0  0  0  0  0  0  0
    4.7811    2.0605   -0.7534 H   0  0  0  0  0  0  0  0  0  0  0  0
    4.1142   -1.2718    0.9695 H   0  0  0  0  0  0  0  0  0  0  0  0
    4.5121   -2.2486   -0.4385 H   0  0  0  0  0  0  0  0  0  0  0  0
    8.2732    0.9072   -0.1428 H   0  0  0  0  0  0  0  0  0  0  0  0
    6.8617    1.9469   -0.2004 H   0  0  0  0  0  0  0  0  0  0  0  0
    1.9095    0.1695    0.8584 H   0  0  0  0  0  0  0  0  0  0  0  0
    6.3646   -0.1338    0.9408 H   0  0  0  0  0  0  0  0  0  0  0  0
    4.9645   -0.1899   -1.7670 H   0  0  0  0  0  0  0  0  0  0  0  0
    2.5895   -1.3729   -1.6831 H   0  0  0  0  0  0  0  0  0  0  0  0
    8.2061    0.2224   -2.6758 H   0  0  0  0  0  0  0  0  0  0  0  0
    1.9163   -2.5290    1.3288 H   0  0  0  0  0  0  0  0  0  0  0  0
  1 13  1  0  0  0  0
  1 14  1  0  0  0  0
  1  7  1  0  0  0  0
  2 16  1  0  0  0  0
  2  8  1  0  0  0  0
  2 18  1  0  0  0  0
  3 20  1  0  0  0  0
  3  4  1  0  0  0  0
  3  7  1  0  0  0  0
  4 21  1  0  0  0  0
  5 23  1  0  0  0  0
  6 26  1  0  0  0  0
  6  8  1  0  0  0  0
  6 25  1  0  0  0  0
  7 27  1  1  0  0  0
  8 28  1  1  0  0  0
  9 29  1  6  0  0  0
  9  4  1  0  0  0  0
  9  8  1  0  0  0  0
  9  5  1  0  0  0  0
 10 30  1  6  0  0  0
 10  7  1  0  0  0  0
 10  5  1  0  0  0  0
 10 12  1  0  0  0  0
 11  6  1  0  0  0  0
 12 32  1  0  0  0  0
 15  1  1  0  0  0  0
 17  2  1  0  0  0  0
 19  3  1  0  0  0  0
 22  4  1  0  0  0  0
 24  5  1  0  0  0  0
 31 11  1  0  0  0  0
M  END
>  <HBA>
2

>  <HBD>
2

>  <TPSA>
77.6

>  <cid>
20936

>  <dipole>
2.05

>  <excitation_energy_1>
5.236

>  <excitation_energy_2>
5.298

>  <excitation_energy_3>
5.745

>  <excitation_energy_4>
5.799

>  <homo_energy>
-6.289

>  <homo_lumo_gap>
7.04

>  <logP>
3.287

>  <lumo_energy>
0.751

>  <melting_point>
33.88

>  <molecular_refractivity>
63.93

>  <oscillator_strength_1>
0.0069

>  <oscillator_strength_2>
0.0128

>  <oscillator_strength_3>
0.0164

>  <oscillator_strength_4>
0.022

>  <open_babel_can_smiles>
SC[C@@H]([C@@H]1CC[C@H]([C@@H](C1)S)C)C

>  <mulliken_charges>
32
1   -0.450041
2   -0.46594
3   -0.266859
4   -0.27602
5   -0.26576
6   -0.432215
7   -0.059649
8   -0.061549
9   -0.073824
10   -0.259252
11   -0.093376
12   -0.093048
13   0.138836
14   0.171986
15   0.137678
16   0.140493
17   0.148001
18   0.158527
19   0.133978
20   0.134818
21   0.122477
22   0.140658
23   0.123315
24   0.15812
25   0.174111
26   0.181898
27   0.117601
28   0.125819
29   0.141415
30   0.162446
31   0.096741
32   0.088613

>  <lowdin_charges>
32
1   -0.446061
2   -0.449197
3   -0.274256
4   -0.280157
5   -0.281628
6   -0.374236
7   -0.12733
8   -0.124898
9   -0.131307
10   -0.214499
11   -0.096757
12   -0.092104
13   0.148357
14   0.164284
15   0.144074
16   0.147304
17   0.149106
18   0.157288
19   0.139365
20   0.146625
21   0.133371
22   0.14942
23   0.134829
24   0.157012
25   0.160088
26   0.168443
27   0.13234
28   0.13878
29   0.144206
30   0.155892
31   0.114394
32   0.107251

$$$$

