PCCDB-ID:  7767
public computational chemistry database (PCCDB) project, http://pccdb.org

 21 20  0  0  0  0  0  0  0  0999 V2000
    1.4821   -0.0811    0.9922 C   0  0  0  0  0  0  0  0  0  0  0  0
    1.0256   -0.2650   -1.3854 C   0  0  0  0  0  0  0  0  0  0  0  0
    1.4731    1.9288   -0.3694 C   0  0  0  0  0  0  0  0  0  0  0  0
    1.7908   -1.5501   -1.7207 C   0  0  0  0  0  0  0  0  0  0  0  0
    2.6275    2.7389    0.2189 C   0  0  0  0  0  0  0  0  0  0  0  0
    1.7294    0.4857   -0.3343 N   0  0  0  0  0  0  0  0  0  0  0  0
    3.1429   -1.2559   -2.0134 O   0  0  0  0  0  0  0  0  0  0  0  0
    2.2539    4.1087    0.1257 O   0  0  0  0  0  0  0  0  0  0  0  0
    1.7763   -1.1341    1.0159 H   0  0  0  0  0  0  0  0  0  0  0  0
    0.4176   -0.0132    1.2845 H   0  0  0  0  0  0  0  0  0  0  0  0
    2.0761    0.4424    1.7461 H   0  0  0  0  0  0  0  0  0  0  0  0
   -0.0215   -0.4933   -1.1121 H   0  0  0  0  0  0  0  0  0  0  0  0
    1.0051    0.3592   -2.2844 H   0  0  0  0  0  0  0  0  0  0  0  0
    1.3543    2.2414   -1.4114 H   0  0  0  0  0  0  0  0  0  0  0  0
    0.5401    2.2010    0.1560 H   0  0  0  0  0  0  0  0  0  0  0  0
    1.3480   -2.0201   -2.6062 H   0  0  0  0  0  0  0  0  0  0  0  0
    1.7093   -2.2777   -0.8948 H   0  0  0  0  0  0  0  0  0  0  0  0
    3.5420    2.5226   -0.3547 H   0  0  0  0  0  0  0  0  0  0  0  0
    2.8169    2.4510    1.2649 H   0  0  0  0  0  0  0  0  0  0  0  0
    3.3680   -0.5430   -1.3852 H   0  0  0  0  0  0  0  0  0  0  0  0
    2.9857    4.6422    0.4691 H   0  0  0  0  0  0  0  0  0  0  0  0
  1  9  1  0  0  0  0
  1 10  1  0  0  0  0
  1 11  1  0  0  0  0
  2 12  1  0  0  0  0
  2  6  1  0  0  0  0
  3  6  1  0  0  0  0
  3 15  1  0  0  0  0
  3  5  1  0  0  0  0
  4  2  1  0  0  0  0
  4 17  1  0  0  0  0
  5 19  1  0  0  0  0
  6  1  1  0  0  0  0
  7  4  1  0  0  0  0
  7 20  1  0  0  0  0
  8  5  1  0  0  0  0
  8 21  1  0  0  0  0
 13  2  1  0  0  0  0
 14  3  1  0  0  0  0
 16  4  1  0  0  0  0
 18  5  1  0  0  0  0
M  END
>  <HBA>
3

>  <HBD>
2

>  <TPSA>
43.7

>  <cid>
7767

>  <dipole>
2.28

>  <excitation_energy_1>
5.64

>  <excitation_energy_2>
5.911

>  <excitation_energy_3>
6.133

>  <excitation_energy_4>
6.276

>  <homo_energy>
-6.21

>  <homo_lumo_gap>
8.019

>  <logP>
-1.097

>  <lumo_energy>
1.81

>  <melting_point>
13.97

>  <molecular_refractivity>
31.37

>  <oscillator_strength_1>
0.0009

>  <oscillator_strength_2>
0.0284

>  <oscillator_strength_3>
0.0805

>  <oscillator_strength_4>
0.0139

>  <open_babel_can_smiles>
OCCN(CCO)C

>  <mulliken_charges>
21
1   -0.312448
2   -0.148767
3   -0.125538
4   -0.018779
5   -0.032301
6   -0.414021
7   -0.629232
8   -0.620264
9   0.161387
10   0.130376
11   0.155402
12   0.119468
13   0.151199
14   0.155756
15   0.133976
16   0.14016
17   0.11624
18   0.128015
19   0.120622
20   0.393127
21   0.395624

>  <lowdin_charges>
21
1   -0.360247
2   -0.21914
3   -0.204083
4   -0.140923
5   -0.137225
6   -0.189598
7   -0.478637
8   -0.473422
9   0.153937
10   0.126965
11   0.153376
12   0.126402
13   0.152173
14   0.153876
15   0.132179
16   0.147031
17   0.121354
18   0.129875
19   0.123865
20   0.333994
21   0.348248

$$$$

