PCCDB-ID:  31624
public computational chemistry database (PCCDB) project, http://pccdb.org

 27 29  0  0  0  0  0  0  0  0999 V2000
   -3.7018   -0.6336   -0.0188 C   0  0  0  0  0  0  0  0  0  0  0  0
   -3.6434    0.7680   -0.0504 C   0  0  0  0  0  0  0  0  0  0  0  0
   -2.5230   -1.3633    0.0004 C   0  0  0  0  0  0  0  0  0  0  0  0
   -2.4191    1.4135   -0.0607 C   0  0  0  0  0  0  0  0  0  0  0  0
    3.6315    0.7518    0.0260 C   0  0  0  0  0  0  0  0  0  0  0  0
    2.4104    1.4040   -0.0118 C   0  0  0  0  0  0  0  0  0  0  0  0
    2.5011   -1.3751    0.0517 C   0  0  0  0  0  0  0  0  0  0  0  0
    3.6960   -0.6572    0.0587 C   0  0  0  0  0  0  0  0  0  0  0  0
   -1.2590   -0.7462   -0.0111 C   0  0  0  0  0  0  0  0  0  0  0  0
    1.2545   -0.7340    0.0189 C   0  0  0  0  0  0  0  0  0  0  0  0
   -1.2215    0.6704   -0.0406 C   0  0  0  0  0  0  0  0  0  0  0  0
    1.2115    0.6726   -0.0134 C   0  0  0  0  0  0  0  0  0  0  0  0
    0.0038   -1.5301    0.0076 C   0  0  0  0  0  0  0  0  0  0  0  0
    4.9365   -1.3065    0.1605 N   0  0  0  0  0  0  0  0  0  0  0  0
    0.1084   -2.8166    0.0146 N   0  0  0  0  0  0  0  0  0  0  0  0
   -0.0126    1.3273   -0.0504 N   0  0  0  0  0  0  0  0  0  0  0  0
   -4.6605   -1.1431   -0.0088 H   0  0  0  0  0  0  0  0  0  0  0  0
   -4.5588    1.3533   -0.0655 H   0  0  0  0  0  0  0  0  0  0  0  0
   -2.5805   -2.4480    0.0271 H   0  0  0  0  0  0  0  0  0  0  0  0
   -2.3685    2.5001   -0.0837 H   0  0  0  0  0  0  0  0  0  0  0  0
    4.5507    1.3329    0.0395 H   0  0  0  0  0  0  0  0  0  0  0  0
    2.3776    2.4912   -0.0379 H   0  0  0  0  0  0  0  0  0  0  0  0
    2.5000   -2.4605    0.0752 H   0  0  0  0  0  0  0  0  0  0  0  0
    5.7025   -0.8151   -0.2851 H   0  0  0  0  0  0  0  0  0  0  0  0
    4.9156   -2.2762   -0.1327 H   0  0  0  0  0  0  0  0  0  0  0  0
   -0.8094   -3.2675    0.0043 H   0  0  0  0  0  0  0  0  0  0  0  0
   -0.0159    2.3370   -0.0667 H   0  0  0  0  0  0  0  0  0  0  0  0
  1 17  1  0  0  0  0
  1  3  2  0  0  0  0
  2  1  1  0  0  0  0
  3 19  1  0  0  0  0
  4  2  2  0  0  0  0
  4 11  1  0  0  0  0
  5 21  1  0  0  0  0
  5  8  1  0  0  0  0
  6  5  2  0  0  0  0
  7  8  2  0  0  0  0
  7 23  1  0  0  0  0
  8 14  1  0  0  0  0
  9  3  1  0  0  0  0
  9 13  1  0  0  0  0
 10  7  1  0  0  0  0
 11  9  2  0  0  0  0
 12  6  1  0  0  0  0
 12 10  2  0  0  0  0
 13 15  2  0  0  0  0
 13 10  1  0  0  0  0
 16 11  1  0  0  0  0
 16 12  1  0  0  0  0
 18  2  1  0  0  0  0
 20  4  1  0  0  0  0
 22  6  1  0  0  0  0
 24 14  1  0  0  0  0
 25 14  1  0  0  0  0
 26 15  1  0  0  0  0
 27 16  1  0  0  0  0
M  END
>  <HBA>
3

>  <HBD>
2

>  <TPSA>
64.93

>  <cid>
31624

>  <dipole>
3.35

>  <excitation_energy_1>
3.094

>  <excitation_energy_2>
4.013

>  <excitation_energy_3>
4.149

>  <excitation_energy_4>
4.174

>  <homo_energy>
-4.773

>  <homo_lumo_gap>
3.625

>  <logP>
3.715

>  <lumo_energy>
-1.148

>  <melting_point>
208.81

>  <molecular_refractivity>
68.06

>  <oscillator_strength_1>
0.0757

>  <oscillator_strength_2>
0.0807

>  <oscillator_strength_3>
0.0012

>  <oscillator_strength_4>
0.1061

>  <open_babel_can_smiles>
Nc1ccc2c(c1)c(=N)c1c([nH]2)cccc1

>  <mulliken_charges>
27
1   -0.138545
2   -0.132076
3   -0.213573
4   -0.184801
5   -0.17111
6   -0.190565
7   -0.255002
8   0.317629
9   0.107369
10   0.098942
11   0.350142
12   0.327588
13   0.228841
14   -0.790267
15   -0.664919
16   -0.844125
17   0.129344
18   0.133019
19   0.131827
20   0.123052
21   0.121783
22   0.121042
23   0.159934
24   0.314596
25   0.321754
26   0.27814
27   0.319983

>  <lowdin_charges>
27
1   -0.179308
2   -0.139869
3   -0.13665
4   -0.191552
5   -0.176822
6   -0.181279
7   -0.170997
8   0.045941
9   -0.063046
10   -0.033313
11   0.063556
12   0.036696
13   0.053828
14   -0.492899
15   -0.40882
16   -0.212699
17   0.159195
18   0.160926
19   0.15479
20   0.152473
21   0.156361
22   0.151941
23   0.175484
24   0.273405
25   0.274701
26   0.243086
27   0.28487

$$$$

