PCCDB-ID:  23812
public computational chemistry database (PCCDB) project, http://pccdb.org

 32 33  0  0  1  0  0  0  0  0999 V2000
    1.0724    2.5590   -1.0151 C   0  0  0  0  0  0  0  0  0  0  0  0
    2.1462    1.8491    1.0068 C   0  0  0  0  0  0  0  0  0  0  0  0
    9.4994    0.1477   -2.1367 C   0  0  0  0  0  0  0  0  0  0  0  0
    8.7781   -1.0047   -2.4691 C   0  0  0  0  0  0  0  0  0  0  0  0
    8.8422    1.2612   -1.6172 C   0  0  0  0  0  0  0  0  0  0  0  0
    7.4028   -1.0293   -2.2765 C   0  0  0  0  0  0  0  0  0  0  0  0
    6.7478    2.4626   -0.8447 C   0  0  0  0  0  0  0  0  0  0  0  0
    5.2669    2.5006   -1.2327 C   0  0  0  0  0  0  0  0  0  0  0  0
    3.0612    1.1928   -1.1455 C   0  0  0  0  0  0  0  0  0  0  0  0
    7.4569    1.2511   -1.4123 C   0  0  0  0  0  0  0  0  0  0  0  0
    4.5714    1.1811   -0.8605 C   0  0  1  0  0  0  0  0  0  0  0  0
    6.7353    0.0874   -1.7475 C   0  0  0  0  0  0  0  0  0  0  0  0
    5.2542    0.0012   -1.5558 C   0  0  0  0  0  0  0  0  0  0  0  0
    2.3459    2.2241   -0.3881 N   0  0  0  0  0  0  0  0  0  0  0  0
    4.6237   -0.9794   -1.9275 O   0  0  0  0  0  0  0  0  0  0  0  0
    0.5933    3.3735   -0.4601 H   0  0  0  0  0  0  0  0  0  0  0  0
    0.3640    1.7080   -1.0495 H   0  0  0  0  0  0  0  0  0  0  0  0
    1.2425    2.9013   -2.0413 H   0  0  0  0  0  0  0  0  0  0  0  0
    1.6481    2.6673    1.5383 H   0  0  0  0  0  0  0  0  0  0  0  0
    3.1080    1.6714    1.4983 H   0  0  0  0  0  0  0  0  0  0  0  0
    1.5304    0.9354    1.1240 H   0  0  0  0  0  0  0  0  0  0  0  0
   10.5753    0.1793   -2.2892 H   0  0  0  0  0  0  0  0  0  0  0  0
    9.2898   -1.8724   -2.8763 H   0  0  0  0  0  0  0  0  0  0  0  0
    9.4089    2.1564   -1.3700 H   0  0  0  0  0  0  0  0  0  0  0  0
    6.8126   -1.9053   -2.5260 H   0  0  0  0  0  0  0  0  0  0  0  0
    6.8315    2.4476    0.2539 H   0  0  0  0  0  0  0  0  0  0  0  0
    7.2592    3.3765   -1.1713 H   0  0  0  0  0  0  0  0  0  0  0  0
    5.1751    2.6637   -2.3164 H   0  0  0  0  0  0  0  0  0  0  0  0
    4.7494    3.3289   -0.7398 H   0  0  0  0  0  0  0  0  0  0  0  0
    2.6483    0.1842   -0.9751 H   0  0  0  0  0  0  0  0  0  0  0  0
    2.9209    1.4050   -2.2126 H   0  0  0  0  0  0  0  0  0  0  0  0
    4.7370    1.0175    0.2186 H   0  0  0  0  0  0  0  0  0  0  0  0
  1 16  1  0  0  0  0
  1 14  1  0  0  0  0
  2 21  1  0  0  0  0
  2 20  1  0  0  0  0
  2 19  1  0  0  0  0
  3  5  2  0  0  0  0
  4  6  2  0  0  0  0
  4  3  1  0  0  0  0
  5 10  1  0  0  0  0
  5 24  1  0  0  0  0
  6 12  1  0  0  0  0
  7 26  1  0  0  0  0
  8 11  1  0  0  0  0
  8  7  1  0  0  0  0
  8 29  1  0  0  0  0
  9 30  1  0  0  0  0
  9 11  1  0  0  0  0
  9 14  1  0  0  0  0
 10  7  1  0  0  0  0
 11 32  1  1  0  0  0
 12 13  1  0  0  0  0
 12 10  2  0  0  0  0
 13 11  1  0  0  0  0
 14  2  1  0  0  0  0
 15 13  2  0  0  0  0
 17  1  1  0  0  0  0
 18  1  1  0  0  0  0
 22  3  1  0  0  0  0
 23  4  1  0  0  0  0
 25  6  1  0  0  0  0
 27  7  1  0  0  0  0
 28  8  1  0  0  0  0
 31  9  1  0  0  0  0
M  END
>  <HBA>
2

>  <HBD>
0

>  <TPSA>
20.31

>  <cid>
23812

>  <dipole>
2.51

>  <excitation_energy_1>
3.493

>  <excitation_energy_2>
3.838

>  <excitation_energy_3>
4.563

>  <excitation_energy_4>
4.862

>  <homo_energy>
-5.701

>  <homo_lumo_gap>
4.321

>  <logP>
1.993

>  <lumo_energy>
-1.38

>  <melting_point>
65.61

>  <molecular_refractivity>
61.61

>  <oscillator_strength_1>
0.0012

>  <oscillator_strength_2>
0.0012

>  <oscillator_strength_3>
0.0274

>  <oscillator_strength_4>
0.0004

>  <open_babel_can_smiles>
CN(C[C@@H]1CCc2c(C1=O)cccc2)C

>  <mulliken_charges>
32
1   -0.293772
2   -0.301608
3   -0.11582
4   -0.136781
5   -0.197338
6   -0.161095
7   -0.354896
8   -0.272236
9   -0.118411
10   0.130988
11   -0.200345
12   0.037853
13   0.403518
14   -0.375206
15   -0.482081
16   0.14586
17   0.120925
18   0.14954
19   0.148494
20   0.147519
21   0.122393
22   0.135239
23   0.135348
24   0.127685
25   0.161119
26   0.155479
27   0.150295
28   0.139306
29   0.163002
30   0.144775
31   0.137215
32   0.153036

>  <lowdin_charges>
32
1   -0.355959
2   -0.359377
3   -0.13484
4   -0.162164
5   -0.169906
6   -0.126438
7   -0.275141
8   -0.273627
9   -0.197188
10   0.009426
11   -0.160731
12   -0.062488
13   0.157052
14   -0.185083
15   -0.249689
16   0.149414
17   0.122712
18   0.14869
19   0.151506
20   0.14706
21   0.12287
22   0.158529
23   0.161393
24   0.157541
25   0.176347
26   0.152473
27   0.155404
28   0.141917
29   0.161291
30   0.138417
31   0.145982
32   0.154607

$$$$

