PCCDB-ID:  11622
public computational chemistry database (PCCDB) project, http://pccdb.org

 40 39  0  0  0  0  0  0  0  0999 V2000
    2.9222    3.5382   -1.3052 C   0  0  0  0  0  0  0  0  0  0  0  0
   13.3981    4.1464   -2.2793 C   0  0  0  0  0  0  0  0  0  0  0  0
    3.1828    2.5120   -0.1959 C   0  0  0  0  0  0  0  0  0  0  0  0
    4.4047    1.6094   -0.4387 C   0  0  0  0  0  0  0  0  0  0  0  0
    4.2660    0.6654   -1.6425 C   0  0  0  0  0  0  0  0  0  0  0  0
    5.4232   -0.3384   -1.7987 C   0  0  0  0  0  0  0  0  0  0  0  0
    6.8102    0.2711   -2.0738 C   0  0  0  0  0  0  0  0  0  0  0  0
    6.9134    1.0278   -3.4068 C   0  0  0  0  0  0  0  0  0  0  0  0
    8.3298    1.5129   -3.7596 C   0  0  0  0  0  0  0  0  0  0  0  0
    8.8851    2.5993   -2.8269 C   0  0  0  0  0  0  0  0  0  0  0  0
   10.2521    3.1305   -3.2771 C   0  0  0  0  0  0  0  0  0  0  0  0
   10.8028    4.2363   -2.3513 C   0  0  0  0  0  0  0  0  0  0  0  0
   12.1389    4.7608   -2.8669 C   0  0  0  0  0  0  0  0  0  0  0  0
   12.1853    5.6157   -3.7318 O   0  0  0  0  0  0  0  0  0  0  0  0
    2.0780    4.1888   -1.0496 H   0  0  0  0  0  0  0  0  0  0  0  0
    2.6873    3.0569   -2.2612 H   0  0  0  0  0  0  0  0  0  0  0  0
    3.7992    4.1788   -1.4632 H   0  0  0  0  0  0  0  0  0  0  0  0
   13.3427    3.0508   -2.2891 H   0  0  0  0  0  0  0  0  0  0  0  0
   13.5002    4.4480   -1.2283 H   0  0  0  0  0  0  0  0  0  0  0  0
   14.2753    4.4810   -2.8367 H   0  0  0  0  0  0  0  0  0  0  0  0
    2.2905    1.8833   -0.0630 H   0  0  0  0  0  0  0  0  0  0  0  0
    3.3232    3.0444    0.7546 H   0  0  0  0  0  0  0  0  0  0  0  0
    4.5822    1.0047    0.4628 H   0  0  0  0  0  0  0  0  0  0  0  0
    5.2945    2.2438   -0.5588 H   0  0  0  0  0  0  0  0  0  0  0  0
    4.1572    1.2478   -2.5664 H   0  0  0  0  0  0  0  0  0  0  0  0
    3.3303    0.0975   -1.5352 H   0  0  0  0  0  0  0  0  0  0  0  0
    5.1772   -1.0331   -2.6146 H   0  0  0  0  0  0  0  0  0  0  0  0
    5.4832   -0.9495   -0.8866 H   0  0  0  0  0  0  0  0  0  0  0  0
    7.5505   -0.5423   -2.0746 H   0  0  0  0  0  0  0  0  0  0  0  0
    7.0924    0.9317   -1.2440 H   0  0  0  0  0  0  0  0  0  0  0  0
    6.2349    1.8925   -3.4021 H   0  0  0  0  0  0  0  0  0  0  0  0
    6.5581    0.3689   -4.2122 H   0  0  0  0  0  0  0  0  0  0  0  0
    8.3222    1.9036   -4.7869 H   0  0  0  0  0  0  0  0  0  0  0  0
    9.0170    0.6536   -3.7666 H   0  0  0  0  0  0  0  0  0  0  0  0
    8.9698    2.2096   -1.8032 H   0  0  0  0  0  0  0  0  0  0  0  0
    8.1719    3.4354   -2.7783 H   0  0  0  0  0  0  0  0  0  0  0  0
   10.1776    3.5350   -4.2947 H   0  0  0  0  0  0  0  0  0  0  0  0
   10.9681    2.2971   -3.3245 H   0  0  0  0  0  0  0  0  0  0  0  0
   10.9054    3.8475   -1.3299 H   0  0  0  0  0  0  0  0  0  0  0  0
   10.0990    5.0760   -2.3313 H   0  0  0  0  0  0  0  0  0  0  0  0
  1 15  1  0  0  0  0
  1  3  1  0  0  0  0
  2 19  1  0  0  0  0
  3 21  1  0  0  0  0
  3 22  1  0  0  0  0
  4  3  1  0  0  0  0
  4 23  1  0  0  0  0
  5 26  1  0  0  0  0
  5  4  1  0  0  0  0
  6  5  1  0  0  0  0
  6 28  1  0  0  0  0
  7  6  1  0  0  0  0
  7 30  1  0  0  0  0
  8 31  1  0  0  0  0
  8  7  1  0  0  0  0
  9  8  1  0  0  0  0
  9 10  1  0  0  0  0
 10 36  1  0  0  0  0
 10 35  1  0  0  0  0
 11 10  1  0  0  0  0
 11 12  1  0  0  0  0
 12 40  1  0  0  0  0
 12 39  1  0  0  0  0
 13 12  1  0  0  0  0
 13  2  1  0  0  0  0
 14 13  2  0  0  0  0
 16  1  1  0  0  0  0
 17  1  1  0  0  0  0
 18  2  1  0  0  0  0
 20  2  1  0  0  0  0
 24  4  1  0  0  0  0
 25  5  1  0  0  0  0
 27  6  1  0  0  0  0
 29  7  1  0  0  0  0
 32  8  1  0  0  0  0
 33  9  1  0  0  0  0
 34  9  1  0  0  0  0
 37 11  1  0  0  0  0
 38 11  1  0  0  0  0
M  END
>  <HBA>
1

>  <HBD>
0

>  <TPSA>
17.07

>  <cid>
11622

>  <dipole>
2.85

>  <excitation_energy_1>
4.333

>  <excitation_energy_2>
6.06

>  <excitation_energy_3>
6.521

>  <excitation_energy_4>
6.602

>  <homo_energy>
-6.49

>  <homo_lumo_gap>
6.218

>  <logP>
4.496

>  <lumo_energy>
-0.272

>  <melting_point>
-9.82

>  <molecular_refractivity>
64.81

>  <oscillator_strength_1>
0.0006

>  <oscillator_strength_2>
0.034

>  <oscillator_strength_3>
0.0009

>  <oscillator_strength_4>
0.001

>  <open_babel_can_smiles>
CCCCCCCCCCCC(=O)C

>  <mulliken_charges>
40
1   -0.44313
2   -0.532472
3   -0.249048
4   -0.250405
5   -0.257111
6   -0.258963
7   -0.258452
8   -0.256853
9   -0.257268
10   -0.253266
11   -0.266531
12   -0.332332
13   0.448724
14   -0.439488
15   0.142273
16   0.146408
17   0.139443
18   0.164775
19   0.170886
20   0.178442
21   0.129488
22   0.129704
23   0.125558
24   0.129253
25   0.137154
26   0.126504
27   0.126332
28   0.125947
29   0.125587
30   0.136662
31   0.133243
32   0.12802
33   0.131217
34   0.126975
35   0.133969
36   0.132333
37   0.156356
38   0.13289
39   0.134998
40   0.162178

>  <lowdin_charges>
40
1   -0.448192
2   -0.47309
3   -0.272816
4   -0.278886
5   -0.280697
6   -0.276164
7   -0.282134
8   -0.278817
9   -0.274205
10   -0.275321
11   -0.267528
12   -0.305181
13   0.164074
14   -0.238884
15   0.150433
16   0.147199
17   0.145598
18   0.164094
19   0.170178
20   0.172031
21   0.138658
22   0.140995
23   0.139418
24   0.137592
25   0.140479
26   0.140255
27   0.140246
28   0.139518
29   0.140166
30   0.140354
31   0.139898
32   0.141872
33   0.141186
34   0.137916
35   0.138749
36   0.140678
37   0.150753
38   0.140067
39   0.145751
40   0.16376

$$$$

