PCCDB-ID:  32809
public computational chemistry database (PCCDB) project, http://pccdb.org

 31 31  0  0  0  0  0  0  0  0999 V2000
    4.1135   -3.0959   -4.8530 C   0  0  0  0  0  0  0  0  0  0  0  0
    3.3084   -2.2566   -3.8462 C   0  0  0  0  0  0  0  0  0  0  0  0
    4.1789   -1.5907   -2.8149 C   0  0  0  0  0  0  0  0  0  0  0  0
    4.0920   -1.7712   -1.4942 C   0  0  0  0  0  0  0  0  0  0  0  0
    1.7772   -5.1043    4.4535 C   0  0  0  0  0  0  0  0  0  0  0  0
    2.3095   -5.5056    3.2257 C   0  0  0  0  0  0  0  0  0  0  0  0
    2.1055   -3.8538    4.9841 C   0  0  0  0  0  0  0  0  0  0  0  0
    4.9758   -1.1069   -0.4730 C   0  0  0  0  0  0  0  0  0  0  0  0
    3.1675   -4.6598    2.5249 C   0  0  0  0  0  0  0  0  0  0  0  0
    2.9642   -3.0067    4.2884 C   0  0  0  0  0  0  0  0  0  0  0  0
    5.7428   -2.0953    0.4118 C   0  0  0  0  0  0  0  0  0  0  0  0
    3.4990   -3.4052    3.0556 C   0  0  0  0  0  0  0  0  0  0  0  0
    4.4105   -2.4558    2.3550 C   0  0  0  0  0  0  0  0  0  0  0  0
    4.7320   -1.3677    2.7934 O   0  0  0  0  0  0  0  0  0  0  0  0
    4.8470   -2.9424    1.1681 O   0  0  0  0  0  0  0  0  0  0  0  0
    3.4570   -3.5414   -5.6090 H   0  0  0  0  0  0  0  0  0  0  0  0
    4.6501   -3.9061   -4.3468 H   0  0  0  0  0  0  0  0  0  0  0  0
    4.8561   -2.4813   -5.3761 H   0  0  0  0  0  0  0  0  0  0  0  0
    2.5632   -2.8889   -3.3469 H   0  0  0  0  0  0  0  0  0  0  0  0
    2.7455   -1.4892   -4.3989 H   0  0  0  0  0  0  0  0  0  0  0  0
    4.9430   -0.9135   -3.2055 H   0  0  0  0  0  0  0  0  0  0  0  0
    3.3321   -2.4476   -1.1005 H   0  0  0  0  0  0  0  0  0  0  0  0
    1.1070   -5.7656    4.9963 H   0  0  0  0  0  0  0  0  0  0  0  0
    2.0545   -6.4782    2.8137 H   0  0  0  0  0  0  0  0  0  0  0  0
    1.6928   -3.5416    5.9394 H   0  0  0  0  0  0  0  0  0  0  0  0
    4.3865   -0.4566    0.1873 H   0  0  0  0  0  0  0  0  0  0  0  0
    5.7133   -0.4652   -0.9733 H   0  0  0  0  0  0  0  0  0  0  0  0
    3.5856   -4.9646    1.5722 H   0  0  0  0  0  0  0  0  0  0  0  0
    3.2351   -2.0323    4.6812 H   0  0  0  0  0  0  0  0  0  0  0  0
    6.3946   -1.5627    1.1083 H   0  0  0  0  0  0  0  0  0  0  0  0
    6.3311   -2.7900   -0.1926 H   0  0  0  0  0  0  0  0  0  0  0  0
  1 17  1  0  0  0  0
  1  2  1  0  0  0  0
  2 19  1  0  0  0  0
  2  3  1  0  0  0  0
  3  4  2  0  0  0  0
  4 22  1  0  0  0  0
  4  8  1  0  0  0  0
  5  7  1  0  0  0  0
  5 23  1  0  0  0  0
  6  5  2  0  0  0  0
  7 25  1  0  0  0  0
  8 26  1  0  0  0  0
  8 11  1  0  0  0  0
  9 12  2  0  0  0  0
  9  6  1  0  0  0  0
 10 29  1  0  0  0  0
 10  7  2  0  0  0  0
 11 30  1  0  0  0  0
 11 15  1  0  0  0  0
 12 10  1  0  0  0  0
 13 14  2  0  0  0  0
 13 12  1  0  0  0  0
 15 13  1  0  0  0  0
 16  1  1  0  0  0  0
 18  1  1  0  0  0  0
 20  2  1  0  0  0  0
 21  3  1  0  0  0  0
 24  6  1  0  0  0  0
 27  8  1  0  0  0  0
 28  9  1  0  0  0  0
 31 11  1  0  0  0  0
M  END
>  <HBA>
2

>  <HBD>
0

>  <TPSA>
26.3

>  <cid>
32809

>  <dipole>
1.91

>  <excitation_energy_1>
4.655

>  <excitation_energy_2>
4.913

>  <excitation_energy_3>
4.918

>  <excitation_energy_4>
5.386

>  <homo_energy>
-6.539

>  <homo_lumo_gap>
5.347

>  <logP>
3.2

>  <lumo_energy>
-1.192

>  <melting_point>
35.73

>  <molecular_refractivity>
61.28

>  <oscillator_strength_1>
0.0065

>  <oscillator_strength_2>
0.0026

>  <oscillator_strength_3>
0.0182

>  <oscillator_strength_4>
0.2866

>  <open_babel_can_smiles>
CC/C=C/CCOC(=O)c1ccccc1

>  <mulliken_charges>
31
1   -0.440135
2   -0.295336
3   -0.089859
4   -0.093498
5   -0.116841
6   -0.136811
7   -0.13852
8   -0.335339
9   -0.159492
10   -0.15198
11   -0.045793
12   0.048315
13   0.595813
14   -0.493428
15   -0.480698
16   0.143751
17   0.149002
18   0.143196
19   0.139566
20   0.142997
21   0.113735
22   0.127832
23   0.136775
24   0.136168
25   0.137908
26   0.173366
27   0.143888
28   0.156881
29   0.163393
30   0.170676
31   0.154469

>  <lowdin_charges>
31
1   -0.446341
2   -0.270923
3   -0.166507
4   -0.174981
5   -0.141549
6   -0.157105
7   -0.155714
8   -0.285215
9   -0.139164
10   -0.129841
11   -0.13324
12   -0.046226
13   0.197747
14   -0.273374
15   -0.193905
16   0.151077
17   0.151061
18   0.148576
19   0.147574
20   0.149506
21   0.144308
22   0.151648
23   0.162423
24   0.160446
25   0.161432
26   0.165729
27   0.156022
28   0.171969
29   0.176592
30   0.162562
31   0.155415

$$$$

