PCCDB-ID:  15551
public computational chemistry database (PCCDB) project, http://pccdb.org

 22 22  0  0  0  0  0  0  0  0999 V2000
    2.2087   -2.9628    0.9224 C   0  0  0  0  0  0  0  0  0  0  0  0
    3.3352   -2.0848    0.3701 C   0  0  0  0  0  0  0  0  0  0  0  0
    3.1224   -0.6001    0.6739 C   0  0  0  0  0  0  0  0  0  0  0  0
    5.1536    2.6062   -0.1286 C   0  0  0  0  0  0  0  0  0  0  0  0
    3.0786    2.3965    1.0509 C   0  0  0  0  0  0  0  0  0  0  0  0
    5.0710    3.9805    0.0797 C   0  0  0  0  0  0  0  0  0  0  0  0
    3.0926    3.7842    1.2043 C   0  0  0  0  0  0  0  0  0  0  0  0
    4.1346    1.7836    0.3665 C   0  0  0  0  0  0  0  0  0  0  0  0
    4.2297    0.2956    0.1361 C   0  0  0  0  0  0  0  0  0  0  0  0
    4.0628    4.5757    0.7337 N   0  0  0  0  0  0  0  0  0  0  0  0
    5.1822   -0.1644   -0.4721 O   0  0  0  0  0  0  0  0  0  0  0  0
    2.3841   -4.0189    0.6898 H   0  0  0  0  0  0  0  0  0  0  0  0
    1.2372   -2.6858    0.4942 H   0  0  0  0  0  0  0  0  0  0  0  0
    2.1272   -2.8725    2.0128 H   0  0  0  0  0  0  0  0  0  0  0  0
    3.4215   -2.2184   -0.7144 H   0  0  0  0  0  0  0  0  0  0  0  0
    4.2991   -2.3997    0.7861 H   0  0  0  0  0  0  0  0  0  0  0  0
    3.0406   -0.4358    1.7591 H   0  0  0  0  0  0  0  0  0  0  0  0
    2.1644   -0.2541    0.2570 H   0  0  0  0  0  0  0  0  0  0  0  0
    5.9856    2.1611   -0.6636 H   0  0  0  0  0  0  0  0  0  0  0  0
    2.2555    1.8210    1.4616 H   0  0  0  0  0  0  0  0  0  0  0  0
    5.8508    4.6408   -0.2955 H   0  0  0  0  0  0  0  0  0  0  0  0
    2.2819    4.2834    1.7323 H   0  0  0  0  0  0  0  0  0  0  0  0
  1 14  1  0  0  0  0
  2  3  1  0  0  0  0
  2 16  1  0  0  0  0
  2  1  1  0  0  0  0
  3 17  1  0  0  0  0
  4  6  2  0  0  0  0
  4  8  1  0  0  0  0
  5  7  1  0  0  0  0
  5 20  1  0  0  0  0
  6 10  1  0  0  0  0
  7 22  1  0  0  0  0
  8  5  2  0  0  0  0
  9  8  1  0  0  0  0
  9  3  1  0  0  0  0
 10  7  2  0  0  0  0
 11  9  2  0  0  0  0
 12  1  1  0  0  0  0
 13  1  1  0  0  0  0
 15  2  1  0  0  0  0
 18  3  1  0  0  0  0
 19  4  1  0  0  0  0
 21  6  1  0  0  0  0
M  END
>  <HBA>
2

>  <HBD>
0

>  <TPSA>
29.96

>  <cid>
15551

>  <dipole>
2.34

>  <excitation_energy_1>
3.585

>  <excitation_energy_2>
4.112

>  <excitation_energy_3>
4.653

>  <excitation_energy_4>
5.159

>  <homo_energy>
-6.993

>  <homo_lumo_gap>
5.01

>  <logP>
2.064

>  <lumo_energy>
-1.984

>  <melting_point>
52.39

>  <molecular_refractivity>
44.05

>  <oscillator_strength_1>
0.0001

>  <oscillator_strength_2>
0.002

>  <oscillator_strength_3>
0.0438

>  <oscillator_strength_4>
0.0

>  <open_babel_can_smiles>
CCCC(=O)c1ccncc1

>  <mulliken_charges>
22
1   -0.44765
2   -0.241689
3   -0.365723
4   -0.163006
5   -0.191506
6   0.036488
7   0.036325
8   0.097246
9   0.414677
10   -0.397484
11   -0.453501
12   0.150411
13   0.14143
14   0.141485
15   0.153316
16   0.153532
17   0.163368
18   0.163234
19   0.169282
20   0.143146
21   0.14943
22   0.147187

>  <lowdin_charges>
22
1   -0.441314
2   -0.265279
3   -0.308314
4   -0.1492
5   -0.173435
6   -0.089013
7   -0.08949
8   -0.026545
9   0.162638
10   -0.136228
11   -0.227542
12   0.152665
13   0.145976
14   0.144334
15   0.150921
16   0.152818
17   0.160721
18   0.162381
19   0.182534
20   0.168474
21   0.162227
22   0.160671

$$$$

