PCCDB-ID:  61059
public computational chemistry database (PCCDB) project, http://pccdb.org

 22 21  0  0  0  0  0  0  0  0999 V2000
    1.0788    0.0088    0.3675 C   0  0  0  0  0  0  0  0  0  0  0  0
    0.1628   -1.2033    0.3316 C   0  0  0  0  0  0  0  0  0  0  0  0
    4.4092   -0.7399    1.8255 C   0  0  0  0  0  0  0  0  0  0  0  0
   -0.3438   -2.0401    3.8911 C   0  0  0  0  0  0  0  0  0  0  0  0
    2.9458   -0.3472    1.8164 C   0  0  0  0  0  0  0  0  0  0  0  0
   -0.6124   -1.3519    2.5671 C   0  0  0  0  0  0  0  0  0  0  0  0
    2.3088   -0.0389    2.7982 O   0  0  0  0  0  0  0  0  0  0  0  0
   -1.3575   -0.4149    2.3949 O   0  0  0  0  0  0  0  0  0  0  0  0
    2.4534   -0.3850    0.5555 O   0  0  0  0  0  0  0  0  0  0  0  0
    0.1560   -1.8987    1.5929 O   0  0  0  0  0  0  0  0  0  0  0  0
    5.4940    0.5003    0.9993 S   0  0  0  0  0  0  0  0  0  0  0  0
   -1.7746   -2.0287    5.0339 S   0  0  0  0  0  0  0  0  0  0  0  0
    0.7827    0.7026    1.1555 H   0  0  0  0  0  0  0  0  0  0  0  0
    1.0501    0.5150   -0.6019 H   0  0  0  0  0  0  0  0  0  0  0  0
    0.5177   -1.9383   -0.3939 H   0  0  0  0  0  0  0  0  0  0  0  0
   -0.8519   -0.8849    0.0766 H   0  0  0  0  0  0  0  0  0  0  0  0
    4.5443   -1.7194    1.3589 H   0  0  0  0  0  0  0  0  0  0  0  0
    4.7415   -0.7872    2.8631 H   0  0  0  0  0  0  0  0  0  0  0  0
    0.5193   -1.5334    4.3378 H   0  0  0  0  0  0  0  0  0  0  0  0
   -0.0664   -3.0828    3.7245 H   0  0  0  0  0  0  0  0  0  0  0  0
    5.0075    0.3107   -0.2450 H   0  0  0  0  0  0  0  0  0  0  0  0
   -2.0989   -0.7372    4.8159 H   0  0  0  0  0  0  0  0  0  0  0  0
  1  9  1  0  0  0  0
  1 13  1  0  0  0  0
  2  1  1  0  0  0  0
  2 10  1  0  0  0  0
  3 18  1  0  0  0  0
  4 19  1  0  0  0  0
  4 12  1  0  0  0  0
  5  3  1  0  0  0  0
  5  7  2  0  0  0  0
  6  4  1  0  0  0  0
  8  6  2  0  0  0  0
  9  5  1  0  0  0  0
 10  6  1  0  0  0  0
 11  3  1  0  0  0  0
 14  1  1  0  0  0  0
 15  2  1  0  0  0  0
 16  2  1  0  0  0  0
 17  3  1  0  0  0  0
 20  4  1  0  0  0  0
 21 11  1  0  0  0  0
 22 12  1  0  0  0  0
M  END
>  <HBA>
6

>  <HBD>
2

>  <TPSA>
130.2

>  <cid>
61059

>  <dipole>
3.85

>  <excitation_energy_1>
4.802

>  <excitation_energy_2>
5.01

>  <excitation_energy_3>
5.191

>  <excitation_energy_4>
5.496

>  <homo_energy>
-6.509

>  <homo_lumo_gap>
5.81

>  <logP>
-0.068

>  <lumo_energy>
-0.699

>  <melting_point>
38.84

>  <molecular_refractivity>
49.38

>  <oscillator_strength_1>
0.0111

>  <oscillator_strength_2>
0.0008

>  <oscillator_strength_3>
0.002

>  <oscillator_strength_4>
0.0081

>  <open_babel_can_smiles>
SCC(=O)OCCOC(=O)CS

>  <mulliken_charges>
22
1   -0.084569
2   -0.058302
3   -0.503408
4   -0.508359
5   0.63973
6   0.644789
7   -0.463283
8   -0.466552
9   -0.454425
10   -0.453852
11   -0.044005
12   -0.066176
13   0.206568
14   0.165872
15   0.168911
16   0.180909
17   0.207463
18   0.215203
19   0.233097
20   0.202293
21   0.11267
22   0.125424

>  <lowdin_charges>
22
1   -0.142911
2   -0.141131
3   -0.393366
4   -0.400075
5   0.200162
6   0.203757
7   -0.257836
8   -0.256748
9   -0.195954
10   -0.190251
11   -0.047227
12   -0.065139
13   0.179145
14   0.164046
15   0.164436
16   0.168704
17   0.182302
18   0.191111
19   0.196285
20   0.186044
21   0.122756
22   0.13189

$$$$

