PCCDB-ID:  69180
public computational chemistry database (PCCDB) project, http://pccdb.org

 20 20  0  0  0  0  0  0  0  0999 V2000
   -1.5846    0.0237   -0.0408 C   0  0  0  0  0  0  0  0  0  0  0  0
   -0.8197   -1.1309    0.1071 C   0  0  0  0  0  0  0  0  0  0  0  0
   -0.9500    1.2568   -0.1916 C   0  0  0  0  0  0  0  0  0  0  0  0
    0.5724   -1.0416    0.1007 C   0  0  0  0  0  0  0  0  0  0  0  0
    1.0852    2.7296   -0.3788 C   0  0  0  0  0  0  0  0  0  0  0  0
    2.7428    0.2298   -0.0383 C   0  0  0  0  0  0  0  0  0  0  0  0
    1.7716    3.2024    0.8322 C   0  0  0  0  0  0  0  0  0  0  0  0
    3.3150    0.5766   -1.3472 C   0  0  0  0  0  0  0  0  0  0  0  0
    0.4441    1.3568   -0.1999 C   0  0  0  0  0  0  0  0  0  0  0  0
    1.2177    0.1890   -0.0494 C   0  0  0  0  0  0  0  0  0  0  0  0
    2.3224    3.5454    1.7950 N   0  0  0  0  0  0  0  0  0  0  0  0
    3.7421    0.8703   -2.3861 N   0  0  0  0  0  0  0  0  0  0  0  0
   -2.6694   -0.0300   -0.0363 H   0  0  0  0  0  0  0  0  0  0  0  0
   -1.2997   -2.0982    0.2241 H   0  0  0  0  0  0  0  0  0  0  0  0
   -1.5467    2.1586   -0.3041 H   0  0  0  0  0  0  0  0  0  0  0  0
    1.1696   -1.9430    0.2135 H   0  0  0  0  0  0  0  0  0  0  0  0
    1.8112    2.7237   -1.2021 H   0  0  0  0  0  0  0  0  0  0  0  0
    0.3173    3.4640   -0.6452 H   0  0  0  0  0  0  0  0  0  0  0  0
    3.1143    0.9531    0.6990 H   0  0  0  0  0  0  0  0  0  0  0  0
    3.1365   -0.7484    0.2585 H   0  0  0  0  0  0  0  0  0  0  0  0
  1 13  1  0  0  0  0
  1  2  2  0  0  0  0
  2 14  1  0  0  0  0
  3  1  1  0  0  0  0
  4  2  1  0  0  0  0
  4 16  1  0  0  0  0
  5  9  1  0  0  0  0
  5  7  1  0  0  0  0
  6 20  1  0  0  0  0
  6 19  1  0  0  0  0
  7 11  3  0  0  0  0
  8  6  1  0  0  0  0
  9  3  2  0  0  0  0
  9 10  1  0  0  0  0
 10  6  1  0  0  0  0
 10  4  2  0  0  0  0
 12  8  3  0  0  0  0
 15  3  1  0  0  0  0
 17  5  1  0  0  0  0
 18  5  1  0  0  0  0
M  END
>  <HBA>
2

>  <HBD>
0

>  <TPSA>
47.58

>  <cid>
69180

>  <dipole>
4.5

>  <excitation_energy_1>
5.275

>  <excitation_energy_2>
5.87

>  <excitation_energy_3>
6.368

>  <excitation_energy_4>
6.428

>  <homo_energy>
-7.358

>  <homo_lumo_gap>
6.436

>  <logP>
1.819

>  <lumo_energy>
-0.922

>  <melting_point>
78.46

>  <molecular_refractivity>
45.49

>  <oscillator_strength_1>
0.0002

>  <oscillator_strength_2>
0.0175

>  <oscillator_strength_3>
0.0311

>  <oscillator_strength_4>
0.0963

>  <open_babel_can_smiles>
N#CCc1ccccc1CC#N

>  <mulliken_charges>
20
1   -0.121508
2   -0.121589
3   -0.178324
4   -0.178166
5   -0.458176
6   -0.458272
7   0.371947
8   0.371922
9   0.134178
10   0.134115
11   -0.471583
12   -0.471571
13   0.144185
14   0.14416
15   0.140056
16   0.140044
17   0.232114
18   0.207163
19   0.232146
20   0.207159

>  <lowdin_charges>
20
1   -0.143455
2   -0.146008
3   -0.155508
4   -0.155691
5   -0.276243
6   -0.275985
7   -0.016299
8   -0.01652
9   -0.002926
10   -0.00152
11   -0.124997
12   -0.125009
13   0.163551
14   0.165492
15   0.162772
16   0.162816
17   0.201285
18   0.191774
19   0.201813
20   0.190658

$$$$

