PCCDB-ID:  7417
public computational chemistry database (PCCDB) project, http://pccdb.org

 19 19  0  0  0  0  0  0  0  0999 V2000
    1.6386   -0.2024    1.2795 C   0  0  0  0  0  0  0  0  0  0  0  0
    4.3086   -1.9293   -2.6019 C   0  0  0  0  0  0  0  0  0  0  0  0
    3.8096   -0.8635   -1.8594 C   0  0  0  0  0  0  0  0  0  0  0  0
    4.0269   -3.2459   -2.2391 C   0  0  0  0  0  0  0  0  0  0  0  0
    2.7309   -2.4426   -0.3676 C   0  0  0  0  0  0  0  0  0  0  0  0
    2.4920    0.0511    0.0457 C   0  0  0  0  0  0  0  0  0  0  0  0
    3.0144   -1.1206   -0.7326 C   0  0  0  0  0  0  0  0  0  0  0  0
    3.2313   -3.5208   -1.1142 C   0  0  0  0  0  0  0  0  0  0  0  0
    2.9931   -4.8388   -0.7115 N   0  0  0  0  0  0  0  0  0  0  0  0
    2.7466    1.1945   -0.3014 O   0  0  0  0  0  0  0  0  0  0  0  0
    2.1878   -0.7896    2.0253 H   0  0  0  0  0  0  0  0  0  0  0  0
    0.7318   -0.7640    1.0250 H   0  0  0  0  0  0  0  0  0  0  0  0
    1.3580    0.7593    1.7123 H   0  0  0  0  0  0  0  0  0  0  0  0
    4.9251   -1.7403   -3.4768 H   0  0  0  0  0  0  0  0  0  0  0  0
    4.0168    0.1663   -2.1272 H   0  0  0  0  0  0  0  0  0  0  0  0
    4.4263   -4.0707   -2.8255 H   0  0  0  0  0  0  0  0  0  0  0  0
    2.1202   -2.6526    0.5062 H   0  0  0  0  0  0  0  0  0  0  0  0
    3.0577   -5.5280   -1.4506 H   0  0  0  0  0  0  0  0  0  0  0  0
    2.1548   -4.9711   -0.1591 H   0  0  0  0  0  0  0  0  0  0  0  0
  1 13  1  0  0  0  0
  1 11  1  0  0  0  0
  2  4  2  0  0  0  0
  2  3  1  0  0  0  0
  3  7  2  0  0  0  0
  4  8  1  0  0  0  0
  5 17  1  0  0  0  0
  6  1  1  0  0  0  0
  7  5  1  0  0  0  0
  7  6  1  0  0  0  0
  8  9  1  0  0  0  0
  8  5  2  0  0  0  0
  9 19  1  0  0  0  0
 10  6  2  0  0  0  0
 12  1  1  0  0  0  0
 14  2  1  0  0  0  0
 15  3  1  0  0  0  0
 16  4  1  0  0  0  0
 18  9  1  0  0  0  0
M  END
>  <HBA>
2

>  <HBD>
1

>  <TPSA>
43.09

>  <cid>
7417

>  <dipole>
4.45

>  <excitation_energy_1>
3.745

>  <excitation_energy_2>
3.77

>  <excitation_energy_3>
4.84

>  <excitation_energy_4>
4.996

>  <homo_energy>
-5.717

>  <homo_lumo_gap>
4.408

>  <logP>
2.053

>  <lumo_energy>
-1.309

>  <melting_point>
88.37

>  <molecular_refractivity>
41.04

>  <oscillator_strength_1>
0.0032

>  <oscillator_strength_2>
0.046

>  <oscillator_strength_3>
0.0037

>  <oscillator_strength_4>
0.0515

>  <open_babel_can_smiles>
Nc1cccc(c1)C(=O)C

>  <mulliken_charges>
19
1   -0.54216
2   -0.13587
3   -0.170386
4   -0.16548
5   -0.235313
6   0.406302
7   0.075159
8   0.315461
9   -0.788606
10   -0.453358
11   0.17048
12   0.166735
13   0.18005
14   0.133964
15   0.156835
16   0.123004
17   0.120823
18   0.321695
19   0.320663

>  <lowdin_charges>
19
1   -0.478451
2   -0.143941
3   -0.157454
4   -0.186641
5   -0.194891
6   0.163144
7   -0.041554
8   0.059504
9   -0.489427
10   -0.242515
11   0.170512
12   0.167921
13   0.174245
14   0.160353
15   0.173872
16   0.156477
17   0.156092
18   0.277101
19   0.275653

$$$$

