PCCDB-ID:  35364
public computational chemistry database (PCCDB) project, http://pccdb.org

 27 27  0  0  1  0  0  0  0  0999 V2000
    0.9373   -0.1270   -0.3469 C   0  0  0  0  0  0  0  0  0  0  0  0
    3.1056   -2.4830    2.9785 C   0  0  0  0  0  0  0  0  0  0  0  0
    1.0084    1.6093    2.6267 C   0  0  0  0  0  0  0  0  0  0  0  0
    2.9603   -1.2204    0.7822 C   0  0  0  0  0  0  0  0  0  0  0  0
    2.7923    1.3101    0.7654 C   0  0  0  0  0  0  0  0  0  0  0  0
    3.0155    0.0528    2.9556 C   0  0  0  0  0  0  0  0  0  0  0  0
    2.4278    0.0080    0.0122 C   0  0  2  0  0  0  0  0  0  0  0  0
    2.5509   -1.2431    2.2663 C   0  0  2  0  0  0  0  0  0  0  0  0
    2.4828    1.3360    2.2818 C   0  0  2  0  0  0  0  0  0  0  0  0
    0.7859   -0.9750   -1.0263 H   0  0  0  0  0  0  0  0  0  0  0  0
    0.5722    0.7739   -0.8547 H   0  0  0  0  0  0  0  0  0  0  0  0
    0.2987   -0.2940    0.5259 H   0  0  0  0  0  0  0  0  0  0  0  0
    2.7557   -3.4069    2.5020 H   0  0  0  0  0  0  0  0  0  0  0  0
    2.7967   -2.5103    4.0306 H   0  0  0  0  0  0  0  0  0  0  0  0
    4.2033   -2.4918    2.9543 H   0  0  0  0  0  0  0  0  0  0  0  0
    0.6438    2.5059    2.1110 H   0  0  0  0  0  0  0  0  0  0  0  0
    0.8949    1.7770    3.7049 H   0  0  0  0  0  0  0  0  0  0  0  0
    0.3463    0.7817    2.3554 H   0  0  0  0  0  0  0  0  0  0  0  0
    4.0603   -1.2227    0.7318 H   0  0  0  0  0  0  0  0  0  0  0  0
    2.6283   -2.1432    0.2860 H   0  0  0  0  0  0  0  0  0  0  0  0
    2.3149    2.1693    0.2743 H   0  0  0  0  0  0  0  0  0  0  0  0
    3.8761    1.4586    0.6523 H   0  0  0  0  0  0  0  0  0  0  0  0
    4.1163    0.0726    2.9391 H   0  0  0  0  0  0  0  0  0  0  0  0
    2.7249    0.0399    4.0156 H   0  0  0  0  0  0  0  0  0  0  0  0
    2.9650    0.0473   -0.9468 H   0  0  0  0  0  0  0  0  0  0  0  0
    1.4536   -1.2933    2.3236 H   0  0  0  0  0  0  0  0  0  0  0  0
    3.0512    2.1809    2.6977 H   0  0  0  0  0  0  0  0  0  0  0  0
  1  7  1  0  0  0  0
  1 12  1  0  0  0  0
  2 14  1  0  0  0  0
  3 17  1  0  0  0  0
  4  8  1  0  0  0  0
  5  9  1  0  0  0  0
  6 24  1  0  0  0  0
  7 25  1  6  0  0  0
  7  5  1  0  0  0  0
  7  4  1  0  0  0  0
  8 26  1  1  0  0  0
  8  6  1  0  0  0  0
  8  2  1  0  0  0  0
  9  3  1  0  0  0  0
  9 27  1  1  0  0  0
  9  6  1  0  0  0  0
 10  1  1  0  0  0  0
 11  1  1  0  0  0  0
 13  2  1  0  0  0  0
 15  2  1  0  0  0  0
 16  3  1  0  0  0  0
 18  3  1  0  0  0  0
 19  4  1  0  0  0  0
 20  4  1  0  0  0  0
 21  5  1  0  0  0  0
 22  5  1  0  0  0  0
 23  6  1  0  0  0  0
M  END
>  <HBA>
0

>  <HBD>
0

>  <TPSA>
0.0

>  <cid>
35364

>  <dipole>
0.1

>  <excitation_energy_1>
7.055

>  <excitation_energy_2>
7.179

>  <excitation_energy_3>
7.454

>  <excitation_energy_4>
7.556

>  <homo_energy>
-7.649

>  <homo_lumo_gap>
9.655

>  <logP>
3.079

>  <lumo_energy>
2.005

>  <melting_point>
-5.98

>  <molecular_refractivity>
43.26

>  <oscillator_strength_1>
0.0029

>  <oscillator_strength_2>
0.0191

>  <oscillator_strength_3>
0.0233

>  <oscillator_strength_4>
0.0441

>  <open_babel_can_smiles>
C[C@@H]1C[C@H](C)C[C@H](C1)C

>  <mulliken_charges>
27
1   -0.450501
2   -0.444452
3   -0.450528
4   -0.256419
5   -0.268147
6   -0.256643
7   -0.072362
8   -0.075521
9   -0.071898
10   0.137784
11   0.138399
12   0.145885
13   0.138207
14   0.138175
15   0.137038
16   0.138349
17   0.137738
18   0.145979
19   0.120114
20   0.122427
21   0.122955
22   0.124241
23   0.120143
24   0.122368
25   0.11817
26   0.120521
27   0.117976

>  <lowdin_charges>
27
1   -0.451443
2   -0.439142
3   -0.44945
4   -0.276978
5   -0.280859
6   -0.274835
7   -0.124962
8   -0.125755
9   -0.126148
10   0.147042
11   0.147856
12   0.14642
13   0.147162
14   0.145599
15   0.142328
16   0.147816
17   0.144849
18   0.146807
19   0.13414
20   0.139681
21   0.14051
22   0.138182
23   0.134121
24   0.137761
25   0.138199
26   0.131914
27   0.139186

$$$$

