PCCDB-ID:  69660
public computational chemistry database (PCCDB) project, http://pccdb.org

 38 37  0  0  0  0  0  0  0  0999 V2000
    3.7103   -4.7638    1.8500 C   0  0  0  0  0  0  0  0  0  0  0  0
    2.5166   -4.1303    1.1511 C   0  0  0  0  0  0  0  0  0  0  0  0
    8.2887   -2.0179   -1.9504 C   0  0  0  0  0  0  0  0  0  0  0  0
    6.8150   -1.9541   -2.3752 C   0  0  0  0  0  0  0  0  0  0  0  0
    9.1257   -2.9775   -2.8084 C   0  0  0  0  0  0  0  0  0  0  0  0
    5.9833   -0.9911   -1.5164 C   0  0  0  0  0  0  0  0  0  0  0  0
   10.5839   -3.1464   -2.3546 C   0  0  0  0  0  0  0  0  0  0  0  0
    4.5120   -0.8509   -1.9425 C   0  0  0  0  0  0  0  0  0  0  0  0
   11.4242   -1.8725   -2.4816 C   0  0  0  0  0  0  0  0  0  0  0  0
    3.6574   -2.1107   -1.7536 C   0  0  0  0  0  0  0  0  0  0  0  0
   12.8787   -2.0852   -2.1230 C   0  0  0  0  0  0  0  0  0  0  0  0
    3.3931   -2.4491   -0.2969 C   0  0  0  0  0  0  0  0  0  0  0  0
   13.3847   -3.1255   -1.7641 O   0  0  0  0  0  0  0  0  0  0  0  0
   13.5936   -0.9363   -2.2489 O   0  0  0  0  0  0  0  0  0  0  0  0
    3.5971   -1.7131    0.6460 O   0  0  0  0  0  0  0  0  0  0  0  0
    2.8612   -3.6887   -0.1841 O   0  0  0  0  0  0  0  0  0  0  0  0
    3.4041   -5.1602    2.8250 H   0  0  0  0  0  0  0  0  0  0  0  0
    4.4979   -4.0227    2.0133 H   0  0  0  0  0  0  0  0  0  0  0  0
    4.1167   -5.5890    1.2559 H   0  0  0  0  0  0  0  0  0  0  0  0
    2.1348   -3.2774    1.7176 H   0  0  0  0  0  0  0  0  0  0  0  0
    1.7116   -4.8537    0.9985 H   0  0  0  0  0  0  0  0  0  0  0  0
    8.3491   -2.3283   -0.8965 H   0  0  0  0  0  0  0  0  0  0  0  0
    8.7133   -1.0049   -1.9936 H   0  0  0  0  0  0  0  0  0  0  0  0
    6.3908   -2.9675   -2.3303 H   0  0  0  0  0  0  0  0  0  0  0  0
    6.7545   -1.6469   -3.4303 H   0  0  0  0  0  0  0  0  0  0  0  0
    9.1058   -2.6409   -3.8558 H   0  0  0  0  0  0  0  0  0  0  0  0
    8.6466   -3.9664   -2.8009 H   0  0  0  0  0  0  0  0  0  0  0  0
    6.4468    0.0045   -1.5574 H   0  0  0  0  0  0  0  0  0  0  0  0
    6.0239   -1.2995   -0.4639 H   0  0  0  0  0  0  0  0  0  0  0  0
   11.0608   -3.9374   -2.9449 H   0  0  0  0  0  0  0  0  0  0  0  0
   10.6135   -3.4933   -1.3139 H   0  0  0  0  0  0  0  0  0  0  0  0
    4.4666   -0.5594   -3.0005 H   0  0  0  0  0  0  0  0  0  0  0  0
    4.0541   -0.0370   -1.3695 H   0  0  0  0  0  0  0  0  0  0  0  0
   11.0447   -1.0657   -1.8421 H   0  0  0  0  0  0  0  0  0  0  0  0
   11.3880   -1.4736   -3.5050 H   0  0  0  0  0  0  0  0  0  0  0  0
    4.0990   -2.9892   -2.2370 H   0  0  0  0  0  0  0  0  0  0  0  0
    2.6758   -1.9794   -2.2298 H   0  0  0  0  0  0  0  0  0  0  0  0
   14.5093   -1.1631   -1.9995 H   0  0  0  0  0  0  0  0  0  0  0  0
  1 18  1  0  0  0  0
  1 17  1  0  0  0  0
  2 20  1  0  0  0  0
  2  1  1  0  0  0  0
  3 22  1  0  0  0  0
  4 24  1  0  0  0  0
  4  3  1  0  0  0  0
  4  6  1  0  0  0  0
  5 27  1  0  0  0  0
  5  7  1  0  0  0  0
  5  3  1  0  0  0  0
  6 29  1  0  0  0  0
  7 31  1  0  0  0  0
  8 10  1  0  0  0  0
  8  6  1  0  0  0  0
  8 33  1  0  0  0  0
  9  7  1  0  0  0  0
  9 11  1  0  0  0  0
  9 34  1  0  0  0  0
 10 12  1  0  0  0  0
 11 13  2  0  0  0  0
 12 16  1  0  0  0  0
 12 15  2  0  0  0  0
 14 11  1  0  0  0  0
 14 38  1  0  0  0  0
 16  2  1  0  0  0  0
 19  1  1  0  0  0  0
 21  2  1  0  0  0  0
 23  3  1  0  0  0  0
 25  4  1  0  0  0  0
 26  5  1  0  0  0  0
 28  6  1  0  0  0  0
 30  7  1  0  0  0  0
 32  8  1  0  0  0  0
 35  9  1  0  0  0  0
 36 10  1  0  0  0  0
 37 10  1  0  0  0  0
M  END
>  <HBA>
4

>  <HBD>
1

>  <TPSA>
63.6

>  <cid>
69660

>  <dipole>
1.51

>  <excitation_energy_1>
5.806

>  <excitation_energy_2>
5.847

>  <excitation_energy_3>
6.875

>  <excitation_energy_4>
6.908

>  <homo_energy>
-7.309

>  <homo_lumo_gap>
7.649

>  <logP>
2.755

>  <lumo_energy>
0.34

>  <melting_point>
59.05

>  <molecular_refractivity>
62.85

>  <oscillator_strength_1>
0.0009

>  <oscillator_strength_2>
0.0002

>  <oscillator_strength_3>
0.0751

>  <oscillator_strength_4>
0.011

>  <open_babel_can_smiles>
CCOC(=O)CCCCCCCCC(=O)O

>  <mulliken_charges>
38
1   -0.461222
2   -0.044321
3   -0.256966
4   -0.255912
5   -0.261896
6   -0.263385
7   -0.251145
8   -0.253902
9   -0.354411
10   -0.363524
11   0.575166
12   0.625286
13   -0.461658
14   -0.571221
15   -0.48254
16   -0.462468
17   0.150318
18   0.174812
19   0.15664
20   0.16974
21   0.151768
22   0.131867
23   0.130535
24   0.128374
25   0.126001
26   0.126935
27   0.13302
28   0.129769
29   0.151344
30   0.150875
31   0.147726
32   0.128148
33   0.154272
34   0.179089
35   0.172355
36   0.170746
37   0.172918
38   0.406867

>  <lowdin_charges>
38
1   -0.456106
2   -0.129934
3   -0.274591
4   -0.274671
5   -0.273653
6   -0.276956
7   -0.271196
8   -0.273005
9   -0.304837
10   -0.305301
11   0.196314
12   0.201309
13   -0.26665
14   -0.364268
15   -0.273066
16   -0.200307
17   0.158521
18   0.165357
19   0.156614
20   0.159359
21   0.152358
22   0.138368
23   0.13677
24   0.135565
25   0.135039
26   0.136084
27   0.143149
28   0.142083
29   0.147994
30   0.155155
31   0.148835
32   0.141168
33   0.157651
34   0.171862
35   0.168036
36   0.166562
37   0.171754
38   0.358633

$$$$

