PCCDB-ID:  41843
public computational chemistry database (PCCDB) project, http://pccdb.org

 26 25  0  0  0  0  0  0  0  0999 V2000
    1.8542    0.3961    3.6064 C   0  0  0  0  0  0  0  0  0  0  0  0
    2.4942    0.3158    2.2166 C   0  0  0  0  0  0  0  0  0  0  0  0
    4.4320   -0.6212   -0.7131 C   0  0  0  0  0  0  0  0  0  0  0  0
    5.3682   -1.7965   -1.0067 C   0  0  0  0  0  0  0  0  0  0  0  0
    3.4858    1.4641    1.9851 C   0  0  0  0  0  0  0  0  0  0  0  0
    5.0489    0.3846    0.2729 C   0  0  0  0  0  0  0  0  0  0  0  0
    5.5313   -2.7459    0.1773 C   0  0  0  0  0  0  0  0  0  0  0  0
    3.8803    2.4890   -0.1254 N   0  0  0  0  0  0  0  0  0  0  0  0
    4.1203    1.4412    0.6704 N   0  0  0  0  0  0  0  0  0  0  0  0
    4.9457   -2.6469    1.2283 O   0  0  0  0  0  0  0  0  0  0  0  0
    6.4035   -3.7713   -0.0132 O   0  0  0  0  0  0  0  0  0  0  0  0
    4.4556    2.4549   -1.2143 O   0  0  0  0  0  0  0  0  0  0  0  0
    1.1520   -0.4294    3.7616 H   0  0  0  0  0  0  0  0  0  0  0  0
    1.3022    1.3345    3.7395 H   0  0  0  0  0  0  0  0  0  0  0  0
    2.6123    0.3392    4.3969 H   0  0  0  0  0  0  0  0  0  0  0  0
    1.7200    0.3594    1.4398 H   0  0  0  0  0  0  0  0  0  0  0  0
    3.0100   -0.6457    2.1032 H   0  0  0  0  0  0  0  0  0  0  0  0
    3.4949   -1.0100   -0.3037 H   0  0  0  0  0  0  0  0  0  0  0  0
    4.1987   -0.0981   -1.6441 H   0  0  0  0  0  0  0  0  0  0  0  0
    6.3626   -1.4396   -1.3140 H   0  0  0  0  0  0  0  0  0  0  0  0
    4.9832   -2.3827   -1.8533 H   0  0  0  0  0  0  0  0  0  0  0  0
    4.2698    1.4410    2.7554 H   0  0  0  0  0  0  0  0  0  0  0  0
    2.9807    2.4324    2.0511 H   0  0  0  0  0  0  0  0  0  0  0  0
    5.9126    0.8724   -0.1932 H   0  0  0  0  0  0  0  0  0  0  0  0
    5.3681   -0.1239    1.1851 H   0  0  0  0  0  0  0  0  0  0  0  0
    6.7900   -3.7210   -0.9036 H   0  0  0  0  0  0  0  0  0  0  0  0
  1 14  1  0  0  0  0
  1 13  1  0  0  0  0
  1 15  1  0  0  0  0
  2  1  1  0  0  0  0
  3 18  1  0  0  0  0
  3  6  1  0  0  0  0
  4  3  1  0  0  0  0
  4  7  1  0  0  0  0
  5 23  1  0  0  0  0
  5  2  1  0  0  0  0
  5 22  1  0  0  0  0
  6  9  1  0  0  0  0
  6 25  1  0  0  0  0
  7 10  2  0  0  0  0
  8  9  1  0  0  0  0
  9  5  1  0  0  0  0
 11  7  1  0  0  0  0
 12  8  1  0  0  0  0
 16  2  1  0  0  0  0
 17  2  1  0  0  0  0
 19  3  1  0  0  0  0
 20  4  1  0  0  0  0
 21  4  1  0  0  0  0
 24  6  1  0  0  0  0
 26 11  1  0  0  0  0
M  RAD  2   8   2  12   2
M  END
>  <HBA>
5

>  <HBD>
1

>  <TPSA>
69.97

>  <cid>
41843

>  <dipole>
2.59

>  <excitation_energy_1>
3.395

>  <excitation_energy_2>
5.156

>  <excitation_energy_3>
5.265

>  <excitation_energy_4>
5.729

>  <homo_energy>
-5.962

>  <homo_lumo_gap>
5.241

>  <logP>
1.245

>  <lumo_energy>
-0.721

>  <melting_point>
71.62

>  <molecular_refractivity>
45.17

>  <oscillator_strength_1>
0.0011

>  <oscillator_strength_2>
0.0023

>  <oscillator_strength_3>
0.0008

>  <oscillator_strength_4>
0.0041

>  <open_babel_can_smiles>
CCCN(CCCC(=O)O)[N][O]

>  <mulliken_charges>
26
1   -0.448794
2   -0.275813
3   -0.258182
4   -0.415825
5   -0.129946
6   -0.151721
7   0.60858
8   0.144703
9   -0.220076
10   -0.440362
11   -0.562031
12   -0.394705
13   0.15497
14   0.147097
15   0.148553
16   0.145909
17   0.174827
18   0.167453
19   0.17507
20   0.169062
21   0.178841
22   0.150869
23   0.172895
24   0.170351
25   0.175632
26   0.412641

>  <lowdin_charges>
26
1   -0.444632
2   -0.288403
3   -0.278986
4   -0.324693
5   -0.200465
6   -0.219503
7   0.196821
8   0.047448
9   -0.034241
10   -0.244302
11   -0.351654
12   -0.28597
13   0.158093
14   0.149132
15   0.150793
16   0.14821
17   0.158555
18   0.160603
19   0.166647
20   0.162882
21   0.172646
22   0.147885
23   0.164393
24   0.163447
25   0.165795
26   0.359496

$$$$

