PCCDB-ID:  25113
public computational chemistry database (PCCDB) project, http://pccdb.org

 39 38  0  0  0  0  0  0  0  0999 V2000
    9.5113    1.4554    2.8077 C   0  0  0  0  0  0  0  0  0  0  0  0
   12.9366    0.9178   -8.4951 C   0  0  0  0  0  0  0  0  0  0  0  0
    9.4543    0.3134    1.7878 C   0  0  0  0  0  0  0  0  0  0  0  0
   11.5096    1.0225   -7.9467 C   0  0  0  0  0  0  0  0  0  0  0  0
    8.6928    0.6792    0.5072 C   0  0  0  0  0  0  0  0  0  0  0  0
   11.4191    1.8932   -6.6855 C   0  0  0  0  0  0  0  0  0  0  0  0
    8.6352   -0.4703   -0.5100 C   0  0  0  0  0  0  0  0  0  0  0  0
    9.9978    2.0985   -6.1381 C   0  0  0  0  0  0  0  0  0  0  0  0
    7.8097   -0.1802   -1.7730 C   0  0  0  0  0  0  0  0  0  0  0  0
    9.3448    0.8155   -5.5775 C   0  0  0  0  0  0  0  0  0  0  0  0
    8.4047    0.9075   -2.6816 C   0  0  0  0  0  0  0  0  0  0  0  0
    7.9538    1.0724   -5.0208 C   0  0  0  0  0  0  0  0  0  0  0  0
    7.5441    1.1256   -3.8254 N   0  0  0  0  0  0  0  0  0  0  0  0
    7.0090    1.3265   -5.9879 O   0  0  0  0  0  0  0  0  0  0  0  0
   10.0601    1.1605    3.7095 H   0  0  0  0  0  0  0  0  0  0  0  0
    8.5042    1.7621    3.1161 H   0  0  0  0  0  0  0  0  0  0  0  0
   10.0103    2.3378    2.3881 H   0  0  0  0  0  0  0  0  0  0  0  0
   12.9741    0.2948   -9.3957 H   0  0  0  0  0  0  0  0  0  0  0  0
   13.6139    0.4744   -7.7550 H   0  0  0  0  0  0  0  0  0  0  0  0
   13.3340    1.9062   -8.7561 H   0  0  0  0  0  0  0  0  0  0  0  0
    8.9830   -0.5662    2.2493 H   0  0  0  0  0  0  0  0  0  0  0  0
   10.4769    0.0059    1.5257 H   0  0  0  0  0  0  0  0  0  0  0  0
   11.1319    0.0129   -7.7360 H   0  0  0  0  0  0  0  0  0  0  0  0
   10.8505    1.4414   -8.7213 H   0  0  0  0  0  0  0  0  0  0  0  0
    9.1633    1.5631    0.0536 H   0  0  0  0  0  0  0  0  0  0  0  0
    7.6678    0.9820    0.7684 H   0  0  0  0  0  0  0  0  0  0  0  0
   11.8486    2.8799   -6.9087 H   0  0  0  0  0  0  0  0  0  0  0  0
   12.0525    1.4594   -5.8975 H   0  0  0  0  0  0  0  0  0  0  0  0
    8.2112   -1.3551   -0.0146 H   0  0  0  0  0  0  0  0  0  0  0  0
    9.6600   -0.7505   -0.7979 H   0  0  0  0  0  0  0  0  0  0  0  0
    9.3613    2.5245   -6.9268 H   0  0  0  0  0  0  0  0  0  0  0  0
   10.0244    2.8481   -5.3373 H   0  0  0  0  0  0  0  0  0  0  0  0
    6.7883    0.1153   -1.5011 H   0  0  0  0  0  0  0  0  0  0  0  0
    7.7151   -1.1016   -2.3630 H   0  0  0  0  0  0  0  0  0  0  0  0
    9.9898    0.3904   -4.8035 H   0  0  0  0  0  0  0  0  0  0  0  0
    9.2671    0.0538   -6.3661 H   0  0  0  0  0  0  0  0  0  0  0  0
    9.4441    0.6341   -2.9341 H   0  0  0  0  0  0  0  0  0  0  0  0
    8.4590    1.8539   -2.1265 H   0  0  0  0  0  0  0  0  0  0  0  0
    7.4085    1.1956   -6.8611 H   0  0  0  0  0  0  0  0  0  0  0  0
  1 16  1  0  0  0  0
  1 15  1  0  0  0  0
  2  4  1  0  0  0  0
  2 19  1  0  0  0  0
  3 21  1  0  0  0  0
  3  1  1  0  0  0  0
  4 23  1  0  0  0  0
  4  6  1  0  0  0  0
  5 26  1  0  0  0  0
  5  3  1  0  0  0  0
  6  8  1  0  0  0  0
  6 28  1  0  0  0  0
  7 29  1  0  0  0  0
  7  5  1  0  0  0  0
  8 10  1  0  0  0  0
  8 32  1  0  0  0  0
  9 33  1  0  0  0  0
  9  7  1  0  0  0  0
 10 12  1  0  0  0  0
 10 35  1  0  0  0  0
 11 38  1  0  0  0  0
 11  9  1  0  0  0  0
 12 13  2  0  0  0  0
 13 11  1  0  0  0  0
 14 12  1  0  0  0  0
 17  1  1  0  0  0  0
 18  2  1  0  0  0  0
 20  2  1  0  0  0  0
 22  3  1  0  0  0  0
 24  4  1  0  0  0  0
 25  5  1  0  0  0  0
 27  6  1  0  0  0  0
 30  7  1  0  0  0  0
 31  8  1  0  0  0  0
 34  9  1  0  0  0  0
 36 10  1  0  0  0  0
 37 11  1  0  0  0  0
 39 14  1  0  0  0  0
M  END
>  <HBA>
2

>  <HBD>
1

>  <TPSA>
29.1

>  <cid>
25113

>  <dipole>
3.66

>  <excitation_energy_1>
5.576

>  <excitation_energy_2>
5.821

>  <excitation_energy_3>
5.877

>  <excitation_energy_4>
6.196

>  <homo_energy>
-6.4

>  <homo_lumo_gap>
7.244

>  <logP>
3.654

>  <lumo_energy>
0.844

>  <melting_point>
18.02

>  <molecular_refractivity>
62.8

>  <oscillator_strength_1>
0.0006

>  <oscillator_strength_2>
0.0116

>  <oscillator_strength_3>
0.0059

>  <oscillator_strength_4>
0.0133

>  <open_babel_can_smiles>
CCCCCC/N=C(\CCCCC)/O

>  <mulliken_charges>
39
1   -0.441595
2   -0.44182
3   -0.246244
4   -0.253421
5   -0.247965
6   -0.248187
7   -0.260628
8   -0.259917
9   -0.247303
10   -0.370799
11   -0.148972
12   0.487308
13   -0.414582
14   -0.587007
15   0.140575
16   0.142229
17   0.140255
18   0.145216
19   0.144518
20   0.144791
21   0.129912
22   0.128091
23   0.134736
24   0.129331
25   0.129777
26   0.130057
27   0.136241
28   0.13227
29   0.129908
30   0.122041
31   0.129912
32   0.152306
33   0.146061
34   0.129213
35   0.162051
36   0.147501
37   0.10676
38   0.146537
39   0.400843

>  <lowdin_charges>
39
1   -0.444874
2   -0.444594
3   -0.27166
4   -0.27629
5   -0.276994
6   -0.276775
7   -0.276702
8   -0.274937
9   -0.277396
10   -0.315619
11   -0.198719
12   0.123489
13   -0.201748
14   -0.375866
15   0.148955
16   0.146128
17   0.146171
18   0.151416
19   0.149242
20   0.147673
21   0.139074
22   0.136811
23   0.138327
24   0.139079
25   0.137928
26   0.138222
27   0.144991
28   0.141497
29   0.14266
30   0.133818
31   0.139262
32   0.153471
33   0.147944
34   0.142549
35   0.16136
36   0.151134
37   0.115371
38   0.145757
39   0.349842

$$$$

