PCCDB-ID:  21057
public computational chemistry database (PCCDB) project, http://pccdb.org

 22 21  0  0  1  0  0  0  0  0999 V2000
    0.6751   -0.1782    1.4490 C   0  0  0  0  0  0  0  0  0  0  0  0
    7.6746   -2.5491    1.8984 C   0  0  0  0  0  0  0  0  0  0  0  0
    2.1389   -0.1642    0.9971 C   0  0  0  0  0  0  0  0  0  0  0  0
    6.9376   -1.4517    2.0747 C   0  0  0  0  0  0  0  0  0  0  0  0
    3.0871   -0.8207    2.0085 C   0  0  0  0  0  0  0  0  0  0  0  0
    4.5520   -0.8094    1.5536 C   0  0  0  0  0  0  0  0  0  0  0  0
    5.5124   -1.4463    2.5633 C   0  0  2  0  0  0  0  0  0  0  0  0
    5.4089   -0.6798    3.7722 O   0  0  0  0  0  0  0  0  0  0  0  0
    0.0224    0.3003    0.7097 H   0  0  0  0  0  0  0  0  0  0  0  0
    0.5496    0.3546    2.3996 H   0  0  0  0  0  0  0  0  0  0  0  0
    0.3153   -1.2042    1.5962 H   0  0  0  0  0  0  0  0  0  0  0  0
    8.7022   -2.5035    1.5476 H   0  0  0  0  0  0  0  0  0  0  0  0
    7.2732   -3.5423    2.0932 H   0  0  0  0  0  0  0  0  0  0  0  0
    2.4578    0.8735    0.8235 H   0  0  0  0  0  0  0  0  0  0  0  0
    2.2279   -0.6750    0.0274 H   0  0  0  0  0  0  0  0  0  0  0  0
    7.3620   -0.4661    1.8780 H   0  0  0  0  0  0  0  0  0  0  0  0
    2.7690   -1.8601    2.1814 H   0  0  0  0  0  0  0  0  0  0  0  0
    3.0098   -0.3100    2.9756 H   0  0  0  0  0  0  0  0  0  0  0  0
    4.8779    0.2248    1.3750 H   0  0  0  0  0  0  0  0  0  0  0  0
    4.6551   -1.3445    0.6001 H   0  0  0  0  0  0  0  0  0  0  0  0
    5.1941   -2.4869    2.7478 H   0  0  0  0  0  0  0  0  0  0  0  0
    6.0393   -1.0588    4.4048 H   0  0  0  0  0  0  0  0  0  0  0  0
  1 11  1  0  0  0  0
  1 10  1  0  0  0  0
  2  4  2  0  0  0  0
  2 13  1  0  0  0  0
  3  1  1  0  0  0  0
  3  5  1  0  0  0  0
  4  7  1  0  0  0  0
  5 17  1  0  0  0  0
  5 18  1  0  0  0  0
  6  5  1  0  0  0  0
  6  7  1  0  0  0  0
  7 21  1  1  0  0  0
  7  8  1  0  0  0  0
  8 22  1  0  0  0  0
  9  1  1  0  0  0  0
 12  2  1  0  0  0  0
 14  3  1  0  0  0  0
 15  3  1  0  0  0  0
 16  4  1  0  0  0  0
 19  6  1  0  0  0  0
 20  6  1  0  0  0  0
M  END
>  <HBA>
1

>  <HBD>
1

>  <TPSA>
20.23

>  <cid>
21057

>  <dipole>
1.34

>  <excitation_energy_1>
6.247

>  <excitation_energy_2>
6.547

>  <excitation_energy_3>
6.93

>  <excitation_energy_4>
6.992

>  <homo_energy>
-6.969

>  <homo_lumo_gap>
7.246

>  <logP>
1.724

>  <lumo_energy>
0.278

>  <melting_point>
-29.21

>  <molecular_refractivity>
36.45

>  <oscillator_strength_1>
0.0402

>  <oscillator_strength_2>
0.0389

>  <oscillator_strength_3>
0.0884

>  <oscillator_strength_4>
0.1912

>  <open_babel_can_smiles>
CCCC[C@@H](C=C)O

>  <mulliken_charges>
22
1   -0.440836
2   -0.347818
3   -0.247987
4   -0.069194
5   -0.250753
6   -0.264818
7   0.101003
8   -0.627922
9   0.139994
10   0.143067
11   0.139884
12   0.144597
13   0.139798
14   0.130942
15   0.126887
16   0.133595
17   0.121162
18   0.15691
19   0.137282
20   0.134721
21   0.110588
22   0.3889

>  <lowdin_charges>
22
1   -0.444572
2   -0.335219
3   -0.270077
4   -0.164621
5   -0.274329
6   -0.278344
7   0.0037
8   -0.46808
9   0.149558
10   0.147051
11   0.144679
12   0.159678
13   0.154693
14   0.138022
15   0.136264
16   0.155188
17   0.134472
18   0.152266
19   0.144927
20   0.14629
21   0.123968
22   0.344486

$$$$

