PCCDB-ID:  702
public computational chemistry database (PCCDB) project, http://pccdb.org

  9  8  0  0  0  0  0  0  0  0999 V2000
    0.9551   -0.0121   -0.0987 C   0  0  0  0  0  0  0  0  0  0  0  0
    2.4812   -0.0089   -0.1238 C   0  0  0  0  0  0  0  0  0  0  0  0
    3.0237    1.2234   -0.5873 O   0  0  0  0  0  0  0  0  0  0  0  0
    0.5699   -0.9547    0.3086 H   0  0  0  0  0  0  0  0  0  0  0  0
    0.5447    0.1040   -1.1106 H   0  0  0  0  0  0  0  0  0  0  0  0
    0.5804    0.8131    0.5158 H   0  0  0  0  0  0  0  0  0  0  0  0
    2.8527   -0.8557   -0.7244 H   0  0  0  0  0  0  0  0  0  0  0  0
    2.8777   -0.1353    0.8890 H   0  0  0  0  0  0  0  0  0  0  0  0
    2.7159    1.3508   -1.4982 H   0  0  0  0  0  0  0  0  0  0  0  0
  1  4  1  0  0  0  0
  1  6  1  0  0  0  0
  2  1  1  0  0  0  0
  2  8  1  0  0  0  0
  3  2  1  0  0  0  0
  5  1  1  0  0  0  0
  7  2  1  0  0  0  0
  9  3  1  0  0  0  0
M  END
>  <HBA>
1

>  <HBD>
1

>  <TPSA>
20.23

>  <cid>
702

>  <dipole>
1.67

>  <excitation_energy_1>
6.565

>  <excitation_energy_2>
7.466

>  <excitation_energy_3>
7.63

>  <excitation_energy_4>
7.94

>  <homo_energy>
-7.157

>  <homo_lumo_gap>
9.219

>  <logP>
-0.001

>  <lumo_energy>
2.063

>  <melting_point>
-5.29

>  <molecular_refractivity>
12.89

>  <oscillator_strength_1>
0.0108

>  <oscillator_strength_2>
0.0254

>  <oscillator_strength_3>
0.0323

>  <oscillator_strength_4>
0.0435

>  <open_babel_can_smiles>
CCO

>  <mulliken_charges>
9
1   -0.457258
2   -0.025619
3   -0.60971
4   0.143375
5   0.135407
6   0.16023
7   0.120024
8   0.149021
9   0.384531

>  <lowdin_charges>
9
1   -0.463855
2   -0.130845
3   -0.469378
4   0.154036
5   0.143097
6   0.157617
7   0.125148
8   0.146173
9   0.338008

$$$$

