PCCDB-ID:  33736
public computational chemistry database (PCCDB) project, http://pccdb.org

 33 33  0  0  0  0  0  0  0  0999 V2000
   -0.9958    1.2620   -0.6911 C   0  0  0  0  0  0  0  0  0  0  0  0
    2.5694    4.2773   -2.8474 C   0  0  0  0  0  0  0  0  0  0  0  0
    3.1104   -0.3356   -4.7494 C   0  0  0  0  0  0  0  0  0  0  0  0
    5.2091    0.3953   -3.5698 C   0  0  0  0  0  0  0  0  0  0  0  0
    1.1065    1.6069   -2.1045 C   0  0  0  0  0  0  0  0  0  0  0  0
    2.3539    1.2773   -2.4899 C   0  0  0  0  0  0  0  0  0  0  0  0
    5.1013    2.9009   -5.4979 C   0  0  0  0  0  0  0  0  0  0  0  0
    4.4375    1.5427   -5.7035 C   0  0  0  0  0  0  0  0  0  0  0  0
    0.4144    0.8234   -1.0407 C   0  0  0  0  0  0  0  0  0  0  0  0
    3.2916    3.2492   -3.6838 C   0  0  0  0  0  0  0  0  0  0  0  0
    3.1838    1.8959   -3.5323 C   0  0  0  0  0  0  0  0  0  0  0  0
    4.2181    3.8400   -4.6992 C   0  0  0  0  0  0  0  0  0  0  0  0
    3.9846    0.8858   -4.3824 C   0  0  0  0  0  0  0  0  0  0  0  0
    0.9514   -0.1207   -0.4795 O   0  0  0  0  0  0  0  0  0  0  0  0
    4.2871    5.0524   -4.8527 O   0  0  0  0  0  0  0  0  0  0  0  0
   -0.9989    2.3053   -0.3498 H   0  0  0  0  0  0  0  0  0  0  0  0
   -1.4012    0.6196    0.0926 H   0  0  0  0  0  0  0  0  0  0  0  0
   -1.6424    1.2151   -1.5769 H   0  0  0  0  0  0  0  0  0  0  0  0
    2.3144    3.8967   -1.8560 H   0  0  0  0  0  0  0  0  0  0  0  0
    1.6391    4.6015   -3.3325 H   0  0  0  0  0  0  0  0  0  0  0  0
    3.1908    5.1707   -2.7531 H   0  0  0  0  0  0  0  0  0  0  0  0
    3.6709   -0.9997   -5.4180 H   0  0  0  0  0  0  0  0  0  0  0  0
    2.1967   -0.0267   -5.2695 H   0  0  0  0  0  0  0  0  0  0  0  0
    2.8167   -0.9219   -3.8733 H   0  0  0  0  0  0  0  0  0  0  0  0
    5.7757   -0.3415   -4.1519 H   0  0  0  0  0  0  0  0  0  0  0  0
    4.9031   -0.0881   -2.6358 H   0  0  0  0  0  0  0  0  0  0  0  0
    5.8836    1.2168   -3.3084 H   0  0  0  0  0  0  0  0  0  0  0  0
    0.5613    2.4242   -2.5680 H   0  0  0  0  0  0  0  0  0  0  0  0
    2.7729    0.4018   -1.9926 H   0  0  0  0  0  0  0  0  0  0  0  0
    5.3484    3.3896   -6.4453 H   0  0  0  0  0  0  0  0  0  0  0  0
    6.0474    2.7917   -4.9479 H   0  0  0  0  0  0  0  0  0  0  0  0
    5.1144    0.8595   -6.2317 H   0  0  0  0  0  0  0  0  0  0  0  0
    3.5581    1.6712   -6.3492 H   0  0  0  0  0  0  0  0  0  0  0  0
  1 16  1  0  0  0  0
  1 17  1  0  0  0  0
  2 21  1  0  0  0  0
  2 19  1  0  0  0  0
  3 13  1  0  0  0  0
  3 24  1  0  0  0  0
  4 27  1  0  0  0  0
  4 26  1  0  0  0  0
  5  9  1  0  0  0  0
  6  5  2  0  0  0  0
  6 29  1  0  0  0  0
  7 31  1  0  0  0  0
  7 12  1  0  0  0  0
  8  7  1  0  0  0  0
  8 13  1  0  0  0  0
  9  1  1  0  0  0  0
  9 14  2  0  0  0  0
 10 11  2  0  0  0  0
 10  2  1  0  0  0  0
 11  6  1  0  0  0  0
 12 10  1  0  0  0  0
 13  4  1  0  0  0  0
 13 11  1  0  0  0  0
 15 12  2  0  0  0  0
 18  1  1  0  0  0  0
 20  2  1  0  0  0  0
 22  3  1  0  0  0  0
 23  3  1  0  0  0  0
 25  4  1  0  0  0  0
 28  5  1  0  0  0  0
 30  7  1  0  0  0  0
 32  8  1  0  0  0  0
 33  8  1  0  0  0  0
M  END
>  <HBA>
2

>  <HBD>
0

>  <TPSA>
34.14

>  <cid>
33736

>  <dipole>
1.83

>  <excitation_energy_1>
3.22

>  <excitation_energy_2>
3.366

>  <excitation_energy_3>
4.101

>  <excitation_energy_4>
4.806

>  <homo_energy>
-6.572

>  <homo_lumo_gap>
4.313

>  <logP>
2.837

>  <lumo_energy>
-2.259

>  <melting_point>
79.25

>  <molecular_refractivity>
61.68

>  <oscillator_strength_1>
0.0013

>  <oscillator_strength_2>
0.0049

>  <oscillator_strength_3>
0.407

>  <oscillator_strength_4>
0.0009

>  <open_babel_can_smiles>
CC(=O)/C=C/C1=C(C)C(=O)CCC1(C)C

>  <mulliken_charges>
33
1   -0.538778
2   -0.522613
3   -0.455512
4   -0.454612
5   -0.184192
6   -0.156923
7   -0.362903
8   -0.281162
9   0.4362
10   0.044834
11   0.08694
12   0.41754
13   0.019324
14   -0.457581
15   -0.469165
16   0.171365
17   0.181057
18   0.170276
19   0.157347
20   0.162683
21   0.183012
22   0.147098
23   0.14993
24   0.156408
25   0.149735
26   0.157413
27   0.152347
28   0.142946
29   0.177931
30   0.168213
31   0.168279
32   0.138297
33   0.144266

>  <lowdin_charges>
33
1   -0.473884
2   -0.447934
3   -0.44499
4   -0.444204
5   -0.207525
6   -0.100513
7   -0.304082
8   -0.274714
9   0.158485
10   -0.041966
11   0.005237
12   0.145342
13   0.009588
14   -0.248191
15   -0.244857
16   0.169604
17   0.174855
18   0.170513
19   0.160533
20   0.162585
21   0.174641
22   0.154226
23   0.153333
24   0.157008
25   0.154624
26   0.155381
27   0.153505
28   0.163929
29   0.177437
30   0.168443
31   0.165582
32   0.150107
33   0.147901

$$$$

