PCCDB-ID:  10349
public computational chemistry database (PCCDB) project, http://pccdb.org

 17 16  0  0  1  0  0  0  0  0999 V2000
    1.0880    0.1577    0.0599 C   0  0  0  0  0  0  0  0  0  0  0  0
    2.9141   -0.9202    1.4518 C   0  0  0  0  0  0  0  0  0  0  0  0
    2.5726   -0.2723    0.0924 C   0  0  1  0  0  0  0  0  0  0  0  0
    4.4135   -1.0375    1.7517 C   0  0  0  0  0  0  0  0  0  0  0  0
    2.8761   -1.2119   -1.0777 C   0  0  0  0  0  0  0  0  0  0  0  0
    4.9685   -0.3254    2.5552 O   0  0  0  0  0  0  0  0  0  0  0  0
    5.0862   -1.9819    1.0683 O   0  0  0  0  0  0  0  0  0  0  0  0
    3.2702   -2.3546   -0.9598 O   0  0  0  0  0  0  0  0  0  0  0  0
    2.6627   -0.7214   -2.3155 O   0  0  0  0  0  0  0  0  0  0  0  0
    0.8869    0.8558    0.8776 H   0  0  0  0  0  0  0  0  0  0  0  0
    0.4296   -0.7093    0.1809 H   0  0  0  0  0  0  0  0  0  0  0  0
    0.8102    0.6596   -0.8742 H   0  0  0  0  0  0  0  0  0  0  0  0
    2.4414   -1.9082    1.5030 H   0  0  0  0  0  0  0  0  0  0  0  0
    2.4969   -0.2991    2.2471 H   0  0  0  0  0  0  0  0  0  0  0  0
    3.1946    0.6258   -0.0397 H   0  0  0  0  0  0  0  0  0  0  0  0
    4.4869   -2.4092    0.4175 H   0  0  0  0  0  0  0  0  0  0  0  0
    2.3580    0.2003   -2.2708 H   0  0  0  0  0  0  0  0  0  0  0  0
  1  3  1  0  0  0  0
  1 11  1  0  0  0  0
  1 10  1  0  0  0  0
  2 13  1  0  0  0  0
  2  4  1  0  0  0  0
  2 14  1  0  0  0  0
  3 15  1  6  0  0  0
  3  2  1  0  0  0  0
  4  6  2  0  0  0  0
  5  8  2  0  0  0  0
  5  3  1  0  0  0  0
  7  4  1  0  0  0  0
  9 17  1  0  0  0  0
  9  5  1  0  0  0  0
 12  1  1  0  0  0  0
 16  7  1  0  0  0  0
M  END
>  <HBA>
4

>  <HBD>
2

>  <TPSA>
74.6

>  <cid>
10349

>  <dipole>
6.06

>  <excitation_energy_1>
5.539

>  <excitation_energy_2>
5.594

>  <excitation_energy_3>
5.715

>  <excitation_energy_4>
6.2

>  <homo_energy>
-7.116

>  <homo_lumo_gap>
6.348

>  <logP>
0.182

>  <lumo_energy>
-0.767

>  <melting_point>
128.42

>  <molecular_refractivity>
29.69

>  <oscillator_strength_1>
0.0005

>  <oscillator_strength_2>
0.0025

>  <oscillator_strength_3>
0.0033

>  <oscillator_strength_4>
0.007

>  <open_babel_can_smiles>
OC(=O)C[C@@H](C(=O)O)C

>  <mulliken_charges>
17
1   -0.460046
2   -0.373419
3   -0.22779
4   0.576384
5   0.6335
6   -0.447718
7   -0.581946
8   -0.469371
9   -0.550472
10   0.180082
11   0.177868
12   0.142538
13   0.175472
14   0.17837
15   0.18117
16   0.443713
17   0.421664

>  <lowdin_charges>
17
1   -0.441763
2   -0.314471
3   -0.164799
4   0.185844
5   0.205705
6   -0.253504
7   -0.361795
8   -0.254038
9   -0.326077
10   0.169816
11   0.166258
12   0.148335
13   0.168566
14   0.176794
15   0.168433
16   0.362684
17   0.364011

$$$$

