PCCDB-ID:  25701
public computational chemistry database (PCCDB) project, http://pccdb.org

 17 16  0  0  1  0  0  0  0  0999 V2000
    0.0072   -1.6227   -0.5393 C   0  0  0  0  0  0  0  0  0  0  0  0
    0.3976   -0.6300   -1.6715 C   0  0  1  0  0  0  0  0  0  0  0  0
   -0.0493   -1.1709   -3.0577 C   0  0  0  0  0  0  0  0  0  0  0  0
   -0.1855    0.6708   -1.3703 N   0  0  0  0  0  0  0  0  0  0  0  0
   -0.8960   -0.6016   -3.7067 O   0  0  0  0  0  0  0  0  0  0  0  0
    0.5309   -2.2962   -3.4945 O   0  0  0  0  0  0  0  0  0  0  0  0
    2.4403   -1.7416    0.5530 O   0  0  0  0  0  0  0  0  0  0  0  0
    0.8745   -3.6519    0.9912 O   0  0  0  0  0  0  0  0  0  0  0  0
    1.9229   -3.3009   -1.3058 O   0  0  0  0  0  0  0  0  0  0  0  0
    1.3254   -2.7666   -0.0766 S   0  0  0  0  0  0  0  0  0  0  0  0
   -0.8440   -2.2628   -0.7953 H   0  0  0  0  0  0  0  0  0  0  0  0
   -0.2370   -1.0543    0.3604 H   0  0  0  0  0  0  0  0  0  0  0  0
    1.4883   -0.5211   -1.6783 H   0  0  0  0  0  0  0  0  0  0  0  0
   -1.1207    0.6918   -1.7808 H   0  0  0  0  0  0  0  0  0  0  0  0
    0.3310    1.3870   -1.8782 H   0  0  0  0  0  0  0  0  0  0  0  0
    1.1604   -2.6664   -2.8354 H   0  0  0  0  0  0  0  0  0  0  0  0
    2.4841   -1.9132    1.5133 H   0  0  0  0  0  0  0  0  0  0  0  0
  1 10  1  0  0  0  0
  1 12  1  0  0  0  0
  2 13  1  6  0  0  0
  2  4  1  0  0  0  0
  2  1  1  0  0  0  0
  3  2  1  0  0  0  0
  5  3  2  0  0  0  0
  6  3  1  0  0  0  0
  6 16  1  0  0  0  0
  7 17  1  0  0  0  0
  9 10  1  0  0  0  0
 10  7  1  0  0  0  0
 10  8  1  0  0  0  0
 11  1  1  0  0  0  0
 14  4  1  0  0  0  0
 15  4  1  0  0  0  0
M  RAD  2   8   2   9   2
M  END
>  <HBA>
6

>  <HBD>
3

>  <TPSA>
126.07

>  <cid>
25701

>  <dipole>
4.22

>  <excitation_energy_1>
5.675

>  <excitation_energy_2>
5.91

>  <excitation_energy_3>
6.241

>  <excitation_energy_4>
6.57

>  <homo_energy>
-7.314

>  <homo_lumo_gap>
7.181

>  <logP>
0.067

>  <lumo_energy>
-0.133

>  <melting_point>
187.82

>  <molecular_refractivity>
31.55

>  <oscillator_strength_1>
0.0045

>  <oscillator_strength_2>
0.008

>  <oscillator_strength_3>
0.0009

>  <oscillator_strength_4>
0.0102

>  <open_babel_can_smiles>
OC(=O)[C@H](CS([O])(O)[O])N

>  <mulliken_charges>
17
1   -0.48798
2   -0.125517
3   0.576448
4   -0.70175
5   -0.446482
6   -0.580789
7   -0.638792
8   -0.496651
9   -0.540712
10   1.225157
11   0.229398
12   0.238788
13   0.198392
14   0.323192
15   0.318114
16   0.458986
17   0.450198

>  <lowdin_charges>
17
1   -0.429041
2   -0.113506
3   0.171388
4   -0.532836
5   -0.250353
6   -0.349934
7   -0.573056
8   -0.561001
9   -0.577937
10   1.343444
11   0.199333
12   0.207589
13   0.17193
14   0.268979
15   0.270722
16   0.366952
17   0.387325

$$$$

