PCCDB-ID:  49719
public computational chemistry database (PCCDB) project, http://pccdb.org

 27 28  0  0  0  0  0  0  0  0999 V2000
    1.4113    0.2053    1.0590 C   0  0  0  0  0  0  0  0  0  0  0  0
    2.3201   -0.1592   -0.1166 C   0  0  0  0  0  0  0  0  0  0  0  0
    3.3740   -6.5793   -0.3311 C   0  0  0  0  0  0  0  0  0  0  0  0
    2.0201   -6.3457   -0.0766 C   0  0  0  0  0  0  0  0  0  0  0  0
    4.2346   -5.5009   -0.5204 C   0  0  0  0  0  0  0  0  0  0  0  0
    1.5471   -5.0373   -0.0146 C   0  0  0  0  0  0  0  0  0  0  0  0
    4.7056   -3.0101   -0.6525 C   0  0  0  0  0  0  0  0  0  0  0  0
    3.9459   -1.7299   -1.0009 C   0  0  0  0  0  0  0  0  0  0  0  0
    1.8467   -2.5391   -0.1633 C   0  0  0  0  0  0  0  0  0  0  0  0
    3.7668   -4.1814   -0.4596 C   0  0  0  0  0  0  0  0  0  0  0  0
    2.4081   -3.9485   -0.2032 C   0  0  0  0  0  0  0  0  0  0  0  0
    2.8762   -1.5097   -0.0281 N   0  0  0  0  0  0  0  0  0  0  0  0
    1.1390    1.2653    1.0060 H   0  0  0  0  0  0  0  0  0  0  0  0
    1.9268    0.0266    2.0086 H   0  0  0  0  0  0  0  0  0  0  0  0
    0.4796   -0.3700    1.0619 H   0  0  0  0  0  0  0  0  0  0  0  0
    3.1675    0.5367   -0.1326 H   0  0  0  0  0  0  0  0  0  0  0  0
    1.7707   -0.0089   -1.0696 H   0  0  0  0  0  0  0  0  0  0  0  0
    3.7549   -7.5959   -0.3836 H   0  0  0  0  0  0  0  0  0  0  0  0
    1.3383   -7.1784    0.0744 H   0  0  0  0  0  0  0  0  0  0  0  0
    5.2892   -5.6790   -0.7215 H   0  0  0  0  0  0  0  0  0  0  0  0
    0.4929   -4.8532    0.1845 H   0  0  0  0  0  0  0  0  0  0  0  0
    5.2739   -2.8385    0.2722 H   0  0  0  0  0  0  0  0  0  0  0  0
    5.4384   -3.2355   -1.4380 H   0  0  0  0  0  0  0  0  0  0  0  0
    3.5534   -1.7928   -2.0369 H   0  0  0  0  0  0  0  0  0  0  0  0
    4.6281   -0.8733   -0.9684 H   0  0  0  0  0  0  0  0  0  0  0  0
    1.1518   -2.4593    0.6798 H   0  0  0  0  0  0  0  0  0  0  0  0
    1.2407   -2.3713   -1.0816 H   0  0  0  0  0  0  0  0  0  0  0  0
  1 15  1  0  0  0  0
  1 14  1  0  0  0  0
  2 12  1  0  0  0  0
  2  1  1  0  0  0  0
  3  4  2  0  0  0  0
  4  6  1  0  0  0  0
  4 19  1  0  0  0  0
  5 10  2  0  0  0  0
  5  3  1  0  0  0  0
  6 21  1  0  0  0  0
  7 10  1  0  0  0  0
  7 22  1  0  0  0  0
  8 25  1  0  0  0  0
  8  7  1  0  0  0  0
  8 12  1  0  0  0  0
  9 12  1  0  0  0  0
  9 26  1  0  0  0  0
 10 11  1  0  0  0  0
 11  9  1  0  0  0  0
 11  6  2  0  0  0  0
 13  1  1  0  0  0  0
 16  2  1  0  0  0  0
 17  2  1  0  0  0  0
 18  3  1  0  0  0  0
 20  5  1  0  0  0  0
 23  7  1  0  0  0  0
 24  8  1  0  0  0  0
 27  9  1  0  0  0  0
M  END
>  <HBA>
1

>  <HBD>
0

>  <TPSA>
3.24

>  <cid>
49719

>  <dipole>
0.73

>  <excitation_energy_1>
4.915

>  <excitation_energy_2>
5.033

>  <excitation_energy_3>
5.244

>  <excitation_energy_4>
5.484

>  <homo_energy>
-5.725

>  <homo_lumo_gap>
5.818

>  <logP>
2.002

>  <lumo_energy>
0.093

>  <melting_point>
35.21

>  <molecular_refractivity>
55.49

>  <oscillator_strength_1>
0.0025

>  <oscillator_strength_2>
0.0091

>  <oscillator_strength_3>
0.0305

>  <oscillator_strength_4>
0.0119

>  <open_babel_can_smiles>
CCN1CCc2c(C1)cccc2

>  <mulliken_charges>
27
1   -0.45516
2   -0.096797
3   -0.128264
4   -0.132885
5   -0.191772
6   -0.181179
7   -0.333663
8   -0.132995
9   -0.183578
10   0.128263
11   0.098959
12   -0.399727
13   0.143567
14   0.157886
15   0.148806
16   0.135793
17   0.107618
18   0.124767
19   0.125042
20   0.119505
21   0.118598
22   0.16046
23   0.139757
24   0.11462
25   0.135619
26   0.15479
27   0.121969

>  <lowdin_charges>
27
1   -0.449328
2   -0.195674
3   -0.159302
4   -0.161774
5   -0.162084
6   -0.161683
7   -0.278435
8   -0.196843
9   -0.200157
10   -0.011715
11   -0.016468
12   -0.188261
13   0.152045
14   0.155852
15   0.148642
16   0.144163
17   0.114677
18   0.154994
19   0.156764
20   0.151628
21   0.151334
22   0.158323
23   0.151493
24   0.116212
25   0.146353
26   0.155161
27   0.124083

$$$$

