PCCDB-ID:  43466
public computational chemistry database (PCCDB) project, http://pccdb.org

 31 30  0  0  1  0  0  0  0  0999 V2000
    2.0053   -0.8515   -1.9297 C   0  0  0  0  0  0  0  0  0  0  0  0
    0.5377   -0.5466    0.1142 C   0  0  0  0  0  0  0  0  0  0  0  0
    3.2021   -5.0237    0.7395 C   0  0  0  0  0  0  0  0  0  0  0  0
    3.9801   -5.8090   -0.3284 C   0  0  0  0  0  0  0  0  0  0  0  0
    1.9657   -0.7222   -0.4064 C   0  0  0  0  0  0  0  0  0  0  0  0
    4.0293   -3.9858    1.5298 C   0  0  2  0  0  0  0  0  0  0  0  0
    4.6898   -7.0513    0.1960 C   0  0  0  0  0  0  0  0  0  0  0  0
    4.5780   -2.9241    0.5589 C   0  0  0  0  0  0  0  0  0  0  0  0
    5.1693   -4.5921    2.2384 N   0  0  0  0  0  0  0  0  0  0  0  0
    2.5329   -1.9390    0.2067 N   0  0  0  0  0  0  0  0  0  0  0  0
    3.9254   -2.0062   -0.0419 N   0  0  0  0  0  0  0  0  0  0  0  0
    4.7371   -7.3920    1.3564 O   0  0  0  0  0  0  0  0  0  0  0  0
    5.2954   -7.8152   -0.7460 O   0  0  0  0  0  0  0  0  0  0  0  0
    5.8980   -3.0606    0.2949 O   0  0  0  0  0  0  0  0  0  0  0  0
    1.6433    0.0680   -2.4036 H   0  0  0  0  0  0  0  0  0  0  0  0
    1.3741   -1.6862   -2.2579 H   0  0  0  0  0  0  0  0  0  0  0  0
    3.0290   -1.0384   -2.2640 H   0  0  0  0  0  0  0  0  0  0  0  0
    0.0784    0.3449   -0.3250 H   0  0  0  0  0  0  0  0  0  0  0  0
    0.5151   -0.4283    1.2057 H   0  0  0  0  0  0  0  0  0  0  0  0
   -0.0766   -1.4157   -0.1482 H   0  0  0  0  0  0  0  0  0  0  0  0
    2.7484   -5.7300    1.4435 H   0  0  0  0  0  0  0  0  0  0  0  0
    2.3968   -4.4675    0.2506 H   0  0  0  0  0  0  0  0  0  0  0  0
    4.7206   -5.1685   -0.8272 H   0  0  0  0  0  0  0  0  0  0  0  0
    3.2886   -6.1398   -1.1162 H   0  0  0  0  0  0  0  0  0  0  0  0
    2.5643    0.1580   -0.1178 H   0  0  0  0  0  0  0  0  0  0  0  0
    3.3367   -3.5001    2.2321 H   0  0  0  0  0  0  0  0  0  0  0  0
    5.0346   -5.5926    2.3748 H   0  0  0  0  0  0  0  0  0  0  0  0
    5.3273   -4.1502    3.1400 H   0  0  0  0  0  0  0  0  0  0  0  0
    2.3518   -1.9024    1.2137 H   0  0  0  0  0  0  0  0  0  0  0  0
    5.1723   -7.4218   -1.6264 H   0  0  0  0  0  0  0  0  0  0  0  0
    6.1868   -3.7473    0.9514 H   0  0  0  0  0  0  0  0  0  0  0  0
  1  5  1  0  0  0  0
  2 19  1  0  0  0  0
  3 21  1  0  0  0  0
  3  6  1  0  0  0  0
  4  7  1  0  0  0  0
  4  3  1  0  0  0  0
  5 25  1  0  0  0  0
  5  2  1  0  0  0  0
  5 10  1  0  0  0  0
  6 26  1  1  0  0  0
  6  9  1  0  0  0  0
  7 12  2  0  0  0  0
  8  6  1  0  0  0  0
  9 27  1  0  0  0  0
  9 28  1  0  0  0  0
 10 29  1  0  0  0  0
 11 10  1  0  0  0  0
 11  8  2  0  0  0  0
 13  7  1  0  0  0  0
 14  8  1  0  0  0  0
 14 31  1  0  0  0  0
 15  1  1  0  0  0  0
 16  1  1  0  0  0  0
 17  1  1  0  0  0  0
 18  2  1  0  0  0  0
 20  2  1  0  0  0  0
 22  3  1  0  0  0  0
 23  4  1  0  0  0  0
 24  4  1  0  0  0  0
 30 13  1  0  0  0  0
M  END
>  <HBA>
6

>  <HBD>
4

>  <TPSA>
104.45

>  <cid>
43466

>  <dipole>
2.32

>  <excitation_energy_1>
4.429

>  <excitation_energy_2>
4.539

>  <excitation_energy_3>
4.637

>  <excitation_energy_4>
5.132

>  <homo_energy>
-5.279

>  <homo_lumo_gap>
5.184

>  <logP>
0.69

>  <lumo_energy>
-0.095

>  <melting_point>
179.27

>  <molecular_refractivity>
50.85

>  <oscillator_strength_1>
0.0024

>  <oscillator_strength_2>
0.0014

>  <oscillator_strength_3>
0.0048

>  <oscillator_strength_4>
0.0739

>  <open_babel_can_smiles>
N[C@@H](/C(=N\NC(C)C)/O)CCC(=O)O

>  <mulliken_charges>
31
1   -0.436744
2   -0.463793
3   -0.286872
4   -0.420461
5   0.084017
6   -0.045748
7   0.620096
8   0.501091
9   -0.808417
10   -0.46103
11   -0.332818
12   -0.45583
13   -0.558445
14   -0.616249
15   0.13238
16   0.135092
17   0.173955
18   0.150651
19   0.132663
20   0.150639
21   0.162742
22   0.188381
23   0.203791
24   0.172518
25   0.121503
26   0.135155
27   0.362339
28   0.320713
29   0.292179
30   0.41692
31   0.429582

>  <lowdin_charges>
31
1   -0.450486
2   -0.450513
3   -0.282944
4   -0.332001
5   -0.057068
6   -0.094389
7   0.20145
8   0.075857
9   -0.556383
10   -0.284786
11   -0.164244
12   -0.253682
13   -0.343828
14   -0.385252
15   0.146863
16   0.146124
17   0.164706
18   0.157152
19   0.141209
20   0.152325
21   0.160197
22   0.17587
23   0.182994
24   0.170163
25   0.127489
26   0.144523
27   0.282505
28   0.269756
29   0.238683
30   0.363186
31   0.354523

$$$$

