PCCDB-ID:  67164
public computational chemistry database (PCCDB) project, http://pccdb.org

 15 15  0  0  0  0  0  0  0  0999 V2000
    0.7010    1.2465   -0.2644 C   0  0  0  0  0  0  0  0  0  0  0  0
   -1.4203    0.0232   -0.2606 C   0  0  0  0  0  0  0  0  0  0  0  0
    1.5434    0.0993    0.2926 C   0  0  0  0  0  0  0  0  0  0  0  0
   -0.8469   -1.2799    0.2962 C   0  0  0  0  0  0  0  0  0  0  0  0
   -0.6699    1.1743    0.2464 N   0  0  0  0  0  0  0  0  0  0  0  0
    0.8976   -1.5435   -0.2215 S   0  0  0  0  0  0  0  0  0  0  0  0
    0.7516    1.2230   -1.3690 H   0  0  0  0  0  0  0  0  0  0  0  0
    1.1343    2.1980    0.0698 H   0  0  0  0  0  0  0  0  0  0  0  0
   -2.4598    0.1246    0.0771 H   0  0  0  0  0  0  0  0  0  0  0  0
   -1.4294   -0.0335   -1.3651 H   0  0  0  0  0  0  0  0  0  0  0  0
    1.5702    0.1532    1.3860 H   0  0  0  0  0  0  0  0  0  0  0  0
    2.5688    0.1525   -0.0858 H   0  0  0  0  0  0  0  0  0  0  0  0
   -1.4072   -2.1416   -0.0793 H   0  0  0  0  0  0  0  0  0  0  0  0
   -0.9037   -1.2744    1.3898 H   0  0  0  0  0  0  0  0  0  0  0  0
   -1.1635    2.0294    0.0026 H   0  0  0  0  0  0  0  0  0  0  0  0
  1  8  1  0  0  0  0
  1  5  1  0  0  0  0
  1  3  1  0  0  0  0
  2  9  1  0  0  0  0
  2  5  1  0  0  0  0
  2  4  1  0  0  0  0
  3 11  1  0  0  0  0
  4 14  1  0  0  0  0
  6  3  1  0  0  0  0
  6  4  1  0  0  0  0
  7  1  1  0  0  0  0
 10  2  1  0  0  0  0
 12  3  1  0  0  0  0
 13  4  1  0  0  0  0
 15  5  1  0  0  0  0
M  END
>  <HBA>
2

>  <HBD>
1

>  <TPSA>
37.33

>  <cid>
67164

>  <dipole>
2.08

>  <excitation_energy_1>
5.174

>  <excitation_energy_2>
5.282

>  <excitation_energy_3>
5.498

>  <excitation_energy_4>
5.795

>  <homo_energy>
-5.831

>  <homo_lumo_gap>
7.004

>  <logP>
0.652

>  <lumo_energy>
1.173

>  <melting_point>
33.49

>  <molecular_refractivity>
33.54

>  <oscillator_strength_1>
0.0008

>  <oscillator_strength_2>
0.0145

>  <oscillator_strength_3>
0.0105

>  <oscillator_strength_4>
0.0073

>  <open_babel_can_smiles>
C1CNCCS1

>  <mulliken_charges>
15
1   -0.127003
2   -0.127139
3   -0.404731
4   -0.404836
5   -0.545069
6   0.073517
7   0.129581
8   0.141296
9   0.14136
10   0.129596
11   0.176891
12   0.169595
13   0.169629
14   0.176897
15   0.300417

>  <lowdin_charges>
15
1   -0.204269
2   -0.203543
3   -0.37566
4   -0.377834
5   -0.37106
6   0.081536
7   0.123633
8   0.147845
9   0.14657
10   0.12361
11   0.157763
12   0.166859
13   0.168505
14   0.157771
15   0.258274

$$$$

