PCCDB-ID:  20833
public computational chemistry database (PCCDB) project, http://pccdb.org

 27 27  0  0  0  0  0  0  0  0999 V2000
    0.8621    0.1902   -0.1408 C   0  0  0  0  0  0  0  0  0  0  0  0
    2.8558   -0.1747    1.3888 C   0  0  0  0  0  0  0  0  0  0  0  0
    5.0291   -1.8903   -3.9735 C   0  0  0  0  0  0  0  0  0  0  0  0
    2.2828   -5.0144   -1.0865 C   0  0  0  0  0  0  0  0  0  0  0  0
    3.6157   -3.3952   -2.5061 C   0  0  0  0  0  0  0  0  0  0  0  0
    3.6768   -1.0437   -2.0095 C   0  0  0  0  0  0  0  0  0  0  0  0
    2.3681   -2.5255   -0.6419 C   0  0  0  0  0  0  0  0  0  0  0  0
    2.3836   -0.0402   -0.0712 C   0  0  0  0  0  0  0  0  0  0  0  0
    4.0873   -2.1160   -2.8126 C   0  0  0  0  0  0  0  0  0  0  0  0
    2.7580   -3.6185   -1.4211 C   0  0  0  0  0  0  0  0  0  0  0  0
    2.8187   -1.2277   -0.9214 C   0  0  0  0  0  0  0  0  0  0  0  0
    0.5785    1.0808    0.4329 H   0  0  0  0  0  0  0  0  0  0  0  0
    0.3108   -0.6623    0.2735 H   0  0  0  0  0  0  0  0  0  0  0  0
    0.5303    0.3304   -1.1753 H   0  0  0  0  0  0  0  0  0  0  0  0
    2.5834    0.7160    1.9677 H   0  0  0  0  0  0  0  0  0  0  0  0
    3.9430   -0.2979    1.4434 H   0  0  0  0  0  0  0  0  0  0  0  0
    2.3971   -1.0424    1.8778 H   0  0  0  0  0  0  0  0  0  0  0  0
    5.0663   -2.7623   -4.6344 H   0  0  0  0  0  0  0  0  0  0  0  0
    6.0526   -1.6969   -3.6258 H   0  0  0  0  0  0  0  0  0  0  0  0
    4.7263   -1.0249   -4.5747 H   0  0  0  0  0  0  0  0  0  0  0  0
    2.3026   -5.6667   -1.9660 H   0  0  0  0  0  0  0  0  0  0  0  0
    1.2599   -5.0075   -0.6941 H   0  0  0  0  0  0  0  0  0  0  0  0
    2.9192   -5.4798   -0.3217 H   0  0  0  0  0  0  0  0  0  0  0  0
    3.9196   -4.2372   -3.1257 H   0  0  0  0  0  0  0  0  0  0  0  0
    4.0310   -0.0403   -2.2415 H   0  0  0  0  0  0  0  0  0  0  0  0
    1.6951   -2.6921    0.1972 H   0  0  0  0  0  0  0  0  0  0  0  0
    2.8692    0.8514   -0.4912 H   0  0  0  0  0  0  0  0  0  0  0  0
  1  8  1  0  0  0  0
  1 13  1  0  0  0  0
  1 12  1  0  0  0  0
  2 16  1  0  0  0  0
  2 17  1  0  0  0  0
  2 15  1  0  0  0  0
  3 19  1  0  0  0  0
  3  9  1  0  0  0  0
  4 22  1  0  0  0  0
  4 23  1  0  0  0  0
  5 10  1  0  0  0  0
  6 11  2  0  0  0  0
  7 26  1  0  0  0  0
  8  2  1  0  0  0  0
  9  5  2  0  0  0  0
  9  6  1  0  0  0  0
 10  4  1  0  0  0  0
 10  7  2  0  0  0  0
 11  7  1  0  0  0  0
 11  8  1  0  0  0  0
 14  1  1  0  0  0  0
 18  3  1  0  0  0  0
 20  3  1  0  0  0  0
 21  4  1  0  0  0  0
 24  5  1  0  0  0  0
 25  6  1  0  0  0  0
 27  8  1  0  0  0  0
M  END
>  <HBA>
0

>  <HBD>
0

>  <TPSA>
0.0

>  <cid>
20833

>  <dipole>
0.08

>  <excitation_energy_1>
5.121

>  <excitation_energy_2>
5.684

>  <excitation_energy_3>
5.827

>  <excitation_energy_4>
5.886

>  <homo_energy>
-6.169

>  <homo_lumo_gap>
6.378

>  <logP>
3.427

>  <lumo_energy>
0.21

>  <melting_point>
15.5

>  <molecular_refractivity>
50.95

>  <oscillator_strength_1>
0.0007

>  <oscillator_strength_2>
0.0025

>  <oscillator_strength_3>
0.0002

>  <oscillator_strength_4>
0.0046

>  <open_babel_can_smiles>
Cc1cc(cc(c1)C)C(C)C

>  <mulliken_charges>
27
1   -0.437817
2   -0.43825
3   -0.53023
4   -0.52951
5   -0.244469
6   -0.259137
7   -0.247352
8   -0.15926
9   0.193235
10   0.188058
11   0.198825
12   0.139078
13   0.142843
14   0.148647
15   0.139169
16   0.148471
17   0.142896
18   0.15304
19   0.16218
20   0.157199
21   0.153957
22   0.155062
23   0.163156
24   0.1097
25   0.110931
26   0.112767
27   0.12681

>  <lowdin_charges>
27
1   -0.442263
2   -0.44129
3   -0.442304
4   -0.442752
5   -0.18705
6   -0.186474
7   -0.182638
8   -0.118106
9   0.004547
10   0.003951
11   0.003954
12   0.147674
13   0.147959
14   0.151368
15   0.147734
16   0.150321
17   0.147863
18   0.155978
19   0.159216
20   0.158638
21   0.156615
22   0.156065
23   0.161522
24   0.150032
25   0.148404
26   0.149518
27   0.14152

$$$$

