PCCDB-ID:  69171
public computational chemistry database (PCCDB) project, http://pccdb.org

 34 34  0  0  0  0  0  0  0  0999 V2000
    3.2616    3.5816   -3.7732 C   0  0  0  0  0  0  0  0  0  0  0  0
    6.1972   -0.4799   -2.8502 C   0  0  0  0  0  0  0  0  0  0  0  0
    4.5288    2.8106   -3.3888 C   0  0  0  0  0  0  0  0  0  0  0  0
    6.7297   -0.1151   -1.4626 C   0  0  0  0  0  0  0  0  0  0  0  0
    9.6267    3.3317   -0.6756 C   0  0  0  0  0  0  0  0  0  0  0  0
    8.6798    4.9636   -2.1684 C   0  0  0  0  0  0  0  0  0  0  0  0
    8.4425    2.6100   -0.6934 C   0  0  0  0  0  0  0  0  0  0  0  0
    7.4924    4.2564   -2.1979 C   0  0  0  0  0  0  0  0  0  0  0  0
    4.9005    3.0220   -1.9128 C   0  0  0  0  0  0  0  0  0  0  0  0
    6.0106    1.0680   -0.7876 C   0  0  0  0  0  0  0  0  0  0  0  0
   11.0330    5.2694   -1.3760 C   0  0  0  0  0  0  0  0  0  0  0  0
    9.7731    4.5190   -1.4055 C   0  0  0  0  0  0  0  0  0  0  0  0
    7.3298    3.0559   -1.4524 C   0  0  0  0  0  0  0  0  0  0  0  0
    6.1321    2.3612   -1.4679 N   0  0  0  0  0  0  0  0  0  0  0  0
   11.2483    6.3101   -1.9761 O   0  0  0  0  0  0  0  0  0  0  0  0
    3.0036    3.4184   -4.8248 H   0  0  0  0  0  0  0  0  0  0  0  0
    3.3900    4.6611   -3.6262 H   0  0  0  0  0  0  0  0  0  0  0  0
    2.4027    3.2656   -3.1681 H   0  0  0  0  0  0  0  0  0  0  0  0
    6.7208   -1.3562   -3.2480 H   0  0  0  0  0  0  0  0  0  0  0  0
    6.3399    0.3414   -3.5594 H   0  0  0  0  0  0  0  0  0  0  0  0
    5.1265   -0.7192   -2.8193 H   0  0  0  0  0  0  0  0  0  0  0  0
    5.3666    3.1226   -4.0247 H   0  0  0  0  0  0  0  0  0  0  0  0
    4.3838    1.7396   -3.5726 H   0  0  0  0  0  0  0  0  0  0  0  0
    7.8033    0.0919   -1.5308 H   0  0  0  0  0  0  0  0  0  0  0  0
    6.6241   -0.9768   -0.7889 H   0  0  0  0  0  0  0  0  0  0  0  0
   10.4588    2.9694   -0.0743 H   0  0  0  0  0  0  0  0  0  0  0  0
    8.7907    5.8772   -2.7454 H   0  0  0  0  0  0  0  0  0  0  0  0
    8.3768    1.7057   -0.1023 H   0  0  0  0  0  0  0  0  0  0  0  0
    6.6857    4.6202   -2.8227 H   0  0  0  0  0  0  0  0  0  0  0  0
    4.0803    2.6561   -1.2829 H   0  0  0  0  0  0  0  0  0  0  0  0
    4.9822    4.0948   -1.7025 H   0  0  0  0  0  0  0  0  0  0  0  0
    6.3583    1.1600    0.2523 H   0  0  0  0  0  0  0  0  0  0  0  0
    4.9420    0.8382   -0.7311 H   0  0  0  0  0  0  0  0  0  0  0  0
   11.8255    4.8115   -0.7396 H   0  0  0  0  0  0  0  0  0  0  0  0
  1 17  1  0  0  0  0
  1  3  1  0  0  0  0
  1 18  1  0  0  0  0
  2 21  1  0  0  0  0
  2  4  1  0  0  0  0
  3  9  1  0  0  0  0
  4 25  1  0  0  0  0
  4 10  1  0  0  0  0
  5 26  1  0  0  0  0
  6 12  1  0  0  0  0
  7  5  1  0  0  0  0
  7 28  1  0  0  0  0
  8  6  2  0  0  0  0
  8 13  1  0  0  0  0
  9 31  1  0  0  0  0
  9 14  1  0  0  0  0
  9 30  1  0  0  0  0
 10 33  1  0  0  0  0
 10 32  1  0  0  0  0
 11 34  1  0  0  0  0
 12 11  1  0  0  0  0
 12  5  2  0  0  0  0
 13  7  2  0  0  0  0
 14 13  1  0  0  0  0
 14 10  1  0  0  0  0
 15 11  2  0  0  0  0
 16  1  1  0  0  0  0
 19  2  1  0  0  0  0
 20  2  1  0  0  0  0
 22  3  1  0  0  0  0
 23  3  1  0  0  0  0
 24  4  1  0  0  0  0
 27  6  1  0  0  0  0
 29  8  1  0  0  0  0
M  END
>  <HBA>
2

>  <HBD>
0

>  <TPSA>
20.31

>  <cid>
69171

>  <dipole>
6.21

>  <excitation_energy_1>
3.825

>  <excitation_energy_2>
4.068

>  <excitation_energy_3>
4.447

>  <excitation_energy_4>
4.897

>  <homo_energy>
-5.453

>  <homo_lumo_gap>
4.384

>  <logP>
3.126

>  <lumo_energy>
-1.069

>  <melting_point>
44.78

>  <molecular_refractivity>
65.26

>  <oscillator_strength_1>
0.0007

>  <oscillator_strength_2>
0.5208

>  <oscillator_strength_3>
0.0298

>  <oscillator_strength_4>
0.0134

>  <open_babel_can_smiles>
CCCN(c1ccc(cc1)C=O)CCC

>  <mulliken_charges>
34
1   -0.451123
2   -0.447151
3   -0.257978
4   -0.25753
5   -0.194853
6   -0.174245
7   -0.191497
8   -0.185329
9   -0.148272
10   -0.147097
11   0.180399
12   0.103034
13   0.362621
14   -0.483749
15   -0.429316
16   0.153439
17   0.148065
18   0.144965
19   0.149432
20   0.162309
21   0.138338
22   0.15016
23   0.145272
24   0.154153
25   0.136482
26   0.133456
27   0.157364
28   0.132001
29   0.134455
30   0.144032
31   0.155537
32   0.149105
33   0.14548
34   0.088041

>  <lowdin_charges>
34
1   -0.443438
2   -0.447581
3   -0.287071
4   -0.283127
5   -0.13299
6   -0.116254
7   -0.214259
8   -0.20758
9   -0.197132
10   -0.194616
11   0.033914
12   -0.085631
13   0.075778
14   -0.103015
15   -0.252028
16   0.155244
17   0.147566
18   0.14882
19   0.154994
20   0.155814
21   0.14234
22   0.148719
23   0.14589
24   0.149843
25   0.147277
26   0.15983
27   0.173229
28   0.161668
29   0.162801
30   0.148291
31   0.149373
32   0.142494
33   0.149649
34   0.111189

$$$$

