PCCDB-ID:  13898
public computational chemistry database (PCCDB) project, http://pccdb.org

 22 24  0  0  0  0  0  0  0  0999 V2000
    2.9906    1.2011    0.0287 C   0  0  0  0  0  0  0  0  0  0  0  0
   -2.9859    1.2135    0.0330 C   0  0  0  0  0  0  0  0  0  0  0  0
    3.4991   -0.1016   -0.0051 C   0  0  0  0  0  0  0  0  0  0  0  0
   -3.4999   -0.0871    0.0003 C   0  0  0  0  0  0  0  0  0  0  0  0
    1.6145    1.4360   -0.0086 C   0  0  0  0  0  0  0  0  0  0  0  0
   -1.6089    1.4427   -0.0064 C   0  0  0  0  0  0  0  0  0  0  0  0
    2.6311   -1.1943   -0.0952 C   0  0  0  0  0  0  0  0  0  0  0  0
   -2.6366   -1.1833   -0.0911 C   0  0  0  0  0  0  0  0  0  0  0  0
    0.7359    0.3506   -0.0737 C   0  0  0  0  0  0  0  0  0  0  0  0
   -0.7350    0.3537   -0.0730 C   0  0  0  0  0  0  0  0  0  0  0  0
    1.2653   -0.9493   -0.1279 C   0  0  0  0  0  0  0  0  0  0  0  0
   -1.2698   -0.9440   -0.1267 C   0  0  0  0  0  0  0  0  0  0  0  0
   -0.0061   -3.2435    0.7835 O   0  0  0  0  0  0  0  0  0  0  0  0
   -0.0050   -2.2331   -0.3427 S   0  0  0  0  0  0  0  0  0  0  0  0
    3.6745    2.0430    0.0894 H   0  0  0  0  0  0  0  0  0  0  0  0
   -3.6663    2.0583    0.0946 H   0  0  0  0  0  0  0  0  0  0  0  0
    4.5719   -0.2659    0.0380 H   0  0  0  0  0  0  0  0  0  0  0  0
   -4.5733   -0.2468    0.0448 H   0  0  0  0  0  0  0  0  0  0  0  0
    1.2346    2.4535    0.0229 H   0  0  0  0  0  0  0  0  0  0  0  0
   -1.2247    2.4586    0.0246 H   0  0  0  0  0  0  0  0  0  0  0  0
    3.0134   -2.2107   -0.1270 H   0  0  0  0  0  0  0  0  0  0  0  0
   -3.0232   -2.1981   -0.1217 H   0  0  0  0  0  0  0  0  0  0  0  0
  1 15  1  0  0  0  0
  2 16  1  0  0  0  0
  3  1  2  0  0  0  0
  3 17  1  0  0  0  0
  4  2  2  0  0  0  0
  4 18  1  0  0  0  0
  5 19  1  0  0  0  0
  5  1  1  0  0  0  0
  6 20  1  0  0  0  0
  6  2  1  0  0  0  0
  7  3  1  0  0  0  0
  8  4  1  0  0  0  0
  9 10  1  0  0  0  0
  9  5  2  0  0  0  0
 10  6  2  0  0  0  0
 11  7  2  0  0  0  0
 11  9  1  0  0  0  0
 12  8  2  0  0  0  0
 12 10  1  0  0  0  0
 14 11  1  0  0  0  0
 14 12  1  0  0  0  0
 14 13  2  0  0  0  0
 21  7  1  0  0  0  0
 22  8  1  0  0  0  0
M  END
>  <HBA>
1

>  <HBD>
0

>  <TPSA>
38.77

>  <cid>
13898

>  <dipole>
4.38

>  <excitation_energy_1>
3.617

>  <excitation_energy_2>
4.125

>  <excitation_energy_3>
4.17

>  <excitation_energy_4>
4.415

>  <homo_energy>
-6.074

>  <homo_lumo_gap>
4.528

>  <logP>
3.936

>  <lumo_energy>
-1.546

>  <melting_point>
102.55

>  <molecular_refractivity>
60.02

>  <oscillator_strength_1>
0.0118

>  <oscillator_strength_2>
0.0514

>  <oscillator_strength_3>
0.0002

>  <oscillator_strength_4>
0.0182

>  <open_babel_can_smiles>
O=s1c2ccccc2c2c1cccc2

>  <mulliken_charges>
22
1   -0.136273
2   -0.136284
3   -0.114579
4   -0.114541
5   -0.169412
6   -0.16943
7   -0.177552
8   -0.177599
9   0.123256
10   0.123218
11   -0.204518
12   -0.204547
13   -0.593383
14   0.783245
15   0.141043
16   0.141045
17   0.141967
18   0.141961
19   0.139191
20   0.139188
21   0.161998
22   0.162007

>  <lowdin_charges>
22
1   -0.143751
2   -0.14374
3   -0.14744
4   -0.147413
5   -0.154602
6   -0.154638
7   -0.136724
8   -0.136769
9   -0.001891
10   -0.001877
11   -0.168519
12   -0.168549
13   -0.648674
14   0.82903
15   0.164451
16   0.164442
17   0.163087
18   0.163073
19   0.161605
20   0.161631
21   0.173621
22   0.173647

$$$$

