PCCDB-ID:  12170
public computational chemistry database (PCCDB) project, http://pccdb.org

 18 18  0  0  0  0  0  0  0  0999 V2000
    1.0597    0.1059    1.4129 C   0  0  0  0  0  0  0  0  0  0  0  0
    5.7667   -2.3575    4.1547 C   0  0  0  0  0  0  0  0  0  0  0  0
    5.3771   -1.1670    3.4618 C   0  0  0  0  0  0  0  0  0  0  0  0
    5.7012   -3.3641    3.2390 C   0  0  0  0  0  0  0  0  0  0  0  0
    4.6348   -0.7931    0.9792 C   0  0  0  0  0  0  0  0  0  0  0  0
    2.5578    0.2042    1.5801 C   0  0  0  0  0  0  0  0  0  0  0  0
    5.1050   -1.5359    2.1757 C   0  0  0  0  0  0  0  0  0  0  0  0
    3.1361    1.0260    2.2581 O   0  0  0  0  0  0  0  0  0  0  0  0
    5.3001   -2.8868    2.0297 O   0  0  0  0  0  0  0  0  0  0  0  0
    3.1826   -0.7638    0.8672 O   0  0  0  0  0  0  0  0  0  0  0  0
    0.5831    0.9557    1.9028 H   0  0  0  0  0  0  0  0  0  0  0  0
    0.6999   -0.8263    1.8619 H   0  0  0  0  0  0  0  0  0  0  0  0
    0.7931    0.0820    0.3519 H   0  0  0  0  0  0  0  0  0  0  0  0
    6.0576   -2.4490    5.1919 H   0  0  0  0  0  0  0  0  0  0  0  0
    5.2928   -0.1652    3.8580 H   0  0  0  0  0  0  0  0  0  0  0  0
    5.9030   -4.4238    3.2810 H   0  0  0  0  0  0  0  0  0  0  0  0
    4.9648   -1.2895    0.0652 H   0  0  0  0  0  0  0  0  0  0  0  0
    5.0014    0.2342    1.0044 H   0  0  0  0  0  0  0  0  0  0  0  0
  1  6  1  0  0  0  0
  1 12  1  0  0  0  0
  1 11  1  0  0  0  0
  2 14  1  0  0  0  0
  3 15  1  0  0  0  0
  3  2  1  0  0  0  0
  4 16  1  0  0  0  0
  4  2  2  0  0  0  0
  5 18  1  0  0  0  0
  5  7  1  0  0  0  0
  6  8  2  0  0  0  0
  7  3  2  0  0  0  0
  9  7  1  0  0  0  0
  9  4  1  0  0  0  0
 10  5  1  0  0  0  0
 10  6  1  0  0  0  0
 13  1  1  0  0  0  0
 17  5  1  0  0  0  0
M  END
>  <HBA>
3

>  <HBD>
0

>  <TPSA>
39.44

>  <cid>
12170

>  <dipole>
1.16

>  <excitation_energy_1>
5.526

>  <excitation_energy_2>
5.733

>  <excitation_energy_3>
5.864

>  <excitation_energy_4>
5.941

>  <homo_energy>
-6.163

>  <homo_lumo_gap>
6.234

>  <logP>
1.343

>  <lumo_energy>
0.071

>  <melting_point>
17.49

>  <molecular_refractivity>
34.57

>  <oscillator_strength_1>
0.0243

>  <oscillator_strength_2>
0.265

>  <oscillator_strength_3>
0.019

>  <oscillator_strength_4>
0.0019

>  <open_babel_can_smiles>
CC(=O)OCc1ccco1

>  <mulliken_charges>
18
1   -0.523032
2   -0.183765
3   -0.188322
4   0.086262
5   -0.137436
6   0.604977
7   0.318599
8   -0.470911
9   -0.430013
10   -0.444256
11   0.182061
12   0.185958
13   0.180976
14   0.143367
15   0.162954
16   0.155838
17   0.171702
18   0.18504

>  <lowdin_charges>
18
1   -0.464037
2   -0.203622
3   -0.193672
4   -0.075112
5   -0.132874
6   0.203887
7   0.042225
8   -0.269956
9   -0.099505
10   -0.200518
11   0.176418
12   0.180584
13   0.175689
14   0.16897
15   0.179333
16   0.169427
17   0.170395
18   0.172367

$$$$

