PCCDB-ID:  469
public computational chemistry database (PCCDB) project, http://pccdb.org

 22 21  0  0  1  0  0  0  0  0999 V2000
   -0.2560    0.7873    0.5763 C   0  0  0  0  0  0  0  0  0  0  0  0
   -0.6831    0.0047    1.8410 C   0  0  0  0  0  0  0  0  0  0  0  0
    1.2002    0.5425    0.1748 C   0  0  0  0  0  0  0  0  0  0  0  0
   -2.1305   -0.5113    1.7778 C   0  0  1  0  0  0  0  0  0  0  0  0
    1.4295   -0.8644   -0.3677 C   0  0  0  0  0  0  0  0  0  0  0  0
   -3.1053    0.6781    1.5911 C   0  0  0  0  0  0  0  0  0  0  0  0
   -2.3542   -1.5005    0.7013 N   0  0  0  0  0  0  0  0  0  0  0  0
    0.5621   -1.6906   -0.5389 O   0  0  0  0  0  0  0  0  0  0  0  0
    2.7113   -1.1734   -0.6831 O   0  0  0  0  0  0  0  0  0  0  0  0
   -3.1041    1.6429    2.3235 O   0  0  0  0  0  0  0  0  0  0  0  0
   -3.9267    0.5351    0.5457 O   0  0  0  0  0  0  0  0  0  0  0  0
   -0.4092    1.8580    0.7431 H   0  0  0  0  0  0  0  0  0  0  0  0
   -0.8883    0.5196   -0.2774 H   0  0  0  0  0  0  0  0  0  0  0  0
   -0.5879    0.6478    2.7212 H   0  0  0  0  0  0  0  0  0  0  0  0
   -0.0288   -0.8609    1.9970 H   0  0  0  0  0  0  0  0  0  0  0  0
    1.8776    0.7059    1.0260 H   0  0  0  0  0  0  0  0  0  0  0  0
    1.5117    1.2536   -0.6041 H   0  0  0  0  0  0  0  0  0  0  0  0
   -2.3802   -0.9531    2.7501 H   0  0  0  0  0  0  0  0  0  0  0  0
   -1.5075   -1.6393    0.1473 H   0  0  0  0  0  0  0  0  0  0  0  0
   -2.6183   -2.4051    1.0808 H   0  0  0  0  0  0  0  0  0  0  0  0
    3.2929   -0.4165   -0.4993 H   0  0  0  0  0  0  0  0  0  0  0  0
   -3.6609   -0.3467    0.1594 H   0  0  0  0  0  0  0  0  0  0  0  0
  1 12  1  0  0  0  0
  1  2  1  0  0  0  0
  2 15  1  0  0  0  0
  2 14  1  0  0  0  0
  3  1  1  0  0  0  0
  3 16  1  0  0  0  0
  4  2  1  0  0  0  0
  4 18  1  1  0  0  0
  5  3  1  0  0  0  0
  6  4  1  0  0  0  0
  6 10  2  0  0  0  0
  7 20  1  0  0  0  0
  7  4  1  0  0  0  0
  8  5  2  0  0  0  0
  9 21  1  0  0  0  0
  9  5  1  0  0  0  0
 11  6  1  0  0  0  0
 13  1  1  0  0  0  0
 17  3  1  0  0  0  0
 19  7  1  0  0  0  0
 22 11  1  0  0  0  0
M  END
>  <HBA>
5

>  <HBD>
3

>  <TPSA>
100.62

>  <cid>
469

>  <dipole>
5.25

>  <excitation_energy_1>
5.428

>  <excitation_energy_2>
5.612

>  <excitation_energy_3>
5.705

>  <excitation_energy_4>
5.831

>  <homo_energy>
-6.517

>  <homo_lumo_gap>
6.204

>  <logP>
0.353

>  <lumo_energy>
-0.313

>  <melting_point>
182.0

>  <molecular_refractivity>
37.21

>  <oscillator_strength_1>
0.0024

>  <oscillator_strength_2>
0.001

>  <oscillator_strength_3>
0.003

>  <oscillator_strength_4>
0.0004

>  <open_babel_can_smiles>
OC(=O)CCC[C@@H](C(=O)O)N

>  <mulliken_charges>
22
1   -0.271686
2   -0.274925
3   -0.415785
4   -0.083372
5   0.613998
6   0.608004
7   -0.81134
8   -0.447016
9   -0.556952
10   -0.481374
11   -0.584385
12   0.170084
13   0.164461
14   0.171346
15   0.14394
16   0.170708
17   0.178604
18   0.16514
19   0.36806
20   0.322397
21   0.415897
22   0.434195

>  <lowdin_charges>
22
1   -0.27803
2   -0.282178
3   -0.326198
4   -0.107705
5   0.207177
6   0.168877
7   -0.559952
8   -0.251456
9   -0.34796
10   -0.273703
11   -0.357845
12   0.163232
13   0.158111
14   0.165475
15   0.147869
16   0.164569
17   0.171941
18   0.162672
19   0.280651
20   0.272423
21   0.36336
22   0.358671

$$$$

