PCCDB-ID:  21063
public computational chemistry database (PCCDB) project, http://pccdb.org

 29 29  0  0  1  0  0  0  0  0999 V2000
    5.1692   -1.0619   -0.1048 C   0  0  0  0  0  0  0  0  0  0  0  0
    4.0494    0.9283   -5.4129 C   0  0  0  0  0  0  0  0  0  0  0  0
    2.9530   -2.0446   -2.4885 C   0  0  0  0  0  0  0  0  0  0  0  0
    0.8170   -0.8372   -1.9776 C   0  0  0  0  0  0  0  0  0  0  0  0
    3.7865   -0.4309    0.1058 C   0  0  0  0  0  0  0  0  0  0  0  0
    3.8774    0.8733   -2.2605 C   0  0  0  0  0  0  0  0  0  0  0  0
    3.0243    0.0788   -4.6793 C   0  0  0  0  0  0  0  0  0  0  0  0
    3.0847    0.1816   -1.1194 C   0  0  1  0  0  0  0  0  0  0  0  0
    2.7478    0.4288   -3.2293 C   0  0  1  0  0  0  0  0  0  0  0  0
    2.3210   -0.6759   -2.1993 C   0  0  0  0  0  0  0  0  0  0  0  0
    2.4237   -0.8210   -5.2413 O   0  0  0  0  0  0  0  0  0  0  0  0
    5.1460   -1.9082   -0.7973 H   0  0  0  0  0  0  0  0  0  0  0  0
    5.8876   -0.3310   -0.4943 H   0  0  0  0  0  0  0  0  0  0  0  0
    5.5643   -1.4293    0.8494 H   0  0  0  0  0  0  0  0  0  0  0  0
    3.8255    1.9961   -5.2956 H   0  0  0  0  0  0  0  0  0  0  0  0
    5.0494    0.7675   -4.9911 H   0  0  0  0  0  0  0  0  0  0  0  0
    4.0572    0.6646   -6.4725 H   0  0  0  0  0  0  0  0  0  0  0  0
    2.8617   -2.7005   -1.6144 H   0  0  0  0  0  0  0  0  0  0  0  0
    4.0158   -1.9735   -2.7442 H   0  0  0  0  0  0  0  0  0  0  0  0
    2.4476   -2.5222   -3.3321 H   0  0  0  0  0  0  0  0  0  0  0  0
    0.6111   -1.5094   -1.1341 H   0  0  0  0  0  0  0  0  0  0  0  0
    0.3394   -1.2612   -2.8685 H   0  0  0  0  0  0  0  0  0  0  0  0
    0.3377    0.1260   -1.7620 H   0  0  0  0  0  0  0  0  0  0  0  0
    3.8915    0.3592    0.8623 H   0  0  0  0  0  0  0  0  0  0  0  0
    3.1112   -1.1741    0.5542 H   0  0  0  0  0  0  0  0  0  0  0  0
    4.8191    0.3579   -2.4765 H   0  0  0  0  0  0  0  0  0  0  0  0
    4.0824    1.9448   -2.1666 H   0  0  0  0  0  0  0  0  0  0  0  0
    2.3534    0.9082   -0.7399 H   0  0  0  0  0  0  0  0  0  0  0  0
    1.9733    1.2112   -3.2536 H   0  0  0  0  0  0  0  0  0  0  0  0
  1  5  1  0  0  0  0
  1 14  1  0  0  0  0
  2 15  1  0  0  0  0
  2 16  1  0  0  0  0
  2  7  1  0  0  0  0
  3 10  1  0  0  0  0
  3 18  1  0  0  0  0
  4 23  1  0  0  0  0
  4 21  1  0  0  0  0
  5 25  1  0  0  0  0
  5 24  1  0  0  0  0
  6 27  1  0  0  0  0
  6  8  1  0  0  0  0
  7  9  1  0  0  0  0
  8 28  1  1  0  0  0
  8  5  1  0  0  0  0
  9 29  1  1  0  0  0
  9  6  1  0  0  0  0
  9 10  1  0  0  0  0
 10  4  1  0  0  0  0
 10  8  1  0  0  0  0
 11  7  2  0  0  0  0
 12  1  1  0  0  0  0
 13  1  1  0  0  0  0
 17  2  1  0  0  0  0
 19  3  1  0  0  0  0
 20  3  1  0  0  0  0
 22  4  1  0  0  0  0
 26  6  1  0  0  0  0
M  END
>  <HBA>
1

>  <HBD>
0

>  <TPSA>
17.07

>  <cid>
21063

>  <dipole>
2.62

>  <excitation_energy_1>
4.256

>  <excitation_energy_2>
5.882

>  <excitation_energy_3>
6.309

>  <excitation_energy_4>
6.391

>  <homo_energy>
-6.376

>  <homo_lumo_gap>
6.104

>  <logP>
2.648

>  <lumo_energy>
-0.272

>  <melting_point>
33.44

>  <molecular_refractivity>
48.01

>  <oscillator_strength_1>
0.0005

>  <oscillator_strength_2>
0.0182

>  <oscillator_strength_3>
0.0205

>  <oscillator_strength_4>
0.0011

>  <open_babel_can_smiles>
CC[C@H]1C[C@H](C1(C)C)C(=O)C

>  <mulliken_charges>
29
1   -0.452263
2   -0.531211
3   -0.46892
4   -0.464112
5   -0.264258
6   -0.305455
7   0.451523
8   -0.07998
9   -0.194223
10   0.112731
11   -0.450348
12   0.152
13   0.142538
14   0.142368
15   0.164289
16   0.171696
17   0.177036
18   0.137953
19   0.135143
20   0.174523
21   0.139205
22   0.161403
23   0.131508
24   0.131922
25   0.136027
26   0.141768
27   0.135567
28   0.11849
29   0.15308

>  <lowdin_charges>
29
1   -0.452173
2   -0.471651
3   -0.446876
4   -0.447355
5   -0.280104
6   -0.289383
7   0.163494
8   -0.132709
9   -0.16542
10   0.016491
11   -0.242076
12   0.151407
13   0.147369
14   0.150941
15   0.165767
16   0.170744
17   0.169977
18   0.14759
19   0.143085
20   0.1665
21   0.148129
22   0.159502
23   0.142258
24   0.144674
25   0.145718
26   0.145549
27   0.141377
28   0.142716
29   0.164455

$$$$

