PCCDB-ID:  6228
public computational chemistry database (PCCDB) project, http://pccdb.org

 12 11  0  0  0  0  0  0  0  0999 V2000
    0.9447    0.0917    0.0052 C   0  0  0  0  0  0  0  0  0  0  0  0
    3.0955    0.8463    1.0001 C   0  0  0  0  0  0  0  0  0  0  0  0
    3.0947   -0.5136   -1.0287 C   0  0  0  0  0  0  0  0  0  0  0  0
    2.3924    0.1186   -0.0422 N   0  0  0  0  0  0  0  0  0  0  0  0
    4.3097   -0.5359   -1.1354 O   0  0  0  0  0  0  0  0  0  0  0  0
    0.5277    1.1060   -0.0576 H   0  0  0  0  0  0  0  0  0  0  0  0
    0.5881   -0.3674    0.9372 H   0  0  0  0  0  0  0  0  0  0  0  0
    0.5603   -0.4918   -0.8365 H   0  0  0  0  0  0  0  0  0  0  0  0
    2.8056    1.9052    0.9976 H   0  0  0  0  0  0  0  0  0  0  0  0
    4.1652    0.7604    0.8065 H   0  0  0  0  0  0  0  0  0  0  0  0
    2.8663    0.4268    1.9884 H   0  0  0  0  0  0  0  0  0  0  0  0
    2.4244   -1.0245   -1.7480 H   0  0  0  0  0  0  0  0  0  0  0  0
  1  7  1  0  0  0  0
  2 11  1  0  0  0  0
  3  4  1  0  0  0  0
  4  1  1  0  0  0  0
  4  2  1  0  0  0  0
  5  3  2  0  0  0  0
  6  1  1  0  0  0  0
  8  1  1  0  0  0  0
  9  2  1  0  0  0  0
 10  2  1  0  0  0  0
 12  3  1  0  0  0  0
M  END
>  <HBA>
2

>  <HBD>
0

>  <TPSA>
20.31

>  <cid>
6228

>  <dipole>
3.83

>  <excitation_energy_1>
5.664

>  <excitation_energy_2>
5.969

>  <excitation_energy_3>
6.379

>  <excitation_energy_4>
6.603

>  <homo_energy>
-6.591

>  <homo_lumo_gap>
7.467

>  <logP>
0.34

>  <lumo_energy>
0.876

>  <melting_point>
-0.54

>  <molecular_refractivity>
20.02

>  <oscillator_strength_1>
0.0011

>  <oscillator_strength_2>
0.02

>  <oscillator_strength_3>
0.0358

>  <oscillator_strength_4>
0.1346

>  <open_babel_can_smiles>
O=CN(C)C

>  <mulliken_charges>
12
1   -0.312953
2   -0.321708
3   0.349741
4   -0.347287
5   -0.467961
6   0.160328
7   0.160361
8   0.166877
9   0.154701
10   0.203724
11   0.154717
12   0.099461

>  <lowdin_charges>
12
1   -0.348347
2   -0.352869
3   0.035591
4   -0.10085
5   -0.299996
6   0.150453
7   0.151439
8   0.162999
9   0.148941
10   0.182307
11   0.150053
12   0.120279

$$$$

