PCCDB-ID:  70690
public computational chemistry database (PCCDB) project, http://pccdb.org

 27 26  0  0  0  0  0  0  0  0999 V2000
    3.1009   -0.6564    2.5301 C   0  0  0  0  0  0  0  0  0  0  0  0
    7.1246    0.5010   -1.2132 C   0  0  0  0  0  0  0  0  0  0  0  0
    4.3251   -4.5841    0.2850 C   0  0  0  0  0  0  0  0  0  0  0  0
    2.5959   -1.7584    1.5943 C   0  0  0  0  0  0  0  0  0  0  0  0
    6.1572   -0.6859   -1.1707 C   0  0  0  0  0  0  0  0  0  0  0  0
    3.3277   -1.8490    0.2422 C   0  0  0  0  0  0  0  0  0  0  0  0
    5.7060   -1.0138    0.2594 C   0  0  0  0  0  0  0  0  0  0  0  0
    5.2931   -3.4062    0.3198 C   0  0  0  0  0  0  0  0  0  0  0  0
    4.7617   -2.1368    0.3258 N   0  0  0  0  0  0  0  0  0  0  0  0
    6.5072   -3.5944    0.3261 O   0  0  0  0  0  0  0  0  0  0  0  0
    2.5186   -0.6392    3.4580 H   0  0  0  0  0  0  0  0  0  0  0  0
    3.0145    0.3346    2.0671 H   0  0  0  0  0  0  0  0  0  0  0  0
    4.1501   -0.8134    2.8015 H   0  0  0  0  0  0  0  0  0  0  0  0
    7.4406    0.7178   -2.2394 H   0  0  0  0  0  0  0  0  0  0  0  0
    8.0265    0.2965   -0.6239 H   0  0  0  0  0  0  0  0  0  0  0  0
    6.6623    1.4105   -0.8088 H   0  0  0  0  0  0  0  0  0  0  0  0
    3.8372   -4.6608   -0.6947 H   0  0  0  0  0  0  0  0  0  0  0  0
    3.5392   -4.5183    1.0433 H   0  0  0  0  0  0  0  0  0  0  0  0
    4.9107   -5.4894    0.4497 H   0  0  0  0  0  0  0  0  0  0  0  0
    1.5299   -1.5995    1.3786 H   0  0  0  0  0  0  0  0  0  0  0  0
    2.6651   -2.7271    2.1055 H   0  0  0  0  0  0  0  0  0  0  0  0
    6.6362   -1.5778   -1.5893 H   0  0  0  0  0  0  0  0  0  0  0  0
    5.2766   -0.4717   -1.7925 H   0  0  0  0  0  0  0  0  0  0  0  0
    3.2169   -0.8996   -0.2959 H   0  0  0  0  0  0  0  0  0  0  0  0
    2.8404   -2.6068   -0.3795 H   0  0  0  0  0  0  0  0  0  0  0  0
    5.2266   -0.1406    0.7143 H   0  0  0  0  0  0  0  0  0  0  0  0
    6.5766   -1.2750    0.8661 H   0  0  0  0  0  0  0  0  0  0  0  0
  1 13  1  0  0  0  0
  1 11  1  0  0  0  0
  2  5  1  0  0  0  0
  2 16  1  0  0  0  0
  2 15  1  0  0  0  0
  3  8  1  0  0  0  0
  3 19  1  0  0  0  0
  3 18  1  0  0  0  0
  4 21  1  0  0  0  0
  4  1  1  0  0  0  0
  5  7  1  0  0  0  0
  6  9  1  0  0  0  0
  6  4  1  0  0  0  0
  7  9  1  0  0  0  0
  7 26  1  0  0  0  0
  7 27  1  0  0  0  0
  8  9  1  0  0  0  0
  8 10  2  0  0  0  0
 12  1  1  0  0  0  0
 14  2  1  0  0  0  0
 17  3  1  0  0  0  0
 20  4  1  0  0  0  0
 22  5  1  0  0  0  0
 23  5  1  0  0  0  0
 24  6  1  0  0  0  0
 25  6  1  0  0  0  0
M  END
>  <HBA>
2

>  <HBD>
0

>  <TPSA>
20.31

>  <cid>
70690

>  <dipole>
3.64

>  <excitation_energy_1>
5.518

>  <excitation_energy_2>
5.689

>  <excitation_energy_3>
6.056

>  <excitation_energy_4>
6.099

>  <homo_energy>
-6.202

>  <homo_lumo_gap>
7.143

>  <logP>
1.655

>  <lumo_energy>
0.942

>  <melting_point>
-3.86

>  <molecular_refractivity>
43.67

>  <oscillator_strength_1>
0.0033

>  <oscillator_strength_2>
0.0169

>  <oscillator_strength_3>
0.0138

>  <oscillator_strength_4>
0.0145

>  <open_babel_can_smiles>
CCCN(C(=O)C)CCC

>  <mulliken_charges>
27
1   -0.447768
2   -0.447726
3   -0.550471
4   -0.249284
5   -0.255657
6   -0.152315
7   -0.139467
8   0.576599
9   -0.405528
10   -0.517772
11   0.148933
12   0.141452
13   0.161708
14   0.146993
15   0.151757
16   0.137641
17   0.169137
18   0.163642
19   0.185946
20   0.135227
21   0.143928
22   0.164968
23   0.125973
24   0.150071
25   0.151179
26   0.135936
27   0.174898

>  <lowdin_charges>
27
1   -0.446892
2   -0.444373
3   -0.475027
4   -0.279266
5   -0.283415
6   -0.20062
7   -0.203271
8   0.156241
9   -0.110072
10   -0.32022
11   0.154001
12   0.145347
13   0.154474
14   0.152124
15   0.151847
16   0.144452
17   0.166879
18   0.162478
19   0.17841
20   0.143774
21   0.144052
22   0.157896
23   0.13653
24   0.150389
25   0.153695
26   0.144062
27   0.166509

$$$$

