PCCDB-ID:  28132
public computational chemistry database (PCCDB) project, http://pccdb.org

 27 27  0  0  0  0  0  0  0  0999 V2000
    2.9873   -2.6881   -0.5711 C   0  0  0  0  0  0  0  0  0  0  0  0
    1.0396   -1.2964   -0.3128 C   0  0  0  0  0  0  0  0  0  0  0  0
    4.6358    0.7610   -1.1646 C   0  0  0  0  0  0  0  0  0  0  0  0
    5.3745    1.5213   -2.0708 C   0  0  0  0  0  0  0  0  0  0  0  0
    6.6649    0.3367    0.0834 C   0  0  0  0  0  0  0  0  0  0  0  0
    3.0373   -0.7863    0.9252 C   0  0  0  0  0  0  0  0  0  0  0  0
    5.2761    0.1601   -0.0737 C   0  0  0  0  0  0  0  0  0  0  0  0
    6.7494    1.6967   -1.9100 C   0  0  0  0  0  0  0  0  0  0  0  0
    7.4038    1.0908   -0.8129 C   0  0  0  0  0  0  0  0  0  0  0  0
    4.5675   -0.6423    0.9609 C   0  0  0  0  0  0  0  0  0  0  0  0
    2.4974   -1.3359   -0.3176 N   0  0  0  0  0  0  0  0  0  0  0  0
    7.5181    2.4272   -2.7618 O   0  0  0  0  0  0  0  0  0  0  0  0
    8.7499    1.2958   -0.7069 O   0  0  0  0  0  0  0  0  0  0  0  0
    5.1801   -1.1504    1.8923 O   0  0  0  0  0  0  0  0  0  0  0  0
    2.5975   -3.0414   -1.5315 H   0  0  0  0  0  0  0  0  0  0  0  0
    2.6852   -3.4092    0.2124 H   0  0  0  0  0  0  0  0  0  0  0  0
    4.0799   -2.6874   -0.6288 H   0  0  0  0  0  0  0  0  0  0  0  0
    0.6604   -1.6680   -1.2708 H   0  0  0  0  0  0  0  0  0  0  0  0
    0.6962   -0.2638   -0.1866 H   0  0  0  0  0  0  0  0  0  0  0  0
    0.5904   -1.9081    0.4937 H   0  0  0  0  0  0  0  0  0  0  0  0
    3.5761    0.6031   -1.3232 H   0  0  0  0  0  0  0  0  0  0  0  0
    4.8799    1.9852   -2.9226 H   0  0  0  0  0  0  0  0  0  0  0  0
    7.1465   -0.1335    0.9374 H   0  0  0  0  0  0  0  0  0  0  0  0
    2.6030    0.2132    1.0683 H   0  0  0  0  0  0  0  0  0  0  0  0
    2.7733   -1.3937    1.8094 H   0  0  0  0  0  0  0  0  0  0  0  0
    6.9505    2.7854   -3.4625 H   0  0  0  0  0  0  0  0  0  0  0  0
    9.0677    0.8258    0.0800 H   0  0  0  0  0  0  0  0  0  0  0  0
  1 11  1  0  0  0  0
  1 16  1  0  0  0  0
  2 19  1  0  0  0  0
  2 20  1  0  0  0  0
  3  7  2  0  0  0  0
  4  8  2  0  0  0  0
  4  3  1  0  0  0  0
  5 23  1  0  0  0  0
  6 10  1  0  0  0  0
  6 24  1  0  0  0  0
  6 25  1  0  0  0  0
  7  5  1  0  0  0  0
  7 10  1  0  0  0  0
  8  9  1  0  0  0  0
  9 13  1  0  0  0  0
  9  5  2  0  0  0  0
 10 14  2  0  0  0  0
 11  2  1  0  0  0  0
 11  6  1  0  0  0  0
 12  8  1  0  0  0  0
 13 27  1  0  0  0  0
 15  1  1  0  0  0  0
 17  1  1  0  0  0  0
 18  2  1  0  0  0  0
 21  3  1  0  0  0  0
 22  4  1  0  0  0  0
 26 12  1  0  0  0  0
M  END
>  <HBA>
4

>  <HBD>
2

>  <TPSA>
60.77

>  <cid>
28132

>  <dipole>
3.06

>  <excitation_energy_1>
3.627

>  <excitation_energy_2>
3.844

>  <excitation_energy_3>
4.14

>  <excitation_energy_4>
4.662

>  <homo_energy>
-5.799

>  <homo_lumo_gap>
4.509

>  <logP>
0.842

>  <lumo_energy>
-1.29

>  <melting_point>
121.47

>  <molecular_refractivity>
53.19

>  <oscillator_strength_1>
0.0042

>  <oscillator_strength_2>
0.0087

>  <oscillator_strength_3>
0.1139

>  <oscillator_strength_4>
0.1454

>  <open_babel_can_smiles>
CN(CC(=O)c1ccc(c(c1)O)O)C

>  <mulliken_charges>
27
1   -0.304168
2   -0.293562
3   -0.178773
4   -0.207597
5   -0.246248
6   -0.206724
7   0.063075
8   0.334088
9   0.332139
10   0.38089
11   -0.374178
12   -0.621073
13   -0.635418
14   -0.470279
15   0.150836
16   0.127743
17   0.165809
18   0.151802
19   0.148897
20   0.125012
21   0.161037
22   0.123096
23   0.152604
24   0.154887
25   0.142943
26   0.41146
27   0.411702

>  <lowdin_charges>
27
1   -0.357768
2   -0.356611
3   -0.150536
4   -0.21222
5   -0.183985
6   -0.227334
7   -0.06262
8   0.093152
9   0.076211
10   0.150241
11   -0.180768
12   -0.354783
13   -0.370314
14   -0.252625
15   0.151806
16   0.128297
17   0.156076
18   0.151763
19   0.148644
20   0.125922
21   0.174466
22   0.156532
23   0.173852
24   0.157715
25   0.140483
26   0.362493
27   0.36191

$$$$

