PCCDB-ID:  26888
public computational chemistry database (PCCDB) project, http://pccdb.org

 12 11  0  0  0  0  0  0  0  0999 V2000
    1.0109   -0.1118    0.1413 C   0  0  0  0  0  0  0  0  0  0  0  0
    4.3855    1.1440   -0.6336 C   0  0  0  0  0  0  0  0  0  0  0  0
    2.5031   -0.1766   -0.0803 C   0  0  0  0  0  0  0  0  0  0  0  0
    3.2843   -1.1795    0.0013 N   0  0  0  0  0  0  0  0  0  0  0  0
    2.9765    1.0507   -0.3999 O   0  0  0  0  0  0  0  0  0  0  0  0
    0.6031   -1.1011    0.3617 H   0  0  0  0  0  0  0  0  0  0  0  0
    0.5144    0.2914   -0.7478 H   0  0  0  0  0  0  0  0  0  0  0  0
    0.7831    0.5624    0.9743 H   0  0  0  0  0  0  0  0  0  0  0  0
    4.5713    2.1903   -0.8829 H   0  0  0  0  0  0  0  0  0  0  0  0
    4.6862    0.4908   -1.4580 H   0  0  0  0  0  0  0  0  0  0  0  0
    4.9469    0.8544    0.2597 H   0  0  0  0  0  0  0  0  0  0  0  0
    2.7582   -2.0175    0.2507 H   0  0  0  0  0  0  0  0  0  0  0  0
  1  6  1  0  0  0  0
  1  8  1  0  0  0  0
  2  5  1  0  0  0  0
  2 11  1  0  0  0  0
  3  4  2  0  0  0  0
  3  1  1  0  0  0  0
  4 12  1  0  0  0  0
  5  3  1  0  0  0  0
  7  1  1  0  0  0  0
  9  2  1  0  0  0  0
 10  2  1  0  0  0  0
M  END
>  <HBA>
2

>  <HBD>
1

>  <TPSA>
33.08

>  <cid>
26888

>  <dipole>
1.2

>  <excitation_energy_1>
6.496

>  <excitation_energy_2>
6.603

>  <excitation_energy_3>
6.758

>  <excitation_energy_4>
7.252

>  <homo_energy>
-7.037

>  <homo_lumo_gap>
7.962

>  <logP>
0.73

>  <lumo_energy>
0.925

>  <melting_point>
-2.22

>  <molecular_refractivity>
21.21

>  <oscillator_strength_1>
0.0022

>  <oscillator_strength_2>
0.014

>  <oscillator_strength_3>
0.0368

>  <oscillator_strength_4>
0.0092

>  <open_babel_can_smiles>
COC(=N)C

>  <mulliken_charges>
12
1   -0.506
2   -0.200124
3   0.500577
4   -0.624467
5   -0.452647
6   0.15499
7   0.179021
8   0.179378
9   0.153691
10   0.165817
11   0.164916
12   0.284847

>  <lowdin_charges>
12
1   -0.462005
2   -0.275425
3   0.133732
4   -0.430372
5   -0.202175
6   0.159928
7   0.174545
8   0.174764
9   0.152868
10   0.157659
11   0.157007
12   0.259474

$$$$

