PCCDB-ID:  11831
public computational chemistry database (PCCDB) project, http://pccdb.org

 25 27  0  0  0  0  0  0  0  0999 V2000
   -3.4506    0.1187   -0.0161 C   0  0  0  0  0  0  0  0  0  0  0  0
   -3.0052   -1.2079    0.0357 C   0  0  0  0  0  0  0  0  0  0  0  0
   -2.5381    1.1783   -0.0522 C   0  0  0  0  0  0  0  0  0  0  0  0
   -1.6410   -1.4990    0.0520 C   0  0  0  0  0  0  0  0  0  0  0  0
    3.0171   -1.2154    0.0574 C   0  0  0  0  0  0  0  0  0  0  0  0
    1.6541   -1.4980    0.0632 C   0  0  0  0  0  0  0  0  0  0  0  0
    0.0052    1.8424   -0.0636 C   0  0  0  0  0  0  0  0  0  0  0  0
    2.5432    1.1890   -0.0341 C   0  0  0  0  0  0  0  0  0  0  0  0
   -1.1768    0.8950   -0.0356 C   0  0  0  0  0  0  0  0  0  0  0  0
    1.1888    0.8976   -0.0275 C   0  0  0  0  0  0  0  0  0  0  0  0
    3.4393    0.1159    0.0092 C   0  0  0  0  0  0  0  0  0  0  0  0
   -0.7279   -0.4416    0.0160 C   0  0  0  0  0  0  0  0  0  0  0  0
    0.7381   -0.4415    0.0210 C   0  0  0  0  0  0  0  0  0  0  0  0
    4.8788    0.4001    0.0046 N   0  0  0  0  0  0  0  0  0  0  0  0
    5.6553   -0.5560    0.0409 O   0  0  0  0  0  0  0  0  0  0  0  0
    5.2306    1.5808   -0.0355 O   0  0  0  0  0  0  0  0  0  0  0  0
   -4.5169    0.3271   -0.0279 H   0  0  0  0  0  0  0  0  0  0  0  0
   -3.7292   -2.0175    0.0632 H   0  0  0  0  0  0  0  0  0  0  0  0
   -2.8927    2.2053   -0.0929 H   0  0  0  0  0  0  0  0  0  0  0  0
   -1.2997   -2.5301    0.0918 H   0  0  0  0  0  0  0  0  0  0  0  0
    3.7604   -2.0021    0.0893 H   0  0  0  0  0  0  0  0  0  0  0  0
    1.3161   -2.5296    0.0996 H   0  0  0  0  0  0  0  0  0  0  0  0
    0.0045    2.5278    0.7952 H   0  0  0  0  0  0  0  0  0  0  0  0
    0.0105    2.4732   -0.9630 H   0  0  0  0  0  0  0  0  0  0  0  0
    2.9252    2.2024   -0.0716 H   0  0  0  0  0  0  0  0  0  0  0  0
  1  2  2  0  0  0  0
  2  4  1  0  0  0  0
  2 18  1  0  0  0  0
  3  9  2  0  0  0  0
  3  1  1  0  0  0  0
  4 20  1  0  0  0  0
  5  6  1  0  0  0  0
  5 21  1  0  0  0  0
  6 22  1  0  0  0  0
  7  9  1  0  0  0  0
  7 10  1  0  0  0  0
  7 23  1  0  0  0  0
  8 10  2  0  0  0  0
  8 11  1  0  0  0  0
  9 12  1  0  0  0  0
 10 13  1  0  0  0  0
 11  5  2  0  0  0  0
 12 13  1  0  0  0  0
 12  4  2  0  0  0  0
 13  6  2  0  0  0  0
 14 11  1  0  0  0  0
 14 15  2  0  0  0  0
 16 14  2  0  0  0  0
 17  1  1  0  0  0  0
 19  3  1  0  0  0  0
 24  7  1  0  0  0  0
 25  8  1  0  0  0  0
M  END
>  <HBA>
0

>  <HBD>
0

>  <TPSA>
45.82

>  <cid>
11831

>  <dipole>
5.71

>  <excitation_energy_1>
3.603

>  <excitation_energy_2>
3.709

>  <excitation_energy_3>
3.993

>  <excitation_energy_4>
4.181

>  <homo_energy>
-6.436

>  <homo_lumo_gap>
4.057

>  <logP>
3.689

>  <lumo_energy>
-2.378

>  <melting_point>
113.31

>  <molecular_refractivity>
63.71

>  <oscillator_strength_1>
0.4578

>  <oscillator_strength_2>
0.0

>  <oscillator_strength_3>
0.0175

>  <oscillator_strength_4>
0.0036

>  <open_babel_can_smiles>
O=N(=O)c1ccc2c(c1)Cc1c2cccc1

>  <mulliken_charges>
25
1   -0.125386
2   -0.13749
3   -0.201221
4   -0.185117
5   -0.166669
6   -0.199319
7   -0.417976
8   -0.233202
9   0.107017
10   0.097328
11   0.283497
12   0.085066
13   0.10515
14   0.375034
15   -0.402383
16   -0.39866
17   0.136137
18   0.136338
19   0.133473
20   0.136415
21   0.181321
22   0.145991
23   0.183428
24   0.183066
25   0.178163

>  <lowdin_charges>
25
1   -0.146338
2   -0.154318
3   -0.159709
4   -0.153657
5   -0.138824
6   -0.155401
7   -0.273573
8   -0.144568
9   0.000688
10   -0.000932
11   -0.000756
12   -0.015759
13   0.010323
14   0.308002
15   -0.253482
16   -0.253316
17   0.159968
18   0.162435
19   0.159615
20   0.159819
21   0.188237
22   0.165213
23   0.175579
24   0.175185
25   0.185569

$$$$

