PCCDB-ID:  65454
public computational chemistry database (PCCDB) project, http://pccdb.org

 30 32  0  0  0  0  0  0  0  0999 V2000
    1.0944   -3.9456    0.4868 C   0  0  0  0  0  0  0  0  0  0  0  0
    0.1471   -3.4150    1.4194 C   0  0  0  0  0  0  0  0  0  0  0  0
    8.9948    3.8537   -1.3547 C   0  0  0  0  0  0  0  0  0  0  0  0
    7.7231    4.2146   -1.9032 C   0  0  0  0  0  0  0  0  0  0  0  0
    3.5831    1.1743    0.4128 C   0  0  0  0  0  0  0  0  0  0  0  0
    4.4389   -1.1507    0.4649 C   0  0  0  0  0  0  0  0  0  0  0  0
    4.8027    1.6440    0.0630 C   0  0  0  0  0  0  0  0  0  0  0  0
    5.6705   -0.6746    0.1699 C   0  0  0  0  0  0  0  0  0  0  0  0
    1.9710   -2.9423    0.1574 C   0  0  0  0  0  0  0  0  0  0  0  0
    0.4567   -2.0939    1.6098 C   0  0  0  0  0  0  0  0  0  0  0  0
    8.8539    2.6218   -0.7717 C   0  0  0  0  0  0  0  0  0  0  0  0
    6.8367    3.2074   -1.6145 C   0  0  0  0  0  0  0  0  0  0  0  0
    3.2978   -0.2476    0.5538 C   0  0  0  0  0  0  0  0  0  0  0  0
    5.9205    0.7287   -0.1320 C   0  0  0  0  0  0  0  0  0  0  0  0
    2.0408   -0.5161    0.8145 N   0  0  0  0  0  0  0  0  0  0  0  0
    7.1590    0.9874   -0.4777 N   0  0  0  0  0  0  0  0  0  0  0  0
    1.5876   -1.8011    0.8628 N   0  0  0  0  0  0  0  0  0  0  0  0
    7.5304    2.2289   -0.9014 N   0  0  0  0  0  0  0  0  0  0  0  0
    1.1118   -4.9490    0.0829 H   0  0  0  0  0  0  0  0  0  0  0  0
   -0.6702   -3.9479    1.8854 H   0  0  0  0  0  0  0  0  0  0  0  0
    9.9057    4.4348   -1.3956 H   0  0  0  0  0  0  0  0  0  0  0  0
    7.4933    5.1064   -2.4710 H   0  0  0  0  0  0  0  0  0  0  0  0
    2.7522    1.8491    0.5944 H   0  0  0  0  0  0  0  0  0  0  0  0
    4.3087   -2.1984    0.7043 H   0  0  0  0  0  0  0  0  0  0  0  0
    4.9702    2.7113   -0.0067 H   0  0  0  0  0  0  0  0  0  0  0  0
    6.5335   -1.3325    0.1353 H   0  0  0  0  0  0  0  0  0  0  0  0
    2.7591   -2.9069   -0.5760 H   0  0  0  0  0  0  0  0  0  0  0  0
    0.0153   -1.3203    2.2188 H   0  0  0  0  0  0  0  0  0  0  0  0
    9.5433    1.9782   -0.2475 H   0  0  0  0  0  0  0  0  0  0  0  0
    5.8184    3.0525   -1.9298 H   0  0  0  0  0  0  0  0  0  0  0  0
  1  2  1  0  0  0  0
  2 10  2  0  0  0  0
  2 20  1  0  0  0  0
  3 11  2  0  0  0  0
  4 12  2  0  0  0  0
  4  3  1  0  0  0  0
  5 13  2  0  0  0  0
  5 23  1  0  0  0  0
  6 13  1  0  0  0  0
  6 24  1  0  0  0  0
  7  5  1  0  0  0  0
  8  6  2  0  0  0  0
  9  1  2  0  0  0  0
  9 17  1  0  0  0  0
 10 28  1  0  0  0  0
 11 29  1  0  0  0  0
 12 18  1  0  0  0  0
 13 15  1  0  0  0  0
 14  7  2  0  0  0  0
 14  8  1  0  0  0  0
 15 17  1  0  0  0  0
 16 14  1  0  0  0  0
 17 10  1  0  0  0  0
 18 11  1  0  0  0  0
 18 16  1  0  0  0  0
 19  1  1  0  0  0  0
 21  3  1  0  0  0  0
 22  4  1  0  0  0  0
 25  7  1  0  0  0  0
 26  8  1  0  0  0  0
 27  9  1  0  0  0  0
 30 12  1  0  0  0  0
M  RAD  2  15   2  16   2
M  END
>  <HBA>
4

>  <HBD>
0

>  <TPSA>
34.58

>  <cid>
65454

>  <dipole>
0.03

>  <excitation_energy_1>
2.536

>  <excitation_energy_2>
2.539

>  <excitation_energy_3>
2.771

>  <excitation_energy_4>
3.287

>  <homo_energy>
-5.535

>  <homo_lumo_gap>
2.746

>  <logP>
2.524

>  <lumo_energy>
-2.789

>  <melting_point>
108.76

>  <molecular_refractivity>
72.81

>  <oscillator_strength_1>
0.0003

>  <oscillator_strength_2>
0.0002

>  <oscillator_strength_3>
0.9697

>  <oscillator_strength_4>
0.0062

>  <open_babel_can_smiles>
c1ccn(c1)[N]c1ccc(cc1)[N]n1cccc1

>  <mulliken_charges>
30
1   -0.196118
2   -0.183232
3   -0.183055
4   -0.196428
5   -0.144966
6   -0.164514
7   -0.164537
8   -0.145118
9   0.032032
10   0.057022
11   0.057124
12   0.03229
13   0.317905
14   0.318218
15   -0.377553
16   -0.377656
17   -0.263551
18   -0.263734
19   0.135873
20   0.134207
21   0.13426
22   0.135927
23   0.160078
24   0.167197
25   0.167116
26   0.160098
27   0.16671
28   0.158846
29   0.158853
30   0.166705

>  <lowdin_charges>
30
1   -0.193205
2   -0.203514
3   -0.203121
4   -0.194329
5   -0.129245
6   -0.184917
7   -0.184896
8   -0.129119
9   -0.175549
10   -0.144199
11   -0.143191
12   -0.174289
13   0.030718
14   0.03071
15   -0.099248
16   -0.099201
17   0.066104
18   0.065397
19   0.164038
20   0.166119
21   0.165516
22   0.164968
23   0.177412
24   0.175941
25   0.175639
26   0.177213
27   0.173954
28   0.17561
29   0.175978
30   0.172706

$$$$

