PCCDB-ID:  66191
public computational chemistry database (PCCDB) project, http://pccdb.org

 24 23  0  0  0  0  0  0  0  0999 V2000
    3.7789    0.9750    0.4067 C   0  0  0  0  0  0  0  0  0  0  0  0
    3.0898   -3.6476   -2.7857 C   0  0  0  0  0  0  0  0  0  0  0  0
    0.0348   -2.4631    0.2844 C   0  0  0  0  0  0  0  0  0  0  0  0
    2.6512    0.0985   -0.1386 C   0  0  0  0  0  0  0  0  0  0  0  0
    2.7149   -3.5602   -1.3039 C   0  0  0  0  0  0  0  0  0  0  0  0
    0.7824   -2.0022   -0.9729 C   0  0  0  0  0  0  0  0  0  0  0  0
    3.1567   -1.2909   -0.5435 C   0  0  0  0  0  0  0  0  0  0  0  0
    2.2255   -2.2320   -0.9151 N   0  0  0  0  0  0  0  0  0  0  0  0
    4.3579   -1.5518   -0.5397 O   0  0  0  0  0  0  0  0  0  0  0  0
    3.3953    1.9647    0.6781 H   0  0  0  0  0  0  0  0  0  0  0  0
    4.5710    1.0960   -0.3363 H   0  0  0  0  0  0  0  0  0  0  0  0
    4.2317    0.5221    1.2934 H   0  0  0  0  0  0  0  0  0  0  0  0
    3.4273   -4.6605   -3.0357 H   0  0  0  0  0  0  0  0  0  0  0  0
    3.9026   -2.9497   -3.0062 H   0  0  0  0  0  0  0  0  0  0  0  0
    2.2374   -3.4067   -3.4320 H   0  0  0  0  0  0  0  0  0  0  0  0
   -1.0436   -2.3025    0.1694 H   0  0  0  0  0  0  0  0  0  0  0  0
    0.3720   -1.9101    1.1676 H   0  0  0  0  0  0  0  0  0  0  0  0
    0.1991   -3.5295    0.4737 H   0  0  0  0  0  0  0  0  0  0  0  0
    2.1941    0.5787   -1.0156 H   0  0  0  0  0  0  0  0  0  0  0  0
    1.8477    0.0046    0.6028 H   0  0  0  0  0  0  0  0  0  0  0  0
    3.5879   -3.7861   -0.6881 H   0  0  0  0  0  0  0  0  0  0  0  0
    1.9325   -4.2886   -1.0616 H   0  0  0  0  0  0  0  0  0  0  0  0
    0.5901   -0.9425   -1.1559 H   0  0  0  0  0  0  0  0  0  0  0  0
    0.3948   -2.5349   -1.8503 H   0  0  0  0  0  0  0  0  0  0  0  0
  1 10  1  0  0  0  0
  1 12  1  0  0  0  0
  2  5  1  0  0  0  0
  3 18  1  0  0  0  0
  3 17  1  0  0  0  0
  4  1  1  0  0  0  0
  4 20  1  0  0  0  0
  5 22  1  0  0  0  0
  5  8  1  0  0  0  0
  5 21  1  0  0  0  0
  6  8  1  0  0  0  0
  6  3  1  0  0  0  0
  7  9  2  0  0  0  0
  7  4  1  0  0  0  0
  8  7  1  0  0  0  0
 11  1  1  0  0  0  0
 13  2  1  0  0  0  0
 14  2  1  0  0  0  0
 15  2  1  0  0  0  0
 16  3  1  0  0  0  0
 19  4  1  0  0  0  0
 23  6  1  0  0  0  0
 24  6  1  0  0  0  0
M  END
>  <HBA>
2

>  <HBD>
0

>  <TPSA>
20.31

>  <cid>
66191

>  <dipole>
3.55

>  <excitation_energy_1>
5.58

>  <excitation_energy_2>
5.652

>  <excitation_energy_3>
5.999

>  <excitation_energy_4>
6.128

>  <homo_energy>
-6.256

>  <homo_lumo_gap>
7.241

>  <logP>
1.265

>  <lumo_energy>
0.985

>  <melting_point>
-3.2

>  <molecular_refractivity>
38.86

>  <oscillator_strength_1>
0.0022

>  <oscillator_strength_2>
0.0142

>  <oscillator_strength_3>
0.018

>  <oscillator_strength_4>
0.0467

>  <open_babel_can_smiles>
CCC(=O)N(CC)CC

>  <mulliken_charges>
24
1   -0.427517
2   -0.444042
3   -0.44173
4   -0.372144
5   -0.141813
6   -0.151567
7   0.600489
8   -0.409307
9   -0.525831
10   0.131978
11   0.165832
12   0.158714
13   0.143723
14   0.175898
15   0.138385
16   0.147295
17   0.156585
18   0.156045
19   0.159807
20   0.15421
21   0.180305
22   0.135059
23   0.157358
24   0.152265

>  <lowdin_charges>
24
1   -0.437786
2   -0.452245
3   -0.451058
4   -0.308165
5   -0.195973
6   -0.195399
7   0.153744
8   -0.109656
9   -0.319265
10   0.145358
11   0.162371
12   0.158581
13   0.151848
14   0.165304
15   0.145173
16   0.152368
17   0.153859
18   0.152465
19   0.158406
20   0.154944
21   0.169037
22   0.142581
23   0.153349
24   0.150159

$$$$

