PCCDB-ID:  12973
public computational chemistry database (PCCDB) project, http://pccdb.org

 21 20  0  0  0  0  0  0  0  0999 V2000
    2.3116    2.9494   -1.9053 C   0  0  0  0  0  0  0  0  0  0  0  0
    5.1860   -1.6941    1.2987 C   0  0  0  0  0  0  0  0  0  0  0  0
    4.3161   -1.9321   -0.9842 C   0  0  0  0  0  0  0  0  0  0  0  0
    3.0173    2.3253   -0.6979 C   0  0  0  0  0  0  0  0  0  0  0  0
    3.3979    0.8615   -0.9386 C   0  0  0  0  0  0  0  0  0  0  0  0
    4.1086    0.2414    0.2695 C   0  0  0  0  0  0  0  0  0  0  0  0
    4.5023   -1.0759    0.1728 N   0  0  0  0  0  0  0  0  0  0  0  0
    4.3139    0.9007    1.2848 O   0  0  0  0  0  0  0  0  0  0  0  0
    2.0564    3.9975   -1.7131 H   0  0  0  0  0  0  0  0  0  0  0  0
    1.3803    2.4205   -2.1447 H   0  0  0  0  0  0  0  0  0  0  0  0
    2.9457    2.9222   -2.8007 H   0  0  0  0  0  0  0  0  0  0  0  0
    4.6233   -2.5658    1.6596 H   0  0  0  0  0  0  0  0  0  0  0  0
    5.2693   -0.9577    2.0965 H   0  0  0  0  0  0  0  0  0  0  0  0
    6.1890   -2.0316    1.0036 H   0  0  0  0  0  0  0  0  0  0  0  0
    3.7441   -2.8298   -0.7102 H   0  0  0  0  0  0  0  0  0  0  0  0
    5.2856   -2.2629   -1.3837 H   0  0  0  0  0  0  0  0  0  0  0  0
    3.7787   -1.4169   -1.7783 H   0  0  0  0  0  0  0  0  0  0  0  0
    2.3773    2.3867    0.1890 H   0  0  0  0  0  0  0  0  0  0  0  0
    3.9212    2.8926   -0.4506 H   0  0  0  0  0  0  0  0  0  0  0  0
    4.0444    0.7873   -1.8246 H   0  0  0  0  0  0  0  0  0  0  0  0
    2.4966    0.2776   -1.1742 H   0  0  0  0  0  0  0  0  0  0  0  0
  1  9  1  0  0  0  0
  1  4  1  0  0  0  0
  2 12  1  0  0  0  0
  2 13  1  0  0  0  0
  3 15  1  0  0  0  0
  3  7  1  0  0  0  0
  4 19  1  0  0  0  0
  4 18  1  0  0  0  0
  5  4  1  0  0  0  0
  5  6  1  0  0  0  0
  6  8  2  0  0  0  0
  7  6  1  0  0  0  0
  7  2  1  0  0  0  0
 10  1  1  0  0  0  0
 11  1  1  0  0  0  0
 14  2  1  0  0  0  0
 16  3  1  0  0  0  0
 17  3  1  0  0  0  0
 20  5  1  0  0  0  0
 21  5  1  0  0  0  0
M  END
>  <HBA>
2

>  <HBD>
0

>  <TPSA>
20.31

>  <cid>
12973

>  <dipole>
3.42

>  <excitation_energy_1>
5.668

>  <excitation_energy_2>
5.751

>  <excitation_energy_3>
6.116

>  <excitation_energy_4>
6.356

>  <homo_energy>
-6.343

>  <homo_lumo_gap>
7.287

>  <logP>
0.875

>  <lumo_energy>
0.944

>  <melting_point>
-2.54

>  <molecular_refractivity>
34.05

>  <oscillator_strength_1>
0.0007

>  <oscillator_strength_2>
0.0198

>  <oscillator_strength_3>
0.0096

>  <oscillator_strength_4>
0.0053

>  <open_babel_can_smiles>
CCCC(=O)N(C)C

>  <mulliken_charges>
21
1   -0.448625
2   -0.321006
3   -0.315076
4   -0.235471
5   -0.373202
6   0.602795
7   -0.411016
8   -0.519905
9   0.146783
10   0.137563
11   0.13744
12   0.14784
13   0.20626
14   0.147732
15   0.156517
16   0.156063
17   0.17165
18   0.152744
19   0.152775
20   0.15388
21   0.15426

>  <lowdin_charges>
21
1   -0.445194
2   -0.357685
3   -0.354223
4   -0.267103
5   -0.310421
6   0.161504
7   -0.112327
8   -0.315925
9   0.150793
10   0.144169
11   0.144181
12   0.147032
13   0.186125
14   0.14542
15   0.149966
16   0.148755
17   0.167584
18   0.153339
19   0.153435
20   0.155117
21   0.15546

$$$$

