PCCDB-ID:  49971
public computational chemistry database (PCCDB) project, http://pccdb.org

 25 27  0  0  0  0  0  0  0  0999 V2000
    0.9064   -0.0367   -0.0709 C   0  0  0  0  0  0  0  0  0  0  0  0
    4.6032   -1.1194   -0.0886 C   0  0  0  0  0  0  0  0  0  0  0  0
    3.1760   -1.1723   -0.0819 C   0  0  0  0  0  0  0  0  0  0  0  0
    3.7715    4.7106   -0.0816 C   0  0  0  0  0  0  0  0  0  0  0  0
    5.0051    5.2879   -0.0846 C   0  0  0  0  0  0  0  0  0  0  0  0
    5.2567    0.0750   -0.0912 C   0  0  0  0  0  0  0  0  0  0  0  0
    2.4098   -0.0293   -0.0776 C   0  0  0  0  0  0  0  0  0  0  0  0
    3.6722    3.2840   -0.0815 C   0  0  0  0  0  0  0  0  0  0  0  0
    6.2585    4.5259   -0.0897 C   0  0  0  0  0  0  0  0  0  0  0  0
    3.0762    1.2285   -0.0801 C   0  0  0  0  0  0  0  0  0  0  0  0
    4.8584    2.5550   -0.0868 C   0  0  0  0  0  0  0  0  0  0  0  0
    7.4717    4.9638   -0.0922 N   0  0  0  0  0  0  0  0  0  0  0  0
    2.5790    2.4547   -0.0769 N   0  0  0  0  0  0  0  0  0  0  0  0
    6.0961    3.1265   -0.0926 N   0  0  0  0  0  0  0  0  0  0  0  0
    4.5074    1.2357   -0.0868 N   0  0  0  0  0  0  0  0  0  0  0  0
    0.5196   -1.0598   -0.0715 H   0  0  0  0  0  0  0  0  0  0  0  0
    0.5102    0.4909   -0.9460 H   0  0  0  0  0  0  0  0  0  0  0  0
    0.5179    0.4870    0.8100 H   0  0  0  0  0  0  0  0  0  0  0  0
    5.1836   -2.0355   -0.0920 H   0  0  0  0  0  0  0  0  0  0  0  0
    2.6863   -2.1417   -0.0797 H   0  0  0  0  0  0  0  0  0  0  0  0
    2.8675    5.3125   -0.0779 H   0  0  0  0  0  0  0  0  0  0  0  0
    5.1076    6.3687   -0.0854 H   0  0  0  0  0  0  0  0  0  0  0  0
    6.3349    0.1824   -0.0950 H   0  0  0  0  0  0  0  0  0  0  0  0
    7.4740    5.9843   -0.0898 H   0  0  0  0  0  0  0  0  0  0  0  0
    6.9559    2.5927   -0.0986 H   0  0  0  0  0  0  0  0  0  0  0  0
  1 18  1  0  0  0  0
  2  3  1  0  0  0  0
  3 20  1  0  0  0  0
  3  7  2  0  0  0  0
  4  8  1  0  0  0  0
  4 21  1  0  0  0  0
  5  4  2  0  0  0  0
  6  2  2  0  0  0  0
  6 15  1  0  0  0  0
  7  1  1  0  0  0  0
  8 13  1  0  0  0  0
  9  5  1  0  0  0  0
 10  7  1  0  0  0  0
 10 13  2  0  0  0  0
 11  8  2  0  0  0  0
 12 24  1  0  0  0  0
 12  9  2  0  0  0  0
 14  9  1  0  0  0  0
 14 11  1  0  0  0  0
 15 11  1  0  0  0  0
 15 10  1  0  0  0  0
 16  1  1  0  0  0  0
 17  1  1  0  0  0  0
 19  2  1  0  0  0  0
 22  5  1  0  0  0  0
 23  6  1  0  0  0  0
 25 14  1  0  0  0  0
M  END
>  <HBA>
4

>  <HBD>
1

>  <TPSA>
56.21

>  <cid>
49971

>  <dipole>
2.54

>  <excitation_energy_1>
3.019

>  <excitation_energy_2>
4.059

>  <excitation_energy_3>
4.121

>  <excitation_energy_4>
4.229

>  <homo_energy>
-4.901

>  <homo_lumo_gap>
3.467

>  <logP>
2.354

>  <lumo_energy>
-1.434

>  <melting_point>
172.22

>  <molecular_refractivity>
59.86

>  <oscillator_strength_1>
0.17

>  <oscillator_strength_2>
0.0013

>  <oscillator_strength_3>
0.0451

>  <oscillator_strength_4>
0.0004

>  <open_babel_can_smiles>
N=c1ccc2c([nH]1)n1cccc(c1n2)C

>  <mulliken_charges>
25
1   -0.512935
2   -0.18722
3   -0.180173
4   -0.116768
5   -0.21369
6   0.060762
7   0.116645
8   0.206823
9   0.501613
10   0.475149
11   0.605789
12   -0.681275
13   -0.588242
14   -0.762846
15   -0.583618
16   0.150202
17   0.178673
18   0.178615
19   0.147527
20   0.134714
21   0.155791
22   0.137793
23   0.161435
24   0.279961
25   0.335274

>  <lowdin_charges>
25
1   -0.431807
2   -0.173996
3   -0.180019
4   -0.122884
5   -0.201794
6   -0.117431
7   0.002351
8   -0.023858
9   0.094894
10   0.060702
11   0.059673
12   -0.464417
13   -0.200109
14   -0.212505
15   0.020459
16   0.155712
17   0.172647
18   0.17257
19   0.171579
20   0.162829
21   0.174776
22   0.164657
23   0.166741
24   0.250995
25   0.298235

$$$$

