PCCDB-ID:  14491
public computational chemistry database (PCCDB) project, http://pccdb.org

 22 21  0  0  0  0  0  0  0  0999 V2000
    2.0887   -0.3087   -0.7497 C   0  0  0  0  0  0  0  0  0  0  0  0
    1.6590   -1.0337    0.5338 C   0  0  0  0  0  0  0  0  0  0  0  0
    3.2511    0.6645   -0.5196 C   0  0  0  0  0  0  0  0  0  0  0  0
    0.5616   -2.0904    0.3350 C   0  0  0  0  0  0  0  0  0  0  0  0
    3.7193    1.4126   -1.7728 C   0  0  0  0  0  0  0  0  0  0  0  0
   -0.7845   -1.5739   -0.1890 C   0  0  0  0  0  0  0  0  0  0  0  0
    4.4569    0.3581   -3.0980 S   0  0  0  0  0  0  0  0  0  0  0  0
   -1.6989   -0.4362    0.9433 S   0  0  0  0  0  0  0  0  0  0  0  0
    1.2406    0.2506   -1.1712 H   0  0  0  0  0  0  0  0  0  0  0  0
    2.3788   -1.0456   -1.5096 H   0  0  0  0  0  0  0  0  0  0  0  0
    1.3313   -0.3016    1.2849 H   0  0  0  0  0  0  0  0  0  0  0  0
    2.5355   -1.5335    0.9688 H   0  0  0  0  0  0  0  0  0  0  0  0
    4.1026    0.1270   -0.0789 H   0  0  0  0  0  0  0  0  0  0  0  0
    2.9521    1.4197    0.2230 H   0  0  0  0  0  0  0  0  0  0  0  0
    0.3903   -2.6129    1.2839 H   0  0  0  0  0  0  0  0  0  0  0  0
    0.9208   -2.8456   -0.3804 H   0  0  0  0  0  0  0  0  0  0  0  0
    4.4403    2.1930   -1.5122 H   0  0  0  0  0  0  0  0  0  0  0  0
    2.8745    1.9075   -2.2647 H   0  0  0  0  0  0  0  0  0  0  0  0
   -1.4748   -2.4128   -0.3223 H   0  0  0  0  0  0  0  0  0  0  0  0
   -0.6827   -1.0900   -1.1645 H   0  0  0  0  0  0  0  0  0  0  0  0
    5.5347   -0.0481   -2.3907 H   0  0  0  0  0  0  0  0  0  0  0  0
   -0.8735    0.6265    0.8298 H   0  0  0  0  0  0  0  0  0  0  0  0
  1  3  1  0  0  0  0
  1  2  1  0  0  0  0
  2 12  1  0  0  0  0
  2 11  1  0  0  0  0
  3 13  1  0  0  0  0
  3 14  1  0  0  0  0
  4  2  1  0  0  0  0
  4 15  1  0  0  0  0
  5 17  1  0  0  0  0
  5  3  1  0  0  0  0
  6  4  1  0  0  0  0
  6  8  1  0  0  0  0
  7 21  1  0  0  0  0
  7  5  1  0  0  0  0
  9  1  1  0  0  0  0
 10  1  1  0  0  0  0
 16  4  1  0  0  0  0
 18  5  1  0  0  0  0
 19  6  1  0  0  0  0
 20  6  1  0  0  0  0
 22  8  1  0  0  0  0
M  END
>  <HBA>
2

>  <HBD>
2

>  <TPSA>
77.6

>  <cid>
14491

>  <dipole>
1.65

>  <excitation_energy_1>
5.243

>  <excitation_energy_2>
5.255

>  <excitation_energy_3>
5.74

>  <excitation_energy_4>
5.847

>  <homo_energy>
-6.416

>  <homo_lumo_gap>
7.119

>  <logP>
2.406

>  <lumo_energy>
0.702

>  <melting_point>
13.96

>  <molecular_refractivity>
46.81

>  <oscillator_strength_1>
0.0134

>  <oscillator_strength_2>
0.014

>  <oscillator_strength_3>
0.0117

>  <oscillator_strength_4>
0.0317

>  <open_babel_can_smiles>
SCCCCCCS

>  <mulliken_charges>
22
1   -0.257355
2   -0.262027
3   -0.247944
4   -0.245078
5   -0.414769
6   -0.418377
7   -0.088263
8   -0.088131
9   0.126195
10   0.160653
11   0.134532
12   0.135702
13   0.137371
14   0.139386
15   0.150632
16   0.139086
17   0.177757
18   0.17681
19   0.179899
20   0.180264
21   0.092821
22   0.090836

>  <lowdin_charges>
22
1   -0.283612
2   -0.280991
3   -0.279441
4   -0.280191
5   -0.371637
6   -0.372853
7   -0.092914
8   -0.094637
9   0.137465
10   0.154732
11   0.142538
12   0.146069
13   0.144132
14   0.147145
15   0.153104
16   0.147501
17   0.162689
18   0.167297
19   0.170831
20   0.159819
21   0.112294
22   0.11066

$$$$

