PCCDB-ID:  59708
public computational chemistry database (PCCDB) project, http://pccdb.org

 26 26  0  0  1  0  0  0  0  0999 V2000
    1.1453    0.1779   -0.0944 C   0  0  0  0  0  0  0  0  0  0  0  0
    2.5947   -0.0271   -0.5447 C   0  0  0  0  0  0  0  0  0  0  0  0
    6.9640   -1.6988    0.0100 C   0  0  0  0  0  0  0  0  0  0  0  0
    6.7011   -1.2443   -1.4350 C   0  0  0  0  0  0  0  0  0  0  0  0
    5.6328   -1.4092    0.7328 C   0  0  0  0  0  0  0  0  0  0  0  0
    3.1939   -1.3643   -0.0505 C   0  0  1  0  0  0  0  0  0  0  0  0
    5.1905   -1.3639   -1.5854 C   0  0  0  0  0  0  0  0  0  0  0  0
    2.3983   -2.5822   -0.5575 C   0  0  0  0  0  0  0  0  0  0  0  0
    1.6892   -3.3472    0.1750 N   0  0  0  0  0  0  0  0  0  0  0  0
    4.6392   -1.4623   -0.3444 N   0  0  0  0  0  0  0  0  0  0  0  0
    4.5666   -1.3602   -2.6512 O   0  0  0  0  0  0  0  0  0  0  0  0
    2.4121   -2.7885   -1.8853 O   0  0  0  0  0  0  0  0  0  0  0  0
    0.7756    1.1515   -0.4326 H   0  0  0  0  0  0  0  0  0  0  0  0
    1.0564    0.1500    0.9989 H   0  0  0  0  0  0  0  0  0  0  0  0
    0.4854   -0.5936   -0.5033 H   0  0  0  0  0  0  0  0  0  0  0  0
    3.2268    0.7832   -0.1583 H   0  0  0  0  0  0  0  0  0  0  0  0
    2.6611    0.0150   -1.6356 H   0  0  0  0  0  0  0  0  0  0  0  0
    7.8073   -1.1902    0.4838 H   0  0  0  0  0  0  0  0  0  0  0  0
    7.1659   -2.7746    0.0315 H   0  0  0  0  0  0  0  0  0  0  0  0
    7.2104   -1.8374   -2.1981 H   0  0  0  0  0  0  0  0  0  0  0  0
    6.9761   -0.1939   -1.5977 H   0  0  0  0  0  0  0  0  0  0  0  0
    5.6290   -0.4170    1.2085 H   0  0  0  0  0  0  0  0  0  0  0  0
    5.4003   -2.1517    1.5034 H   0  0  0  0  0  0  0  0  0  0  0  0
    3.1246   -1.3816    1.0413 H   0  0  0  0  0  0  0  0  0  0  0  0
    1.7520   -3.0563    1.1513 H   0  0  0  0  0  0  0  0  0  0  0  0
    3.0947   -2.2191   -2.3188 H   0  0  0  0  0  0  0  0  0  0  0  0
  1 14  1  0  0  0  0
  2 16  1  0  0  0  0
  2  1  1  0  0  0  0
  2  6  1  0  0  0  0
  3 19  1  0  0  0  0
  3 18  1  0  0  0  0
  3  5  1  0  0  0  0
  4  3  1  0  0  0  0
  5 22  1  0  0  0  0
  5 23  1  0  0  0  0
  6 24  1  1  0  0  0
  7  4  1  0  0  0  0
  7 10  1  0  0  0  0
  8  6  1  0  0  0  0
  8  9  2  0  0  0  0
  9 25  1  0  0  0  0
 10  6  1  0  0  0  0
 10  5  1  0  0  0  0
 11  7  2  0  0  0  0
 12  8  1  0  0  0  0
 13  1  1  0  0  0  0
 15  1  1  0  0  0  0
 17  2  1  0  0  0  0
 20  4  1  0  0  0  0
 21  4  1  0  0  0  0
 26 12  1  0  0  0  0
M  END
>  <HBA>
4

>  <HBD>
1

>  <TPSA>
63.4

>  <cid>
59708

>  <dipole>
7.08

>  <excitation_energy_1>
5.703

>  <excitation_energy_2>
5.8

>  <excitation_energy_3>
5.846

>  <excitation_energy_4>
6.071

>  <homo_energy>
-6.596

>  <homo_lumo_gap>
6.637

>  <logP>
0.511

>  <lumo_energy>
0.041

>  <melting_point>
94.35

>  <molecular_refractivity>
48.37

>  <oscillator_strength_1>
0.004

>  <oscillator_strength_2>
0.0056

>  <oscillator_strength_3>
0.0161

>  <oscillator_strength_4>
0.0079

>  <open_babel_can_smiles>
CC[C@H](N1CCCC1=O)C(=N)O

>  <mulliken_charges>
26
1   -0.458793
2   -0.261563
3   -0.304262
4   -0.366465
5   -0.124387
6   -0.082634
7   0.611168
8   0.506845
9   -0.59379
10   -0.422586
11   -0.555719
12   -0.610258
13   0.153306
14   0.139288
15   0.181635
16   0.136472
17   0.174792
18   0.159467
19   0.170616
20   0.185405
21   0.178927
22   0.154462
23   0.166936
24   0.140441
25   0.272616
26   0.448081

>  <lowdin_charges>
26
1   -0.446856
2   -0.281249
3   -0.280107
4   -0.298574
5   -0.192407
6   -0.084644
7   0.163968
8   0.120005
9   -0.406739
10   -0.094932
11   -0.325448
12   -0.374709
13   0.157197
14   0.143717
15   0.167563
16   0.145993
17   0.161159
18   0.15999
19   0.158373
20   0.176568
21   0.170264
22   0.142498
23   0.156527
24   0.152907
25   0.246882
26   0.362053

$$$$

