PCCDB-ID:  22578
public computational chemistry database (PCCDB) project, http://pccdb.org

 18 17  0  0  0  0  0  0  0  0999 V2000
    0.4162    0.4816   -0.0492 C   0  0  0  0  0  0  0  0  0  0  0  0
    1.1122   -2.5417   -0.8125 C   0  0  0  0  0  0  0  0  0  0  0  0
    5.3327   -2.9541    0.3339 C   0  0  0  0  0  0  0  0  0  0  0  0
    1.7636   -0.1792   -0.0626 C   0  0  0  0  0  0  0  0  0  0  0  0
    2.0356   -1.4475   -0.3734 C   0  0  0  0  0  0  0  0  0  0  0  0
    3.8607   -2.6866    0.5440 C   0  0  0  0  0  0  0  0  0  0  0  0
    3.1759   -3.1611    1.4194 O   0  0  0  0  0  0  0  0  0  0  0  0
    3.4046   -1.8116   -0.3977 O   0  0  0  0  0  0  0  0  0  0  0  0
    0.1873    0.8738    0.9505 H   0  0  0  0  0  0  0  0  0  0  0  0
   -0.3935   -0.1955   -0.3334 H   0  0  0  0  0  0  0  0  0  0  0  0
    0.3945    1.3383   -0.7360 H   0  0  0  0  0  0  0  0  0  0  0  0
    0.0796   -2.1934   -0.8819 H   0  0  0  0  0  0  0  0  0  0  0  0
    1.1504   -3.3777   -0.1069 H   0  0  0  0  0  0  0  0  0  0  0  0
    1.4152   -2.9189   -1.7976 H   0  0  0  0  0  0  0  0  0  0  0  0
    5.6693   -3.7080    1.0462 H   0  0  0  0  0  0  0  0  0  0  0  0
    5.9029   -2.0300    0.4775 H   0  0  0  0  0  0  0  0  0  0  0  0
    5.5158   -3.2942   -0.6902 H   0  0  0  0  0  0  0  0  0  0  0  0
    2.6113    0.4467    0.2106 H   0  0  0  0  0  0  0  0  0  0  0  0
  1  9  1  0  0  0  0
  2  5  1  0  0  0  0
  2 13  1  0  0  0  0
  3 16  1  0  0  0  0
  3  6  1  0  0  0  0
  3 15  1  0  0  0  0
  4  1  1  0  0  0  0
  4 18  1  0  0  0  0
  5  4  2  0  0  0  0
  6  7  2  0  0  0  0
  8  5  1  0  0  0  0
  8  6  1  0  0  0  0
 10  1  1  0  0  0  0
 11  1  1  0  0  0  0
 12  2  1  0  0  0  0
 14  2  1  0  0  0  0
 17  3  1  0  0  0  0
M  END
>  <HBA>
2

>  <HBD>
0

>  <TPSA>
26.3

>  <cid>
22578

>  <dipole>
1.67

>  <excitation_energy_1>
5.489

>  <excitation_energy_2>
5.943

>  <excitation_energy_3>
6.014

>  <excitation_energy_4>
6.416

>  <homo_energy>
-6.455

>  <homo_lumo_gap>
6.661

>  <logP>
1.473

>  <lumo_energy>
0.207

>  <melting_point>
-0.91

>  <molecular_refractivity>
31.77

>  <oscillator_strength_1>
0.0224

>  <oscillator_strength_2>
0.0107

>  <oscillator_strength_3>
0.0027

>  <oscillator_strength_4>
0.007

>  <open_babel_can_smiles>
C/C=C(/OC(=O)C)\C

>  <mulliken_charges>
18
1   -0.490692
2   -0.527223
3   -0.522648
4   -0.149792
5   0.367854
6   0.597025
7   -0.455735
8   -0.491822
9   0.163198
10   0.156231
11   0.158873
12   0.158968
13   0.192848
14   0.16229
15   0.18269
16   0.183651
17   0.181135
18   0.13315

>  <lowdin_charges>
18
1   -0.437001
2   -0.451665
3   -0.465419
4   -0.18729
5   0.095569
6   0.207667
7   -0.255224
8   -0.179383
9   0.160942
10   0.156848
11   0.15913
12   0.162167
13   0.177428
14   0.161963
15   0.176664
16   0.179262
17   0.176365
18   0.161975

$$$$

