PCCDB-ID:  30155
public computational chemistry database (PCCDB) project, http://pccdb.org

 34 34  0  0  0  0  0  0  0  0999 V2000
    1.0818    0.6265   -0.0050 C   0  0  0  0  0  0  0  0  0  0  0  0
    3.3696    1.3380    0.4828 C   0  0  0  0  0  0  0  0  0  0  0  0
    0.6164   -2.2591    0.3578 C   0  0  0  0  0  0  0  0  0  0  0  0
    2.2787   -3.2086    1.8548 C   0  0  0  0  0  0  0  0  0  0  0  0
    4.2711   -1.2100    1.0175 C   0  0  0  0  0  0  0  0  0  0  0  0
    2.9642   -0.0181   -1.5851 C   0  0  0  0  0  0  0  0  0  0  0  0
    2.5799   -1.3284   -2.2971 C   0  0  0  0  0  0  0  0  0  0  0  0
    2.7454   -3.2150   -0.6356 C   0  0  0  0  0  0  0  0  0  0  0  0
    2.5529    0.1489   -0.0904 C   0  0  0  0  0  0  0  0  0  0  0  0
    2.1477   -2.3703    0.5538 C   0  0  0  0  0  0  0  0  0  0  0  0
    3.2672   -2.5239   -1.8119 N   0  0  0  0  0  0  0  0  0  0  0  0
    2.8308   -1.0541    0.7672 N   0  0  0  0  0  0  0  0  0  0  0  0
    1.0281    1.6626   -0.3561 H   0  0  0  0  0  0  0  0  0  0  0  0
    0.7285    0.6036    1.0303 H   0  0  0  0  0  0  0  0  0  0  0  0
    0.3890    0.0541   -0.6207 H   0  0  0  0  0  0  0  0  0  0  0  0
    3.1151    2.2489   -0.0687 H   0  0  0  0  0  0  0  0  0  0  0  0
    4.4499    1.2028    0.3946 H   0  0  0  0  0  0  0  0  0  0  0  0
    3.1236    1.4978    1.5386 H   0  0  0  0  0  0  0  0  0  0  0  0
    0.1937   -3.2645    0.4491 H   0  0  0  0  0  0  0  0  0  0  0  0
    0.3158   -1.8882   -0.6218 H   0  0  0  0  0  0  0  0  0  0  0  0
    0.1574   -1.6336    1.1271 H   0  0  0  0  0  0  0  0  0  0  0  0
    1.7638   -4.1675    1.7277 H   0  0  0  0  0  0  0  0  0  0  0  0
    1.8146   -2.6772    2.6923 H   0  0  0  0  0  0  0  0  0  0  0  0
    3.3096   -3.4409    2.1338 H   0  0  0  0  0  0  0  0  0  0  0  0
    4.6206   -0.4956    1.7698 H   0  0  0  0  0  0  0  0  0  0  0  0
    4.9026   -1.0824    0.1226 H   0  0  0  0  0  0  0  0  0  0  0  0
    4.4878   -2.2018    1.4078 H   0  0  0  0  0  0  0  0  0  0  0  0
    2.5563    0.8318   -2.1524 H   0  0  0  0  0  0  0  0  0  0  0  0
    4.0567    0.0799   -1.6685 H   0  0  0  0  0  0  0  0  0  0  0  0
    2.8265   -1.2082   -3.3619 H   0  0  0  0  0  0  0  0  0  0  0  0
    1.5001   -1.5077   -2.2635 H   0  0  0  0  0  0  0  0  0  0  0  0
    1.9684   -3.9239   -0.9593 H   0  0  0  0  0  0  0  0  0  0  0  0
    3.5692   -3.8345   -0.2606 H   0  0  0  0  0  0  0  0  0  0  0  0
    4.2505   -2.3081   -1.6795 H   0  0  0  0  0  0  0  0  0  0  0  0
  1 14  1  0  0  0  0
  2 18  1  0  0  0  0
  3 19  1  0  0  0  0
  3 10  1  0  0  0  0
  3 21  1  0  0  0  0
  4 24  1  0  0  0  0
  4 23  1  0  0  0  0
  5 27  1  0  0  0  0
  5 25  1  0  0  0  0
  6  9  1  0  0  0  0
  7 31  1  0  0  0  0
  7 11  1  0  0  0  0
  7  6  1  0  0  0  0
  8 33  1  0  0  0  0
  8 10  1  0  0  0  0
  9  1  1  0  0  0  0
  9  2  1  0  0  0  0
  9 12  1  0  0  0  0
 10 12  1  0  0  0  0
 10  4  1  0  0  0  0
 11 34  1  0  0  0  0
 11  8  1  0  0  0  0
 12  5  1  0  0  0  0
 13  1  1  0  0  0  0
 15  1  1  0  0  0  0
 16  2  1  0  0  0  0
 17  2  1  0  0  0  0
 20  3  1  0  0  0  0
 22  4  1  0  0  0  0
 26  5  1  0  0  0  0
 28  6  1  0  0  0  0
 29  6  1  0  0  0  0
 30  7  1  0  0  0  0
 32  8  1  0  0  0  0
M  END
>  <HBA>
2

>  <HBD>
1

>  <TPSA>
15.27

>  <cid>
30155

>  <dipole>
0.72

>  <excitation_energy_1>
4.614

>  <excitation_energy_2>
4.931

>  <excitation_energy_3>
5.021

>  <excitation_energy_4>
5.092

>  <homo_energy>
-5.083

>  <homo_lumo_gap>
7.015

>  <logP>
1.735

>  <lumo_energy>
1.932

>  <melting_point>
45.22

>  <molecular_refractivity>
61.67

>  <oscillator_strength_1>
0.0023

>  <oscillator_strength_2>
0.0158

>  <oscillator_strength_3>
0.0029

>  <oscillator_strength_4>
0.008

>  <open_babel_can_smiles>
CN1C(C)(C)CCNCC1(C)C

>  <mulliken_charges>
34
1   -0.455011
2   -0.458983
3   -0.4675
4   -0.4524
5   -0.31381
6   -0.270308
7   -0.145545
8   -0.143004
9   0.230927
10   0.217255
11   -0.543441
12   -0.414844
13   0.135444
14   0.150273
15   0.141772
16   0.139326
17   0.143963
18   0.151415
19   0.140702
20   0.147143
21   0.151499
22   0.138588
23   0.151084
24   0.140609
25   0.152994
26   0.115841
27   0.144282
28   0.123253
29   0.120376
30   0.136529
31   0.139427
32   0.133688
33   0.126438
34   0.292016

>  <lowdin_charges>
34
1   -0.449293
2   -0.443055
3   -0.449813
4   -0.446663
5   -0.363266
6   -0.303804
7   -0.204381
8   -0.223483
9   0.075861
10   0.056168
11   -0.359704
12   -0.201148
13   0.146902
14   0.152745
15   0.150706
16   0.149734
17   0.147184
18   0.15243
19   0.150105
20   0.146234
21   0.155748
22   0.148082
23   0.155532
24   0.144271
25   0.148808
26   0.120586
27   0.151777
28   0.144468
29   0.133601
30   0.14119
31   0.140508
32   0.140309
33   0.142755
34   0.248908

$$$$

