PCCDB-ID:  29073
public computational chemistry database (PCCDB) project, http://pccdb.org

 39 40  0  0  1  0  0  0  0  0999 V2000
    1.0074    0.1047    0.0011 C   0  0  0  0  0  0  0  0  0  0  0  0
    4.7929   -2.3089   -1.8405 C   0  0  0  0  0  0  0  0  0  0  0  0
    7.6913   -0.2729   -1.3858 C   0  0  0  0  0  0  0  0  0  0  0  0
    7.3283    1.1563    0.6090 C   0  0  0  0  0  0  0  0  0  0  0  0
    7.3605   -2.7461    0.4831 C   0  0  0  0  0  0  0  0  0  0  0  0
    5.8578   -3.0074    0.2677 C   0  0  0  0  0  0  0  0  0  0  0  0
    3.1980   -0.2746    1.1340 C   0  0  0  0  0  0  0  0  0  0  0  0
    3.2248    0.4374   -1.2390 C   0  0  0  0  0  0  0  0  0  0  0  0
    7.6167   -1.3004    0.9257 C   0  0  0  0  0  0  0  0  0  0  0  0
    4.7031   -0.3175    1.2218 C   0  0  0  0  0  0  0  0  0  0  0  0
    4.7607    0.5350   -1.1136 C   0  0  0  0  0  0  0  0  0  0  0  0
    2.5129    0.0725    0.0398 C   0  0  0  0  0  0  0  0  0  0  0  0
    5.2708   -1.9470   -0.6439 C   0  0  0  0  0  0  0  0  0  0  0  0
    6.9944   -0.2217   -0.0053 C   0  0  0  0  0  0  0  0  0  0  0  0
    5.4182   -0.4927   -0.1548 C   0  0  2  0  0  0  0  0  0  0  0  0
    0.5706   -0.1874    0.9618 H   0  0  0  0  0  0  0  0  0  0  0  0
    0.6156   -0.5747   -0.7694 H   0  0  0  0  0  0  0  0  0  0  0  0
    0.6350    1.1079   -0.2507 H   0  0  0  0  0  0  0  0  0  0  0  0
    4.7645   -3.3564   -2.1325 H   0  0  0  0  0  0  0  0  0  0  0  0
    4.4254   -1.6057   -2.5786 H   0  0  0  0  0  0  0  0  0  0  0  0
    8.7801   -0.2784   -1.2531 H   0  0  0  0  0  0  0  0  0  0  0  0
    7.4459    0.6070   -1.9904 H   0  0  0  0  0  0  0  0  0  0  0  0
    7.4177   -1.1591   -1.9642 H   0  0  0  0  0  0  0  0  0  0  0  0
    8.4170    1.2891    0.6245 H   0  0  0  0  0  0  0  0  0  0  0  0
    6.9812    1.2579    1.6422 H   0  0  0  0  0  0  0  0  0  0  0  0
    6.9137    1.9862    0.0277 H   0  0  0  0  0  0  0  0  0  0  0  0
    7.8929   -2.9486   -0.4550 H   0  0  0  0  0  0  0  0  0  0  0  0
    7.7643   -3.4430    1.2289 H   0  0  0  0  0  0  0  0  0  0  0  0
    5.3500   -3.0159    1.2415 H   0  0  0  0  0  0  0  0  0  0  0  0
    5.7041   -4.0007   -0.1691 H   0  0  0  0  0  0  0  0  0  0  0  0
    2.6535   -0.5247    2.0449 H   0  0  0  0  0  0  0  0  0  0  0  0
    2.9346   -0.2866   -2.0123 H   0  0  0  0  0  0  0  0  0  0  0  0
    2.8428    1.4041   -1.6020 H   0  0  0  0  0  0  0  0  0  0  0  0
    8.6983   -1.1200    0.9903 H   0  0  0  0  0  0  0  0  0  0  0  0
    7.2297   -1.1625    1.9442 H   0  0  0  0  0  0  0  0  0  0  0  0
    4.9948   -1.1064    1.9211 H   0  0  0  0  0  0  0  0  0  0  0  0
    5.0476    0.6155    1.6872 H   0  0  0  0  0  0  0  0  0  0  0  0
    4.9994    1.5355   -0.7361 H   0  0  0  0  0  0  0  0  0  0  0  0
    5.2037    0.4737   -2.1128 H   0  0  0  0  0  0  0  0  0  0  0  0
  1 12  1  0  0  0  0
  1 16  1  0  0  0  0
  2 13  2  0  0  0  0
  3 21  1  0  0  0  0
  3 14  1  0  0  0  0
  4 24  1  0  0  0  0
  4 25  1  0  0  0  0
  5  9  1  0  0  0  0
  5 28  1  0  0  0  0
  6  5  1  0  0  0  0
  6 29  1  0  0  0  0
  7 10  1  0  0  0  0
  7 31  1  0  0  0  0
  8 11  1  0  0  0  0
  8 12  1  0  0  0  0
  9 34  1  0  0  0  0
  9 35  1  0  0  0  0
 10 37  1  0  0  0  0
 10 36  1  0  0  0  0
 11 38  1  0  0  0  0
 11 15  1  0  0  0  0
 12  7  2  0  0  0  0
 13  6  1  0  0  0  0
 14  4  1  0  0  0  0
 14  9  1  0  0  0  0
 15 13  1  6  0  0  0
 15 14  1  0  0  0  0
 15 10  1  0  0  0  0
 17  1  1  0  0  0  0
 18  1  1  0  0  0  0
 19  2  1  0  0  0  0
 20  2  1  0  0  0  0
 22  3  1  0  0  0  0
 23  3  1  0  0  0  0
 26  4  1  0  0  0  0
 27  5  1  0  0  0  0
 30  6  1  0  0  0  0
 32  8  1  0  0  0  0
 33  8  1  0  0  0  0
 39 11  1  0  0  0  0
M  END
>  <HBA>
0

>  <HBD>
0

>  <TPSA>
0.0

>  <cid>
29073

>  <dipole>
0.38

>  <excitation_energy_1>
5.484

>  <excitation_energy_2>
5.578

>  <excitation_energy_3>
5.89

>  <excitation_energy_4>
5.92

>  <homo_energy>
-6.046

>  <homo_lumo_gap>
6.773

>  <logP>
4.869

>  <lumo_energy>
0.727

>  <melting_point>
46.02

>  <molecular_refractivity>
68.52

>  <oscillator_strength_1>
0.0005

>  <oscillator_strength_2>
0.0047

>  <oscillator_strength_3>
0.003

>  <oscillator_strength_4>
0.0007

>  <open_babel_can_smiles>
CC1=CC[C@]2(CC1)C(=C)CCCC2(C)C

>  <mulliken_charges>
39
1   -0.513733
2   -0.423064
3   -0.465266
4   -0.465059
5   -0.264667
6   -0.335898
7   -0.177797
8   -0.331765
9   -0.270035
10   -0.327222
11   -0.305797
12   0.202302
13   0.234436
14   0.093061
15   0.033246
16   0.149898
17   0.150337
18   0.147009
19   0.128739
20   0.133902
21   0.134059
22   0.141119
23   0.155162
24   0.139364
25   0.142479
26   0.144023
27   0.139234
28   0.129998
29   0.142203
30   0.135302
31   0.107701
32   0.144469
33   0.134571
34   0.126588
35   0.130038
36   0.138265
37   0.147388
38   0.137025
39   0.138381

>  <lowdin_charges>
39
1   -0.439388
2   -0.370405
3   -0.451111
4   -0.445794
5   -0.277695
6   -0.274572
7   -0.196976
8   -0.278616
9   -0.277021
10   -0.282287
11   -0.278734
12   -0.012591
13   0.011071
14   0.011399
15   0.008646
16   0.154235
17   0.1542
18   0.150952
19   0.151189
20   0.15588
21   0.144171
22   0.148454
23   0.15595
24   0.147886
25   0.14556
26   0.148974
27   0.14335
28   0.144886
29   0.145423
30   0.14736
31   0.146281
32   0.148769
33   0.146567
34   0.140414
35   0.138623
36   0.148275
37   0.153138
38   0.146286
39   0.147249

$$$$

