PCCDB-ID:  6503
public computational chemistry database (PCCDB) project, http://pccdb.org

 19 18  0  0  0  0  0  0  0  0999 V2000
    1.0729    0.0233   -0.1732 C   0  0  0  0  0  0  0  0  0  0  0  0
    1.1858   -0.4459    2.3134 C   0  0  0  0  0  0  0  0  0  0  0  0
    0.9966    1.9223    1.5223 C   0  0  0  0  0  0  0  0  0  0  0  0
    0.5892    0.4679    1.2244 C   0  0  0  0  0  0  0  0  0  0  0  0
   -0.8852    0.4121    1.3376 N   0  0  0  0  0  0  0  0  0  0  0  0
    0.5354   -1.2360   -0.5518 O   0  0  0  0  0  0  0  0  0  0  0  0
    0.7741   -1.8164    2.1818 O   0  0  0  0  0  0  0  0  0  0  0  0
    0.4856    2.3630    2.7677 O   0  0  0  0  0  0  0  0  0  0  0  0
    2.1760    0.0154   -0.2035 H   0  0  0  0  0  0  0  0  0  0  0  0
    0.7309    0.7418   -0.9288 H   0  0  0  0  0  0  0  0  0  0  0  0
    0.9263   -0.0560    3.3027 H   0  0  0  0  0  0  0  0  0  0  0  0
    2.2769   -0.4568    2.2242 H   0  0  0  0  0  0  0  0  0  0  0  0
    0.6419    2.5653    0.6960 H   0  0  0  0  0  0  0  0  0  0  0  0
    2.0872    2.0213    1.5650 H   0  0  0  0  0  0  0  0  0  0  0  0
   -1.1834   -0.5055    1.0038 H   0  0  0  0  0  0  0  0  0  0  0  0
   -1.2843    1.0610    0.6553 H   0  0  0  0  0  0  0  0  0  0  0  0
    0.7266   -1.8438    0.1878 H   0  0  0  0  0  0  0  0  0  0  0  0
   -0.1138   -1.8918    2.5652 H   0  0  0  0  0  0  0  0  0  0  0  0
   -0.4161    1.9937    2.8142 H   0  0  0  0  0  0  0  0  0  0  0  0
  1  4  1  0  0  0  0
  2 11  1  0  0  0  0
  3 14  1  0  0  0  0
  3  8  1  0  0  0  0
  4  5  1  0  0  0  0
  4  3  1  0  0  0  0
  4  2  1  0  0  0  0
  6  1  1  0  0  0  0
  6 17  1  0  0  0  0
  7  2  1  0  0  0  0
  7 18  1  0  0  0  0
  8 19  1  0  0  0  0
  9  1  1  0  0  0  0
 10  1  1  0  0  0  0
 12  2  1  0  0  0  0
 13  3  1  0  0  0  0
 15  5  1  0  0  0  0
 16  5  1  0  0  0  0
M  END
>  <HBA>
4

>  <HBD>
4

>  <TPSA>
86.71

>  <cid>
6503

>  <dipole>
0.92

>  <excitation_energy_1>
5.902

>  <excitation_energy_2>
6.365

>  <excitation_energy_3>
6.576

>  <excitation_energy_4>
6.627

>  <homo_energy>
-6.874

>  <homo_lumo_gap>
8.071

>  <logP>
-1.639

>  <lumo_energy>
1.197

>  <melting_point>
95.89

>  <molecular_refractivity>
27.57

>  <oscillator_strength_1>
0.0111

>  <oscillator_strength_2>
0.0065

>  <oscillator_strength_3>
0.0218

>  <oscillator_strength_4>
0.0033

>  <open_babel_can_smiles>
OCC(CO)(CO)N

>  <mulliken_charges>
19
1   -0.022514
2   -0.044581
3   -0.019273
4   0.080174
5   -0.755484
6   -0.641325
7   -0.632476
8   -0.62682
9   0.119017
10   0.132377
11   0.159204
12   0.151627
13   0.11672
14   0.144576
15   0.307917
16   0.304837
17   0.412702
18   0.406504
19   0.406818

>  <lowdin_charges>
19
1   -0.145267
2   -0.142187
3   -0.135407
4   -0.002598
5   -0.559013
6   -0.481654
7   -0.463878
8   -0.466836
9   0.125782
10   0.141958
11   0.151294
12   0.14884
13   0.126811
14   0.146195
15   0.2586
16   0.260431
17   0.34296
18   0.351038
19   0.34293

$$$$

