PCCDB-ID:  47724
public computational chemistry database (PCCDB) project, http://pccdb.org

 34 36  0  0  1  0  0  0  0  0999 V2000
   -0.8139    1.0812    1.2942 C   0  0  0  0  0  0  0  0  0  0  0  0
   -1.0724    0.8859   -1.2037 C   0  0  0  0  0  0  0  0  0  0  0  0
    1.1696    1.4605   -0.2094 C   0  0  0  0  0  0  0  0  0  0  0  0
   -1.1906   -1.1754    0.2426 C   0  0  0  0  0  0  0  0  0  0  0  0
    1.0564   -0.6078    1.2258 C   0  0  0  0  0  0  0  0  0  0  0  0
    0.8034   -0.7932   -1.2705 C   0  0  0  0  0  0  0  0  0  0  0  0
    0.0834   -3.8338   -0.9013 C   0  0  0  0  0  0  0  0  0  0  0  0
   -1.5324    0.3267    0.1583 C   0  0  1  0  0  0  0  0  0  0  0  0
    0.7099    0.8923    1.1486 C   0  0  2  0  0  0  0  0  0  0  0  0
    0.4530    0.7067   -1.3471 C   0  0  1  0  0  0  0  0  0  0  0  0
    0.6655   -2.8772    0.1332 C   0  0  0  0  0  0  0  0  0  0  0  0
    0.3457   -1.3902    0.0935 C   0  0  2  0  0  0  0  0  0  0  0  0
    1.4275   -3.2865    1.0795 N   0  0  0  0  0  0  0  0  0  0  0  0
   -0.7382   -4.8321   -0.3149 O   0  0  0  0  0  0  0  0  0  0  0  0
    1.6466   -4.6948    0.9937 O   0  0  0  0  0  0  0  0  0  0  0  0
   -1.1502    0.7033    2.2695 H   0  0  0  0  0  0  0  0  0  0  0  0
   -1.0685    2.1495    1.2600 H   0  0  0  0  0  0  0  0  0  0  0  0
   -1.3355    1.9495   -1.2833 H   0  0  0  0  0  0  0  0  0  0  0  0
   -1.5929    0.3669   -2.0208 H   0  0  0  0  0  0  0  0  0  0  0  0
    2.2583    1.3544   -0.3139 H   0  0  0  0  0  0  0  0  0  0  0  0
    0.9457    2.5345   -0.2683 H   0  0  0  0  0  0  0  0  0  0  0  0
   -1.7344   -1.7245   -0.5364 H   0  0  0  0  0  0  0  0  0  0  0  0
   -1.5202   -1.5863    1.2058 H   0  0  0  0  0  0  0  0  0  0  0  0
    0.7590   -1.0178    2.1982 H   0  0  0  0  0  0  0  0  0  0  0  0
    2.1409   -0.7526    1.1492 H   0  0  0  0  0  0  0  0  0  0  0  0
    1.8871   -0.9343   -1.3824 H   0  0  0  0  0  0  0  0  0  0  0  0
    0.3245   -1.3235   -2.1042 H   0  0  0  0  0  0  0  0  0  0  0  0
    0.9175   -4.2779   -1.4677 H   0  0  0  0  0  0  0  0  0  0  0  0
   -0.5487   -3.2983   -1.6115 H   0  0  0  0  0  0  0  0  0  0  0  0
   -2.6189    0.4497    0.2595 H   0  0  0  0  0  0  0  0  0  0  0  0
    1.2258    1.4189    1.9623 H   0  0  0  0  0  0  0  0  0  0  0  0
    0.7818    1.1004   -2.3181 H   0  0  0  0  0  0  0  0  0  0  0  0
   -0.1582   -5.3112    0.3016 H   0  0  0  0  0  0  0  0  0  0  0  0
    2.2082   -4.8579    1.7666 H   0  0  0  0  0  0  0  0  0  0  0  0
  1 16  1  0  0  0  0
  2  8  1  0  0  0  0
  3  9  1  0  0  0  0
  4 23  1  0  0  0  0
  5 24  1  0  0  0  0
  6 12  1  0  0  0  0
  7 14  1  0  0  0  0
  7 11  1  0  0  0  0
  8  4  1  0  0  0  0
  8 30  1  1  0  0  0
  8  1  1  0  0  0  0
  9  5  1  0  0  0  0
  9  1  1  0  0  0  0
  9 31  1  1  0  0  0
 10 32  1  6  0  0  0
 10  6  1  0  0  0  0
 10  2  1  0  0  0  0
 10  3  1  0  0  0  0
 11 13  2  0  0  0  0
 12 11  1  1  0  0  0
 12  4  1  0  0  0  0
 12  5  1  0  0  0  0
 14 33  1  0  0  0  0
 15 13  1  0  0  0  0
 15 34  1  0  0  0  0
 17  1  1  0  0  0  0
 18  2  1  0  0  0  0
 19  2  1  0  0  0  0
 20  3  1  0  0  0  0
 21  3  1  0  0  0  0
 22  4  1  0  0  0  0
 25  5  1  0  0  0  0
 26  6  1  0  0  0  0
 27  6  1  0  0  0  0
 28  7  1  0  0  0  0
 29  7  1  0  0  0  0
M  END
>  <HBA>
3

>  <HBD>
2

>  <TPSA>
52.82

>  <cid>
47724

>  <dipole>
1.63

>  <excitation_energy_1>
5.469

>  <excitation_energy_2>
6.14

>  <excitation_energy_3>
6.291

>  <excitation_energy_4>
6.338

>  <homo_energy>
-6.773

>  <homo_lumo_gap>
6.759

>  <logP>
2.025

>  <lumo_energy>
-0.014

>  <melting_point>
146.26

>  <molecular_refractivity>
58.77

>  <oscillator_strength_1>
0.0033

>  <oscillator_strength_2>
0.0401

>  <oscillator_strength_3>
0.0123

>  <oscillator_strength_4>
0.0153

>  <open_babel_can_smiles>
OC/C(=N\O)/[C@]12C[C@H]3C[C@@H](C2)C[C@@H](C1)C3

>  <mulliken_charges>
34
1   -0.264737
2   -0.266378
3   -0.264512
4   -0.278998
5   -0.268274
6   -0.286442
7   -0.071391
8   -0.090692
9   -0.095144
10   -0.089152
11   0.31122
12   0.00681
13   -0.243264
14   -0.631626
15   -0.540109
16   0.127614
17   0.125236
18   0.127809
19   0.125595
20   0.12644
21   0.125881
22   0.138249
23   0.141851
24   0.139873
25   0.137085
26   0.136494
27   0.131204
28   0.147529
29   0.149752
30   0.119708
31   0.116988
32   0.118233
33   0.415427
34   0.421721

>  <lowdin_charges>
34
1   -0.279386
2   -0.281013
3   -0.277086
4   -0.278916
5   -0.275186
6   -0.279484
7   -0.149669
8   -0.127905
9   -0.132911
10   -0.129562
11   0.013011
12   0.000964
13   -0.071371
14   -0.469106
15   -0.399586
16   0.140499
17   0.138081
18   0.13975
19   0.140515
20   0.138063
21   0.138274
22   0.147046
23   0.148264
24   0.148471
25   0.145312
26   0.142775
27   0.142261
28   0.146877
29   0.154733
30   0.139145
31   0.141277
32   0.14021
33   0.346989
34   0.358664

$$$$

