PCCDB-ID:  27510
public computational chemistry database (PCCDB) project, http://pccdb.org

 16 16  0  0  0  0  0  0  0  0999 V2000
    3.1727    1.2350    0.0941 C   0  0  0  0  0  0  0  0  0  0  0  0
    2.1551    0.0984    1.7504 C   0  0  0  0  0  0  0  0  0  0  0  0
    4.2032    1.4882    0.9449 C   0  0  0  0  0  0  0  0  0  0  0  0
    1.7366    1.2846    2.2674 C   0  0  0  0  0  0  0  0  0  0  0  0
    2.3466   -0.0716    0.2209 C   0  0  0  0  0  0  0  0  0  0  0  0
    3.9296    2.3929    2.0902 C   0  0  0  0  0  0  0  0  0  0  0  0
    2.7763    2.1831    2.8294 C   0  0  0  0  0  0  0  0  0  0  0  0
    1.9879   -0.8981   -0.5668 O   0  0  0  0  0  0  0  0  0  0  0  0
    4.8582    3.2731    2.5816 O   0  0  0  0  0  0  0  0  0  0  0  0
    2.5588    2.9798    3.9232 O   0  0  0  0  0  0  0  0  0  0  0  0
    2.4471    2.0451   -0.0230 H   0  0  0  0  0  0  0  0  0  0  0  0
    3.0432   -0.3341    2.2200 H   0  0  0  0  0  0  0  0  0  0  0  0
    4.9516    0.7117    1.1238 H   0  0  0  0  0  0  0  0  0  0  0  0
    0.8682    1.7826    1.8284 H   0  0  0  0  0  0  0  0  0  0  0  0
    5.4758    3.4816    1.8654 H   0  0  0  0  0  0  0  0  0  0  0  0
    1.8597    2.5694    4.4532 H   0  0  0  0  0  0  0  0  0  0  0  0
  1  5  1  0  0  0  0
  1  3  1  0  0  0  0
  2 12  1  0  0  0  0
  2  4  1  0  0  0  0
  3 13  1  0  0  0  0
  3  6  1  0  0  0  0
  4  7  1  0  0  0  0
  5  2  1  0  0  0  0
  6  9  1  0  0  0  0
  6  7  2  0  0  0  0
  7 10  1  0  0  0  0
  8  5  2  0  0  0  0
 10 16  1  0  0  0  0
 11  1  1  0  0  0  0
 14  4  1  0  0  0  0
 15  9  1  0  0  0  0
M  RAD  4   1   2   2   2   3   2   4   2
M  END
>  <HBA>
3

>  <HBD>
2

>  <TPSA>
57.53

>  <cid>
27510

>  <dipole>
1.5

>  <excitation_energy_1>
1.835

>  <excitation_energy_2>
2.851

>  <excitation_energy_3>
3.043

>  <excitation_energy_4>
3.601

>  <homo_energy>
-5.255

>  <homo_lumo_gap>
2.778

>  <logP>
0.458

>  <lumo_energy>
-2.476

>  <melting_point>
119.71

>  <molecular_refractivity>
36.76

>  <oscillator_strength_1>
0.0048

>  <oscillator_strength_2>
0.0251

>  <oscillator_strength_3>
0.0092

>  <oscillator_strength_4>
0.0043

>  <open_babel_can_smiles>
O=C1[CH][CH]C(=C([CH][CH]1)O)O

>  <mulliken_charges>
16
1   -0.188666
2   -0.188508
3   -0.201149
4   -0.20073
5   0.384765
6   0.253025
7   0.252991
8   -0.389007
9   -0.603648
10   -0.603534
11   0.175194
12   0.174826
13   0.154482
14   0.154361
15   0.41284
16   0.412758

>  <lowdin_charges>
16
1   -0.184982
2   -0.183466
3   -0.190555
4   -0.191857
5   0.169128
6   0.047636
7   0.04731
8   -0.168413
9   -0.369836
10   -0.370556
11   0.176804
12   0.176105
13   0.157925
14   0.158205
15   0.363041
16   0.363512

$$$$

