PCCDB-ID:  10615
public computational chemistry database (PCCDB) project, http://pccdb.org

 29 30  0  0  0  0  0  0  0  0999 V2000
    1.0052   -0.5217    0.1345 C   0  0  0  0  0  0  0  0  0  0  0  0
    7.5333   -0.4377   -0.7162 C   0  0  0  0  0  0  0  0  0  0  0  0
    1.8727   -4.3605   -2.7536 C   0  0  0  0  0  0  0  0  0  0  0  0
    6.8216   -0.2000    0.4613 C   0  0  0  0  0  0  0  0  0  0  0  0
    6.8460   -0.8506   -1.8575 C   0  0  0  0  0  0  0  0  0  0  0  0
    1.5955   -3.0719   -3.2119 C   0  0  0  0  0  0  0  0  0  0  0  0
    2.6349   -4.5360   -1.5957 C   0  0  0  0  0  0  0  0  0  0  0  0
    5.4398   -0.3753    0.5079 C   0  0  0  0  0  0  0  0  0  0  0  0
    5.4621   -1.0196   -1.8243 C   0  0  0  0  0  0  0  0  0  0  0  0
    2.0776   -1.9610   -2.5173 C   0  0  0  0  0  0  0  0  0  0  0  0
    3.1086   -3.4293   -0.8928 C   0  0  0  0  0  0  0  0  0  0  0  0
    2.4752   -0.1306    0.0642 C   0  0  0  0  0  0  0  0  0  0  0  0
    4.7493   -0.7836   -0.6418 C   0  0  0  0  0  0  0  0  0  0  0  0
    2.8255   -2.1356   -1.3478 C   0  0  0  0  0  0  0  0  0  0  0  0
    3.3288   -1.0015   -0.6212 N   0  0  0  0  0  0  0  0  0  0  0  0
    2.8832    0.8867    0.6019 O   0  0  0  0  0  0  0  0  0  0  0  0
    0.8664   -1.5791    0.3780 H   0  0  0  0  0  0  0  0  0  0  0  0
    0.4950   -0.3351   -0.8160 H   0  0  0  0  0  0  0  0  0  0  0  0
    0.5457    0.1023    0.9025 H   0  0  0  0  0  0  0  0  0  0  0  0
    8.6111   -0.3031   -0.7426 H   0  0  0  0  0  0  0  0  0  0  0  0
    1.5007   -5.2243   -3.2973 H   0  0  0  0  0  0  0  0  0  0  0  0
    7.3450    0.1189    1.3587 H   0  0  0  0  0  0  0  0  0  0  0  0
    7.3836   -1.0389   -2.7830 H   0  0  0  0  0  0  0  0  0  0  0  0
    1.0125   -2.9278   -4.1174 H   0  0  0  0  0  0  0  0  0  0  0  0
    2.8562   -5.5368   -1.2351 H   0  0  0  0  0  0  0  0  0  0  0  0
    4.8961   -0.1810    1.4229 H   0  0  0  0  0  0  0  0  0  0  0  0
    4.9332   -1.3383   -2.7166 H   0  0  0  0  0  0  0  0  0  0  0  0
    1.8845   -0.9557   -2.8809 H   0  0  0  0  0  0  0  0  0  0  0  0
    3.6999   -3.5555    0.0093 H   0  0  0  0  0  0  0  0  0  0  0  0
  1 17  1  0  0  0  0
  1 19  1  0  0  0  0
  2  4  2  0  0  0  0
  3  7  1  0  0  0  0
  4  8  1  0  0  0  0
  4 22  1  0  0  0  0
  5  9  2  0  0  0  0
  5  2  1  0  0  0  0
  6  3  2  0  0  0  0
  6 10  1  0  0  0  0
  7 25  1  0  0  0  0
  7 11  2  0  0  0  0
  8 26  1  0  0  0  0
  9 13  1  0  0  0  0
 10 14  2  0  0  0  0
 11 29  1  0  0  0  0
 12  1  1  0  0  0  0
 12 16  2  0  0  0  0
 13 15  1  0  0  0  0
 13  8  2  0  0  0  0
 14 11  1  0  0  0  0
 14 15  1  0  0  0  0
 15 12  1  0  0  0  0
 18  1  1  0  0  0  0
 20  2  1  0  0  0  0
 21  3  1  0  0  0  0
 23  5  1  0  0  0  0
 24  6  1  0  0  0  0
 27  9  1  0  0  0  0
 28 10  1  0  0  0  0
M  END
>  <HBA>
1

>  <HBD>
0

>  <TPSA>
20.31

>  <cid>
10615

>  <dipole>
3.82

>  <excitation_energy_1>
4.456

>  <excitation_energy_2>
4.551

>  <excitation_energy_3>
4.894

>  <excitation_energy_4>
4.985

>  <homo_energy>
-5.848

>  <homo_lumo_gap>
5.282

>  <logP>
3.371

>  <lumo_energy>
-0.566

>  <melting_point>
67.98

>  <molecular_refractivity>
65.89

>  <oscillator_strength_1>
0.0801

>  <oscillator_strength_2>
0.0351

>  <oscillator_strength_3>
0.0632

>  <oscillator_strength_4>
0.0204

>  <open_babel_can_smiles>
CC(=O)N(c1ccccc1)c1ccccc1

>  <mulliken_charges>
29
1   -0.540661
2   -0.123328
3   -0.120275
4   -0.147325
5   -0.141351
6   -0.14166
7   -0.142445
8   -0.130811
9   -0.160249
10   -0.145726
11   -0.130205
12   0.563498
13   0.294208
14   0.227706
15   -0.599678
16   -0.484313
17   0.172772
18   0.174853
19   0.183989
20   0.127448
21   0.136942
22   0.131765
23   0.129589
24   0.139379
25   0.140119
26   0.154886
27   0.138583
28   0.144546
29   0.147744

>  <lowdin_charges>
29
1   -0.472836
2   -0.160524
3   -0.154945
4   -0.153901
5   -0.155037
6   -0.150934
7   -0.15003
8   -0.15835
9   -0.17536
10   -0.16889
11   -0.156219
12   0.169746
13   0.056728
14   0.04228
15   -0.081924
16   -0.285198
17   0.168982
18   0.172588
19   0.17801
20   0.155478
21   0.162787
22   0.15967
23   0.158234
24   0.162463
25   0.16234
26   0.174712
27   0.165601
28   0.165204
29   0.169326

$$$$

