PCCDB-ID:  39211
public computational chemistry database (PCCDB) project, http://pccdb.org

 17 17  0  0  0  0  0  0  0  0999 V2000
   -1.3016   -0.0591    0.1979 C   0  0  0  0  0  0  0  0  0  0  0  0
   -0.6733    1.1792    0.2293 C   0  0  0  0  0  0  0  0  0  0  0  0
    0.8192   -1.1059   -0.3332 C   0  0  0  0  0  0  0  0  0  0  0  0
    2.9625    0.0933   -0.4765 C   0  0  0  0  0  0  0  0  0  0  0  0
    1.4662    0.1285   -0.3044 C   0  0  0  0  0  0  0  0  0  0  0  0
   -0.5555   -1.2092   -0.0938 C   0  0  0  0  0  0  0  0  0  0  0  0
    0.6929    1.2766   -0.0303 C   0  0  0  0  0  0  0  0  0  0  0  0
    1.2647    2.6250   -0.0601 N   0  0  0  0  0  0  0  0  0  0  0  0
    3.5261   -0.8819   -0.9302 O   0  0  0  0  0  0  0  0  0  0  0  0
   -1.1030   -2.4483   -0.1492 O   0  0  0  0  0  0  0  0  0  0  0  0
    0.6447    3.5234    0.5092 O   0  0  0  0  0  0  0  0  0  0  0  0
    2.3245    2.7898   -0.6704 O   0  0  0  0  0  0  0  0  0  0  0  0
   -2.3696   -0.1302    0.3911 H   0  0  0  0  0  0  0  0  0  0  0  0
   -1.2312    2.0828    0.4416 H   0  0  0  0  0  0  0  0  0  0  0  0
    1.4031   -1.9972   -0.5348 H   0  0  0  0  0  0  0  0  0  0  0  0
    3.5239    0.9741   -0.1355 H   0  0  0  0  0  0  0  0  0  0  0  0
   -2.0545   -2.3961    0.0351 H   0  0  0  0  0  0  0  0  0  0  0  0
  1  2  1  0  0  0  0
  1 13  1  0  0  0  0
  2 14  1  0  0  0  0
  3  5  2  0  0  0  0
  3  6  1  0  0  0  0
  4  5  1  0  0  0  0
  4 16  1  0  0  0  0
  5  7  1  0  0  0  0
  6  1  2  0  0  0  0
  7  2  2  0  0  0  0
  8  7  1  0  0  0  0
  8 11  2  0  0  0  0
  9  4  2  0  0  0  0
 10  6  1  0  0  0  0
 10 17  1  0  0  0  0
 12  8  2  0  0  0  0
 15  3  1  0  0  0  0
M  END
>  <HBA>
2

>  <HBD>
1

>  <TPSA>
83.12

>  <cid>
39211

>  <dipole>
5.89

>  <excitation_energy_1>
3.281

>  <excitation_energy_2>
3.642

>  <excitation_energy_3>
4.028

>  <excitation_energy_4>
4.19

>  <homo_energy>
-7.181

>  <homo_lumo_gap>
4.427

>  <logP>
1.636

>  <lumo_energy>
-2.754

>  <melting_point>
117.86

>  <molecular_refractivity>
42.67

>  <oscillator_strength_1>
0.002

>  <oscillator_strength_2>
0.0426

>  <oscillator_strength_3>
0.0816

>  <oscillator_strength_4>
0.0202

>  <open_babel_can_smiles>
O=Cc1cc(O)ccc1N(=O)=O

>  <mulliken_charges>
17
1   -0.193919
2   -0.1497
3   -0.214347
4   0.219559
5   0.06952
6   0.383144
7   0.216966
8   0.360503
9   -0.390323
10   -0.6217
11   -0.385818
12   -0.398244
13   0.147194
14   0.191639
15   0.190812
16   0.155862
17   0.418852

>  <lowdin_charges>
17
1   -0.190675
2   -0.124646
3   -0.149758
4   0.052071
5   -0.025975
6   0.119831
7   -0.010172
8   0.308472
9   -0.209544
10   -0.347021
11   -0.245946
12   -0.245886
13   0.165671
14   0.192333
15   0.194581
16   0.152471
17   0.364194

$$$$

