PCCDB-ID:  69392
public computational chemistry database (PCCDB) project, http://pccdb.org

 13 12  0  0  0  0  0  0  0  0999 V2000
    0.6445    0.2976   -0.8643 C   0  0  0  0  0  0  0  0  0  0  0  0
    5.2324    0.7125    0.2140 C   0  0  0  0  0  0  0  0  0  0  0  0
    1.6533    0.0048   -0.0452 C   0  0  0  0  0  0  0  0  0  0  0  0
    2.8859    0.8443    0.1166 C   0  0  0  0  0  0  0  0  0  0  0  0
    4.0279    0.0110   -0.0025 O   0  0  0  0  0  0  0  0  0  0  0  0
   -0.2441   -0.3251   -0.9226 H   0  0  0  0  0  0  0  0  0  0  0  0
    0.6656    1.1746   -1.5083 H   0  0  0  0  0  0  0  0  0  0  0  0
    6.0482   -0.0084    0.1139 H   0  0  0  0  0  0  0  0  0  0  0  0
    5.2710    1.1587    1.2218 H   0  0  0  0  0  0  0  0  0  0  0  0
    5.3764    1.5184   -0.5243 H   0  0  0  0  0  0  0  0  0  0  0  0
    1.6143   -0.8852    0.5819 H   0  0  0  0  0  0  0  0  0  0  0  0
    2.8846    1.3288    1.1116 H   0  0  0  0  0  0  0  0  0  0  0  0
    2.9073    1.6519   -0.6350 H   0  0  0  0  0  0  0  0  0  0  0  0
  1  3  2  0  0  0  0
  2  9  1  0  0  0  0
  3  4  1  0  0  0  0
  3 11  1  0  0  0  0
  4 12  1  0  0  0  0
  5  4  1  0  0  0  0
  5  2  1  0  0  0  0
  6  1  1  0  0  0  0
  7  1  1  0  0  0  0
  8  2  1  0  0  0  0
 10  2  1  0  0  0  0
 13  4  1  0  0  0  0
M  END
>  <HBA>
1

>  <HBD>
0

>  <TPSA>
9.23

>  <cid>
69392

>  <dipole>
1.21

>  <excitation_energy_1>
6.107

>  <excitation_energy_2>
6.551

>  <excitation_energy_3>
6.858

>  <excitation_energy_4>
7.084

>  <homo_energy>
-6.808

>  <homo_lumo_gap>
7.214

>  <logP>
0.819

>  <lumo_energy>
0.405

>  <melting_point>
-54.78

>  <molecular_refractivity>
21.95

>  <oscillator_strength_1>
0.0188

>  <oscillator_strength_2>
0.0124

>  <oscillator_strength_3>
0.0448

>  <oscillator_strength_4>
0.0376

>  <open_babel_can_smiles>
COCC=C

>  <mulliken_charges>
13
1   -0.336413
2   -0.190188
3   -0.049587
4   -0.055537
5   -0.458309
6   0.144374
7   0.138832
8   0.159106
9   0.127716
10   0.129081
11   0.140879
12   0.125851
13   0.124193

>  <lowdin_charges>
13
1   -0.330321
2   -0.280412
3   -0.147643
4   -0.1255
5   -0.271322
6   0.161316
7   0.155731
8   0.156362
9   0.129428
10   0.131526
11   0.15924
12   0.130658
13   0.130939

$$$$

