PCCDB-ID:  46475
public computational chemistry database (PCCDB) project, http://pccdb.org

 27 28  0  0  1  0  0  0  0  0999 V2000
    1.1922   -0.6487   -0.2074 C   0  0  0  0  0  0  0  0  0  0  0  0
    0.1095    4.0483   -2.1998 C   0  0  0  0  0  0  0  0  0  0  0  0
    0.0700    2.7761   -2.7729 C   0  0  0  0  0  0  0  0  0  0  0  0
    3.9445    2.6261    0.6887 C   0  0  0  0  0  0  0  0  0  0  0  0
    1.0750    4.3401   -1.2395 C   0  0  0  0  0  0  0  0  0  0  0  0
    3.0974    3.7900    0.1560 C   0  0  0  0  0  0  0  0  0  0  0  0
    0.9876    1.8126   -2.3598 C   0  0  0  0  0  0  0  0  0  0  0  0
    4.2247    1.6075   -0.4218 C   0  0  0  0  0  0  0  0  0  0  0  0
    2.0043    3.3786   -0.8176 C   0  0  0  0  0  0  0  0  0  0  0  0
    1.9457    2.0872   -1.3735 C   0  0  0  0  0  0  0  0  0  0  0  0
    2.9110    0.9919   -0.9290 C   0  0  2  0  0  0  0  0  0  0  0  0
    2.3312    0.1838    0.1622 N   0  0  0  0  0  0  0  0  0  0  0  0
    0.9396   -1.2983    0.6372 H   0  0  0  0  0  0  0  0  0  0  0  0
    1.3653   -1.2890   -1.0942 H   0  0  0  0  0  0  0  0  0  0  0  0
    0.3213   -0.0205   -0.4166 H   0  0  0  0  0  0  0  0  0  0  0  0
   -0.6001    4.8121   -2.5074 H   0  0  0  0  0  0  0  0  0  0  0  0
   -0.6654    2.5379   -3.5367 H   0  0  0  0  0  0  0  0  0  0  0  0
    3.4113    2.1187    1.4991 H   0  0  0  0  0  0  0  0  0  0  0  0
    4.8829    3.0130    1.1041 H   0  0  0  0  0  0  0  0  0  0  0  0
    1.1209    5.3392   -0.8097 H   0  0  0  0  0  0  0  0  0  0  0  0
    3.7551    4.5037   -0.3640 H   0  0  0  0  0  0  0  0  0  0  0  0
    2.6575    4.3510    0.9909 H   0  0  0  0  0  0  0  0  0  0  0  0
    0.9686    0.8237   -2.8129 H   0  0  0  0  0  0  0  0  0  0  0  0
    4.8906    0.8114   -0.0606 H   0  0  0  0  0  0  0  0  0  0  0  0
    4.7405    2.0911   -1.2623 H   0  0  0  0  0  0  0  0  0  0  0  0
    3.1264    0.3597   -1.8130 H   0  0  0  0  0  0  0  0  0  0  0  0
    3.0712   -0.4208    0.5173 H   0  0  0  0  0  0  0  0  0  0  0  0
  1 12  1  0  0  0  0
  1 13  1  0  0  0  0
  2  5  2  0  0  0  0
  3  7  2  0  0  0  0
  3  2  1  0  0  0  0
  4 19  1  0  0  0  0
  4 18  1  0  0  0  0
  5  9  1  0  0  0  0
  5 20  1  0  0  0  0
  6  4  1  0  0  0  0
  6 22  1  0  0  0  0
  7 10  1  0  0  0  0
  8 24  1  0  0  0  0
  8  4  1  0  0  0  0
  9  6  1  0  0  0  0
 10 11  1  0  0  0  0
 10  9  2  0  0  0  0
 11 26  1  6  0  0  0
 11  8  1  0  0  0  0
 11 12  1  0  0  0  0
 12 27  1  0  0  0  0
 14  1  1  0  0  0  0
 15  1  1  0  0  0  0
 16  2  1  0  0  0  0
 17  3  1  0  0  0  0
 21  6  1  0  0  0  0
 23  7  1  0  0  0  0
 25  8  1  0  0  0  0
M  END
>  <HBA>
1

>  <HBD>
1

>  <TPSA>
12.03

>  <cid>
46475

>  <dipole>
0.94

>  <excitation_energy_1>
5.011

>  <excitation_energy_2>
5.146

>  <excitation_energy_3>
5.22

>  <excitation_energy_4>
5.357

>  <homo_energy>
-5.859

>  <homo_lumo_gap>
5.997

>  <logP>
2.674

>  <lumo_energy>
0.139

>  <melting_point>
59.76

>  <molecular_refractivity>
51.48

>  <oscillator_strength_1>
0.001

>  <oscillator_strength_2>
0.0084

>  <oscillator_strength_3>
0.005

>  <oscillator_strength_4>
0.0066

>  <open_babel_can_smiles>
CN[C@@H]1CCCc2c1cccc2

>  <mulliken_charges>
27
1   -0.305499
2   -0.126731
3   -0.133334
4   -0.260592
5   -0.186564
6   -0.342821
7   -0.189056
8   -0.293113
9   0.125875
10   0.130585
11   -0.041918
12   -0.534984
13   0.145042
14   0.112992
15   0.16728
16   0.124637
17   0.124097
18   0.161386
19   0.127287
20   0.117916
21   0.148209
22   0.147444
23   0.122942
24   0.123386
25   0.138315
26   0.106893
27   0.290327

>  <lowdin_charges>
27
1   -0.365979
2   -0.157949
3   -0.165573
4   -0.281474
5   -0.165348
6   -0.278173
7   -0.164866
8   -0.281507
9   -0.00326
10   -0.01891
11   -0.06258
12   -0.361114
13   0.150874
14   0.117428
15   0.157014
16   0.15651
17   0.155903
18   0.155552
19   0.143002
20   0.151748
21   0.151925
22   0.154763
23   0.152789
24   0.140446
25   0.146695
26   0.120878
27   0.251206

$$$$

