PCCDB-ID:  18835
public computational chemistry database (PCCDB) project, http://pccdb.org

 23 22  0  0  0  0  0  0  0  0999 V2000
    4.9159   -0.2600   -0.9395 C   0  0  0  0  0  0  0  0  0  0  0  0
    2.3521   -1.7657   -2.8646 C   0  0  0  0  0  0  0  0  0  0  0  0
    2.1810   -3.7947   -1.3584 C   0  0  0  0  0  0  0  0  0  0  0  0
    0.5014   -1.9327   -1.1844 C   0  0  0  0  0  0  0  0  0  0  0  0
    4.3147   -1.6098   -0.5347 C   0  0  0  0  0  0  0  0  0  0  0  0
    1.9771   -2.2684   -1.4569 C   0  0  0  0  0  0  0  0  0  0  0  0
    2.2566   -1.1046    0.6426 N   0  0  0  0  0  0  0  0  0  0  0  0
    2.8472   -1.5926   -0.4534 N   0  0  0  0  0  0  0  0  0  0  0  0
    3.0245   -0.6345    1.4847 O   0  0  0  0  0  0  0  0  0  0  0  0
    6.0097   -0.3302   -0.9485 H   0  0  0  0  0  0  0  0  0  0  0  0
    4.6268    0.5109   -0.2219 H   0  0  0  0  0  0  0  0  0  0  0  0
    4.5850    0.0452   -1.9373 H   0  0  0  0  0  0  0  0  0  0  0  0
    1.7060   -2.2438   -3.6086 H   0  0  0  0  0  0  0  0  0  0  0  0
    3.3881   -2.0025   -3.1284 H   0  0  0  0  0  0  0  0  0  0  0  0
    2.2156   -0.6819   -2.9396 H   0  0  0  0  0  0  0  0  0  0  0  0
    1.5483   -4.3065   -2.0918 H   0  0  0  0  0  0  0  0  0  0  0  0
    1.9097   -4.1531   -0.3599 H   0  0  0  0  0  0  0  0  0  0  0  0
    3.2183   -4.0851   -1.5568 H   0  0  0  0  0  0  0  0  0  0  0  0
   -0.1070   -2.3956   -1.9692 H   0  0  0  0  0  0  0  0  0  0  0  0
    0.3287   -0.8529   -1.2019 H   0  0  0  0  0  0  0  0  0  0  0  0
    0.1673   -2.3093   -0.2161 H   0  0  0  0  0  0  0  0  0  0  0  0
    4.6797   -1.8896    0.4583 H   0  0  0  0  0  0  0  0  0  0  0  0
    4.6021   -2.3919   -1.2405 H   0  0  0  0  0  0  0  0  0  0  0  0
  1  5  1  0  0  0  0
  1 11  1  0  0  0  0
  2  6  1  0  0  0  0
  3 17  1  0  0  0  0
  4 21  1  0  0  0  0
  5  8  1  0  0  0  0
  5 22  1  0  0  0  0
  6  3  1  0  0  0  0
  6  4  1  0  0  0  0
  6  8  1  0  0  0  0
  7  9  2  0  0  0  0
  8  7  1  0  0  0  0
 10  1  1  0  0  0  0
 12  1  1  0  0  0  0
 13  2  1  0  0  0  0
 14  2  1  0  0  0  0
 15  2  1  0  0  0  0
 16  3  1  0  0  0  0
 18  3  1  0  0  0  0
 19  4  1  0  0  0  0
 20  4  1  0  0  0  0
 23  5  1  0  0  0  0
M  END
>  <HBA>
3

>  <HBD>
0

>  <TPSA>
32.67

>  <cid>
18835

>  <dipole>
4.08

>  <excitation_energy_1>
3.325

>  <excitation_energy_2>
5.4

>  <excitation_energy_3>
5.823

>  <excitation_energy_4>
5.927

>  <homo_energy>
-5.772

>  <homo_lumo_gap>
5.159

>  <logP>
1.788

>  <lumo_energy>
-0.612

>  <melting_point>
6.15

>  <molecular_refractivity>
38.63

>  <oscillator_strength_1>
0.0006

>  <oscillator_strength_2>
0.0008

>  <oscillator_strength_3>
0.1183

>  <oscillator_strength_4>
0.0391

>  <open_babel_can_smiles>
CCN(C(C)(C)C)N=O

>  <mulliken_charges>
23
1   -0.449799
2   -0.447084
3   -0.440094
4   -0.440769
5   -0.14946
6   0.188952
7   0.156827
8   -0.220025
9   -0.40278
10   0.148114
11   0.184848
12   0.148605
13   0.152118
14   0.148633
15   0.159977
16   0.150666
17   0.161369
18   0.147129
19   0.139777
20   0.16075
21   0.171058
22   0.180217
23   0.150972

>  <lowdin_charges>
23
1   -0.448407
2   -0.446654
3   -0.448683
4   -0.443005
5   -0.213357
6   0.076824
7   0.049653
8   -0.042689
9   -0.285345
10   0.153475
11   0.170125
12   0.149627
13   0.158581
14   0.150964
15   0.156447
16   0.157526
17   0.159203
18   0.149815
19   0.151922
20   0.15899
21   0.164771
22   0.167822
23   0.152392

$$$$

