PCCDB-ID:  19178
public computational chemistry database (PCCDB) project, http://pccdb.org

 29 29  0  0  0  0  0  0  0  0999 V2000
    1.4979    1.4807    7.9244 C   0  0  0  0  0  0  0  0  0  0  0  0
    2.5814    1.4515    6.8410 C   0  0  0  0  0  0  0  0  0  0  0  0
    5.7895   -2.0449    7.4155 C   0  0  0  0  0  0  0  0  0  0  0  0
    4.7870   -2.6486    6.4212 C   0  0  0  0  0  0  0  0  0  0  0  0
    5.6459   -0.5176    7.4941 C   0  0  0  0  0  0  0  0  0  0  0  0
    4.9123   -2.0012    5.0310 C   0  0  0  0  0  0  0  0  0  0  0  0
    5.7961    0.1314    6.1075 C   0  0  0  0  0  0  0  0  0  0  0  0
    2.5652    0.1460    6.0237 C   0  0  0  0  0  0  0  0  0  0  0  0
    4.8655   -0.4520    5.0063 C   0  0  0  0  0  0  0  0  0  0  0  0
    3.4931    0.0725    4.8945 N   0  0  0  0  0  0  0  0  0  0  0  0
    1.5022    2.4305    8.4707 H   0  0  0  0  0  0  0  0  0  0  0  0
    1.6469    0.6765    8.6555 H   0  0  0  0  0  0  0  0  0  0  0  0
    0.4987    1.3507    7.4904 H   0  0  0  0  0  0  0  0  0  0  0  0
    3.5667    1.6001    7.2990 H   0  0  0  0  0  0  0  0  0  0  0  0
    2.4330    2.2967    6.1522 H   0  0  0  0  0  0  0  0  0  0  0  0
    6.8119   -2.2944    7.0926 H   0  0  0  0  0  0  0  0  0  0  0  0
    5.6599   -2.4918    8.4095 H   0  0  0  0  0  0  0  0  0  0  0  0
    3.7672   -2.5310    6.8114 H   0  0  0  0  0  0  0  0  0  0  0  0
    4.9512   -3.7307    6.3321 H   0  0  0  0  0  0  0  0  0  0  0  0
    6.3991   -0.1017    8.1762 H   0  0  0  0  0  0  0  0  0  0  0  0
    4.6700   -0.2710    7.9317 H   0  0  0  0  0  0  0  0  0  0  0  0
    4.1392   -2.3792    4.3530 H   0  0  0  0  0  0  0  0  0  0  0  0
    5.8826   -2.3055    4.6108 H   0  0  0  0  0  0  0  0  0  0  0  0
    6.8339   -0.0266    5.7759 H   0  0  0  0  0  0  0  0  0  0  0  0
    5.6576    1.2186    6.1672 H   0  0  0  0  0  0  0  0  0  0  0  0
    1.5444    0.0129    5.6314 H   0  0  0  0  0  0  0  0  0  0  0  0
    2.7405   -0.7079    6.6850 H   0  0  0  0  0  0  0  0  0  0  0  0
    5.3107   -0.1588    4.0463 H   0  0  0  0  0  0  0  0  0  0  0  0
    3.5194    0.9746    4.4268 H   0  0  0  0  0  0  0  0  0  0  0  0
  1 11  1  0  0  0  0
  1 12  1  0  0  0  0
  2 14  1  0  0  0  0
  2  1  1  0  0  0  0
  3  5  1  0  0  0  0
  3 17  1  0  0  0  0
  4 18  1  0  0  0  0
  4  3  1  0  0  0  0
  5 21  1  0  0  0  0
  5 20  1  0  0  0  0
  6  4  1  0  0  0  0
  7 25  1  0  0  0  0
  7  5  1  0  0  0  0
  8 27  1  0  0  0  0
  8  2  1  0  0  0  0
  9  6  1  0  0  0  0
  9  7  1  0  0  0  0
 10  9  1  0  0  0  0
 10  8  1  0  0  0  0
 13  1  1  0  0  0  0
 15  2  1  0  0  0  0
 16  3  1  0  0  0  0
 19  4  1  0  0  0  0
 22  6  1  0  0  0  0
 23  6  1  0  0  0  0
 24  7  1  0  0  0  0
 26  8  1  0  0  0  0
 28  9  1  0  0  0  0
 29 10  1  0  0  0  0
M  END
>  <HBA>
1

>  <HBD>
1

>  <TPSA>
12.03

>  <cid>
19178

>  <dipole>
0.89

>  <excitation_energy_1>
4.83

>  <excitation_energy_2>
5.268

>  <excitation_energy_3>
5.455

>  <excitation_energy_4>
5.551

>  <homo_energy>
-5.421

>  <homo_lumo_gap>
7.41

>  <logP>
2.71

>  <lumo_energy>
1.989

>  <melting_point>
21.2

>  <molecular_refractivity>
46.06

>  <oscillator_strength_1>
0.0121

>  <oscillator_strength_2>
0.0013

>  <oscillator_strength_3>
0.001

>  <oscillator_strength_4>
0.0092

>  <open_babel_can_smiles>
CCCNC1CCCCC1

>  <mulliken_charges>
29
1   -0.446902
2   -0.268127
3   -0.256061
4   -0.26617
5   -0.265285
6   -0.254862
7   -0.262908
8   -0.120851
9   0.036973
10   -0.565095
11   0.144198
12   0.142894
13   0.143655
14   0.142794
15   0.123427
16   0.125291
17   0.127698
18   0.135696
19   0.12894
20   0.128836
21   0.135482
22   0.142071
23   0.122705
24   0.123648
25   0.124174
26   0.131025
27   0.141483
28   0.118304
29   0.286963

>  <lowdin_charges>
29
1   -0.445491
2   -0.29348
3   -0.276671
4   -0.279191
5   -0.283879
6   -0.286255
7   -0.293745
8   -0.208876
9   -0.064714
10   -0.366655
11   0.151044
12   0.147101
13   0.146722
14   0.142392
15   0.135873
16   0.134899
17   0.141477
18   0.13681
19   0.140961
20   0.143867
21   0.139609
22   0.152359
23   0.138939
24   0.139111
25   0.137798
26   0.135404
27   0.143781
28   0.140846
29   0.249965

$$$$

