PCCDB-ID:  8592
public computational chemistry database (PCCDB) project, http://pccdb.org

 20 21  0  0  0  0  0  0  0  0999 V2000
    2.4240    0.8123   -0.0440 C   0  0  0  0  0  0  0  0  0  0  0  0
    2.5443   -0.5944   -0.0320 C   0  0  0  0  0  0  0  0  0  0  0  0
    1.1776    1.4007   -0.0137 C   0  0  0  0  0  0  0  0  0  0  0  0
    1.4148   -1.3835    0.0108 C   0  0  0  0  0  0  0  0  0  0  0  0
   -1.2965    1.2249    0.0623 C   0  0  0  0  0  0  0  0  0  0  0  0
   -2.4203    0.4507    0.1046 C   0  0  0  0  0  0  0  0  0  0  0  0
   -0.0038    0.6196    0.0306 C   0  0  0  0  0  0  0  0  0  0  0  0
    0.1175   -0.8086    0.0430 C   0  0  0  0  0  0  0  0  0  0  0  0
   -2.3282   -0.9673    0.1175 C   0  0  0  0  0  0  0  0  0  0  0  0
   -1.0820   -1.5981    0.0865 C   0  0  0  0  0  0  0  0  0  0  0  0
   -3.4802   -1.8117    0.1567 N   0  0  0  0  0  0  0  0  0  0  0  0
   -1.0502   -2.9477    0.0996 O   0  0  0  0  0  0  0  0  0  0  0  0
   -4.5500   -1.2080    0.1822 O   0  0  0  0  0  0  0  0  0  0  0  0
    3.3173    1.4294   -0.0772 H   0  0  0  0  0  0  0  0  0  0  0  0
    3.5272   -1.0555   -0.0565 H   0  0  0  0  0  0  0  0  0  0  0  0
    1.0819    2.4834   -0.0234 H   0  0  0  0  0  0  0  0  0  0  0  0
    1.5500   -2.4636    0.0189 H   0  0  0  0  0  0  0  0  0  0  0  0
   -1.3652    2.3093    0.0509 H   0  0  0  0  0  0  0  0  0  0  0  0
   -3.4182    0.8750    0.1293 H   0  0  0  0  0  0  0  0  0  0  0  0
   -0.1329   -3.2583    0.0753 H   0  0  0  0  0  0  0  0  0  0  0  0
  1  2  2  0  0  0  0
  1  3  1  0  0  0  0
  2  4  1  0  0  0  0
  3  7  2  0  0  0  0
  4 17  1  0  0  0  0
  4  8  2  0  0  0  0
  5  6  2  0  0  0  0
  6  9  1  0  0  0  0
  6 19  1  0  0  0  0
  7  8  1  0  0  0  0
  7  5  1  0  0  0  0
  8 10  1  0  0  0  0
  9 11  1  0  0  0  0
 10 12  1  0  0  0  0
 10  9  2  0  0  0  0
 11 13  1  0  0  0  0
 14  1  1  0  0  0  0
 15  2  1  0  0  0  0
 16  3  1  0  0  0  0
 18  5  1  0  0  0  0
 20 12  1  0  0  0  0
M  RAD  2  11   2  13   2
M  END
>  <HBA>
3

>  <HBD>
1

>  <TPSA>
49.66

>  <cid>
8592

>  <dipole>
6.08

>  <excitation_energy_1>
1.476

>  <excitation_energy_2>
3.177

>  <excitation_energy_3>
3.514

>  <excitation_energy_4>
4.048

>  <homo_energy>
-5.554

>  <homo_lumo_gap>
3.11

>  <logP>
2.943

>  <lumo_energy>
-2.444

>  <melting_point>
116.72

>  <molecular_refractivity>
51.43

>  <oscillator_strength_1>
0.0003

>  <oscillator_strength_2>
0.1048

>  <oscillator_strength_3>
0.0

>  <oscillator_strength_4>
0.0492

>  <open_babel_can_smiles>
[O][N]c1ccc2c(c1O)cccc2

>  <mulliken_charges>
20
1   -0.124901
2   -0.136016
3   -0.199432
4   -0.206881
5   -0.203767
6   -0.139248
7   0.149612
8   0.110367
9   0.185497
10   0.249847
11   -0.056404
12   -0.60655
13   -0.302438
14   0.143599
15   0.142166
16   0.143254
17   0.122544
18   0.138644
19   0.164561
20   0.425545

>  <lowdin_charges>
20
1   -0.143554
2   -0.15314
3   -0.148024
4   -0.156711
5   -0.168949
6   -0.136803
7   0.019693
8   -0.042526
9   -0.059095
10   0.129804
11   0.046686
12   -0.330206
13   -0.198206
14   0.165988
15   0.164555
16   0.16251
17   0.149073
18   0.160523
19   0.179013
20   0.359367

$$$$

