PCCDB-ID:  24578
public computational chemistry database (PCCDB) project, http://pccdb.org

 41 40  0  0  0  0  0  0  0  0999 V2000
    9.6251    5.1775   -1.9345 C   0  0  0  0  0  0  0  0  0  0  0  0
    7.3411    6.1785    8.0163 C   0  0  0  0  0  0  0  0  0  0  0  0
    4.8758    5.8766    8.5348 C   0  0  0  0  0  0  0  0  0  0  0  0
    9.5349    2.3332    5.0282 C   0  0  0  0  0  0  0  0  0  0  0  0
    7.6962    2.7992   -1.1405 C   0  0  0  0  0  0  0  0  0  0  0  0
    9.6830    4.3286   -0.7031 C   0  0  0  0  0  0  0  0  0  0  0  0
    6.8913    4.1875    5.6127 C   0  0  0  0  0  0  0  0  0  0  0  0
    5.8716    4.6751    6.6064 C   0  0  0  0  0  0  0  0  0  0  0  0
    7.0711    2.6475    5.6687 C   0  0  0  0  0  0  0  0  0  0  0  0
    7.6618    1.5139    3.5469 C   0  0  0  0  0  0  0  0  0  0  0  0
    8.5159    0.9213    2.4668 C   0  0  0  0  0  0  0  0  0  0  0  0
    6.0385    5.5148    7.6402 C   0  0  0  0  0  0  0  0  0  0  0  0
    8.0817    2.1250    4.6668 C   0  0  0  0  0  0  0  0  0  0  0  0
    8.8740    3.3130   -0.3511 C   0  0  0  0  0  0  0  0  0  0  0  0
    9.1925    2.6468    0.9520 C   0  0  0  0  0  0  0  0  0  0  0  0
   10.1060    2.9581    1.6959 O   0  0  0  0  0  0  0  0  0  0  0  0
    8.3383    1.6267    1.2040 O   0  0  0  0  0  0  0  0  0  0  0  0
   10.5689    5.1039   -2.4918 H   0  0  0  0  0  0  0  0  0  0  0  0
    9.5104    6.2358   -1.6633 H   0  0  0  0  0  0  0  0  0  0  0  0
    8.8104    4.9114   -2.6122 H   0  0  0  0  0  0  0  0  0  0  0  0
    7.2440    7.2726    7.9766 H   0  0  0  0  0  0  0  0  0  0  0  0
    8.1762    5.8952    7.3717 H   0  0  0  0  0  0  0  0  0  0  0  0
    7.6162    5.9311    9.0512 H   0  0  0  0  0  0  0  0  0  0  0  0
    5.0803    5.6045    9.5802 H   0  0  0  0  0  0  0  0  0  0  0  0
    3.9524    5.3750    8.2286 H   0  0  0  0  0  0  0  0  0  0  0  0
    4.6924    6.9605    8.5277 H   0  0  0  0  0  0  0  0  0  0  0  0
    9.6688    3.2869    5.5517 H   0  0  0  0  0  0  0  0  0  0  0  0
   10.1860    2.3460    4.1519 H   0  0  0  0  0  0  0  0  0  0  0  0
    9.8801    1.5491    5.7169 H   0  0  0  0  0  0  0  0  0  0  0  0
    7.5493    3.3624   -2.0649 H   0  0  0  0  0  0  0  0  0  0  0  0
    6.7732    2.8606   -0.5530 H   0  0  0  0  0  0  0  0  0  0  0  0
    7.8279    1.7430   -1.4015 H   0  0  0  0  0  0  0  0  0  0  0  0
   10.4854    4.5613   -0.0051 H   0  0  0  0  0  0  0  0  0  0  0  0
    7.8583    4.6786    5.7603 H   0  0  0  0  0  0  0  0  0  0  0  0
    6.5663    4.4504    4.5955 H   0  0  0  0  0  0  0  0  0  0  0  0
    4.8700    4.2667    6.4553 H   0  0  0  0  0  0  0  0  0  0  0  0
    6.0963    2.1738    5.4987 H   0  0  0  0  0  0  0  0  0  0  0  0
    7.3828    2.3710    6.6858 H   0  0  0  0  0  0  0  0  0  0  0  0
    6.5886    1.4124    3.3828 H   0  0  0  0  0  0  0  0  0  0  0  0
    8.1945   -0.0990    2.2359 H   0  0  0  0  0  0  0  0  0  0  0  0
    9.5759    0.9153    2.7186 H   0  0  0  0  0  0  0  0  0  0  0  0
  1 19  1  0  0  0  0
  1  6  1  0  0  0  0
  2 23  1  0  0  0  0
  3 24  1  0  0  0  0
  4 27  1  0  0  0  0
  4 29  1  0  0  0  0
  5 31  1  0  0  0  0
  5 14  1  0  0  0  0
  6 14  2  0  0  0  0
  6 33  1  0  0  0  0
  7  9  1  0  0  0  0
  7 34  1  0  0  0  0
  7  8  1  0  0  0  0
  8 12  2  0  0  0  0
  9 38  1  0  0  0  0
 10 13  2  0  0  0  0
 11 41  1  0  0  0  0
 11 10  1  0  0  0  0
 12  2  1  0  0  0  0
 12  3  1  0  0  0  0
 13  4  1  0  0  0  0
 13  9  1  0  0  0  0
 14 15  1  0  0  0  0
 15 17  1  0  0  0  0
 15 16  2  0  0  0  0
 17 11  1  0  0  0  0
 18  1  1  0  0  0  0
 20  1  1  0  0  0  0
 21  2  1  0  0  0  0
 22  2  1  0  0  0  0
 25  3  1  0  0  0  0
 26  3  1  0  0  0  0
 28  4  1  0  0  0  0
 30  5  1  0  0  0  0
 32  5  1  0  0  0  0
 35  7  1  0  0  0  0
 36  8  1  0  0  0  0
 37  9  1  0  0  0  0
 39 10  1  0  0  0  0
 40 11  1  0  0  0  0
M  END
>  <HBA>
2

>  <HBD>
0

>  <TPSA>
26.3

>  <cid>
24578

>  <dipole>
1.03

>  <excitation_energy_1>
4.804

>  <excitation_energy_2>
4.999

>  <excitation_energy_3>
5.2

>  <excitation_energy_4>
5.605

>  <homo_energy>
-6.142

>  <homo_lumo_gap>
5.448

>  <logP>
4.189

>  <lumo_energy>
-0.694

>  <melting_point>
19.53

>  <molecular_refractivity>
74.08

>  <oscillator_strength_1>
0.0086

>  <oscillator_strength_2>
0.0029

>  <oscillator_strength_3>
0.0045

>  <oscillator_strength_4>
0.0449

>  <open_babel_can_smiles>
C/C=C(/C(=O)OC/C=C(/CCC=C(C)C)\C)\C

>  <mulliken_charges>
41
1   -0.498736
2   -0.512813
3   -0.505889
4   -0.541378
5   -0.509825
6   -0.119055
7   -0.30304
8   -0.159277
9   -0.331298
10   -0.188471
11   -0.092851
12   0.18772
13   0.20668
14   0.074758
15   0.597268
16   -0.498672
17   -0.477416
18   0.166419
19   0.166407
20   0.159701
21   0.15267
22   0.153948
23   0.151009
24   0.148336
25   0.150617
26   0.148954
27   0.152008
28   0.198583
29   0.153539
30   0.146998
31   0.166518
32   0.16614
33   0.164562
34   0.14432
35   0.147551
36   0.108961
37   0.138622
38   0.142382
39   0.120385
40   0.151648
41   0.172015

>  <lowdin_charges>
41
1   -0.442457
2   -0.442115
3   -0.436141
4   -0.455929
5   -0.441131
6   -0.121937
7   -0.270751
8   -0.190867
9   -0.270182
10   -0.213526
11   -0.126689
12   -0.009961
13   0.016028
14   -0.058518
15   0.198335
16   -0.286637
17   -0.194959
18   0.165287
19   0.163855
20   0.157501
21   0.153522
22   0.155847
23   0.153683
24   0.150713
25   0.154124
26   0.150498
27   0.15548
28   0.17614
29   0.158456
30   0.153928
31   0.164409
32   0.162796
33   0.174074
34   0.146569
35   0.15044
36   0.143236
37   0.146142
38   0.147401
39   0.147505
40   0.153985
41   0.161848

$$$$

