PCCDB-ID:  25805
public computational chemistry database (PCCDB) project, http://pccdb.org

 23 22  0  0  0  0  0  0  0  0999 V2000
   -0.1230    0.5849   -1.2823 C   0  0  0  0  0  0  0  0  0  0  0  0
    6.4993   -2.2354   -1.4385 C   0  0  0  0  0  0  0  0  0  0  0  0
    1.2820    0.3348   -0.7252 C   0  0  0  0  0  0  0  0  0  0  0  0
    2.3002   -0.0461   -1.8078 C   0  0  0  0  0  0  0  0  0  0  0  0
    3.7086   -0.2939   -1.2538 C   0  0  0  0  0  0  0  0  0  0  0  0
    4.7078   -0.6772   -2.3552 C   0  0  0  0  0  0  0  0  0  0  0  0
    6.9425    0.0787   -1.6919 N   0  0  0  0  0  0  0  0  0  0  0  0
    6.0575   -0.9165   -1.8465 N   0  0  0  0  0  0  0  0  0  0  0  0
    6.5305    1.1943   -2.0038 O   0  0  0  0  0  0  0  0  0  0  0  0
   -0.8254    0.8573   -0.4865 H   0  0  0  0  0  0  0  0  0  0  0  0
   -0.5167   -0.3084   -1.7829 H   0  0  0  0  0  0  0  0  0  0  0  0
   -0.1185    1.4001   -2.0162 H   0  0  0  0  0  0  0  0  0  0  0  0
    6.4653   -2.9375   -2.2806 H   0  0  0  0  0  0  0  0  0  0  0  0
    5.8731   -2.6292   -0.6284 H   0  0  0  0  0  0  0  0  0  0  0  0
    7.5281   -2.1418   -1.0853 H   0  0  0  0  0  0  0  0  0  0  0  0
    1.2408   -0.4630    0.0300 H   0  0  0  0  0  0  0  0  0  0  0  0
    1.6336    1.2333   -0.1994 H   0  0  0  0  0  0  0  0  0  0  0  0
    2.3418    0.7518   -2.5633 H   0  0  0  0  0  0  0  0  0  0  0  0
    1.9487   -0.9465   -2.3344 H   0  0  0  0  0  0  0  0  0  0  0  0
    3.6734   -1.0896   -0.4966 H   0  0  0  0  0  0  0  0  0  0  0  0
    4.0795    0.6079   -0.7530 H   0  0  0  0  0  0  0  0  0  0  0  0
    4.7869    0.1334   -3.0853 H   0  0  0  0  0  0  0  0  0  0  0  0
    4.3887   -1.5882   -2.8744 H   0  0  0  0  0  0  0  0  0  0  0  0
  1  3  1  0  0  0  0
  1 10  1  0  0  0  0
  2 15  1  0  0  0  0
  2 14  1  0  0  0  0
  3 17  1  0  0  0  0
  3 16  1  0  0  0  0
  4  5  1  0  0  0  0
  4  3  1  0  0  0  0
  5 21  1  0  0  0  0
  5 20  1  0  0  0  0
  6  8  1  0  0  0  0
  6  5  1  0  0  0  0
  8  7  1  0  0  0  0
  8  2  1  0  0  0  0
  9  7  2  0  0  0  0
 11  1  1  0  0  0  0
 12  1  1  0  0  0  0
 13  2  1  0  0  0  0
 18  4  1  0  0  0  0
 19  4  1  0  0  0  0
 22  6  1  0  0  0  0
 23  6  1  0  0  0  0
M  END
>  <HBA>
3

>  <HBD>
0

>  <TPSA>
32.67

>  <cid>
25805

>  <dipole>
3.95

>  <excitation_energy_1>
3.408

>  <excitation_energy_2>
5.632

>  <excitation_energy_3>
5.807

>  <excitation_energy_4>
6.13

>  <homo_energy>
-5.965

>  <homo_lumo_gap>
5.265

>  <logP>
1.79

>  <lumo_energy>
-0.699

>  <melting_point>
-4.88

>  <molecular_refractivity>
38.59

>  <oscillator_strength_1>
0.0012

>  <oscillator_strength_2>
0.0119

>  <oscillator_strength_3>
0.1562

>  <oscillator_strength_4>
0.0001

>  <open_babel_can_smiles>
CCCCCN(N=O)C

>  <mulliken_charges>
23
1   -0.442751
2   -0.311653
3   -0.248304
4   -0.251811
5   -0.260364
6   -0.149779
7   0.145575
8   -0.206233
9   -0.38615
10   0.144755
11   0.141203
12   0.144645
13   0.163957
14   0.165578
15   0.1913
16   0.130766
17   0.137786
18   0.138541
19   0.126446
20   0.131442
21   0.1652
22   0.183285
23   0.146565

>  <lowdin_charges>
23
1   -0.446274
2   -0.355686
3   -0.272181
4   -0.275216
5   -0.28168
6   -0.216951
7   0.0465
8   -0.038671
9   -0.278969
10   0.151867
11   0.146816
12   0.148455
13   0.15581
14   0.156093
15   0.175794
16   0.139591
17   0.143242
18   0.143773
19   0.13733
20   0.140331
21   0.158046
22   0.170597
23   0.151383

$$$$

