PCCDB-ID:  11469
public computational chemistry database (PCCDB) project, http://pccdb.org

 18 18  0  0  0  0  0  0  0  0999 V2000
    1.0800   -0.9801    1.2648 C   0  0  0  0  0  0  0  0  0  0  0  0
    5.3707   -0.7923    1.2558 C   0  0  0  0  0  0  0  0  0  0  0  0
    6.6792   -0.2306    1.2461 C   0  0  0  0  0  0  0  0  0  0  0  0
    3.0083    0.3581    1.2570 C   0  0  0  0  0  0  0  0  0  0  0  0
    4.4990    0.2639    1.2513 C   0  0  0  0  0  0  0  0  0  0  0  0
    6.4925    1.1227    1.2375 C   0  0  0  0  0  0  0  0  0  0  0  0
    7.4319    2.1938    1.2215 N   0  0  0  0  0  0  0  0  0  0  0  0
    8.6236    1.8661    1.2184 O   0  0  0  0  0  0  0  0  0  0  0  0
    6.9988    3.3462    1.2122 O   0  0  0  0  0  0  0  0  0  0  0  0
    2.4949   -0.9521    1.2592 O   0  0  0  0  0  0  0  0  0  0  0  0
    5.1728    1.4449    1.2398 O   0  0  0  0  0  0  0  0  0  0  0  0
    0.7842   -2.0314    1.2674 H   0  0  0  0  0  0  0  0  0  0  0  0
    0.6621   -0.4901    0.3718 H   0  0  0  0  0  0  0  0  0  0  0  0
    0.6689   -0.4878    2.1598 H   0  0  0  0  0  0  0  0  0  0  0  0
    5.0947   -1.8358    1.2630 H   0  0  0  0  0  0  0  0  0  0  0  0
    7.6321   -0.7372    1.2470 H   0  0  0  0  0  0  0  0  0  0  0  0
    2.6665    0.9250    0.3725 H   0  0  0  0  0  0  0  0  0  0  0  0
    2.6730    0.9248    2.1441 H   0  0  0  0  0  0  0  0  0  0  0  0
  1 12  1  0  0  0  0
  1 14  1  0  0  0  0
  2 15  1  0  0  0  0
  3 16  1  0  0  0  0
  3  2  1  0  0  0  0
  4 10  1  0  0  0  0
  4 18  1  0  0  0  0
  5  2  2  0  0  0  0
  5  4  1  0  0  0  0
  6 11  1  0  0  0  0
  6  3  2  0  0  0  0
  7  6  1  0  0  0  0
  8  7  2  0  0  0  0
  9  7  2  0  0  0  0
 10  1  1  0  0  0  0
 11  5  1  0  0  0  0
 13  1  1  0  0  0  0
 17  4  1  0  0  0  0
M  END
>  <HBA>
2

>  <HBD>
0

>  <TPSA>
68.19

>  <cid>
11469

>  <dipole>
5.84

>  <excitation_energy_1>
3.778

>  <excitation_energy_2>
4.166

>  <excitation_energy_3>
4.294

>  <excitation_energy_4>
4.677

>  <homo_energy>
-6.944

>  <homo_lumo_gap>
4.591

>  <logP>
1.857

>  <lumo_energy>
-2.354

>  <melting_point>
36.56

>  <molecular_refractivity>
38.39

>  <oscillator_strength_1>
0.0

>  <oscillator_strength_2>
0.3083

>  <oscillator_strength_3>
0.0003

>  <oscillator_strength_4>
0.0283

>  <open_babel_can_smiles>
COCc1ccc(o1)N(=O)=O

>  <mulliken_charges>
18
1   -0.195637
2   -0.194533
3   -0.14546
4   -0.078541
5   0.341372
6   0.526159
7   0.330185
8   -0.407625
9   -0.394437
10   -0.46498
11   -0.447983
12   0.170362
13   0.141563
14   0.141489
15   0.174007
16   0.187358
17   0.15837
18   0.15833

>  <lowdin_charges>
18
1   -0.276139
2   -0.195229
3   -0.149497
4   -0.127115
5   0.093736
6   0.063067
7   0.300712
8   -0.257502
9   -0.242089
10   -0.262508
11   -0.070271
12   0.161082
13   0.139166
14   0.13911
15   0.186211
16   0.19465
17   0.151354
18   0.151263

$$$$

