PCCDB-ID:  10452
public computational chemistry database (PCCDB) project, http://pccdb.org

 14 14  0  0  0  0  0  0  0  0999 V2000
    0.8723    1.3294   -0.2672 C   0  0  0  0  0  0  0  0  0  0  0  0
    1.5848    0.0859    0.2619 C   0  0  0  0  0  0  0  0  0  0  0  0
   -1.5666   -0.0673   -0.2645 C   0  0  0  0  0  0  0  0  0  0  0  0
   -0.8540   -1.3108    0.2647 C   0  0  0  0  0  0  0  0  0  0  0  0
   -0.8506    1.5111    0.3448 S   0  0  0  0  0  0  0  0  0  0  0  0
    0.8689   -1.4925   -0.3476 S   0  0  0  0  0  0  0  0  0  0  0  0
    0.8750    1.3374   -1.3622 H   0  0  0  0  0  0  0  0  0  0  0  0
    1.3881    2.2321    0.0798 H   0  0  0  0  0  0  0  0  0  0  0  0
    1.5955    0.0857    1.3569 H   0  0  0  0  0  0  0  0  0  0  0  0
    2.6238    0.0734   -0.0870 H   0  0  0  0  0  0  0  0  0  0  0  0
   -2.6056   -0.0548    0.0845 H   0  0  0  0  0  0  0  0  0  0  0  0
   -1.5774   -0.0672   -1.3595 H   0  0  0  0  0  0  0  0  0  0  0  0
   -1.3698   -2.2135   -0.0822 H   0  0  0  0  0  0  0  0  0  0  0  0
   -0.8565   -1.3186    1.3596 H   0  0  0  0  0  0  0  0  0  0  0  0
  1  8  1  0  0  0  0
  1  2  1  0  0  0  0
  1  5  1  0  0  0  0
  2  9  1  0  0  0  0
  3 11  1  0  0  0  0
  3  4  1  0  0  0  0
  3  5  1  0  0  0  0
  4 14  1  0  0  0  0
  6  2  1  0  0  0  0
  6  4  1  0  0  0  0
  7  1  1  0  0  0  0
 10  2  1  0  0  0  0
 12  3  1  0  0  0  0
 13  4  1  0  0  0  0
M  END
>  <HBA>
2

>  <HBD>
0

>  <TPSA>
50.6

>  <cid>
10452

>  <dipole>
0.0

>  <excitation_energy_1>
5.239

>  <excitation_energy_2>
5.25

>  <excitation_energy_3>
5.439

>  <excitation_energy_4>
5.75

>  <homo_energy>
-6.006

>  <homo_lumo_gap>
6.95

>  <logP>
1.466

>  <lumo_energy>
0.944

>  <melting_point>
15.28

>  <molecular_refractivity>
34.41

>  <oscillator_strength_1>
0.0071

>  <oscillator_strength_2>
0.0

>  <oscillator_strength_3>
0.0

>  <oscillator_strength_4>
0.0457

>  <open_babel_can_smiles>
S1CCSCC1

>  <mulliken_charges>
14
1   -0.407854
2   -0.408249
3   -0.408206
4   -0.407942
5   0.088835
6   0.088852
7   0.184586
8   0.179005
9   0.18462
10   0.179059
11   0.179064
12   0.184625
13   0.179016
14   0.18459

>  <lowdin_charges>
14
1   -0.379089
2   -0.377301
3   -0.377297
4   -0.379103
5   0.091035
6   0.091044
7   0.161683
8   0.171754
9   0.16166
10   0.170256
11   0.170258
12   0.161662
13   0.171756
14   0.161683

$$$$

