PCCDB-ID:  70554
public computational chemistry database (PCCDB) project, http://pccdb.org

 28 29  0  0  0  0  0  0  0  0999 V2000
   -1.4623    0.1721    0.4341 C   0  0  0  0  0  0  0  0  0  0  0  0
   -0.6239    1.0503    1.1232 C   0  0  0  0  0  0  0  0  0  0  0  0
   -0.9139   -0.7303   -0.4793 C   0  0  0  0  0  0  0  0  0  0  0  0
    0.7517    1.0276    0.8988 C   0  0  0  0  0  0  0  0  0  0  0  0
    0.4618   -0.7552   -0.7016 C   0  0  0  0  0  0  0  0  0  0  0  0
    3.5500    1.2770   -0.2412 C   0  0  0  0  0  0  0  0  0  0  0  0
    4.9195    1.1960   -0.4676 C   0  0  0  0  0  0  0  0  0  0  0  0
    3.4592   -1.0998   -0.4980 C   0  0  0  0  0  0  0  0  0  0  0  0
    1.3169    0.1241   -0.0164 C   0  0  0  0  0  0  0  0  0  0  0  0
    2.7817    0.0984   -0.2548 C   0  0  0  0  0  0  0  0  0  0  0  0
    4.8403   -1.0803   -0.7280 C   0  0  0  0  0  0  0  0  0  0  0  0
    5.5938   -2.3289   -1.0035 C   0  0  0  0  0  0  0  0  0  0  0  0
    6.9771   -2.2270   -1.0791 N   0  0  0  0  0  0  0  0  0  0  0  0
    5.7617   -4.5470   -1.3915 N   0  0  0  0  0  0  0  0  0  0  0  0
    5.5674    0.0506   -0.7101 N   0  0  0  0  0  0  0  0  0  0  0  0
    4.9448   -3.4395   -1.1219 N   0  0  0  0  0  0  0  0  0  0  0  0
   -2.5347    0.1905    0.6080 H   0  0  0  0  0  0  0  0  0  0  0  0
   -1.0401    1.7504    1.8427 H   0  0  0  0  0  0  0  0  0  0  0  0
   -1.5590   -1.4129   -1.0258 H   0  0  0  0  0  0  0  0  0  0  0  0
    1.3981    1.6979    1.4583 H   0  0  0  0  0  0  0  0  0  0  0  0
    0.8773   -1.4455   -1.4300 H   0  0  0  0  0  0  0  0  0  0  0  0
    3.0832    2.2435   -0.0805 H   0  0  0  0  0  0  0  0  0  0  0  0
    5.5299    2.0975   -0.4629 H   0  0  0  0  0  0  0  0  0  0  0  0
    2.9459   -2.0539   -0.4945 H   0  0  0  0  0  0  0  0  0  0  0  0
    7.2802   -1.2587   -1.1288 H   0  0  0  0  0  0  0  0  0  0  0  0
    7.3828   -2.8196   -1.7981 H   0  0  0  0  0  0  0  0  0  0  0  0
    5.1984   -5.3783   -1.2396 H   0  0  0  0  0  0  0  0  0  0  0  0
    6.5628   -4.5769   -0.7518 H   0  0  0  0  0  0  0  0  0  0  0  0
  1 17  1  0  0  0  0
  1  2  2  0  0  0  0
  2 18  1  0  0  0  0
  3  1  1  0  0  0  0
  4  2  1  0  0  0  0
  4 20  1  0  0  0  0
  5  3  2  0  0  0  0
  5  9  1  0  0  0  0
  6 22  1  0  0  0  0
  7 23  1  0  0  0  0
  7  6  2  0  0  0  0
  8 24  1  0  0  0  0
  8 10  2  0  0  0  0
  9  4  2  0  0  0  0
 10  6  1  0  0  0  0
 10  9  1  0  0  0  0
 11 15  2  0  0  0  0
 11  8  1  0  0  0  0
 12 11  1  0  0  0  0
 13 12  2  0  0  0  0
 14 27  1  0  0  0  0
 14 16  1  0  0  0  0
 14 28  1  0  0  0  0
 15  7  1  0  0  0  0
 16 12  1  0  0  0  0
 19  3  1  0  0  0  0
 21  5  1  0  0  0  0
 25 13  1  0  0  0  0
 26 13  1  0  0  0  0
M  RAD  1  16   2
M  END
>  <HBA>
4

>  <HBD>
2

>  <TPSA>
77.29

>  <cid>
70554

>  <dipole>
1.11

>  <excitation_energy_1>
3.638

>  <excitation_energy_2>
4.093

>  <excitation_energy_3>
4.662

>  <excitation_energy_4>
4.693

>  <homo_energy>
-5.306

>  <homo_lumo_gap>
4.074

>  <logP>
2.728

>  <lumo_energy>
-1.233

>  <melting_point>
187.29

>  <molecular_refractivity>
63.74

>  <oscillator_strength_1>
0.1056

>  <oscillator_strength_2>
0.1482

>  <oscillator_strength_3>
0.0103

>  <oscillator_strength_4>
0.0418

>  <open_babel_can_smiles>
N[N]C(=[NH2])c1nccc(c1)c1ccccc1

>  <mulliken_charges>
28
1   -0.123538
2   -0.134274
3   -0.134985
4   -0.172388
5   -0.170089
6   -0.193086
7   0.042697
8   -0.208007
9   0.092225
10   0.111276
11   0.304985
12   0.446323
13   -0.796278
14   -0.585144
15   -0.533646
16   -0.388279
17   0.133296
18   0.133766
19   0.135216
20   0.134995
21   0.144348
22   0.138752
23   0.139363
24   0.168416
25   0.348984
26   0.331417
27   0.324471
28   0.309186

>  <lowdin_charges>
28
1   -0.150577
2   -0.154167
3   -0.15415
4   -0.159513
5   -0.155497
6   -0.18518
7   -0.086986
8   -0.164186
9   -0.004946
10   0.024271
11   0.044839
12   0.044336
13   -0.497766
14   -0.455165
15   -0.172916
16   -0.176917
17   0.157972
18   0.16074
19   0.161914
20   0.161815
21   0.165879
22   0.165199
23   0.157202
24   0.181512
25   0.287783
26   0.281375
27   0.268946
28   0.254186

$$$$

