PCCDB-ID:  49262
public computational chemistry database (PCCDB) project, http://pccdb.org

 35 35  0  0  1  0  0  0  0  0999 V2000
    1.9801   -1.4717    3.2295 C   0  0  0  0  0  0  0  0  0  0  0  0
    2.0040   -0.4842   -1.7831 C   0  0  0  0  0  0  0  0  0  0  0  0
    6.4887   -0.0272   -2.5197 C   0  0  0  0  0  0  0  0  0  0  0  0
    3.3369   -1.6538    2.5398 C   0  0  0  0  0  0  0  0  0  0  0  0
    3.4566   -0.7895   -2.0377 C   0  0  0  0  0  0  0  0  0  0  0  0
    5.8609   -1.3366   -2.0108 C   0  0  0  0  0  0  0  0  0  0  0  0
    3.2511   -1.3235    1.0410 C   0  0  0  0  0  0  0  0  0  0  0  0
    4.5138   -1.1581   -1.2837 C   0  0  0  0  0  0  0  0  0  0  0  0
    5.0941   -2.8995    0.3948 C   0  0  0  0  0  0  0  0  0  0  0  0
    5.6297   -0.5515    0.8714 C   0  0  0  0  0  0  0  0  0  0  0  0
    6.6761   -2.2987    1.9771 C   0  0  0  0  0  0  0  0  0  0  0  0
    4.5828   -1.4643    0.2285 C   0  0  2  0  0  0  0  0  0  0  0  0
    6.0214   -3.2769    1.1799 N   0  0  0  0  0  0  0  0  0  0  0  0
    6.5614   -0.9167    1.6558 N   0  0  0  0  0  0  0  0  0  0  0  0
    4.4567   -3.8342   -0.3382 O   0  0  0  0  0  0  0  0  0  0  0  0
    5.4953    0.7670    0.6111 O   0  0  0  0  0  0  0  0  0  0  0  0
    7.3607   -2.6427    2.9127 O   0  0  0  0  0  0  0  0  0  0  0  0
    2.0512   -1.7173    4.2939 H   0  0  0  0  0  0  0  0  0  0  0  0
    1.2154   -2.1229    2.7884 H   0  0  0  0  0  0  0  0  0  0  0  0
    1.6253   -0.4368    3.1497 H   0  0  0  0  0  0  0  0  0  0  0  0
    1.3762   -1.1660   -2.3727 H   0  0  0  0  0  0  0  0  0  0  0  0
    1.7767    0.5251   -2.1516 H   0  0  0  0  0  0  0  0  0  0  0  0
    1.6823   -0.5428   -0.7470 H   0  0  0  0  0  0  0  0  0  0  0  0
    7.4288   -0.2368   -3.0411 H   0  0  0  0  0  0  0  0  0  0  0  0
    6.7105    0.6582   -1.6958 H   0  0  0  0  0  0  0  0  0  0  0  0
    5.8233    0.4865   -3.2227 H   0  0  0  0  0  0  0  0  0  0  0  0
    3.6802   -2.6854    2.6789 H   0  0  0  0  0  0  0  0  0  0  0  0
    4.0803   -1.0107    3.0247 H   0  0  0  0  0  0  0  0  0  0  0  0
    3.7011   -0.6725   -3.0965 H   0  0  0  0  0  0  0  0  0  0  0  0
    6.5786   -1.8356   -1.3513 H   0  0  0  0  0  0  0  0  0  0  0  0
    5.7154   -2.0137   -2.8613 H   0  0  0  0  0  0  0  0  0  0  0  0
    2.8919   -0.2937    0.9318 H   0  0  0  0  0  0  0  0  0  0  0  0
    2.4998   -1.9756    0.5812 H   0  0  0  0  0  0  0  0  0  0  0  0
    3.8671   -3.3852   -0.9709 H   0  0  0  0  0  0  0  0  0  0  0  0
    4.8295    0.8806   -0.0910 H   0  0  0  0  0  0  0  0  0  0  0  0
  1 18  1  0  0  0  0
  2 23  1  0  0  0  0
  3  6  1  0  0  0  0
  3 25  1  0  0  0  0
  4 27  1  0  0  0  0
  4 28  1  0  0  0  0
  4  1  1  0  0  0  0
  5  2  1  0  0  0  0
  5  8  2  0  0  0  0
  6 30  1  0  0  0  0
  6  8  1  0  0  0  0
  7  4  1  0  0  0  0
  9 13  2  0  0  0  0
 10 14  2  0  0  0  0
 11 17  2  0  0  0  0
 12  8  1  6  0  0  0
 12  9  1  0  0  0  0
 12 10  1  0  0  0  0
 12  7  1  0  0  0  0
 13 11  2  0  0  0  0
 14 11  1  0  0  0  0
 15  9  1  0  0  0  0
 16 10  1  0  0  0  0
 19  1  1  0  0  0  0
 20  1  1  0  0  0  0
 21  2  1  0  0  0  0
 22  2  1  0  0  0  0
 24  3  1  0  0  0  0
 26  3  1  0  0  0  0
 29  5  1  0  0  0  0
 31  6  1  0  0  0  0
 32  7  1  0  0  0  0
 33  7  1  0  0  0  0
 34 15  1  0  0  0  0
 35 16  1  0  0  0  0
M  END
>  <HBA>
5

>  <HBD>
2

>  <TPSA>
75.27

>  <cid>
49262

>  <dipole>
10.1

>  <excitation_energy_1>
4.021

>  <excitation_energy_2>
4.241

>  <excitation_energy_3>
4.977

>  <excitation_energy_4>
5.382

>  <homo_energy>
-6.787

>  <homo_lumo_gap>
5.369

>  <logP>
2.153

>  <lumo_energy>
-1.418

>  <melting_point>
152.79

>  <molecular_refractivity>
71.37

>  <oscillator_strength_1>
0.0004

>  <oscillator_strength_2>
0.0004

>  <oscillator_strength_3>
0.0351

>  <oscillator_strength_4>
0.0055

>  <open_babel_can_smiles>
CCC[C@@]1(/C(=C\C)/CC)C(=N[C](=[N]=C1O)=O)O

>  <mulliken_charges>
35
1   -0.447932
2   -0.501475
3   -0.458715
4   -0.286799
5   -0.168403
6   -0.329894
7   -0.273532
8   0.058717
9   0.541555
10   0.54454
11   0.617107
12   -0.168638
13   -0.469526
14   -0.468227
15   -0.578014
16   -0.579095
17   -0.431334
18   0.162465
19   0.144181
20   0.144452
21   0.171911
22   0.17197
23   0.171289
24   0.161267
25   0.170231
26   0.144428
27   0.172435
28   0.172636
29   0.146178
30   0.173633
31   0.160116
32   0.150222
33   0.150509
34   0.415608
35   0.416133

>  <lowdin_charges>
35
1   -0.440619
2   -0.453579
3   -0.449746
4   -0.285509
5   -0.166391
6   -0.284305
7   -0.27096
8   -0.061688
9   0.144839
10   0.145662
11   0.171963
12   -0.060195
13   -0.186442
14   -0.184527
15   -0.328473
16   -0.330555
17   -0.21031
18   0.159563
19   0.148638
20   0.146701
21   0.16936
22   0.16762
23   0.164474
24   0.160237
25   0.159877
26   0.148102
27   0.158961
28   0.16128
29   0.159944
30   0.164138
31   0.159082
32   0.148558
33   0.15148
34   0.362398
35   0.360421

$$$$

