PCCDB-ID:  71016
public computational chemistry database (PCCDB) project, http://pccdb.org

 25 26  0  0  0  0  0  0  0  0999 V2000
   -2.5178    0.6843    0.1860 C   0  0  0  0  0  0  0  0  0  0  0  0
   -2.5930   -0.7067   -0.0168 C   0  0  0  0  0  0  0  0  0  0  0  0
   -1.2820    1.3085    0.2152 C   0  0  0  0  0  0  0  0  0  0  0  0
   -1.4456   -1.4645   -0.1897 C   0  0  0  0  0  0  0  0  0  0  0  0
    3.6466    0.9226   -0.0044 C   0  0  0  0  0  0  0  0  0  0  0  0
    4.1328    1.4553   -1.3571 C   0  0  0  0  0  0  0  0  0  0  0  0
   -0.1098    0.5513    0.0462 C   0  0  0  0  0  0  0  0  0  0  0  0
   -0.1807   -0.8457   -0.1600 C   0  0  0  0  0  0  0  0  0  0  0  0
    1.1950    1.2067    0.0703 C   0  0  0  0  0  0  0  0  0  0  0  0
    2.0936   -1.0060   -0.2894 C   0  0  0  0  0  0  0  0  0  0  0  0
    0.9556   -1.6152   -0.3388 N   0  0  0  0  0  0  0  0  0  0  0  0
    2.2958    0.3341   -0.0709 N   0  0  0  0  0  0  0  0  0  0  0  0
    3.2087    2.3123   -1.9931 O   0  0  0  0  0  0  0  0  0  0  0  0
    1.3803    2.4154    0.2119 O   0  0  0  0  0  0  0  0  0  0  0  0
    3.2322   -1.7074   -0.4569 O   0  0  0  0  0  0  0  0  0  0  0  0
   -3.4265    1.2641    0.3172 H   0  0  0  0  0  0  0  0  0  0  0  0
   -3.5643   -1.1938   -0.0410 H   0  0  0  0  0  0  0  0  0  0  0  0
   -1.1862    2.3789    0.3654 H   0  0  0  0  0  0  0  0  0  0  0  0
   -1.4907   -2.5369   -0.3503 H   0  0  0  0  0  0  0  0  0  0  0  0
    3.5815    1.7378    0.7196 H   0  0  0  0  0  0  0  0  0  0  0  0
    4.3347    0.1664    0.3753 H   0  0  0  0  0  0  0  0  0  0  0  0
    4.3150    0.6200   -2.0432 H   0  0  0  0  0  0  0  0  0  0  0  0
    5.1033    1.9509   -1.1790 H   0  0  0  0  0  0  0  0  0  0  0  0
    2.7303    2.8060   -1.3028 H   0  0  0  0  0  0  0  0  0  0  0  0
    2.9437   -2.6281   -0.5951 H   0  0  0  0  0  0  0  0  0  0  0  0
  1  3  1  0  0  0  0
  1 16  1  0  0  0  0
  2  1  2  0  0  0  0
  3 18  1  0  0  0  0
  4  8  2  0  0  0  0
  4  2  1  0  0  0  0
  5 21  1  0  0  0  0
  5 20  1  0  0  0  0
  6 23  1  0  0  0  0
  6  5  1  0  0  0  0
  7  9  1  0  0  0  0
  7  3  2  0  0  0  0
  8  7  1  0  0  0  0
  9 14  2  0  0  0  0
 10 12  1  0  0  0  0
 11 10  2  0  0  0  0
 11  8  1  0  0  0  0
 12  5  1  0  0  0  0
 12  9  1  0  0  0  0
 13  6  1  0  0  0  0
 13 24  1  0  0  0  0
 15 10  1  0  0  0  0
 17  2  1  0  0  0  0
 19  4  1  0  0  0  0
 22  6  1  0  0  0  0
 25 15  1  0  0  0  0
M  END
>  <HBA>
4

>  <HBD>
2

>  <TPSA>
75.09

>  <cid>
71016

>  <dipole>
3.12

>  <excitation_energy_1>
4.259

>  <excitation_energy_2>
4.848

>  <excitation_energy_3>
4.907

>  <excitation_energy_4>
5.154

>  <homo_energy>
-6.199

>  <homo_lumo_gap>
4.898

>  <logP>
-0.318

>  <lumo_energy>
-1.301

>  <melting_point>
186.93

>  <molecular_refractivity>
56.06

>  <oscillator_strength_1>
0.0618

>  <oscillator_strength_2>
0.0389

>  <oscillator_strength_3>
0.0309

>  <oscillator_strength_4>
0.0038

>  <open_babel_can_smiles>
OCCn1c(O)nc2c(c1=O)cccc2

>  <mulliken_charges>
25
1   -0.14019
2   -0.125026
3   -0.171905
4   -0.164052
5   -0.211561
6   0.000608
7   0.057553
8   0.257703
9   0.596913
10   0.723169
11   -0.594014
12   -0.514855
13   -0.632689
14   -0.552363
15   -0.608363
16   0.138602
17   0.139499
18   0.165071
19   0.142356
20   0.188589
21   0.181612
22   0.150585
23   0.125714
24   0.415303
25   0.431741

>  <lowdin_charges>
25
1   -0.165221
2   -0.133279
3   -0.121537
4   -0.163225
5   -0.222035
6   -0.132826
7   -0.069633
8   0.059835
9   0.171587
10   0.17851
11   -0.234124
12   -0.054118
13   -0.47551
14   -0.313007
15   -0.34561
16   0.163347
17   0.162995
18   0.176102
19   0.166909
20   0.172772
21   0.174811
22   0.147462
23   0.131284
24   0.349042
25   0.375471

$$$$

