PCCDB-ID:  70960
public computational chemistry database (PCCDB) project, http://pccdb.org

 21 21  0  0  0  0  0  0  0  0999 V2000
    1.4306   -1.6116    0.6434 C   0  0  0  0  0  0  0  0  0  0  0  0
    1.4873    3.4975    0.6538 C   0  0  0  0  0  0  0  0  0  0  0  0
    3.9791   -1.8879    0.0288 C   0  0  0  0  0  0  0  0  0  0  0  0
    5.1130   -0.8934   -0.3094 C   0  0  0  0  0  0  0  0  0  0  0  0
    2.7478   -1.0325    0.2467 C   0  0  0  0  0  0  0  0  0  0  0  0
    2.3510    2.3040    0.9643 C   0  0  0  0  0  0  0  0  0  0  0  0
    4.4352    0.4772   -0.3806 C   0  0  0  0  0  0  0  0  0  0  0  0
    3.0294    0.2631    0.0255 C   0  0  0  0  0  0  0  0  0  0  0  0
    3.1289    2.1923    1.8755 O   0  0  0  0  0  0  0  0  0  0  0  0
    4.9357    1.5323   -0.7173 O   0  0  0  0  0  0  0  0  0  0  0  0
    2.1229    1.3023    0.0399 O   0  0  0  0  0  0  0  0  0  0  0  0
    1.5181   -2.1536    1.5944 H   0  0  0  0  0  0  0  0  0  0  0  0
    1.0834   -2.3386   -0.1029 H   0  0  0  0  0  0  0  0  0  0  0  0
    0.6682   -0.8361    0.7531 H   0  0  0  0  0  0  0  0  0  0  0  0
    1.8689    3.9891   -0.2479 H   0  0  0  0  0  0  0  0  0  0  0  0
    1.5185    4.1967    1.4898 H   0  0  0  0  0  0  0  0  0  0  0  0
    0.4575    3.1893    0.4505 H   0  0  0  0  0  0  0  0  0  0  0  0
    4.1966   -2.4861    0.9233 H   0  0  0  0  0  0  0  0  0  0  0  0
    3.8057   -2.6071   -0.7836 H   0  0  0  0  0  0  0  0  0  0  0  0
    5.6170   -1.1112   -1.2561 H   0  0  0  0  0  0  0  0  0  0  0  0
    5.8865   -0.8648    0.4661 H   0  0  0  0  0  0  0  0  0  0  0  0
  1 14  1  0  0  0  0
  1 12  1  0  0  0  0
  2  6  1  0  0  0  0
  2 16  1  0  0  0  0
  3  5  1  0  0  0  0
  3 18  1  0  0  0  0
  4  3  1  0  0  0  0
  4 21  1  0  0  0  0
  5  1  1  0  0  0  0
  6  9  2  0  0  0  0
  7  4  1  0  0  0  0
  7  8  1  0  0  0  0
  8 11  1  0  0  0  0
  8  5  2  0  0  0  0
 10  7  2  0  0  0  0
 11  6  1  0  0  0  0
 13  1  1  0  0  0  0
 15  2  1  0  0  0  0
 17  2  1  0  0  0  0
 19  3  1  0  0  0  0
 20  4  1  0  0  0  0
M  END
>  <HBA>
3

>  <HBD>
0

>  <TPSA>
43.37

>  <cid>
70960

>  <dipole>
3.99

>  <excitation_energy_1>
3.912

>  <excitation_energy_2>
5.377

>  <excitation_energy_3>
5.642

>  <excitation_energy_4>
5.784

>  <homo_energy>
-6.547

>  <homo_lumo_gap>
5.388

>  <logP>
1.186

>  <lumo_energy>
-1.159

>  <melting_point>
45.15

>  <molecular_refractivity>
39.47

>  <oscillator_strength_1>
0.0008

>  <oscillator_strength_2>
0.1328

>  <oscillator_strength_3>
0.163

>  <oscillator_strength_4>
0.0235

>  <open_babel_can_smiles>
CC(=O)OC1=C(C)CCC1=O

>  <mulliken_charges>
21
1   -0.52401
2   -0.530749
3   -0.345396
4   -0.373615
5   0.130948
6   0.606208
7   0.427559
8   0.275162
9   -0.439137
10   -0.47136
11   -0.522316
12   0.171706
13   0.169002
14   0.176144
15   0.198499
16   0.185276
17   0.179392
18   0.162142
19   0.161588
20   0.177085
21   0.185872

>  <lowdin_charges>
21
1   -0.442151
2   -0.462986
3   -0.273142
4   -0.305816
5   0.016407
6   0.216992
7   0.141213
8   0.02776
9   -0.232192
10   -0.240186
11   -0.162728
12   0.169027
13   0.16839
14   0.170462
15   0.18791
16   0.178308
17   0.175581
18   0.159082
19   0.158649
20   0.171851
21   0.177569

$$$$

