PCCDB-ID:  36004
public computational chemistry database (PCCDB) project, http://pccdb.org

 40 42  0  0  1  0  0  0  0  0999 V2000
    1.5396    0.4611   -0.1518 C   0  0  0  0  0  0  0  0  0  0  0  0
    5.0459   -0.8566   -0.7310 C   0  0  0  0  0  0  0  0  0  0  0  0
    5.6099   -2.1874   -1.2507 C   0  0  0  0  0  0  0  0  0  0  0  0
    3.5151   -0.8519   -0.6982 C   0  0  0  0  0  0  0  0  0  0  0  0
    9.6561   -3.7799   -0.6405 C   0  0  0  0  0  0  0  0  0  0  0  0
    9.9385   -1.3140   -1.0565 C   0  0  0  0  0  0  0  0  0  0  0  0
    9.5791   -2.8832   -2.9926 C   0  0  0  0  0  0  0  0  0  0  0  0
    7.8340   -2.1687    0.0310 C   0  0  0  0  0  0  0  0  0  0  0  0
    7.4804   -3.7321   -1.8988 C   0  0  0  0  0  0  0  0  0  0  0  0
    7.7590   -1.2737   -2.3153 C   0  0  0  0  0  0  0  0  0  0  0  0
    9.3601   -2.3692   -0.0910 C   0  0  1  0  0  0  0  0  0  0  0  0
    9.0022   -3.9384   -2.0276 C   0  0  2  0  0  0  0  0  0  0  0  0
    9.2844   -1.4721   -2.4447 C   0  0  1  0  0  0  0  0  0  0  0  0
    7.1466   -2.3199   -1.3496 C   0  0  1  0  0  0  0  0  0  0  0  0
    2.9964    0.4001   -0.1532 N   0  0  0  0  0  0  0  0  0  0  0  0
    1.2131    1.4415    0.2109 H   0  0  0  0  0  0  0  0  0  0  0  0
    1.1455   -0.2962    0.5367 H   0  0  0  0  0  0  0  0  0  0  0  0
    1.0730    0.2842   -1.1401 H   0  0  0  0  0  0  0  0  0  0  0  0
    5.3870   -0.0284   -1.3685 H   0  0  0  0  0  0  0  0  0  0  0  0
    5.4103   -0.6440    0.2807 H   0  0  0  0  0  0  0  0  0  0  0  0
    5.1873   -2.3820   -2.2484 H   0  0  0  0  0  0  0  0  0  0  0  0
    5.2393   -2.9983   -0.6051 H   0  0  0  0  0  0  0  0  0  0  0  0
    3.1600   -1.6678   -0.0525 H   0  0  0  0  0  0  0  0  0  0  0  0
    3.1221   -1.0717   -1.7125 H   0  0  0  0  0  0  0  0  0  0  0  0
    9.2684   -4.5428    0.0490 H   0  0  0  0  0  0  0  0  0  0  0  0
   10.7414   -3.9372   -0.7130 H   0  0  0  0  0  0  0  0  0  0  0  0
   11.0280   -1.4327   -1.1371 H   0  0  0  0  0  0  0  0  0  0  0  0
    9.7555   -0.3032   -0.6659 H   0  0  0  0  0  0  0  0  0  0  0  0
    9.1354   -3.0016   -3.9912 H   0  0  0  0  0  0  0  0  0  0  0  0
   10.6628   -3.0261   -3.1066 H   0  0  0  0  0  0  0  0  0  0  0  0
    7.6291   -1.1741    0.4486 H   0  0  0  0  0  0  0  0  0  0  0  0
    7.4128   -2.9007    0.7357 H   0  0  0  0  0  0  0  0  0  0  0  0
    7.0537   -4.4945   -1.2308 H   0  0  0  0  0  0  0  0  0  0  0  0
    6.9992   -3.8680   -2.8784 H   0  0  0  0  0  0  0  0  0  0  0  0
    7.2820   -1.3575   -3.3030 H   0  0  0  0  0  0  0  0  0  0  0  0
    7.5554   -0.2579   -1.9509 H   0  0  0  0  0  0  0  0  0  0  0  0
    9.8208   -2.2551    0.8995 H   0  0  0  0  0  0  0  0  0  0  0  0
    9.2022   -4.9455   -2.4179 H   0  0  0  0  0  0  0  0  0  0  0  0
    9.6906   -0.7179   -3.1321 H   0  0  0  0  0  0  0  0  0  0  0  0
    3.3594    1.1732   -0.7098 H   0  0  0  0  0  0  0  0  0  0  0  0
  1 16  1  0  0  0  0
  1 17  1  0  0  0  0
  2  4  1  0  0  0  0
  2 20  1  0  0  0  0
  3  2  1  0  0  0  0
  3 22  1  0  0  0  0
  4 15  1  0  0  0  0
  4 23  1  0  0  0  0
  5 11  1  0  0  0  0
  5 25  1  0  0  0  0
  6 28  1  0  0  0  0
  6 11  1  0  0  0  0
  7 13  1  0  0  0  0
  7 12  1  0  0  0  0
  8 31  1  0  0  0  0
  8 32  1  0  0  0  0
  9 14  1  0  0  0  0
  9 33  1  0  0  0  0
 10 36  1  0  0  0  0
 10 14  1  0  0  0  0
 11  8  1  0  0  0  0
 11 37  1  1  0  0  0
 12 38  1  6  0  0  0
 12  9  1  0  0  0  0
 12  5  1  0  0  0  0
 13 39  1  6  0  0  0
 13 10  1  0  0  0  0
 13  6  1  0  0  0  0
 14  3  1  1  0  0  0
 14  8  1  0  0  0  0
 15  1  1  0  0  0  0
 18  1  1  0  0  0  0
 19  2  1  0  0  0  0
 21  3  1  0  0  0  0
 24  4  1  0  0  0  0
 26  5  1  0  0  0  0
 27  6  1  0  0  0  0
 29  7  1  0  0  0  0
 30  7  1  0  0  0  0
 34  9  1  0  0  0  0
 35 10  1  0  0  0  0
 40 15  1  0  0  0  0
M  END
>  <HBA>
1

>  <HBD>
1

>  <TPSA>
12.03

>  <cid>
36004

>  <dipole>
0.9

>  <excitation_energy_1>
5.301

>  <excitation_energy_2>
5.662

>  <excitation_energy_3>
5.815

>  <excitation_energy_4>
6.053

>  <homo_energy>
-5.829

>  <homo_lumo_gap>
7.728

>  <logP>
3.593

>  <lumo_energy>
1.899

>  <melting_point>
81.72

>  <molecular_refractivity>
65.61

>  <oscillator_strength_1>
0.0005

>  <oscillator_strength_2>
0.0032

>  <oscillator_strength_3>
0.0224

>  <oscillator_strength_4>
0.0152

>  <open_babel_can_smiles>
CNCCC[C@]12C[C@H]3C[C@@H](C2)C[C@@H](C1)C3

>  <mulliken_charges>
40
1   -0.297905
2   -0.27801
3   -0.265661
4   -0.110534
5   -0.263679
6   -0.264504
7   -0.263792
8   -0.275988
9   -0.273394
10   -0.275941
11   -0.091133
12   -0.088804
13   -0.090577
14   0.093383
15   -0.541389
16   0.146132
17   0.150053
18   0.116881
19   0.126419
20   0.151228
21   0.121794
22   0.123419
23   0.135056
24   0.104059
25   0.123917
26   0.123509
27   0.12389
28   0.124126
29   0.12344
30   0.123639
31   0.129352
32   0.121487
33   0.121836
34   0.121167
35   0.119933
36   0.127138
37   0.113991
38   0.113107
39   0.113051
40   0.289306

>  <lowdin_charges>
40
1   -0.360317
2   -0.283182
3   -0.273307
4   -0.200559
5   -0.280241
6   -0.278013
7   -0.27828
8   -0.28185
9   -0.279942
10   -0.279917
11   -0.130212
12   -0.130579
13   -0.132006
14   0.001467
15   -0.364854
16   0.149113
17   0.148464
18   0.118715
19   0.137482
20   0.14878
21   0.137088
22   0.139632
23   0.139551
24   0.110793
25   0.139887
26   0.13683
27   0.137029
28   0.138018
29   0.137903
30   0.136907
31   0.140334
32   0.139404
33   0.139155
34   0.137304
35   0.136855
36   0.13863
37   0.137696
38   0.137175
39   0.138914
40   0.250133

$$$$

