PCCDB-ID:  29639
public computational chemistry database (PCCDB) project, http://pccdb.org

 24 23  0  0  0  0  0  0  0  0999 V2000
    3.3017    0.3442   -1.2218 C   0  0  0  0  0  0  0  0  0  0  0  0
    4.8413    1.6243    3.6856 C   0  0  0  0  0  0  0  0  0  0  0  0
    5.5584   -2.1034    1.5615 C   0  0  0  0  0  0  0  0  0  0  0  0
    1.3269   -0.0244    0.3529 C   0  0  0  0  0  0  0  0  0  0  0  0
    2.6398    0.1692    0.1055 C   0  0  0  0  0  0  0  0  0  0  0  0
    0.2670   -0.1099   -0.6721 C   0  0  0  0  0  0  0  0  0  0  0  0
    0.4075   -0.0580   -1.8753 O   0  0  0  0  0  0  0  0  0  0  0  0
   -0.9935   -0.2698   -0.1681 O   0  0  0  0  0  0  0  0  0  0  0  0
    5.4997    1.6995    0.5992 O   0  0  0  0  0  0  0  0  0  0  0  0
    5.2207    0.4661    2.9131 O   0  0  0  0  0  0  0  0  0  0  0  0
    5.7585   -0.8546    0.8681 O   0  0  0  0  0  0  0  0  0  0  0  0
    3.4340    0.1829    1.2390 O   0  0  0  0  0  0  0  0  0  0  0  0
    5.0476    0.4989    1.3214 P   0  0  0  0  0  0  0  0  0  0  0  0
    2.5585    0.2592   -2.0129 H   0  0  0  0  0  0  0  0  0  0  0  0
    4.0765   -0.4200   -1.3582 H   0  0  0  0  0  0  0  0  0  0  0  0
    3.8006    1.3180   -1.2691 H   0  0  0  0  0  0  0  0  0  0  0  0
    5.3108    2.5227    3.2776 H   0  0  0  0  0  0  0  0  0  0  0  0
    5.1960    1.4417    4.7005 H   0  0  0  0  0  0  0  0  0  0  0  0
    3.7525    1.7346    3.6863 H   0  0  0  0  0  0  0  0  0  0  0  0
    5.9620   -2.0391    2.5745 H   0  0  0  0  0  0  0  0  0  0  0  0
    6.1014   -2.8544    0.9868 H   0  0  0  0  0  0  0  0  0  0  0  0
    4.4954   -2.3597    1.5970 H   0  0  0  0  0  0  0  0  0  0  0  0
    1.0420   -0.1240    1.3976 H   0  0  0  0  0  0  0  0  0  0  0  0
   -0.9714   -0.2819    0.8021 H   0  0  0  0  0  0  0  0  0  0  0  0
  1  5  1  0  0  0  0
  2 19  1  0  0  0  0
  2 18  1  0  0  0  0
  3 22  1  0  0  0  0
  3 20  1  0  0  0  0
  4 23  1  0  0  0  0
  5  4  2  0  0  0  0
  5 12  1  0  0  0  0
  6  8  1  0  0  0  0
  6  4  1  0  0  0  0
  7  6  2  0  0  0  0
  8 24  1  0  0  0  0
  9 13  2  0  0  0  0
 10  2  1  0  0  0  0
 11 13  1  0  0  0  0
 11  3  1  0  0  0  0
 12 13  1  0  0  0  0
 13 10  1  0  0  0  0
 14  1  1  0  0  0  0
 15  1  1  0  0  0  0
 16  1  1  0  0  0  0
 17  2  1  0  0  0  0
 21  3  1  0  0  0  0
M  END
>  <HBA>
6

>  <HBD>
1

>  <TPSA>
91.87

>  <cid>
29639

>  <dipole>
6.49

>  <excitation_energy_1>
4.741

>  <excitation_energy_2>
5.562

>  <excitation_energy_3>
5.996

>  <excitation_energy_4>
6.362

>  <homo_energy>
-7.037

>  <homo_lumo_gap>
5.875

>  <logP>
1.392

>  <lumo_energy>
-1.162

>  <melting_point>
54.74

>  <molecular_refractivity>
44.17

>  <oscillator_strength_1>
0.0

>  <oscillator_strength_2>
0.473

>  <oscillator_strength_3>
0.004

>  <oscillator_strength_4>
0.0085

>  <open_babel_can_smiles>
COP(=O)(O/C(=C/C(=O)O)/C)OC

>  <mulliken_charges>
24
1   -0.573804
2   -0.224117
3   -0.226742
4   -0.324347
5   0.416367
6   0.618064
7   -0.466373
8   -0.581177
9   -0.537879
10   -0.522192
11   -0.508584
12   -0.57687
13   1.263419
14   0.228135
15   0.183578
16   0.216778
17   0.192185
18   0.177943
19   0.171715
20   0.182636
21   0.182052
22   0.171271
23   0.130488
24   0.407456

>  <lowdin_charges>
24
1   -0.472409
2   -0.265094
3   -0.264808
4   -0.283249
5   0.170778
6   0.198288
7   -0.25801
8   -0.359386
9   -0.563041
10   -0.391326
11   -0.379457
12   -0.348203
13   1.140011
14   0.200886
15   0.178647
16   0.194715
17   0.172151
18   0.166109
19   0.156924
20   0.164408
21   0.170533
22   0.157758
23   0.161432
24   0.352345

$$$$

