PCCDB-ID:  51557
public computational chemistry database (PCCDB) project, http://pccdb.org

 27 30  0  0  1  0  0  0  0  0999 V2000
   -3.9669    0.6050    0.0744 C   0  0  0  0  0  0  0  0  0  0  0  0
   -3.8851   -0.8091    0.1070 C   0  0  0  0  0  0  0  0  0  0  0  0
   -2.8226    1.3667   -0.0074 C   0  0  0  0  0  0  0  0  0  0  0  0
   -2.6592   -1.4339    0.0569 C   0  0  0  0  0  0  0  0  0  0  0  0
    2.1681    1.7027   -0.3900 C   0  0  0  0  0  0  0  0  0  0  0  0
    3.3712    1.1133    0.3683 C   0  0  0  0  0  0  0  0  0  0  0  0
   -0.3411    1.5051   -0.1543 C   0  0  0  0  0  0  0  0  0  0  0  0
   -0.1776   -1.2807   -0.0730 C   0  0  0  0  0  0  0  0  0  0  0  0
   -1.5426    0.7530   -0.0609 C   0  0  0  0  0  0  0  0  0  0  0  0
   -1.4605   -0.6762   -0.0275 C   0  0  0  0  0  0  0  0  0  0  0  0
    0.8956    0.9003   -0.2060 C   0  0  0  0  0  0  0  0  0  0  0  0
    0.9739   -0.5269   -0.1487 C   0  0  0  0  0  0  0  0  0  0  0  0
    3.5216   -0.3807    0.1051 C   0  0  2  0  0  0  0  0  0  0  0  0
    2.3130   -1.1862   -0.1518 C   0  0  1  0  0  0  0  0  0  0  0  0
    3.0024   -1.2513    1.1194 O   0  0  0  0  0  0  0  0  0  0  0  0
   -4.9400    1.0869    0.1149 H   0  0  0  0  0  0  0  0  0  0  0  0
   -4.7957   -1.3984    0.1721 H   0  0  0  0  0  0  0  0  0  0  0  0
   -2.8841    2.4523   -0.0334 H   0  0  0  0  0  0  0  0  0  0  0  0
   -2.5915   -2.5191    0.0830 H   0  0  0  0  0  0  0  0  0  0  0  0
    2.4121    1.7312   -1.4631 H   0  0  0  0  0  0  0  0  0  0  0  0
    2.0028    2.7434   -0.0884 H   0  0  0  0  0  0  0  0  0  0  0  0
    3.2419    1.2534    1.4475 H   0  0  0  0  0  0  0  0  0  0  0  0
    4.2860    1.6427    0.0783 H   0  0  0  0  0  0  0  0  0  0  0  0
   -0.4119    2.5907   -0.1971 H   0  0  0  0  0  0  0  0  0  0  0  0
   -0.1089   -2.3664   -0.0373 H   0  0  0  0  0  0  0  0  0  0  0  0
    4.4678   -0.7181   -0.3211 H   0  0  0  0  0  0  0  0  0  0  0  0
    2.3964   -2.1050   -0.7343 H   0  0  0  0  0  0  0  0  0  0  0  0
  1  2  1  0  0  0  0
  1 16  1  0  0  0  0
  2 17  1  0  0  0  0
  3  1  2  0  0  0  0
  4 19  1  0  0  0  0
  4  2  2  0  0  0  0
  5 11  1  0  0  0  0
  5 21  1  0  0  0  0
  5  6  1  0  0  0  0
  6 22  1  0  0  0  0
  7  9  1  0  0  0  0
  8 25  1  0  0  0  0
  8 10  1  0  0  0  0
  9 10  2  0  0  0  0
  9  3  1  0  0  0  0
 10  4  1  0  0  0  0
 11  7  2  0  0  0  0
 11 12  1  0  0  0  0
 12  8  2  0  0  0  0
 13 26  1  6  0  0  0
 13  6  1  0  0  0  0
 13 15  1  0  0  0  0
 14 27  1  6  0  0  0
 14 12  1  0  0  0  0
 14 13  1  0  0  0  0
 14 15  1  0  0  0  0
 18  3  1  0  0  0  0
 20  5  1  0  0  0  0
 23  6  1  0  0  0  0
 24  7  1  0  0  0  0
M  END
>  <HBA>
1

>  <HBD>
0

>  <TPSA>
12.53

>  <cid>
51557

>  <dipole>
2.01

>  <excitation_energy_1>
4.223

>  <excitation_energy_2>
4.34

>  <excitation_energy_3>
5.32

>  <excitation_energy_4>
5.401

>  <homo_energy>
-5.799

>  <homo_lumo_gap>
4.732

>  <logP>
3.226

>  <lumo_energy>
-1.067

>  <melting_point>
92.21

>  <molecular_refractivity>
60.35

>  <oscillator_strength_1>
0.0257

>  <oscillator_strength_2>
0.0205

>  <oscillator_strength_3>
0.1633

>  <oscillator_strength_4>
0.0002

>  <open_babel_can_smiles>
c1ccc2c(c1)cc1c(c2)CC[C@@H]2[C@H]1O2

>  <mulliken_charges>
27
1   -0.134987
2   -0.138571
3   -0.194098
4   -0.188286
5   -0.358068
6   -0.285473
7   -0.285674
8   -0.262577
9   0.154758
10   0.13747
11   0.137648
12   0.142445
13   0.073071
14   -0.022047
15   -0.4463
16   0.130151
17   0.130322
18   0.129187
19   0.130715
20   0.156379
21   0.14794
22   0.168992
23   0.138821
24   0.122852
25   0.132014
26   0.140638
27   0.142678

>  <lowdin_charges>
27
1   -0.156687
2   -0.160389
3   -0.155448
4   -0.152249
5   -0.268767
6   -0.283456
7   -0.166152
8   -0.148919
9   0.003021
10   -0.002545
11   -0.005519
12   -0.023687
13   -0.026312
14   -0.02763
15   -0.284702
16   0.158543
17   0.15928
18   0.155255
19   0.156074
20   0.152433
21   0.152249
22   0.161504
23   0.152007
24   0.152676
25   0.156867
26   0.149108
27   0.153445

$$$$

