PCCDB-ID:  62412
public computational chemistry database (PCCDB) project, http://pccdb.org

 16 15  0  0  0  0  0  0  0  0999 V2000
    1.0640    0.0191    0.0368 C   0  0  0  0  0  0  0  0  0  0  0  0
    3.0772    1.4975   -0.3790 C   0  0  0  0  0  0  0  0  0  0  0  0
    3.1181   -0.2010    1.4886 C   0  0  0  0  0  0  0  0  0  0  0  0
    3.1378   -1.1966   -1.9918 C   0  0  0  0  0  0  0  0  0  0  0  0
    2.5995    0.1075    0.0755 C   0  0  0  0  0  0  0  0  0  0  0  0
    3.1621   -0.9114   -0.8188 N   0  0  0  0  0  0  0  0  0  0  0  0
    3.2011   -1.5869   -3.1059 O   0  0  0  0  0  0  0  0  0  0  0  0
    0.6241    0.7424    0.7325 H   0  0  0  0  0  0  0  0  0  0  0  0
    0.7272   -0.9827    0.3217 H   0  0  0  0  0  0  0  0  0  0  0  0
    0.6861    0.2374   -0.9683 H   0  0  0  0  0  0  0  0  0  0  0  0
    2.7015    2.2694    0.3018 H   0  0  0  0  0  0  0  0  0  0  0  0
    2.7139    1.7239   -1.3876 H   0  0  0  0  0  0  0  0  0  0  0  0
    4.1707    1.5467   -0.3866 H   0  0  0  0  0  0  0  0  0  0  0  0
    2.7277    0.5311    2.2036 H   0  0  0  0  0  0  0  0  0  0  0  0
    4.2117   -0.1637    1.5156 H   0  0  0  0  0  0  0  0  0  0  0  0
    2.8021   -1.1997    1.8067 H   0  0  0  0  0  0  0  0  0  0  0  0
  1  5  1  0  0  0  0
  1  9  1  0  0  0  0
  1  8  1  0  0  0  0
  2  5  1  0  0  0  0
  2 11  1  0  0  0  0
  3 15  1  0  0  0  0
  3 16  1  0  0  0  0
  3 14  1  0  0  0  0
  4  6  2  0  0  0  0
  5  3  1  0  0  0  0
  6  5  1  0  0  0  0
  7  4  2  0  0  0  0
 10  1  1  0  0  0  0
 12  2  1  0  0  0  0
 13  2  1  0  0  0  0
M  END
>  <HBA>
2

>  <HBD>
0

>  <TPSA>
29.43

>  <cid>
62412

>  <dipole>
3.06

>  <excitation_energy_1>
6.038

>  <excitation_energy_2>
6.789

>  <excitation_energy_3>
6.893

>  <excitation_energy_4>
7.359

>  <homo_energy>
-7.374

>  <homo_lumo_gap>
7.962

>  <logP>
1.121

>  <lumo_energy>
0.588

>  <melting_point>
35.9

>  <molecular_refractivity>
28.44

>  <oscillator_strength_1>
0.0019

>  <oscillator_strength_2>
0.029

>  <oscillator_strength_3>
0.0098

>  <oscillator_strength_4>
0.0049

>  <open_babel_can_smiles>
O=C=NC(C)(C)C

>  <mulliken_charges>
16
1   -0.437546
2   -0.437833
3   -0.433129
4   0.597942
5   0.176243
6   -0.423208
7   -0.419554
8   0.148853
9   0.159264
10   0.151405
11   0.148945
12   0.15148
13   0.159193
14   0.144323
15   0.156782
16   0.156839

>  <lowdin_charges>
16
1   -0.444073
2   -0.442312
3   -0.439789
4   0.164007
5   0.101383
6   -0.174122
7   -0.167848
8   0.156443
9   0.158444
10   0.153837
11   0.156348
12   0.153774
13   0.156926
14   0.1532
15   0.156112
16   0.157671

$$$$

