PCCDB-ID:  52961
public computational chemistry database (PCCDB) project, http://pccdb.org

 35 37  0  0  0  0  0  0  0  0999 V2000
    4.9663   -0.5371    0.8051 C   0  0  0  0  0  0  0  0  0  0  0  0
    3.1076   -2.0382   -3.6392 C   0  0  0  0  0  0  0  0  0  0  0  0
    4.1598   -1.1989   -3.2868 C   0  0  0  0  0  0  0  0  0  0  0  0
   -0.4147   -3.1987    0.8251 C   0  0  0  0  0  0  0  0  0  0  0  0
    0.0253   -4.2612    1.6065 C   0  0  0  0  0  0  0  0  0  0  0  0
    2.3563   -2.6501   -2.6321 C   0  0  0  0  0  0  0  0  0  0  0  0
    0.4565   -2.6175   -0.0959 C   0  0  0  0  0  0  0  0  0  0  0  0
    4.4621   -0.9704   -1.9415 C   0  0  0  0  0  0  0  0  0  0  0  0
    1.7784   -5.9236    2.3393 C   0  0  0  0  0  0  0  0  0  0  0  0
    3.0026   -6.6189    1.7450 C   0  0  0  0  0  0  0  0  0  0  0  0
    3.6171   -4.7124    0.3823 C   0  0  0  0  0  0  0  0  0  0  0  0
    1.3316   -4.7517    1.4846 C   0  0  0  0  0  0  0  0  0  0  0  0
    1.7692   -3.0831   -0.2331 C   0  0  0  0  0  0  0  0  0  0  0  0
    2.6359   -2.4488   -1.2768 C   0  0  0  0  0  0  0  0  0  0  0  0
    2.2152   -4.1571    0.5676 C   0  0  0  0  0  0  0  0  0  0  0  0
    3.7056   -1.5884   -0.9399 C   0  0  0  0  0  0  0  0  0  0  0  0
    4.0099   -5.5952    1.4808 N   0  0  0  0  0  0  0  0  0  0  0  0
    3.9294   -1.4143    0.3975 O   0  0  0  0  0  0  0  0  0  0  0  0
    4.7900    0.4874    0.4514 H   0  0  0  0  0  0  0  0  0  0  0  0
    5.9486   -0.8763    0.4501 H   0  0  0  0  0  0  0  0  0  0  0  0
    4.9539   -0.5500    1.8963 H   0  0  0  0  0  0  0  0  0  0  0  0
    2.8685   -2.2167   -4.6835 H   0  0  0  0  0  0  0  0  0  0  0  0
    4.7553   -0.7117   -4.0545 H   0  0  0  0  0  0  0  0  0  0  0  0
   -1.4312   -2.8271    0.9250 H   0  0  0  0  0  0  0  0  0  0  0  0
   -0.6512   -4.7303    2.3183 H   0  0  0  0  0  0  0  0  0  0  0  0
    1.5303   -3.3061   -2.8940 H   0  0  0  0  0  0  0  0  0  0  0  0
    0.1255   -1.7866   -0.7131 H   0  0  0  0  0  0  0  0  0  0  0  0
    5.2798   -0.3069   -1.6843 H   0  0  0  0  0  0  0  0  0  0  0  0
    2.0377   -5.5647    3.3447 H   0  0  0  0  0  0  0  0  0  0  0  0
    0.9528   -6.6373    2.4564 H   0  0  0  0  0  0  0  0  0  0  0  0
    2.7064   -7.1803    0.8362 H   0  0  0  0  0  0  0  0  0  0  0  0
    3.4116   -7.3429    2.4585 H   0  0  0  0  0  0  0  0  0  0  0  0
    4.3342   -3.8878    0.3390 H   0  0  0  0  0  0  0  0  0  0  0  0
    3.6552   -5.2194   -0.6038 H   0  0  0  0  0  0  0  0  0  0  0  0
    4.9017   -6.0282    1.2526 H   0  0  0  0  0  0  0  0  0  0  0  0
  1 21  1  0  0  0  0
  2  3  2  0  0  0  0
  2  6  1  0  0  0  0
  3  8  1  0  0  0  0
  4 24  1  0  0  0  0
  4  5  2  0  0  0  0
  5 25  1  0  0  0  0
  6 14  2  0  0  0  0
  7  4  1  0  0  0  0
  8 28  1  0  0  0  0
  8 16  2  0  0  0  0
  9 30  1  0  0  0  0
  9 29  1  0  0  0  0
 10  9  1  0  0  0  0
 10 32  1  0  0  0  0
 11 15  1  0  0  0  0
 11 17  1  0  0  0  0
 12  5  1  0  0  0  0
 12  9  1  0  0  0  0
 13  7  2  0  0  0  0
 13 15  1  0  0  0  0
 14 16  1  0  0  0  0
 14 13  1  0  0  0  0
 15 12  2  0  0  0  0
 16 18  1  0  0  0  0
 17 10  1  0  0  0  0
 18  1  1  0  0  0  0
 19  1  1  0  0  0  0
 20  1  1  0  0  0  0
 22  2  1  0  0  0  0
 23  3  1  0  0  0  0
 26  6  1  0  0  0  0
 27  7  1  0  0  0  0
 31 10  1  0  0  0  0
 33 11  1  0  0  0  0
 34 11  1  0  0  0  0
 35 17  1  0  0  0  0
M  END
>  <HBA>
2

>  <HBD>
1

>  <TPSA>
21.26

>  <cid>
52961

>  <dipole>
1.62

>  <excitation_energy_1>
4.834

>  <excitation_energy_2>
4.873

>  <excitation_energy_3>
5.002

>  <excitation_energy_4>
5.112

>  <homo_energy>
-5.728

>  <homo_lumo_gap>
5.576

>  <logP>
3.337

>  <lumo_energy>
-0.152

>  <melting_point>
105.47

>  <molecular_refractivity>
77.71

>  <oscillator_strength_1>
0.0949

>  <oscillator_strength_2>
0.0145

>  <oscillator_strength_3>
0.0064

>  <oscillator_strength_4>
0.0091

>  <open_babel_can_smiles>
COc1ccccc1c1cccc2c1CNCC2

>  <mulliken_charges>
35
1   -0.216001
2   -0.133799
3   -0.134939
4   -0.132158
5   -0.184177
6   -0.17047
7   -0.163146
8   -0.201065
9   -0.318542
10   -0.146641
11   -0.206241
12   0.107581
13   0.035786
14   -0.018004
15   0.101751
16   0.351113
17   -0.556426
18   -0.506257
19   0.151902
20   0.149581
21   0.174424
22   0.125246
23   0.127975
24   0.122942
25   0.116316
26   0.133858
27   0.127084
28   0.131011
29   0.160184
30   0.135723
31   0.114139
32   0.133223
33   0.16489
34   0.12671
35   0.296426

>  <lowdin_charges>
35
1   -0.274
2   -0.177527
3   -0.150049
4   -0.160435
5   -0.167253
6   -0.151255
7   -0.163356
8   -0.214351
9   -0.278061
10   -0.205505
11   -0.207213
12   -0.010695
13   -0.003538
14   -0.030694
15   -0.011503
16   0.096623
17   -0.363533
18   -0.193794
19   0.144061
20   0.143151
21   0.163039
22   0.155765
23   0.158479
24   0.15426
25   0.153377
26   0.16159
27   0.158239
28   0.162369
29   0.15737
30   0.148683
31   0.116767
32   0.145743
33   0.161612
34   0.126542
35   0.255092

$$$$

