PCCDB-ID:  38358
public computational chemistry database (PCCDB) project, http://pccdb.org

 15 14  0  0  0  0  0  0  0  0999 V2000
    1.4815    0.6073    1.3801 C   0  0  0  0  0  0  0  0  0  0  0  0
    0.8467   -0.9449   -2.0849 C   0  0  0  0  0  0  0  0  0  0  0  0
    2.4118   -1.0229   -0.3074 C   0  0  0  0  0  0  0  0  0  0  0  0
    2.8038    1.4196   -0.4216 N   0  0  0  0  0  0  0  0  0  0  0  0
    2.2994    0.3368    0.2108 N   0  0  0  0  0  0  0  0  0  0  0  0
    3.4274    1.1942   -1.4511 O   0  0  0  0  0  0  0  0  0  0  0  0
    1.1995   -1.5099   -0.8265 O   0  0  0  0  0  0  0  0  0  0  0  0
    0.4588    0.2497    1.2220 H   0  0  0  0  0  0  0  0  0  0  0  0
    1.4755    1.6875    1.5374 H   0  0  0  0  0  0  0  0  0  0  0  0
    1.8971    0.1114    2.2654 H   0  0  0  0  0  0  0  0  0  0  0  0
   -0.0950   -1.4129   -2.3801 H   0  0  0  0  0  0  0  0  0  0  0  0
    1.6131   -1.1539   -2.8440 H   0  0  0  0  0  0  0  0  0  0  0  0
    0.7055    0.1422   -2.0202 H   0  0  0  0  0  0  0  0  0  0  0  0
    2.6740   -1.6852    0.5221 H   0  0  0  0  0  0  0  0  0  0  0  0
    3.2095   -1.0065   -1.0564 H   0  0  0  0  0  0  0  0  0  0  0  0
  1  9  1  0  0  0  0
  1 10  1  0  0  0  0
  2 13  1  0  0  0  0
  2  7  1  0  0  0  0
  3  5  1  0  0  0  0
  3 14  1  0  0  0  0
  4  5  1  0  0  0  0
  5  1  1  0  0  0  0
  6  4  2  0  0  0  0
  7  3  1  0  0  0  0
  8  1  1  0  0  0  0
 11  2  1  0  0  0  0
 12  2  1  0  0  0  0
 15  3  1  0  0  0  0
M  END
>  <HBA>
4

>  <HBD>
0

>  <TPSA>
41.9

>  <cid>
38358

>  <dipole>
2.49

>  <excitation_energy_1>
3.242

>  <excitation_energy_2>
5.474

>  <excitation_energy_3>
5.802

>  <excitation_energy_4>
5.887

>  <homo_energy>
-6.188

>  <homo_lumo_gap>
5.078

>  <logP>
0.203

>  <lumo_energy>
-1.11

>  <melting_point>
-11.83

>  <molecular_refractivity>
25.25

>  <oscillator_strength_1>
0.0008

>  <oscillator_strength_2>
0.0336

>  <oscillator_strength_3>
0.1188

>  <oscillator_strength_4>
0.0097

>  <open_babel_can_smiles>
CN(N=O)COC

>  <mulliken_charges>
15
1   -0.312466
2   -0.213072
3   0.073794
4   0.154869
5   -0.22382
6   -0.370748
7   -0.449422
8   0.181
9   0.189406
10   0.164585
11   0.162572
12   0.150455
13   0.151464
14   0.161891
15   0.179493

>  <lowdin_charges>
15
1   -0.354147
2   -0.281551
3   -0.091245
4   0.05664
5   -0.061612
6   -0.264218
7   -0.264023
8   0.163069
9   0.174066
10   0.157163
11   0.158321
12   0.1451
13   0.140779
14   0.159571
15   0.162088

$$$$

