PCCDB-ID:  56321
public computational chemistry database (PCCDB) project, http://pccdb.org

 35 35  0  0  0  0  0  0  0  0999 V2000
    4.0733   -0.0280    7.0896 C   0  0  0  0  0  0  0  0  0  0  0  0
    7.3834   -3.3889    2.8476 C   0  0  0  0  0  0  0  0  0  0  0  0
    3.9102   -0.6545   -2.1190 C   0  0  0  0  0  0  0  0  0  0  0  0
    5.8023    0.8708   -1.7154 C   0  0  0  0  0  0  0  0  0  0  0  0
    6.0737   -0.0911    5.5339 C   0  0  0  0  0  0  0  0  0  0  0  0
    3.9749   -0.9348    4.7238 C   0  0  0  0  0  0  0  0  0  0  0  0
    6.6639   -0.3719    4.3021 C   0  0  0  0  0  0  0  0  0  0  0  0
    4.5551   -1.2263    3.4897 C   0  0  0  0  0  0  0  0  0  0  0  0
    6.2732   -0.3327    0.8859 C   0  0  0  0  0  0  0  0  0  0  0  0
    4.7193   -0.3642    5.7655 C   0  0  0  0  0  0  0  0  0  0  0  0
    7.2220   -2.3845    1.7201 C   0  0  0  0  0  0  0  0  0  0  0  0
    5.9095   -0.9468    3.2737 C   0  0  0  0  0  0  0  0  0  0  0  0
    5.1118   -0.8266   -0.0072 C   0  0  0  0  0  0  0  0  0  0  0  0
    4.9260   -0.1673   -1.1950 N   0  0  0  0  0  0  0  0  0  0  0  0
    6.5266   -1.2221    2.0062 N   0  0  0  0  0  0  0  0  0  0  0  0
    7.6872   -2.5763    0.6027 O   0  0  0  0  0  0  0  0  0  0  0  0
    4.3841   -1.7474    0.3509 O   0  0  0  0  0  0  0  0  0  0  0  0
    3.6351    0.9790    7.0736 H   0  0  0  0  0  0  0  0  0  0  0  0
    4.8000   -0.0528    7.9086 H   0  0  0  0  0  0  0  0  0  0  0  0
    3.2663   -0.7276    7.3316 H   0  0  0  0  0  0  0  0  0  0  0  0
    6.4076   -3.7426    3.1968 H   0  0  0  0  0  0  0  0  0  0  0  0
    7.8996   -2.9555    3.7099 H   0  0  0  0  0  0  0  0  0  0  0  0
    7.9600   -4.2311    2.4628 H   0  0  0  0  0  0  0  0  0  0  0  0
    4.3745   -1.0659   -3.0256 H   0  0  0  0  0  0  0  0  0  0  0  0
    3.2411    0.1642   -2.4118 H   0  0  0  0  0  0  0  0  0  0  0  0
    3.3397   -1.4365   -1.6205 H   0  0  0  0  0  0  0  0  0  0  0  0
    6.5371    0.4680   -2.4277 H   0  0  0  0  0  0  0  0  0  0  0  0
    6.3381    1.3817   -0.9154 H   0  0  0  0  0  0  0  0  0  0  0  0
    5.1973    1.6199   -2.2392 H   0  0  0  0  0  0  0  0  0  0  0  0
    6.6744    0.3499    6.3263 H   0  0  0  0  0  0  0  0  0  0  0  0
    2.9226   -1.1609    4.8821 H   0  0  0  0  0  0  0  0  0  0  0  0
    7.7139   -0.1504    4.1304 H   0  0  0  0  0  0  0  0  0  0  0  0
    3.9800   -1.6666    2.6818 H   0  0  0  0  0  0  0  0  0  0  0  0
    6.0390    0.6617    1.2801 H   0  0  0  0  0  0  0  0  0  0  0  0
    7.1899   -0.2676    0.2952 H   0  0  0  0  0  0  0  0  0  0  0  0
  1 20  1  0  0  0  0
  1 19  1  0  0  0  0
  2 21  1  0  0  0  0
  2 22  1  0  0  0  0
  3 26  1  0  0  0  0
  3 14  1  0  0  0  0
  4 14  1  0  0  0  0
  4 28  1  0  0  0  0
  5 10  1  0  0  0  0
  5 30  1  0  0  0  0
  6 31  1  0  0  0  0
  6 10  2  0  0  0  0
  7  5  2  0  0  0  0
  8  6  1  0  0  0  0
  9 34  1  0  0  0  0
  9 15  1  0  0  0  0
 10  1  1  0  0  0  0
 11 15  1  0  0  0  0
 11  2  1  0  0  0  0
 12  8  2  0  0  0  0
 12  7  1  0  0  0  0
 13 17  2  0  0  0  0
 13  9  1  0  0  0  0
 14 13  1  0  0  0  0
 15 12  1  0  0  0  0
 16 11  2  0  0  0  0
 18  1  1  0  0  0  0
 23  2  1  0  0  0  0
 24  3  1  0  0  0  0
 25  3  1  0  0  0  0
 27  4  1  0  0  0  0
 29  4  1  0  0  0  0
 32  7  1  0  0  0  0
 33  8  1  0  0  0  0
 35  9  1  0  0  0  0
M  END
>  <HBA>
4

>  <HBD>
0

>  <TPSA>
40.62

>  <cid>
56321

>  <dipole>
4.03

>  <excitation_energy_1>
5.087

>  <excitation_energy_2>
5.159

>  <excitation_energy_3>
5.424

>  <excitation_energy_4>
5.455

>  <homo_energy>
-6.182

>  <homo_lumo_gap>
5.997

>  <logP>
1.436

>  <lumo_energy>
-0.185

>  <melting_point>
60.26

>  <molecular_refractivity>
68.14

>  <oscillator_strength_1>
0.0061

>  <oscillator_strength_2>
0.0415

>  <oscillator_strength_3>
0.0063

>  <oscillator_strength_4>
0.0211

>  <open_babel_can_smiles>
Cc1ccc(cc1)N(C(=O)C)CC(=O)N(C)C

>  <mulliken_charges>
35
1   -0.531312
2   -0.541596
3   -0.321786
4   -0.318196
5   -0.196647
6   -0.199235
7   -0.13584
8   -0.139888
9   -0.257913
10   0.190538
11   0.585203
12   0.207382
13   0.628335
14   -0.412136
15   -0.485257
16   -0.513057
17   -0.519208
18   0.167121
19   0.157759
20   0.160158
21   0.180745
22   0.167609
23   0.179596
24   0.156182
25   0.149264
26   0.206609
27   0.16788
28   0.17281
29   0.160661
30   0.12542
31   0.12844
32   0.132741
33   0.183459
34   0.170908
35   0.19325

>  <lowdin_charges>
35
1   -0.44299
2   -0.472433
3   -0.357931
4   -0.355382
5   -0.169457
6   -0.163086
7   -0.163437
8   -0.162451
9   -0.230987
10   0.004378
11   0.173722
12   0.030215
13   0.159444
14   -0.10535
15   -0.088632
16   -0.310493
17   -0.314127
18   0.162231
19   0.159025
20   0.160576
21   0.175346
22   0.169551
23   0.175437
24   0.150381
25   0.148985
26   0.186856
27   0.153985
28   0.165764
29   0.157629
30   0.15739
31   0.15569
32   0.15986
33   0.185807
34   0.165914
35   0.178569

$$$$

