PCCDB-ID:  29025
public computational chemistry database (PCCDB) project, http://pccdb.org

 25 26  0  0  1  0  0  0  0  0999 V2000
    0.9543    0.0950    0.0046 C   0  0  0  0  0  0  0  0  0  0  0  0
    4.1478    0.6811   -2.4026 C   0  0  0  0  0  0  0  0  0  0  0  0
    5.0464    2.6780   -1.2352 C   0  0  0  0  0  0  0  0  0  0  0  0
    3.1706   -1.0989    0.0769 C   0  0  0  0  0  0  0  0  0  0  0  0
    4.3335    1.2202    1.1429 C   0  0  0  0  0  0  0  0  0  0  0  0
    2.4520    0.0435    0.0418 C   0  0  0  0  0  0  0  0  0  0  0  0
    3.2318    1.3462    0.0451 C   0  0  2  0  0  0  0  0  0  0  0  0
    5.1570    0.4461    0.0690 C   0  0  1  0  0  0  0  0  0  0  0  0
    4.6490   -0.9969    0.0557 C   0  0  0  0  0  0  0  0  0  0  0  0
    4.4007    1.2996   -1.0249 C   0  0  0  0  0  0  0  0  0  0  0  0
    5.3929   -1.9662    0.0300 O   0  0  0  0  0  0  0  0  0  0  0  0
    0.5097   -0.9044    0.0249 H   0  0  0  0  0  0  0  0  0  0  0  0
    0.6069    0.6105   -0.9016 H   0  0  0  0  0  0  0  0  0  0  0  0
    0.5613    0.6682    0.8555 H   0  0  0  0  0  0  0  0  0  0  0  0
    3.5087    1.3389   -3.0056 H   0  0  0  0  0  0  0  0  0  0  0  0
    3.6716   -0.3003   -2.3549 H   0  0  0  0  0  0  0  0  0  0  0  0
    5.0966    0.5657   -2.9408 H   0  0  0  0  0  0  0  0  0  0  0  0
    4.3919    3.3125   -1.8459 H   0  0  0  0  0  0  0  0  0  0  0  0
    5.9964    2.5721   -1.7730 H   0  0  0  0  0  0  0  0  0  0  0  0
    5.2513    3.2142   -0.3047 H   0  0  0  0  0  0  0  0  0  0  0  0
    2.7229   -2.0891    0.0857 H   0  0  0  0  0  0  0  0  0  0  0  0
    4.0583    0.6782    2.0520 H   0  0  0  0  0  0  0  0  0  0  0  0
    4.7882    2.1738    1.4175 H   0  0  0  0  0  0  0  0  0  0  0  0
    2.5784    2.2256    0.0486 H   0  0  0  0  0  0  0  0  0  0  0  0
    6.2502    0.4656    0.0957 H   0  0  0  0  0  0  0  0  0  0  0  0
  1 12  1  0  0  0  0
  1  6  1  0  0  0  0
  1 14  1  0  0  0  0
  2 16  1  0  0  0  0
  2 10  1  0  0  0  0
  3 10  1  0  0  0  0
  3 20  1  0  0  0  0
  4 21  1  0  0  0  0
  5 23  1  0  0  0  0
  5 22  1  0  0  0  0
  6  7  1  0  0  0  0
  6  4  2  0  0  0  0
  7 24  1  1  0  0  0
  7  5  1  0  0  0  0
  8 25  1  1  0  0  0
  8  5  1  0  0  0  0
  9  8  1  0  0  0  0
  9  4  1  0  0  0  0
 10  7  1  0  0  0  0
 10  8  1  0  0  0  0
 11  9  2  0  0  0  0
 13  1  1  0  0  0  0
 15  2  1  0  0  0  0
 17  2  1  0  0  0  0
 18  3  1  0  0  0  0
 19  3  1  0  0  0  0
M  END
>  <HBA>
1

>  <HBD>
0

>  <TPSA>
17.07

>  <cid>
29025

>  <dipole>
4.15

>  <excitation_energy_1>
3.654

>  <excitation_energy_2>
5.2

>  <excitation_energy_3>
5.786

>  <excitation_energy_4>
5.854

>  <homo_energy>
-6.231

>  <homo_lumo_gap>
5.086

>  <logP>
2.178

>  <lumo_energy>
-1.146

>  <melting_point>
69.22

>  <molecular_refractivity>
45.42

>  <oscillator_strength_1>
0.0006

>  <oscillator_strength_2>
0.161

>  <oscillator_strength_3>
0.014

>  <oscillator_strength_4>
0.0042

>  <open_babel_can_smiles>
CC1=CC(=O)[C@@H]2C[C@H]1C2(C)C

>  <mulliken_charges>
25
1   -0.529581
2   -0.466861
3   -0.463825
4   -0.260043
5   -0.284306
6   0.230546
7   -0.207719
8   -0.20479
9   0.468598
10   0.121946
11   -0.489389
12   0.166374
13   0.167337
14   0.166848
15   0.139097
16   0.158242
17   0.151628
18   0.145518
19   0.151862
20   0.14652
21   0.13603
22   0.151148
23   0.148898
24   0.119909
25   0.136016

>  <lowdin_charges>
25
1   -0.440782
2   -0.455092
3   -0.443921
4   -0.228792
5   -0.272435
6   0.041919
7   -0.141337
8   -0.155291
9   0.149532
10   0.022711
11   -0.251918
12   0.162457
13   0.165654
14   0.165526
15   0.150704
16   0.158744
17   0.156256
18   0.152546
19   0.154487
20   0.151274
21   0.164757
22   0.149687
23   0.15141
24   0.141808
25   0.150099

$$$$

