PCCDB-ID:  7017
public computational chemistry database (PCCDB) project, http://pccdb.org

 23 24  0  0  0  0  0  0  0  0999 V2000
   -1.4547    0.0003    0.4048 C   0  0  0  0  0  0  0  0  0  0  0  0
   -0.9338    1.0072   -0.4103 C   0  0  0  0  0  0  0  0  0  0  0  0
   -0.5865   -0.9106    1.0077 C   0  0  0  0  0  0  0  0  0  0  0  0
    4.8806   -0.9641   -0.7334 C   0  0  0  0  0  0  0  0  0  0  0  0
    5.5885    0.2366   -0.7145 C   0  0  0  0  0  0  0  0  0  0  0  0
    0.4403    1.1042   -0.6231 C   0  0  0  0  0  0  0  0  0  0  0  0
    0.7880   -0.8152    0.7935 C   0  0  0  0  0  0  0  0  0  0  0  0
    3.5037   -0.9495   -0.5148 C   0  0  0  0  0  0  0  0  0  0  0  0
    4.9134    1.4330   -0.4798 C   0  0  0  0  0  0  0  0  0  0  0  0
    1.3266    0.1905   -0.0273 C   0  0  0  0  0  0  0  0  0  0  0  0
    2.7931    0.2373   -0.2745 C   0  0  0  0  0  0  0  0  0  0  0  0
    3.5320    1.4404   -0.2631 C   0  0  0  0  0  0  0  0  0  0  0  0
    2.8627    2.6106   -0.0163 O   0  0  0  0  0  0  0  0  0  0  0  0
   -2.5263   -0.0708    0.5711 H   0  0  0  0  0  0  0  0  0  0  0  0
   -1.6012    1.7208   -0.8869 H   0  0  0  0  0  0  0  0  0  0  0  0
   -0.9773   -1.6937    1.6524 H   0  0  0  0  0  0  0  0  0  0  0  0
    5.3914   -1.9033   -0.9241 H   0  0  0  0  0  0  0  0  0  0  0  0
    6.6616    0.2497   -0.8845 H   0  0  0  0  0  0  0  0  0  0  0  0
    0.8325    1.8901   -1.2586 H   0  0  0  0  0  0  0  0  0  0  0  0
    1.4578   -1.5164    1.2839 H   0  0  0  0  0  0  0  0  0  0  0  0
    2.9465   -1.8814   -0.5492 H   0  0  0  0  0  0  0  0  0  0  0  0
    5.4603    2.3747   -0.4584 H   0  0  0  0  0  0  0  0  0  0  0  0
    3.5057    3.3366   -0.0047 H   0  0  0  0  0  0  0  0  0  0  0  0
  1 14  1  0  0  0  0
  1  3  2  0  0  0  0
  2  1  1  0  0  0  0
  3 16  1  0  0  0  0
  4  5  2  0  0  0  0
  4  8  1  0  0  0  0
  5  9  1  0  0  0  0
  6  2  2  0  0  0  0
  6 10  1  0  0  0  0
  7  3  1  0  0  0  0
  7 20  1  0  0  0  0
  8 11  2  0  0  0  0
  9 22  1  0  0  0  0
  9 12  2  0  0  0  0
 10  7  2  0  0  0  0
 11 12  1  0  0  0  0
 11 10  1  0  0  0  0
 12 13  1  0  0  0  0
 13 23  1  0  0  0  0
 15  2  1  0  0  0  0
 17  4  1  0  0  0  0
 18  5  1  0  0  0  0
 19  6  1  0  0  0  0
 21  8  1  0  0  0  0
M  END
>  <HBA>
1

>  <HBD>
1

>  <TPSA>
20.23

>  <cid>
7017

>  <dipole>
1.55

>  <excitation_energy_1>
4.552

>  <excitation_energy_2>
4.914

>  <excitation_energy_3>
5.014

>  <excitation_energy_4>
5.08

>  <homo_energy>
-5.744

>  <homo_lumo_gap>
5.2

>  <logP>
3.059

>  <lumo_energy>
-0.544

>  <melting_point>
81.56

>  <molecular_refractivity>
53.9

>  <oscillator_strength_1>
0.2184

>  <oscillator_strength_2>
0.0013

>  <oscillator_strength_3>
0.1536

>  <oscillator_strength_4>
0.0081

>  <open_babel_can_smiles>
Oc1ccccc1c1ccccc1

>  <mulliken_charges>
23
1   -0.126708
2   -0.137542
3   -0.135175
4   -0.135872
5   -0.132565
6   -0.148137
7   -0.171349
8   -0.186907
9   -0.193889
10   0.097228
11   0.048063
12   0.3003
13   -0.642249
14   0.126057
15   0.126609
16   0.126659
17   0.127168
18   0.130593
19   0.139215
20   0.129491
21   0.134924
22   0.116509
23   0.407575

>  <lowdin_charges>
23
1   -0.157045
2   -0.159538
3   -0.158994
4   -0.178691
5   -0.144467
6   -0.15057
7   -0.164037
8   -0.150071
9   -0.21339
10   0.001752
11   -0.031112
12   0.10042
13   -0.375658
14   0.154379
15   0.157636
16   0.157187
17   0.158308
18   0.157052
19   0.165201
20   0.159381
21   0.161893
22   0.152236
23   0.358128

$$$$

