PCCDB-ID:  3452
public computational chemistry database (PCCDB) project, http://pccdb.org

 18 17  0  0  1  0  0  0  0  0999 V2000
    0.7721   -0.5889    0.3402 C   0  0  0  0  0  0  0  0  0  0  0  0
    1.9517   -0.4062    0.1543 C   0  0  0  0  0  0  0  0  0  0  0  0
    3.9627    0.6439    1.1761 C   0  0  0  0  0  0  0  0  0  0  0  0
    3.3169    2.0168    1.3813 C   0  0  0  0  0  0  0  0  0  0  0  0
    3.3916   -0.1605   -0.0232 C   0  0  1  0  0  0  0  0  0  0  0  0
    3.6627    3.0116    0.2781 C   0  0  0  0  0  0  0  0  0  0  0  0
    4.0829   -1.4333   -0.2758 N   0  0  0  0  0  0  0  0  0  0  0  0
    4.4779    2.8230   -0.5912 O   0  0  0  0  0  0  0  0  0  0  0  0
    2.9952    4.1959    0.3327 O   0  0  0  0  0  0  0  0  0  0  0  0
   -0.2689   -0.7752    0.4771 H   0  0  0  0  0  0  0  0  0  0  0  0
    3.8378    0.0473    2.0882 H   0  0  0  0  0  0  0  0  0  0  0  0
    5.0368    0.7781    1.0060 H   0  0  0  0  0  0  0  0  0  0  0  0
    3.6498    2.4549    2.3333 H   0  0  0  0  0  0  0  0  0  0  0  0
    2.2252    1.9142    1.4499 H   0  0  0  0  0  0  0  0  0  0  0  0
    3.5281    0.4528   -0.9225 H   0  0  0  0  0  0  0  0  0  0  0  0
    4.0452   -2.0149    0.5612 H   0  0  0  0  0  0  0  0  0  0  0  0
    5.0677   -1.2413   -0.4561 H   0  0  0  0  0  0  0  0  0  0  0  0
    2.3668    4.1900    1.0739 H   0  0  0  0  0  0  0  0  0  0  0  0
  1 10  1  0  0  0  0
  2  1  3  0  0  0  0
  3  4  1  0  0  0  0
  3 11  1  0  0  0  0
  4 14  1  0  0  0  0
  4 13  1  0  0  0  0
  5 15  1  6  0  0  0
  5  2  1  0  0  0  0
  5  3  1  0  0  0  0
  6  9  1  0  0  0  0
  6  4  1  0  0  0  0
  7  5  1  0  0  0  0
  7 16  1  0  0  0  0
  8  6  2  0  0  0  0
  9 18  1  0  0  0  0
 12  3  1  0  0  0  0
 17  7  1  0  0  0  0
M  END
>  <HBA>
3

>  <HBD>
2

>  <TPSA>
63.32

>  <cid>
3452

>  <dipole>
4.48

>  <excitation_energy_1>
5.685

>  <excitation_energy_2>
5.752

>  <excitation_energy_3>
5.831

>  <excitation_energy_4>
5.939

>  <homo_energy>
-6.566

>  <homo_lumo_gap>
6.7

>  <logP>
0.512

>  <lumo_energy>
0.133

>  <melting_point>
122.19

>  <molecular_refractivity>
33.6

>  <oscillator_strength_1>
0.0046

>  <oscillator_strength_2>
0.0177

>  <oscillator_strength_3>
0.0053

>  <oscillator_strength_4>
0.0155

>  <open_babel_can_smiles>
N[C@@H](C#C)CCC(=O)O

>  <mulliken_charges>
18
1   -0.500442
2   0.360002
3   -0.257378
4   -0.415108
5   -0.1366
6   0.612373
7   -0.698588
8   -0.442327
9   -0.564574
10   0.190289
11   0.136298
12   0.157115
13   0.174424
14   0.175877
15   0.19556
16   0.297279
17   0.304987
18   0.410812

>  <lowdin_charges>
18
1   -0.258542
2   -0.037645
3   -0.281504
4   -0.327229
5   -0.058768
6   0.196585
7   -0.531359
8   -0.242164
9   -0.354839
10   0.203823
11   0.149107
12   0.155801
13   0.170351
14   0.16706
15   0.176415
16   0.255624
17   0.257579
18   0.359706

$$$$

