PCCDB-ID:  59835
public computational chemistry database (PCCDB) project, http://pccdb.org

 41 41  0  0  1  0  0  0  0  0999 V2000
    6.8714   -0.6154    4.6631 C   0  0  0  0  0  0  0  0  0  0  0  0
    5.2109   -1.0963    6.5005 C   0  0  0  0  0  0  0  0  0  0  0  0
    0.6230   -1.3100   -2.6993 C   0  0  0  0  0  0  0  0  0  0  0  0
    1.1578   -2.6681   -3.1735 C   0  0  0  0  0  0  0  0  0  0  0  0
    0.3015   -1.2012   -1.1972 C   0  0  0  0  0  0  0  0  0  0  0  0
    2.3605   -3.2097   -2.3854 C   0  0  0  0  0  0  0  0  0  0  0  0
    1.5349   -1.1572   -0.2839 C   0  0  0  0  0  0  0  0  0  0  0  0
    2.0195   -3.5394   -0.9152 C   0  0  0  0  0  0  0  0  0  0  0  0
    4.6811   -1.8162    2.8390 C   0  0  0  0  0  0  0  0  0  0  0  0
    3.4681   -2.2912    0.6518 C   0  0  0  0  0  0  0  0  0  0  0  0
    5.6552   -1.4521    5.0786 C   0  0  0  0  0  0  0  0  0  0  0  0
    3.3654   -1.7134    2.0751 C   0  0  1  0  0  0  0  0  0  0  0  0
    4.5308   -1.2223    4.1637 N   0  0  0  0  0  0  0  0  0  0  0  0
    2.1292   -2.4588    0.0751 N   0  0  0  0  0  0  0  0  0  0  0  0
    2.3737   -2.4339    2.7972 O   0  0  0  0  0  0  0  0  0  0  0  0
    7.7006   -0.7672    5.3638 H   0  0  0  0  0  0  0  0  0  0  0  0
    6.6103    0.4491    4.6539 H   0  0  0  0  0  0  0  0  0  0  0  0
    7.2324   -0.8846    3.6644 H   0  0  0  0  0  0  0  0  0  0  0  0
    6.0245   -1.2556    7.2164 H   0  0  0  0  0  0  0  0  0  0  0  0
    4.3612   -1.7147    6.8164 H   0  0  0  0  0  0  0  0  0  0  0  0
    4.9027   -0.0457    6.5513 H   0  0  0  0  0  0  0  0  0  0  0  0
   -0.2815   -1.0721   -3.2748 H   0  0  0  0  0  0  0  0  0  0  0  0
    1.3548   -0.5267   -2.9469 H   0  0  0  0  0  0  0  0  0  0  0  0
    1.4201   -2.5907   -4.2370 H   0  0  0  0  0  0  0  0  0  0  0  0
    0.3499   -3.4129   -3.1133 H   0  0  0  0  0  0  0  0  0  0  0  0
   -0.3817   -2.0004   -0.8806 H   0  0  0  0  0  0  0  0  0  0  0  0
   -0.2426   -0.2616   -1.0377 H   0  0  0  0  0  0  0  0  0  0  0  0
    3.2049   -2.5077   -2.4303 H   0  0  0  0  0  0  0  0  0  0  0  0
    2.7045   -4.1316   -2.8730 H   0  0  0  0  0  0  0  0  0  0  0  0
    1.2608   -0.6561    0.6521 H   0  0  0  0  0  0  0  0  0  0  0  0
    2.2912   -0.5083   -0.7659 H   0  0  0  0  0  0  0  0  0  0  0  0
    2.6671   -4.3465   -0.5580 H   0  0  0  0  0  0  0  0  0  0  0  0
    0.9973   -3.9407   -0.8815 H   0  0  0  0  0  0  0  0  0  0  0  0
    5.4583   -1.2783    2.2803 H   0  0  0  0  0  0  0  0  0  0  0  0
    4.9828   -2.8821    2.8794 H   0  0  0  0  0  0  0  0  0  0  0  0
    3.9333   -3.2811    0.7183 H   0  0  0  0  0  0  0  0  0  0  0  0
    4.1239   -1.6505    0.0336 H   0  0  0  0  0  0  0  0  0  0  0  0
    5.9606   -2.5188    5.0713 H   0  0  0  0  0  0  0  0  0  0  0  0
    3.0910   -0.6471    2.0258 H   0  0  0  0  0  0  0  0  0  0  0  0
    3.6892   -1.6277    4.5719 H   0  0  0  0  0  0  0  0  0  0  0  0
    1.7414   -2.7213    2.1068 H   0  0  0  0  0  0  0  0  0  0  0  0
  1 11  1  0  0  0  0
  1 16  1  0  0  0  0
  2 21  1  0  0  0  0
  2 20  1  0  0  0  0
  2 19  1  0  0  0  0
  3  5  1  0  0  0  0
  4 25  1  0  0  0  0
  4  3  1  0  0  0  0
  4  6  1  0  0  0  0
  5 27  1  0  0  0  0
  5 26  1  0  0  0  0
  5  7  1  0  0  0  0
  6  8  1  0  0  0  0
  7 14  1  0  0  0  0
  7 30  1  0  0  0  0
  8 33  1  0  0  0  0
  8 32  1  0  0  0  0
  8 14  1  0  0  0  0
  9 35  1  0  0  0  0
  9 13  1  0  0  0  0
 10 36  1  0  0  0  0
 10 12  1  0  0  0  0
 11  2  1  0  0  0  0
 12 39  1  6  0  0  0
 12 15  1  0  0  0  0
 12  9  1  0  0  0  0
 13 40  1  0  0  0  0
 13 11  1  0  0  0  0
 14 10  1  0  0  0  0
 17  1  1  0  0  0  0
 18  1  1  0  0  0  0
 22  3  1  0  0  0  0
 23  3  1  0  0  0  0
 24  4  1  0  0  0  0
 28  6  1  0  0  0  0
 29  6  1  0  0  0  0
 31  7  1  0  0  0  0
 34  9  1  0  0  0  0
 37 10  1  0  0  0  0
 38 11  1  0  0  0  0
 41 15  1  0  0  0  0
M  END
>  <HBA>
3

>  <HBD>
2

>  <TPSA>
35.5

>  <cid>
59835

>  <dipole>
2.93

>  <excitation_energy_1>
5.307

>  <excitation_energy_2>
5.455

>  <excitation_energy_3>
5.636

>  <excitation_energy_4>
5.65

>  <homo_energy>
-5.655

>  <homo_lumo_gap>
7.57

>  <logP>
1.55

>  <lumo_energy>
1.916

>  <melting_point>
40.46

>  <molecular_refractivity>
68.46

>  <oscillator_strength_1>
0.0098

>  <oscillator_strength_2>
0.0018

>  <oscillator_strength_3>
0.0121

>  <oscillator_strength_4>
0.0336

>  <open_babel_can_smiles>
O[C@H](CN1CCCCCC1)CNC(C)C

>  <mulliken_charges>
41
1   -0.437476
2   -0.455925
3   -0.255223
4   -0.259173
5   -0.283745
6   -0.267542
7   -0.118582
8   -0.134323
9   -0.110706
10   -0.146175
11   0.073099
12   0.134189
13   -0.573712
14   -0.430749
15   -0.662141
16   0.134824
17   0.148836
18   0.139476
19   0.139804
20   0.138779
21   0.152836
22   0.133851
23   0.131133
24   0.133137
25   0.130078
26   0.143352
27   0.1422
28   0.137771
29   0.13496
30   0.152926
31   0.117949
32   0.141291
33   0.138982
34   0.129807
35   0.107303
36   0.140213
37   0.119845
38   0.098719
39   0.123931
40   0.314991
41   0.401191

>  <lowdin_charges>
41
1   -0.448452
2   -0.448264
3   -0.279577
4   -0.27705
5   -0.2861
6   -0.29682
7   -0.205112
8   -0.20648
9   -0.206986
10   -0.220582
11   -0.05254
12   -0.011825
13   -0.366862
14   -0.194497
15   -0.485929
16   0.148017
17   0.150351
18   0.146028
19   0.150661
20   0.147486
21   0.15198
22   0.145714
23   0.139547
24   0.142988
25   0.138322
26   0.147771
27   0.153387
28   0.143807
29   0.149046
30   0.148985
31   0.124573
32   0.150255
33   0.138595
34   0.141154
35   0.115688
36   0.146585
37   0.128061
38   0.109596
39   0.126331
40   0.262379
41   0.339769

$$$$

