PCCDB-ID:  69386
public computational chemistry database (PCCDB) project, http://pccdb.org

 21 20  0  0  0  0  0  0  0  0999 V2000
    2.1241   -0.0969   -0.5296 C   0  0  0  0  0  0  0  0  0  0  0  0
    4.5174   -2.7902   -4.0390 C   0  0  0  0  0  0  0  0  0  0  0  0
    6.4992   -3.7529   -2.7765 C   0  0  0  0  0  0  0  0  0  0  0  0
    3.5951   -0.4633   -0.6435 C   0  0  0  0  0  0  0  0  0  0  0  0
    5.0526   -2.0053   -1.6939 C   0  0  0  0  0  0  0  0  0  0  0  0
    5.0771   -3.1860   -2.6665 C   0  0  0  0  0  0  0  0  0  0  0  0
    3.7156   -1.5752   -1.5124 O   0  0  0  0  0  0  0  0  0  0  0  0
    1.9931    0.7624    0.1374 H   0  0  0  0  0  0  0  0  0  0  0  0
    1.5493   -0.9385   -0.1297 H   0  0  0  0  0  0  0  0  0  0  0  0
    1.7158    0.1603   -1.5124 H   0  0  0  0  0  0  0  0  0  0  0  0
    4.4692   -3.6571   -4.7085 H   0  0  0  0  0  0  0  0  0  0  0  0
    5.1558   -2.0349   -4.5170 H   0  0  0  0  0  0  0  0  0  0  0  0
    3.5121   -2.3709   -3.9426 H   0  0  0  0  0  0  0  0  0  0  0  0
    6.5241   -4.6152   -3.4522 H   0  0  0  0  0  0  0  0  0  0  0  0
    6.8817   -4.0805   -1.8022 H   0  0  0  0  0  0  0  0  0  0  0  0
    7.1945   -3.0023   -3.1746 H   0  0  0  0  0  0  0  0  0  0  0  0
    4.0104   -0.7099    0.3493 H   0  0  0  0  0  0  0  0  0  0  0  0
    4.1781    0.3892   -1.0336 H   0  0  0  0  0  0  0  0  0  0  0  0
    5.6699   -1.1774   -2.0891 H   0  0  0  0  0  0  0  0  0  0  0  0
    5.4899   -2.3016   -0.7239 H   0  0  0  0  0  0  0  0  0  0  0  0
    4.4252   -3.9609   -2.2386 H   0  0  0  0  0  0  0  0  0  0  0  0
  1  9  1  0  0  0  0
  1  8  1  0  0  0  0
  2 13  1  0  0  0  0
  2  6  1  0  0  0  0
  3  6  1  0  0  0  0
  3 15  1  0  0  0  0
  4  1  1  0  0  0  0
  4 17  1  0  0  0  0
  5  7  1  0  0  0  0
  5 20  1  0  0  0  0
  6 21  1  0  0  0  0
  6  5  1  0  0  0  0
  7  4  1  0  0  0  0
 10  1  1  0  0  0  0
 11  2  1  0  0  0  0
 12  2  1  0  0  0  0
 14  3  1  0  0  0  0
 16  3  1  0  0  0  0
 18  4  1  0  0  0  0
 19  5  1  0  0  0  0
M  END
>  <HBA>
1

>  <HBD>
0

>  <TPSA>
9.23

>  <cid>
69386

>  <dipole>
0.94

>  <excitation_energy_1>
6.472

>  <excitation_energy_2>
6.845

>  <excitation_energy_3>
6.974

>  <excitation_energy_4>
7.091

>  <homo_energy>
-6.765

>  <homo_lumo_gap>
9.203

>  <logP>
1.679

>  <lumo_energy>
2.438

>  <melting_point>
-35.51

>  <molecular_refractivity>
32.04

>  <oscillator_strength_1>
0.0213

>  <oscillator_strength_2>
0.0016

>  <oscillator_strength_3>
0.0183

>  <oscillator_strength_4>
0.0208

>  <open_babel_can_smiles>
CCOCC(C)C

>  <mulliken_charges>
21
1   -0.453367
2   -0.442372
3   -0.44971
4   -0.000501
5   0.006838
6   -0.089649
7   -0.476912
8   0.141482
9   0.157542
10   0.157188
11   0.136606
12   0.132168
13   0.164391
14   0.146125
15   0.140756
16   0.139826
17   0.116155
18   0.116971
19   0.109007
20   0.112328
21   0.135131

>  <lowdin_charges>
21
1   -0.449667
2   -0.447426
3   -0.446211
4   -0.12387
5   -0.131374
6   -0.127951
7   -0.275537
8   0.15365
9   0.157398
10   0.156035
11   0.147114
12   0.14392
13   0.158954
14   0.152341
15   0.14748
16   0.146811
17   0.122784
18   0.124612
19   0.122248
20   0.124109
21   0.14458

$$$$

