PCCDB-ID:  13604
public computational chemistry database (PCCDB) project, http://pccdb.org

 20 20  0  0  1  0  0  0  0  0999 V2000
    0.9611   -0.4575    0.1659 C   0  0  0  0  0  0  0  0  0  0  0  0
    4.3983    3.4719    1.9490 C   0  0  0  0  0  0  0  0  0  0  0  0
    2.4599   -0.1200    0.0784 C   0  0  0  0  0  0  0  0  0  0  0  0
    3.9349    1.2391    3.1572 C   0  0  0  0  0  0  0  0  0  0  0  0
    3.3369    2.5390    2.5407 C   0  0  2  0  0  0  0  0  0  0  0  0
    2.9554    0.6556    1.2672 C   0  0  2  0  0  0  0  0  0  0  0  0
    3.7666    0.1847    2.1438 N   0  0  0  0  0  0  0  0  0  0  0  0
    2.4649    1.9451    1.5085 N   0  0  0  0  0  0  0  0  0  0  0  0
    0.6434   -1.0269   -0.7142 H   0  0  0  0  0  0  0  0  0  0  0  0
    0.3483    0.4480    0.2262 H   0  0  0  0  0  0  0  0  0  0  0  0
    0.7542   -1.0611    1.0558 H   0  0  0  0  0  0  0  0  0  0  0  0
    5.0316    3.8862    2.7423 H   0  0  0  0  0  0  0  0  0  0  0  0
    3.9398    4.3141    1.4153 H   0  0  0  0  0  0  0  0  0  0  0  0
    5.0430    2.9291    1.2475 H   0  0  0  0  0  0  0  0  0  0  0  0
    2.6524    0.4557   -0.8388 H   0  0  0  0  0  0  0  0  0  0  0  0
    3.0542   -1.0357    0.0196 H   0  0  0  0  0  0  0  0  0  0  0  0
    3.3950    0.9494    4.0692 H   0  0  0  0  0  0  0  0  0  0  0  0
    4.9915    1.3542    3.4272 H   0  0  0  0  0  0  0  0  0  0  0  0
    2.7302    3.0886    3.2692 H   0  0  0  0  0  0  0  0  0  0  0  0
    2.2567    2.5187    0.6972 H   0  0  0  0  0  0  0  0  0  0  0  0
  1 10  1  0  0  0  0
  1 11  1  0  0  0  0
  2  5  1  0  0  0  0
  2 12  1  0  0  0  0
  3  1  1  0  0  0  0
  4 18  1  0  0  0  0
  4 17  1  0  0  0  0
  5  4  1  0  0  0  0
  5 19  1  1  0  0  0
  6  3  1  1  0  0  0
  6  8  1  0  0  0  0
  6  7  1  0  0  0  0
  7  4  1  0  0  0  0
  8  5  1  0  0  0  0
  9  1  1  0  0  0  0
 13  2  1  0  0  0  0
 14  2  1  0  0  0  0
 15  3  1  0  0  0  0
 16  3  1  0  0  0  0
 20  8  1  0  0  0  0
M  RAD  2   6   2   7   2
M  END
>  <HBA>
2

>  <HBD>
1

>  <TPSA>
24.39

>  <cid>
13604

>  <dipole>
2.66

>  <excitation_energy_1>
5.207

>  <excitation_energy_2>
5.782

>  <excitation_energy_3>
5.922

>  <excitation_energy_4>
6.068

>  <homo_energy>
-5.788

>  <homo_lumo_gap>
6.751

>  <logP>
0.551

>  <lumo_energy>
0.963

>  <melting_point>
41.06

>  <molecular_refractivity>
42.57

>  <oscillator_strength_1>
0.0129

>  <oscillator_strength_2>
0.0137

>  <oscillator_strength_3>
0.0134

>  <oscillator_strength_4>
0.0089

>  <open_babel_can_smiles>
CC[C]1[N]C[C@H](N1)C

>  <mulliken_charges>
20
1   -0.441083
2   -0.458673
3   -0.331698
4   -0.16153
5   0.028623
6   0.481877
7   -0.463915
8   -0.601129
9   0.147354
10   0.150369
11   0.162712
12   0.150899
13   0.139476
14   0.157523
15   0.136313
16   0.172877
17   0.147103
18   0.142037
19   0.135626
20   0.305239

>  <lowdin_charges>
20
1   -0.440336
2   -0.460934
3   -0.279952
4   -0.209463
5   -0.07139
6   0.083892
7   -0.245461
8   -0.321245
9   0.152534
10   0.151198
11   0.158241
12   0.156629
13   0.147942
14   0.156497
15   0.147283
16   0.169085
17   0.147247
18   0.145299
19   0.144368
20   0.268566

$$$$

