PCCDB-ID:  10111
public computational chemistry database (PCCDB) project, http://pccdb.org

 12 11  0  0  0  0  0  0  0  0999 V2000
    3.4387    1.2156    0.4896 C   0  0  0  0  0  0  0  0  0  0  0  0
    3.3637   -0.8070   -0.9507 C   0  0  0  0  0  0  0  0  0  0  0  0
    2.6455   -1.8640   -1.0809 N   0  0  0  0  0  0  0  0  0  0  0  0
    4.7351   -0.6762   -1.2049 N   0  0  0  0  0  0  0  0  0  0  0  0
    2.7653    0.3648   -0.4891 N   0  0  0  0  0  0  0  0  0  0  0  0
    2.7714    2.0459    0.7374 H   0  0  0  0  0  0  0  0  0  0  0  0
    4.3516    1.6467    0.0686 H   0  0  0  0  0  0  0  0  0  0  0  0
    3.7089    0.6911    1.4186 H   0  0  0  0  0  0  0  0  0  0  0  0
    3.1675   -2.6091   -1.5466 H   0  0  0  0  0  0  0  0  0  0  0  0
    5.1214   -1.4464   -1.7369 H   0  0  0  0  0  0  0  0  0  0  0  0
    5.0061    0.2181   -1.6001 H   0  0  0  0  0  0  0  0  0  0  0  0
    1.8041    0.1527   -0.2443 H   0  0  0  0  0  0  0  0  0  0  0  0
  1  6  1  0  0  0  0
  1  8  1  0  0  0  0
  2  5  1  0  0  0  0
  3  2  1  0  0  0  0
  4  2  2  0  0  0  0
  5 12  1  0  0  0  0
  5  1  1  0  0  0  0
  7  1  1  0  0  0  0
  9  3  1  0  0  0  0
 10  4  1  0  0  0  0
 11  4  1  0  0  0  0
M  RAD  1   3   2
M  END
>  <HBA>
3

>  <HBD>
2

>  <TPSA>
64.4

>  <cid>
10111

>  <dipole>
2.72

>  <excitation_energy_1>
5.183

>  <excitation_energy_2>
5.904

>  <excitation_energy_3>
6.077

>  <excitation_energy_4>
6.154

>  <homo_energy>
-5.913

>  <homo_lumo_gap>
7.363

>  <logP>
0.29

>  <lumo_energy>
1.45

>  <melting_point>
102.45

>  <molecular_refractivity>
20.83

>  <oscillator_strength_1>
0.005

>  <oscillator_strength_2>
0.0047

>  <oscillator_strength_3>
0.0119

>  <oscillator_strength_4>
0.0049

>  <open_babel_can_smiles>
CNC(=[NH2])[NH]

>  <mulliken_charges>
12
1   -0.302613
2   0.55482
3   -0.640952
4   -0.740199
5   -0.570479
6   0.157646
7   0.151251
8   0.15549
9   0.260565
10   0.320255
11   0.324465
12   0.329751

>  <lowdin_charges>
12
1   -0.353124
2   0.123553
3   -0.483815
4   -0.50701
5   -0.312266
6   0.157466
7   0.149849
8   0.142663
9   0.244979
10   0.277556
11   0.278813
12   0.281337

$$$$

