PCCDB-ID:  43502
public computational chemistry database (PCCDB) project, http://pccdb.org

 19 19  0  0  0  0  0  0  0  0999 V2000
    0.8024    0.3671   -0.0332 C   0  0  0  0  0  0  0  0  0  0  0  0
    3.1043    0.3334   -0.9413 C   0  0  0  0  0  0  0  0  0  0  0  0
    1.0884   -1.9917    3.8984 C   0  0  0  0  0  0  0  0  0  0  0  0
    1.3310   -3.1825    3.3225 C   0  0  0  0  0  0  0  0  0  0  0  0
    1.2703   -0.9765    2.8689 C   0  0  0  0  0  0  0  0  0  0  0  0
    2.4812   -1.3689    0.6494 C   0  0  0  0  0  0  0  0  0  0  0  0
    2.1208   -0.2573   -0.0425 N   0  0  0  0  0  0  0  0  0  0  0  0
    1.5190   -1.7369    1.6729 N   0  0  0  0  0  0  0  0  0  0  0  0
    1.2245    0.2395    2.9025 O   0  0  0  0  0  0  0  0  0  0  0  0
    3.4911   -2.0255    0.4776 O   0  0  0  0  0  0  0  0  0  0  0  0
    1.6363   -3.1025    2.0097 O   0  0  0  0  0  0  0  0  0  0  0  0
    0.8203    1.3199    0.5037 H   0  0  0  0  0  0  0  0  0  0  0  0
    0.0780   -0.2886    0.4469 H   0  0  0  0  0  0  0  0  0  0  0  0
    0.4904    0.5380   -1.0709 H   0  0  0  0  0  0  0  0  0  0  0  0
    3.2013    1.4048   -0.7298 H   0  0  0  0  0  0  0  0  0  0  0  0
    2.7941    0.2093   -1.9870 H   0  0  0  0  0  0  0  0  0  0  0  0
    4.0634   -0.1609   -0.7940 H   0  0  0  0  0  0  0  0  0  0  0  0
    0.8423   -1.7844    4.9281 H   0  0  0  0  0  0  0  0  0  0  0  0
    1.3159   -4.1953    3.7029 H   0  0  0  0  0  0  0  0  0  0  0  0
  1 13  1  0  0  0  0
  1 12  1  0  0  0  0
  2 17  1  0  0  0  0
  2 15  1  0  0  0  0
  2  7  1  0  0  0  0
  3 18  1  0  0  0  0
  4 19  1  0  0  0  0
  4  3  2  0  0  0  0
  5  9  2  0  0  0  0
  5  3  1  0  0  0  0
  6  8  1  0  0  0  0
  7  1  1  0  0  0  0
  7  6  1  0  0  0  0
  8 11  1  0  0  0  0
  8  5  1  0  0  0  0
 10  6  2  0  0  0  0
 11  4  1  0  0  0  0
 14  1  1  0  0  0  0
 16  2  1  0  0  0  0
M  END
>  <HBA>
5

>  <HBD>
0

>  <TPSA>
55.45

>  <cid>
43502

>  <dipole>
1.94

>  <excitation_energy_1>
4.861

>  <excitation_energy_2>
4.972

>  <excitation_energy_3>
5.313

>  <excitation_energy_4>
5.607

>  <homo_energy>
-6.776

>  <homo_lumo_gap>
5.777

>  <logP>
-0.029

>  <lumo_energy>
-0.999

>  <melting_point>
73.18

>  <molecular_refractivity>
37.33

>  <oscillator_strength_1>
0.0029

>  <oscillator_strength_2>
0.0155

>  <oscillator_strength_3>
0.0888

>  <oscillator_strength_4>
0.0553

>  <open_babel_can_smiles>
CN(C(=O)n1occc1=O)C

>  <mulliken_charges>
19
1   -0.308925
2   -0.320099
3   -0.266932
4   0.177718
5   0.583777
6   0.723993
7   -0.400246
8   -0.298796
9   -0.50727
10   -0.487417
11   -0.313379
12   0.187805
13   0.185388
14   0.151712
15   0.164177
16   0.15996
17   0.204662
18   0.172107
19   0.191764

>  <lowdin_charges>
19
1   -0.349992
2   -0.346474
3   -0.246213
4   -0.004297
5   0.151928
6   0.180001
7   -0.08485
8   -0.017357
9   -0.27946
10   -0.286958
11   -0.07342
12   0.166319
13   0.175401
14   0.149286
15   0.154673
16   0.151367
17   0.184642
18   0.189821
19   0.185585

$$$$

