PCCDB-ID:  6867
public computational chemistry database (PCCDB) project, http://pccdb.org

 28 29  0  0  0  0  0  0  0  0999 V2000
    0.9557    0.1213   -0.2988 C   0  0  0  0  0  0  0  0  0  0  0  0
    6.8441   -4.7189    0.1888 C   0  0  0  0  0  0  0  0  0  0  0  0
    4.7432   -6.0604   -0.0967 C   0  0  0  0  0  0  0  0  0  0  0  0
    3.2652   -3.6277   -0.2393 C   0  0  0  0  0  0  0  0  0  0  0  0
    2.5373   -2.4529   -0.2623 C   0  0  0  0  0  0  0  0  0  0  0  0
    3.1754    1.2234   -0.0026 C   0  0  0  0  0  0  0  0  0  0  0  0
    5.3048   -2.3491    0.0463 C   0  0  0  0  0  0  0  0  0  0  0  0
    2.4531    0.0789   -0.1432 C   0  0  0  0  0  0  0  0  0  0  0  0
    4.6801   -3.6053   -0.0870 C   0  0  0  0  0  0  0  0  0  0  0  0
    3.1483   -1.1899   -0.1355 C   0  0  0  0  0  0  0  0  0  0  0  0
    4.5500   -1.1821    0.0205 C   0  0  0  0  0  0  0  0  0  0  0  0
    4.6181    1.2349    0.1579 C   0  0  0  0  0  0  0  0  0  0  0  0
    5.4154   -4.7720   -0.0753 N   0  0  0  0  0  0  0  0  0  0  0  0
    5.3211    2.2106    0.2908 O   0  0  0  0  0  0  0  0  0  0  0  0
    5.2454   -0.0161    0.1573 O   0  0  0  0  0  0  0  0  0  0  0  0
    0.5880    1.1506   -0.2820 H   0  0  0  0  0  0  0  0  0  0  0  0
    0.4592   -0.4315    0.5083 H   0  0  0  0  0  0  0  0  0  0  0  0
    0.6425   -0.3367   -1.2452 H   0  0  0  0  0  0  0  0  0  0  0  0
    7.2604   -5.7259    0.1288 H   0  0  0  0  0  0  0  0  0  0  0  0
    7.0681   -4.3134    1.1869 H   0  0  0  0  0  0  0  0  0  0  0  0
    7.3615   -4.0975   -0.5526 H   0  0  0  0  0  0  0  0  0  0  0  0
    5.4929   -6.8531   -0.0801 H   0  0  0  0  0  0  0  0  0  0  0  0
    4.1452   -6.1847   -1.0087 H   0  0  0  0  0  0  0  0  0  0  0  0
    4.0789   -6.2014    0.7688 H   0  0  0  0  0  0  0  0  0  0  0  0
    2.7401   -4.5701   -0.3320 H   0  0  0  0  0  0  0  0  0  0  0  0
    1.4597   -2.5104   -0.3829 H   0  0  0  0  0  0  0  0  0  0  0  0
    2.7032    2.1996    0.0007 H   0  0  0  0  0  0  0  0  0  0  0  0
    6.3733   -2.2480    0.1804 H   0  0  0  0  0  0  0  0  0  0  0  0
  1 16  1  0  0  0  0
  1  8  1  0  0  0  0
  1 17  1  0  0  0  0
  2 20  1  0  0  0  0
  3 22  1  0  0  0  0
  3 13  1  0  0  0  0
  3 24  1  0  0  0  0
  4  9  1  0  0  0  0
  5  4  2  0  0  0  0
  5 10  1  0  0  0  0
  6 27  1  0  0  0  0
  6 12  1  0  0  0  0
  7 28  1  0  0  0  0
  8 10  1  0  0  0  0
  8  6  2  0  0  0  0
  9 13  1  0  0  0  0
  9  7  2  0  0  0  0
 10 11  2  0  0  0  0
 11  7  1  0  0  0  0
 11 15  1  0  0  0  0
 12 14  2  0  0  0  0
 13  2  1  0  0  0  0
 15 12  1  0  0  0  0
 18  1  1  0  0  0  0
 19  2  1  0  0  0  0
 21  2  1  0  0  0  0
 23  3  1  0  0  0  0
 25  4  1  0  0  0  0
 26  5  1  0  0  0  0
M  END
>  <HBA>
3

>  <HBD>
0

>  <TPSA>
33.45

>  <cid>
6867

>  <dipole>
6.86

>  <excitation_energy_1>
3.709

>  <excitation_energy_2>
4.328

>  <excitation_energy_3>
4.616

>  <excitation_energy_4>
4.672

>  <homo_energy>
-5.353

>  <homo_lumo_gap>
4.082

>  <logP>
2.167

>  <lumo_energy>
-1.271

>  <melting_point>
97.51

>  <molecular_refractivity>
61.66

>  <oscillator_strength_1>
0.3898

>  <oscillator_strength_2>
0.0076

>  <oscillator_strength_3>
0.0002

>  <oscillator_strength_4>
0.0291

>  <open_babel_can_smiles>
O=c1cc(C)c2c(o1)cc(cc2)N(C)C

>  <mulliken_charges>
28
1   -0.535897
2   -0.313517
3   -0.313983
4   -0.190609
5   -0.215648
6   -0.310247
7   -0.271784
8   0.200505
9   0.388431
10   0.081797
11   0.317778
12   0.60274
13   -0.481244
14   -0.480953
15   -0.524611
16   0.169102
17   0.171174
18   0.171194
19   0.159379
20   0.16363
21   0.170714
22   0.160665
23   0.165875
24   0.160502
25   0.128649
26   0.132524
27   0.146558
28   0.147276

>  <lowdin_charges>
28
1   -0.441652
2   -0.349466
3   -0.351096
4   -0.215685
5   -0.139357
6   -0.234309
7   -0.232921
8   0.043941
9   0.072598
10   -0.073015
11   0.12336
12   0.196732
13   -0.103641
14   -0.254797
15   -0.141262
16   0.164596
17   0.167611
18   0.166604
19   0.159477
20   0.149471
21   0.158172
22   0.161758
23   0.15392
24   0.14876
25   0.162763
26   0.159761
27   0.17393
28   0.173744

$$$$

