PCCDB-ID:  18892
public computational chemistry database (PCCDB) project, http://pccdb.org

 33 35  0  0  0  0  0  0  0  0999 V2000
    0.2133   -0.1831    0.7138 C   0  0  0  0  0  0  0  0  0  0  0  0
    1.4233    0.5043    1.4051 C   0  0  0  0  0  0  0  0  0  0  0  0
    6.4378    2.4545   -3.9781 C   0  0  0  0  0  0  0  0  0  0  0  0
    5.6972    3.5944   -3.6961 C   0  0  0  0  0  0  0  0  0  0  0  0
   -0.3005    0.8906   -0.2862 C   0  0  0  0  0  0  0  0  0  0  0  0
    1.4946    1.9070    0.7368 C   0  0  0  0  0  0  0  0  0  0  0  0
    4.7136    1.0113   -3.0469 C   0  0  0  0  0  0  0  0  0  0  0  0
    2.4425    3.7084   -2.1054 C   0  0  0  0  0  0  0  0  0  0  0  0
    1.7203    1.2903   -1.6260 C   0  0  0  0  0  0  0  0  0  0  0  0
    2.6642    2.3522   -2.1177 C   0  0  0  0  0  0  0  0  0  0  0  0
    5.9577    1.1593   -3.6602 C   0  0  0  0  0  0  0  0  0  0  0  0
    3.9496    2.1513   -2.7393 C   0  0  0  0  0  0  0  0  0  0  0  0
    4.4551    3.4356   -3.0774 C   0  0  0  0  0  0  0  0  0  0  0  0
    6.7791    0.0398   -3.9151 N   0  0  0  0  0  0  0  0  0  0  0  0
    3.5087    4.3659   -2.6848 N   0  0  0  0  0  0  0  0  0  0  0  0
    0.8248    1.7929   -0.5707 N   0  0  0  0  0  0  0  0  0  0  0  0
   -0.5660   -0.4774    1.4246 H   0  0  0  0  0  0  0  0  0  0  0  0
    0.5269   -1.0912    0.1876 H   0  0  0  0  0  0  0  0  0  0  0  0
    2.3452   -0.0601    1.2299 H   0  0  0  0  0  0  0  0  0  0  0  0
    1.2991    0.5828    2.4901 H   0  0  0  0  0  0  0  0  0  0  0  0
    7.4136    2.5521   -4.4484 H   0  0  0  0  0  0  0  0  0  0  0  0
    6.0801    4.5785   -3.9549 H   0  0  0  0  0  0  0  0  0  0  0  0
   -1.0982    1.4816    0.1835 H   0  0  0  0  0  0  0  0  0  0  0  0
   -0.7036    0.4717   -1.2133 H   0  0  0  0  0  0  0  0  0  0  0  0
    2.5122    2.2850    0.6112 H   0  0  0  0  0  0  0  0  0  0  0  0
    0.9408    2.6370    1.3419 H   0  0  0  0  0  0  0  0  0  0  0  0
    4.3442    0.0165   -2.8061 H   0  0  0  0  0  0  0  0  0  0  0  0
    1.5945    4.2513   -1.7142 H   0  0  0  0  0  0  0  0  0  0  0  0
    2.3051    0.4041   -1.3115 H   0  0  0  0  0  0  0  0  0  0  0  0
    1.0803    0.9467   -2.4508 H   0  0  0  0  0  0  0  0  0  0  0  0
    7.3727    0.1542   -4.7293 H   0  0  0  0  0  0  0  0  0  0  0  0
    6.2593   -0.8276   -3.9906 H   0  0  0  0  0  0  0  0  0  0  0  0
    3.6112    5.3663   -2.7454 H   0  0  0  0  0  0  0  0  0  0  0  0
  1  2  1  0  0  0  0
  1 17  1  0  0  0  0
  2 20  1  0  0  0  0
  3  4  2  0  0  0  0
  3 11  1  0  0  0  0
  4 13  1  0  0  0  0
  5 23  1  0  0  0  0
  5  1  1  0  0  0  0
  6 26  1  0  0  0  0
  6  2  1  0  0  0  0
  7 27  1  0  0  0  0
  7 12  1  0  0  0  0
  8 28  1  0  0  0  0
  9 29  1  0  0  0  0
  9 16  1  0  0  0  0
 10  8  2  0  0  0  0
 10  9  1  0  0  0  0
 11  7  2  0  0  0  0
 12 10  1  0  0  0  0
 13 12  2  0  0  0  0
 13 15  1  0  0  0  0
 14 11  1  0  0  0  0
 15  8  1  0  0  0  0
 16  5  1  0  0  0  0
 16  6  1  0  0  0  0
 18  1  1  0  0  0  0
 19  2  1  0  0  0  0
 21  3  1  0  0  0  0
 22  4  1  0  0  0  0
 24  5  1  0  0  0  0
 25  6  1  0  0  0  0
 30  9  1  0  0  0  0
 31 14  1  0  0  0  0
 32 14  1  0  0  0  0
 33 15  1  0  0  0  0
M  END
>  <HBA>
2

>  <HBD>
2

>  <TPSA>
45.05

>  <cid>
18892

>  <dipole>
0.97

>  <excitation_energy_1>
4.13

>  <excitation_energy_2>
4.35

>  <excitation_energy_3>
4.449

>  <excitation_energy_4>
4.547

>  <homo_energy>
-4.776

>  <homo_lumo_gap>
4.855

>  <logP>
2.865

>  <lumo_energy>
0.079

>  <melting_point>
172.48

>  <molecular_refractivity>
71.59

>  <oscillator_strength_1>
0.0574

>  <oscillator_strength_2>
0.0006

>  <oscillator_strength_3>
0.0012

>  <oscillator_strength_4>
0.0712

>  <open_babel_can_smiles>
Nc1ccc2c(c1)c(CN1CCCC1)c[nH]2

>  <mulliken_charges>
33
1   -0.286113
2   -0.285681
3   -0.194243
4   -0.168525
5   -0.138955
6   -0.151645
7   -0.272325
8   0.013529
9   -0.200285
10   0.047918
11   0.298422
12   0.079753
13   0.309487
14   -0.788081
15   -0.698397
16   -0.385086
17   0.136342
18   0.139285
19   0.143358
20   0.136477
21   0.11106
22   0.118018
23   0.138788
24   0.1355
25   0.153153
26   0.135909
27   0.107701
28   0.156636
29   0.11947
30   0.145109
31   0.310368
32   0.310859
33   0.322194

>  <lowdin_charges>
33
1   -0.30415
2   -0.300761
3   -0.1997
4   -0.176649
5   -0.211598
6   -0.21472
7   -0.216484
8   -0.130354
9   -0.193797
10   -0.080148
11   0.044199
12   -0.024782
13   0.011446
14   -0.501166
15   -0.198274
16   -0.18949
17   0.147473
18   0.144659
19   0.146249
20   0.14523
21   0.150429
22   0.153698
23   0.141496
24   0.145197
25   0.153721
26   0.140668
27   0.148002
28   0.171185
29   0.124536
30   0.149634
31   0.268924
32   0.26863
33   0.286696

$$$$

