PCCDB-ID:  35232
public computational chemistry database (PCCDB) project, http://pccdb.org

 21 21  0  0  0  0  0  0  0  0999 V2000
    1.1068    0.1198    0.1744 C   0  0  0  0  0  0  0  0  0  0  0  0
    4.6243   -3.5148    0.1799 C   0  0  0  0  0  0  0  0  0  0  0  0
    2.6076    0.0576    0.0972 C   0  0  0  0  0  0  0  0  0  0  0  0
    4.5616   -1.1862    0.0692 C   0  0  0  0  0  0  0  0  0  0  0  0
    4.5417    1.2164   -0.0638 C   0  0  0  0  0  0  0  0  0  0  0  0
    6.6119    2.3645   -0.4100 N   0  0  0  0  0  0  0  0  0  0  0  0
    5.2983   -2.2287    0.0810 N   0  0  0  0  0  0  0  0  0  0  0  0
    3.1777   -1.1217    0.1398 N   0  0  0  0  0  0  0  0  0  0  0  0
    3.2256    1.2793   -0.0150 N   0  0  0  0  0  0  0  0  0  0  0  0
    5.2308    0.0633   -0.0271 N   0  0  0  0  0  0  0  0  0  0  0  0
    5.2413    2.3902   -0.1286 N   0  0  0  0  0  0  0  0  0  0  0  0
    0.6864   -0.8851    0.2333 H   0  0  0  0  0  0  0  0  0  0  0  0
    0.7074    0.6402   -0.7037 H   0  0  0  0  0  0  0  0  0  0  0  0
    0.8019    0.7002    1.0532 H   0  0  0  0  0  0  0  0  0  0  0  0
    5.3810   -4.3037    0.2411 H   0  0  0  0  0  0  0  0  0  0  0  0
    3.9884   -3.7171   -0.6937 H   0  0  0  0  0  0  0  0  0  0  0  0
    3.9773   -3.5841    1.0653 H   0  0  0  0  0  0  0  0  0  0  0  0
    7.1066    2.9548    0.2542 H   0  0  0  0  0  0  0  0  0  0  0  0
    6.7969    2.7003   -1.3545 H   0  0  0  0  0  0  0  0  0  0  0  0
    6.2428    0.0727   -0.0865 H   0  0  0  0  0  0  0  0  0  0  0  0
    4.6737    3.2103   -0.3153 H   0  0  0  0  0  0  0  0  0  0  0  0
  1 12  1  0  0  0  0
  1 14  1  0  0  0  0
  2 15  1  0  0  0  0
  2 17  1  0  0  0  0
  3  8  2  0  0  0  0
  3  1  1  0  0  0  0
  4  7  1  0  0  0  0
  4  8  2  0  0  0  0
  5 10  1  0  0  0  0
  5  9  2  0  0  0  0
  6 11  1  0  0  0  0
  6 18  1  0  0  0  0
  7  2  1  0  0  0  0
  9  3  1  0  0  0  0
 10  4  1  0  0  0  0
 11  5  1  0  0  0  0
 13  1  1  0  0  0  0
 16  2  1  0  0  0  0
 19  6  1  0  0  0  0
 20 10  1  0  0  0  0
 21 11  1  0  0  0  0
M  RAD  1   7   2
M  END
>  <HBA>
6

>  <HBD>
3

>  <TPSA>
88.75

>  <cid>
35232

>  <dipole>
6.2

>  <excitation_energy_1>
4.161

>  <excitation_energy_2>
4.555

>  <excitation_energy_3>
4.735

>  <excitation_energy_4>
4.974

>  <homo_energy>
-5.437

>  <homo_lumo_gap>
5.007

>  <logP>
0.354

>  <lumo_energy>
-0.43

>  <melting_point>
179.69

>  <molecular_refractivity>
41.3

>  <oscillator_strength_1>
0.0559

>  <oscillator_strength_2>
0.0035

>  <oscillator_strength_3>
0.0015

>  <oscillator_strength_4>
0.0001

>  <open_babel_can_smiles>
C[N]C1=[N]=C(N=C(N1)NN)C

>  <mulliken_charges>
21
1   -0.501862
2   -0.301617
3   0.430797
4   0.652292
5   0.792677
6   -0.57995
7   -0.510081
8   -0.513423
9   -0.558185
10   -0.665023
11   -0.543782
12   0.17295
13   0.1656
14   0.167355
15   0.136401
16   0.141666
17   0.14419
18   0.33919
19   0.331655
20   0.360128
21   0.339023

>  <lowdin_charges>
21
1   -0.445962
2   -0.355584
3   0.121237
4   0.111527
5   0.159757
6   -0.455606
7   -0.263104
8   -0.234297
9   -0.279344
10   -0.20702
11   -0.226566
12   0.168123
13   0.168409
14   0.16929
15   0.142779
16   0.143461
17   0.143842
18   0.276833
19   0.26853
20   0.305717
21   0.287976

$$$$

