PCCDB-ID:  30875
public computational chemistry database (PCCDB) project, http://pccdb.org

 40 39  0  0  0  0  0  0  0  0999 V2000
    2.9079    5.1524   -1.7903 C   0  0  0  0  0  0  0  0  0  0  0  0
    6.4666   -5.9924    0.6727 C   0  0  0  0  0  0  0  0  0  0  0  0
    3.1794    4.4596   -0.6836 C   0  0  0  0  0  0  0  0  0  0  0  0
    6.7994   -4.7035    0.7602 C   0  0  0  0  0  0  0  0  0  0  0  0
    2.8743    3.0018   -0.4713 C   0  0  0  0  0  0  0  0  0  0  0  0
    8.2007   -4.1854    0.9465 C   0  0  0  0  0  0  0  0  0  0  0  0
    4.1360    2.1537   -0.2188 C   0  0  0  0  0  0  0  0  0  0  0  0
    8.7156   -3.3181   -0.2246 C   0  0  0  0  0  0  0  0  0  0  0  0
    3.8173    0.6763    0.0513 C   0  0  0  0  0  0  0  0  0  0  0  0
    8.0035   -1.9720   -0.4603 C   0  0  0  0  0  0  0  0  0  0  0  0
    5.0514   -0.2280    0.2149 C   0  0  0  0  0  0  0  0  0  0  0  0
    8.1704   -0.9379    0.6803 C   0  0  0  0  0  0  0  0  0  0  0  0
    5.8997    0.0869    1.4558 C   0  0  0  0  0  0  0  0  0  0  0  0
    7.0517   -0.8931    1.7482 C   0  0  0  0  0  0  0  0  0  0  0  0
    3.1613    6.2050   -1.8853 H   0  0  0  0  0  0  0  0  0  0  0  0
    2.4159    4.6926   -2.6456 H   0  0  0  0  0  0  0  0  0  0  0  0
    5.4373   -6.3119    0.5318 H   0  0  0  0  0  0  0  0  0  0  0  0
    7.2137   -6.7813    0.7419 H   0  0  0  0  0  0  0  0  0  0  0  0
    3.6769    4.9648    0.1469 H   0  0  0  0  0  0  0  0  0  0  0  0
    6.0093   -3.9553    0.6854 H   0  0  0  0  0  0  0  0  0  0  0  0
    2.3307    2.6076   -1.3405 H   0  0  0  0  0  0  0  0  0  0  0  0
    2.2019    2.8916    0.3939 H   0  0  0  0  0  0  0  0  0  0  0  0
    8.8797   -5.0384    1.0748 H   0  0  0  0  0  0  0  0  0  0  0  0
    8.2580   -3.6031    1.8776 H   0  0  0  0  0  0  0  0  0  0  0  0
    4.6892    2.5806    0.6288 H   0  0  0  0  0  0  0  0  0  0  0  0
    4.8001    2.2341   -1.0906 H   0  0  0  0  0  0  0  0  0  0  0  0
    8.6555   -3.9151   -1.1445 H   0  0  0  0  0  0  0  0  0  0  0  0
    9.7834   -3.1176   -0.0559 H   0  0  0  0  0  0  0  0  0  0  0  0
    3.2062    0.2910   -0.7774 H   0  0  0  0  0  0  0  0  0  0  0  0
    3.1892    0.5993    0.9515 H   0  0  0  0  0  0  0  0  0  0  0  0
    6.9401   -2.1437   -0.6656 H   0  0  0  0  0  0  0  0  0  0  0  0
    8.4164   -1.5488   -1.3856 H   0  0  0  0  0  0  0  0  0  0  0  0
    5.6689   -0.1562   -0.6909 H   0  0  0  0  0  0  0  0  0  0  0  0
    4.7124   -1.2727    0.2710 H   0  0  0  0  0  0  0  0  0  0  0  0
    8.2660    0.0672    0.2465 H   0  0  0  0  0  0  0  0  0  0  0  0
    9.1318   -1.1307    1.1764 H   0  0  0  0  0  0  0  0  0  0  0  0
    5.2368    0.1109    2.3336 H   0  0  0  0  0  0  0  0  0  0  0  0
    6.3211    1.0981    1.3668 H   0  0  0  0  0  0  0  0  0  0  0  0
    7.4956   -0.5969    2.7082 H   0  0  0  0  0  0  0  0  0  0  0  0
    6.6399   -1.8984    1.9085 H   0  0  0  0  0  0  0  0  0  0  0  0
  1  3  2  0  0  0  0
  2 18  1  0  0  0  0
  2  4  2  0  0  0  0
  3  5  1  0  0  0  0
  3 19  1  0  0  0  0
  4  6  1  0  0  0  0
  5  7  1  0  0  0  0
  5 22  1  0  0  0  0
  6 23  1  0  0  0  0
  6 24  1  0  0  0  0
  7  9  1  0  0  0  0
  7 25  1  0  0  0  0
  8 28  1  0  0  0  0
  8  6  1  0  0  0  0
  9 11  1  0  0  0  0
  9 30  1  0  0  0  0
 10  8  1  0  0  0  0
 10 12  1  0  0  0  0
 11 34  1  0  0  0  0
 11 13  1  0  0  0  0
 12 36  1  0  0  0  0
 12 14  1  0  0  0  0
 13 14  1  0  0  0  0
 13 37  1  0  0  0  0
 14 40  1  0  0  0  0
 14 39  1  0  0  0  0
 15  1  1  0  0  0  0
 16  1  1  0  0  0  0
 17  2  1  0  0  0  0
 20  4  1  0  0  0  0
 21  5  1  0  0  0  0
 26  7  1  0  0  0  0
 27  8  1  0  0  0  0
 29  9  1  0  0  0  0
 31 10  1  0  0  0  0
 32 10  1  0  0  0  0
 33 11  1  0  0  0  0
 35 12  1  0  0  0  0
 38 13  1  0  0  0  0
M  END
>  <HBA>
0

>  <HBD>
0

>  <TPSA>
0.0

>  <cid>
30875

>  <dipole>
0.36

>  <excitation_energy_1>
6.409

>  <excitation_energy_2>
6.434

>  <excitation_energy_3>
6.555

>  <excitation_energy_4>
6.695

>  <homo_energy>
-6.765

>  <homo_lumo_gap>
7.415

>  <logP>
5.259

>  <lumo_energy>
0.65

>  <melting_point>
-73.07

>  <molecular_refractivity>
68.46

>  <oscillator_strength_1>
0.0262

>  <oscillator_strength_2>
0.0382

>  <oscillator_strength_3>
0.0538

>  <oscillator_strength_4>
0.0117

>  <open_babel_can_smiles>
C=CCCCCCCCCCCC=C

>  <mulliken_charges>
40
1   -0.34185
2   -0.343973
3   -0.041312
4   -0.042199
5   -0.300832
6   -0.308536
7   -0.256059
8   -0.259255
9   -0.256353
10   -0.264346
11   -0.257727
12   -0.262796
13   -0.25723
14   -0.267288
15   0.136394
16   0.133007
17   0.136238
18   0.133425
19   0.12166
20   0.127699
21   0.135768
22   0.139653
23   0.135827
24   0.146765
25   0.13484
26   0.136282
27   0.135222
28   0.129104
29   0.128217
30   0.127016
31   0.142652
32   0.130278
33   0.135806
34   0.127482
35   0.131511
36   0.130931
37   0.125402
38   0.132946
39   0.128562
40   0.13707

>  <lowdin_charges>
40
1   -0.344864
2   -0.343878
3   -0.144902
4   -0.149893
5   -0.272397
6   -0.277298
7   -0.27682
8   -0.272279
9   -0.276652
10   -0.283179
11   -0.278135
12   -0.281256
13   -0.276478
14   -0.28036
15   0.155427
16   0.153428
17   0.155611
18   0.153361
19   0.148451
20   0.148228
21   0.14554
22   0.147718
23   0.14832
24   0.149365
25   0.141213
26   0.142582
27   0.14389
28   0.138073
29   0.141573
30   0.137573
31   0.142297
32   0.144423
33   0.141492
34   0.137172
35   0.141401
36   0.141216
37   0.139304
38   0.137639
39   0.142827
40   0.140268

$$$$

