PCCDB-ID:  34555
public computational chemistry database (PCCDB) project, http://pccdb.org

 36 37  0  0  0  0  0  0  0  0999 V2000
    0.6961   -2.6752   -3.4382 C   0  0  0  0  0  0  0  0  0  0  0  0
    9.8377   -4.2639    2.3127 C   0  0  0  0  0  0  0  0  0  0  0  0
    1.9316   -3.8726   -1.0612 C   0  0  0  0  0  0  0  0  0  0  0  0
    8.6328   -3.2516   -0.1645 C   0  0  0  0  0  0  0  0  0  0  0  0
    4.1156   -0.9839   -3.4354 C   0  0  0  0  0  0  0  0  0  0  0  0
    6.1354   -4.2385    3.2326 C   0  0  0  0  0  0  0  0  0  0  0  0
    2.8151   -1.3601   -3.7861 C   0  0  0  0  0  0  0  0  0  0  0  0
    7.5234   -4.3980    3.2959 C   0  0  0  0  0  0  0  0  0  0  0  0
    4.7148   -1.5432   -2.3189 C   0  0  0  0  0  0  0  0  0  0  0  0
    5.5509   -3.7653    2.0695 C   0  0  0  0  0  0  0  0  0  0  0  0
    2.0980   -2.2886   -3.0273 C   0  0  0  0  0  0  0  0  0  0  0  0
    8.3413   -4.0812    2.2083 C   0  0  0  0  0  0  0  0  0  0  0  0
    2.6947   -2.8612   -1.8824 C   0  0  0  0  0  0  0  0  0  0  0  0
    7.7587   -3.5904    1.0191 C   0  0  0  0  0  0  0  0  0  0  0  0
    4.0135   -2.4843   -1.5436 C   0  0  0  0  0  0  0  0  0  0  0  0
    6.3544   -3.4461    0.9602 C   0  0  0  0  0  0  0  0  0  0  0  0
    4.5664   -3.0678   -0.3741 N   0  0  0  0  0  0  0  0  0  0  0  0
    5.8131   -2.9305   -0.2461 N   0  0  0  0  0  0  0  0  0  0  0  0
    0.3851   -2.1286   -4.3335 H   0  0  0  0  0  0  0  0  0  0  0  0
   -0.0343   -2.4635   -2.6469 H   0  0  0  0  0  0  0  0  0  0  0  0
    0.6185   -3.7480   -3.6576 H   0  0  0  0  0  0  0  0  0  0  0  0
   10.1147   -4.6845    3.2840 H   0  0  0  0  0  0  0  0  0  0  0  0
   10.3732   -3.3125    2.1971 H   0  0  0  0  0  0  0  0  0  0  0  0
   10.2215   -4.9363    1.5350 H   0  0  0  0  0  0  0  0  0  0  0  0
    0.9637   -3.4693   -0.7379 H   0  0  0  0  0  0  0  0  0  0  0  0
    2.4977   -4.1703   -0.1794 H   0  0  0  0  0  0  0  0  0  0  0  0
    1.7146   -4.7743   -1.6494 H   0  0  0  0  0  0  0  0  0  0  0  0
    9.4256   -2.5478    0.1186 H   0  0  0  0  0  0  0  0  0  0  0  0
    8.0477   -2.8126   -0.9718 H   0  0  0  0  0  0  0  0  0  0  0  0
    9.1339   -4.1480   -0.5540 H   0  0  0  0  0  0  0  0  0  0  0  0
    4.6498   -0.2505   -4.0336 H   0  0  0  0  0  0  0  0  0  0  0  0
    5.5202   -4.4808    4.0951 H   0  0  0  0  0  0  0  0  0  0  0  0
    2.3452   -0.9187   -4.6621 H   0  0  0  0  0  0  0  0  0  0  0  0
    7.9806   -4.7711    4.2095 H   0  0  0  0  0  0  0  0  0  0  0  0
    5.7176   -1.2668   -2.0142 H   0  0  0  0  0  0  0  0  0  0  0  0
    4.4793   -3.6225    1.9899 H   0  0  0  0  0  0  0  0  0  0  0  0
  1 11  1  0  0  0  0
  1 20  1  0  0  0  0
  2 22  1  0  0  0  0
  3 25  1  0  0  0  0
  3 26  1  0  0  0  0
  4 28  1  0  0  0  0
  4 14  1  0  0  0  0
  5  9  1  0  0  0  0
  6  8  1  0  0  0  0
  6 32  1  0  0  0  0
  7  5  2  0  0  0  0
  7 11  1  0  0  0  0
  8 34  1  0  0  0  0
  9 35  1  0  0  0  0
  9 15  2  0  0  0  0
 10  6  2  0  0  0  0
 11 13  2  0  0  0  0
 12  2  1  0  0  0  0
 12  8  2  0  0  0  0
 13 15  1  0  0  0  0
 13  3  1  0  0  0  0
 14 12  1  0  0  0  0
 15 17  1  0  0  0  0
 16 14  2  0  0  0  0
 16 10  1  0  0  0  0
 17 18  2  0  0  0  0
 18 16  1  0  0  0  0
 19  1  1  0  0  0  0
 21  1  1  0  0  0  0
 23  2  1  0  0  0  0
 24  2  1  0  0  0  0
 27  3  1  0  0  0  0
 29  4  1  0  0  0  0
 30  4  1  0  0  0  0
 31  5  1  0  0  0  0
 33  7  1  0  0  0  0
 36 10  1  0  0  0  0
M  END
>  <HBA>
2

>  <HBD>
0

>  <TPSA>
24.72

>  <cid>
34555

>  <dipole>
0.19

>  <excitation_energy_1>
2.516

>  <excitation_energy_2>
3.583

>  <excitation_energy_3>
3.707

>  <excitation_energy_4>
3.711

>  <homo_energy>
-5.761

>  <homo_lumo_gap>
3.774

>  <logP>
5.336

>  <lumo_energy>
-1.986

>  <melting_point>
80.17

>  <molecular_refractivity>
76.92

>  <oscillator_strength_1>
0.0167

>  <oscillator_strength_2>
0.6857

>  <oscillator_strength_3>
0.003

>  <oscillator_strength_4>
0.0736

>  <open_babel_can_smiles>
Cc1c(C)cccc1/N=N/c1cccc(c1C)C

>  <mulliken_charges>
36
1   -0.530817
2   -0.53089
3   -0.539059
4   -0.539059
5   -0.145257
6   -0.145108
7   -0.171174
8   -0.171158
9   -0.125725
10   -0.125775
11   0.115093
12   0.115105
13   0.109083
14   0.10891
15   0.219263
16   0.219453
17   -0.314884
18   -0.314922
19   0.154254
20   0.161438
21   0.16172
22   0.154284
23   0.161973
24   0.161223
25   0.153966
26   0.189359
27   0.157792
28   0.15369
29   0.189359
30   0.158088
31   0.130519
32   0.1305
33   0.123484
34   0.123452
35   0.150961
36   0.15086

>  <lowdin_charges>
36
1   -0.440695
2   -0.441963
3   -0.449837
4   -0.451202
5   -0.160116
6   -0.159857
7   -0.158351
8   -0.158221
9   -0.156071
10   -0.154794
11   -0.009042
12   -0.008778
13   0.001373
14   0.000843
15   0.002205
16   0.002312
17   -0.079705
18   -0.079693
19   0.157319
20   0.160059
21   0.158183
22   0.156714
23   0.159542
24   0.16057
25   0.157005
26   0.173394
27   0.159553
28   0.157876
29   0.173863
30   0.159874
31   0.159412
32   0.1589
33   0.155755
34   0.155573
35   0.169522
36   0.168477

$$$$

