PCCDB-ID:  10393
public computational chemistry database (PCCDB) project, http://pccdb.org

 20 20  0  0  0  0  0  0  0  0999 V2000
   -0.9793    0.8693   -0.1809 C   0  0  0  0  0  0  0  0  0  0  0  0
    1.0013   -0.4834   -0.2613 C   0  0  0  0  0  0  0  0  0  0  0  0
   -1.7653   -0.2778   -0.0759 C   0  0  0  0  0  0  0  0  0  0  0  0
    0.2310   -1.6393   -0.1544 C   0  0  0  0  0  0  0  0  0  0  0  0
    1.2703    2.0417   -0.3362 C   0  0  0  0  0  0  0  0  0  0  0  0
    1.7405    2.5033    1.0567 C   0  0  0  0  0  0  0  0  0  0  0  0
    0.4161    0.7940   -0.2777 C   0  0  0  0  0  0  0  0  0  0  0  0
   -1.1604   -1.5389   -0.0614 C   0  0  0  0  0  0  0  0  0  0  0  0
    2.5369    1.5340    1.7201 O   0  0  0  0  0  0  0  0  0  0  0  0
   -1.8736   -2.7024    0.0368 O   0  0  0  0  0  0  0  0  0  0  0  0
   -1.4658    1.8423   -0.1935 H   0  0  0  0  0  0  0  0  0  0  0  0
    2.0815   -0.5736   -0.3483 H   0  0  0  0  0  0  0  0  0  0  0  0
   -2.8489   -0.1928   -0.0104 H   0  0  0  0  0  0  0  0  0  0  0  0
    0.6889   -2.6235   -0.1506 H   0  0  0  0  0  0  0  0  0  0  0  0
    2.1580    1.8610   -0.9543 H   0  0  0  0  0  0  0  0  0  0  0  0
    0.7102    2.8620   -0.8040 H   0  0  0  0  0  0  0  0  0  0  0  0
    0.8658    2.7848    1.6661 H   0  0  0  0  0  0  0  0  0  0  0  0
    2.3734    3.3913    0.9573 H   0  0  0  0  0  0  0  0  0  0  0  0
    1.9868    0.7409    1.8284 H   0  0  0  0  0  0  0  0  0  0  0  0
   -2.8183   -2.4894    0.0884 H   0  0  0  0  0  0  0  0  0  0  0  0
  1  3  2  0  0  0  0
  2  4  1  0  0  0  0
  3  8  1  0  0  0  0
  3 13  1  0  0  0  0
  4 14  1  0  0  0  0
  4  8  2  0  0  0  0
  5  7  1  0  0  0  0
  5  6  1  0  0  0  0
  6 17  1  0  0  0  0
  6  9  1  0  0  0  0
  7  2  2  0  0  0  0
  7  1  1  0  0  0  0
  8 10  1  0  0  0  0
  9 19  1  0  0  0  0
 10 20  1  0  0  0  0
 11  1  1  0  0  0  0
 12  2  1  0  0  0  0
 15  5  1  0  0  0  0
 16  5  1  0  0  0  0
 18  6  1  0  0  0  0
M  END
>  <HBA>
2

>  <HBD>
2

>  <TPSA>
40.46

>  <cid>
10393

>  <dipole>
2.85

>  <excitation_energy_1>
4.909

>  <excitation_energy_2>
5.172

>  <excitation_energy_3>
5.534

>  <excitation_energy_4>
5.752

>  <homo_energy>
-5.981

>  <homo_lumo_gap>
5.758

>  <logP>
0.927

>  <lumo_energy>
-0.223

>  <melting_point>
66.08

>  <molecular_refractivity>
39.4

>  <oscillator_strength_1>
0.0328

>  <oscillator_strength_2>
0.0009

>  <oscillator_strength_3>
0.098

>  <oscillator_strength_4>
0.009

>  <open_babel_can_smiles>
OCCc1ccc(cc1)O

>  <mulliken_charges>
20
1   -0.186784
2   -0.21133
3   -0.190993
4   -0.155634
5   -0.354376
6   -0.023304
7   0.145108
8   0.348668
9   -0.618487
10   -0.641881
11   0.1272
12   0.141858
13   0.119944
14   0.142849
15   0.153156
16   0.137465
17   0.120454
18   0.145031
19   0.393521
20   0.407534

>  <lowdin_charges>
20
1   -0.155869
2   -0.16405
3   -0.208778
4   -0.184623
5   -0.293398
6   -0.13349
7   -0.030617
8   0.099263
9   -0.46937
10   -0.376244
11   0.156475
12   0.160517
13   0.15177
14   0.16839
15   0.155778
16   0.15269
17   0.125622
18   0.147324
19   0.342335
20   0.356276

$$$$

