PCCDB-ID:  12203
public computational chemistry database (PCCDB) project, http://pccdb.org

 31 30  0  0  0  0  0  0  0  0999 V2000
    2.7108   -3.1325    1.8448 C   0  0  0  0  0  0  0  0  0  0  0  0
    7.9447    4.6796    2.7018 C   0  0  0  0  0  0  0  0  0  0  0  0
    2.9232   -2.5306    0.4504 C   0  0  0  0  0  0  0  0  0  0  0  0
    7.4140    3.7125    1.6395 C   0  0  0  0  0  0  0  0  0  0  0  0
    4.3969   -2.3818    0.0372 C   0  0  0  0  0  0  0  0  0  0  0  0
    5.1981   -1.3722    0.8707 C   0  0  0  0  0  0  0  0  0  0  0  0
    6.6409   -1.2055    0.3739 C   0  0  0  0  0  0  0  0  0  0  0  0
    7.6380    2.2454    2.0110 C   0  0  0  0  0  0  0  0  0  0  0  0
    7.4663   -0.2117    1.1979 C   0  0  0  0  0  0  0  0  0  0  0  0
    7.0770    1.2521    0.9987 C   0  0  0  0  0  0  0  0  0  0  0  0
    6.3712    1.6103    0.0732 O   0  0  0  0  0  0  0  0  0  0  0  0
    1.6437   -3.2617    2.0593 H   0  0  0  0  0  0  0  0  0  0  0  0
    3.1281   -2.4964    2.6335 H   0  0  0  0  0  0  0  0  0  0  0  0
    3.1874   -4.1177    1.9258 H   0  0  0  0  0  0  0  0  0  0  0  0
    7.7660    5.7210    2.4115 H   0  0  0  0  0  0  0  0  0  0  0  0
    9.0248    4.5579    2.8522 H   0  0  0  0  0  0  0  0  0  0  0  0
    7.4563    4.5169    3.6708 H   0  0  0  0  0  0  0  0  0  0  0  0
    2.4333   -1.5479    0.3973 H   0  0  0  0  0  0  0  0  0  0  0  0
    2.4147   -3.1632   -0.2897 H   0  0  0  0  0  0  0  0  0  0  0  0
    7.8946    3.9146    0.6743 H   0  0  0  0  0  0  0  0  0  0  0  0
    6.3429    3.8774    1.4775 H   0  0  0  0  0  0  0  0  0  0  0  0
    4.4383   -2.0754   -1.0174 H   0  0  0  0  0  0  0  0  0  0  0  0
    4.8866   -3.3665    0.0877 H   0  0  0  0  0  0  0  0  0  0  0  0
    5.2171   -1.6865    1.9241 H   0  0  0  0  0  0  0  0  0  0  0  0
    4.6922   -0.3983    0.8413 H   0  0  0  0  0  0  0  0  0  0  0  0
    6.6297   -0.8706   -0.6700 H   0  0  0  0  0  0  0  0  0  0  0  0
    7.1455   -2.1810    0.3912 H   0  0  0  0  0  0  0  0  0  0  0  0
    7.1717    2.0186    2.9833 H   0  0  0  0  0  0  0  0  0  0  0  0
    8.7080    2.0319    2.1557 H   0  0  0  0  0  0  0  0  0  0  0  0
    8.5320   -0.2856    0.9292 H   0  0  0  0  0  0  0  0  0  0  0  0
    7.4248   -0.4507    2.2705 H   0  0  0  0  0  0  0  0  0  0  0  0
  1 14  1  0  0  0  0
  1 12  1  0  0  0  0
  1 13  1  0  0  0  0
  2 16  1  0  0  0  0
  2 17  1  0  0  0  0
  3  1  1  0  0  0  0
  4  8  1  0  0  0  0
  4  2  1  0  0  0  0
  5 23  1  0  0  0  0
  5  3  1  0  0  0  0
  5  6  1  0  0  0  0
  6 24  1  0  0  0  0
  7 27  1  0  0  0  0
  7  6  1  0  0  0  0
  7  9  1  0  0  0  0
  8 29  1  0  0  0  0
  8 28  1  0  0  0  0
  9 31  1  0  0  0  0
 10  9  1  0  0  0  0
 10  8  1  0  0  0  0
 11 10  2  0  0  0  0
 15  2  1  0  0  0  0
 18  3  1  0  0  0  0
 19  3  1  0  0  0  0
 20  4  1  0  0  0  0
 21  4  1  0  0  0  0
 22  5  1  0  0  0  0
 25  6  1  0  0  0  0
 26  7  1  0  0  0  0
 30  9  1  0  0  0  0
M  END
>  <HBA>
1

>  <HBD>
0

>  <TPSA>
17.07

>  <cid>
12203

>  <dipole>
2.32

>  <excitation_energy_1>
4.422

>  <excitation_energy_2>
6.033

>  <excitation_energy_3>
6.653

>  <excitation_energy_4>
6.73

>  <homo_energy>
-6.569

>  <homo_lumo_gap>
6.329

>  <logP>
3.326

>  <lumo_energy>
-0.239

>  <melting_point>
-7.83

>  <molecular_refractivity>
50.38

>  <oscillator_strength_1>
0.0001

>  <oscillator_strength_2>
0.0121

>  <oscillator_strength_3>
0.0096

>  <oscillator_strength_4>
0.0016

>  <open_babel_can_smiles>
CCCCCCC(=O)CCC

>  <mulliken_charges>
31
1   -0.442698
2   -0.446389
3   -0.249267
4   -0.24034
5   -0.249942
6   -0.258924
7   -0.247412
8   -0.351669
9   -0.360694
10   0.460244
11   -0.451794
12   0.141323
13   0.144164
14   0.138963
15   0.147403
16   0.139892
17   0.14035
18   0.132485
19   0.129768
20   0.145712
21   0.15465
22   0.132639
23   0.122393
24   0.123362
25   0.148303
26   0.153727
27   0.126174
28   0.15813
29   0.150785
30   0.160546
31   0.148117

>  <lowdin_charges>
31
1   -0.446527
2   -0.441558
3   -0.273654
4   -0.266569
5   -0.272796
6   -0.277672
7   -0.271467
8   -0.308771
9   -0.308037
10   0.163822
11   -0.239575
12   0.147785
13   0.147125
14   0.144427
15   0.151042
16   0.143548
17   0.145331
18   0.139662
19   0.14267
20   0.148617
21   0.151673
22   0.141224
23   0.134468
24   0.132943
25   0.147411
26   0.152332
27   0.141095
28   0.160749
29   0.154434
30   0.163619
31   0.152647

$$$$

