PCCDB-ID:  10704
public computational chemistry database (PCCDB) project, http://pccdb.org

 19 19  0  0  0  0  0  0  0  0999 V2000
    0.8403   -0.1961    0.0164 C   0  0  0  0  0  0  0  0  0  0  0  0
    4.5338   -1.1410   -0.0458 C   0  0  0  0  0  0  0  0  0  0  0  0
    5.1699    0.0988   -0.1095 C   0  0  0  0  0  0  0  0  0  0  0  0
    3.1417   -1.2047   -0.0131 C   0  0  0  0  0  0  0  0  0  0  0  0
    4.4000    1.2578   -0.1468 C   0  0  0  0  0  0  0  0  0  0  0  0
    2.3459   -0.0512   -0.0301 C   0  0  0  0  0  0  0  0  0  0  0  0
    2.9959    1.2014   -0.0986 C   0  0  0  0  0  0  0  0  0  0  0  0
    2.2408    2.4955   -0.1233 C   0  0  0  0  0  0  0  0  0  0  0  0
    1.2803    2.8594    0.6270 N   0  0  0  0  0  0  0  0  0  0  0  0
    2.6790    3.3999   -1.0497 O   0  0  0  0  0  0  0  0  0  0  0  0
    0.5360   -1.1560   -0.4128 H   0  0  0  0  0  0  0  0  0  0  0  0
    0.3278    0.6049   -0.5224 H   0  0  0  0  0  0  0  0  0  0  0  0
    0.4673   -0.1772    1.0495 H   0  0  0  0  0  0  0  0  0  0  0  0
    5.1179   -2.0570   -0.0263 H   0  0  0  0  0  0  0  0  0  0  0  0
    6.2540    0.1638   -0.1318 H   0  0  0  0  0  0  0  0  0  0  0  0
    2.6525   -2.1754    0.0212 H   0  0  0  0  0  0  0  0  0  0  0  0
    4.8879    2.2286   -0.1861 H   0  0  0  0  0  0  0  0  0  0  0  0
    1.0886    2.1343    1.3185 H   0  0  0  0  0  0  0  0  0  0  0  0
    3.2670    2.9439   -1.6717 H   0  0  0  0  0  0  0  0  0  0  0  0
  1 13  1  0  0  0  0
  2 14  1  0  0  0  0
  2  4  2  0  0  0  0
  3  2  1  0  0  0  0
  4 16  1  0  0  0  0
  5  3  2  0  0  0  0
  5  7  1  0  0  0  0
  6  4  1  0  0  0  0
  6  1  1  0  0  0  0
  7  6  2  0  0  0  0
  8  7  1  0  0  0  0
  8  9  2  0  0  0  0
  9 18  1  0  0  0  0
 10  8  1  0  0  0  0
 11  1  1  0  0  0  0
 12  1  1  0  0  0  0
 15  3  1  0  0  0  0
 17  5  1  0  0  0  0
 19 10  1  0  0  0  0
M  END
>  <HBA>
2

>  <HBD>
1

>  <TPSA>
43.09

>  <cid>
10704

>  <dipole>
4.45

>  <excitation_energy_1>
5.002

>  <excitation_energy_2>
5.16

>  <excitation_energy_3>
5.401

>  <excitation_energy_4>
5.842

>  <homo_energy>
-6.773

>  <homo_lumo_gap>
5.864

>  <logP>
1.794

>  <lumo_energy>
-0.909

>  <melting_point>
97.96

>  <molecular_refractivity>
39.5

>  <oscillator_strength_1>
0.0093

>  <oscillator_strength_2>
0.0137

>  <oscillator_strength_3>
0.1085

>  <oscillator_strength_4>
0.0167

>  <open_babel_can_smiles>
OC(=N)c1ccccc1C

>  <mulliken_charges>
19
1   -0.5453
2   -0.117775
3   -0.13197
4   -0.185407
5   -0.187556
6   0.147705
7   -0.003794
8   0.410604
9   -0.579096
10   -0.57286
11   0.159726
12   0.183338
13   0.167907
14   0.138337
15   0.138899
16   0.132
17   0.148635
18   0.290617
19   0.405991

>  <lowdin_charges>
19
1   -0.449703
2   -0.146489
3   -0.154502
4   -0.160852
5   -0.164224
6   0.007707
7   -0.062526
8   0.124689
9   -0.388563
10   -0.364105
11   0.160479
12   0.17238
13   0.161859
14   0.162701
15   0.160464
16   0.159064
17   0.164411
18   0.260014
19   0.357197

$$$$

