PCCDB-ID:  58606
public computational chemistry database (PCCDB) project, http://pccdb.org

 26 27  0  0  0  0  0  0  0  0999 V2000
    2.8807   -2.0728   -0.6760 C   0  0  0  0  0  0  0  0  0  0  0  0
    2.2469   -2.9413    3.6652 C   0  0  0  0  0  0  0  0  0  0  0  0
    0.5991   -1.1785    3.6536 C   0  0  0  0  0  0  0  0  0  0  0  0
    2.9448   -2.2971    2.6474 C   0  0  0  0  0  0  0  0  0  0  0  0
    1.2985   -0.5285    2.6493 C   0  0  0  0  0  0  0  0  0  0  0  0
    3.4005   -0.8081   -0.0278 C   0  0  0  0  0  0  0  0  0  0  0  0
    1.0611   -2.4002    4.1817 C   0  0  0  0  0  0  0  0  0  0  0  0
    2.4758   -1.0853    2.1124 C   0  0  0  0  0  0  0  0  0  0  0  0
    0.3108   -3.0685    5.2469 C   0  0  0  0  0  0  0  0  0  0  0  0
   -0.5988   -4.5852    7.0441 C   0  0  0  0  0  0  0  0  0  0  0  0
   -0.8462   -5.4928    7.9024 N   0  0  0  0  0  0  0  0  0  0  0  0
    3.1871   -0.3721    1.1444 N   0  0  0  0  0  0  0  0  0  0  0  0
   -0.7774   -2.5870    5.7575 N   0  0  0  0  0  0  0  0  0  0  0  0
   -1.2757   -3.4164    6.7183 N   0  0  0  0  0  0  0  0  0  0  0  0
    4.1776   -0.0268   -0.8285 O   0  0  0  0  0  0  0  0  0  0  0  0
    0.8217   -4.6294    5.9496 S   0  0  0  0  0  0  0  0  0  0  0  0
    2.2193   -2.6201   -0.0036 H   0  0  0  0  0  0  0  0  0  0  0  0
    3.7107   -2.7312   -0.9607 H   0  0  0  0  0  0  0  0  0  0  0  0
    2.3243   -1.8233   -1.5885 H   0  0  0  0  0  0  0  0  0  0  0  0
    2.6388   -3.8758    4.0586 H   0  0  0  0  0  0  0  0  0  0  0  0
   -0.3136   -0.7462    4.0501 H   0  0  0  0  0  0  0  0  0  0  0  0
    3.8749   -2.7181    2.2764 H   0  0  0  0  0  0  0  0  0  0  0  0
    0.9457    0.4204    2.2570 H   0  0  0  0  0  0  0  0  0  0  0  0
   -1.6994   -5.2948    8.4306 H   0  0  0  0  0  0  0  0  0  0  0  0
   -2.1011   -3.1044    7.2092 H   0  0  0  0  0  0  0  0  0  0  0  0
    4.2369   -0.4283   -1.7091 H   0  0  0  0  0  0  0  0  0  0  0  0
  1  6  1  0  0  0  0
  1 17  1  0  0  0  0
  2 20  1  0  0  0  0
  2  7  2  0  0  0  0
  3 21  1  0  0  0  0
  3  7  1  0  0  0  0
  4  2  1  0  0  0  0
  5  3  2  0  0  0  0
  6 12  2  0  0  0  0
  7  9  1  0  0  0  0
  8  4  2  0  0  0  0
  8  5  1  0  0  0  0
  9 13  2  0  0  0  0
  9 16  1  0  0  0  0
 10 11  2  0  0  0  0
 11 24  1  0  0  0  0
 12  8  1  0  0  0  0
 13 14  1  0  0  0  0
 14 10  1  0  0  0  0
 14 25  1  0  0  0  0
 15  6  1  0  0  0  0
 16 10  1  0  0  0  0
 18  1  1  0  0  0  0
 19  1  1  0  0  0  0
 22  4  1  0  0  0  0
 23  5  1  0  0  0  0
 26 15  1  0  0  0  0
M  END
>  <HBA>
6

>  <HBD>
2

>  <TPSA>
109.14

>  <cid>
58606

>  <dipole>
4.53

>  <excitation_energy_1>
3.852

>  <excitation_energy_2>
4.403

>  <excitation_energy_3>
4.489

>  <excitation_energy_4>
4.616

>  <homo_energy>
-5.467

>  <homo_lumo_gap>
4.267

>  <logP>
2.4

>  <lumo_energy>
-1.2

>  <melting_point>
177.27

>  <molecular_refractivity>
64.06

>  <oscillator_strength_1>
0.4979

>  <oscillator_strength_2>
0.0041

>  <oscillator_strength_3>
0.1923

>  <oscillator_strength_4>
0.0033

>  <open_babel_can_smiles>
C/C(=N\c1ccc(cc1)c1n[nH]c(=N)s1)/O

>  <mulliken_charges>
26
1   -0.555633
2   -0.208792
3   -0.166521
4   -0.165867
5   -0.153908
6   0.483967
7   0.144282
8   0.248614
9   0.040033
10   0.33171
11   -0.649637
12   -0.463744
13   -0.285163
14   -0.43657
15   -0.565364
16   0.229625
17   0.199723
18   0.179587
19   0.175031
20   0.150468
21   0.158879
22   0.132245
23   0.140158
24   0.279764
25   0.346314
26   0.410797

>  <lowdin_charges>
26
1   -0.484949
2   -0.15239
3   -0.135126
4   -0.186679
5   -0.16916
6   0.148964
7   -0.029212
8   0.055582
9   -0.090555
10   -0.019753
11   -0.438553
12   -0.166775
13   -0.11891
14   -0.200545
15   -0.353392
16   0.229124
17   0.18621
18   0.173052
19   0.170525
20   0.167744
21   0.173944
22   0.160973
23   0.16664
24   0.257753
25   0.297486
26   0.358001

$$$$

