PCCDB-ID:  13889
public computational chemistry database (PCCDB) project, http://pccdb.org

 27 27  0  0  0  0  0  0  0  0999 V2000
    1.7889    0.9241   -1.1260 C   0  0  0  0  0  0  0  0  0  0  0  0
    3.3505    0.0715    5.6424 C   0  0  0  0  0  0  0  0  0  0  0  0
    3.9737    5.0401    1.5180 C   0  0  0  0  0  0  0  0  0  0  0  0
    2.3390    0.0975    0.0353 C   0  0  0  0  0  0  0  0  0  0  0  0
    4.3438    0.1789    4.4709 C   0  0  0  0  0  0  0  0  0  0  0  0
    2.9091    4.3470    2.3881 C   0  0  0  0  0  0  0  0  0  0  0  0
    2.7953    0.8912    1.2371 C   0  0  0  0  0  0  0  0  0  0  0  0
    3.7417    0.9066    3.2971 C   0  0  0  0  0  0  0  0  0  0  0  0
    3.0536    2.8479    2.3526 C   0  0  0  0  0  0  0  0  0  0  0  0
    3.3448    0.1863    2.2439 N   0  0  0  0  0  0  0  0  0  0  0  0
    2.6307    2.2164    1.2418 N   0  0  0  0  0  0  0  0  0  0  0  0
    3.6165    2.2430    3.4029 N   0  0  0  0  0  0  0  0  0  0  0  0
    1.4719    0.2643   -1.9408 H   0  0  0  0  0  0  0  0  0  0  0  0
    2.5440    1.6136   -1.5161 H   0  0  0  0  0  0  0  0  0  0  0  0
    0.9303    1.5259   -0.8143 H   0  0  0  0  0  0  0  0  0  0  0  0
    3.8162   -0.4369    6.4932 H   0  0  0  0  0  0  0  0  0  0  0  0
    2.4611   -0.4983    5.3515 H   0  0  0  0  0  0  0  0  0  0  0  0
    3.0310    1.0664    5.9685 H   0  0  0  0  0  0  0  0  0  0  0  0
    3.8404    6.1267    1.5437 H   0  0  0  0  0  0  0  0  0  0  0  0
    3.8965    4.7083    0.4776 H   0  0  0  0  0  0  0  0  0  0  0  0
    4.9830    4.8128    1.8785 H   0  0  0  0  0  0  0  0  0  0  0  0
    3.1883   -0.5188   -0.2879 H   0  0  0  0  0  0  0  0  0  0  0  0
    1.5881   -0.6225    0.3896 H   0  0  0  0  0  0  0  0  0  0  0  0
    4.6518   -0.8172    4.1409 H   0  0  0  0  0  0  0  0  0  0  0  0
    5.2322    0.7298    4.8002 H   0  0  0  0  0  0  0  0  0  0  0  0
    1.9120    4.6076    2.0154 H   0  0  0  0  0  0  0  0  0  0  0  0
    2.9929    4.6793    3.4267 H   0  0  0  0  0  0  0  0  0  0  0  0
  1 15  1  0  0  0  0
  1  4  1  0  0  0  0
  2 18  1  0  0  0  0
  2 16  1  0  0  0  0
  3 19  1  0  0  0  0
  3 21  1  0  0  0  0
  3  6  1  0  0  0  0
  4 23  1  0  0  0  0
  4  7  1  0  0  0  0
  5 25  1  0  0  0  0
  5  2  1  0  0  0  0
  6 27  1  0  0  0  0
  7 11  1  0  0  0  0
  7 10  2  0  0  0  0
  8 12  1  0  0  0  0
  8  5  1  0  0  0  0
  9  6  1  0  0  0  0
  9 12  1  0  0  0  0
 10  8  2  0  0  0  0
 11  9  2  0  0  0  0
 13  1  1  0  0  0  0
 14  1  1  0  0  0  0
 17  2  1  0  0  0  0
 20  3  1  0  0  0  0
 22  4  1  0  0  0  0
 24  5  1  0  0  0  0
 26  6  1  0  0  0  0
M  RAD  1  12   2
M  END
>  <HBA>
3

>  <HBD>
0

>  <TPSA>
38.67

>  <cid>
13889

>  <dipole>
0.11

>  <excitation_energy_1>
4.581

>  <excitation_energy_2>
4.657

>  <excitation_energy_3>
4.697

>  <excitation_energy_4>
4.74

>  <homo_energy>
-6.944

>  <homo_lumo_gap>
5.981

>  <logP>
1.559

>  <lumo_energy>
-0.963

>  <melting_point>
61.35

>  <molecular_refractivity>
49.15

>  <oscillator_strength_1>
0.0

>  <oscillator_strength_2>
0.0054

>  <oscillator_strength_3>
0.0

>  <oscillator_strength_4>
0.006

>  <open_babel_can_smiles>
CCC1=NC(=[N]=C([N]1)CC)CC

>  <mulliken_charges>
27
1   -0.432374
2   -0.451321
3   -0.451151
4   -0.325118
5   -0.30549
6   -0.30501
7   0.438757
8   0.423945
9   0.42478
10   -0.463778
11   -0.468265
12   -0.458897
13   0.139526
14   0.15501
15   0.158994
16   0.151147
17   0.154701
18   0.165838
19   0.151451
20   0.164884
21   0.155332
22   0.168806
23   0.168946
24   0.160134
25   0.159684
26   0.159493
27   0.159977

>  <lowdin_charges>
27
1   -0.444215
2   -0.438406
3   -0.43363
4   -0.282868
5   -0.27777
6   -0.275949
7   0.11518
8   0.11634
9   0.117035
10   -0.190191
11   -0.18877
12   -0.190761
13   0.150938
14   0.156553
15   0.158178
16   0.155101
17   0.153424
18   0.158116
19   0.152544
20   0.156818
21   0.152596
22   0.167559
23   0.168099
24   0.160281
25   0.162765
26   0.16152
27   0.159515

$$$$

