PCCDB-ID:  51144
public computational chemistry database (PCCDB) project, http://pccdb.org

 43 42  0  0  0  0  0  0  0  0999 V2000
    1.3584    3.6884    4.1186 C   0  0  0  0  0  0  0  0  0  0  0  0
    6.8926    0.7785   -4.1140 C   0  0  0  0  0  0  0  0  0  0  0  0
    2.8213    3.6026    3.6703 C   0  0  0  0  0  0  0  0  0  0  0  0
    6.4484    0.9960   -2.6636 C   0  0  0  0  0  0  0  0  0  0  0  0
    3.4969    2.2916    4.0970 C   0  0  0  0  0  0  0  0  0  0  0  0
    7.0459    2.2651   -2.0390 C   0  0  0  0  0  0  0  0  0  0  0  0
    4.9858    2.1781    3.7309 C   0  0  0  0  0  0  0  0  0  0  0  0
    6.5761    2.5646   -0.6063 C   0  0  0  0  0  0  0  0  0  0  0  0
    5.2679    2.0866    2.2249 C   0  0  0  0  0  0  0  0  0  0  0  0
    7.0399    1.5358    0.4354 C   0  0  0  0  0  0  0  0  0  0  0  0
    9.1515    4.4323    3.1779 C   0  0  0  0  0  0  0  0  0  0  0  0
    8.7734    3.0807    2.5876 C   0  0  0  0  0  0  0  0  0  0  0  0
    6.7570    1.9289    1.8981 C   0  0  0  0  0  0  0  0  0  0  0  0
    8.3489    4.7439    4.3032 O   0  0  0  0  0  0  0  0  0  0  0  0
    7.3990    3.1665    2.2373 O   0  0  0  0  0  0  0  0  0  0  0  0
    0.8971    4.6324    3.8064 H   0  0  0  0  0  0  0  0  0  0  0  0
    1.2744    3.6218    5.2104 H   0  0  0  0  0  0  0  0  0  0  0  0
    0.7645    2.8706    3.6919 H   0  0  0  0  0  0  0  0  0  0  0  0
    6.4469   -0.1286   -4.5379 H   0  0  0  0  0  0  0  0  0  0  0  0
    7.9828    0.6775   -4.1833 H   0  0  0  0  0  0  0  0  0  0  0  0
    6.5983    1.6232   -4.7491 H   0  0  0  0  0  0  0  0  0  0  0  0
    3.3834    4.4497    4.0890 H   0  0  0  0  0  0  0  0  0  0  0  0
    2.8710    3.7126    2.5790 H   0  0  0  0  0  0  0  0  0  0  0  0
    6.7264    0.1173   -2.0664 H   0  0  0  0  0  0  0  0  0  0  0  0
    5.3512    1.0582   -2.6223 H   0  0  0  0  0  0  0  0  0  0  0  0
    2.9496    1.4438    3.6574 H   0  0  0  0  0  0  0  0  0  0  0  0
    3.3949    2.1838    5.1862 H   0  0  0  0  0  0  0  0  0  0  0  0
    6.7914    3.1232   -2.6775 H   0  0  0  0  0  0  0  0  0  0  0  0
    8.1441    2.1926   -2.0541 H   0  0  0  0  0  0  0  0  0  0  0  0
    5.4006    1.2841    4.2183 H   0  0  0  0  0  0  0  0  0  0  0  0
    5.5338    3.0322    4.1510 H   0  0  0  0  0  0  0  0  0  0  0  0
    5.4795    2.6376   -0.5971 H   0  0  0  0  0  0  0  0  0  0  0  0
    6.9521    3.5495   -0.3039 H   0  0  0  0  0  0  0  0  0  0  0  0
    4.8877    2.9760    1.7088 H   0  0  0  0  0  0  0  0  0  0  0  0
    4.7302    1.2235    1.8068 H   0  0  0  0  0  0  0  0  0  0  0  0
    8.1222    1.3782    0.3224 H   0  0  0  0  0  0  0  0  0  0  0  0
    6.5723    0.5588    0.2553 H   0  0  0  0  0  0  0  0  0  0  0  0
    9.0641    5.2051    2.3967 H   0  0  0  0  0  0  0  0  0  0  0  0
   10.1924    4.4117    3.5177 H   0  0  0  0  0  0  0  0  0  0  0  0
    8.9227    2.2880    3.3372 H   0  0  0  0  0  0  0  0  0  0  0  0
    9.4046    2.8540    1.7138 H   0  0  0  0  0  0  0  0  0  0  0  0
    7.1698    1.1366    2.5458 H   0  0  0  0  0  0  0  0  0  0  0  0
    7.4343    4.6025    4.0067 H   0  0  0  0  0  0  0  0  0  0  0  0
  1 17  1  0  0  0  0
  2  4  1  0  0  0  0
  3 22  1  0  0  0  0
  3  5  1  0  0  0  0
  3  1  1  0  0  0  0
  4 25  1  0  0  0  0
  4 24  1  0  0  0  0
  4  6  1  0  0  0  0
  5 27  1  0  0  0  0
  6  8  1  0  0  0  0
  7  5  1  0  0  0  0
  7 31  1  0  0  0  0
  7 30  1  0  0  0  0
  8 32  1  0  0  0  0
  8 33  1  0  0  0  0
  8 10  1  0  0  0  0
  9  7  1  0  0  0  0
 10 13  1  0  0  0  0
 11 39  1  0  0  0  0
 11 14  1  0  0  0  0
 12 11  1  0  0  0  0
 12 40  1  0  0  0  0
 13  9  1  0  0  0  0
 13 15  1  0  0  0  0
 13 42  1  0  0  0  0
 15 12  1  0  0  0  0
 16  1  1  0  0  0  0
 18  1  1  0  0  0  0
 19  2  1  0  0  0  0
 20  2  1  0  0  0  0
 21  2  1  0  0  0  0
 23  3  1  0  0  0  0
 26  5  1  0  0  0  0
 28  6  1  0  0  0  0
 29  6  1  0  0  0  0
 34  9  1  0  0  0  0
 35  9  1  0  0  0  0
 36 10  1  0  0  0  0
 37 10  1  0  0  0  0
 38 11  1  0  0  0  0
 41 12  1  0  0  0  0
 43 14  1  0  0  0  0
M  END
>  <HBA>
2

>  <HBD>
1

>  <TPSA>
29.46

>  <cid>
51144

>  <dipole>
2.28

>  <excitation_energy_1>
6.5

>  <excitation_energy_2>
6.69

>  <excitation_energy_3>
6.751

>  <excitation_energy_4>
6.813

>  <homo_energy>
-6.958

>  <homo_lumo_gap>
8.904

>  <logP>
3.525

>  <lumo_energy>
1.946

>  <melting_point>
-21.54

>  <molecular_refractivity>
66.85

>  <oscillator_strength_1>
0.0051

>  <oscillator_strength_2>
0.0125

>  <oscillator_strength_3>
0.0061

>  <oscillator_strength_4>
0.0072

>  <open_babel_can_smiles>
OCCOC(CCCCC)CCCCC

>  <mulliken_charges>
43
1   -0.441508
2   -0.441192
3   -0.248948
4   -0.24868
5   -0.248424
6   -0.25052
7   -0.263954
8   -0.26132
9   -0.274813
10   -0.279328
11   -0.037639
12   -0.033406
13   0.154827
14   -0.627709
15   -0.50805
16   0.142151
17   0.14211
18   0.140811
19   0.141453
20   0.141282
21   0.141817
22   0.13098
23   0.134494
24   0.133659
25   0.129008
26   0.124662
27   0.129561
28   0.128069
29   0.124451
30   0.126652
31   0.136837
32   0.130725
33   0.145869
34   0.151542
35   0.128913
36   0.129362
37   0.133975
38   0.128674
39   0.143098
40   0.131842
41   0.121561
42   0.10999
43   0.407117

>  <lowdin_charges>
43
1   -0.443235
2   -0.443461
3   -0.273242
4   -0.273367
5   -0.27399
6   -0.273055
7   -0.277176
8   -0.277597
9   -0.287243
10   -0.289381
11   -0.139429
12   -0.149759
13   0.004236
14   -0.468072
15   -0.283968
16   0.149532
17   0.144502
18   0.146955
19   0.149503
20   0.144323
21   0.147045
22   0.140004
23   0.137505
24   0.139507
25   0.135828
26   0.137151
27   0.139558
28   0.141231
29   0.133828
30   0.140706
31   0.141166
32   0.137084
33   0.148786
34   0.15133
35   0.144736
36   0.138901
37   0.144605
38   0.131821
39   0.147836
40   0.134407
41   0.131676
42   0.128085
43   0.341128

$$$$

