PCCDB-ID:  11552
public computational chemistry database (PCCDB) project, http://pccdb.org

 16 15  0  0  0  0  0  0  0  0999 V2000
    0.8691    0.0962    0.0448 C   0  0  0  0  0  0  0  0  0  0  0  0
    2.7431   -1.4903   -0.5827 C   0  0  0  0  0  0  0  0  0  0  0  0
    2.9394    0.9725   -1.1463 C   0  0  0  0  0  0  0  0  0  0  0  0
    2.8087    2.3939   -0.6488 C   0  0  0  0  0  0  0  0  0  0  0  0
    2.3853   -0.0643   -0.1420 C   0  0  0  0  0  0  0  0  0  0  0  0
    2.2590    3.2946   -1.2431 O   0  0  0  0  0  0  0  0  0  0  0  0
    0.4851   -0.6310    0.7692 H   0  0  0  0  0  0  0  0  0  0  0  0
    0.3411   -0.0642   -0.9037 H   0  0  0  0  0  0  0  0  0  0  0  0
    0.6050    1.0979    0.4031 H   0  0  0  0  0  0  0  0  0  0  0  0
    2.3808   -2.2269    0.1437 H   0  0  0  0  0  0  0  0  0  0  0  0
    3.8272   -1.6203   -0.6821 H   0  0  0  0  0  0  0  0  0  0  0  0
    2.2867   -1.7265   -1.5522 H   0  0  0  0  0  0  0  0  0  0  0  0
    4.0126    0.7800   -1.3021 H   0  0  0  0  0  0  0  0  0  0  0  0
    2.4374    0.8936   -2.1174 H   0  0  0  0  0  0  0  0  0  0  0  0
    3.2709    2.5762    0.3509 H   0  0  0  0  0  0  0  0  0  0  0  0
    2.8709    0.1203    0.8289 H   0  0  0  0  0  0  0  0  0  0  0  0
  1  9  1  0  0  0  0
  1  7  1  0  0  0  0
  2  5  1  0  0  0  0
  2 10  1  0  0  0  0
  3  4  1  0  0  0  0
  3  5  1  0  0  0  0
  4 15  1  0  0  0  0
  5  1  1  0  0  0  0
  5 16  1  0  0  0  0
  6  4  2  0  0  0  0
  8  1  1  0  0  0  0
 11  2  1  0  0  0  0
 12  2  1  0  0  0  0
 13  3  1  0  0  0  0
 14  3  1  0  0  0  0
M  END
>  <HBA>
1

>  <HBD>
0

>  <TPSA>
17.07

>  <cid>
11552

>  <dipole>
2.81

>  <excitation_energy_1>
4.216

>  <excitation_energy_2>
6.477

>  <excitation_energy_3>
6.855

>  <excitation_energy_4>
7.097

>  <homo_energy>
-6.781

>  <homo_lumo_gap>
6.193

>  <logP>
1.231

>  <lumo_energy>
-0.588

>  <melting_point>
5.83

>  <molecular_refractivity>
26.35

>  <oscillator_strength_1>
0.0001

>  <oscillator_strength_2>
0.0188

>  <oscillator_strength_3>
0.0392

>  <oscillator_strength_4>
0.0082

>  <open_babel_can_smiles>
O=CCC(C)C

>  <mulliken_charges>
16
1   -0.444847
2   -0.440263
3   -0.323066
4   0.255187
5   -0.087872
6   -0.384686
7   0.146743
8   0.148861
9   0.153875
10   0.147035
11   0.142896
12   0.146266
13   0.154043
14   0.159596
15   0.096475
16   0.129757

>  <lowdin_charges>
16
1   -0.447511
2   -0.441989
3   -0.307847
4   0.056649
5   -0.117086
6   -0.217411
7   0.153104
8   0.151203
9   0.153316
10   0.152913
11   0.147344
12   0.14935
13   0.161265
14   0.159432
15   0.109604
16   0.137663

$$$$

