PCCDB-ID:  66307
public computational chemistry database (PCCDB) project, http://pccdb.org

 21 21  0  0  0  0  0  0  0  0999 V2000
   -0.8065   -1.0401   -0.1492 C   0  0  0  0  0  0  0  0  0  0  0  0
    0.7522   -1.0800   -0.1975 C   0  0  0  0  0  0  0  0  0  0  0  0
   -1.1791    0.4102    0.2455 C   0  0  0  0  0  0  0  0  0  0  0  0
    1.2172    0.3367    0.2135 C   0  0  0  0  0  0  0  0  0  0  0  0
    0.0763    2.6142    0.5640 C   0  0  0  0  0  0  0  0  0  0  0  0
    0.0335    1.2699   -0.1697 C   0  0  0  0  0  0  0  0  0  0  0  0
   -0.0445    1.5741   -1.6083 N   0  0  0  0  0  0  0  0  0  0  0  0
    1.2106    3.4015    0.1967 O   0  0  0  0  0  0  0  0  0  0  0  0
   -1.2146   -1.7677    0.5597 H   0  0  0  0  0  0  0  0  0  0  0  0
   -1.2272   -1.2926   -1.1290 H   0  0  0  0  0  0  0  0  0  0  0  0
    1.0988   -1.3205   -1.2095 H   0  0  0  0  0  0  0  0  0  0  0  0
    1.1703   -1.8485    0.4604 H   0  0  0  0  0  0  0  0  0  0  0  0
   -1.3147    0.4786    1.3334 H   0  0  0  0  0  0  0  0  0  0  0  0
   -2.0976    0.7649   -0.2307 H   0  0  0  0  0  0  0  0  0  0  0  0
    2.1571    0.6307   -0.2695 H   0  0  0  0  0  0  0  0  0  0  0  0
    1.3792    0.3723    1.3009 H   0  0  0  0  0  0  0  0  0  0  0  0
    0.0466    2.4489    1.6522 H   0  0  0  0  0  0  0  0  0  0  0  0
   -0.7960    3.2108    0.2819 H   0  0  0  0  0  0  0  0  0  0  0  0
    0.1181    0.7360   -2.1641 H   0  0  0  0  0  0  0  0  0  0  0  0
    0.7055    2.2276   -1.8326 H   0  0  0  0  0  0  0  0  0  0  0  0
    1.9960    2.9613    0.5573 H   0  0  0  0  0  0  0  0  0  0  0  0
  1  3  1  0  0  0  0
  1  9  1  0  0  0  0
  2  1  1  0  0  0  0
  2  4  1  0  0  0  0
  2 12  1  0  0  0  0
  3 13  1  0  0  0  0
  4 16  1  0  0  0  0
  5 17  1  0  0  0  0
  6  4  1  0  0  0  0
  6  3  1  0  0  0  0
  6  5  1  0  0  0  0
  7  6  1  0  0  0  0
  8 21  1  0  0  0  0
  8  5  1  0  0  0  0
 10  1  1  0  0  0  0
 11  2  1  0  0  0  0
 14  3  1  0  0  0  0
 15  4  1  0  0  0  0
 18  5  1  0  0  0  0
 19  7  1  0  0  0  0
 20  7  1  0  0  0  0
M  END
>  <HBA>
2

>  <HBD>
2

>  <TPSA>
46.25

>  <cid>
66307

>  <dipole>
2.54

>  <excitation_energy_1>
5.463

>  <excitation_energy_2>
6.029

>  <excitation_energy_3>
6.196

>  <excitation_energy_4>
6.472

>  <homo_energy>
-6.123

>  <homo_lumo_gap>
7.679

>  <logP>
0.951

>  <lumo_energy>
1.557

>  <melting_point>
79.9

>  <molecular_refractivity>
32.75

>  <oscillator_strength_1>
0.0233

>  <oscillator_strength_2>
0.0062

>  <oscillator_strength_3>
0.0009

>  <oscillator_strength_4>
0.0089

>  <open_babel_can_smiles>
OCC1(N)CCCC1

>  <mulliken_charges>
21
1   -0.281041
2   -0.279956
3   -0.265635
4   -0.293889
5   -0.045834
6   0.16999
7   -0.730925
8   -0.622801
9   0.138917
10   0.141625
11   0.13439
12   0.139875
13   0.127287
14   0.151814
15   0.12532
16   0.125064
17   0.116346
18   0.159352
19   0.291143
20   0.305997
21   0.39296

>  <lowdin_charges>
21
1   -0.288896
2   -0.2883
3   -0.283278
4   -0.3048
5   -0.138877
6   0.037086
7   -0.553216
8   -0.467791
9   0.148518
10   0.145178
11   0.140342
12   0.149369
13   0.138428
14   0.156029
15   0.13928
16   0.136089
17   0.125598
18   0.156818
19   0.251141
20   0.258656
21   0.342627

$$$$

