PCCDB-ID:  15283
public computational chemistry database (PCCDB) project, http://pccdb.org

 25 25  0  0  1  0  0  0  0  0999 V2000
    2.6171    1.3132    0.7857 C   0  0  0  0  0  0  0  0  0  0  0  0
    2.7035   -1.3982   -2.0570 C   0  0  0  0  0  0  0  0  0  0  0  0
    2.2968    0.0458   -0.0102 C   0  0  0  0  0  0  0  0  0  0  0  0
    1.8666    3.2233   -4.0046 C   0  0  0  0  0  0  0  0  0  0  0  0
    3.1987    3.0626   -3.6247 C   0  0  0  0  0  0  0  0  0  0  0  0
    0.9079    2.3250   -3.5319 C   0  0  0  0  0  0  0  0  0  0  0  0
    3.5732    2.0147   -2.7805 C   0  0  0  0  0  0  0  0  0  0  0  0
    1.2827    1.2793   -2.6891 C   0  0  0  0  0  0  0  0  0  0  0  0
    2.6201    1.1083   -2.3011 C   0  0  0  0  0  0  0  0  0  0  0  0
    3.0145   -0.0494   -1.3815 C   0  0  2  0  0  0  0  0  0  0  0  0
    4.4340    0.0458   -1.1813 O   0  0  0  0  0  0  0  0  0  0  0  0
    2.1302    1.2873    1.7669 H   0  0  0  0  0  0  0  0  0  0  0  0
    2.2716    2.2092    0.2598 H   0  0  0  0  0  0  0  0  0  0  0  0
    3.6960    1.4124    0.9389 H   0  0  0  0  0  0  0  0  0  0  0  0
    1.6346   -1.5157   -2.2622 H   0  0  0  0  0  0  0  0  0  0  0  0
    3.0102   -2.2290   -1.4072 H   0  0  0  0  0  0  0  0  0  0  0  0
    3.2487   -1.4768   -3.0023 H   0  0  0  0  0  0  0  0  0  0  0  0
    1.2138   -0.0371   -0.1661 H   0  0  0  0  0  0  0  0  0  0  0  0
    2.5843   -0.8414    0.5752 H   0  0  0  0  0  0  0  0  0  0  0  0
    1.5765    4.0389   -4.6616 H   0  0  0  0  0  0  0  0  0  0  0  0
    3.9547    3.7561   -3.9845 H   0  0  0  0  0  0  0  0  0  0  0  0
   -0.1344    2.4367   -3.8197 H   0  0  0  0  0  0  0  0  0  0  0  0
    4.6091    1.8919   -2.4885 H   0  0  0  0  0  0  0  0  0  0  0  0
    0.5202    0.5910   -2.3326 H   0  0  0  0  0  0  0  0  0  0  0  0
    4.6897   -0.7030   -0.6202 H   0  0  0  0  0  0  0  0  0  0  0  0
  1 14  1  0  0  0  0
  1 12  1  0  0  0  0
  2 16  1  0  0  0  0
  2 10  1  0  0  0  0
  3 19  1  0  0  0  0
  3  1  1  0  0  0  0
  4  5  2  0  0  0  0
  4  6  1  0  0  0  0
  5  7  1  0  0  0  0
  6  8  2  0  0  0  0
  7 23  1  0  0  0  0
  7  9  2  0  0  0  0
  8 24  1  0  0  0  0
  8  9  1  0  0  0  0
  9 10  1  0  0  0  0
 10 11  1  1  0  0  0
 10  3  1  0  0  0  0
 11 25  1  0  0  0  0
 13  1  1  0  0  0  0
 15  2  1  0  0  0  0
 17  2  1  0  0  0  0
 18  3  1  0  0  0  0
 20  4  1  0  0  0  0
 21  5  1  0  0  0  0
 22  6  1  0  0  0  0
M  END
>  <HBA>
1

>  <HBD>
1

>  <TPSA>
20.23

>  <cid>
15283

>  <dipole>
1.53

>  <excitation_energy_1>
5.323

>  <excitation_energy_2>
5.796

>  <excitation_energy_3>
5.912

>  <excitation_energy_4>
6.002

>  <homo_energy>
-6.389

>  <homo_lumo_gap>
6.523

>  <logP>
2.304

>  <lumo_energy>
0.133

>  <melting_point>
30.72

>  <molecular_refractivity>
46.87

>  <oscillator_strength_1>
0.0005

>  <oscillator_strength_2>
0.0025

>  <oscillator_strength_3>
0.0327

>  <oscillator_strength_4>
0.003

>  <open_babel_can_smiles>
CC[C@@](c1ccccc1)(O)C

>  <mulliken_charges>
25
1   -0.444045
2   -0.455034
3   -0.264712
4   -0.127424
5   -0.131596
6   -0.135813
7   -0.171682
8   -0.183217
9   0.122144
10   0.259919
11   -0.650507
12   0.137463
13   0.158941
14   0.153195
15   0.146087
16   0.12749
17   0.163667
18   0.134387
19   0.116184
20   0.125494
21   0.126766
22   0.125625
23   0.156433
24   0.121554
25   0.388681

>  <lowdin_charges>
25
1   -0.447199
2   -0.451775
3   -0.283215
4   -0.161464
5   -0.157492
6   -0.15651
7   -0.160109
8   -0.171222
9   -0.006348
10   0.123811
11   -0.456419
12   0.148062
13   0.15706
14   0.151764
15   0.152307
16   0.142817
17   0.161496
18   0.143667
19   0.134777
20   0.156344
21   0.157236
22   0.154303
23   0.171284
24   0.153545
25   0.343279

$$$$

