PCCDB-ID:  7464
public computational chemistry database (PCCDB) project, http://pccdb.org

 23 23  0  0  0  0  0  0  0  0999 V2000
    3.7510    0.6420    0.7169 C   0  0  0  0  0  0  0  0  0  0  0  0
    1.9078    0.9011   -1.0078 C   0  0  0  0  0  0  0  0  0  0  0  0
    2.2769   -2.5592   -0.0261 C   0  0  0  0  0  0  0  0  0  0  0  0
    3.8061   -1.5522   -1.5624 C   0  0  0  0  0  0  0  0  0  0  0  0
    2.5768   -3.8201   -0.5384 C   0  0  0  0  0  0  0  0  0  0  0  0
    4.1168   -2.8039   -2.0852 C   0  0  0  0  0  0  0  0  0  0  0  0
    2.5345   -0.0276    0.0498 C   0  0  0  0  0  0  0  0  0  0  0  0
    2.8781   -1.3963   -0.5220 C   0  0  0  0  0  0  0  0  0  0  0  0
    3.5050   -3.9634   -1.5804 C   0  0  0  0  0  0  0  0  0  0  0  0
    3.8599   -5.2310   -2.0627 N   0  0  0  0  0  0  0  0  0  0  0  0
    3.4691    1.6006    1.1696 H   0  0  0  0  0  0  0  0  0  0  0  0
    4.5456    0.8396   -0.0129 H   0  0  0  0  0  0  0  0  0  0  0  0
    4.1717    0.0040    1.5018 H   0  0  0  0  0  0  0  0  0  0  0  0
    1.6184    1.8606   -0.5619 H   0  0  0  0  0  0  0  0  0  0  0  0
    1.0150    0.4478   -1.4524 H   0  0  0  0  0  0  0  0  0  0  0  0
    2.6137    1.1117   -1.8203 H   0  0  0  0  0  0  0  0  0  0  0  0
    1.5503   -2.4799    0.7803 H   0  0  0  0  0  0  0  0  0  0  0  0
    4.2996   -0.6784   -1.9818 H   0  0  0  0  0  0  0  0  0  0  0  0
    2.0932   -4.7028   -0.1248 H   0  0  0  0  0  0  0  0  0  0  0  0
    4.8457   -2.8900   -2.8887 H   0  0  0  0  0  0  0  0  0  0  0  0
    1.7793   -0.1867    0.8323 H   0  0  0  0  0  0  0  0  0  0  0  0
    3.1467   -5.9397   -1.9389 H   0  0  0  0  0  0  0  0  0  0  0  0
    4.2081   -5.2335   -3.0141 H   0  0  0  0  0  0  0  0  0  0  0  0
  1 11  1  0  0  0  0
  1 13  1  0  0  0  0
  2 14  1  0  0  0  0
  2  7  1  0  0  0  0
  3 17  1  0  0  0  0
  4  8  2  0  0  0  0
  5 19  1  0  0  0  0
  5  3  2  0  0  0  0
  6  9  2  0  0  0  0
  6  4  1  0  0  0  0
  7  1  1  0  0  0  0
  7 21  1  0  0  0  0
  8  3  1  0  0  0  0
  8  7  1  0  0  0  0
  9  5  1  0  0  0  0
 10 22  1  0  0  0  0
 10  9  1  0  0  0  0
 12  1  1  0  0  0  0
 15  2  1  0  0  0  0
 16  2  1  0  0  0  0
 18  4  1  0  0  0  0
 20  6  1  0  0  0  0
 23 10  1  0  0  0  0
M  END
>  <HBA>
1

>  <HBD>
1

>  <TPSA>
26.02

>  <cid>
7464

>  <dipole>
1.6

>  <excitation_energy_1>
4.626

>  <excitation_energy_2>
4.65

>  <excitation_energy_3>
5.134

>  <excitation_energy_4>
5.318

>  <homo_energy>
-5.252

>  <homo_lumo_gap>
5.505

>  <logP>
2.973

>  <lumo_energy>
0.253

>  <melting_point>
55.98

>  <molecular_refractivity>
45.43

>  <oscillator_strength_1>
0.0314

>  <oscillator_strength_2>
0.0055

>  <oscillator_strength_3>
0.0058

>  <oscillator_strength_4>
0.0041

>  <open_babel_can_smiles>
CC(c1ccc(cc1)N)C

>  <mulliken_charges>
23
1   -0.435791
2   -0.436893
3   -0.206355
4   -0.19469
5   -0.169228
6   -0.171917
7   -0.158493
8   0.185324
9   0.303027
10   -0.786637
11   0.136724
12   0.140524
13   0.147942
14   0.137183
15   0.146447
16   0.140301
17   0.118142
18   0.120161
19   0.113035
20   0.113438
21   0.124288
22   0.316773
23   0.316695

>  <lowdin_charges>
23
1   -0.443752
2   -0.443484
3   -0.158764
4   -0.15639
5   -0.202786
6   -0.197666
7   -0.11736
8   -0.027347
9   0.055543
10   -0.491369
11   0.1456
12   0.146776
13   0.153021
14   0.145863
15   0.151654
16   0.146464
17   0.152226
18   0.153369
19   0.151533
20   0.150889
21   0.140548
22   0.273733
23   0.2717

$$$$

