PCCDB-ID:  28550
public computational chemistry database (PCCDB) project, http://pccdb.org

 31 31  0  0  0  0  0  0  0  0999 V2000
    2.4156    0.2111   -1.8418 C   0  0  0  0  0  0  0  0  0  0  0  0
    7.8011    0.7852   -2.1782 C   0  0  0  0  0  0  0  0  0  0  0  0
    2.3330   -0.7603   -0.6739 C   0  0  0  0  0  0  0  0  0  0  0  0
    7.1890    1.6837   -1.1138 C   0  0  0  0  0  0  0  0  0  0  0  0
    3.6920   -3.2516    4.7146 C   0  0  0  0  0  0  0  0  0  0  0  0
    4.9687   -2.7785    4.2981 C   0  0  0  0  0  0  0  0  0  0  0  0
    2.7876   -2.6911    3.8585 C   0  0  0  0  0  0  0  0  0  0  0  0
    5.6751   -1.2173    2.4030 C   0  0  0  0  0  0  0  0  0  0  0  0
    4.7563   -1.9581    3.2127 C   0  0  0  0  0  0  0  0  0  0  0  0
    5.4145   -0.4123    1.3485 C   0  0  0  0  0  0  0  0  0  0  0  0
    4.0341   -0.0882    0.8433 C   0  0  0  0  0  0  0  0  0  0  0  0
    6.5689    0.2371    0.6764 C   0  0  0  0  0  0  0  0  0  0  0  0
    3.3809    0.8607    1.2157 O   0  0  0  0  0  0  0  0  0  0  0  0
    7.7320    0.1103    1.0119 O   0  0  0  0  0  0  0  0  0  0  0  0
    3.6376   -0.9822   -0.0841 O   0  0  0  0  0  0  0  0  0  0  0  0
    6.1596    0.9920   -0.3685 O   0  0  0  0  0  0  0  0  0  0  0  0
    3.4104   -1.9078    2.9435 O   0  0  0  0  0  0  0  0  0  0  0  0
    1.4336    0.3044   -2.3199 H   0  0  0  0  0  0  0  0  0  0  0  0
    3.1325   -0.1426   -2.5900 H   0  0  0  0  0  0  0  0  0  0  0  0
    2.7275    1.2004   -1.4962 H   0  0  0  0  0  0  0  0  0  0  0  0
    8.5283    1.3529   -2.7702 H   0  0  0  0  0  0  0  0  0  0  0  0
    7.0301    0.4012   -2.8540 H   0  0  0  0  0  0  0  0  0  0  0  0
    8.3191   -0.0596   -1.7159 H   0  0  0  0  0  0  0  0  0  0  0  0
    2.0128   -1.7534   -0.9987 H   0  0  0  0  0  0  0  0  0  0  0  0
    1.6547   -0.3945    0.1006 H   0  0  0  0  0  0  0  0  0  0  0  0
    6.6698    2.5365   -1.5577 H   0  0  0  0  0  0  0  0  0  0  0  0
    7.9470    2.0436   -0.4140 H   0  0  0  0  0  0  0  0  0  0  0  0
    3.4719   -3.9151    5.5389 H   0  0  0  0  0  0  0  0  0  0  0  0
    5.9298   -3.0074    4.7374 H   0  0  0  0  0  0  0  0  0  0  0  0
    1.7129   -2.7462    3.7738 H   0  0  0  0  0  0  0  0  0  0  0  0
    6.7212   -1.3180    2.6834 H   0  0  0  0  0  0  0  0  0  0  0  0
  1 20  1  0  0  0  0
  1  3  1  0  0  0  0
  2 23  1  0  0  0  0
  2  4  1  0  0  0  0
  3 15  1  0  0  0  0
  3 25  1  0  0  0  0
  4 27  1  0  0  0  0
  4 16  1  0  0  0  0
  5 28  1  0  0  0  0
  6  5  1  0  0  0  0
  6 29  1  0  0  0  0
  7  5  2  0  0  0  0
  8 31  1  0  0  0  0
  8  9  1  0  0  0  0
  9  6  2  0  0  0  0
 10  8  2  0  0  0  0
 11 13  2  0  0  0  0
 11 10  1  0  0  0  0
 12 14  2  0  0  0  0
 12 10  1  0  0  0  0
 15 11  1  0  0  0  0
 16 12  1  0  0  0  0
 17  9  1  0  0  0  0
 17  7  1  0  0  0  0
 18  1  1  0  0  0  0
 19  1  1  0  0  0  0
 21  2  1  0  0  0  0
 22  2  1  0  0  0  0
 24  3  1  0  0  0  0
 26  4  1  0  0  0  0
 30  7  1  0  0  0  0
M  END
>  <HBA>
5

>  <HBD>
0

>  <TPSA>
65.74

>  <cid>
28550

>  <dipole>
2.62

>  <excitation_energy_1>
4.078

>  <excitation_energy_2>
4.399

>  <excitation_energy_3>
4.872

>  <excitation_energy_4>
5.197

>  <homo_energy>
-6.038

>  <homo_lumo_gap>
4.231

>  <logP>
1.789

>  <lumo_energy>
-1.807

>  <melting_point>
50.39

>  <molecular_refractivity>
60.21

>  <oscillator_strength_1>
0.6228

>  <oscillator_strength_2>
0.0483

>  <oscillator_strength_3>
0.032

>  <oscillator_strength_4>
0.0029

>  <open_babel_can_smiles>
CCOC(=O)C(=Cc1ccco1)C(=O)OCC

>  <mulliken_charges>
31
1   -0.459688
2   -0.462476
3   -0.044114
4   -0.042619
5   -0.191739
6   -0.181726
7   0.112015
8   -0.18534
9   0.350746
10   -0.02092
11   0.557674
12   0.634733
13   -0.466272
14   -0.502256
15   -0.445268
16   -0.480142
17   -0.447766
18   0.146629
19   0.156698
20   0.179841
21   0.149691
22   0.157558
23   0.177868
24   0.150589
25   0.168995
26   0.155653
27   0.171936
28   0.153135
29   0.157464
30   0.167347
31   0.181753

>  <lowdin_charges>
31
1   -0.454278
2   -0.458074
3   -0.128331
4   -0.128754
5   -0.201211
6   -0.180678
7   -0.052988
8   -0.110347
9   0.066004
10   -0.073544
11   0.200252
12   0.200004
13   -0.251785
14   -0.280235
15   -0.183685
16   -0.186534
17   -0.084612
18   0.156507
19   0.156898
20   0.166987
21   0.159861
22   0.157279
23   0.167098
24   0.151181
25   0.159345
26   0.154984
27   0.161228
28   0.175463
29   0.176735
30   0.175215
31   0.190014

$$$$

