PCCDB-ID:  70936
public computational chemistry database (PCCDB) project, http://pccdb.org

 18 18  0  0  0  0  0  0  0  0999 V2000
    1.9076   -0.9349   -0.7824 C   0  0  0  0  0  0  0  0  0  0  0  0
    3.3187   -2.4465    1.6254 C   0  0  0  0  0  0  0  0  0  0  0  0
    2.3995    0.0543   -0.0197 C   0  0  0  0  0  0  0  0  0  0  0  0
    3.7235    0.7766    3.3459 C   0  0  0  0  0  0  0  0  0  0  0  0
    3.1771    1.2932    1.9884 C   0  0  0  0  0  0  0  0  0  0  0  0
    3.3616   -1.0196    2.0800 C   0  0  0  0  0  0  0  0  0  0  0  0
    3.8350   -0.6833    3.2250 N   0  0  0  0  0  0  0  0  0  0  0  0
    2.9076    0.0346    1.2743 N   0  0  0  0  0  0  0  0  0  0  0  0
    1.5786   -0.6970   -1.7874 H   0  0  0  0  0  0  0  0  0  0  0  0
    1.8132   -1.9649   -0.4660 H   0  0  0  0  0  0  0  0  0  0  0  0
    3.8457   -3.0517    2.3646 H   0  0  0  0  0  0  0  0  0  0  0  0
    3.7933   -2.5686    0.6463 H   0  0  0  0  0  0  0  0  0  0  0  0
    2.2877   -2.8091    1.5445 H   0  0  0  0  0  0  0  0  0  0  0  0
    2.4188    1.0608   -0.4338 H   0  0  0  0  0  0  0  0  0  0  0  0
    3.0506    1.0234    4.1766 H   0  0  0  0  0  0  0  0  0  0  0  0
    4.7020    1.2059    3.5890 H   0  0  0  0  0  0  0  0  0  0  0  0
    3.9088    1.8976    1.4355 H   0  0  0  0  0  0  0  0  0  0  0  0
    2.2599    1.8837    2.0929 H   0  0  0  0  0  0  0  0  0  0  0  0
  1 10  1  0  0  0  0
  1  3  2  0  0  0  0
  2  6  1  0  0  0  0
  2 11  1  0  0  0  0
  3  8  1  0  0  0  0
  4 16  1  0  0  0  0
  4 15  1  0  0  0  0
  5 18  1  0  0  0  0
  5  4  1  0  0  0  0
  6  7  2  0  0  0  0
  7  4  1  0  0  0  0
  8  5  1  0  0  0  0
  8  6  1  0  0  0  0
  9  1  1  0  0  0  0
 12  2  1  0  0  0  0
 13  2  1  0  0  0  0
 14  3  1  0  0  0  0
 17  5  1  0  0  0  0
M  END
>  <HBA>
2

>  <HBD>
0

>  <TPSA>
15.6

>  <cid>
70936

>  <dipole>
1.93

>  <excitation_energy_1>
4.798

>  <excitation_energy_2>
5.037

>  <excitation_energy_3>
5.213

>  <excitation_energy_4>
5.349

>  <homo_energy>
-5.274

>  <homo_lumo_gap>
5.567

>  <logP>
0.237

>  <lumo_energy>
0.294

>  <melting_point>
-4.08

>  <molecular_refractivity>
42.19

>  <oscillator_strength_1>
0.037

>  <oscillator_strength_2>
0.3869

>  <oscillator_strength_3>
0.0056

>  <oscillator_strength_4>
0.0049

>  <open_babel_can_smiles>
CC1=NCCN1C=C

>  <mulliken_charges>
18
1   -0.385011
2   -0.525807
3   0.089893
4   -0.171069
5   -0.147551
6   0.511699
7   -0.462715
8   -0.477906
9   0.138775
10   0.139188
11   0.187094
12   0.174975
13   0.173124
14   0.137409
15   0.153851
16   0.153664
17   0.152878
18   0.157509

>  <lowdin_charges>
18
1   -0.40955
2   -0.446698
3   -0.088209
4   -0.210687
5   -0.206786
6   0.094743
7   -0.237278
8   -0.092881
9   0.164296
10   0.15922
11   0.180801
12   0.169962
13   0.167068
14   0.157519
15   0.150782
16   0.151105
17   0.146634
18   0.149961

$$$$

