PCCDB-ID:  67520
public computational chemistry database (PCCDB) project, http://pccdb.org

  9  9  0  0  0  0  0  0  0  0999 V2000
   -1.3426   -0.1197    0.0017 C   0  0  0  0  0  0  0  0  0  0  0  0
   -0.6999    1.1222    0.0553 C   0  0  0  0  0  0  0  0  0  0  0  0
    0.6885   -1.0682    0.0762 C   0  0  0  0  0  0  0  0  0  0  0  0
   -0.6400   -1.2478    0.0120 N   0  0  0  0  0  0  0  0  0  0  0  0
    0.6286    1.2213    0.1171 N   0  0  0  0  0  0  0  0  0  0  0  0
    1.3456    0.0934    0.1278 N   0  0  0  0  0  0  0  0  0  0  0  0
   -2.4273   -0.1993   -0.0498 H   0  0  0  0  0  0  0  0  0  0  0  0
   -1.2509    2.0588    0.0491 H   0  0  0  0  0  0  0  0  0  0  0  0
    1.3105   -1.9597    0.0879 H   0  0  0  0  0  0  0  0  0  0  0  0
  1  4  1  0  0  0  0
  1  2  2  0  0  0  0
  2  5  1  0  0  0  0
  3  9  1  0  0  0  0
  3  6  1  0  0  0  0
  4  3  2  0  0  0  0
  5  6  2  0  0  0  0
  7  1  1  0  0  0  0
  8  2  1  0  0  0  0
M  END
>  <HBA>
3

>  <HBD>
0

>  <TPSA>
38.67

>  <cid>
67520

>  <dipole>
2.57

>  <excitation_energy_1>
3.097

>  <excitation_energy_2>
3.927

>  <excitation_energy_3>
5.33

>  <excitation_energy_4>
5.536

>  <homo_energy>
-6.672

>  <homo_lumo_gap>
4.504

>  <logP>
-0.128

>  <lumo_energy>
-2.169

>  <melting_point>
48.83

>  <molecular_refractivity>
19.83

>  <oscillator_strength_1>
0.0056

>  <oscillator_strength_2>
0.0

>  <oscillator_strength_3>
0.0003

>  <oscillator_strength_4>
0.0

>  <open_babel_can_smiles>
n1ccnnc1

>  <mulliken_charges>
9
1   0.061062
2   0.037822
3   0.184495
4   -0.365363
5   -0.215839
6   -0.222435
7   0.170352
8   0.171474
9   0.178431

>  <lowdin_charges>
9
1   -0.067627
2   -0.121448
3   -0.053567
4   -0.122623
5   -0.060232
6   -0.095353
7   0.169825
8   0.176416
9   0.174609

$$$$

