PCCDB-ID:  37087
public computational chemistry database (PCCDB) project, http://pccdb.org

 24 24  0  0  1  0  0  0  0  0999 V2000
    2.3254   -1.9186    2.1509 C   0  0  0  0  0  0  0  0  0  0  0  0
    2.4602    3.5844   -3.0685 C   0  0  0  0  0  0  0  0  0  0  0  0
    1.1834    3.0156   -3.1343 C   0  0  0  0  0  0  0  0  0  0  0  0
    3.3767    3.0906   -2.1433 C   0  0  0  0  0  0  0  0  0  0  0  0
    0.8314    1.9695   -2.2889 C   0  0  0  0  0  0  0  0  0  0  0  0
    3.0384    2.0386   -1.2857 C   0  0  0  0  0  0  0  0  0  0  0  0
    2.2040   -0.1237    0.3872 C   0  0  0  0  0  0  0  0  0  0  0  0
    1.4537   -1.2725    1.0728 C   0  0  1  0  0  0  0  0  0  0  0  0
    1.7593    1.4750   -1.3603 C   0  0  0  0  0  0  0  0  0  0  0  0
    0.9679   -2.2992    0.1457 N   0  0  0  0  0  0  0  0  0  0  0  0
    1.3191    0.4458   -0.5748 O   0  0  0  0  0  0  0  0  0  0  0  0
    2.6382   -1.1895    2.9067 H   0  0  0  0  0  0  0  0  0  0  0  0
    3.2318   -2.3585    1.7133 H   0  0  0  0  0  0  0  0  0  0  0  0
    1.7700   -2.7201    2.6458 H   0  0  0  0  0  0  0  0  0  0  0  0
    2.7324    4.4015   -3.7301 H   0  0  0  0  0  0  0  0  0  0  0  0
    0.4558    3.3905   -3.8495 H   0  0  0  0  0  0  0  0  0  0  0  0
    4.3721    3.5228   -2.0790 H   0  0  0  0  0  0  0  0  0  0  0  0
   -0.1553    1.5180   -2.3263 H   0  0  0  0  0  0  0  0  0  0  0  0
    3.7673    1.6732   -0.5716 H   0  0  0  0  0  0  0  0  0  0  0  0
    3.1094   -0.5047   -0.1112 H   0  0  0  0  0  0  0  0  0  0  0  0
    2.5090    0.6402    1.1176 H   0  0  0  0  0  0  0  0  0  0  0  0
    0.5662   -0.8362    1.5506 H   0  0  0  0  0  0  0  0  0  0  0  0
    1.7655   -2.7507   -0.3052 H   0  0  0  0  0  0  0  0  0  0  0  0
    0.4473   -1.8414   -0.6017 H   0  0  0  0  0  0  0  0  0  0  0  0
  1 14  1  0  0  0  0
  1 12  1  0  0  0  0
  2  4  1  0  0  0  0
  3  2  2  0  0  0  0
  3  5  1  0  0  0  0
  4 17  1  0  0  0  0
  4  6  2  0  0  0  0
  5  9  2  0  0  0  0
  6 19  1  0  0  0  0
  7  8  1  0  0  0  0
  7 21  1  0  0  0  0
  8 22  1  1  0  0  0
  8  1  1  0  0  0  0
  9  6  1  0  0  0  0
  9 11  1  0  0  0  0
 10  8  1  0  0  0  0
 11  7  1  0  0  0  0
 13  1  1  0  0  0  0
 15  2  1  0  0  0  0
 16  3  1  0  0  0  0
 18  5  1  0  0  0  0
 20  7  1  0  0  0  0
 23 10  1  0  0  0  0
 24 10  1  0  0  0  0
M  END
>  <HBA>
2

>  <HBD>
1

>  <TPSA>
35.25

>  <cid>
37087

>  <dipole>
1.62

>  <excitation_energy_1>
5.052

>  <excitation_energy_2>
5.532

>  <excitation_energy_3>
5.756

>  <excitation_energy_4>
5.803

>  <homo_energy>
-5.935

>  <homo_lumo_gap>
5.968

>  <logP>
2.113

>  <lumo_energy>
0.033

>  <melting_point>
61.34

>  <molecular_refractivity>
45.26

>  <oscillator_strength_1>
0.0318

>  <oscillator_strength_2>
0.0014

>  <oscillator_strength_3>
0.1038

>  <oscillator_strength_4>
0.0091

>  <open_babel_can_smiles>
C[C@@H](COc1ccccc1)N

>  <mulliken_charges>
24
1   -0.449562
2   -0.133148
3   -0.132786
4   -0.137761
5   -0.1765
6   -0.193494
7   -0.027272
8   0.003153
9   0.378653
10   -0.706762
11   -0.532483
12   0.144554
13   0.136334
14   0.170361
15   0.125596
16   0.130306
17   0.129341
18   0.134118
19   0.132886
20   0.126694
21   0.135235
22   0.147516
23   0.285068
24   0.309954

>  <lowdin_charges>
24
1   -0.449794
2   -0.179211
3   -0.147829
4   -0.14554
5   -0.185151
6   -0.216226
7   -0.14948
8   -0.072003
9   0.103739
10   -0.549838
11   -0.206737
12   0.152867
13   0.145351
14   0.166696
15   0.157396
16   0.159562
17   0.156755
18   0.163866
19   0.162955
20   0.133234
21   0.140413
22   0.148403
23   0.249584
24   0.260988

$$$$

