PCCDB-ID:  62334
public computational chemistry database (PCCDB) project, http://pccdb.org

 36 36  0  0  1  0  0  0  0  0999 V2000
    0.9341    2.7632    1.2203 C   0  0  0  0  0  0  0  0  0  0  0  0
    3.3632   -1.4543   -0.2716 C   0  0  0  0  0  0  0  0  0  0  0  0
    2.5648    0.1071   -2.0651 C   0  0  0  0  0  0  0  0  0  0  0  0
    4.6590   -1.2311   -2.3884 C   0  0  0  0  0  0  0  0  0  0  0  0
    6.1063    2.7830   -1.0996 C   0  0  0  0  0  0  0  0  0  0  0  0
    5.6820    3.3275    0.2706 C   0  0  0  0  0  0  0  0  0  0  0  0
    5.0408    1.8424   -1.6844 C   0  0  0  0  0  0  0  0  0  0  0  0
    5.3266    2.1846    1.2301 C   0  0  0  0  0  0  0  0  0  0  0  0
    2.1979    1.9998    1.5497 C   0  0  0  0  0  0  0  0  0  0  0  0
    4.7217    0.6710   -0.7277 C   0  0  1  0  0  0  0  0  0  0  0  0
    4.2820    1.2242    0.6424 C   0  0  2  0  0  0  0  0  0  0  0  0
    3.8160   -0.4512   -1.3543 C   0  0  0  0  0  0  0  0  0  0  0  0
    2.4434    1.4937    2.6239 O   0  0  0  0  0  0  0  0  0  0  0  0
    3.0172    1.9395    0.4739 O   0  0  0  0  0  0  0  0  0  0  0  0
    0.3554    2.9164    2.1319 H   0  0  0  0  0  0  0  0  0  0  0  0
    0.3339    2.1957    0.5000 H   0  0  0  0  0  0  0  0  0  0  0  0
    1.1752    3.7254    0.7586 H   0  0  0  0  0  0  0  0  0  0  0  0
    2.8548   -2.3056   -0.7394 H   0  0  0  0  0  0  0  0  0  0  0  0
    2.6632   -1.0091    0.4435 H   0  0  0  0  0  0  0  0  0  0  0  0
    4.2161   -1.8507    0.2943 H   0  0  0  0  0  0  0  0  0  0  0  0
    1.9645   -0.7192   -2.4661 H   0  0  0  0  0  0  0  0  0  0  0  0
    2.8291    0.7557   -2.9071 H   0  0  0  0  0  0  0  0  0  0  0  0
    1.9362    0.6845   -1.3822 H   0  0  0  0  0  0  0  0  0  0  0  0
    4.0649   -2.0324   -2.8442 H   0  0  0  0  0  0  0  0  0  0  0  0
    5.5348   -1.6937   -1.9166 H   0  0  0  0  0  0  0  0  0  0  0  0
    5.0137   -0.5870   -3.2000 H   0  0  0  0  0  0  0  0  0  0  0  0
    7.0559    2.2364   -0.9962 H   0  0  0  0  0  0  0  0  0  0  0  0
    6.2982    3.6105   -1.7949 H   0  0  0  0  0  0  0  0  0  0  0  0
    4.8089    3.9824    0.1468 H   0  0  0  0  0  0  0  0  0  0  0  0
    6.4791    3.9449    0.7034 H   0  0  0  0  0  0  0  0  0  0  0  0
    5.3828    1.4604   -2.6531 H   0  0  0  0  0  0  0  0  0  0  0  0
    4.1246    2.4142   -1.8768 H   0  0  0  0  0  0  0  0  0  0  0  0
    4.9552    2.5666    2.1873 H   0  0  0  0  0  0  0  0  0  0  0  0
    6.2274    1.5961    1.4553 H   0  0  0  0  0  0  0  0  0  0  0  0
    5.6791    0.1729   -0.5023 H   0  0  0  0  0  0  0  0  0  0  0  0
    4.1008    0.4183    1.3546 H   0  0  0  0  0  0  0  0  0  0  0  0
  1  9  1  0  0  0  0
  1 15  1  0  0  0  0
  2 20  1  0  0  0  0
  2 19  1  0  0  0  0
  3 23  1  0  0  0  0
  3 12  1  0  0  0  0
  4 25  1  0  0  0  0
  4 12  1  0  0  0  0
  5 27  1  0  0  0  0
  5  6  1  0  0  0  0
  6 30  1  0  0  0  0
  6  8  1  0  0  0  0
  7  5  1  0  0  0  0
  7 10  1  0  0  0  0
  8 34  1  0  0  0  0
  8 33  1  0  0  0  0
  9 13  2  0  0  0  0
 10 35  1  1  0  0  0
 10 11  1  0  0  0  0
 11  8  1  0  0  0  0
 11 36  1  1  0  0  0
 12 10  1  0  0  0  0
 12  2  1  0  0  0  0
 14 11  1  0  0  0  0
 14  9  1  0  0  0  0
 16  1  1  0  0  0  0
 17  1  1  0  0  0  0
 18  2  1  0  0  0  0
 21  3  1  0  0  0  0
 22  3  1  0  0  0  0
 24  4  1  0  0  0  0
 26  4  1  0  0  0  0
 28  5  1  0  0  0  0
 29  6  1  0  0  0  0
 31  7  1  0  0  0  0
 32  7  1  0  0  0  0
M  END
>  <HBA>
2

>  <HBD>
0

>  <TPSA>
26.3

>  <cid>
62334

>  <dipole>
1.89

>  <excitation_energy_1>
5.776

>  <excitation_energy_2>
6.782

>  <excitation_energy_3>
7.032

>  <excitation_energy_4>
7.098

>  <homo_energy>
-7.244

>  <homo_lumo_gap>
7.655

>  <logP>
3.154

>  <lumo_energy>
0.411

>  <melting_point>
23.16

>  <molecular_refractivity>
58.71

>  <oscillator_strength_1>
0.0011

>  <oscillator_strength_2>
0.0284

>  <oscillator_strength_3>
0.0185

>  <oscillator_strength_4>
0.0441

>  <open_babel_can_smiles>
CC(=O)O[C@@H]1CCCC[C@@H]1C(C)(C)C

>  <mulliken_charges>
36
1   -0.528122
2   -0.461581
3   -0.450527
4   -0.450374
5   -0.264687
6   -0.257791
7   -0.279339
8   -0.285652
9   0.615197
10   -0.095426
11   0.104742
12   0.10031
13   -0.473713
14   -0.472772
15   0.182094
16   0.182922
17   0.178508
18   0.13883
19   0.153381
20   0.137353
21   0.132618
22   0.140489
23   0.150603
24   0.139232
25   0.136776
26   0.14266
27   0.126106
28   0.131113
29   0.137709
30   0.13276
31   0.133257
32   0.149208
33   0.156881
34   0.134333
35   0.118384
36   0.164518

>  <lowdin_charges>
36
1   -0.467245
2   -0.44873
3   -0.451151
4   -0.446229
5   -0.27763
6   -0.281312
7   -0.283469
8   -0.288089
9   0.19836
10   -0.135454
11   -0.002221
12   0.014602
13   -0.268038
14   -0.200162
15   0.175666
16   0.178718
17   0.175051
18   0.149636
19   0.153034
20   0.146453
21   0.146104
22   0.148285
23   0.152774
24   0.148718
25   0.145727
26   0.147806
27   0.136034
28   0.144582
29   0.142901
30   0.146339
31   0.144062
32   0.148169
33   0.157222
34   0.147127
35   0.142203
36   0.160157

$$$$

