PCCDB-ID:  69655
public computational chemistry database (PCCDB) project, http://pccdb.org

 24 23  0  0  0  0  0  0  0  0999 V2000
    0.6928    0.5139   -3.1781 C   0  0  0  0  0  0  0  0  0  0  0  0
    7.4720   -0.4709   -2.1548 C   0  0  0  0  0  0  0  0  0  0  0  0
    7.6621    1.8700   -1.2004 C   0  0  0  0  0  0  0  0  0  0  0  0
    2.0005    0.1176   -2.4860 C   0  0  0  0  0  0  0  0  0  0  0  0
    2.9614    1.3062   -2.2905 C   0  0  0  0  0  0  0  0  0  0  0  0
    4.2335    0.9288   -1.5806 C   0  0  0  0  0  0  0  0  0  0  0  0
    5.4648    1.0368   -2.0870 C   0  0  0  0  0  0  0  0  0  0  0  0
    6.7433    0.6475   -1.3859 C   0  0  0  0  0  0  0  0  0  0  0  0
    0.0284   -0.3489   -3.3011 H   0  0  0  0  0  0  0  0  0  0  0  0
    0.8826    0.9329   -4.1740 H   0  0  0  0  0  0  0  0  0  0  0  0
    0.1513    1.2723   -2.5990 H   0  0  0  0  0  0  0  0  0  0  0  0
    8.3976   -0.7612   -1.6430 H   0  0  0  0  0  0  0  0  0  0  0  0
    7.7412   -0.1395   -3.1661 H   0  0  0  0  0  0  0  0  0  0  0  0
    6.8400   -1.3602   -2.2523 H   0  0  0  0  0  0  0  0  0  0  0  0
    8.5904    1.5902   -0.6876 H   0  0  0  0  0  0  0  0  0  0  0  0
    7.1676    2.6515   -0.6132 H   0  0  0  0  0  0  0  0  0  0  0  0
    7.9365    2.3041   -2.1706 H   0  0  0  0  0  0  0  0  0  0  0  0
    2.5108   -0.6603   -3.0692 H   0  0  0  0  0  0  0  0  0  0  0  0
    1.7776   -0.3310   -1.5077 H   0  0  0  0  0  0  0  0  0  0  0  0
    2.4363    2.0862   -1.7165 H   0  0  0  0  0  0  0  0  0  0  0  0
    3.1996    1.7493   -3.2671 H   0  0  0  0  0  0  0  0  0  0  0  0
    4.1134    0.5195   -0.5742 H   0  0  0  0  0  0  0  0  0  0  0  0
    5.5869    1.4433   -3.0951 H   0  0  0  0  0  0  0  0  0  0  0  0
    6.4819    0.2627   -0.3898 H   0  0  0  0  0  0  0  0  0  0  0  0
  1 11  1  0  0  0  0
  1  4  1  0  0  0  0
  2 12  1  0  0  0  0
  2  8  1  0  0  0  0
  3 15  1  0  0  0  0
  3 16  1  0  0  0  0
  4  5  1  0  0  0  0
  4 19  1  0  0  0  0
  5 20  1  0  0  0  0
  5  6  1  0  0  0  0
  6 22  1  0  0  0  0
  7  6  2  0  0  0  0
  7  8  1  0  0  0  0
  8  3  1  0  0  0  0
  8 24  1  0  0  0  0
  9  1  1  0  0  0  0
 10  1  1  0  0  0  0
 13  2  1  0  0  0  0
 14  2  1  0  0  0  0
 17  3  1  0  0  0  0
 18  4  1  0  0  0  0
 21  5  1  0  0  0  0
 23  7  1  0  0  0  0
M  END
>  <HBA>
0

>  <HBD>
0

>  <TPSA>
0.0

>  <cid>
69655

>  <dipole>
0.1

>  <excitation_energy_1>
6.112

>  <excitation_energy_2>
6.373

>  <excitation_energy_3>
6.414

>  <excitation_energy_4>
6.691

>  <homo_energy>
-6.397

>  <homo_lumo_gap>
7.26

>  <logP>
2.999

>  <lumo_energy>
0.863

>  <melting_point>
-18.1

>  <molecular_refractivity>
40.1

>  <oscillator_strength_1>
0.0335

>  <oscillator_strength_2>
0.0008

>  <oscillator_strength_3>
0.0144

>  <oscillator_strength_4>
0.2422

>  <open_babel_can_smiles>
CCC/C=C/C(C)C

>  <mulliken_charges>
24
1   -0.441643
2   -0.438978
3   -0.439526
4   -0.245819
5   -0.294495
6   -0.101171
7   -0.085757
8   -0.113685
9   0.142894
10   0.142001
11   0.1413
12   0.139265
13   0.13841
14   0.146886
15   0.13928
16   0.147273
17   0.138518
18   0.137853
19   0.131022
20   0.135869
21   0.133617
22   0.112831
23   0.109106
24   0.124949

>  <lowdin_charges>
24
1   -0.446059
2   -0.442479
3   -0.443923
4   -0.272114
5   -0.271697
6   -0.169974
7   -0.166192
8   -0.116207
9   0.150475
10   0.146022
11   0.147414
12   0.147469
13   0.144859
14   0.151547
15   0.147398
16   0.152528
17   0.145498
18   0.143914
19   0.138962
20   0.145854
21   0.143178
22   0.142645
23   0.141675
24   0.139208

$$$$

