PCCDB-ID:  22440
public computational chemistry database (PCCDB) project, http://pccdb.org

 26 25  0  0  0  0  0  0  0  0999 V2000
    3.9133    0.1484   -1.2073 C   0  0  0  0  0  0  0  0  0  0  0  0
    1.8309   -1.8586    5.8788 C   0  0  0  0  0  0  0  0  0  0  0  0
    4.3048    0.1291    0.2737 C   0  0  0  0  0  0  0  0  0  0  0  0
    1.6357   -1.3534    4.4371 C   0  0  0  0  0  0  0  0  0  0  0  0
    3.1514    0.5301    1.2013 C   0  0  0  0  0  0  0  0  0  0  0  0
    1.6395    0.1438    4.3616 C   0  0  0  0  0  0  0  0  0  0  0  0
    3.5542    0.4998    2.6904 C   0  0  0  0  0  0  0  0  0  0  0  0
    2.4559    0.9125    3.6288 C   0  0  0  0  0  0  0  0  0  0  0  0
    2.2432    2.3817    3.7349 N   0  0  0  0  0  0  0  0  0  0  0  0
    2.9858    3.1005    3.0618 O   0  0  0  0  0  0  0  0  0  0  0  0
    1.3573    2.8110    4.4738 O   0  0  0  0  0  0  0  0  0  0  0  0
    4.7565   -0.1369   -1.8464 H   0  0  0  0  0  0  0  0  0  0  0  0
    3.5837    1.1479   -1.5153 H   0  0  0  0  0  0  0  0  0  0  0  0
    3.0906   -0.5483   -1.4100 H   0  0  0  0  0  0  0  0  0  0  0  0
    1.7678   -2.9513    5.9145 H   0  0  0  0  0  0  0  0  0  0  0  0
    1.0635   -1.4539    6.5481 H   0  0  0  0  0  0  0  0  0  0  0  0
    2.8090   -1.5604    6.2710 H   0  0  0  0  0  0  0  0  0  0  0  0
    5.1511    0.8107    0.4375 H   0  0  0  0  0  0  0  0  0  0  0  0
    4.6622   -0.8745    0.5465 H   0  0  0  0  0  0  0  0  0  0  0  0
    0.6627   -1.7094    4.0674 H   0  0  0  0  0  0  0  0  0  0  0  0
    2.3948   -1.7903    3.7807 H   0  0  0  0  0  0  0  0  0  0  0  0
    2.2973   -0.1433    1.0434 H   0  0  0  0  0  0  0  0  0  0  0  0
    2.8108    1.5403    0.9464 H   0  0  0  0  0  0  0  0  0  0  0  0
    0.9058    0.6596    4.9763 H   0  0  0  0  0  0  0  0  0  0  0  0
    4.4163    1.1567    2.8416 H   0  0  0  0  0  0  0  0  0  0  0  0
    3.8739   -0.5134    2.9582 H   0  0  0  0  0  0  0  0  0  0  0  0
  1  3  1  0  0  0  0
  2 15  1  0  0  0  0
  2 17  1  0  0  0  0
  2 16  1  0  0  0  0
  3 18  1  0  0  0  0
  3 19  1  0  0  0  0
  3  5  1  0  0  0  0
  4  2  1  0  0  0  0
  5  7  1  0  0  0  0
  6  4  1  0  0  0  0
  6 24  1  0  0  0  0
  7 25  1  0  0  0  0
  7 26  1  0  0  0  0
  7  8  1  0  0  0  0
  8  9  1  0  0  0  0
  8  6  2  0  0  0  0
  9 11  2  0  0  0  0
 10  9  2  0  0  0  0
 12  1  1  0  0  0  0
 13  1  1  0  0  0  0
 14  1  1  0  0  0  0
 20  4  1  0  0  0  0
 21  4  1  0  0  0  0
 22  5  1  0  0  0  0
 23  5  1  0  0  0  0
M  END
>  <HBA>
0

>  <HBD>
0

>  <TPSA>
45.82

>  <cid>
22440

>  <dipole>
4.48

>  <excitation_energy_1>
3.707

>  <excitation_energy_2>
4.247

>  <excitation_energy_3>
4.666

>  <excitation_energy_4>
5.794

>  <homo_energy>
-7.459

>  <homo_lumo_gap>
5.304

>  <logP>
3.27

>  <lumo_energy>
-2.155

>  <melting_point>
16.08

>  <molecular_refractivity>
48.2

>  <oscillator_strength_1>
0.0001

>  <oscillator_strength_2>
0.0008

>  <oscillator_strength_3>
0.1803

>  <oscillator_strength_4>
0.0216

>  <open_babel_can_smiles>
CCCC/C(=C\CC)/N(=O)=O

>  <mulliken_charges>
26
1   -0.443015
2   -0.446308
3   -0.248246
4   -0.307854
5   -0.253101
6   -0.144126
7   -0.339322
8   0.277522
9   0.414338
10   -0.395002
11   -0.405366
12   0.144663
13   0.148343
14   0.141522
15   0.15564
16   0.157221
17   0.159602
18   0.140001
19   0.128064
20   0.165249
21   0.15469
22   0.130289
23   0.158974
24   0.18584
25   0.174461
26   0.145921

>  <lowdin_charges>
26
1   -0.444667
2   -0.438552
3   -0.271611
4   -0.270889
5   -0.274008
6   -0.122841
7   -0.281015
8   -0.004849
9   0.305795
10   -0.253291
11   -0.256981
12   0.151841
13   0.149521
14   0.147074
15   0.154963
16   0.155837
17   0.155371
18   0.144178
19   0.136688
20   0.162793
21   0.154042
22   0.139683
23   0.152372
24   0.185631
25   0.169603
26   0.153312

$$$$

