PCCDB-ID:  67500
public computational chemistry database (PCCDB) project, http://pccdb.org

 14 15  0  0  0  0  0  0  0  0999 V2000
    1.0360   -1.4245   -0.0011 C   0  0  0  0  0  0  0  0  0  0  0  0
   -1.6289    1.1122   -0.0004 C   0  0  0  0  0  0  0  0  0  0  0  0
    2.1641   -0.6111   -0.0022 C   0  0  0  0  0  0  0  0  0  0  0  0
   -2.5392    0.1058    0.0007 C   0  0  0  0  0  0  0  0  0  0  0  0
    0.9460    1.3336   -0.0025 C   0  0  0  0  0  0  0  0  0  0  0  0
   -0.2721    0.6296   -0.0018 C   0  0  0  0  0  0  0  0  0  0  0  0
   -0.2051   -0.7837   -0.0009 C   0  0  0  0  0  0  0  0  0  0  0  0
    2.1340    0.7378   -0.0028 N   0  0  0  0  0  0  0  0  0  0  0  0
   -1.8089   -1.4909    0.0013 S   0  0  0  0  0  0  0  0  0  0  0  0
    1.1288   -2.5061   -0.0009 H   0  0  0  0  0  0  0  0  0  0  0  0
   -1.8950    2.1637   -0.0014 H   0  0  0  0  0  0  0  0  0  0  0  0
    3.1549   -1.0609   -0.0027 H   0  0  0  0  0  0  0  0  0  0  0  0
   -3.6182    0.1887    0.0016 H   0  0  0  0  0  0  0  0  0  0  0  0
    0.9473    2.4235   -0.0033 H   0  0  0  0  0  0  0  0  0  0  0  0
  1 10  1  0  0  0  0
  1  7  1  0  0  0  0
  2  4  2  0  0  0  0
  3  1  2  0  0  0  0
  4  9  1  0  0  0  0
  4 13  1  0  0  0  0
  5  6  1  0  0  0  0
  6  7  2  0  0  0  0
  6  2  1  0  0  0  0
  7  9  1  0  0  0  0
  8  5  2  0  0  0  0
  8  3  1  0  0  0  0
 11  2  1  0  0  0  0
 12  3  1  0  0  0  0
 14  5  1  0  0  0  0
M  END
>  <HBA>
2

>  <HBD>
0

>  <TPSA>
41.13

>  <cid>
67500

>  <dipole>
2.11

>  <excitation_energy_1>
4.761

>  <excitation_energy_2>
4.782

>  <excitation_energy_3>
4.8

>  <excitation_energy_4>
5.049

>  <homo_energy>
-6.256

>  <homo_lumo_gap>
5.306

>  <logP>
2.296

>  <lumo_energy>
-0.95

>  <melting_point>
62.38

>  <molecular_refractivity>
39.62

>  <oscillator_strength_1>
0.0844

>  <oscillator_strength_2>
0.0005

>  <oscillator_strength_3>
0.0232

>  <oscillator_strength_4>
0.0037

>  <open_babel_can_smiles>
c1ncc2c(c1)scc2

>  <mulliken_charges>
14
1   -0.169305
2   -0.119087
3   0.037659
4   -0.351997
5   -0.00395
6   0.128098
7   -0.123582
8   -0.417219
9   0.248799
10   0.147547
11   0.153399
12   0.144627
13   0.181373
14   0.143637

>  <lowdin_charges>
14
1   -0.175643
2   -0.175517
3   -0.095032
4   -0.292272
5   -0.085255
6   -0.038031
7   -0.121987
8   -0.152621
9   0.297622
10   0.168471
11   0.171153
12   0.159215
13   0.183975
14   0.155923

$$$$

