PCCDB-ID:  14526
public computational chemistry database (PCCDB) project, http://pccdb.org

 17 18  0  0  0  0  0  0  0  0999 V2000
   -2.3820   -0.7569   -0.0085 C   0  0  0  0  0  0  0  0  0  0  0  0
   -2.4143    0.6473   -0.0246 C   0  0  0  0  0  0  0  0  0  0  0  0
   -1.1626   -1.4174    0.0058 C   0  0  0  0  0  0  0  0  0  0  0  0
   -1.2394    1.3882   -0.0263 C   0  0  0  0  0  0  0  0  0  0  0  0
    2.3480   -0.6993    0.0218 C   0  0  0  0  0  0  0  0  0  0  0  0
    0.0419   -0.6932    0.0064 C   0  0  0  0  0  0  0  0  0  0  0  0
   -0.0053    0.7221   -0.0097 C   0  0  0  0  0  0  0  0  0  0  0  0
    2.4451    0.7781    0.0046 C   0  0  0  0  0  0  0  0  0  0  0  0
    1.2497   -1.3794    0.0223 N   0  0  0  0  0  0  0  0  0  0  0  0
    1.2016    1.3980   -0.0066 N   0  0  0  0  0  0  0  0  0  0  0  0
    3.4942    1.4077    0.0016 O   0  0  0  0  0  0  0  0  0  0  0  0
   -3.3095   -1.3210   -0.0076 H   0  0  0  0  0  0  0  0  0  0  0  0
   -3.3687    1.1660   -0.0366 H   0  0  0  0  0  0  0  0  0  0  0  0
   -1.0979   -2.5008    0.0183 H   0  0  0  0  0  0  0  0  0  0  0  0
   -1.2667    2.4750   -0.0385 H   0  0  0  0  0  0  0  0  0  0  0  0
    3.2983   -1.2308    0.0347 H   0  0  0  0  0  0  0  0  0  0  0  0
    1.2162    2.4124   -0.0185 H   0  0  0  0  0  0  0  0  0  0  0  0
  1 12  1  0  0  0  0
  1  3  2  0  0  0  0
  2  1  1  0  0  0  0
  3  6  1  0  0  0  0
  3 14  1  0  0  0  0
  4  2  2  0  0  0  0
  4  7  1  0  0  0  0
  5  9  2  0  0  0  0
  5 16  1  0  0  0  0
  6  9  1  0  0  0  0
  7 10  1  0  0  0  0
  7  6  2  0  0  0  0
  8  5  1  0  0  0  0
 10  8  1  0  0  0  0
 11  8  2  0  0  0  0
 13  2  1  0  0  0  0
 15  4  1  0  0  0  0
 17 10  1  0  0  0  0
M  END
>  <HBA>
2

>  <HBD>
1

>  <TPSA>
45.75

>  <cid>
14526

>  <dipole>
3.98

>  <excitation_energy_1>
3.643

>  <excitation_energy_2>
3.861

>  <excitation_energy_3>
4.516

>  <excitation_energy_4>
4.964

>  <homo_energy>
-6.319

>  <homo_lumo_gap>
4.362

>  <logP>
0.923

>  <lumo_energy>
-1.957

>  <melting_point>
145.87

>  <molecular_refractivity>
42.36

>  <oscillator_strength_1>
0.0006

>  <oscillator_strength_2>
0.1038

>  <oscillator_strength_3>
0.1048

>  <oscillator_strength_4>
0.0012

>  <open_babel_can_smiles>
O=c1cnc2c([nH]1)cccc2

>  <mulliken_charges>
17
1   -0.139272
2   -0.130432
3   -0.152157
4   -0.186175
5   -0.017477
6   0.233747
7   0.393604
8   0.594538
9   -0.436005
10   -0.73378
11   -0.513343
12   0.140213
13   0.143047
14   0.154822
15   0.138498
16   0.170617
17   0.339555

>  <lowdin_charges>
17
1   -0.169308
2   -0.134544
3   -0.13326
4   -0.186329
5   -0.106423
6   0.005182
7   0.052796
8   0.134524
9   -0.106753
10   -0.197129
11   -0.292528
12   0.164944
13   0.16538
14   0.172752
15   0.160287
16   0.175087
17   0.295323

$$$$

