PCCDB-ID:  30247
public computational chemistry database (PCCDB) project, http://pccdb.org

 34 33  0  0  1  0  0  0  0  0999 V2000
    1.6572   -0.3027   -0.2819 C   0  0  0  0  0  0  0  0  0  0  0  0
    3.5228    1.4212   -0.2995 C   0  0  0  0  0  0  0  0  0  0  0  0
    7.7655    0.7904    2.6031 C   0  0  0  0  0  0  0  0  0  0  0  0
    8.2090   -1.6116    2.1444 C   0  0  0  0  0  0  0  0  0  0  0  0
    5.6555   -0.8832    6.5344 C   0  0  0  0  0  0  0  0  0  0  0  0
    3.9637   -0.9848    0.3310 C   0  0  0  0  0  0  0  0  0  0  0  0
    5.4419   -0.8646    0.6103 C   0  0  0  0  0  0  0  0  0  0  0  0
    5.2424   -1.7903    2.9636 C   0  0  0  0  0  0  0  0  0  0  0  0
    3.1222   -0.0135   -0.0576 C   0  0  0  0  0  0  0  0  0  0  0  0
    7.2898   -0.4242    2.3078 C   0  0  0  0  0  0  0  0  0  0  0  0
    5.0329   -0.8788    5.1576 C   0  0  0  0  0  0  0  0  0  0  0  0
    5.7949   -0.6370    2.1131 C   0  0  1  0  0  0  0  0  0  0  0  0
    4.0775   -0.2141    4.8204 O   0  0  0  0  0  0  0  0  0  0  0  0
    5.6941   -1.7273    4.3347 O   0  0  0  0  0  0  0  0  0  0  0  0
    1.0284    0.3104    0.3788 H   0  0  0  0  0  0  0  0  0  0  0  0
    1.4150   -1.3544   -0.0996 H   0  0  0  0  0  0  0  0  0  0  0  0
    1.3580   -0.0574   -1.3109 H   0  0  0  0  0  0  0  0  0  0  0  0
    3.2654    1.7295   -1.3225 H   0  0  0  0  0  0  0  0  0  0  0  0
    4.5894    1.6041   -0.1502 H   0  0  0  0  0  0  0  0  0  0  0  0
    2.9719    2.0921    0.3739 H   0  0  0  0  0  0  0  0  0  0  0  0
    8.8309    0.9751    2.7199 H   0  0  0  0  0  0  0  0  0  0  0  0
    7.1074    1.6457    2.7376 H   0  0  0  0  0  0  0  0  0  0  0  0
    9.2583   -1.3106    2.2202 H   0  0  0  0  0  0  0  0  0  0  0  0
    8.0718   -2.1081    1.1750 H   0  0  0  0  0  0  0  0  0  0  0  0
    8.0196   -2.3654    2.9192 H   0  0  0  0  0  0  0  0  0  0  0  0
    5.0660   -0.2542    7.2022 H   0  0  0  0  0  0  0  0  0  0  0  0
    6.6802   -0.5013    6.4754 H   0  0  0  0  0  0  0  0  0  0  0  0
    5.7076   -1.9037    6.9267 H   0  0  0  0  0  0  0  0  0  0  0  0
    3.5384   -1.9784    0.4790 H   0  0  0  0  0  0  0  0  0  0  0  0
    5.8831   -0.0383    0.0437 H   0  0  0  0  0  0  0  0  0  0  0  0
    5.9427   -1.7778    0.2599 H   0  0  0  0  0  0  0  0  0  0  0  0
    5.6025   -2.7593    2.6061 H   0  0  0  0  0  0  0  0  0  0  0  0
    4.1506   -1.7808    2.9465 H   0  0  0  0  0  0  0  0  0  0  0  0
    5.2780    0.2743    2.4323 H   0  0  0  0  0  0  0  0  0  0  0  0
  1 16  1  0  0  0  0
  1  9  1  0  0  0  0
  1 15  1  0  0  0  0
  2 19  1  0  0  0  0
  2  9  1  0  0  0  0
  2 20  1  0  0  0  0
  3 21  1  0  0  0  0
  3 22  1  0  0  0  0
  4 23  1  0  0  0  0
  4 10  1  0  0  0  0
  4 25  1  0  0  0  0
  5 28  1  0  0  0  0
  5 26  1  0  0  0  0
  6 29  1  0  0  0  0
  6  7  1  0  0  0  0
  7 12  1  0  0  0  0
  8 14  1  0  0  0  0
  9  6  2  0  0  0  0
 10  3  2  0  0  0  0
 11  5  1  0  0  0  0
 12 10  1  0  0  0  0
 12 34  1  1  0  0  0
 12  8  1  0  0  0  0
 13 11  2  0  0  0  0
 14 11  1  0  0  0  0
 17  1  1  0  0  0  0
 18  2  1  0  0  0  0
 24  4  1  0  0  0  0
 27  5  1  0  0  0  0
 30  7  1  0  0  0  0
 31  7  1  0  0  0  0
 32  8  1  0  0  0  0
 33  8  1  0  0  0  0
M  END
>  <HBA>
2

>  <HBD>
0

>  <TPSA>
26.3

>  <cid>
30247

>  <dipole>
1.41

>  <excitation_energy_1>
5.615

>  <excitation_energy_2>
5.768

>  <excitation_energy_3>
5.84

>  <excitation_energy_4>
5.875

>  <homo_energy>
-6.172

>  <homo_lumo_gap>
6.585

>  <logP>
3.098

>  <lumo_energy>
0.414

>  <melting_point>
-22.07

>  <molecular_refractivity>
60.13

>  <oscillator_strength_1>
0.0509

>  <oscillator_strength_2>
0.0005

>  <oscillator_strength_3>
0.0463

>  <oscillator_strength_4>
0.0281

>  <open_babel_can_smiles>
CC(=O)OC[C@@H](C(=C)C)CC=C(C)C

>  <mulliken_charges>
34
1   -0.506836
2   -0.514982
3   -0.412379
4   -0.530003
5   -0.524546
6   -0.173124
7   -0.319887
8   -0.053664
9   0.197155
10   0.255172
11   0.605438
12   -0.184926
13   -0.469797
14   -0.456107
15   0.154898
16   0.150956
17   0.14899
18   0.151295
19   0.155675
20   0.159202
21   0.130537
22   0.136597
23   0.153448
24   0.15328
25   0.167328
26   0.180331
27   0.185428
28   0.178572
29   0.112969
30   0.152608
31   0.134595
32   0.144935
33   0.176239
34   0.160602

>  <lowdin_charges>
34
1   -0.438644
2   -0.444639
3   -0.363747
4   -0.445364
5   -0.464549
6   -0.200125
7   -0.276522
8   -0.134518
9   -0.000479
10   0.009518
11   0.201431
12   -0.137463
13   -0.266706
14   -0.197488
15   0.157031
16   0.153114
17   0.151837
18   0.154394
19   0.155116
20   0.160834
21   0.151352
22   0.155769
23   0.156832
24   0.153263
25   0.16225
26   0.175866
27   0.178931
28   0.175074
29   0.144282
30   0.156633
31   0.145478
32   0.149028
33   0.161927
34   0.160283

$$$$

