PCCDB-ID:  16668
public computational chemistry database (PCCDB) project, http://pccdb.org

 22 23  0  0  0  0  0  0  0  0999 V2000
    1.7735   -0.7885   -0.2926 C   0  0  0  0  0  0  0  0  0  0  0  0
    7.2389    1.4585    2.1417 C   0  0  0  0  0  0  0  0  0  0  0  0
    6.7835    0.1369    1.9250 C   0  0  0  0  0  0  0  0  0  0  0  0
    3.0836    3.1963    0.3180 C   0  0  0  0  0  0  0  0  0  0  0  0
    6.4436    2.5297    1.8000 C   0  0  0  0  0  0  0  0  0  0  0  0
    4.3207    3.4279    0.8670 C   0  0  0  0  0  0  0  0  0  0  0  0
    5.5416   -0.0897    1.3718 C   0  0  0  0  0  0  0  0  0  0  0  0
    2.6130    1.8777    0.0982 C   0  0  0  0  0  0  0  0  0  0  0  0
    5.1585    2.3359    1.2270 C   0  0  0  0  0  0  0  0  0  0  0  0
    4.7032    0.9963    1.0118 C   0  0  0  0  0  0  0  0  0  0  0  0
    3.4051    0.7978    0.4365 C   0  0  0  0  0  0  0  0  0  0  0  0
    3.0464   -0.5082    0.2651 O   0  0  0  0  0  0  0  0  0  0  0  0
    1.6965   -1.8766   -0.3328 H   0  0  0  0  0  0  0  0  0  0  0  0
    1.6800   -0.3790   -1.3071 H   0  0  0  0  0  0  0  0  0  0  0  0
    0.9641   -0.3890    0.3326 H   0  0  0  0  0  0  0  0  0  0  0  0
    8.2196    1.6258    2.5791 H   0  0  0  0  0  0  0  0  0  0  0  0
    7.4171   -0.7027    2.1980 H   0  0  0  0  0  0  0  0  0  0  0  0
    2.4430    4.0305    0.0442 H   0  0  0  0  0  0  0  0  0  0  0  0
    6.7907    3.5473    1.9636 H   0  0  0  0  0  0  0  0  0  0  0  0
    4.6745    4.4418    1.0340 H   0  0  0  0  0  0  0  0  0  0  0  0
    5.1873   -1.1004    1.2028 H   0  0  0  0  0  0  0  0  0  0  0  0
    1.6306    1.7344   -0.3361 H   0  0  0  0  0  0  0  0  0  0  0  0
  1 12  1  0  0  0  0
  1 15  1  0  0  0  0
  2 16  1  0  0  0  0
  3  2  1  0  0  0  0
  3 17  1  0  0  0  0
  4  6  1  0  0  0  0
  5 19  1  0  0  0  0
  5  2  2  0  0  0  0
  6 20  1  0  0  0  0
  6  9  2  0  0  0  0
  7  3  2  0  0  0  0
  8  4  2  0  0  0  0
  8 11  1  0  0  0  0
  9  5  1  0  0  0  0
 10  9  1  0  0  0  0
 10  7  1  0  0  0  0
 11 10  2  0  0  0  0
 12 11  1  0  0  0  0
 13  1  1  0  0  0  0
 14  1  1  0  0  0  0
 18  4  1  0  0  0  0
 21  7  1  0  0  0  0
 22  8  1  0  0  0  0
M  END
>  <HBA>
1

>  <HBD>
0

>  <TPSA>
9.23

>  <cid>
16668

>  <dipole>
1.45

>  <excitation_energy_1>
4.154

>  <excitation_energy_2>
4.366

>  <excitation_energy_3>
5.083

>  <excitation_energy_4>
5.363

>  <homo_energy>
-5.377

>  <homo_lumo_gap>
4.664

>  <logP>
2.848

>  <lumo_energy>
-0.713

>  <melting_point>
53.76

>  <molecular_refractivity>
50.44

>  <oscillator_strength_1>
0.0879

>  <oscillator_strength_2>
0.0233

>  <oscillator_strength_3>
0.0008

>  <oscillator_strength_4>
0.0019

>  <open_babel_can_smiles>
COc1cccc2c1cccc2

>  <mulliken_charges>
22
1   -0.214115
2   -0.128856
3   -0.139266
4   -0.141595
5   -0.201712
6   -0.191627
7   -0.169632
8   -0.210577
9   0.136863
10   0.057736
11   0.325127
12   -0.508164
13   0.169496
14   0.153685
15   0.153711
16   0.127357
17   0.127135
18   0.12772
19   0.127375
20   0.123713
21   0.146717
22   0.128908

>  <lowdin_charges>
22
1   -0.274404
2   -0.155694
3   -0.163118
4   -0.150923
5   -0.158477
6   -0.178716
7   -0.149923
8   -0.224493
9   0.006026
10   -0.022741
11   0.102121
12   -0.195923
13   0.160605
14   0.145273
15   0.147371
16   0.156641
17   0.158095
18   0.158643
19   0.155718
20   0.155462
21   0.167444
22   0.161012

$$$$

