PCCDB-ID:  58495
public computational chemistry database (PCCDB) project, http://pccdb.org

 34 33  0  0  0  0  0  0  0  0999 V2000
    0.8475    6.0511    4.1815 C   0  0  0  0  0  0  0  0  0  0  0  0
   -0.3605    4.5221    5.8040 C   0  0  0  0  0  0  0  0  0  0  0  0
    6.5407    1.8509    2.7818 C   0  0  0  0  0  0  0  0  0  0  0  0
    5.6455    3.0378    3.1739 C   0  0  0  0  0  0  0  0  0  0  0  0
    6.1317    1.1495    1.4788 C   0  0  0  0  0  0  0  0  0  0  0  0
    4.1985    2.6576    3.5242 C   0  0  0  0  0  0  0  0  0  0  0  0
    7.0941    0.0131    1.0687 C   0  0  0  0  0  0  0  0  0  0  0  0
    3.3808    3.8664    3.9913 C   0  0  0  0  0  0  0  0  0  0  0  0
    0.9843    4.8885    5.1677 C   0  0  0  0  0  0  0  0  0  0  0  0
    8.4996    0.4963    0.7497 C   0  0  0  0  0  0  0  0  0  0  0  0
    9.5760    0.2527    1.3772 N   0  0  0  0  0  0  0  0  0  0  0  0
    8.5915    1.3181   -0.3388 O   0  0  0  0  0  0  0  0  0  0  0  0
    1.6589    3.3533    4.3800 S   0  0  0  0  0  0  0  0  0  0  0  0
    0.4638    6.9408    4.6981 H   0  0  0  0  0  0  0  0  0  0  0  0
    0.1516    5.7957    3.3748 H   0  0  0  0  0  0  0  0  0  0  0  0
    1.8069    6.3210    3.7289 H   0  0  0  0  0  0  0  0  0  0  0  0
   -0.7897    5.3988    6.3036 H   0  0  0  0  0  0  0  0  0  0  0  0
   -0.2498    3.7241    6.5448 H   0  0  0  0  0  0  0  0  0  0  0  0
   -1.0759    4.1866    5.0439 H   0  0  0  0  0  0  0  0  0  0  0  0
    6.5442    1.1141    3.5988 H   0  0  0  0  0  0  0  0  0  0  0  0
    7.5748    2.2058    2.6868 H   0  0  0  0  0  0  0  0  0  0  0  0
    5.6435    3.7764    2.3589 H   0  0  0  0  0  0  0  0  0  0  0  0
    6.0989    3.5420    4.0384 H   0  0  0  0  0  0  0  0  0  0  0  0
    6.0696    1.8942    0.6712 H   0  0  0  0  0  0  0  0  0  0  0  0
    5.1262    0.7231    1.5737 H   0  0  0  0  0  0  0  0  0  0  0  0
    4.1989    1.8947    4.3141 H   0  0  0  0  0  0  0  0  0  0  0  0
    3.7038    2.2065    2.6546 H   0  0  0  0  0  0  0  0  0  0  0  0
    6.6904   -0.5077    0.1877 H   0  0  0  0  0  0  0  0  0  0  0  0
    7.1502   -0.7295    1.8721 H   0  0  0  0  0  0  0  0  0  0  0  0
    3.3727    4.6369    3.2120 H   0  0  0  0  0  0  0  0  0  0  0  0
    3.8309    4.3022    4.8920 H   0  0  0  0  0  0  0  0  0  0  0  0
    1.6887    5.1657    5.9624 H   0  0  0  0  0  0  0  0  0  0  0  0
    9.3794   -0.3543    2.1740 H   0  0  0  0  0  0  0  0  0  0  0  0
    7.7264    1.3779   -0.7712 H   0  0  0  0  0  0  0  0  0  0  0  0
  1 14  1  0  0  0  0
  1  9  1  0  0  0  0
  2 17  1  0  0  0  0
  2 18  1  0  0  0  0
  3  4  1  0  0  0  0
  3 20  1  0  0  0  0
  4  6  1  0  0  0  0
  4 23  1  0  0  0  0
  5 25  1  0  0  0  0
  5  3  1  0  0  0  0
  6  8  1  0  0  0  0
  6 26  1  0  0  0  0
  7  5  1  0  0  0  0
  7 29  1  0  0  0  0
  8 13  1  0  0  0  0
  8 31  1  0  0  0  0
  9  2  1  0  0  0  0
  9 32  1  0  0  0  0
 10  7  1  0  0  0  0
 10 11  2  0  0  0  0
 11 33  1  0  0  0  0
 12 10  1  0  0  0  0
 13  9  1  0  0  0  0
 15  1  1  0  0  0  0
 16  1  1  0  0  0  0
 19  2  1  0  0  0  0
 21  3  1  0  0  0  0
 22  4  1  0  0  0  0
 24  5  1  0  0  0  0
 27  6  1  0  0  0  0
 28  7  1  0  0  0  0
 30  8  1  0  0  0  0
 34 12  1  0  0  0  0
M  END
>  <HBA>
3

>  <HBD>
1

>  <TPSA>
68.39

>  <cid>
58495

>  <dipole>
3.56

>  <excitation_energy_1>
5.117

>  <excitation_energy_2>
5.279

>  <excitation_energy_3>
5.311

>  <excitation_energy_4>
5.76

>  <homo_energy>
-5.902

>  <homo_lumo_gap>
6.591

>  <logP>
3.264

>  <lumo_energy>
0.688

>  <melting_point>
55.39

>  <molecular_refractivity>
60.68

>  <oscillator_strength_1>
0.0008

>  <oscillator_strength_2>
0.0034

>  <oscillator_strength_3>
0.0097

>  <oscillator_strength_4>
0.0115

>  <open_babel_can_smiles>
CC(SCCCCCCC(=N)O)C

>  <mulliken_charges>
34
1   -0.435096
2   -0.451093
3   -0.262489
4   -0.26074
5   -0.267327
6   -0.270428
7   -0.364455
8   -0.408313
9   -0.223162
10   0.483793
11   -0.582001
12   -0.574182
13   0.073594
14   0.14479
15   0.158427
16   0.148893
17   0.148922
18   0.163347
19   0.159237
20   0.131884
21   0.159475
22   0.133027
23   0.137092
24   0.125767
25   0.152069
26   0.15051
27   0.151069
28   0.153246
29   0.153038
30   0.165213
31   0.160833
32   0.156738
33   0.281764
34   0.406558

>  <lowdin_charges>
34
1   -0.448861
2   -0.447218
3   -0.278924
4   -0.275683
5   -0.276897
6   -0.280592
7   -0.312969
8   -0.372676
9   -0.212054
10   0.12468
11   -0.397586
12   -0.368271
13   0.067363
14   0.150959
15   0.157526
16   0.151146
17   0.154413
18   0.161071
19   0.15754
20   0.141344
21   0.154628
22   0.140888
23   0.146282
24   0.136383
25   0.149991
26   0.150361
27   0.149104
28   0.156972
29   0.158546
30   0.151761
31   0.151881
32   0.149376
33   0.2563
34   0.353217

$$$$

