PCCDB-ID:  7747
public computational chemistry database (PCCDB) project, http://pccdb.org

 12 11  0  0  0  0  0  0  0  0999 V2000
    2.2688    1.4641   -0.8205 C   0  0  0  0  0  0  0  0  0  0  0  0
    2.0162   -0.5664    2.2492 C   0  0  0  0  0  0  0  0  0  0  0  0
    2.9035   -0.9073    3.3591 C   0  0  0  0  0  0  0  0  0  0  0  0
    2.6622    0.3771    1.2313 C   0  0  0  0  0  0  0  0  0  0  0  0
    3.5804   -1.2001    4.2536 N   0  0  0  0  0  0  0  0  0  0  0  0
    3.7606    0.8666    1.3178 O   0  0  0  0  0  0  0  0  0  0  0  0
    1.7998    0.5813    0.2183 O   0  0  0  0  0  0  0  0  0  0  0  0
    1.4577    1.5129   -1.5466 H   0  0  0  0  0  0  0  0  0  0  0  0
    3.1758    1.0627   -1.2787 H   0  0  0  0  0  0  0  0  0  0  0  0
    2.4817    2.4541   -0.4099 H   0  0  0  0  0  0  0  0  0  0  0  0
    1.1038   -0.0945    2.6340 H   0  0  0  0  0  0  0  0  0  0  0  0
    1.6942   -1.4788    1.7334 H   0  0  0  0  0  0  0  0  0  0  0  0
  1 10  1  0  0  0  0
  1  7  1  0  0  0  0
  2 11  1  0  0  0  0
  2  3  1  0  0  0  0
  3  5  3  0  0  0  0
  4  6  2  0  0  0  0
  4  2  1  0  0  0  0
  7  4  1  0  0  0  0
  8  1  1  0  0  0  0
  9  1  1  0  0  0  0
 12  2  1  0  0  0  0
M  END
>  <HBA>
3

>  <HBD>
0

>  <TPSA>
50.09

>  <cid>
7747

>  <dipole>
5.35

>  <excitation_energy_1>
5.868

>  <excitation_energy_2>
7.209

>  <excitation_energy_3>
7.552

>  <excitation_energy_4>
7.626

>  <homo_energy>
-8.109

>  <homo_lumo_gap>
7.777

>  <logP>
0.073

>  <lumo_energy>
-0.332

>  <melting_point>
21.11

>  <molecular_refractivity>
22.38

>  <oscillator_strength_1>
0.0008

>  <oscillator_strength_2>
0.0066

>  <oscillator_strength_3>
0.0006

>  <oscillator_strength_4>
0.0194

>  <open_babel_can_smiles>
COC(=O)CC#N

>  <mulliken_charges>
12
1   -0.223537
2   -0.444065
3   0.387609
4   0.632862
5   -0.456819
6   -0.441655
7   -0.447628
8   0.173849
9   0.180224
10   0.179682
11   0.230264
12   0.229213

>  <lowdin_charges>
12
1   -0.276273
2   -0.298951
3   -0.007378
4   0.195557
5   -0.1033
6   -0.229817
7   -0.188037
8   0.166688
9   0.165395
10   0.164026
11   0.206371
12   0.205717

$$$$

