PCCDB-ID:  12094
public computational chemistry database (PCCDB) project, http://pccdb.org

 23 23  0  0  0  0  0  0  0  0999 V2000
    1.7849    1.8402    3.0165 C   0  0  0  0  0  0  0  0  0  0  0  0
    5.7127   -1.4813    4.4276 C   0  0  0  0  0  0  0  0  0  0  0  0
    6.2866    0.8675    4.5193 C   0  0  0  0  0  0  0  0  0  0  0  0
    6.3427   -1.6962    5.6500 C   0  0  0  0  0  0  0  0  0  0  0  0
    6.9226    0.6706    5.7420 C   0  0  0  0  0  0  0  0  0  0  0  0
    4.9780    0.0108    2.5282 C   0  0  0  0  0  0  0  0  0  0  0  0
    3.2710    1.6548    2.8277 C   0  0  0  0  0  0  0  0  0  0  0  0
    5.6776   -0.2047    3.8500 C   0  0  0  0  0  0  0  0  0  0  0  0
    6.9407   -0.6115    6.2877 C   0  0  0  0  0  0  0  0  0  0  0  0
    7.6144   -0.8283    7.5795 N   0  0  0  0  0  0  0  0  0  0  0  0
    4.0916    2.5455    2.7838 O   0  0  0  0  0  0  0  0  0  0  0  0
    7.6129   -1.9698    8.0400 O   0  0  0  0  0  0  0  0  0  0  0  0
    8.1381    0.1443    8.1214 O   0  0  0  0  0  0  0  0  0  0  0  0
    3.5766    0.3374    2.7136 O   0  0  0  0  0  0  0  0  0  0  0  0
    1.5519    2.9051    3.0371 H   0  0  0  0  0  0  0  0  0  0  0  0
    1.4697    1.3734    3.9558 H   0  0  0  0  0  0  0  0  0  0  0  0
    1.2348    1.3499    2.2073 H   0  0  0  0  0  0  0  0  0  0  0  0
    5.2436   -2.3168    3.9146 H   0  0  0  0  0  0  0  0  0  0  0  0
    6.2481    1.8591    4.0805 H   0  0  0  0  0  0  0  0  0  0  0  0
    6.3824   -2.6758    6.1098 H   0  0  0  0  0  0  0  0  0  0  0  0
    7.4014    1.4844    6.2722 H   0  0  0  0  0  0  0  0  0  0  0  0
    4.9658   -0.9091    1.9399 H   0  0  0  0  0  0  0  0  0  0  0  0
    5.4527    0.8094    1.9552 H   0  0  0  0  0  0  0  0  0  0  0  0
  1 15  1  0  0  0  0
  1 16  1  0  0  0  0
  2  4  1  0  0  0  0
  3  5  2  0  0  0  0
  4 20  1  0  0  0  0
  4  9  2  0  0  0  0
  5 21  1  0  0  0  0
  5  9  1  0  0  0  0
  6 14  1  0  0  0  0
  6  8  1  0  0  0  0
  7  1  1  0  0  0  0
  8  2  2  0  0  0  0
  8  3  1  0  0  0  0
  9 10  1  0  0  0  0
 10 12  2  0  0  0  0
 10 13  2  0  0  0  0
 11  7  2  0  0  0  0
 14  7  1  0  0  0  0
 17  1  1  0  0  0  0
 18  2  1  0  0  0  0
 19  3  1  0  0  0  0
 22  6  1  0  0  0  0
 23  6  1  0  0  0  0
M  END
>  <HBA>
2

>  <HBD>
0

>  <TPSA>
72.12

>  <cid>
12094

>  <dipole>
4.94

>  <excitation_energy_1>
3.724

>  <excitation_energy_2>
4.239

>  <excitation_energy_3>
4.243

>  <excitation_energy_4>
4.501

>  <homo_energy>
-7.57

>  <homo_lumo_gap>
5.064

>  <logP>
2.181

>  <lumo_energy>
-2.506

>  <melting_point>
58.06

>  <molecular_refractivity>
51.13

>  <oscillator_strength_1>
0.0

>  <oscillator_strength_2>
0.0031

>  <oscillator_strength_3>
0.0128

>  <oscillator_strength_4>
0.2242

>  <open_babel_can_smiles>
CC(=O)OCc1ccc(cc1)N(=O)=O

>  <mulliken_charges>
23
1   -0.523165
2   -0.18369
3   -0.188552
4   -0.1483
5   -0.149814
6   -0.140742
7   0.605476
8   0.161802
9   0.274916
10   0.381111
11   -0.466074
12   -0.393836
13   -0.392149
14   -0.444629
15   0.186877
16   0.188352
17   0.1848
18   0.148294
19   0.179726
20   0.185029
21   0.186865
22   0.163549
23   0.184156

>  <lowdin_charges>
23
1   -0.463158
2   -0.15095
3   -0.14648
4   -0.137573
5   -0.13744
6   -0.130114
7   0.208996
8   -0.00101
9   0.005157
10   0.309014
11   -0.267317
12   -0.245051
13   -0.244588
14   -0.199373
15   0.176833
16   0.181942
17   0.180396
18   0.168041
19   0.181215
20   0.18848
21   0.190705
22   0.161604
23   0.170671

$$$$

