PCCDB-ID:  22825
public computational chemistry database (PCCDB) project, http://pccdb.org

 28 28  0  0  0  0  0  0  0  0999 V2000
    2.3585    1.3429    0.7564 C   0  0  0  0  0  0  0  0  0  0  0  0
    1.8852   -1.4021    3.2817 C   0  0  0  0  0  0  0  0  0  0  0  0
    2.4701   -0.0763    0.1818 C   0  0  0  0  0  0  0  0  0  0  0  0
    2.1822   -1.9104    1.8646 C   0  0  0  0  0  0  0  0  0  0  0  0
    5.0420   -2.0475    2.1544 C   0  0  0  0  0  0  0  0  0  0  0  0
    6.4104   -2.1241    2.2772 C   0  0  0  0  0  0  0  0  0  0  0  0
    5.3186   -0.2939    0.4958 C   0  0  0  0  0  0  0  0  0  0  0  0
    4.4479   -1.1254    1.2397 C   0  0  0  0  0  0  0  0  0  0  0  0
    7.2784   -1.3082    1.5293 C   0  0  0  0  0  0  0  0  0  0  0  0
    6.7036   -0.3821    0.6288 C   0  0  0  0  0  0  0  0  0  0  0  0
    8.6877   -1.3572    1.6361 N   0  0  0  0  0  0  0  0  0  0  0  0
    3.0806   -1.0589    1.0794 N   0  0  0  0  0  0  0  0  0  0  0  0
    7.5339    0.4126   -0.0909 O   0  0  0  0  0  0  0  0  0  0  0  0
    9.1181   -2.1863    2.4436 O   0  0  0  0  0  0  0  0  0  0  0  0
    1.9246    2.0180    0.0095 H   0  0  0  0  0  0  0  0  0  0  0  0
    3.3378    1.7364    1.0454 H   0  0  0  0  0  0  0  0  0  0  0  0
    1.7159    1.3600    1.6423 H   0  0  0  0  0  0  0  0  0  0  0  0
    1.2331   -2.1106    3.8059 H   0  0  0  0  0  0  0  0  0  0  0  0
    1.3798   -0.4312    3.2576 H   0  0  0  0  0  0  0  0  0  0  0  0
    2.8045   -1.2890    3.8646 H   0  0  0  0  0  0  0  0  0  0  0  0
    3.0282   -0.0610   -0.7616 H   0  0  0  0  0  0  0  0  0  0  0  0
    1.4712   -0.4463   -0.0693 H   0  0  0  0  0  0  0  0  0  0  0  0
    1.2469   -1.9950    1.3021 H   0  0  0  0  0  0  0  0  0  0  0  0
    2.5984   -2.9223    1.9062 H   0  0  0  0  0  0  0  0  0  0  0  0
    4.4237   -2.6923    2.7649 H   0  0  0  0  0  0  0  0  0  0  0  0
    6.8728   -2.8228    2.9673 H   0  0  0  0  0  0  0  0  0  0  0  0
    4.9231    0.4373   -0.2005 H   0  0  0  0  0  0  0  0  0  0  0  0
    7.0006    0.9885   -0.6616 H   0  0  0  0  0  0  0  0  0  0  0  0
  1 16  1  0  0  0  0
  1 17  1  0  0  0  0
  2 18  1  0  0  0  0
  2 20  1  0  0  0  0
  3  1  1  0  0  0  0
  3 12  1  0  0  0  0
  4 24  1  0  0  0  0
  4  2  1  0  0  0  0
  5  6  1  0  0  0  0
  5 25  1  0  0  0  0
  6 26  1  0  0  0  0
  7 10  2  0  0  0  0
  7  8  1  0  0  0  0
  8  5  2  0  0  0  0
  9 11  1  0  0  0  0
  9  6  2  0  0  0  0
 10  9  1  0  0  0  0
 11 14  1  0  0  0  0
 12  8  1  0  0  0  0
 12  4  1  0  0  0  0
 13 10  1  0  0  0  0
 15  1  1  0  0  0  0
 19  2  1  0  0  0  0
 21  3  1  0  0  0  0
 22  3  1  0  0  0  0
 23  4  1  0  0  0  0
 27  7  1  0  0  0  0
 28 13  1  0  0  0  0
M  RAD  2  11   2  14   2
M  END
>  <HBA>
4

>  <HBD>
1

>  <TPSA>
52.9

>  <cid>
22825

>  <dipole>
8.73

>  <excitation_energy_1>
1.577

>  <excitation_energy_2>
3.675

>  <excitation_energy_3>
3.851

>  <excitation_energy_4>
4.169

>  <homo_energy>
-5.031

>  <homo_lumo_gap>
3.23

>  <logP>
2.636

>  <lumo_energy>
-1.801

>  <melting_point>
80.4

>  <molecular_refractivity>
57.74

>  <oscillator_strength_1>
0.0003

>  <oscillator_strength_2>
0.4727

>  <oscillator_strength_3>
0.0159

>  <oscillator_strength_4>
0.0002

>  <open_babel_can_smiles>
CCN(c1ccc(c(c1)O)[N][O])CC

>  <mulliken_charges>
28
1   -0.448849
2   -0.448005
3   -0.146705
4   -0.150235
5   -0.202903
6   -0.146648
7   -0.294423
8   0.398982
9   0.188005
10   0.365211
11   -0.079669
12   -0.485978
13   -0.61489
14   -0.33011
15   0.150292
16   0.165303
17   0.158154
18   0.151618
19   0.154731
20   0.16866
21   0.158666
22   0.151891
23   0.150454
24   0.164846
25   0.134108
26   0.161606
27   0.116422
28   0.409465

>  <lowdin_charges>
28
1   -0.458262
2   -0.457825
3   -0.194436
4   -0.194374
5   -0.225002
6   -0.117008
7   -0.279266
8   0.091855
9   -0.080956
10   0.130761
11   0.036335
12   -0.091605
13   -0.344097
14   -0.228418
15   0.157223
16   0.158612
17   0.155222
18   0.158203
19   0.152787
20   0.160856
21   0.150277
22   0.152684
23   0.152105
24   0.15355
25   0.164767
26   0.1786
27   0.156901
28   0.36051

$$$$

