PCCDB-ID:  66015
public computational chemistry database (PCCDB) project, http://pccdb.org

 20 20  0  0  0  0  0  0  0  0999 V2000
    0.9363   -0.0262    0.2245 C   0  0  0  0  0  0  0  0  0  0  0  0
    4.4627    1.3049   -0.3785 C   0  0  0  0  0  0  0  0  0  0  0  0
    3.0825    1.2581   -0.1845 C   0  0  0  0  0  0  0  0  0  0  0  0
    5.2061    0.1249   -0.4150 C   0  0  0  0  0  0  0  0  0  0  0  0
    3.1868   -1.1445   -0.0702 C   0  0  0  0  0  0  0  0  0  0  0  0
    5.3715   -2.4012   -0.3570 C   0  0  0  0  0  0  0  0  0  0  0  0
    2.4271    0.0302   -0.0218 C   0  0  0  0  0  0  0  0  0  0  0  0
    4.5724   -1.1139   -0.2681 C   0  0  0  0  0  0  0  0  0  0  0  0
    4.8648   -3.4238    0.5661 N   0  0  0  0  0  0  0  0  0  0  0  0
    0.4231    0.8338   -0.2193 H   0  0  0  0  0  0  0  0  0  0  0  0
    0.7092   -0.0211    1.2993 H   0  0  0  0  0  0  0  0  0  0  0  0
    0.4956   -0.9373   -0.1940 H   0  0  0  0  0  0  0  0  0  0  0  0
    4.9612    2.2636   -0.4980 H   0  0  0  0  0  0  0  0  0  0  0  0
    2.5081    2.1817   -0.1564 H   0  0  0  0  0  0  0  0  0  0  0  0
    6.2838    0.1654   -0.5603 H   0  0  0  0  0  0  0  0  0  0  0  0
    2.7045   -2.1101    0.0560 H   0  0  0  0  0  0  0  0  0  0  0  0
    6.4410   -2.1596   -0.2219 H   0  0  0  0  0  0  0  0  0  0  0  0
    5.2806   -2.8150   -1.3716 H   0  0  0  0  0  0  0  0  0  0  0  0
    5.0206   -3.1224    1.5272 H   0  0  0  0  0  0  0  0  0  0  0  0
    5.3909   -4.2873    0.4436 H   0  0  0  0  0  0  0  0  0  0  0  0
  1 11  1  0  0  0  0
  2  3  1  0  0  0  0
  3 14  1  0  0  0  0
  3  7  2  0  0  0  0
  4  2  2  0  0  0  0
  4  8  1  0  0  0  0
  5  7  1  0  0  0  0
  5 16  1  0  0  0  0
  6  8  1  0  0  0  0
  6 17  1  0  0  0  0
  6  9  1  0  0  0  0
  7  1  1  0  0  0  0
  8  5  2  0  0  0  0
  9 19  1  0  0  0  0
 10  1  1  0  0  0  0
 12  1  1  0  0  0  0
 13  2  1  0  0  0  0
 15  4  1  0  0  0  0
 18  6  1  0  0  0  0
 20  9  1  0  0  0  0
M  END
>  <HBA>
1

>  <HBD>
1

>  <TPSA>
26.02

>  <cid>
66015

>  <dipole>
1.2

>  <excitation_energy_1>
5.152

>  <excitation_energy_2>
5.409

>  <excitation_energy_3>
5.743

>  <excitation_energy_4>
5.783

>  <homo_energy>
-6.172

>  <homo_lumo_gap>
6.368

>  <logP>
2.154

>  <lumo_energy>
0.196

>  <melting_point>
66.24

>  <molecular_refractivity>
39.08

>  <oscillator_strength_1>
0.0007

>  <oscillator_strength_2>
0.0291

>  <oscillator_strength_3>
0.0035

>  <oscillator_strength_4>
0.0452

>  <open_babel_can_smiles>
NCc1cccc(c1)C

>  <mulliken_charges>
20
1   -0.527248
2   -0.126143
3   -0.180489
4   -0.19163
5   -0.223257
6   -0.207518
7   0.178061
8   0.147188
9   -0.714825
10   0.152673
11   0.162828
12   0.157765
13   0.123509
14   0.116916
15   0.115697
16   0.142639
17   0.12061
18   0.156895
19   0.298206
20   0.298123

>  <lowdin_charges>
20
1   -0.442206
2   -0.156496
3   -0.173254
4   -0.173619
5   -0.170894
6   -0.199249
7   0.002673
8   -0.01382
9   -0.553003
10   0.156469
11   0.158816
12   0.158831
13   0.154827
14   0.152334
15   0.149189
16   0.165521
17   0.121976
18   0.151324
19   0.254255
20   0.256325

$$$$

