PCCDB-ID:  50871
public computational chemistry database (PCCDB) project, http://pccdb.org

 25 25  0  0  0  0  0  0  0  0999 V2000
   -0.7812    1.5118   -0.2676 C   0  0  0  0  0  0  0  0  0  0  0  0
    1.5371    0.7823   -0.1829 C   0  0  0  0  0  0  0  0  0  0  0  0
   -1.1937    0.2180    0.0008 C   0  0  0  0  0  0  0  0  0  0  0  0
    1.1231   -0.5182    0.0884 C   0  0  0  0  0  0  0  0  0  0  0  0
    0.6056   -3.2919    2.0169 C   0  0  0  0  0  0  0  0  0  0  0  0
    0.0760   -3.1767    0.5868 C   0  0  0  0  0  0  0  0  0  0  0  0
    0.5869    1.7851   -0.3590 C   0  0  0  0  0  0  0  0  0  0  0  0
   -0.2482   -0.8096    0.1786 C   0  0  0  0  0  0  0  0  0  0  0  0
    1.8785   -4.6149    3.5276 N   0  0  0  0  0  0  0  0  0  0  0  0
    1.3384   -4.5529    2.1508 N   0  0  0  0  0  0  0  0  0  0  0  0
    1.0289    3.1491   -0.6405 N   0  0  0  0  0  0  0  0  0  0  0  0
    0.1632    4.0136   -0.7922 O   0  0  0  0  0  0  0  0  0  0  0  0
    2.2420    3.3588   -0.7109 O   0  0  0  0  0  0  0  0  0  0  0  0
   -0.7727   -2.0362    0.4233 O   0  0  0  0  0  0  0  0  0  0  0  0
   -1.4951    2.3138   -0.4091 H   0  0  0  0  0  0  0  0  0  0  0  0
    2.5891    1.0297   -0.2546 H   0  0  0  0  0  0  0  0  0  0  0  0
   -2.2468   -0.0315    0.0755 H   0  0  0  0  0  0  0  0  0  0  0  0
    1.8717   -1.2870    0.2361 H   0  0  0  0  0  0  0  0  0  0  0  0
   -0.2580   -3.3210    2.6935 H   0  0  0  0  0  0  0  0  0  0  0  0
    1.2062   -2.4123    2.2987 H   0  0  0  0  0  0  0  0  0  0  0  0
   -0.5564   -4.0376    0.3608 H   0  0  0  0  0  0  0  0  0  0  0  0
    0.8891   -3.1561   -0.1507 H   0  0  0  0  0  0  0  0  0  0  0  0
    2.2922   -5.5497    3.5803 H   0  0  0  0  0  0  0  0  0  0  0  0
    1.0417   -4.7052    4.1109 H   0  0  0  0  0  0  0  0  0  0  0  0
    2.1839   -4.4572    1.5835 H   0  0  0  0  0  0  0  0  0  0  0  0
  1  3  1  0  0  0  0
  2  4  2  0  0  0  0
  3 17  1  0  0  0  0
  3  8  2  0  0  0  0
  4  8  1  0  0  0  0
  4 18  1  0  0  0  0
  5 10  1  0  0  0  0
  5 20  1  0  0  0  0
  5 19  1  0  0  0  0
  6  5  1  0  0  0  0
  7  1  2  0  0  0  0
  7  2  1  0  0  0  0
  8 14  1  0  0  0  0
  9 23  1  0  0  0  0
  9 24  1  0  0  0  0
 10  9  1  0  0  0  0
 11  7  1  0  0  0  0
 12 11  2  0  0  0  0
 13 11  2  0  0  0  0
 14  6  1  0  0  0  0
 15  1  1  0  0  0  0
 16  2  1  0  0  0  0
 21  6  1  0  0  0  0
 22  6  1  0  0  0  0
 25 10  1  0  0  0  0
M  END
>  <HBA>
3

>  <HBD>
2

>  <TPSA>
93.1

>  <cid>
50871

>  <dipole>
6.49

>  <excitation_energy_1>
3.257

>  <excitation_energy_2>
3.772

>  <excitation_energy_3>
4.081

>  <excitation_energy_4>
4.322

>  <homo_energy>
-5.859

>  <homo_lumo_gap>
3.712

>  <logP>
2.051

>  <lumo_energy>
-2.147

>  <melting_point>
128.98

>  <molecular_refractivity>
52.07

>  <oscillator_strength_1>
0.0025

>  <oscillator_strength_2>
0.0

>  <oscillator_strength_3>
0.3258

>  <oscillator_strength_4>
0.0004

>  <open_babel_can_smiles>
NNCCOc1ccc(cc1)N(=O)=O

>  <mulliken_charges>
25
1   -0.149676
2   -0.158743
3   -0.187529
4   -0.196449
5   -0.143323
6   -0.053133
7   0.273291
8   0.400192
9   -0.590551
10   -0.474074
11   0.373086
12   -0.402965
13   -0.405144
14   -0.515672
15   0.183854
16   0.184232
17   0.156219
18   0.146374
19   0.157184
20   0.150011
21   0.179654
22   0.145239
23   0.310131
24   0.308884
25   0.308907

>  <lowdin_charges>
25
1   -0.128663
2   -0.12359
3   -0.174509
4   -0.208876
5   -0.225397
6   -0.134143
7   -0.018629
8   0.124074
9   -0.490135
10   -0.320778
11   0.308317
12   -0.256882
13   -0.255993
14   -0.181389
15   0.189783
16   0.186941
17   0.174427
18   0.16989
19   0.151176
20   0.137997
21   0.16781
22   0.142262
23   0.25652
24   0.256078
25   0.253708

$$$$

