PCCDB-ID:  18272
public computational chemistry database (PCCDB) project, http://pccdb.org

 17 18  0  0  0  0  0  0  0  0999 V2000
    0.9639    0.0896    0.0944 C   0  0  0  0  0  0  0  0  0  0  0  0
    4.5359   -1.3239    0.1015 C   0  0  0  0  0  0  0  0  0  0  0  0
    3.1324   -1.2379    0.0989 C   0  0  0  0  0  0  0  0  0  0  0  0
    5.3280   -0.1816    0.1039 C   0  0  0  0  0  0  0  0  0  0  0  0
    3.7161    3.3088    0.1051 C   0  0  0  0  0  0  0  0  0  0  0  0
    2.4669   -0.0144    0.0988 C   0  0  0  0  0  0  0  0  0  0  0  0
    4.6759    1.0548    0.1035 C   0  0  0  0  0  0  0  0  0  0  0  0
    3.2641    1.1502    0.1010 C   0  0  0  0  0  0  0  0  0  0  0  0
    2.7574    2.4445    0.1018 N   0  0  0  0  0  0  0  0  0  0  0  0
    5.3624    2.6690    0.1075 S   0  0  0  0  0  0  0  0  0  0  0  0
    0.5020   -0.9024    0.1011 H   0  0  0  0  0  0  0  0  0  0  0  0
    0.6078    0.6313   -0.7894 H   0  0  0  0  0  0  0  0  0  0  0  0
    0.6033    0.6458    0.9672 H   0  0  0  0  0  0  0  0  0  0  0  0
    5.0093   -2.3019    0.1024 H   0  0  0  0  0  0  0  0  0  0  0  0
    2.5471   -2.1541    0.0975 H   0  0  0  0  0  0  0  0  0  0  0  0
    6.4113   -0.2504    0.1063 H   0  0  0  0  0  0  0  0  0  0  0  0
    3.5608    4.3824    0.1059 H   0  0  0  0  0  0  0  0  0  0  0  0
  1  6  1  0  0  0  0
  1 11  1  0  0  0  0
  1 13  1  0  0  0  0
  2 14  1  0  0  0  0
  2  4  2  0  0  0  0
  3  2  1  0  0  0  0
  4 16  1  0  0  0  0
  5 17  1  0  0  0  0
  5 10  1  0  0  0  0
  6  3  2  0  0  0  0
  6  8  1  0  0  0  0
  7  4  1  0  0  0  0
  7 10  1  0  0  0  0
  8  9  1  0  0  0  0
  8  7  2  0  0  0  0
  9  5  2  0  0  0  0
 12  1  1  0  0  0  0
 15  3  1  0  0  0  0
M  END
>  <HBA>
2

>  <HBD>
0

>  <TPSA>
41.13

>  <cid>
18272

>  <dipole>
0.8

>  <excitation_energy_1>
4.574

>  <excitation_energy_2>
5.003

>  <excitation_energy_3>
5.204

>  <excitation_energy_4>
5.247

>  <homo_energy>
-6.245

>  <homo_lumo_gap>
5.282

>  <logP>
2.605

>  <lumo_energy>
-0.963

>  <melting_point>
67.22

>  <molecular_refractivity>
44.59

>  <oscillator_strength_1>
0.0558

>  <oscillator_strength_2>
0.0939

>  <oscillator_strength_3>
0.0002

>  <oscillator_strength_4>
0.0011

>  <open_babel_can_smiles>
Cc1cccc2c1ncs2

>  <mulliken_charges>
17
1   -0.515501
2   -0.110532
3   -0.210549
4   -0.180169
5   -0.117758
6   0.168628
7   -0.124663
8   0.204994
9   -0.412849
10   0.217361
11   0.148402
12   0.173022
13   0.173215
14   0.133461
15   0.126713
16   0.143062
17   0.183164

>  <lowdin_charges>
17
1   -0.436908
2   -0.152074
3   -0.173034
4   -0.164416
5   -0.211444
6   0.00662
7   -0.147735
8   0.005316
9   -0.149872
10   0.267516
11   0.154337
12   0.169062
13   0.169234
14   0.16091
15   0.158203
16   0.163598
17   0.180688

$$$$

