PCCDB-ID:  14593
public computational chemistry database (PCCDB) project, http://pccdb.org

 26 27  0  0  0  0  0  0  0  0999 V2000
   -0.7583    1.0955   -0.0475 C   0  0  0  0  0  0  0  0  0  0  0  0
    1.3746   -0.0067   -0.0165 C   0  0  0  0  0  0  0  0  0  0  0  0
    2.5503    2.6732   -0.7651 C   0  0  0  0  0  0  0  0  0  0  0  0
    0.7620    3.6368    0.5400 C   0  0  0  0  0  0  0  0  0  0  0  0
   -1.4013   -0.1346   -0.0175 C   0  0  0  0  0  0  0  0  0  0  0  0
    0.7425   -1.2422    0.0207 C   0  0  0  0  0  0  0  0  0  0  0  0
    3.1940    3.9033   -0.8080 C   0  0  0  0  0  0  0  0  0  0  0  0
    1.3889    4.8756    0.5007 C   0  0  0  0  0  0  0  0  0  0  0  0
    0.6448    1.1955   -0.0510 C   0  0  0  0  0  0  0  0  0  0  0  0
    1.3228    2.5082   -0.0919 C   0  0  0  0  0  0  0  0  0  0  0  0
   -0.6615   -1.3305    0.0193 C   0  0  0  0  0  0  0  0  0  0  0  0
    2.6032    4.9961   -0.1743 C   0  0  0  0  0  0  0  0  0  0  0  0
   -1.2996   -2.5627    0.1106 N   0  0  0  0  0  0  0  0  0  0  0  0
    3.2723    6.2985   -0.2186 N   0  0  0  0  0  0  0  0  0  0  0  0
    4.3528    6.3701   -0.8075 O   0  0  0  0  0  0  0  0  0  0  0  0
    2.7169    7.2493    0.3353 O   0  0  0  0  0  0  0  0  0  0  0  0
   -1.3605    1.9979   -0.1038 H   0  0  0  0  0  0  0  0  0  0  0  0
    2.4601    0.0252    0.0108 H   0  0  0  0  0  0  0  0  0  0  0  0
    2.9914    1.8297   -1.2866 H   0  0  0  0  0  0  0  0  0  0  0  0
   -0.1660    3.5335    1.0935 H   0  0  0  0  0  0  0  0  0  0  0  0
   -2.4881   -0.1767   -0.0258 H   0  0  0  0  0  0  0  0  0  0  0  0
    1.3364   -2.1521    0.0669 H   0  0  0  0  0  0  0  0  0  0  0  0
    4.1331    4.0341   -1.3314 H   0  0  0  0  0  0  0  0  0  0  0  0
    0.9636    5.7424    0.9913 H   0  0  0  0  0  0  0  0  0  0  0  0
   -2.2561   -2.5894   -0.2183 H   0  0  0  0  0  0  0  0  0  0  0  0
   -0.7640   -3.3615   -0.2039 H   0  0  0  0  0  0  0  0  0  0  0  0
  1  5  1  0  0  0  0
  2 18  1  0  0  0  0
  2  6  2  0  0  0  0
  3 10  1  0  0  0  0
  4 20  1  0  0  0  0
  5 11  2  0  0  0  0
  6 22  1  0  0  0  0
  7  3  2  0  0  0  0
  7 12  1  0  0  0  0
  8  4  1  0  0  0  0
  8 24  1  0  0  0  0
  9  1  2  0  0  0  0
  9  2  1  0  0  0  0
 10  9  1  0  0  0  0
 10  4  2  0  0  0  0
 11  6  1  0  0  0  0
 11 13  1  0  0  0  0
 12  8  2  0  0  0  0
 14 12  1  0  0  0  0
 14 16  2  0  0  0  0
 15 14  2  0  0  0  0
 17  1  1  0  0  0  0
 19  3  1  0  0  0  0
 21  5  1  0  0  0  0
 23  7  1  0  0  0  0
 25 13  1  0  0  0  0
 26 13  1  0  0  0  0
M  END
>  <HBA>
1

>  <HBD>
1

>  <TPSA>
71.84

>  <cid>
14593

>  <dipole>
8.02

>  <excitation_energy_1>
3.04

>  <excitation_energy_2>
3.725

>  <excitation_energy_3>
4.169

>  <excitation_energy_4>
4.225

>  <homo_energy>
-5.701

>  <homo_lumo_gap>
3.467

>  <logP>
3.948

>  <lumo_energy>
-2.234

>  <melting_point>
130.54

>  <molecular_refractivity>
65.1

>  <oscillator_strength_1>
0.3759

>  <oscillator_strength_2>
0.0011

>  <oscillator_strength_3>
0.0042

>  <oscillator_strength_4>
0.0038

>  <open_babel_can_smiles>
Nc1ccc(cc1)c1ccc(cc1)N(=O)=O

>  <mulliken_charges>
26
1   -0.180018
2   -0.180481
3   -0.190041
4   -0.190286
5   -0.178168
6   -0.178495
7   -0.155283
8   -0.155148
9   0.083208
10   0.114599
11   0.327859
12   0.278082
13   -0.789596
14   0.373121
15   -0.402049
16   -0.402
17   0.136252
18   0.136409
19   0.144109
20   0.145266
21   0.124635
22   0.125186
23   0.17964
24   0.179869
25   0.326659
26   0.326672

>  <lowdin_charges>
26
1   -0.144899
2   -0.141491
3   -0.161417
4   -0.159188
5   -0.193925
6   -0.196963
7   -0.135388
8   -0.136774
9   -0.035678
10   0.025064
11   0.068316
12   -0.006443
13   -0.477388
14   0.308365
15   -0.2544
16   -0.255651
17   0.16193
18   0.159387
19   0.166618
20   0.165961
21   0.154322
22   0.157027
23   0.185813
24   0.186989
25   0.278962
26   0.280851

$$$$

