PCCDB-ID:  60167
public computational chemistry database (PCCDB) project, http://pccdb.org

 17 16  0  0  0  0  0  0  0  0999 V2000
    1.2301   -0.1989    2.2406 C   0  0  0  0  0  0  0  0  0  0  0  0
    5.2849   -0.2429   -0.8318 C   0  0  0  0  0  0  0  0  0  0  0  0
    1.5193    0.5548    0.9669 C   0  0  0  0  0  0  0  0  0  0  0  0
    4.0549    0.3676    1.1253 C   0  0  0  0  0  0  0  0  0  0  0  0
    5.1477    0.0368    0.5873 N   0  0  0  0  0  0  0  0  0  0  0  0
    2.8211    0.6625    0.5126 N   0  0  0  0  0  0  0  0  0  0  0  0
    0.6381    1.0584    0.2683 O   0  0  0  0  0  0  0  0  0  0  0  0
    3.9577    0.4975    2.4764 O   0  0  0  0  0  0  0  0  0  0  0  0
    2.9471    1.3682   -0.6975 O   0  0  0  0  0  0  0  0  0  0  0  0
    1.8754   -1.0702    2.3678 H   0  0  0  0  0  0  0  0  0  0  0  0
    0.1836   -0.5064    2.2006 H   0  0  0  0  0  0  0  0  0  0  0  0
    1.3791    0.4536    3.1059 H   0  0  0  0  0  0  0  0  0  0  0  0
    6.0735   -0.9924   -0.9534 H   0  0  0  0  0  0  0  0  0  0  0  0
    5.5964    0.6602   -1.3691 H   0  0  0  0  0  0  0  0  0  0  0  0
    4.3660   -0.6106   -1.3021 H   0  0  0  0  0  0  0  0  0  0  0  0
    4.8185    0.1875    2.8132 H   0  0  0  0  0  0  0  0  0  0  0  0
    1.9926    1.5747   -0.8640 H   0  0  0  0  0  0  0  0  0  0  0  0
  1 10  1  0  0  0  0
  1 12  1  0  0  0  0
  2  5  1  0  0  0  0
  3  1  1  0  0  0  0
  4  8  1  0  0  0  0
  5  4  2  0  0  0  0
  6  3  1  0  0  0  0
  6  4  1  0  0  0  0
  7  3  2  0  0  0  0
  8 16  1  0  0  0  0
  9  6  1  0  0  0  0
 11  1  1  0  0  0  0
 13  2  1  0  0  0  0
 14  2  1  0  0  0  0
 15  2  1  0  0  0  0
 17  9  1  0  0  0  0
M  END
>  <HBA>
5

>  <HBD>
2

>  <TPSA>
69.64

>  <cid>
60167

>  <dipole>
2.24

>  <excitation_energy_1>
5.112

>  <excitation_energy_2>
5.447

>  <excitation_energy_3>
5.85

>  <excitation_energy_4>
5.89

>  <homo_energy>
-6.455

>  <homo_lumo_gap>
5.872

>  <logP>
-0.046

>  <lumo_energy>
-0.582

>  <melting_point>
111.6

>  <molecular_refractivity>
28.56

>  <oscillator_strength_1>
0.1253

>  <oscillator_strength_2>
0.0993

>  <oscillator_strength_3>
0.0063

>  <oscillator_strength_4>
0.0078

>  <open_babel_can_smiles>
C/N=C(\N(C(=O)C)O)/O

>  <mulliken_charges>
17
1   -0.515275
2   -0.3148
3   0.592658
4   0.669095
5   -0.440927
6   -0.256304
7   -0.522813
8   -0.595931
9   -0.518674
10   0.176027
11   0.187795
12   0.201292
13   0.154068
14   0.170974
15   0.155899
16   0.421361
17   0.435555

>  <lowdin_charges>
17
1   -0.460638
2   -0.353859
3   0.173482
4   0.155407
5   -0.228002
6   0.020971
7   -0.305321
8   -0.366773
9   -0.371763
10   0.173964
11   0.179507
12   0.188407
13   0.152918
14   0.162704
15   0.148559
16   0.368482
17   0.361955

$$$$

