PCCDB-ID:  70609
public computational chemistry database (PCCDB) project, http://pccdb.org

 17 16  0  0  0  0  0  0  0  0999 V2000
    1.4518   -0.7373   -0.3755 C   0  0  0  0  0  0  0  0  0  0  0  0
    5.7682    1.3804    0.1892 C   0  0  0  0  0  0  0  0  0  0  0  0
    2.9254   -0.4708   -0.6953 C   0  0  0  0  0  0  0  0  0  0  0  0
    3.7364   -0.0773    0.5564 C   0  0  0  0  0  0  0  0  0  0  0  0
    6.0664   -1.0109    0.0364 C   0  0  0  0  0  0  0  0  0  0  0  0
    5.1955    0.1690    0.2634 C   0  0  0  0  0  0  0  0  0  0  0  0
    5.6897   -2.1661    0.0957 O   0  0  0  0  0  0  0  0  0  0  0  0
    0.8947   -1.0106   -1.2787 H   0  0  0  0  0  0  0  0  0  0  0  0
    0.9703    0.1482    0.0581 H   0  0  0  0  0  0  0  0  0  0  0  0
    1.3453   -1.5589    0.3429 H   0  0  0  0  0  0  0  0  0  0  0  0
    5.2092    2.2973    0.3557 H   0  0  0  0  0  0  0  0  0  0  0  0
    6.8261    1.4913   -0.0409 H   0  0  0  0  0  0  0  0  0  0  0  0
    3.0057    0.3313   -1.4411 H   0  0  0  0  0  0  0  0  0  0  0  0
    3.3751   -1.3650   -1.1416 H   0  0  0  0  0  0  0  0  0  0  0  0
    3.6585   -0.8886    1.2912 H   0  0  0  0  0  0  0  0  0  0  0  0
    3.2980    0.8200    1.0107 H   0  0  0  0  0  0  0  0  0  0  0  0
    7.1288   -0.7689   -0.1909 H   0  0  0  0  0  0  0  0  0  0  0  0
  1  9  1  0  0  0  0
  1 10  1  0  0  0  0
  2  6  2  0  0  0  0
  2 11  1  0  0  0  0
  3  1  1  0  0  0  0
  3  4  1  0  0  0  0
  4 16  1  0  0  0  0
  4 15  1  0  0  0  0
  5  7  2  0  0  0  0
  5  6  1  0  0  0  0
  6  4  1  0  0  0  0
  8  1  1  0  0  0  0
 12  2  1  0  0  0  0
 13  3  1  0  0  0  0
 14  3  1  0  0  0  0
 17  5  1  0  0  0  0
M  END
>  <HBA>
1

>  <HBD>
0

>  <TPSA>
17.07

>  <cid>
70609

>  <dipole>
2.72

>  <excitation_energy_1>
3.682

>  <excitation_energy_2>
5.685

>  <excitation_energy_3>
6.297

>  <excitation_energy_4>
6.486

>  <homo_energy>
-6.931

>  <homo_lumo_gap>
5.331

>  <logP>
1.542

>  <lumo_energy>
-1.6

>  <melting_point>
-12.02

>  <molecular_refractivity>
30.68

>  <oscillator_strength_1>
0.0003

>  <oscillator_strength_2>
0.2393

>  <oscillator_strength_3>
0.0025

>  <oscillator_strength_4>
0.0012

>  <open_babel_can_smiles>
CCCC(=C)C=O

>  <mulliken_charges>
17
1   -0.442468
2   -0.388654
3   -0.254234
4   -0.323925
5   0.201843
6   0.169288
7   -0.405769
8   0.146141
9   0.139585
10   0.1488
11   0.159479
12   0.157537
13   0.13243
14   0.160484
15   0.160632
16   0.135981
17   0.10285

>  <lowdin_charges>
17
1   -0.445533
2   -0.297636
3   -0.271889
4   -0.272769
5   0.043604
6   -0.030462
7   -0.22685
8   0.15254
9   0.145859
10   0.150631
11   0.167765
12   0.16329
13   0.140545
14   0.154667
15   0.161479
16   0.148011
17   0.116748

$$$$

