PCCDB-ID:  7877
public computational chemistry database (PCCDB) project, http://pccdb.org

 22 21  0  0  0  0  0  0  0  0999 V2000
    3.3776   -4.4541    0.2416 C   0  0  0  0  0  0  0  0  0  0  0  0
   -0.1721   -0.7355    2.8745 C   0  0  0  0  0  0  0  0  0  0  0  0
   -0.7760   -2.2637    0.9873 C   0  0  0  0  0  0  0  0  0  0  0  0
    0.5089   -3.1389    3.0066 C   0  0  0  0  0  0  0  0  0  0  0  0
    2.3027   -3.6735    0.4051 C   0  0  0  0  0  0  0  0  0  0  0  0
    2.3673   -2.2267    0.7570 C   0  0  0  0  0  0  0  0  0  0  0  0
    0.3019   -1.9482    2.0466 C   0  0  0  0  0  0  0  0  0  0  0  0
    1.5495   -1.5062    1.4029 N   0  0  0  0  0  0  0  0  0  0  0  0
    3.5115   -1.5921    0.3297 O   0  0  0  0  0  0  0  0  0  0  0  0
    3.2794   -5.5067   -0.0072 H   0  0  0  0  0  0  0  0  0  0  0  0
    4.3906   -4.0857    0.3859 H   0  0  0  0  0  0  0  0  0  0  0  0
   -1.1145   -0.9523    3.3915 H   0  0  0  0  0  0  0  0  0  0  0  0
   -0.3193    0.1326    2.2240 H   0  0  0  0  0  0  0  0  0  0  0  0
    0.5831   -0.4687    3.6211 H   0  0  0  0  0  0  0  0  0  0  0  0
   -1.7444   -2.4365    1.4708 H   0  0  0  0  0  0  0  0  0  0  0  0
   -0.5390   -3.1545    0.3963 H   0  0  0  0  0  0  0  0  0  0  0  0
   -0.8846   -1.4201    0.2974 H   0  0  0  0  0  0  0  0  0  0  0  0
   -0.4146   -3.3404    3.5618 H   0  0  0  0  0  0  0  0  0  0  0  0
    1.2966   -2.9069    3.7318 H   0  0  0  0  0  0  0  0  0  0  0  0
    0.7916   -4.0578    2.4850 H   0  0  0  0  0  0  0  0  0  0  0  0
    1.3130   -4.1031    0.2947 H   0  0  0  0  0  0  0  0  0  0  0  0
    3.9081   -2.1242   -0.3777 H   0  0  0  0  0  0  0  0  0  0  0  0
  1 11  1  0  0  0  0
  1  5  2  0  0  0  0
  2 12  1  0  0  0  0
  2 14  1  0  0  0  0
  3 15  1  0  0  0  0
  3  7  1  0  0  0  0
  4 18  1  0  0  0  0
  4 19  1  0  0  0  0
  5  6  1  0  0  0  0
  6  8  2  0  0  0  0
  7  2  1  0  0  0  0
  7  4  1  0  0  0  0
  8  7  1  0  0  0  0
  9  6  1  0  0  0  0
 10  1  1  0  0  0  0
 13  2  1  0  0  0  0
 16  3  1  0  0  0  0
 17  3  1  0  0  0  0
 20  4  1  0  0  0  0
 21  5  1  0  0  0  0
 22  9  1  0  0  0  0
M  END
>  <HBA>
2

>  <HBD>
1

>  <TPSA>
29.1

>  <cid>
7877

>  <dipole>
3.38

>  <excitation_energy_1>
4.026

>  <excitation_energy_2>
5.001

>  <excitation_energy_3>
5.857

>  <excitation_energy_4>
6.102

>  <homo_energy>
-6.357

>  <homo_lumo_gap>
5.265

>  <logP>
1.478

>  <lumo_energy>
-1.091

>  <melting_point>
11.77

>  <molecular_refractivity>
38.33

>  <oscillator_strength_1>
0.001

>  <oscillator_strength_2>
0.1752

>  <oscillator_strength_3>
0.0119

>  <oscillator_strength_4>
0.0271

>  <open_babel_can_smiles>
C=C/C(=N\C(C)(C)C)/O

>  <mulliken_charges>
22
1   -0.353874
2   -0.423306
3   -0.451229
4   -0.449751
5   -0.123004
6   0.454426
7   0.191899
8   -0.421372
9   -0.585889
10   0.161067
11   0.159539
12   0.125346
13   0.148582
14   0.147593
15   0.142728
16   0.135374
17   0.156649
18   0.140597
19   0.153496
20   0.136215
21   0.158261
22   0.396652

>  <lowdin_charges>
22
1   -0.313985
2   -0.441935
3   -0.448636
4   -0.452729
5   -0.18278
6   0.128008
7   0.073079
8   -0.190058
9   -0.377728
10   0.168356
11   0.163425
12   0.140044
13   0.154387
14   0.154273
15   0.151255
16   0.14231
17   0.157439
18   0.150913
19   0.156306
20   0.147536
21   0.169013
22   0.351506

$$$$

