PCCDB-ID:  61660
public computational chemistry database (PCCDB) project, http://pccdb.org

 18 18  0  0  0  0  0  0  0  0999 V2000
    1.6176    0.4363   -0.0788 C   0  0  0  0  0  0  0  0  0  0  0  0
    6.1867   -3.6192    3.6309 C   0  0  0  0  0  0  0  0  0  0  0  0
    6.2253   -3.4168    2.2125 C   0  0  0  0  0  0  0  0  0  0  0  0
    5.5166   -2.5514    4.1431 C   0  0  0  0  0  0  0  0  0  0  0  0
    5.2846   -1.4833    0.7283 C   0  0  0  0  0  0  0  0  0  0  0  0
    3.0802    0.1780    0.2233 C   0  0  0  0  0  0  0  0  0  0  0  0
    5.5803   -2.2379    1.9684 C   0  0  0  0  0  0  0  0  0  0  0  0
    3.8736    1.0574    0.4722 O   0  0  0  0  0  0  0  0  0  0  0  0
    5.1408   -1.6997    3.1474 O   0  0  0  0  0  0  0  0  0  0  0  0
    3.5068   -1.5799    0.2052 S   0  0  0  0  0  0  0  0  0  0  0  0
    1.1380   -0.4056   -0.5846 H   0  0  0  0  0  0  0  0  0  0  0  0
    1.5364    1.3387   -0.6912 H   0  0  0  0  0  0  0  0  0  0  0  0
    1.0950    0.6202    0.8674 H   0  0  0  0  0  0  0  0  0  0  0  0
    6.6030   -4.4471    4.1876 H   0  0  0  0  0  0  0  0  0  0  0  0
    6.6756   -4.0623    1.4707 H   0  0  0  0  0  0  0  0  0  0  0  0
    5.2409   -2.2520    5.1427 H   0  0  0  0  0  0  0  0  0  0  0  0
    5.8919   -1.8677   -0.0933 H   0  0  0  0  0  0  0  0  0  0  0  0
    5.4731   -0.4098    0.8418 H   0  0  0  0  0  0  0  0  0  0  0  0
  1  6  1  0  0  0  0
  1 13  1  0  0  0  0
  2  4  2  0  0  0  0
  2 14  1  0  0  0  0
  3  2  1  0  0  0  0
  4 16  1  0  0  0  0
  5 18  1  0  0  0  0
  5  7  1  0  0  0  0
  6  8  2  0  0  0  0
  7  3  2  0  0  0  0
  7  9  1  0  0  0  0
  9  4  1  0  0  0  0
 10  6  1  0  0  0  0
 10  5  1  0  0  0  0
 11  1  1  0  0  0  0
 12  1  1  0  0  0  0
 15  3  1  0  0  0  0
 17  5  1  0  0  0  0
M  END
>  <HBA>
3

>  <HBD>
0

>  <TPSA>
55.51

>  <cid>
61660

>  <dipole>
1.31

>  <excitation_energy_1>
4.698

>  <excitation_energy_2>
4.99

>  <excitation_energy_3>
5.237

>  <excitation_energy_4>
5.542

>  <homo_energy>
-6.006

>  <homo_lumo_gap>
5.513

>  <logP>
2.059

>  <lumo_energy>
-0.493

>  <melting_point>
35.41

>  <molecular_refractivity>
41.08

>  <oscillator_strength_1>
0.0183

>  <oscillator_strength_2>
0.016

>  <oscillator_strength_3>
0.1425

>  <oscillator_strength_4>
0.1065

>  <open_babel_can_smiles>
CC(=O)SCc1ccco1

>  <mulliken_charges>
18
1   -0.515775
2   -0.17934
3   -0.201131
4   0.085888
5   -0.54258
6   0.275007
7   0.369366
8   -0.413579
9   -0.426472
10   0.115869
11   0.17579
12   0.190703
13   0.196973
14   0.142256
15   0.139877
16   0.155893
17   0.194439
18   0.236817

>  <lowdin_charges>
18
1   -0.464301
2   -0.205927
3   -0.213701
4   -0.07561
5   -0.374045
6   0.050904
7   0.057498
8   -0.237738
9   -0.094523
10   0.125939
11   0.173681
12   0.180947
13   0.186168
14   0.170712
15   0.169848
16   0.171179
17   0.181505
18   0.197465

$$$$

