PCCDB-ID:  58531
public computational chemistry database (PCCDB) project, http://pccdb.org

 29 31  0  0  0  0  0  0  0  0999 V2000
    2.4105    0.9936   -0.4420 C   0  0  0  0  0  0  0  0  0  0  0  0
    2.5452   -0.4023   -0.6365 C   0  0  0  0  0  0  0  0  0  0  0  0
   -2.3370    0.4156    0.4374 C   0  0  0  0  0  0  0  0  0  0  0  0
    1.1830    1.5282   -0.1250 C   0  0  0  0  0  0  0  0  0  0  0  0
   -1.2420    1.2399    0.3168 C   0  0  0  0  0  0  0  0  0  0  0  0
    1.4591   -1.2356   -0.4879 C   0  0  0  0  0  0  0  0  0  0  0  0
   -2.1991   -0.9846    0.3111 C   0  0  0  0  0  0  0  0  0  0  0  0
   -0.2843   -5.1317    0.6401 C   0  0  0  0  0  0  0  0  0  0  0  0
   -0.2105   -3.6774    1.1165 C   0  0  0  0  0  0  0  0  0  0  0  0
    0.0382    0.6994    0.0267 C   0  0  0  0  0  0  0  0  0  0  0  0
    0.1828   -0.7184   -0.1364 C   0  0  0  0  0  0  0  0  0  0  0  0
   -0.9685   -1.5496    0.0418 C   0  0  0  0  0  0  0  0  0  0  0  0
   -1.6954   -3.8098   -0.6919 C   0  0  0  0  0  0  0  0  0  0  0  0
   -2.5071   -3.4154   -1.5985 N   0  0  0  0  0  0  0  0  0  0  0  0
   -1.5110   -5.0962   -0.1550 N   0  0  0  0  0  0  0  0  0  0  0  0
   -0.8023   -2.9643   -0.0225 N   0  0  0  0  0  0  0  0  0  0  0  0
    3.2758    1.6408   -0.5572 H   0  0  0  0  0  0  0  0  0  0  0  0
    3.5111   -0.8154   -0.9152 H   0  0  0  0  0  0  0  0  0  0  0  0
   -3.3172    0.8347    0.6479 H   0  0  0  0  0  0  0  0  0  0  0  0
    1.0675    2.6015    0.0075 H   0  0  0  0  0  0  0  0  0  0  0  0
   -1.3435    2.3165    0.4305 H   0  0  0  0  0  0  0  0  0  0  0  0
    1.5560   -2.3008   -0.6701 H   0  0  0  0  0  0  0  0  0  0  0  0
   -3.0668   -1.6271    0.4074 H   0  0  0  0  0  0  0  0  0  0  0  0
   -0.3620   -5.8406    1.4699 H   0  0  0  0  0  0  0  0  0  0  0  0
    0.6007   -5.3886    0.0374 H   0  0  0  0  0  0  0  0  0  0  0  0
    0.8110   -3.3423    1.3122 H   0  0  0  0  0  0  0  0  0  0  0  0
   -0.8077   -3.5278    2.0292 H   0  0  0  0  0  0  0  0  0  0  0  0
   -3.0418   -4.2042   -1.9658 H   0  0  0  0  0  0  0  0  0  0  0  0
   -1.6697   -5.8590   -0.8016 H   0  0  0  0  0  0  0  0  0  0  0  0
  1  4  2  0  0  0  0
  2  6  2  0  0  0  0
  2  1  1  0  0  0  0
  3 19  1  0  0  0  0
  4 20  1  0  0  0  0
  4 10  1  0  0  0  0
  5 21  1  0  0  0  0
  5  3  2  0  0  0  0
  6 11  1  0  0  0  0
  7 23  1  0  0  0  0
  7  3  1  0  0  0  0
  8  9  1  0  0  0  0
  8 24  1  0  0  0  0
  9 26  1  0  0  0  0
  9 27  1  0  0  0  0
 10  5  1  0  0  0  0
 11 10  2  0  0  0  0
 11 12  1  0  0  0  0
 12  7  2  0  0  0  0
 13 15  1  0  0  0  0
 13 16  1  0  0  0  0
 14 13  2  0  0  0  0
 15  8  1  0  0  0  0
 16 12  1  0  0  0  0
 16  9  1  0  0  0  0
 17  1  1  0  0  0  0
 18  2  1  0  0  0  0
 22  6  1  0  0  0  0
 25  8  1  0  0  0  0
 28 14  1  0  0  0  0
 29 15  1  0  0  0  0
M  END
>  <HBA>
3

>  <HBD>
1

>  <TPSA>
41.62

>  <cid>
58531

>  <dipole>
3.32

>  <excitation_energy_1>
3.878

>  <excitation_energy_2>
4.322

>  <excitation_energy_3>
4.483

>  <excitation_energy_4>
4.88

>  <homo_energy>
-5.418

>  <homo_lumo_gap>
4.474

>  <logP>
2.175

>  <lumo_energy>
-0.944

>  <melting_point>
152.03

>  <molecular_refractivity>
73.5

>  <oscillator_strength_1>
0.0791

>  <oscillator_strength_2>
0.0016

>  <oscillator_strength_3>
0.0336

>  <oscillator_strength_4>
0.0061

>  <open_babel_can_smiles>
N=C1NCCN1c1cccc2c1cccc2

>  <mulliken_charges>
29
1   -0.132615
2   -0.1363
3   -0.151098
4   -0.195319
5   -0.181808
6   -0.185842
7   -0.129083
8   -0.139716
9   -0.125314
10   0.121655
11   0.103766
12   0.232577
13   0.650455
14   -0.665498
15   -0.627239
16   -0.569766
17   0.128118
18   0.126734
19   0.131441
20   0.12892
21   0.126926
22   0.136162
23   0.148342
24   0.156442
25   0.147133
26   0.161155
27   0.153522
28   0.267892
29   0.318358

>  <lowdin_charges>
29
1   -0.161649
2   -0.15844
3   -0.155104
4   -0.153171
5   -0.157326
6   -0.1591
7   -0.15333
8   -0.19884
9   -0.188923
10   0.001072
11   -0.00947
12   0.050167
13   0.123575
14   -0.471976
15   -0.327191
16   -0.115201
17   0.158502
18   0.156842
19   0.159324
20   0.155348
21   0.155237
22   0.16043
23   0.172966
24   0.154057
25   0.137722
26   0.154704
27   0.141837
28   0.251434
29   0.276505

$$$$

