PCCDB-ID:  68308
public computational chemistry database (PCCDB) project, http://pccdb.org

 19 19  0  0  0  0  0  0  0  0999 V2000
    0.9164   -0.0739    0.1198 C   0  0  0  0  0  0  0  0  0  0  0  0
    4.5136    1.1601   -0.1597 C   0  0  0  0  0  0  0  0  0  0  0  0
    3.1227    1.1597   -0.0165 C   0  0  0  0  0  0  0  0  0  0  0  0
    5.2099   -0.0248   -0.3604 C   0  0  0  0  0  0  0  0  0  0  0  0
    3.1192   -1.2403   -0.2732 C   0  0  0  0  0  0  0  0  0  0  0  0
    2.4162   -0.0454   -0.0687 C   0  0  0  0  0  0  0  0  0  0  0  0
    4.5141   -1.2472   -0.4189 C   0  0  0  0  0  0  0  0  0  0  0  0
    4.6200   -3.6005   -1.0955 N   0  0  0  0  0  0  0  0  0  0  0  0
    5.2348   -2.4375   -0.5809 N   0  0  0  0  0  0  0  0  0  0  0  0
    0.4659    0.8971   -0.1100 H   0  0  0  0  0  0  0  0  0  0  0  0
    0.6508   -0.3205    1.1567 H   0  0  0  0  0  0  0  0  0  0  0  0
    0.4434   -0.8264   -0.5214 H   0  0  0  0  0  0  0  0  0  0  0  0
    5.0597    2.0995   -0.1232 H   0  0  0  0  0  0  0  0  0  0  0  0
    2.5896    2.0948    0.1337 H   0  0  0  0  0  0  0  0  0  0  0  0
    6.2917   -0.0161   -0.4752 H   0  0  0  0  0  0  0  0  0  0  0  0
    2.5715   -2.1779   -0.3077 H   0  0  0  0  0  0  0  0  0  0  0  0
    3.9180   -3.3487   -1.7972 H   0  0  0  0  0  0  0  0  0  0  0  0
    4.1303   -4.0667   -0.3340 H   0  0  0  0  0  0  0  0  0  0  0  0
    6.1492   -2.3131   -0.9972 H   0  0  0  0  0  0  0  0  0  0  0  0
  1 11  1  0  0  0  0
  2 13  1  0  0  0  0
  2  3  2  0  0  0  0
  3 14  1  0  0  0  0
  4  2  1  0  0  0  0
  5  6  2  0  0  0  0
  6  3  1  0  0  0  0
  6  1  1  0  0  0  0
  7  4  2  0  0  0  0
  7  5  1  0  0  0  0
  8  9  1  0  0  0  0
  8 18  1  0  0  0  0
  9  7  1  0  0  0  0
 10  1  1  0  0  0  0
 12  1  1  0  0  0  0
 15  4  1  0  0  0  0
 16  5  1  0  0  0  0
 17  8  1  0  0  0  0
 19  9  1  0  0  0  0
M  END
>  <HBA>
2

>  <HBD>
2

>  <TPSA>
38.05

>  <cid>
68308

>  <dipole>
0.88

>  <excitation_energy_1>
4.611

>  <excitation_energy_2>
4.807

>  <excitation_energy_3>
5.215

>  <excitation_energy_4>
5.394

>  <homo_energy>
-5.374

>  <homo_lumo_gap>
5.521

>  <logP>
2.054

>  <lumo_energy>
0.147

>  <melting_point>
97.62

>  <molecular_refractivity>
38.61

>  <oscillator_strength_1>
0.0426

>  <oscillator_strength_2>
0.0236

>  <oscillator_strength_3>
0.0214

>  <oscillator_strength_4>
0.1126

>  <open_babel_can_smiles>
NNc1cccc(c1)C

>  <mulliken_charges>
19
1   -0.529144
2   -0.130568
3   -0.190688
4   -0.191089
5   -0.23605
6   0.176339
7   0.341569
8   -0.576793
9   -0.538721
10   0.155337
11   0.164527
12   0.152765
13   0.125344
14   0.114114
15   0.116968
16   0.096273
17   0.30171
18   0.322098
19   0.326009

>  <lowdin_charges>
19
1   -0.442064
2   -0.144383
3   -0.198241
4   -0.19964
5   -0.2243
6   0.01397
7   0.046373
8   -0.46865
9   -0.250389
10   0.157043
11   0.160305
12   0.156853
13   0.156372
14   0.152386
15   0.150653
16   0.146521
17   0.249153
18   0.264
19   0.274041

$$$$

