PCCDB-ID:  10925
public computational chemistry database (PCCDB) project, http://pccdb.org

 18 17  0  0  0  0  0  0  0  0999 V2000
    0.9829   -0.2400    0.1871 C   0  0  0  0  0  0  0  0  0  0  0  0
    2.7960   -0.6230   -1.5295 C   0  0  0  0  0  0  0  0  0  0  0  0
    2.9250    1.4145   -0.0438 C   0  0  0  0  0  0  0  0  0  0  0  0
    2.8322    2.0101    1.3631 C   0  0  0  0  0  0  0  0  0  0  0  0
    2.4739   -0.0591   -0.1372 C   0  0  0  0  0  0  0  0  0  0  0  0
    3.3870    3.7653    1.4793 S   0  0  0  0  0  0  0  0  0  0  0  0
    0.6902   -1.2928    0.0988 H   0  0  0  0  0  0  0  0  0  0  0  0
    0.3593    0.3376   -0.5079 H   0  0  0  0  0  0  0  0  0  0  0  0
    0.7369    0.0834    1.2045 H   0  0  0  0  0  0  0  0  0  0  0  0
    2.5103   -1.6789   -1.6046 H   0  0  0  0  0  0  0  0  0  0  0  0
    3.8665   -0.5481   -1.7549 H   0  0  0  0  0  0  0  0  0  0  0  0
    2.2518   -0.0753   -2.3098 H   0  0  0  0  0  0  0  0  0  0  0  0
    3.9661    1.4863   -0.3880 H   0  0  0  0  0  0  0  0  0  0  0  0
    2.3299    2.0267   -0.7347 H   0  0  0  0  0  0  0  0  0  0  0  0
    3.3984    1.4098    2.0834 H   0  0  0  0  0  0  0  0  0  0  0  0
    1.7965    2.0420    1.7143 H   0  0  0  0  0  0  0  0  0  0  0  0
    3.0539   -0.6352    0.6008 H   0  0  0  0  0  0  0  0  0  0  0  0
    4.6537    3.5594    1.0560 H   0  0  0  0  0  0  0  0  0  0  0  0
  1  9  1  0  0  0  0
  2  5  1  0  0  0  0
  3  4  1  0  0  0  0
  4  6  1  0  0  0  0
  4 16  1  0  0  0  0
  4 15  1  0  0  0  0
  5  3  1  0  0  0  0
  5  1  1  0  0  0  0
  5 17  1  0  0  0  0
  7  1  1  0  0  0  0
  8  1  1  0  0  0  0
 10  2  1  0  0  0  0
 11  2  1  0  0  0  0
 12  2  1  0  0  0  0
 13  3  1  0  0  0  0
 14  3  1  0  0  0  0
 18  6  1  0  0  0  0
M  END
>  <HBA>
1

>  <HBD>
1

>  <TPSA>
38.8

>  <cid>
10925

>  <dipole>
1.98

>  <excitation_energy_1>
5.218

>  <excitation_energy_2>
5.872

>  <excitation_energy_3>
6.204

>  <excitation_energy_4>
6.392

>  <homo_energy>
-6.34

>  <homo_lumo_gap>
7.11

>  <logP>
1.962

>  <lumo_energy>
0.77

>  <melting_point>
-5.64

>  <molecular_refractivity>
34.08

>  <oscillator_strength_1>
0.0107

>  <oscillator_strength_2>
0.0319

>  <oscillator_strength_3>
0.0087

>  <oscillator_strength_4>
0.0086

>  <open_babel_can_smiles>
SCCC(C)C

>  <mulliken_charges>
18
1   -0.445855
2   -0.442098
3   -0.237925
4   -0.420028
5   -0.070568
6   -0.084778
7   0.14421
8   0.142774
9   0.143084
10   0.142652
11   0.14131
12   0.142466
13   0.130901
14   0.147921
15   0.173278
16   0.180438
17   0.122166
18   0.090053

>  <lowdin_charges>
18
1   -0.446681
2   -0.441549
3   -0.281212
4   -0.371996
5   -0.122486
6   -0.087747
7   0.149567
8   0.148964
9   0.147158
10   0.148051
11   0.146585
12   0.148601
13   0.141459
14   0.151257
15   0.158438
16   0.16602
17   0.136466
18   0.109102

$$$$

