PCCDB-ID:  13611
public computational chemistry database (PCCDB) project, http://pccdb.org

 14 14  0  0  0  0  0  0  0  0999 V2000
   -0.6715    1.1294   -0.0594 C   0  0  0  0  0  0  0  0  0  0  0  0
   -1.3910   -0.0501    0.0207 C   0  0  0  0  0  0  0  0  0  0  0  0
   -0.6173   -1.2365    0.0804 C   0  0  0  0  0  0  0  0  0  0  0  0
    1.2716   -0.0297   -0.0139 C   0  0  0  0  0  0  0  0  0  0  0  0
   -2.8193   -0.2110    0.0449 N   0  0  0  0  0  0  0  0  0  0  0  0
    0.6698    1.1656   -0.0771 N   0  0  0  0  0  0  0  0  0  0  0  0
    0.7086   -1.2358    0.0633 N   0  0  0  0  0  0  0  0  0  0  0  0
   -1.2412   -2.4153    0.1587 O   0  0  0  0  0  0  0  0  0  0  0  0
    2.6160   -0.0252   -0.0300 O   0  0  0  0  0  0  0  0  0  0  0  0
   -1.1833    2.0907   -0.1127 H   0  0  0  0  0  0  0  0  0  0  0  0
   -3.2468    0.2582    0.8406 H   0  0  0  0  0  0  0  0  0  0  0  0
   -3.2621    0.1480   -0.7986 H   0  0  0  0  0  0  0  0  0  0  0  0
   -2.1984   -2.1854    0.1583 H   0  0  0  0  0  0  0  0  0  0  0  0
    2.8762    0.9110   -0.0889 H   0  0  0  0  0  0  0  0  0  0  0  0
  1  2  2  0  0  0  0
  2  5  1  0  0  0  0
  2  3  1  0  0  0  0
  3  8  1  0  0  0  0
  4  7  2  0  0  0  0
  5 11  1  0  0  0  0
  6  1  1  0  0  0  0
  6  4  2  0  0  0  0
  7  3  2  0  0  0  0
  9  4  1  0  0  0  0
 10  1  1  0  0  0  0
 12  5  1  0  0  0  0
 13  8  1  0  0  0  0
 14  9  1  0  0  0  0
M  END
>  <HBA>
3

>  <HBD>
3

>  <TPSA>
91.74

>  <cid>
13611

>  <dipole>
5.22

>  <excitation_energy_1>
4.731

>  <excitation_energy_2>
5.163

>  <excitation_energy_3>
5.455

>  <excitation_energy_4>
5.579

>  <homo_energy>
-6.631

>  <homo_lumo_gap>
5.883

>  <logP>
-0.773

>  <lumo_energy>
-0.748

>  <melting_point>
217.91

>  <molecular_refractivity>
32.09

>  <oscillator_strength_1>
0.0046

>  <oscillator_strength_2>
0.0855

>  <oscillator_strength_3>
0.0004

>  <oscillator_strength_4>
0.0003

>  <open_babel_can_smiles>
NC1=CN=[C](=[N]=C1O)O

>  <mulliken_charges>
14
1   0.033355
2   0.147303
3   0.52857
4   0.632879
5   -0.836742
6   -0.497361
7   -0.487901
8   -0.594742
9   -0.580929
10   0.144511
11   0.332084
12   0.332184
13   0.429484
14   0.417304

>  <lowdin_charges>
14
1   -0.073536
2   -0.079433
3   0.147637
4   0.164691
5   -0.531506
6   -0.228519
7   -0.174766
8   -0.330564
9   -0.335164
10   0.159049
11   0.278858
12   0.278516
13   0.361605
14   0.363131

$$$$

