PCCDB-ID:  49261
public computational chemistry database (PCCDB) project, http://pccdb.org

 29 29  0  0  1  0  0  0  0  0999 V2000
    1.2026    0.7199    2.4443 C   0  0  0  0  0  0  0  0  0  0  0  0
    1.6568    2.2770   -0.6862 C   0  0  0  0  0  0  0  0  0  0  0  0
    5.5729    1.0267    2.0336 C   0  0  0  0  0  0  0  0  0  0  0  0
    2.6643    0.8617    2.1247 C   0  0  0  0  0  0  0  0  0  0  0  0
    2.3972    0.9589   -0.3864 C   0  0  0  0  0  0  0  0  0  0  0  0
    3.2205    0.9643    0.9016 C   0  0  0  0  0  0  0  0  0  0  0  0
    5.1175    2.3528   -0.0183 C   0  0  0  0  0  0  0  0  0  0  0  0
    5.2250   -0.0982   -0.1591 C   0  0  0  0  0  0  0  0  0  0  0  0
    6.5834    1.2667   -1.4455 C   0  0  0  0  0  0  0  0  0  0  0  0
    4.7465    1.0632    0.7182 C   0  0  1  0  0  0  0  0  0  0  0  0
    5.9402    2.4493   -0.9827 N   0  0  0  0  0  0  0  0  0  0  0  0
    6.0516   -0.0116   -1.1220 N   0  0  0  0  0  0  0  0  0  0  0  0
    4.5512    3.4828    0.4567 O   0  0  0  0  0  0  0  0  0  0  0  0
    4.7450   -1.3147    0.1670 O   0  0  0  0  0  0  0  0  0  0  0  0
    7.5684    1.3518   -2.1417 O   0  0  0  0  0  0  0  0  0  0  0  0
    0.8349    1.6069    2.9777 H   0  0  0  0  0  0  0  0  0  0  0  0
    1.0410   -0.1327    3.1159 H   0  0  0  0  0  0  0  0  0  0  0  0
    0.5791    0.5800    1.5585 H   0  0  0  0  0  0  0  0  0  0  0  0
    1.0807    2.1799   -1.6124 H   0  0  0  0  0  0  0  0  0  0  0  0
    2.3530    3.1110   -0.8128 H   0  0  0  0  0  0  0  0  0  0  0  0
    0.9579    2.5347    0.1171 H   0  0  0  0  0  0  0  0  0  0  0  0
    5.3144    1.8644    2.6883 H   0  0  0  0  0  0  0  0  0  0  0  0
    6.6381    1.0980    1.7984 H   0  0  0  0  0  0  0  0  0  0  0  0
    5.4073    0.0930    2.5794 H   0  0  0  0  0  0  0  0  0  0  0  0
    3.3130    0.8773    2.9982 H   0  0  0  0  0  0  0  0  0  0  0  0
    3.0501    0.7232   -1.2344 H   0  0  0  0  0  0  0  0  0  0  0  0
    1.6647    0.1440   -0.3422 H   0  0  0  0  0  0  0  0  0  0  0  0
    3.8829    3.2416    1.1233 H   0  0  0  0  0  0  0  0  0  0  0  0
    4.0672   -1.2080    0.8588 H   0  0  0  0  0  0  0  0  0  0  0  0
  1 16  1  0  0  0  0
  1 17  1  0  0  0  0
  2  5  1  0  0  0  0
  2 21  1  0  0  0  0
  3 24  1  0  0  0  0
  3 22  1  0  0  0  0
  4  1  1  0  0  0  0
  4 25  1  0  0  0  0
  5 27  1  0  0  0  0
  5  6  1  0  0  0  0
  6  4  2  0  0  0  0
  7 13  1  0  0  0  0
  7 10  1  0  0  0  0
  8 14  1  0  0  0  0
  8 10  1  0  0  0  0
  9 12  1  0  0  0  0
  9 11  2  0  0  0  0
 10  6  1  1  0  0  0
 10  3  1  0  0  0  0
 11  7  2  0  0  0  0
 12  8  2  0  0  0  0
 13 28  1  0  0  0  0
 14 29  1  0  0  0  0
 15  9  2  0  0  0  0
 18  1  1  0  0  0  0
 19  2  1  0  0  0  0
 20  2  1  0  0  0  0
 23  3  1  0  0  0  0
 26  5  1  0  0  0  0
M  END
>  <HBA>
5

>  <HBD>
2

>  <TPSA>
75.27

>  <cid>
49261

>  <dipole>
10.49

>  <excitation_energy_1>
4.02

>  <excitation_energy_2>
4.247

>  <excitation_energy_3>
5.072

>  <excitation_energy_4>
5.451

>  <homo_energy>
-6.808

>  <homo_lumo_gap>
5.374

>  <logP>
1.373

>  <lumo_energy>
-1.434

>  <melting_point>
154.12

>  <molecular_refractivity>
61.76

>  <oscillator_strength_1>
0.0005

>  <oscillator_strength_2>
0.0003

>  <oscillator_strength_3>
0.0359

>  <oscillator_strength_4>
0.0047

>  <open_babel_can_smiles>
CC/C(=C\C)/[C@@]1(C)C(=N[C](=[N]=C1O)=O)O

>  <mulliken_charges>
29
1   -0.49185
2   -0.466795
3   -0.459151
4   -0.175149
5   -0.336097
6   0.072808
7   0.548541
8   0.542563
9   0.611189
10   -0.173484
11   -0.465609
12   -0.466816
13   -0.577477
14   -0.575833
15   -0.428626
16   0.174119
17   0.170019
18   0.171158
19   0.162785
20   0.177271
21   0.148532
22   0.165219
23   0.195303
24   0.165772
25   0.146789
26   0.175599
27   0.159938
28   0.414824
29   0.414459

>  <lowdin_charges>
29
1   -0.446357
2   -0.451152
3   -0.434721
4   -0.178097
5   -0.284893
6   -0.054395
7   0.142568
8   0.14238
9   0.17068
10   -0.056129
11   -0.182351
12   -0.184179
13   -0.329199
14   -0.328671
15   -0.208473
16   0.169861
17   0.167596
18   0.164933
19   0.161255
20   0.163078
21   0.149812
22   0.16115
23   0.177421
24   0.161035
25   0.161768
26   0.165212
27   0.159002
28   0.360142
29   0.360723

$$$$

