PCCDB-ID:  70316
public computational chemistry database (PCCDB) project, http://pccdb.org

 26 26  0  0  1  0  0  0  0  0999 V2000
   -0.0897   -1.2923   -0.2512 C   0  0  0  0  0  0  0  0  0  0  0  0
    2.2260   -2.1313    1.7218 C   0  0  0  0  0  0  0  0  0  0  0  0
    1.4112   -1.0810   -0.4787 C   0  0  0  0  0  0  0  0  0  0  0  0
    4.7822    3.5155   -0.6141 C   0  0  0  0  0  0  0  0  0  0  0  0
    3.4713    3.2609   -0.2086 C   0  0  0  0  0  0  0  0  0  0  0  0
    5.7081    2.4695   -0.6742 C   0  0  0  0  0  0  0  0  0  0  0  0
    3.0851    1.9661    0.1386 C   0  0  0  0  0  0  0  0  0  0  0  0
    5.3220    1.1781   -0.3305 C   0  0  0  0  0  0  0  0  0  0  0  0
    2.2307   -0.8865    0.8264 C   0  0  2  0  0  0  0  0  0  0  0  0
    4.0062    0.9082    0.0817 C   0  0  0  0  0  0  0  0  0  0  0  0
    3.6672   -0.5136    0.4402 C   0  0  0  0  0  0  0  0  0  0  0  0
    4.5330   -1.3761    0.3883 O   0  0  0  0  0  0  0  0  0  0  0  0
   -0.6166   -1.3707   -1.2089 H   0  0  0  0  0  0  0  0  0  0  0  0
   -0.5294   -0.4528    0.3019 H   0  0  0  0  0  0  0  0  0  0  0  0
   -0.2949   -2.2077    0.3131 H   0  0  0  0  0  0  0  0  0  0  0  0
    1.2089   -2.3877    2.0333 H   0  0  0  0  0  0  0  0  0  0  0  0
    2.8226   -1.9645    2.6248 H   0  0  0  0  0  0  0  0  0  0  0  0
    2.6609   -2.9860    1.1960 H   0  0  0  0  0  0  0  0  0  0  0  0
    1.5525   -0.2059   -1.1257 H   0  0  0  0  0  0  0  0  0  0  0  0
    1.8320   -1.9366   -1.0233 H   0  0  0  0  0  0  0  0  0  0  0  0
    5.0820    4.5253   -0.8818 H   0  0  0  0  0  0  0  0  0  0  0  0
    2.7487    4.0709   -0.1598 H   0  0  0  0  0  0  0  0  0  0  0  0
    6.7297    2.6642   -0.9894 H   0  0  0  0  0  0  0  0  0  0  0  0
    2.0618    1.7896    0.4531 H   0  0  0  0  0  0  0  0  0  0  0  0
    6.0232    0.3512   -0.3713 H   0  0  0  0  0  0  0  0  0  0  0  0
    1.7842   -0.0512    1.3819 H   0  0  0  0  0  0  0  0  0  0  0  0
  1 14  1  0  0  0  0
  1 15  1  0  0  0  0
  2 16  1  0  0  0  0
  2 17  1  0  0  0  0
  3  1  1  0  0  0  0
  3  9  1  0  0  0  0
  4  5  1  0  0  0  0
  5 22  1  0  0  0  0
  5  7  2  0  0  0  0
  6  4  2  0  0  0  0
  6  8  1  0  0  0  0
  7 24  1  0  0  0  0
  8 10  2  0  0  0  0
  9 26  1  1  0  0  0
  9  2  1  0  0  0  0
 10  7  1  0  0  0  0
 10 11  1  0  0  0  0
 11  9  1  0  0  0  0
 12 11  2  0  0  0  0
 13  1  1  0  0  0  0
 18  2  1  0  0  0  0
 19  3  1  0  0  0  0
 20  3  1  0  0  0  0
 21  4  1  0  0  0  0
 23  6  1  0  0  0  0
 25  8  1  0  0  0  0
M  END
>  <HBA>
1

>  <HBD>
0

>  <TPSA>
17.07

>  <cid>
70316

>  <dipole>
2.81

>  <excitation_energy_1>
3.651

>  <excitation_energy_2>
4.723

>  <excitation_energy_3>
5.124

>  <excitation_energy_4>
5.421

>  <homo_energy>
-6.588

>  <homo_lumo_gap>
5.135

>  <logP>
2.915

>  <lumo_energy>
-1.453

>  <melting_point>
36.22

>  <molecular_refractivity>
51.06

>  <oscillator_strength_1>
0.0007

>  <oscillator_strength_2>
0.0199

>  <oscillator_strength_3>
0.2559

>  <oscillator_strength_4>
0.0002

>  <open_babel_can_smiles>
CC[C@H](C(=O)c1ccccc1)C

>  <mulliken_charges>
26
1   -0.44607
2   -0.445052
3   -0.261362
4   -0.118733
5   -0.136441
6   -0.132967
7   -0.180898
8   -0.153802
9   -0.161748
10   0.075831
11   0.397756
12   -0.471737
13   0.148428
14   0.140469
15   0.153453
16   0.139897
17   0.149789
18   0.165955
19   0.141643
20   0.151329
21   0.137106
22   0.135464
23   0.137918
24   0.138897
25   0.164217
26   0.130657

>  <lowdin_charges>
26
1   -0.446084
2   -0.441566
3   -0.27237
4   -0.139113
5   -0.159673
6   -0.153592
7   -0.149749
8   -0.129018
9   -0.156391
10   -0.050636
11   0.163152
12   -0.245827
13   0.153553
14   0.14679
15   0.151767
16   0.147969
17   0.155469
18   0.161865
19   0.146574
20   0.151215
21   0.160436
22   0.161186
23   0.160409
24   0.160527
25   0.177876
26   0.145229

$$$$

