PCCDB-ID:  25011
public computational chemistry database (PCCDB) project, http://pccdb.org

 22 21  0  0  1  0  0  0  0  0999 V2000
    2.7764   -0.9545   -1.4092 C   0  0  0  0  0  0  0  0  0  0  0  0
    2.4283    0.7231    4.5361 C   0  0  0  0  0  0  0  0  0  0  0  0
    2.6054    2.1109   -1.5410 C   0  0  0  0  0  0  0  0  0  0  0  0
    2.7882   -0.4502    1.0752 C   0  0  0  0  0  0  0  0  0  0  0  0
    2.3975    0.5086    2.1933 C   0  0  0  0  0  0  0  0  0  0  0  0
    2.4176    0.0595   -0.3184 C   0  0  1  0  0  0  0  0  0  0  0  0
    2.7115   -0.1056    3.4318 O   0  0  0  0  0  0  0  0  0  0  0  0
    3.1046    1.3004   -0.4985 O   0  0  0  0  0  0  0  0  0  0  0  0
    2.2457   -1.8991   -1.2451 H   0  0  0  0  0  0  0  0  0  0  0  0
    3.8533   -1.1555   -1.3988 H   0  0  0  0  0  0  0  0  0  0  0  0
    2.5046   -0.5916   -2.4059 H   0  0  0  0  0  0  0  0  0  0  0  0
    2.7086    0.1707    5.4373 H   0  0  0  0  0  0  0  0  0  0  0  0
    1.3568    0.9782    4.5939 H   0  0  0  0  0  0  0  0  0  0  0  0
    3.0024    1.6637    4.5009 H   0  0  0  0  0  0  0  0  0  0  0  0
    3.1464    3.0600   -1.4909 H   0  0  0  0  0  0  0  0  0  0  0  0
    1.5279    2.3096   -1.4207 H   0  0  0  0  0  0  0  0  0  0  0  0
    2.7661    1.6715   -2.5366 H   0  0  0  0  0  0  0  0  0  0  0  0
    2.2938   -1.4141    1.2473 H   0  0  0  0  0  0  0  0  0  0  0  0
    3.8697   -0.6289    1.1178 H   0  0  0  0  0  0  0  0  0  0  0  0
    1.3166    0.7365    2.1449 H   0  0  0  0  0  0  0  0  0  0  0  0
    2.9368    1.4613    2.0840 H   0  0  0  0  0  0  0  0  0  0  0  0
    1.3298    0.2531   -0.3518 H   0  0  0  0  0  0  0  0  0  0  0  0
  1 10  1  0  0  0  0
  1  9  1  0  0  0  0
  1  6  1  0  0  0  0
  2 13  1  0  0  0  0
  2 12  1  0  0  0  0
  3 15  1  0  0  0  0
  3 16  1  0  0  0  0
  3  8  1  0  0  0  0
  4 19  1  0  0  0  0
  4 18  1  0  0  0  0
  4  5  1  0  0  0  0
  5  7  1  0  0  0  0
  6 22  1  6  0  0  0
  6  4  1  0  0  0  0
  7  2  1  0  0  0  0
  8  6  1  0  0  0  0
 11  1  1  0  0  0  0
 14  2  1  0  0  0  0
 17  3  1  0  0  0  0
 20  5  1  0  0  0  0
 21  5  1  0  0  0  0
M  END
>  <HBA>
2

>  <HBD>
0

>  <TPSA>
18.46

>  <cid>
25011

>  <dipole>
1.72

>  <excitation_energy_1>
6.378

>  <excitation_energy_2>
6.513

>  <excitation_energy_3>
6.78

>  <excitation_energy_4>
6.875

>  <homo_energy>
-6.631

>  <homo_lumo_gap>
8.934

>  <logP>
1.058

>  <lumo_energy>
2.302

>  <melting_point>
-44.46

>  <molecular_refractivity>
33.13

>  <oscillator_strength_1>
0.0014

>  <oscillator_strength_2>
0.034

>  <oscillator_strength_3>
0.0068

>  <oscillator_strength_4>
0.0105

>  <open_babel_can_smiles>
COCC[C@@H](OC)C

>  <mulliken_charges>
22
1   -0.458348
2   -0.188155
3   -0.194913
4   -0.281255
5   -0.008165
6   0.15001
7   -0.466369
8   -0.471801
9   0.144661
10   0.155235
11   0.145256
12   0.15475
13   0.125255
14   0.128128
15   0.157377
16   0.127416
17   0.132817
18   0.143437
19   0.152768
20   0.106696
21   0.138983
22   0.106216

>  <lowdin_charges>
22
1   -0.455739
2   -0.277846
3   -0.278052
4   -0.2836
5   -0.127429
6   0.009583
7   -0.273539
8   -0.275378
9   0.154661
10   0.154423
11   0.150621
12   0.153462
13   0.126983
14   0.13017
15   0.15456
16   0.128411
17   0.130939
18   0.152754
19   0.153284
20   0.117665
21   0.135576
22   0.118492

$$$$

