PCCDB-ID:  49194
public computational chemistry database (PCCDB) project, http://pccdb.org

 35 35  0  0  1  0  0  0  0  0999 V2000
    0.7716    0.7148    0.8811 C   0  0  0  0  0  0  0  0  0  0  0  0
    8.4335    1.7516   -0.4800 C   0  0  0  0  0  0  0  0  0  0  0  0
    7.1615    3.3134   -2.6610 C   0  0  0  0  0  0  0  0  0  0  0  0
    2.2290    0.4640    0.4810 C   0  0  0  0  0  0  0  0  0  0  0  0
    7.2677    1.3621   -1.0083 C   0  0  0  0  0  0  0  0  0  0  0  0
    2.8413    1.6374   -0.2968 C   0  0  0  0  0  0  0  0  0  0  0  0
    4.2996    1.3731   -0.6987 C   0  0  0  0  0  0  0  0  0  0  0  0
    6.4312    2.1261   -2.0175 C   0  0  1  0  0  0  0  0  0  0  0  0
    5.1481    3.7428   -0.4986 C   0  0  0  0  0  0  0  0  0  0  0  0
    4.1253    3.0040   -2.6085 C   0  0  0  0  0  0  0  0  0  0  0  0
    3.7862    5.1417   -1.7631 C   0  0  0  0  0  0  0  0  0  0  0  0
    5.0069    2.5513   -1.4466 C   0  0  2  0  0  0  0  0  0  0  0  0
    4.5970    4.8843   -0.6303 N   0  0  0  0  0  0  0  0  0  0  0  0
    3.5887    4.1466   -2.7592 N   0  0  0  0  0  0  0  0  0  0  0  0
    5.9057    3.5524    0.5998 O   0  0  0  0  0  0  0  0  0  0  0  0
    3.8783    2.0872   -3.5759 O   0  0  0  0  0  0  0  0  0  0  0  0
    3.2561    6.2225   -1.8901 O   0  0  0  0  0  0  0  0  0  0  0  0
    0.3612   -0.1363    1.4355 H   0  0  0  0  0  0  0  0  0  0  0  0
    0.1409    0.8752   -0.0013 H   0  0  0  0  0  0  0  0  0  0  0  0
    0.6833    1.6029    1.5175 H   0  0  0  0  0  0  0  0  0  0  0  0
    8.9721    1.1148    0.2163 H   0  0  0  0  0  0  0  0  0  0  0  0
    8.9010    2.7010   -0.7256 H   0  0  0  0  0  0  0  0  0  0  0  0
    8.0936    2.9777   -3.1254 H   0  0  0  0  0  0  0  0  0  0  0  0
    7.4070    4.0892   -1.9282 H   0  0  0  0  0  0  0  0  0  0  0  0
    6.5457    3.7768   -3.4374 H   0  0  0  0  0  0  0  0  0  0  0  0
    2.2896   -0.4496   -0.1280 H   0  0  0  0  0  0  0  0  0  0  0  0
    2.8295    0.2722    1.3814 H   0  0  0  0  0  0  0  0  0  0  0  0
    6.8776    0.3865   -0.7200 H   0  0  0  0  0  0  0  0  0  0  0  0
    2.7895    2.5463    0.3166 H   0  0  0  0  0  0  0  0  0  0  0  0
    2.2365    1.8338   -1.1915 H   0  0  0  0  0  0  0  0  0  0  0  0
    4.3490    0.4691   -1.3251 H   0  0  0  0  0  0  0  0  0  0  0  0
    4.8759    1.1359    0.2019 H   0  0  0  0  0  0  0  0  0  0  0  0
    6.2199    1.4007   -2.8179 H   0  0  0  0  0  0  0  0  0  0  0  0
    6.4484    2.7466    0.5037 H   0  0  0  0  0  0  0  0  0  0  0  0
    4.2697    1.2324   -3.3377 H   0  0  0  0  0  0  0  0  0  0  0  0
  1 18  1  0  0  0  0
  1 20  1  0  0  0  0
  2 21  1  0  0  0  0
  3  8  1  0  0  0  0
  3 24  1  0  0  0  0
  4  1  1  0  0  0  0
  4 27  1  0  0  0  0
  5 28  1  0  0  0  0
  5  2  2  0  0  0  0
  6 29  1  0  0  0  0
  6  4  1  0  0  0  0
  7  6  1  0  0  0  0
  7 32  1  0  0  0  0
  8 33  1  6  0  0  0
  8 12  1  0  0  0  0
  8  5  1  0  0  0  0
  9 15  1  0  0  0  0
 10 12  1  0  0  0  0
 11 13  2  0  0  0  0
 12  7  1  1  0  0  0
 12  9  1  0  0  0  0
 13  9  2  0  0  0  0
 14 10  2  0  0  0  0
 14 11  1  0  0  0  0
 16 35  1  0  0  0  0
 16 10  1  0  0  0  0
 17 11  2  0  0  0  0
 19  1  1  0  0  0  0
 22  2  1  0  0  0  0
 23  3  1  0  0  0  0
 25  3  1  0  0  0  0
 26  4  1  0  0  0  0
 30  6  1  0  0  0  0
 31  7  1  0  0  0  0
 34 15  1  0  0  0  0
M  END
>  <HBA>
5

>  <HBD>
2

>  <TPSA>
75.27

>  <cid>
49194

>  <dipole>
10.27

>  <excitation_energy_1>
3.955

>  <excitation_energy_2>
4.116

>  <excitation_energy_3>
5.162

>  <excitation_energy_4>
5.317

>  <homo_energy>
-6.792

>  <homo_lumo_gap>
5.276

>  <logP>
2.009

>  <lumo_energy>
-1.516

>  <melting_point>
118.98

>  <molecular_refractivity>
71.37

>  <oscillator_strength_1>
0.0

>  <oscillator_strength_2>
0.0

>  <oscillator_strength_3>
0.0034

>  <oscillator_strength_4>
0.0054

>  <open_babel_can_smiles>
CCCC[C@@]1([C@H](C=C)C)C(=N[C](=[N]=C1O)=O)O

>  <mulliken_charges>
35
1   -0.445105
2   -0.33012
3   -0.484571
4   -0.25324
5   -0.123553
6   -0.2762
7   -0.291235
8   -0.131834
9   0.537332
10   0.550858
11   0.617828
12   -0.131755
13   -0.471387
14   -0.474673
15   -0.59196
16   -0.583148
17   -0.434137
18   0.147588
19   0.151371
20   0.153795
21   0.165562
22   0.172896
23   0.165172
24   0.178272
25   0.184983
26   0.130505
27   0.13594
28   0.15127
29   0.166892
30   0.164232
31   0.12714
32   0.151562
33   0.137081
34   0.417033
35   0.415608

>  <lowdin_charges>
35
1   -0.445062
2   -0.321489
3   -0.455645
4   -0.271451
5   -0.174069
6   -0.285665
7   -0.276692
8   -0.124459
9   0.146484
10   0.144055
11   0.169093
12   -0.061201
13   -0.1877
14   -0.184149
15   -0.338879
16   -0.334104
17   -0.211053
18   0.153833
19   0.152191
20   0.153295
21   0.173337
22   0.172353
23   0.16385
24   0.16588
25   0.17317
26   0.138383
27   0.141336
28   0.160433
29   0.157965
30   0.15601
31   0.13737
32   0.153052
33   0.149877
34   0.354102
35   0.355547

$$$$

