PCCDB-ID:  69019
public computational chemistry database (PCCDB) project, http://pccdb.org

 13 12  0  0  0  0  0  0  0  0999 V2000
    0.9602   -0.0818    0.0799 C   0  0  0  0  0  0  0  0  0  0  0  0
    4.1776    0.0010   -1.3768 C   0  0  0  0  0  0  0  0  0  0  0  0
    4.1778    1.1151    0.9142 C   0  0  0  0  0  0  0  0  0  0  0  0
    2.1681   -0.0749    0.0773 C   0  0  0  0  0  0  0  0  0  0  0  0
    3.6364   -0.0538    0.0659 C   0  0  0  0  0  0  0  0  0  0  0  0
   -0.1059   -0.0878    0.0821 H   0  0  0  0  0  0  0  0  0  0  0  0
    5.2732   -0.0284   -1.3714 H   0  0  0  0  0  0  0  0  0  0  0  0
    3.8619    0.9254   -1.8728 H   0  0  0  0  0  0  0  0  0  0  0  0
    3.8126   -0.8434   -1.9697 H   0  0  0  0  0  0  0  0  0  0  0  0
    5.2733    1.0927    0.9358 H   0  0  0  0  0  0  0  0  0  0  0  0
    3.8105    1.0606    1.9437 H   0  0  0  0  0  0  0  0  0  0  0  0
    3.8625    2.0759    0.4925 H   0  0  0  0  0  0  0  0  0  0  0  0
    3.9858   -0.9919    0.5228 H   0  0  0  0  0  0  0  0  0  0  0  0
  1  6  1  0  0  0  0
  2  7  1  0  0  0  0
  2  5  1  0  0  0  0
  3 10  1  0  0  0  0
  3 11  1  0  0  0  0
  4  1  3  0  0  0  0
  5  4  1  0  0  0  0
  5 13  1  0  0  0  0
  5  3  1  0  0  0  0
  8  2  1  0  0  0  0
  9  2  1  0  0  0  0
 12  3  1  0  0  0  0
M  END
>  <HBA>
0

>  <HBD>
0

>  <TPSA>
0.0

>  <cid>
69019

>  <dipole>
0.63

>  <excitation_energy_1>
6.398

>  <excitation_energy_2>
6.523

>  <excitation_energy_3>
6.636

>  <excitation_energy_4>
6.861

>  <homo_energy>
-7.01

>  <homo_lumo_gap>
8.588

>  <logP>
1.276

>  <lumo_energy>
1.578

>  <melting_point>
-8.55

>  <molecular_refractivity>
24.31

>  <oscillator_strength_1>
0.0135

>  <oscillator_strength_2>
0.0143

>  <oscillator_strength_3>
0.0108

>  <oscillator_strength_4>
0.0438

>  <open_babel_can_smiles>
CC(C#C)C

>  <mulliken_charges>
13
1   -0.506891
2   -0.435171
3   -0.435252
4   0.342457
5   -0.218321
6   0.18366
7   0.144195
8   0.154277
9   0.156488
10   0.14418
11   0.156492
12   0.154214
13   0.159673

>  <lowdin_charges>
13
1   -0.266941
2   -0.43446
3   -0.432254
4   -0.038972
5   -0.10737
6   0.200617
7   0.148008
8   0.154888
9   0.158047
10   0.147988
11   0.156243
12   0.154434
13   0.159773

$$$$

