PCCDB-ID:  51806
public computational chemistry database (PCCDB) project, http://pccdb.org

 29 28  0  0  0  0  0  0  0  0999 V2000
    4.9350   -1.1191    2.9815 C   0  0  0  0  0  0  0  0  0  0  0  0
    3.2214    4.1875    0.8167 C   0  0  0  0  0  0  0  0  0  0  0  0
    7.2616    4.0280   -1.2866 C   0  0  0  0  0  0  0  0  0  0  0  0
    4.4868   -0.5176    1.6456 C   0  0  0  0  0  0  0  0  0  0  0  0
    4.7348    3.9810    0.6797 C   0  0  0  0  0  0  0  0  0  0  0  0
    6.6843    2.8354   -0.5137 C   0  0  0  0  0  0  0  0  0  0  0  0
    5.0543    0.8855    1.3903 C   0  0  0  0  0  0  0  0  0  0  0  0
    4.5924    1.4786    0.0505 C   0  0  0  0  0  0  0  0  0  0  0  0
    5.1518    2.8749   -0.3138 C   0  0  0  0  0  0  0  0  0  0  0  0
    4.5158   -2.1208    3.1312 H   0  0  0  0  0  0  0  0  0  0  0  0
    4.6149   -0.4951    3.8253 H   0  0  0  0  0  0  0  0  0  0  0  0
    6.0276   -1.2049    3.0310 H   0  0  0  0  0  0  0  0  0  0  0  0
    3.0010    5.0385    1.4714 H   0  0  0  0  0  0  0  0  0  0  0  0
    2.7214    3.3101    1.2419 H   0  0  0  0  0  0  0  0  0  0  0  0
    2.7599    4.3913   -0.1579 H   0  0  0  0  0  0  0  0  0  0  0  0
    8.3444    3.9209   -1.4195 H   0  0  0  0  0  0  0  0  0  0  0  0
    7.0898    4.9787   -0.7698 H   0  0  0  0  0  0  0  0  0  0  0  0
    6.8108    4.1076   -2.2838 H   0  0  0  0  0  0  0  0  0  0  0  0
    3.3886   -0.4759    1.6128 H   0  0  0  0  0  0  0  0  0  0  0  0
    4.7889   -1.1839    0.8250 H   0  0  0  0  0  0  0  0  0  0  0  0
    5.1660    3.7677    1.6679 H   0  0  0  0  0  0  0  0  0  0  0  0
    5.1841    4.9291    0.3583 H   0  0  0  0  0  0  0  0  0  0  0  0
    7.1823    2.7634    0.4632 H   0  0  0  0  0  0  0  0  0  0  0  0
    6.9425    1.9133   -1.0535 H   0  0  0  0  0  0  0  0  0  0  0  0
    6.1517    0.8363    1.4207 H   0  0  0  0  0  0  0  0  0  0  0  0
    4.7558    1.5453    2.2171 H   0  0  0  0  0  0  0  0  0  0  0  0
    3.4945    1.5156    0.0427 H   0  0  0  0  0  0  0  0  0  0  0  0
    4.8693    0.7824   -0.7548 H   0  0  0  0  0  0  0  0  0  0  0  0
    4.7082    3.1350   -1.2891 H   0  0  0  0  0  0  0  0  0  0  0  0
  1 12  1  0  0  0  0
  1 10  1  0  0  0  0
  1 11  1  0  0  0  0
  2 14  1  0  0  0  0
  2 13  1  0  0  0  0
  3 17  1  0  0  0  0
  3  6  1  0  0  0  0
  4  1  1  0  0  0  0
  5  2  1  0  0  0  0
  5 21  1  0  0  0  0
  6  9  1  0  0  0  0
  6 23  1  0  0  0  0
  7 25  1  0  0  0  0
  7  4  1  0  0  0  0
  7 26  1  0  0  0  0
  8  7  1  0  0  0  0
  9  8  1  0  0  0  0
  9  5  1  0  0  0  0
 15  2  1  0  0  0  0
 16  3  1  0  0  0  0
 18  3  1  0  0  0  0
 19  4  1  0  0  0  0
 20  4  1  0  0  0  0
 22  5  1  0  0  0  0
 24  6  1  0  0  0  0
 27  8  1  0  0  0  0
 28  8  1  0  0  0  0
 29  9  1  0  0  0  0
M  END
>  <HBA>
0

>  <HBD>
0

>  <TPSA>
0.0

>  <cid>
51806

>  <dipole>
0.04

>  <excitation_energy_1>
7.623

>  <excitation_energy_2>
7.738

>  <excitation_energy_3>
7.748

>  <excitation_energy_4>
7.862

>  <homo_energy>
-8.022

>  <homo_lumo_gap>
10.267

>  <logP>
3.613

>  <lumo_energy>
2.245

>  <melting_point>
-28.56

>  <molecular_refractivity>
45.38

>  <oscillator_strength_1>
0.0022

>  <oscillator_strength_2>
0.007

>  <oscillator_strength_3>
0.0057

>  <oscillator_strength_4>
0.0142

>  <open_babel_can_smiles>
CCCCC(CC)CC

>  <mulliken_charges>
29
1   -0.441789
2   -0.449418
3   -0.449322
4   -0.246205
5   -0.257012
6   -0.254948
7   -0.254276
8   -0.269066
9   -0.060262
10   0.140885
11   0.140512
12   0.140697
13   0.140551
14   0.145955
15   0.140745
16   0.141094
17   0.145688
18   0.140777
19   0.129045
20   0.129472
21   0.130833
22   0.132402
23   0.131343
24   0.126913
25   0.131729
26   0.13067
27   0.12869
28   0.123696
29   0.1106

>  <lowdin_charges>
29
1   -0.442755
2   -0.448125
3   -0.443988
4   -0.269698
5   -0.277432
6   -0.275718
7   -0.278016
8   -0.277619
9   -0.126648
10   0.148123
11   0.146383
12   0.143835
13   0.149895
14   0.147461
15   0.14584
16   0.147563
17   0.146431
18   0.144942
19   0.135729
20   0.139023
21   0.138129
22   0.142173
23   0.138889
24   0.139935
25   0.137153
26   0.139202
27   0.137429
28   0.138975
29   0.13289

$$$$

