PCCDB-ID:  12
public computational chemistry database (PCCDB) project, http://pccdb.org

 16 16  0  0  0  0  0  0  0  0999 V2000
   -0.6968    1.2209   -0.0060 C   0  0  0  0  0  0  0  0  0  0  0  0
   -0.6882   -1.2024    0.0003 C   0  0  0  0  0  0  0  0  0  0  0  0
   -1.3865    0.0062   -0.0002 C   0  0  0  0  0  0  0  0  0  0  0  0
    0.7005    1.1997   -0.0106 C   0  0  0  0  0  0  0  0  0  0  0  0
    0.7092   -1.2038   -0.0042 C   0  0  0  0  0  0  0  0  0  0  0  0
    1.4219    0.0038   -0.0094 C   0  0  0  0  0  0  0  0  0  0  0  0
   -2.7567   -0.0640    0.0041 O   0  0  0  0  0  0  0  0  0  0  0  0
    1.4778    2.3378   -0.0185 O   0  0  0  0  0  0  0  0  0  0  0  0
    1.4454   -2.3531   -0.0028 O   0  0  0  0  0  0  0  0  0  0  0  0
    2.7905   -0.0102   -0.0124 O   0  0  0  0  0  0  0  0  0  0  0  0
   -1.2317    2.1692   -0.0102 H   0  0  0  0  0  0  0  0  0  0  0  0
   -1.2451   -2.1352    0.0041 H   0  0  0  0  0  0  0  0  0  0  0  0
   -3.1166    0.8358    0.0017 H   0  0  0  0  0  0  0  0  0  0  0  0
    0.9089    3.1207    0.0121 H   0  0  0  0  0  0  0  0  0  0  0  0
    0.8358   -3.1069    0.0020 H   0  0  0  0  0  0  0  0  0  0  0  0
    3.0800    0.9175   -0.0099 H   0  0  0  0  0  0  0  0  0  0  0  0
  1  3  2  0  0  0  0
  2 12  1  0  0  0  0
  3  2  1  0  0  0  0
  3  7  1  0  0  0  0
  4  6  2  0  0  0  0
  4  1  1  0  0  0  0
  5  9  1  0  0  0  0
  5  2  2  0  0  0  0
  6  5  1  0  0  0  0
  8  4  1  0  0  0  0
  8 14  1  0  0  0  0
  9 15  1  0  0  0  0
 10 16  1  0  0  0  0
 10  6  1  0  0  0  0
 11  1  1  0  0  0  0
 13  7  1  0  0  0  0
M  END
>  <HBA>
4

>  <HBD>
4

>  <TPSA>
80.92

>  <cid>
12

>  <dipole>
3.64

>  <excitation_energy_1>
4.233

>  <excitation_energy_2>
4.569

>  <excitation_energy_3>
4.77

>  <excitation_energy_4>
4.87

>  <homo_energy>
-5.11

>  <homo_lumo_gap>
5.614

>  <logP>
0.509

>  <lumo_energy>
0.503

>  <melting_point>
166.21

>  <molecular_refractivity>
34.53

>  <oscillator_strength_1>
0.0017

>  <oscillator_strength_2>
0.0

>  <oscillator_strength_3>
0.0531

>  <oscillator_strength_4>
0.0004

>  <open_babel_can_smiles>
Oc1cc(O)c(c(c1)O)O

>  <mulliken_charges>
16
1   -0.282653
2   -0.252438
3   0.359775
4   0.313258
5   0.320581
6   0.272677
7   -0.654111
8   -0.680302
9   -0.633286
10   -0.650798
11   0.105139
12   0.12658
13   0.406061
14   0.416583
15   0.409539
16   0.423393

>  <lowdin_charges>
16
1   -0.283783
2   -0.256383
3   0.108187
4   0.073206
5   0.094585
6   0.035349
7   -0.384865
8   -0.398756
9   -0.365086
10   -0.379023
11   0.14979
12   0.164441
13   0.355335
14   0.365007
15   0.360258
16   0.361737

$$$$

