PCCDB-ID:  21082
public computational chemistry database (PCCDB) project, http://pccdb.org

 26 28  0  0  0  0  0  0  0  0999 V2000
   -3.6752   -0.7206    0.0008 C   0  0  0  0  0  0  0  0  0  0  0  0
   -3.6795    0.7020    0.0004 C   0  0  0  0  0  0  0  0  0  0  0  0
    3.6587   -0.6979   -0.0004 C   0  0  0  0  0  0  0  0  0  0  0  0
    3.6543    0.7247   -0.0007 C   0  0  0  0  0  0  0  0  0  0  0  0
   -2.4879   -1.4023    0.0007 C   0  0  0  0  0  0  0  0  0  0  0  0
   -2.4965    1.3911   -0.0001 C   0  0  0  0  0  0  0  0  0  0  0  0
    2.4788   -1.3967   -0.0000 C   0  0  0  0  0  0  0  0  0  0  0  0
    2.4701    1.4161   -0.0008 C   0  0  0  0  0  0  0  0  0  0  0  0
   -1.2259   -0.7276    0.0005 C   0  0  0  0  0  0  0  0  0  0  0  0
   -1.2304    0.7241    0.0000 C   0  0  0  0  0  0  0  0  0  0  0  0
    1.2253   -0.7133   -0.0001 C   0  0  0  0  0  0  0  0  0  0  0  0
    1.2209    0.7249   -0.0005 C   0  0  0  0  0  0  0  0  0  0  0  0
    0.0028   -1.4124    0.0003 C   0  0  0  0  0  0  0  0  0  0  0  0
   -0.0059    1.4165   -0.0005 C   0  0  0  0  0  0  0  0  0  0  0  0
    0.0936   -2.7812    0.0005 O   0  0  0  0  0  0  0  0  0  0  0  0
    0.0764    2.7858   -0.0012 O   0  0  0  0  0  0  0  0  0  0  0  0
   -4.6158   -1.2634    0.0008 H   0  0  0  0  0  0  0  0  0  0  0  0
   -4.6235    1.2391    0.0002 H   0  0  0  0  0  0  0  0  0  0  0  0
    4.6053   -1.2316   -0.0001 H   0  0  0  0  0  0  0  0  0  0  0  0
    4.5976    1.2642   -0.0009 H   0  0  0  0  0  0  0  0  0  0  0  0
   -2.5269   -2.4903    0.0005 H   0  0  0  0  0  0  0  0  0  0  0  0
   -2.5422    2.4788   -0.0009 H   0  0  0  0  0  0  0  0  0  0  0  0
    2.4748   -2.4806    0.0005 H   0  0  0  0  0  0  0  0  0  0  0  0
    2.4594    2.5000   -0.0012 H   0  0  0  0  0  0  0  0  0  0  0  0
   -0.7927   -3.1685    0.0017 H   0  0  0  0  0  0  0  0  0  0  0  0
   -0.8122    3.1676   -0.0001 H   0  0  0  0  0  0  0  0  0  0  0  0
  2  1  2  0  0  0  0
  3 19  1  0  0  0  0
  3  7  2  0  0  0  0
  4  3  1  0  0  0  0
  5  1  1  0  0  0  0
  6 10  2  0  0  0  0
  6  2  1  0  0  0  0
  7 23  1  0  0  0  0
  8  4  2  0  0  0  0
  8 12  1  0  0  0  0
  9  5  2  0  0  0  0
 10  9  1  0  0  0  0
 11  7  1  0  0  0  0
 11 13  2  0  0  0  0
 12 14  2  0  0  0  0
 12 11  1  0  0  0  0
 13 15  1  0  0  0  0
 13  9  1  0  0  0  0
 14 10  1  0  0  0  0
 15 25  1  0  0  0  0
 16 14  1  0  0  0  0
 16 26  1  0  0  0  0
 17  1  1  0  0  0  0
 18  2  1  0  0  0  0
 20  4  1  0  0  0  0
 21  5  1  0  0  0  0
 22  6  1  0  0  0  0
 24  8  1  0  0  0  0
M  END
>  <HBA>
2

>  <HBD>
2

>  <TPSA>
40.46

>  <cid>
21082

>  <dipole>
2.43

>  <excitation_energy_1>
2.727

>  <excitation_energy_2>
3.61

>  <excitation_energy_3>
3.958

>  <excitation_energy_4>
4.026

>  <homo_energy>
-4.659

>  <homo_lumo_gap>
3.176

>  <logP>
3.404

>  <lumo_energy>
-1.483

>  <melting_point>
174.94

>  <molecular_refractivity>
65.5

>  <oscillator_strength_1>
0.0663

>  <oscillator_strength_2>
0.0786

>  <oscillator_strength_3>
0.0

>  <oscillator_strength_4>
0.0045

>  <open_babel_can_smiles>
Oc1c2ccccc2c(c2c1cccc2)O

>  <mulliken_charges>
26
1   -0.139407
2   -0.139519
3   -0.136544
4   -0.136697
5   -0.211252
6   -0.211243
7   -0.172996
8   -0.172995
9   0.136916
10   0.137012
11   0.090009
12   0.090186
13   0.144995
14   0.145023
15   -0.652324
16   -0.652323
17   0.132096
18   0.132093
19   0.128106
20   0.128115
21   0.111281
22   0.111289
23   0.151639
24   0.151649
25   0.417445
26   0.417446

>  <lowdin_charges>
26
1   -0.161271
2   -0.161232
3   -0.158724
4   -0.158775
5   -0.160011
6   -0.160012
7   -0.147125
8   -0.147129
9   -0.039637
10   -0.039637
11   -0.02182
12   -0.021802
13   0.083694
14   0.083686
15   -0.381285
16   -0.381249
17   0.160484
18   0.160449
19   0.157831
20   0.157869
21   0.144665
22   0.144668
23   0.168608
24   0.168611
25   0.354591
26   0.354549

$$$$

