PCCDB-ID:  30207
public computational chemistry database (PCCDB) project, http://pccdb.org

 24 24  0  0  1  0  0  0  0  0999 V2000
    0.9483   -0.4121   -0.1514 C   0  0  0  0  0  0  0  0  0  0  0  0
    3.3336    2.1041    3.0832 C   0  0  0  0  0  0  0  0  0  0  0  0
    0.8841    1.8615    2.5673 C   0  0  0  0  0  0  0  0  0  0  0  0
    3.1973   -1.0754    0.8409 C   0  0  0  0  0  0  0  0  0  0  0  0
    2.6286    1.3283    0.7730 C   0  0  0  0  0  0  0  0  0  0  0  0
    2.4183   -0.0143    0.0524 C   0  0  2  0  0  0  0  0  0  0  0  0
    2.7608   -1.1591    2.2933 C   0  0  0  0  0  0  0  0  0  0  0  0
    2.2886    1.3153    2.2860 C   0  0  0  0  0  0  0  0  0  0  0  0
    2.8047   -2.1770    2.9434 O   0  0  0  0  0  0  0  0  0  0  0  0
    2.2798   -0.0309    2.8732 O   0  0  0  0  0  0  0  0  0  0  0  0
    0.8801   -1.3218   -0.7590 H   0  0  0  0  0  0  0  0  0  0  0  0
    0.3945    0.3785   -0.6708 H   0  0  0  0  0  0  0  0  0  0  0  0
    0.4394   -0.6143    0.7971 H   0  0  0  0  0  0  0  0  0  0  0  0
    3.3833    3.1402    2.7285 H   0  0  0  0  0  0  0  0  0  0  0  0
    4.3258    1.6544    2.9685 H   0  0  0  0  0  0  0  0  0  0  0  0
    3.0807    2.1112    4.1479 H   0  0  0  0  0  0  0  0  0  0  0  0
    0.8298    2.9219    2.2967 H   0  0  0  0  0  0  0  0  0  0  0  0
    0.6496    1.7618    3.6314 H   0  0  0  0  0  0  0  0  0  0  0  0
    0.1230    1.3222    1.9966 H   0  0  0  0  0  0  0  0  0  0  0  0
    4.2712   -0.8401    0.8262 H   0  0  0  0  0  0  0  0  0  0  0  0
    3.0879   -2.0788    0.4198 H   0  0  0  0  0  0  0  0  0  0  0  0
    2.0420    2.1194    0.2909 H   0  0  0  0  0  0  0  0  0  0  0  0
    3.6828    1.6075    0.6489 H   0  0  0  0  0  0  0  0  0  0  0  0
    2.8746    0.0777   -0.9421 H   0  0  0  0  0  0  0  0  0  0  0  0
  1  6  1  0  0  0  0
  1 13  1  0  0  0  0
  2 16  1  0  0  0  0
  3 18  1  0  0  0  0
  4  7  1  0  0  0  0
  5  8  1  0  0  0  0
  6 24  1  6  0  0  0
  6  5  1  0  0  0  0
  6  4  1  0  0  0  0
  7 10  1  0  0  0  0
  7  9  2  0  0  0  0
  8  3  1  0  0  0  0
  8 10  1  0  0  0  0
  8  2  1  0  0  0  0
 11  1  1  0  0  0  0
 12  1  1  0  0  0  0
 14  2  1  0  0  0  0
 15  2  1  0  0  0  0
 17  3  1  0  0  0  0
 19  3  1  0  0  0  0
 20  4  1  0  0  0  0
 21  4  1  0  0  0  0
 22  5  1  0  0  0  0
 23  5  1  0  0  0  0
M  END
>  <HBA>
2

>  <HBD>
0

>  <TPSA>
26.3

>  <cid>
30207

>  <dipole>
4.62

>  <excitation_energy_1>
5.557

>  <excitation_energy_2>
6.335

>  <excitation_energy_3>
6.927

>  <excitation_energy_4>
6.968

>  <homo_energy>
-6.876

>  <homo_lumo_gap>
7.415

>  <logP>
1.738

>  <lumo_energy>
0.539

>  <melting_point>
18.15

>  <molecular_refractivity>
39.78

>  <oscillator_strength_1>
0.0007

>  <oscillator_strength_2>
0.0059

>  <oscillator_strength_3>
0.015

>  <oscillator_strength_4>
0.0067

>  <open_babel_can_smiles>
C[C@@H]1CC(=O)OC(C1)(C)C

>  <mulliken_charges>
24
1   -0.457333
2   -0.449619
3   -0.455457
4   -0.370098
5   -0.31177
6   -0.091452
7   0.59472
8   0.316721
9   -0.457812
10   -0.472676
11   0.15138
12   0.145301
13   0.164934
14   0.145596
15   0.150025
16   0.163182
17   0.14374
18   0.164805
19   0.158666
20   0.167493
21   0.175973
22   0.14752
23   0.141593
24   0.134566

>  <lowdin_charges>
24
1   -0.453314
2   -0.443748
3   -0.44643
4   -0.310338
5   -0.290742
6   -0.123217
7   0.191368
8   0.138158
9   -0.252789
10   -0.197928
11   0.154977
12   0.152394
13   0.155945
14   0.152938
15   0.153692
16   0.159709
17   0.15135
18   0.161057
19   0.159271
20   0.165867
21   0.172068
22   0.156267
23   0.147268
24   0.146178

$$$$

