PCCDB-ID:  29076
public computational chemistry database (PCCDB) project, http://pccdb.org

 15 15  0  0  0  0  0  0  0  0999 V2000
    1.4042   -0.4454    1.0755 C   0  0  0  0  0  0  0  0  0  0  0  0
    5.2408    2.8007    2.3140 C   0  0  0  0  0  0  0  0  0  0  0  0
    4.2307    3.7674    2.2534 C   0  0  0  0  0  0  0  0  0  0  0  0
    4.9252    1.4741    2.0576 C   0  0  0  0  0  0  0  0  0  0  0  0
    2.9446    3.3453    1.9349 C   0  0  0  0  0  0  0  0  0  0  0  0
    3.5902    1.1563    1.7463 C   0  0  0  0  0  0  0  0  0  0  0  0
    2.6183    2.0677    1.6848 N   0  0  0  0  0  0  0  0  0  0  0  0
    3.1924   -0.5523    1.4210 S   0  0  0  0  0  0  0  0  0  0  0  0
    1.0811   -1.4667    0.8583 H   0  0  0  0  0  0  0  0  0  0  0  0
    1.2155    0.1988    0.2154 H   0  0  0  0  0  0  0  0  0  0  0  0
    0.8659   -0.0580    1.9419 H   0  0  0  0  0  0  0  0  0  0  0  0
    6.2620    3.0811    2.5585 H   0  0  0  0  0  0  0  0  0  0  0  0
    4.4363    4.8154    2.4468 H   0  0  0  0  0  0  0  0  0  0  0  0
    5.6824    0.6965    2.0941 H   0  0  0  0  0  0  0  0  0  0  0  0
    2.1252    4.0599    1.8747 H   0  0  0  0  0  0  0  0  0  0  0  0
  1  8  1  0  0  0  0
  1 11  1  0  0  0  0
  2 12  1  0  0  0  0
  3  2  1  0  0  0  0
  3 13  1  0  0  0  0
  4 14  1  0  0  0  0
  4  2  2  0  0  0  0
  5  3  2  0  0  0  0
  6  4  1  0  0  0  0
  7  6  2  0  0  0  0
  7  5  1  0  0  0  0
  8  6  1  0  0  0  0
  9  1  1  0  0  0  0
 10  1  1  0  0  0  0
 15  5  1  0  0  0  0
M  END
>  <HBA>
2

>  <HBD>
0

>  <TPSA>
38.19

>  <cid>
29076

>  <dipole>
1.31

>  <excitation_energy_1>
4.385

>  <excitation_energy_2>
4.937

>  <excitation_energy_3>
5.063

>  <excitation_energy_4>
5.14

>  <homo_energy>
-5.856

>  <homo_lumo_gap>
5.241

>  <logP>
1.804

>  <lumo_energy>
-0.615

>  <melting_point>
31.64

>  <molecular_refractivity>
35.96

>  <oscillator_strength_1>
0.0344

>  <oscillator_strength_2>
0.2553

>  <oscillator_strength_3>
0.0023

>  <oscillator_strength_4>
0.0004

>  <open_babel_can_smiles>
CSc1ccccn1

>  <mulliken_charges>
15
1   -0.572955
2   -0.098506
3   -0.147744
4   -0.154171
5   0.042633
6   0.110505
7   -0.451296
8   0.125285
9   0.17619
10   0.19704
11   0.196896
12   0.145711
13   0.137734
14   0.149541
15   0.143137

>  <lowdin_charges>
15
1   -0.535875
2   -0.121855
3   -0.187288
4   -0.182678
5   -0.08248
6   -0.057839
7   -0.172426
8   0.158569
9   0.172467
10   0.17584
11   0.175911
12   0.164021
13   0.163472
14   0.1716
15   0.158562

$$$$

