PCCDB-ID:  16629
public computational chemistry database (PCCDB) project, http://pccdb.org

 24 24  0  0  1  0  0  0  0  0999 V2000
    1.5749   -0.2518   -0.6830 C   0  0  0  0  0  0  0  0  0  0  0  0
    4.4704    1.6049   -0.6456 C   0  0  0  0  0  0  0  0  0  0  0  0
    4.2921   -1.3297    0.7404 C   0  0  0  0  0  0  0  0  0  0  0  0
    2.8347   -1.4128    1.2206 C   0  0  0  0  0  0  0  0  0  0  0  0
    4.9665   -0.0456    1.2482 C   0  0  0  0  0  0  0  0  0  0  0  0
    2.7140    1.1210    1.2035 C   0  0  0  0  0  0  0  0  0  0  0  0
    1.9936   -0.1884    0.7963 C   0  0  1  0  0  0  0  0  0  0  0  0
    4.2115    1.2340    0.8249 C   0  0  2  0  0  0  0  0  0  0  0  0
    0.9182   -1.1135   -0.8555 H   0  0  0  0  0  0  0  0  0  0  0  0
    2.4252   -0.3512   -1.3646 H   0  0  0  0  0  0  0  0  0  0  0  0
    1.0228    0.6497   -0.9748 H   0  0  0  0  0  0  0  0  0  0  0  0
    5.5308    1.8417   -0.7973 H   0  0  0  0  0  0  0  0  0  0  0  0
    3.8883    2.4874   -0.9374 H   0  0  0  0  0  0  0  0  0  0  0  0
    4.2157    0.7987   -1.3401 H   0  0  0  0  0  0  0  0  0  0  0  0
    4.3309   -1.3677   -0.3566 H   0  0  0  0  0  0  0  0  0  0  0  0
    4.8499   -2.2068    1.0929 H   0  0  0  0  0  0  0  0  0  0  0  0
    2.8347   -1.4780    2.3188 H   0  0  0  0  0  0  0  0  0  0  0  0
    2.3626   -2.3349    0.8557 H   0  0  0  0  0  0  0  0  0  0  0  0
    6.0077    0.0037    0.9022 H   0  0  0  0  0  0  0  0  0  0  0  0
    5.0061   -0.0858    2.3469 H   0  0  0  0  0  0  0  0  0  0  0  0
    2.6501    1.1983    2.2989 H   0  0  0  0  0  0  0  0  0  0  0  0
    2.1646    1.9855    0.8055 H   0  0  0  0  0  0  0  0  0  0  0  0
    1.0595   -0.2170    1.3763 H   0  0  0  0  0  0  0  0  0  0  0  0
    4.6168    2.0645    1.4216 H   0  0  0  0  0  0  0  0  0  0  0  0
  1  7  1  0  0  0  0
  2  8  1  0  0  0  0
  3 16  1  0  0  0  0
  3  4  1  0  0  0  0
  3  5  1  0  0  0  0
  4 17  1  0  0  0  0
  5 20  1  0  0  0  0
  6 21  1  0  0  0  0
  7  6  1  0  0  0  0
  7  4  1  0  0  0  0
  7 23  1  1  0  0  0
  8  6  1  0  0  0  0
  8  5  1  0  0  0  0
  8 24  1  1  0  0  0
  9  1  1  0  0  0  0
 10  1  1  0  0  0  0
 11  1  1  0  0  0  0
 12  2  1  0  0  0  0
 13  2  1  0  0  0  0
 14  2  1  0  0  0  0
 15  3  1  0  0  0  0
 18  4  1  0  0  0  0
 19  5  1  0  0  0  0
 22  6  1  0  0  0  0
M  END
>  <HBA>
0

>  <HBD>
0

>  <TPSA>
0.0

>  <cid>
16629

>  <dipole>
0.12

>  <excitation_energy_1>
7.11

>  <excitation_energy_2>
7.156

>  <excitation_energy_3>
7.555

>  <excitation_energy_4>
7.597

>  <homo_energy>
-7.72

>  <homo_lumo_gap>
9.69

>  <logP>
2.833

>  <lumo_energy>
1.97

>  <melting_point>
-5.31

>  <molecular_refractivity>
38.46

>  <oscillator_strength_1>
0.001

>  <oscillator_strength_2>
0.0041

>  <oscillator_strength_3>
0.036

>  <oscillator_strength_4>
0.0152

>  <open_babel_can_smiles>
C[C@@H]1CCC[C@@H](C1)C

>  <mulliken_charges>
24
1   -0.45
2   -0.450063
3   -0.262591
4   -0.258429
5   -0.258786
6   -0.268041
7   -0.067993
8   -0.067442
9   0.137645
10   0.145629
11   0.138316
12   0.137601
13   0.138294
14   0.145661
15   0.131091
16   0.129129
17   0.123704
18   0.124978
19   0.125036
20   0.123755
21   0.123706
22   0.122764
23   0.11808
24   0.117955

>  <lowdin_charges>
24
1   -0.451353
2   -0.449796
3   -0.279506
4   -0.277209
5   -0.275424
6   -0.280971
7   -0.125437
8   -0.126443
9   0.146957
10   0.146569
11   0.147749
12   0.145084
13   0.147801
14   0.146854
15   0.135602
16   0.144186
17   0.135219
18   0.140894
19   0.139341
20   0.135216
21   0.137678
22   0.14015
23   0.137984
24   0.138854

$$$$

