PCCDB-ID:  14263
public computational chemistry database (PCCDB) project, http://pccdb.org

 16 16  0  0  1  0  0  0  0  0999 V2000
    0.9497    0.0584   -0.0589 C   0  0  0  0  0  0  0  0  0  0  0  0
    4.1100   -0.8772   -1.5425 C   0  0  0  0  0  0  0  0  0  0  0  0
    4.3719    0.6118   -1.5913 C   0  0  0  0  0  0  0  0  0  0  0  0
    3.0964   -1.1786   -0.7274 C   0  0  0  0  0  0  0  0  0  0  0  0
    3.1054    1.2045   -0.9213 C   0  0  0  0  0  0  0  0  0  0  0  0
    2.4837    0.0506   -0.0843 C   0  0  1  0  0  0  0  0  0  0  0  0
    0.5551   -0.7791    0.5292 H   0  0  0  0  0  0  0  0  0  0  0  0
    0.5432   -0.0233   -1.0744 H   0  0  0  0  0  0  0  0  0  0  0  0
    0.5670    0.9856    0.3845 H   0  0  0  0  0  0  0  0  0  0  0  0
    4.7155   -1.5998   -2.0836 H   0  0  0  0  0  0  0  0  0  0  0  0
    4.5252    0.9891   -2.6105 H   0  0  0  0  0  0  0  0  0  0  0  0
    5.2864    0.8620   -1.0313 H   0  0  0  0  0  0  0  0  0  0  0  0
    2.7502   -2.1851   -0.5033 H   0  0  0  0  0  0  0  0  0  0  0  0
    2.3900    1.4988   -1.6998 H   0  0  0  0  0  0  0  0  0  0  0  0
    3.3147    2.0957   -0.3206 H   0  0  0  0  0  0  0  0  0  0  0  0
    2.8357    0.1163    0.9591 H   0  0  0  0  0  0  0  0  0  0  0  0
  1  9  1  0  0  0  0
  1  7  1  0  0  0  0
  2  4  2  0  0  0  0
  3  2  1  0  0  0  0
  3 12  1  0  0  0  0
  3  5  1  0  0  0  0
  4 13  1  0  0  0  0
  4  6  1  0  0  0  0
  5 15  1  0  0  0  0
  5  6  1  0  0  0  0
  6  1  1  0  0  0  0
  6 16  1  1  0  0  0
  8  1  1  0  0  0  0
 10  2  1  0  0  0  0
 11  3  1  0  0  0  0
 14  5  1  0  0  0  0
M  END
>  <HBA>
0

>  <HBD>
0

>  <TPSA>
0.0

>  <cid>
14263

>  <dipole>
0.16

>  <excitation_energy_1>
6.006

>  <excitation_energy_2>
6.408

>  <excitation_energy_3>
6.615

>  <excitation_energy_4>
6.66

>  <homo_energy>
-6.348

>  <homo_lumo_gap>
7.184

>  <logP>
1.972

>  <lumo_energy>
0.835

>  <melting_point>
5.81

>  <molecular_refractivity>
28.37

>  <oscillator_strength_1>
0.019

>  <oscillator_strength_2>
0.0743

>  <oscillator_strength_3>
0.0236

>  <oscillator_strength_4>
0.089

>  <open_babel_can_smiles>
C[C@@H]1CCC=C1

>  <mulliken_charges>
16
1   -0.448489
2   -0.115087
3   -0.302433
4   -0.097501
5   -0.282394
6   -0.104857
7   0.139591
8   0.144077
9   0.141639
10   0.12216
11   0.138857
12   0.142501
13   0.119242
14   0.139219
15   0.132386
16   0.131088

>  <lowdin_charges>
16
1   -0.445558
2   -0.173633
3   -0.276942
4   -0.174567
5   -0.277713
6   -0.120834
7   0.14852
8   0.146735
9   0.149045
10   0.153578
11   0.145002
12   0.146103
13   0.150892
14   0.145957
15   0.144584
16   0.13883

$$$$

