PCCDB-ID:  20525
public computational chemistry database (PCCDB) project, http://pccdb.org

 26 26  0  0  0  0  0  0  0  0999 V2000
    1.9233   -1.1115   -0.1873 C   0  0  0  0  0  0  0  0  0  0  0  0
    6.6819    3.5181    2.3950 C   0  0  0  0  0  0  0  0  0  0  0  0
    5.5075   -0.6277    3.2470 C   0  0  0  0  0  0  0  0  0  0  0  0
    3.6204    3.2169    1.0800 C   0  0  0  0  0  0  0  0  0  0  0  0
    3.6984    0.4442    1.3569 C   0  0  0  0  0  0  0  0  0  0  0  0
    1.8156    3.0889   -0.6224 C   0  0  0  0  0  0  0  0  0  0  0  0
    2.7471    2.4298    0.3103 C   0  0  0  0  0  0  0  0  0  0  0  0
    2.7967    1.0281    0.4565 C   0  0  0  0  0  0  0  0  0  0  0  0
    4.5154    2.6612    1.9746 C   0  0  0  0  0  0  0  0  0  0  0  0
    4.5517    1.2524    2.1172 C   0  0  0  0  0  0  0  0  0  0  0  0
    1.7535    4.2987   -0.7790 O   0  0  0  0  0  0  0  0  0  0  0  0
    1.9368    0.3020   -0.3121 O   0  0  0  0  0  0  0  0  0  0  0  0
    5.3018    3.4692    2.7609 O   0  0  0  0  0  0  0  0  0  0  0  0
    5.4453    0.7734    3.0205 O   0  0  0  0  0  0  0  0  0  0  0  0
    1.1569   -1.4631   -0.8800 H   0  0  0  0  0  0  0  0  0  0  0  0
    1.6616   -1.4228    0.8322 H   0  0  0  0  0  0  0  0  0  0  0  0
    2.8908   -1.5497   -0.4650 H   0  0  0  0  0  0  0  0  0  0  0  0
    7.1544    4.2190    3.0871 H   0  0  0  0  0  0  0  0  0  0  0  0
    6.8026    3.8856    1.3671 H   0  0  0  0  0  0  0  0  0  0  0  0
    7.1581    2.5359    2.4904 H   0  0  0  0  0  0  0  0  0  0  0  0
    6.2685   -0.7700    4.0157 H   0  0  0  0  0  0  0  0  0  0  0  0
    5.8016   -1.1698    2.3389 H   0  0  0  0  0  0  0  0  0  0  0  0
    4.5474   -1.0167    3.6089 H   0  0  0  0  0  0  0  0  0  0  0  0
    3.5727    4.2954    0.9687 H   0  0  0  0  0  0  0  0  0  0  0  0
    3.7322   -0.6299    1.4722 H   0  0  0  0  0  0  0  0  0  0  0  0
    1.1540    2.4125   -1.1950 H   0  0  0  0  0  0  0  0  0  0  0  0
  1 16  1  0  0  0  0
  2 20  1  0  0  0  0
  2 13  1  0  0  0  0
  2 18  1  0  0  0  0
  3 23  1  0  0  0  0
  3 21  1  0  0  0  0
  4  9  2  0  0  0  0
  5 25  1  0  0  0  0
  5 10  2  0  0  0  0
  6  7  1  0  0  0  0
  7  8  2  0  0  0  0
  7  4  1  0  0  0  0
  8  5  1  0  0  0  0
  9 10  1  0  0  0  0
  9 13  1  0  0  0  0
 10 14  1  0  0  0  0
 11  6  2  0  0  0  0
 12  1  1  0  0  0  0
 12  8  1  0  0  0  0
 14  3  1  0  0  0  0
 15  1  1  0  0  0  0
 17  1  1  0  0  0  0
 19  2  1  0  0  0  0
 22  3  1  0  0  0  0
 24  4  1  0  0  0  0
 26  6  1  0  0  0  0
M  END
>  <HBA>
4

>  <HBD>
0

>  <TPSA>
44.76

>  <cid>
20525

>  <dipole>
6.99

>  <excitation_energy_1>
3.659

>  <excitation_energy_2>
4.041

>  <excitation_energy_3>
4.834

>  <excitation_energy_4>
5.144

>  <homo_energy>
-5.818

>  <homo_lumo_gap>
4.58

>  <logP>
1.525

>  <lumo_energy>
-1.238

>  <melting_point>
55.41

>  <molecular_refractivity>
51.31

>  <oscillator_strength_1>
0.0003

>  <oscillator_strength_2>
0.156

>  <oscillator_strength_3>
0.1894

>  <oscillator_strength_4>
0.0001

>  <open_babel_can_smiles>
COc1cc(C=O)c(cc1OC)OC

>  <mulliken_charges>
26
1   -0.21596
2   -0.208847
3   -0.218862
4   -0.233305
5   -0.291799
6   0.194064
7   0.034371
8   0.340633
9   0.321748
10   0.367911
11   -0.424684
12   -0.511373
13   -0.521968
14   -0.49847
15   0.178183
16   0.155596
17   0.154429
18   0.161048
19   0.142147
20   0.152757
21   0.178704
22   0.15524
23   0.158751
24   0.170657
25   0.13975
26   0.119276

>  <lowdin_charges>
26
1   -0.275438
2   -0.272872
3   -0.277055
4   -0.130072
5   -0.266728
6   0.039049
7   -0.097117
8   0.116339
9   0.052314
10   0.104416
11   -0.247996
12   -0.193202
13   -0.223915
14   -0.179736
15   0.168578
16   0.14666
17   0.146631
18   0.158724
19   0.138826
20   0.144356
21   0.168355
22   0.147713
23   0.149668
24   0.183774
25   0.167556
26   0.131174

$$$$

