PCCDB-ID:  42666
public computational chemistry database (PCCDB) project, http://pccdb.org

 32 33  0  0  1  0  0  0  0  0999 V2000
    0.6555    0.5077    0.0216 C   0  0  0  0  0  0  0  0  0  0  0  0
    2.5274    0.2650   -1.6625 C   0  0  0  0  0  0  0  0  0  0  0  0
    1.9540    0.1851    7.0943 C   0  0  0  0  0  0  0  0  0  0  0  0
    2.3200    1.1548    6.1593 C   0  0  0  0  0  0  0  0  0  0  0  0
    2.4114   -1.1272    6.9520 C   0  0  0  0  0  0  0  0  0  0  0  0
    3.1367    0.8219    5.0773 C   0  0  0  0  0  0  0  0  0  0  0  0
    3.2366   -1.4646    5.8808 C   0  0  0  0  0  0  0  0  0  0  0  0
    2.7627   -0.8070    0.6572 C   0  0  0  0  0  0  0  0  0  0  0  0
    3.5982   -0.4948    4.9290 C   0  0  0  0  0  0  0  0  0  0  0  0
    3.1572   -0.1435    1.9844 C   0  0  2  0  0  0  0  0  0  0  0  0
    4.4972   -0.8854    3.7972 C   0  0  0  0  0  0  0  0  0  0  0  0
    3.3724    1.3244    1.5628 C   0  0  0  0  0  0  0  0  0  0  0  0
    2.1637    0.3413   -0.1837 C   0  0  0  0  0  0  0  0  0  0  0  0
    4.3501   -0.7244    2.5456 N   0  0  0  0  0  0  0  0  0  0  0  0
    5.6218   -1.5623    4.1830 O   0  0  0  0  0  0  0  0  0  0  0  0
    3.9225    2.1937    2.1936 O   0  0  0  0  0  0  0  0  0  0  0  0
    2.8133    1.5448    0.3519 O   0  0  0  0  0  0  0  0  0  0  0  0
    0.1161   -0.3396   -0.4163 H   0  0  0  0  0  0  0  0  0  0  0  0
    0.3055    1.4271   -0.4584 H   0  0  0  0  0  0  0  0  0  0  0  0
    0.4009    0.5600    1.0859 H   0  0  0  0  0  0  0  0  0  0  0  0
    2.1105   -0.6461   -2.1063 H   0  0  0  0  0  0  0  0  0  0  0  0
    3.6143    0.2457   -1.7889 H   0  0  0  0  0  0  0  0  0  0  0  0
    2.1296    1.1275   -2.2072 H   0  0  0  0  0  0  0  0  0  0  0  0
    1.3175    0.4506    7.9342 H   0  0  0  0  0  0  0  0  0  0  0  0
    1.9758    2.1790    6.2740 H   0  0  0  0  0  0  0  0  0  0  0  0
    2.1261   -1.8869    7.6746 H   0  0  0  0  0  0  0  0  0  0  0  0
    3.4391    1.5757    4.3562 H   0  0  0  0  0  0  0  0  0  0  0  0
    3.5864   -2.4875    5.7650 H   0  0  0  0  0  0  0  0  0  0  0  0
    2.0615   -1.6373    0.7809 H   0  0  0  0  0  0  0  0  0  0  0  0
    3.6736   -1.1934    0.1893 H   0  0  0  0  0  0  0  0  0  0  0  0
    2.3044   -0.1323    2.6840 H   0  0  0  0  0  0  0  0  0  0  0  0
    5.7228   -1.4630    5.1429 H   0  0  0  0  0  0  0  0  0  0  0  0
  1 20  1  0  0  0  0
  2 13  1  0  0  0  0
  3 24  1  0  0  0  0
  4 25  1  0  0  0  0
  4  3  2  0  0  0  0
  5  3  1  0  0  0  0
  5 26  1  0  0  0  0
  6  4  1  0  0  0  0
  7  5  2  0  0  0  0
  8 29  1  0  0  0  0
  8 10  1  0  0  0  0
  9  6  2  0  0  0  0
  9  7  1  0  0  0  0
 10 14  1  0  0  0  0
 10 31  1  1  0  0  0
 11 15  1  0  0  0  0
 11  9  1  0  0  0  0
 12 10  1  0  0  0  0
 12 16  2  0  0  0  0
 13  1  1  0  0  0  0
 13 17  1  0  0  0  0
 13  8  1  0  0  0  0
 14 11  2  0  0  0  0
 15 32  1  0  0  0  0
 17 12  1  0  0  0  0
 18  1  1  0  0  0  0
 19  1  1  0  0  0  0
 21  2  1  0  0  0  0
 22  2  1  0  0  0  0
 23  2  1  0  0  0  0
 27  6  1  0  0  0  0
 28  7  1  0  0  0  0
 30  8  1  0  0  0  0
M  END
>  <HBA>
4

>  <HBD>
1

>  <TPSA>
55.4

>  <cid>
42666

>  <dipole>
4.74

>  <excitation_energy_1>
4.853

>  <excitation_energy_2>
4.986

>  <excitation_energy_3>
5.118

>  <excitation_energy_4>
5.504

>  <homo_energy>
-6.648

>  <homo_lumo_gap>
5.676

>  <logP>
1.901

>  <lumo_energy>
-0.971

>  <melting_point>
108.11

>  <molecular_refractivity>
62.68

>  <oscillator_strength_1>
0.0022

>  <oscillator_strength_2>
0.1102

>  <oscillator_strength_3>
0.0018

>  <oscillator_strength_4>
0.0309

>  <open_babel_can_smiles>
O/C(=N/[C@@H]1CC(OC1=O)(C)C)/c1ccccc1

>  <mulliken_charges>
32
1   -0.452423
2   -0.455271
3   -0.120585
4   -0.140693
5   -0.130975
6   -0.174272
7   -0.181119
8   -0.308733
9   0.018561
10   -0.100842
11   0.429273
12   0.638235
13   0.295149
14   -0.407643
15   -0.578043
16   -0.46588
17   -0.467146
18   0.149766
19   0.164415
20   0.151365
21   0.149202
22   0.163561
23   0.159823
24   0.139355
25   0.144853
26   0.139284
27   0.200746
28   0.147191
29   0.150871
30   0.174251
31   0.160186
32   0.407538

>  <lowdin_charges>
32
1   -0.450855
2   -0.444642
3   -0.145922
4   -0.149759
5   -0.155617
6   -0.155582
7   -0.1642
8   -0.29156
9   -0.052683
10   -0.099939
11   0.136111
12   0.19064
13   0.132951
14   -0.191144
15   -0.357714
16   -0.245629
17   -0.180258
18   0.15755
19   0.162684
20   0.152758
21   0.157626
22   0.160432
23   0.160935
24   0.16283
25   0.163893
26   0.163392
27   0.189119
28   0.16321
29   0.157664
30   0.167032
31   0.152104
32   0.354574

$$$$

