PCCDB-ID:  108
public computational chemistry database (PCCDB) project, http://pccdb.org

 17 17  0  0  0  0  0  0  0  0999 V2000
   -0.7337    1.2828   -0.1391 C   0  0  0  0  0  0  0  0  0  0  0  0
   -1.2094   -0.0241   -0.1677 C   0  0  0  0  0  0  0  0  0  0  0  0
    0.6441    1.4904   -0.0266 C   0  0  0  0  0  0  0  0  0  0  0  0
   -0.7525   -2.5285   -0.1276 C   0  0  0  0  0  0  0  0  0  0  0  0
    1.0578   -0.7548    0.0380 C   0  0  0  0  0  0  0  0  0  0  0  0
   -0.2994   -1.0876   -0.0790 C   0  0  0  0  0  0  0  0  0  0  0  0
   -1.0823   -3.0726   -1.5285 C   0  0  0  0  0  0  0  0  0  0  0  0
    1.5333    0.4961    0.0618 N   0  0  0  0  0  0  0  0  0  0  0  0
   -1.8968   -3.9394   -1.7169 O   0  0  0  0  0  0  0  0  0  0  0  0
   -0.3656   -2.5566   -2.5558 O   0  0  0  0  0  0  0  0  0  0  0  0
   -1.4130    2.1275   -0.2016 H   0  0  0  0  0  0  0  0  0  0  0  0
   -2.2749   -0.2237   -0.2550 H   0  0  0  0  0  0  0  0  0  0  0  0
    1.0499    2.5002   -0.0041 H   0  0  0  0  0  0  0  0  0  0  0  0
   -1.6456   -2.6910    0.4817 H   0  0  0  0  0  0  0  0  0  0  0  0
    0.0306   -3.1805    0.2822 H   0  0  0  0  0  0  0  0  0  0  0  0
    1.8022   -1.5470    0.1295 H   0  0  0  0  0  0  0  0  0  0  0  0
    0.2064   -1.8384   -2.2313 H   0  0  0  0  0  0  0  0  0  0  0  0
  1  3  1  0  0  0  0
  2  1  2  0  0  0  0
  2  6  1  0  0  0  0
  3 13  1  0  0  0  0
  3  8  2  0  0  0  0
  4  6  1  0  0  0  0
  4 15  1  0  0  0  0
  4 14  1  0  0  0  0
  5  8  1  0  0  0  0
  5 16  1  0  0  0  0
  6  5  2  0  0  0  0
  7  4  1  0  0  0  0
  9  7  2  0  0  0  0
 10 17  1  0  0  0  0
 10  7  1  0  0  0  0
 11  1  1  0  0  0  0
 12  2  1  0  0  0  0
M  END
>  <HBA>
3

>  <HBD>
1

>  <TPSA>
50.19

>  <cid>
108

>  <dipole>
3.58

>  <excitation_energy_1>
4.708

>  <excitation_energy_2>
5.031

>  <excitation_energy_3>
5.173

>  <excitation_energy_4>
5.56

>  <homo_energy>
-7.159

>  <homo_lumo_gap>
5.845

>  <logP>
0.709

>  <lumo_energy>
-1.314

>  <melting_point>
99.15

>  <molecular_refractivity>
35.78

>  <oscillator_strength_1>
0.0059

>  <oscillator_strength_2>
0.0007

>  <oscillator_strength_3>
0.0423

>  <oscillator_strength_4>
0.0548

>  <open_babel_can_smiles>
OC(=O)Cc1cccnc1

>  <mulliken_charges>
17
1   -0.136679
2   -0.130683
3   0.041707
4   -0.459708
5   -0.022181
6   0.089985
7   0.59439
8   -0.397318
9   -0.435846
10   -0.56014
11   0.150565
12   0.158816
13   0.153289
14   0.195244
15   0.194712
16   0.149573
17   0.414275

>  <lowdin_charges>
17
1   -0.16721
2   -0.128083
3   -0.08206
4   -0.315254
5   -0.113612
6   -0.044064
7   0.188377
8   -0.140418
9   -0.235735
10   -0.35148
11   0.171341
12   0.168158
13   0.16167
14   0.184754
15   0.183126
16   0.15967
17   0.360821

$$$$

