PCCDB-ID:  68321
public computational chemistry database (PCCDB) project, http://pccdb.org

 30 29  0  0  0  0  0  0  0  0999 V2000
    2.4788   -3.3485   -1.9448 C   0  0  0  0  0  0  0  0  0  0  0  0
    4.5739   -1.9791   -2.3754 C   0  0  0  0  0  0  0  0  0  0  0  0
    7.0346   -2.4526    5.4447 C   0  0  0  0  0  0  0  0  0  0  0  0
    6.1703   -0.1886    4.6837 C   0  0  0  0  0  0  0  0  0  0  0  0
    3.3418   -1.8195   -0.1643 C   0  0  0  0  0  0  0  0  0  0  0  0
    6.8436   -1.9640    3.0012 C   0  0  0  0  0  0  0  0  0  0  0  0
    3.7416   -2.7299   -1.3275 C   0  0  0  0  0  0  0  0  0  0  0  0
    6.2342   -1.6908    4.3781 C   0  0  0  0  0  0  0  0  0  0  0  0
    5.0570   -1.9961    1.4538 C   0  0  0  0  0  0  0  0  0  0  0  0
    4.6840   -3.0929    1.8161 O   0  0  0  0  0  0  0  0  0  0  0  0
    4.4914   -1.2421    0.4983 O   0  0  0  0  0  0  0  0  0  0  0  0
    6.1117   -1.3186    1.9328 O   0  0  0  0  0  0  0  0  0  0  0  0
    2.7412   -4.0226   -2.7675 H   0  0  0  0  0  0  0  0  0  0  0  0
    1.8159   -2.5736   -2.3521 H   0  0  0  0  0  0  0  0  0  0  0  0
    1.9094   -3.9259   -1.2071 H   0  0  0  0  0  0  0  0  0  0  0  0
    4.9035   -2.6584   -3.1698 H   0  0  0  0  0  0  0  0  0  0  0  0
    5.4617   -1.5234   -1.9262 H   0  0  0  0  0  0  0  0  0  0  0  0
    3.9861   -1.1786   -2.8442 H   0  0  0  0  0  0  0  0  0  0  0  0
    6.6024   -2.2951    6.4389 H   0  0  0  0  0  0  0  0  0  0  0  0
    8.0766   -2.1079    5.4797 H   0  0  0  0  0  0  0  0  0  0  0  0
    7.0425   -3.5316    5.2503 H   0  0  0  0  0  0  0  0  0  0  0  0
    5.6776   -0.0078    5.6458 H   0  0  0  0  0  0  0  0  0  0  0  0
    5.6165    0.3527    3.9103 H   0  0  0  0  0  0  0  0  0  0  0  0
    7.1787    0.2426    4.7390 H   0  0  0  0  0  0  0  0  0  0  0  0
    2.7465   -2.3648    0.5726 H   0  0  0  0  0  0  0  0  0  0  0  0
    2.7758   -0.9530   -0.5211 H   0  0  0  0  0  0  0  0  0  0  0  0
    6.8854   -3.0374    2.7987 H   0  0  0  0  0  0  0  0  0  0  0  0
    7.8497   -1.5393    2.9283 H   0  0  0  0  0  0  0  0  0  0  0  0
    4.3499   -3.5405   -0.9045 H   0  0  0  0  0  0  0  0  0  0  0  0
    5.2128   -2.0939    4.3625 H   0  0  0  0  0  0  0  0  0  0  0  0
  1  7  1  0  0  0  0
  1 15  1  0  0  0  0
  2 17  1  0  0  0  0
  2  7  1  0  0  0  0
  3 20  1  0  0  0  0
  3 19  1  0  0  0  0
  4 24  1  0  0  0  0
  4 22  1  0  0  0  0
  5 11  1  0  0  0  0
  5 25  1  0  0  0  0
  6  8  1  0  0  0  0
  7 29  1  0  0  0  0
  7  5  1  0  0  0  0
  8  4  1  0  0  0  0
  8  3  1  0  0  0  0
  9 10  2  0  0  0  0
  9 12  1  0  0  0  0
 11  9  1  0  0  0  0
 12  6  1  0  0  0  0
 13  1  1  0  0  0  0
 14  1  1  0  0  0  0
 16  2  1  0  0  0  0
 18  2  1  0  0  0  0
 21  3  1  0  0  0  0
 23  4  1  0  0  0  0
 26  5  1  0  0  0  0
 27  6  1  0  0  0  0
 28  6  1  0  0  0  0
 30  8  1  0  0  0  0
M  END
>  <HBA>
3

>  <HBD>
0

>  <TPSA>
35.53

>  <cid>
68321

>  <dipole>
0.12

>  <excitation_energy_1>
6.902

>  <excitation_energy_2>
7.382

>  <excitation_energy_3>
7.548

>  <excitation_energy_4>
7.693

>  <homo_energy>
-7.636

>  <homo_lumo_gap>
8.844

>  <logP>
2.452

>  <lumo_energy>
1.208

>  <melting_point>
-14.73

>  <molecular_refractivity>
48.14

>  <oscillator_strength_1>
0.0005

>  <oscillator_strength_2>
0.0107

>  <oscillator_strength_3>
0.0001

>  <oscillator_strength_4>
0.0677

>  <open_babel_can_smiles>
CC(COC(=O)OCC(C)C)C

>  <mulliken_charges>
30
1   -0.452485
2   -0.445356
3   -0.452739
4   -0.445088
5   -0.039127
6   -0.038614
7   -0.097984
8   -0.098716
9   0.798
10   -0.499616
11   -0.46429
12   -0.464324
13   0.150356
14   0.140608
15   0.150013
16   0.143318
17   0.16145
18   0.137466
19   0.150565
20   0.140854
21   0.150195
22   0.143449
23   0.161283
24   0.137507
25   0.166476
26   0.14835
27   0.166434
28   0.148215
29   0.151923
30   0.15188

>  <lowdin_charges>
30
1   -0.446989
2   -0.449942
3   -0.440252
4   -0.448095
5   -0.132013
6   -0.127327
7   -0.135411
8   -0.133281
9   0.228968
10   -0.299311
11   -0.177776
12   -0.177259
13   0.155487
14   0.147429
15   0.153705
16   0.151279
17   0.158232
18   0.146347
19   0.15432
20   0.145247
21   0.150705
22   0.150279
23   0.158845
24   0.144719
25   0.1601
26   0.152273
27   0.156579
28   0.150321
29   0.152502
30   0.150318

$$$$

