PCCDB-ID:  12100
public computational chemistry database (PCCDB) project, http://pccdb.org

 21 21  0  0  0  0  0  0  0  0999 V2000
    1.3971    0.7625    0.8497 C   0  0  0  0  0  0  0  0  0  0  0  0
    5.6324   -1.9715    3.5940 C   0  0  0  0  0  0  0  0  0  0  0  0
    2.5220    0.0043    0.1222 C   0  0  0  0  0  0  0  0  0  0  0  0
    2.8684   -3.5472    1.4838 C   0  0  0  0  0  0  0  0  0  0  0  0
    3.9092   -3.3974    2.4008 C   0  0  0  0  0  0  0  0  0  0  0  0
    2.4265   -2.4552    0.7378 C   0  0  0  0  0  0  0  0  0  0  0  0
    4.0646   -1.0681    1.8236 C   0  0  0  0  0  0  0  0  0  0  0  0
    4.5206   -2.1513    2.5855 C   0  0  0  0  0  0  0  0  0  0  0  0
    3.0202   -1.1966    0.9001 C   0  0  0  0  0  0  0  0  0  0  0  0
    1.0590    1.6229    0.2604 H   0  0  0  0  0  0  0  0  0  0  0  0
    1.7386    1.1301    1.8239 H   0  0  0  0  0  0  0  0  0  0  0  0
    0.5344    0.1100    1.0254 H   0  0  0  0  0  0  0  0  0  0  0  0
    6.1591   -2.9130    3.7825 H   0  0  0  0  0  0  0  0  0  0  0  0
    5.2430   -1.6175    4.5581 H   0  0  0  0  0  0  0  0  0  0  0  0
    6.3682   -1.2346    3.2534 H   0  0  0  0  0  0  0  0  0  0  0  0
    3.3561    0.6923   -0.0657 H   0  0  0  0  0  0  0  0  0  0  0  0
    2.1588   -0.3207   -0.8611 H   0  0  0  0  0  0  0  0  0  0  0  0
    2.4072   -4.5217    1.3435 H   0  0  0  0  0  0  0  0  0  0  0  0
    4.2544   -4.2552    2.9738 H   0  0  0  0  0  0  0  0  0  0  0  0
    1.6201   -2.5801    0.0181 H   0  0  0  0  0  0  0  0  0  0  0  0
    4.5404   -0.0963    1.9501 H   0  0  0  0  0  0  0  0  0  0  0  0
  1 12  1  0  0  0  0
  1 11  1  0  0  0  0
  2 13  1  0  0  0  0
  2 14  1  0  0  0  0
  3  1  1  0  0  0  0
  3  9  1  0  0  0  0
  4  5  2  0  0  0  0
  5  8  1  0  0  0  0
  5 19  1  0  0  0  0
  6  9  2  0  0  0  0
  6  4  1  0  0  0  0
  7 21  1  0  0  0  0
  7  8  2  0  0  0  0
  8  2  1  0  0  0  0
  9  7  1  0  0  0  0
 10  1  1  0  0  0  0
 15  2  1  0  0  0  0
 16  3  1  0  0  0  0
 17  3  1  0  0  0  0
 18  4  1  0  0  0  0
 20  6  1  0  0  0  0
M  END
>  <HBA>
0

>  <HBD>
0

>  <TPSA>
0.0

>  <cid>
12100

>  <dipole>
0.3

>  <excitation_energy_1>
5.189

>  <excitation_energy_2>
5.742

>  <excitation_energy_3>
5.887

>  <excitation_energy_4>
6.043

>  <homo_energy>
-6.259

>  <homo_lumo_gap>
6.438

>  <logP>
2.557

>  <lumo_energy>
0.18

>  <melting_point>
11.33

>  <molecular_refractivity>
41.18

>  <oscillator_strength_1>
0.002

>  <oscillator_strength_2>
0.0287

>  <oscillator_strength_3>
0.0036

>  <oscillator_strength_4>
0.0182

>  <open_babel_can_smiles>
CCc1cccc(c1)C

>  <mulliken_charges>
21
1   -0.432745
2   -0.528924
3   -0.339293
4   -0.1247
5   -0.184499
6   -0.187095
7   -0.237269
8   0.182556
9   0.181861
10   0.142021
11   0.148505
12   0.14904
13   0.154634
14   0.163897
15   0.156019
16   0.141466
17   0.141455
18   0.124928
19   0.117933
20   0.118318
21   0.111893

>  <lowdin_charges>
21
1   -0.441206
2   -0.443309
3   -0.271054
4   -0.153901
5   -0.175395
6   -0.174012
7   -0.179269
8   0.003561
9   0.0016
10   0.149151
11   0.149928
12   0.150938
13   0.156879
14   0.160696
15   0.15837
16   0.14863
17   0.147657
18   0.155178
19   0.153448
20   0.152786
21   0.149323

$$$$

