PCCDB-ID:  19460
public computational chemistry database (PCCDB) project, http://pccdb.org

 22 21  0  0  0  0  0  0  0  0999 V2000
    1.6233   -0.6122    0.7566 C   0  0  0  0  0  0  0  0  0  0  0  0
    8.1458   -3.5807   -3.4203 C   0  0  0  0  0  0  0  0  0  0  0  0
    2.3209   -0.2176   -0.3091 C   0  0  0  0  0  0  0  0  0  0  0  0
    7.2576   -2.6071   -3.6240 C   0  0  0  0  0  0  0  0  0  0  0  0
    2.9430   -1.1317   -1.3295 C   0  0  0  0  0  0  0  0  0  0  0  0
    6.6423   -1.7518   -2.5499 C   0  0  0  0  0  0  0  0  0  0  0  0
    4.4755   -0.9917   -1.4066 C   0  0  0  0  0  0  0  0  0  0  0  0
    5.1099   -1.8921   -2.4735 C   0  0  0  0  0  0  0  0  0  0  0  0
    1.2045    0.0988    1.4641 H   0  0  0  0  0  0  0  0  0  0  0  0
    1.4401   -1.6655    0.9610 H   0  0  0  0  0  0  0  0  0  0  0  0
    8.5491   -4.1705   -4.2393 H   0  0  0  0  0  0  0  0  0  0  0  0
    8.5080   -3.8235   -2.4230 H   0  0  0  0  0  0  0  0  0  0  0  0
    2.4806    0.8505   -0.4706 H   0  0  0  0  0  0  0  0  0  0  0  0
    6.9222   -2.4021   -4.6427 H   0  0  0  0  0  0  0  0  0  0  0  0
    2.5212   -0.9110   -2.3226 H   0  0  0  0  0  0  0  0  0  0  0  0
    2.6781   -2.1731   -1.1032 H   0  0  0  0  0  0  0  0  0  0  0  0
    6.8875   -0.6950   -2.7394 H   0  0  0  0  0  0  0  0  0  0  0  0
    7.0855   -2.0045   -1.5775 H   0  0  0  0  0  0  0  0  0  0  0  0
    4.9048   -1.2249   -0.4225 H   0  0  0  0  0  0  0  0  0  0  0  0
    4.7350    0.0572   -1.6126 H   0  0  0  0  0  0  0  0  0  0  0  0
    4.8572   -2.9418   -2.2702 H   0  0  0  0  0  0  0  0  0  0  0  0
    4.6742   -1.6572   -3.4558 H   0  0  0  0  0  0  0  0  0  0  0  0
  1 10  1  0  0  0  0
  1  9  1  0  0  0  0
  2 12  1  0  0  0  0
  3  1  2  0  0  0  0
  4  2  2  0  0  0  0
  4  6  1  0  0  0  0
  5 16  1  0  0  0  0
  5  3  1  0  0  0  0
  6  8  1  0  0  0  0
  6 18  1  0  0  0  0
  7  5  1  0  0  0  0
  7 19  1  0  0  0  0
  8 21  1  0  0  0  0
  8  7  1  0  0  0  0
 11  2  1  0  0  0  0
 13  3  1  0  0  0  0
 14  4  1  0  0  0  0
 15  5  1  0  0  0  0
 17  6  1  0  0  0  0
 20  7  1  0  0  0  0
 22  8  1  0  0  0  0
M  END
>  <HBA>
0

>  <HBD>
0

>  <TPSA>
0.0

>  <cid>
19460

>  <dipole>
0.28

>  <excitation_energy_1>
6.472

>  <excitation_energy_2>
6.509

>  <excitation_energy_3>
6.627

>  <excitation_energy_4>
6.685

>  <homo_energy>
-6.716

>  <homo_lumo_gap>
7.323

>  <logP>
2.919

>  <lumo_energy>
0.607

>  <melting_point>
-69.09

>  <molecular_refractivity>
39.62

>  <oscillator_strength_1>
0.0084

>  <oscillator_strength_2>
0.0668

>  <oscillator_strength_3>
0.161

>  <oscillator_strength_4>
0.0111

>  <open_babel_can_smiles>
C=CCCCCC=C

>  <mulliken_charges>
22
1   -0.341577
2   -0.341627
3   -0.041013
4   -0.040906
5   -0.301082
6   -0.301152
7   -0.254616
8   -0.254613
9   0.136981
10   0.133525
11   0.13697
12   0.133541
13   0.122149
14   0.122135
15   0.139707
16   0.13728
17   0.139754
18   0.137263
19   0.139141
20   0.129507
21   0.13916
22   0.129473

>  <lowdin_charges>
22
1   -0.344967
2   -0.345783
3   -0.142075
4   -0.143007
5   -0.2699
6   -0.269749
7   -0.271498
8   -0.271548
9   0.158496
10   0.151756
11   0.158345
12   0.152642
13   0.146157
14   0.147039
15   0.146768
16   0.144566
17   0.145853
18   0.145493
19   0.14324
20   0.137466
21   0.142295
22   0.13841

$$$$

