PCCDB-ID:  13847
public computational chemistry database (PCCDB) project, http://pccdb.org

 26 25  0  0  0  0  0  0  0  0999 V2000
    4.8699   -0.9274   -6.3363 C   0  0  0  0  0  0  0  0  0  0  0  0
   -0.9721   -0.4901   -0.2989 C   0  0  0  0  0  0  0  0  0  0  0  0
    3.6772   -0.6023   -5.4366 C   0  0  0  0  0  0  0  0  0  0  0  0
    1.2439   -1.0891    0.1949 C   0  0  0  0  0  0  0  0  0  0  0  0
    2.4261   -1.8855   -0.3217 C   0  0  0  0  0  0  0  0  0  0  0  0
    4.5034   -1.2323   -3.2879 C   0  0  0  0  0  0  0  0  0  0  0  0
    4.0478   -1.9458   -2.0290 C   0  0  0  0  0  0  0  0  0  0  0  0
    0.1446   -1.2644   -0.6729 O   0  0  0  0  0  0  0  0  0  0  0  0
    3.5572   -1.4600   -4.3124 O   0  0  0  0  0  0  0  0  0  0  0  0
    2.9484   -1.2550   -1.4722 O   0  0  0  0  0  0  0  0  0  0  0  0
    4.8567   -0.2896   -7.2282 H   0  0  0  0  0  0  0  0  0  0  0  0
    4.8302   -1.9733   -6.6593 H   0  0  0  0  0  0  0  0  0  0  0  0
    5.8252   -0.7623   -5.8257 H   0  0  0  0  0  0  0  0  0  0  0  0
   -1.3363   -0.7531    0.7088 H   0  0  0  0  0  0  0  0  0  0  0  0
   -1.7636   -0.6932   -1.0251 H   0  0  0  0  0  0  0  0  0  0  0  0
   -0.7446    0.5884   -0.3107 H   0  0  0  0  0  0  0  0  0  0  0  0
    2.7436   -0.7313   -5.9945 H   0  0  0  0  0  0  0  0  0  0  0  0
    3.7236    0.4485   -5.1049 H   0  0  0  0  0  0  0  0  0  0  0  0
    1.5252   -0.0249    0.2637 H   0  0  0  0  0  0  0  0  0  0  0  0
    0.9937   -1.4354    1.2141 H   0  0  0  0  0  0  0  0  0  0  0  0
    2.1017   -2.9138   -0.5498 H   0  0  0  0  0  0  0  0  0  0  0  0
    3.1928   -1.9434    0.4722 H   0  0  0  0  0  0  0  0  0  0  0  0
    5.5010   -1.6109   -3.5667 H   0  0  0  0  0  0  0  0  0  0  0  0
    4.6000   -0.1547   -3.0761 H   0  0  0  0  0  0  0  0  0  0  0  0
    4.8869   -1.9825   -1.3109 H   0  0  0  0  0  0  0  0  0  0  0  0
    3.7742   -2.9838   -2.2785 H   0  0  0  0  0  0  0  0  0  0  0  0
  1 13  1  0  0  0  0
  1  3  1  0  0  0  0
  2 14  1  0  0  0  0
  3 18  1  0  0  0  0
  3  9  1  0  0  0  0
  4 19  1  0  0  0  0
  4 20  1  0  0  0  0
  5  4  1  0  0  0  0
  5 22  1  0  0  0  0
  6 24  1  0  0  0  0
  6  7  1  0  0  0  0
  7 10  1  0  0  0  0
  7 25  1  0  0  0  0
  8  2  1  0  0  0  0
  8  4  1  0  0  0  0
  9  6  1  0  0  0  0
 10  5  1  0  0  0  0
 11  1  1  0  0  0  0
 12  1  1  0  0  0  0
 15  2  1  0  0  0  0
 16  2  1  0  0  0  0
 17  3  1  0  0  0  0
 21  5  1  0  0  0  0
 23  6  1  0  0  0  0
 26  7  1  0  0  0  0
M  END
>  <HBA>
3

>  <HBD>
0

>  <TPSA>
27.69

>  <cid>
13847

>  <dipole>
1.62

>  <excitation_energy_1>
6.336

>  <excitation_energy_2>
6.433

>  <excitation_energy_3>
6.568

>  <excitation_energy_4>
6.746

>  <homo_energy>
-6.558

>  <homo_lumo_gap>
9.032

>  <logP>
0.686

>  <lumo_energy>
2.474

>  <melting_point>
-54.08

>  <molecular_refractivity>
39.02

>  <oscillator_strength_1>
0.0135

>  <oscillator_strength_2>
0.0097

>  <oscillator_strength_3>
0.0486

>  <oscillator_strength_4>
0.0045

>  <open_babel_can_smiles>
COCCOCCOCC

>  <mulliken_charges>
26
1   -0.462053
2   -0.188883
3   -0.011189
4   -0.019925
5   -0.015988
6   -0.023353
7   -0.015865
8   -0.449564
9   -0.461491
10   -0.463378
11   0.142776
12   0.156692
13   0.147363
14   0.124067
15   0.158934
16   0.130394
17   0.145974
18   0.120845
19   0.130139
20   0.11363
21   0.135827
22   0.11172
23   0.117867
24   0.129026
25   0.110974
26   0.135461

>  <lowdin_charges>
26
1   -0.462034
2   -0.276306
3   -0.12583
4   -0.132151
5   -0.133382
6   -0.13296
7   -0.133643
8   -0.263468
9   -0.267668
10   -0.262293
11   0.154525
12   0.154305
13   0.148865
14   0.127248
15   0.156375
16   0.129635
17   0.148159
18   0.125338
19   0.132889
20   0.125862
21   0.136452
22   0.126939
23   0.127699
24   0.133102
25   0.126029
26   0.136312

$$$$

