PCCDB-ID:  25335
public computational chemistry database (PCCDB) project, http://pccdb.org

 35 35  0  0  0  0  0  0  0  0999 V2000
    2.2674   -1.5142    1.8327 C   0  0  0  0  0  0  0  0  0  0  0  0
    2.4068   -0.0853    1.2936 C   0  0  0  0  0  0  0  0  0  0  0  0
    3.7978    0.2505    0.7302 C   0  0  0  0  0  0  0  0  0  0  0  0
    4.1902   -0.5491   -0.5196 C   0  0  0  0  0  0  0  0  0  0  0  0
    5.5530   -0.1321   -1.0887 C   0  0  0  0  0  0  0  0  0  0  0  0
    4.1546    0.4179   -5.2976 C   0  0  0  0  0  0  0  0  0  0  0  0
    4.4541    1.4683   -6.3663 C   0  0  0  0  0  0  0  0  0  0  0  0
    3.6238    2.1608   -8.5942 C   0  0  0  0  0  0  0  0  0  0  0  0
    3.3792    0.6964   -8.4670 C   0  0  0  0  0  0  0  0  0  0  0  0
    5.9687   -0.9057   -2.3358 C   0  0  0  0  0  0  0  0  0  0  0  0
    5.2324    0.3433   -4.2365 C   0  0  0  0  0  0  0  0  0  0  0  0
    3.3291    1.5680   -7.2927 N   0  0  0  0  0  0  0  0  0  0  0  0
    6.1521    1.1266   -4.1174 O   0  0  0  0  0  0  0  0  0  0  0  0
    5.0300   -0.7200   -3.4241 O   0  0  0  0  0  0  0  0  0  0  0  0
    1.2795   -1.6706    2.2809 H   0  0  0  0  0  0  0  0  0  0  0  0
    3.0188   -1.7193    2.6058 H   0  0  0  0  0  0  0  0  0  0  0  0
    2.3908   -2.2638    1.0429 H   0  0  0  0  0  0  0  0  0  0  0  0
    2.1762    0.6229    2.1007 H   0  0  0  0  0  0  0  0  0  0  0  0
    1.6511    0.0866    0.5137 H   0  0  0  0  0  0  0  0  0  0  0  0
    4.5534    0.0936    1.5150 H   0  0  0  0  0  0  0  0  0  0  0  0
    3.8311    1.3222    0.4875 H   0  0  0  0  0  0  0  0  0  0  0  0
    3.4208   -0.4195   -1.2926 H   0  0  0  0  0  0  0  0  0  0  0  0
    4.2142   -1.6228   -0.2868 H   0  0  0  0  0  0  0  0  0  0  0  0
    6.3353   -0.2866   -0.3314 H   0  0  0  0  0  0  0  0  0  0  0  0
    5.5577    0.9399   -1.3229 H   0  0  0  0  0  0  0  0  0  0  0  0
    4.0266   -0.5769   -5.7408 H   0  0  0  0  0  0  0  0  0  0  0  0
    3.2011    0.6517   -4.8069 H   0  0  0  0  0  0  0  0  0  0  0  0
    5.4024    1.2216   -6.8772 H   0  0  0  0  0  0  0  0  0  0  0  0
    4.5970    2.4443   -5.8914 H   0  0  0  0  0  0  0  0  0  0  0  0
    2.8579    2.8195   -8.9981 H   0  0  0  0  0  0  0  0  0  0  0  0
    4.6487    2.4780   -8.7917 H   0  0  0  0  0  0  0  0  0  0  0  0
    4.2420    0.0378   -8.5809 H   0  0  0  0  0  0  0  0  0  0  0  0
    2.4310    0.2623   -8.7767 H   0  0  0  0  0  0  0  0  0  0  0  0
    5.9600   -1.9846   -2.1546 H   0  0  0  0  0  0  0  0  0  0  0  0
    6.9616   -0.5996   -2.6732 H   0  0  0  0  0  0  0  0  0  0  0  0
  1 15  1  0  0  0  0
  1 16  1  0  0  0  0
  2  1  1  0  0  0  0
  2 18  1  0  0  0  0
  3  2  1  0  0  0  0
  3 20  1  0  0  0  0
  4 23  1  0  0  0  0
  4  3  1  0  0  0  0
  5  4  1  0  0  0  0
  5 24  1  0  0  0  0
  6 27  1  0  0  0  0
  6 11  1  0  0  0  0
  7 29  1  0  0  0  0
  7  6  1  0  0  0  0
  8  9  1  0  0  0  0
  8 12  1  0  0  0  0
  9 12  1  0  0  0  0
 10 34  1  0  0  0  0
 10  5  1  0  0  0  0
 11 13  2  0  0  0  0
 11 14  1  0  0  0  0
 12  7  1  0  0  0  0
 14 10  1  0  0  0  0
 17  1  1  0  0  0  0
 19  2  1  0  0  0  0
 21  3  1  0  0  0  0
 22  4  1  0  0  0  0
 25  5  1  0  0  0  0
 26  6  1  0  0  0  0
 28  7  1  0  0  0  0
 30  8  1  0  0  0  0
 31  8  1  0  0  0  0
 32  9  1  0  0  0  0
 33  9  1  0  0  0  0
 35 10  1  0  0  0  0
M  END
>  <HBA>
3

>  <HBD>
0

>  <TPSA>
29.31

>  <cid>
25335

>  <dipole>
1.36

>  <excitation_energy_1>
5.791

>  <excitation_energy_2>
5.941

>  <excitation_energy_3>
6.075

>  <excitation_energy_4>
6.282

>  <homo_energy>
-6.37

>  <homo_lumo_gap>
6.776

>  <logP>
1.754

>  <lumo_energy>
0.405

>  <melting_point>
-6.15

>  <molecular_refractivity>
60.97

>  <oscillator_strength_1>
0.0018

>  <oscillator_strength_2>
0.0083

>  <oscillator_strength_3>
0.0112

>  <oscillator_strength_4>
0.0289

>  <open_babel_can_smiles>
CCCCCCOC(=O)CCN1CC1

>  <mulliken_charges>
35
1   -0.443549
2   -0.249072
3   -0.250206
4   -0.252964
5   -0.282024
6   -0.364679
7   -0.120195
8   -0.191625
9   -0.197285
10   -0.052582
11   0.627557
12   -0.35796
13   -0.484118
14   -0.466138
15   0.142826
16   0.140031
17   0.14613
18   0.131651
19   0.131036
20   0.125768
21   0.130183
22   0.141464
23   0.130548
24   0.136624
25   0.159038
26   0.171669
27   0.18759
28   0.123832
29   0.164567
30   0.157658
31   0.147067
32   0.143542
33   0.157426
34   0.147539
35   0.168654

>  <lowdin_charges>
35
1   -0.448464
2   -0.274173
3   -0.274316
4   -0.277839
5   -0.285346
6   -0.304121
7   -0.194969
8   -0.240882
9   -0.247647
10   -0.129015
11   0.199336
12   -0.194739
13   -0.271253
14   -0.197494
15   0.149757
16   0.146207
17   0.14776
18   0.143044
19   0.140053
20   0.137301
21   0.139651
22   0.144878
23   0.137274
24   0.149629
25   0.152806
26   0.168078
27   0.177756
28   0.127671
29   0.157118
30   0.160303
31   0.148147
32   0.147116
33   0.158951
34   0.148232
35   0.159194

$$$$

