PCCDB-ID:  62087
public computational chemistry database (PCCDB) project, http://pccdb.org

 16 15  0  0  1  0  0  0  0  0999 V2000
    1.0118   -0.0613    0.1645 C   0  0  0  0  0  0  0  0  0  0  0  0
    4.5974    1.0230   -1.0404 C   0  0  0  0  0  0  0  0  0  0  0  0
    2.5339   -0.0504    0.0306 C   0  0  1  0  0  0  0  0  0  0  0  0
    3.0698    0.9289   -1.0428 C   0  0  2  0  0  0  0  0  0  0  0  0
    3.1434    0.2293    1.2960 O   0  0  0  0  0  0  0  0  0  0  0  0
    2.4238    0.5418   -2.7399 S   0  0  0  0  0  0  0  0  0  0  0  0
    0.5236   -0.3536   -0.7681 H   0  0  0  0  0  0  0  0  0  0  0  0
    0.6428    0.9385    0.4357 H   0  0  0  0  0  0  0  0  0  0  0  0
    0.7179   -0.7588    0.9551 H   0  0  0  0  0  0  0  0  0  0  0  0
    4.9555    1.2981   -0.0445 H   0  0  0  0  0  0  0  0  0  0  0  0
    4.9431    1.7627   -1.7678 H   0  0  0  0  0  0  0  0  0  0  0  0
    5.0463    0.0554   -1.2977 H   0  0  0  0  0  0  0  0  0  0  0  0
    2.8878   -1.0580   -0.2222 H   0  0  0  0  0  0  0  0  0  0  0  0
    2.6451    1.9231   -0.8434 H   0  0  0  0  0  0  0  0  0  0  0  0
    2.7205    1.0288    1.6502 H   0  0  0  0  0  0  0  0  0  0  0  0
    3.1724   -0.5674   -2.9313 H   0  0  0  0  0  0  0  0  0  0  0  0
  1  8  1  0  0  0  0
  1  9  1  0  0  0  0
  2 10  1  0  0  0  0
  3 13  1  6  0  0  0
  3  1  1  0  0  0  0
  3  5  1  0  0  0  0
  4  2  1  0  0  0  0
  4 14  1  1  0  0  0
  4  3  1  0  0  0  0
  5 15  1  0  0  0  0
  6  4  1  0  0  0  0
  7  1  1  0  0  0  0
 11  2  1  0  0  0  0
 12  2  1  0  0  0  0
 16  6  1  0  0  0  0
M  END
>  <HBA>
2

>  <HBD>
2

>  <TPSA>
59.03

>  <cid>
62087

>  <dipole>
0.95

>  <excitation_energy_1>
5.304

>  <excitation_energy_2>
5.789

>  <excitation_energy_3>
6.008

>  <excitation_energy_4>
6.529

>  <homo_energy>
-6.378

>  <homo_lumo_gap>
7.029

>  <logP>
0.685

>  <lumo_energy>
0.65

>  <melting_point>
13.64

>  <molecular_refractivity>
30.43

>  <oscillator_strength_1>
0.0053

>  <oscillator_strength_2>
0.022

>  <oscillator_strength_3>
0.0169

>  <oscillator_strength_4>
0.0119

>  <open_babel_can_smiles>
C[C@H]([C@@H](O)C)S

>  <mulliken_charges>
16
1   -0.471131
2   -0.431386
3   0.157803
4   -0.258692
5   -0.616901
6   -0.091619
7   0.179664
8   0.128765
9   0.159513
10   0.16892
11   0.160732
12   0.144019
13   0.13712
14   0.155469
15   0.384296
16   0.093429

>  <lowdin_charges>
16
1   -0.464505
2   -0.448027
3   -0.002659
4   -0.230683
5   -0.459772
6   -0.091079
7   0.171082
8   0.141855
9   0.160095
10   0.162676
11   0.160864
12   0.149943
13   0.143376
14   0.154294
15   0.339783
16   0.112757

$$$$

