PCCDB-ID:  7663
public computational chemistry database (PCCDB) project, http://pccdb.org

 31 31  0  0  0  0  0  0  0  0999 V2000
    4.6684    1.3556    0.0619 C   0  0  0  0  0  0  0  0  0  0  0  0
    2.6408    2.1175   -1.2820 C   0  0  0  0  0  0  0  0  0  0  0  0
   11.3873   -2.8073   -2.9027 C   0  0  0  0  0  0  0  0  0  0  0  0
   10.6454   -1.7210   -3.3772 C   0  0  0  0  0  0  0  0  0  0  0  0
   10.7257   -3.8911   -2.3251 C   0  0  0  0  0  0  0  0  0  0  0  0
    6.2310   -1.8722   -2.8243 C   0  0  0  0  0  0  0  0  0  0  0  0
    9.2578   -1.7163   -3.2731 C   0  0  0  0  0  0  0  0  0  0  0  0
    9.3356   -3.8849   -2.2213 C   0  0  0  0  0  0  0  0  0  0  0  0
    7.1125   -2.8431   -2.5415 C   0  0  0  0  0  0  0  0  0  0  0  0
    4.7525   -2.0430   -2.6677 C   0  0  0  0  0  0  0  0  0  0  0  0
    3.4667    0.9197   -0.8030 C   0  0  0  0  0  0  0  0  0  0  0  0
    8.5748   -2.7984   -2.6869 C   0  0  0  0  0  0  0  0  0  0  0  0
    3.9820    0.1111   -1.9860 C   0  0  0  0  0  0  0  0  0  0  0  0
    4.2028    0.5525   -3.0952 O   0  0  0  0  0  0  0  0  0  0  0  0
    4.2066   -1.1757   -1.6323 O   0  0  0  0  0  0  0  0  0  0  0  0
    4.3182    1.8996    0.9458 H   0  0  0  0  0  0  0  0  0  0  0  0
    5.3319    2.0188   -0.5048 H   0  0  0  0  0  0  0  0  0  0  0  0
    5.2497    0.4912    0.3979 H   0  0  0  0  0  0  0  0  0  0  0  0
    2.2997    2.7095   -0.4256 H   0  0  0  0  0  0  0  0  0  0  0  0
    1.7597    1.7953   -1.8470 H   0  0  0  0  0  0  0  0  0  0  0  0
    3.2380    2.7600   -1.9358 H   0  0  0  0  0  0  0  0  0  0  0  0
   12.4706   -2.8077   -2.9867 H   0  0  0  0  0  0  0  0  0  0  0  0
   11.1520   -0.8748   -3.8336 H   0  0  0  0  0  0  0  0  0  0  0  0
   11.2908   -4.7426   -1.9555 H   0  0  0  0  0  0  0  0  0  0  0  0
    6.5519   -0.9036   -3.1998 H   0  0  0  0  0  0  0  0  0  0  0  0
    8.6985   -0.8683   -3.6570 H   0  0  0  0  0  0  0  0  0  0  0  0
    8.8252   -4.7327   -1.7695 H   0  0  0  0  0  0  0  0  0  0  0  0
    6.7237   -3.7867   -2.1550 H   0  0  0  0  0  0  0  0  0  0  0  0
    4.4995   -3.0526   -2.3366 H   0  0  0  0  0  0  0  0  0  0  0  0
    4.2290   -1.8193   -3.6024 H   0  0  0  0  0  0  0  0  0  0  0  0
    2.8417    0.2500   -0.2003 H   0  0  0  0  0  0  0  0  0  0  0  0
  1 18  1  0  0  0  0
  1 16  1  0  0  0  0
  2 11  1  0  0  0  0
  2 19  1  0  0  0  0
  3  5  2  0  0  0  0
  4  7  2  0  0  0  0
  4  3  1  0  0  0  0
  5  8  1  0  0  0  0
  5 24  1  0  0  0  0
  6 10  1  0  0  0  0
  6  9  2  0  0  0  0
  7 12  1  0  0  0  0
  8 27  1  0  0  0  0
  9 28  1  0  0  0  0
 10 29  1  0  0  0  0
 10 15  1  0  0  0  0
 11 31  1  0  0  0  0
 11  1  1  0  0  0  0
 12  9  1  0  0  0  0
 12  8  2  0  0  0  0
 13 15  1  0  0  0  0
 13 11  1  0  0  0  0
 14 13  2  0  0  0  0
 17  1  1  0  0  0  0
 20  2  1  0  0  0  0
 21  2  1  0  0  0  0
 22  3  1  0  0  0  0
 23  4  1  0  0  0  0
 25  6  1  0  0  0  0
 26  7  1  0  0  0  0
 30 10  1  0  0  0  0
M  END
>  <HBA>
2

>  <HBD>
0

>  <TPSA>
26.3

>  <cid>
7663

>  <dipole>
1.72

>  <excitation_energy_1>
4.709

>  <excitation_energy_2>
4.82

>  <excitation_energy_3>
5.541

>  <excitation_energy_4>
5.621

>  <homo_energy>
-6.104

>  <homo_lumo_gap>
5.08

>  <logP>
2.899

>  <lumo_energy>
-1.023

>  <melting_point>
35.96

>  <molecular_refractivity>
61.85

>  <oscillator_strength_1>
0.3857

>  <oscillator_strength_2>
0.1783

>  <oscillator_strength_3>
0.0054

>  <oscillator_strength_4>
0.0042

>  <open_babel_can_smiles>
CC(C(=O)OC/C=C/c1ccccc1)C

>  <mulliken_charges>
31
1   -0.453018
2   -0.440016
3   -0.128053
4   -0.130175
5   -0.129383
6   -0.120135
7   -0.181524
8   -0.1947
9   -0.169054
10   -0.102072
11   -0.158135
12   0.173706
13   0.626443
14   -0.487961
15   -0.462574
16   0.152423
17   0.157564
18   0.163253
19   0.140369
20   0.150845
21   0.166349
22   0.131688
23   0.132999
24   0.131812
25   0.15723
26   0.13494
27   0.128833
28   0.125666
29   0.156304
30   0.17406
31   0.152318

>  <lowdin_charges>
31
1   -0.440739
2   -0.442333
3   -0.152491
4   -0.153713
5   -0.155962
6   -0.173265
7   -0.154045
8   -0.159546
9   -0.149902
10   -0.126879
11   -0.145241
12   -0.00356
13   0.198725
14   -0.274287
15   -0.196472
16   0.155175
17   0.156319
18   0.159766
19   0.150772
20   0.155221
21   0.162756
22   0.156912
23   0.160092
24   0.159716
25   0.164464
26   0.160958
27   0.157261
28   0.152582
29   0.155482
30   0.16369
31   0.158542

$$$$

