PCCDB-ID:  12097
public computational chemistry database (PCCDB) project, http://pccdb.org

 14 14  0  0  0  0  0  0  0  0999 V2000
    1.0897    0.0446    0.0690 C   0  0  0  0  0  0  0  0  0  0  0  0
    3.3648   -1.2627   -0.0143 C   0  0  0  0  0  0  0  0  0  0  0  0
    4.7062   -0.7938   -0.0226 C   0  0  0  0  0  0  0  0  0  0  0  0
    5.6903    1.5829    0.0413 C   0  0  0  0  0  0  0  0  0  0  0  0
    2.5648   -0.1478    0.0382 C   0  0  0  0  0  0  0  0  0  0  0  0
    4.6417    0.5784    0.0257 C   0  0  0  0  0  0  0  0  0  0  0  0
    5.5169    2.7880    0.0896 O   0  0  0  0  0  0  0  0  0  0  0  0
    3.3284    0.9737    0.0631 O   0  0  0  0  0  0  0  0  0  0  0  0
    0.5844   -0.9246    0.0656 H   0  0  0  0  0  0  0  0  0  0  0  0
    0.7473    0.6177   -0.8010 H   0  0  0  0  0  0  0  0  0  0  0  0
    0.7819    0.5946    0.9660 H   0  0  0  0  0  0  0  0  0  0  0  0
    3.0248   -2.2886   -0.0431 H   0  0  0  0  0  0  0  0  0  0  0  0
    5.6108   -1.3860   -0.0592 H   0  0  0  0  0  0  0  0  0  0  0  0
    6.7100    1.1404    0.0037 H   0  0  0  0  0  0  0  0  0  0  0  0
  1 11  1  0  0  0  0
  2  5  2  0  0  0  0
  3  2  1  0  0  0  0
  3  6  2  0  0  0  0
  4  7  2  0  0  0  0
  5  8  1  0  0  0  0
  5  1  1  0  0  0  0
  6  4  1  0  0  0  0
  6  8  1  0  0  0  0
  9  1  1  0  0  0  0
 10  1  1  0  0  0  0
 12  2  1  0  0  0  0
 13  3  1  0  0  0  0
 14  4  1  0  0  0  0
M  END
>  <HBA>
2

>  <HBD>
0

>  <TPSA>
30.21

>  <cid>
12097

>  <dipole>
4.36

>  <excitation_energy_1>
3.747

>  <excitation_energy_2>
4.783

>  <excitation_energy_3>
5.818

>  <excitation_energy_4>
5.853

>  <homo_energy>
-6.457

>  <homo_lumo_gap>
4.942

>  <logP>
1.401

>  <lumo_energy>
-1.516

>  <melting_point>
41.15

>  <molecular_refractivity>
29.06

>  <oscillator_strength_1>
0.0001

>  <oscillator_strength_2>
0.3985

>  <oscillator_strength_3>
0.0374

>  <oscillator_strength_4>
0.0

>  <open_babel_can_smiles>
Cc1ccc(o1)C=O

>  <mulliken_charges>
14
1   -0.532506
2   -0.211903
3   -0.187694
4   0.173378
5   0.370091
6   0.30019
7   -0.413117
8   -0.449441
9   0.170879
10   0.184719
11   0.184859
12   0.147681
13   0.158369
14   0.104496

>  <lowdin_charges>
14
1   -0.442513
2   -0.219389
3   -0.168835
4   0.025499
5   0.102011
6   0.021204
7   -0.231472
8   -0.0788
9   0.170967
10   0.176251
11   0.176274
12   0.171078
13   0.176714
14   0.121011

$$$$

