PCCDB-ID:  18827
public computational chemistry database (PCCDB) project, http://pccdb.org

 25 24  0  0  1  0  0  0  0  0999 V2000
    0.9673    0.0450    0.8109 C   0  0  0  0  0  0  0  0  0  0  0  0
    8.1083   -1.6514   -0.7368 C   0  0  0  0  0  0  0  0  0  0  0  0
    2.4420    0.0679    0.3965 C   0  0  0  0  0  0  0  0  0  0  0  0
    7.1415   -2.5045   -1.0791 C   0  0  0  0  0  0  0  0  0  0  0  0
    2.8438   -1.1264   -0.4784 C   0  0  0  0  0  0  0  0  0  0  0  0
    4.3191   -1.1065   -0.8987 C   0  0  0  0  0  0  0  0  0  0  0  0
    4.7102   -2.3037   -1.7724 C   0  0  0  0  0  0  0  0  0  0  0  0
    6.1765   -2.3001   -2.2180 C   0  0  2  0  0  0  0  0  0  0  0  0
    6.3032   -3.3714   -3.1645 O   0  0  0  0  0  0  0  0  0  0  0  0
    0.7134    0.9076    1.4376 H   0  0  0  0  0  0  0  0  0  0  0  0
    0.7296   -0.8620    1.3806 H   0  0  0  0  0  0  0  0  0  0  0  0
    0.3085    0.0649   -0.0660 H   0  0  0  0  0  0  0  0  0  0  0  0
    8.7886   -1.8512    0.0869 H   0  0  0  0  0  0  0  0  0  0  0  0
    8.2530   -0.7121   -1.2678 H   0  0  0  0  0  0  0  0  0  0  0  0
    3.0750    0.0869    1.2951 H   0  0  0  0  0  0  0  0  0  0  0  0
    2.6557    1.0008   -0.1446 H   0  0  0  0  0  0  0  0  0  0  0  0
    7.0188   -3.4429   -0.5360 H   0  0  0  0  0  0  0  0  0  0  0  0
    2.2084   -1.1484   -1.3763 H   0  0  0  0  0  0  0  0  0  0  0  0
    2.6328   -2.0600    0.0641 H   0  0  0  0  0  0  0  0  0  0  0  0
    4.9538   -1.0810   -0.0024 H   0  0  0  0  0  0  0  0  0  0  0  0
    4.5272   -0.1738   -1.4440 H   0  0  0  0  0  0  0  0  0  0  0  0
    4.0943   -2.3257   -2.6808 H   0  0  0  0  0  0  0  0  0  0  0  0
    4.5117   -3.2443   -1.2402 H   0  0  0  0  0  0  0  0  0  0  0  0
    6.3986   -1.3357   -2.7062 H   0  0  0  0  0  0  0  0  0  0  0  0
    7.2407   -3.4257   -3.4091 H   0  0  0  0  0  0  0  0  0  0  0  0
  1 11  1  0  0  0  0
  1 10  1  0  0  0  0
  2 13  1  0  0  0  0
  3  1  1  0  0  0  0
  3 15  1  0  0  0  0
  4  2  2  0  0  0  0
  4 17  1  0  0  0  0
  5 19  1  0  0  0  0
  5  3  1  0  0  0  0
  6  5  1  0  0  0  0
  6 20  1  0  0  0  0
  7 23  1  0  0  0  0
  7  6  1  0  0  0  0
  8 24  1  6  0  0  0
  8  7  1  0  0  0  0
  8  4  1  0  0  0  0
  9  8  1  0  0  0  0
 12  1  1  0  0  0  0
 14  2  1  0  0  0  0
 16  3  1  0  0  0  0
 18  5  1  0  0  0  0
 21  6  1  0  0  0  0
 22  7  1  0  0  0  0
 25  9  1  0  0  0  0
M  END
>  <HBA>
1

>  <HBD>
1

>  <TPSA>
20.23

>  <cid>
18827

>  <dipole>
1.44

>  <excitation_energy_1>
6.231

>  <excitation_energy_2>
6.539

>  <excitation_energy_3>
6.962

>  <excitation_energy_4>
7.081

>  <homo_energy>
-6.983

>  <homo_lumo_gap>
7.227

>  <logP>
2.114

>  <lumo_energy>
0.245

>  <melting_point>
-29.87

>  <molecular_refractivity>
41.26

>  <oscillator_strength_1>
0.0398

>  <oscillator_strength_2>
0.0429

>  <oscillator_strength_3>
0.037

>  <oscillator_strength_4>
0.0138

>  <open_babel_can_smiles>
CCCCC[C@@H](C=C)O

>  <mulliken_charges>
25
1   -0.441349
2   -0.346289
3   -0.246957
4   -0.070543
5   -0.244699
6   -0.261007
7   -0.270094
8   0.111188
9   -0.633604
10   0.141069
11   0.141211
12   0.141377
13   0.144999
14   0.141279
15   0.130085
16   0.12947
17   0.133793
18   0.128098
19   0.127626
20   0.137249
21   0.126179
22   0.146651
23   0.137144
24   0.110346
25   0.386779

>  <lowdin_charges>
25
1   -0.445832
2   -0.336554
3   -0.272402
4   -0.165454
5   -0.273626
6   -0.277164
7   -0.278075
8   0.000977
9   -0.463938
10   0.149513
11   0.146498
12   0.14665
13   0.161416
14   0.155905
15   0.138972
16   0.138487
17   0.155128
18   0.138205
19   0.137942
20   0.143467
21   0.137434
22   0.152173
23   0.14529
24   0.12518
25   0.339805

$$$$

