PCCDB-ID:  10683
public computational chemistry database (PCCDB) project, http://pccdb.org

 20 20  0  0  1  0  0  0  0  0999 V2000
    3.0279   -1.8563   -3.4453 C   0  0  0  0  0  0  0  0  0  0  0  0
    7.4726    1.2355    0.8016 C   0  0  0  0  0  0  0  0  0  0  0  0
    3.3461   -0.7946   -2.7066 C   0  0  0  0  0  0  0  0  0  0  0  0
    3.6786   -0.8676   -1.2384 C   0  0  0  0  0  0  0  0  0  0  0  0
    7.0063    0.6994   -0.5436 C   0  0  2  0  0  0  0  0  0  0  0  0
    5.4971    0.8136   -0.7518 C   0  0  0  0  0  0  0  0  0  0  0  0
    6.1216   -1.3974   -0.9103 C   0  0  0  0  0  0  0  0  0  0  0  0
    5.0649   -0.4788   -0.9602 N   0  0  0  0  0  0  0  0  0  0  0  0
    4.8172    1.8188   -0.7298 O   0  0  0  0  0  0  0  0  0  0  0  0
    6.0451   -2.5893   -1.0445 O   0  0  0  0  0  0  0  0  0  0  0  0
    7.2734   -0.7166   -0.6620 O   0  0  0  0  0  0  0  0  0  0  0  0
    2.7836   -1.7642   -4.5000 H   0  0  0  0  0  0  0  0  0  0  0  0
    3.0002   -2.8584   -3.0234 H   0  0  0  0  0  0  0  0  0  0  0  0
    7.2257    2.2992    0.8701 H   0  0  0  0  0  0  0  0  0  0  0  0
    8.5539    1.1109    0.9062 H   0  0  0  0  0  0  0  0  0  0  0  0
    6.9769    0.7059    1.6211 H   0  0  0  0  0  0  0  0  0  0  0  0
    3.3768    0.2001   -3.1494 H   0  0  0  0  0  0  0  0  0  0  0  0
    3.5484   -1.8829   -0.8576 H   0  0  0  0  0  0  0  0  0  0  0  0
    3.0479   -0.1829   -0.6617 H   0  0  0  0  0  0  0  0  0  0  0  0
    7.5239    1.2058   -1.3665 H   0  0  0  0  0  0  0  0  0  0  0  0
  1 13  1  0  0  0  0
  1  3  2  0  0  0  0
  2 14  1  0  0  0  0
  2 15  1  0  0  0  0
  2 16  1  0  0  0  0
  3  4  1  0  0  0  0
  4  8  1  0  0  0  0
  4 18  1  0  0  0  0
  4 19  1  0  0  0  0
  5 20  1  6  0  0  0
  5  2  1  0  0  0  0
  6  9  2  0  0  0  0
  6  5  1  0  0  0  0
  7 11  1  0  0  0  0
  8  7  1  0  0  0  0
  8  6  1  0  0  0  0
 10  7  2  0  0  0  0
 11  5  1  0  0  0  0
 12  1  1  0  0  0  0
 17  3  1  0  0  0  0
M  END
>  <HBA>
4

>  <HBD>
0

>  <TPSA>
46.61

>  <cid>
10683

>  <dipole>
1.4

>  <excitation_energy_1>
5.248

>  <excitation_energy_2>
5.956

>  <excitation_energy_3>
6.324

>  <excitation_energy_4>
6.59

>  <homo_energy>
-7.437

>  <homo_lumo_gap>
6.836

>  <logP>
0.478

>  <lumo_energy>
-0.601

>  <melting_point>
21.55

>  <molecular_refractivity>
41.86

>  <oscillator_strength_1>
0.0009

>  <oscillator_strength_2>
0.013

>  <oscillator_strength_3>
0.0215

>  <oscillator_strength_4>
0.0809

>  <open_babel_can_smiles>
C=CCN1C(=O)O[C@@H](C1=O)C

>  <mulliken_charges>
20
1   -0.32177
2   -0.450709
3   -0.05313
4   -0.205453
5   0.039276
6   0.580921
7   0.788886
8   -0.488436
9   -0.489276
10   -0.470817
11   -0.477513
12   0.151573
13   0.156249
14   0.181437
15   0.176295
16   0.167257
17   0.151401
18   0.187248
19   0.187329
20   0.189235

>  <lowdin_charges>
20
1   -0.310372
2   -0.438416
3   -0.159372
4   -0.186932
5   -0.014577
6   0.151618
7   0.209592
8   -0.081296
9   -0.262432
10   -0.242797
11   -0.184442
12   0.163481
13   0.163862
14   0.173913
15   0.167659
16   0.165119
17   0.1614
18   0.175015
19   0.1757
20   0.173276

$$$$

