PCCDB-ID:  1034
public computational chemistry database (PCCDB) project, http://pccdb.org

 16 15  0  0  0  0  0  0  0  0999 V2000
    1.2184   -1.2065    0.5938 C   0  0  0  0  0  0  0  0  0  0  0  0
    2.6863   -1.0744    0.1930 C   0  0  0  0  0  0  0  0  0  0  0  0
    3.2460    0.3055    0.4293 C   0  0  0  0  0  0  0  0  0  0  0  0
    2.6338    1.2403    0.9111 O   0  0  0  0  0  0  0  0  0  0  0  0
    6.4001    1.7815   -0.9651 O   0  0  0  0  0  0  0  0  0  0  0  0
    4.5319    2.9613    0.1537 O   0  0  0  0  0  0  0  0  0  0  0  0
    6.2522    1.5637    1.6282 O   0  0  0  0  0  0  0  0  0  0  0  0
    4.5454    0.3928    0.0280 O   0  0  0  0  0  0  0  0  0  0  0  0
    5.5088    1.7250    0.3661 P   0  0  0  0  0  0  0  0  0  0  0  0
    0.8690   -2.2263    0.4064 H   0  0  0  0  0  0  0  0  0  0  0  0
    0.5897   -0.5165    0.0235 H   0  0  0  0  0  0  0  0  0  0  0  0
    1.0786   -0.9831    1.6552 H   0  0  0  0  0  0  0  0  0  0  0  0
    2.8417   -1.3108   -0.8677 H   0  0  0  0  0  0  0  0  0  0  0  0
    3.3231   -1.7786    0.7440 H   0  0  0  0  0  0  0  0  0  0  0  0
    7.3245    1.5720   -0.7508 H   0  0  0  0  0  0  0  0  0  0  0  0
    3.6576    2.7426    0.5572 H   0  0  0  0  0  0  0  0  0  0  0  0
  1 12  1  0  0  0  0
  2  3  1  0  0  0  0
  2  1  1  0  0  0  0
  2 14  1  0  0  0  0
  3  4  2  0  0  0  0
  5 15  1  0  0  0  0
  5  9  1  0  0  0  0
  6  9  1  0  0  0  0
  6 16  1  0  0  0  0
  8  9  1  0  0  0  0
  8  3  1  0  0  0  0
  9  7  2  0  0  0  0
 10  1  1  0  0  0  0
 11  1  1  0  0  0  0
 13  2  1  0  0  0  0
M  END
>  <HBA>
5

>  <HBD>
2

>  <TPSA>
93.64

>  <cid>
1034

>  <dipole>
3.56

>  <excitation_energy_1>
5.901

>  <excitation_energy_2>
6.688

>  <excitation_energy_3>
6.791

>  <excitation_energy_4>
7.167

>  <homo_energy>
-8.283

>  <homo_lumo_gap>
7.472

>  <logP>
0.032

>  <lumo_energy>
-0.811

>  <melting_point>
76.55

>  <molecular_refractivity>
28.81

>  <oscillator_strength_1>
0.0006

>  <oscillator_strength_2>
0.0182

>  <oscillator_strength_3>
0.0308

>  <oscillator_strength_4>
0.0102

>  <open_babel_can_smiles>
CCC(=O)OP(=O)(O)O

>  <mulliken_charges>
16
1   -0.442058
2   -0.354994
3   0.64106
4   -0.485895
5   -0.613166
6   -0.636958
7   -0.511655
8   -0.51555
9   1.130739
10   0.154737
11   0.167305
12   0.171012
13   0.190018
14   0.193874
15   0.450007
16   0.461525

>  <lowdin_charges>
16
1   -0.438657
2   -0.294255
3   0.235824
4   -0.258703
5   -0.541006
6   -0.551849
7   -0.560756
8   -0.333651
9   1.122994
10   0.158185
11   0.163485
12   0.162543
13   0.177776
14   0.182468
15   0.391482
16   0.38412

$$$$

