PCCDB-ID:  41730
public computational chemistry database (PCCDB) project, http://pccdb.org

 34 35  0  0  1  0  0  0  0  0999 V2000
    2.7880   -1.9747    1.5149 C   0  0  0  0  0  0  0  0  0  0  0  0
    1.4648   -0.5769   -0.1336 C   0  0  0  0  0  0  0  0  0  0  0  0
    6.0856   -3.6617   -2.0647 C   0  0  0  0  0  0  0  0  0  0  0  0
    6.0440   -3.1452   -3.3593 C   0  0  0  0  0  0  0  0  0  0  0  0
    5.9220    1.7527   -0.7885 C   0  0  0  0  0  0  0  0  0  0  0  0
    5.8530   -2.8127   -0.9825 C   0  0  0  0  0  0  0  0  0  0  0  0
    6.1573    0.6429    0.2427 C   0  0  0  0  0  0  0  0  0  0  0  0
    5.7962   -1.7876   -3.5507 C   0  0  0  0  0  0  0  0  0  0  0  0
    6.2319    1.3494   -2.2259 C   0  0  0  0  0  0  0  0  0  0  0  0
    2.8213   -1.2209    0.1720 C   0  0  0  0  0  0  0  0  0  0  0  0
    5.5806   -1.4469   -1.1455 C   0  0  0  0  0  0  0  0  0  0  0  0
    5.2626   -0.6060    0.0872 C   0  0  2  0  0  0  0  0  0  0  0  0
    5.5749   -0.9393   -2.4609 C   0  0  0  0  0  0  0  0  0  0  0  0
    3.8556   -0.1790    0.0869 N   0  0  0  0  0  0  0  0  0  0  0  0
    5.3264    0.3788   -2.7628 O   0  0  0  0  0  0  0  0  0  0  0  0
    2.0304   -2.7675    1.5046 H   0  0  0  0  0  0  0  0  0  0  0  0
    2.5414   -1.2897    2.3378 H   0  0  0  0  0  0  0  0  0  0  0  0
    3.7511   -2.4437    1.7448 H   0  0  0  0  0  0  0  0  0  0  0  0
    0.6644   -1.3259   -0.1392 H   0  0  0  0  0  0  0  0  0  0  0  0
    1.4910   -0.0788   -1.1072 H   0  0  0  0  0  0  0  0  0  0  0  0
    1.2087    0.1748    0.6256 H   0  0  0  0  0  0  0  0  0  0  0  0
    6.2875   -4.7159   -1.8964 H   0  0  0  0  0  0  0  0  0  0  0  0
    6.2166   -3.7900   -4.2169 H   0  0  0  0  0  0  0  0  0  0  0  0
    6.5570    2.6143   -0.5384 H   0  0  0  0  0  0  0  0  0  0  0  0
    4.8813    2.0901   -0.7435 H   0  0  0  0  0  0  0  0  0  0  0  0
    5.8684   -3.2194    0.0265 H   0  0  0  0  0  0  0  0  0  0  0  0
    5.9886    1.0542    1.2487 H   0  0  0  0  0  0  0  0  0  0  0  0
    7.2064    0.3199    0.2157 H   0  0  0  0  0  0  0  0  0  0  0  0
    5.7742   -1.3517   -4.5449 H   0  0  0  0  0  0  0  0  0  0  0  0
    7.2627    0.9741   -2.3138 H   0  0  0  0  0  0  0  0  0  0  0  0
    6.1312    2.2172   -2.8859 H   0  0  0  0  0  0  0  0  0  0  0  0
    3.0424   -1.9425   -0.6235 H   0  0  0  0  0  0  0  0  0  0  0  0
    5.4998   -1.2506    0.9540 H   0  0  0  0  0  0  0  0  0  0  0  0
    3.7180    0.4806    0.8538 H   0  0  0  0  0  0  0  0  0  0  0  0
  1 18  1  0  0  0  0
  1 17  1  0  0  0  0
  2 10  1  0  0  0  0
  2 21  1  0  0  0  0
  3 22  1  0  0  0  0
  3  6  2  0  0  0  0
  4  3  1  0  0  0  0
  5 25  1  0  0  0  0
  5 24  1  0  0  0  0
  5  7  1  0  0  0  0
  6 26  1  0  0  0  0
  7 27  1  0  0  0  0
  8  4  2  0  0  0  0
  8 13  1  0  0  0  0
  9  5  1  0  0  0  0
 10  1  1  0  0  0  0
 11  6  1  0  0  0  0
 11 12  1  0  0  0  0
 12  7  1  0  0  0  0
 12 33  1  1  0  0  0
 13 11  2  0  0  0  0
 14 12  1  0  0  0  0
 14 10  1  0  0  0  0
 14 34  1  0  0  0  0
 15 13  1  0  0  0  0
 15  9  1  0  0  0  0
 16  1  1  0  0  0  0
 19  2  1  0  0  0  0
 20  2  1  0  0  0  0
 23  4  1  0  0  0  0
 28  7  1  0  0  0  0
 29  8  1  0  0  0  0
 30  9  1  0  0  0  0
 31  9  1  0  0  0  0
 32 10  1  0  0  0  0
M  END
>  <HBA>
2

>  <HBD>
1

>  <TPSA>
21.26

>  <cid>
41730

>  <dipole>
1.73

>  <excitation_energy_1>
4.852

>  <excitation_energy_2>
5.043

>  <excitation_energy_3>
5.088

>  <excitation_energy_4>
5.154

>  <homo_energy>
-5.75

>  <homo_lumo_gap>
5.812

>  <logP>
3.289

>  <lumo_energy>
0.063

>  <melting_point>
59.7

>  <molecular_refractivity>
62.62

>  <oscillator_strength_1>
0.001

>  <oscillator_strength_2>
0.0019

>  <oscillator_strength_3>
0.0172

>  <oscillator_strength_4>
0.0057

>  <open_babel_can_smiles>
CC(N[C@@H]1CCCOc2c1cccc2)C

>  <mulliken_charges>
34
1   -0.452001
2   -0.439138
3   -0.123485
4   -0.139722
5   -0.257299
6   -0.213588
7   -0.298992
8   -0.164619
9   -0.042211
10   0.044839
11   0.14233
12   -0.012746
13   0.299257
14   -0.547359
15   -0.520482
16   0.14242
17   0.130487
18   0.142798
19   0.137214
20   0.161752
21   0.128307
22   0.124902
23   0.128969
24   0.127676
25   0.161025
26   0.125259
27   0.12964
28   0.139112
29   0.133923
30   0.128607
31   0.146126
32   0.147973
33   0.107461
34   0.281565

>  <lowdin_charges>
34
1   -0.464076
2   -0.447323
3   -0.169789
4   -0.153997
5   -0.292549
6   -0.163881
7   -0.280508
8   -0.177161
9   -0.123807
10   -0.062991
11   -0.041111
12   -0.057466
13   0.097262
14   -0.355177
15   -0.222332
16   0.151883
17   0.142528
18   0.146575
19   0.148514
20   0.15949
21   0.141584
22   0.154983
23   0.158512
24   0.147264
25   0.156253
26   0.152942
27   0.141633
28   0.145548
29   0.164297
30   0.132022
31   0.150791
32   0.149879
33   0.123067
34   0.247141

$$$$

