PCCDB-ID:  487
public computational chemistry database (PCCDB) project, http://pccdb.org

 14 13  0  0  0  0  0  0  0  0999 V2000
    0.8499    0.3904    0.2666 C   0  0  0  0  0  0  0  0  0  0  0  0
    2.3042   -0.0211   -0.0863 C   0  0  0  0  0  0  0  0  0  0  0  0
    2.2798   -1.2711   -0.9387 C   0  0  0  0  0  0  0  0  0  0  0  0
    3.0273    1.1955   -0.7056 C   0  0  0  0  0  0  0  0  0  0  0  0
    2.3497   -1.3037   -2.1586 O   0  0  0  0  0  0  0  0  0  0  0  0
    2.1250   -2.3851   -0.2066 O   0  0  0  0  0  0  0  0  0  0  0  0
    3.3887    2.1016    0.0063 O   0  0  0  0  0  0  0  0  0  0  0  0
    3.1722    1.2296   -2.0364 O   0  0  0  0  0  0  0  0  0  0  0  0
    0.3431   -0.4143    0.8064 H   0  0  0  0  0  0  0  0  0  0  0  0
    0.2801    0.6238   -0.6387 H   0  0  0  0  0  0  0  0  0  0  0  0
    0.8825    1.2808    0.8988 H   0  0  0  0  0  0  0  0  0  0  0  0
    2.8268   -0.2499    0.8464 H   0  0  0  0  0  0  0  0  0  0  0  0
    2.0811   -3.1344   -0.8321 H   0  0  0  0  0  0  0  0  0  0  0  0
    2.8583    0.3776   -2.4222 H   0  0  0  0  0  0  0  0  0  0  0  0
  1  9  1  0  0  0  0
  1 11  1  0  0  0  0
  2  1  1  0  0  0  0
  2 12  1  0  0  0  0
  3  6  1  0  0  0  0
  3  2  1  0  0  0  0
  4  2  1  0  0  0  0
  4  7  2  0  0  0  0
  5  3  2  0  0  0  0
  8  4  1  0  0  0  0
 10  1  1  0  0  0  0
 13  6  1  0  0  0  0
 14  8  1  0  0  0  0
M  END
>  <HBA>
4

>  <HBD>
2

>  <TPSA>
74.6

>  <cid>
487

>  <dipole>
5.0

>  <excitation_energy_1>
5.556

>  <excitation_energy_2>
5.799

>  <excitation_energy_3>
5.943

>  <excitation_energy_4>
6.616

>  <homo_energy>
-7.353

>  <homo_lumo_gap>
6.514

>  <logP>
-0.208

>  <lumo_energy>
-0.838

>  <melting_point>
129.08

>  <molecular_refractivity>
24.89

>  <oscillator_strength_1>
0.0065

>  <oscillator_strength_2>
0.007

>  <oscillator_strength_3>
0.0017

>  <oscillator_strength_4>
0.0129

>  <open_babel_can_smiles>
CC(C(=O)O)C(=O)O

>  <mulliken_charges>
14
1   -0.458656
2   -0.284843
3   0.60576
4   0.608244
5   -0.491193
6   -0.549972
7   -0.456117
8   -0.580917
9   0.173872
10   0.169409
11   0.197067
12   0.202994
13   0.422337
14   0.442015

>  <lowdin_charges>
14
1   -0.428895
2   -0.189116
3   0.204212
4   0.193473
5   -0.280228
6   -0.328022
7   -0.250932
8   -0.353018
9   0.165816
10   0.162011
11   0.178937
12   0.190033
13   0.371325
14   0.364405

$$$$

