PCCDB-ID:  12042
public computational chemistry database (PCCDB) project, http://pccdb.org

 19 18  0  0  0  0  0  0  0  0999 V2000
    5.7773   -3.1701   -2.0742 C   0  0  0  0  0  0  0  0  0  0  0  0
    4.1414   -0.1120    2.0621 C   0  0  0  0  0  0  0  0  0  0  0  0
    5.2505    1.8529    0.9342 C   0  0  0  0  0  0  0  0  0  0  0  0
    6.4601   -3.0207   -0.7172 C   0  0  0  0  0  0  0  0  0  0  0  0
    5.7739   -0.4148    0.2335 C   0  0  0  0  0  0  0  0  0  0  0  0
    5.0573    0.4038    1.0411 N   0  0  0  0  0  0  0  0  0  0  0  0
    6.8619    0.1441   -0.9093 S   0  0  0  0  0  0  0  0  0  0  0  0
    5.4409   -2.1601    0.5411 S   0  0  0  0  0  0  0  0  0  0  0  0
    6.4303   -3.7309   -2.7543 H   0  0  0  0  0  0  0  0  0  0  0  0
    5.5860   -2.1899   -2.5185 H   0  0  0  0  0  0  0  0  0  0  0  0
    4.8288   -3.7100   -1.9875 H   0  0  0  0  0  0  0  0  0  0  0  0
    3.6457    0.7285    2.5479 H   0  0  0  0  0  0  0  0  0  0  0  0
    4.6773   -0.6897    2.8247 H   0  0  0  0  0  0  0  0  0  0  0  0
    3.3762   -0.7552    1.6142 H   0  0  0  0  0  0  0  0  0  0  0  0
    6.2816    2.1266    1.1801 H   0  0  0  0  0  0  0  0  0  0  0  0
    4.5655    2.3480    1.6243 H   0  0  0  0  0  0  0  0  0  0  0  0
    5.0523    2.1889   -0.0874 H   0  0  0  0  0  0  0  0  0  0  0  0
    7.4011   -2.4711   -0.7991 H   0  0  0  0  0  0  0  0  0  0  0  0
    6.6609   -3.9951   -0.2590 H   0  0  0  0  0  0  0  0  0  0  0  0
  1 11  1  0  0  0  0
  1  4  1  0  0  0  0
  2 12  1  0  0  0  0
  2 13  1  0  0  0  0
  3  6  1  0  0  0  0
  3 15  1  0  0  0  0
  3 16  1  0  0  0  0
  4 19  1  0  0  0  0
  4  8  1  0  0  0  0
  5  8  1  0  0  0  0
  5  6  1  0  0  0  0
  6  2  1  0  0  0  0
  7  5  2  0  0  0  0
  9  1  1  0  0  0  0
 10  1  1  0  0  0  0
 14  2  1  0  0  0  0
 17  3  1  0  0  0  0
 18  4  1  0  0  0  0
M  END
>  <HBA>
3

>  <HBD>
0

>  <TPSA>
60.63

>  <cid>
12042

>  <dipole>
3.28

>  <excitation_energy_1>
3.69

>  <excitation_energy_2>
4.713

>  <excitation_energy_3>
5.08

>  <excitation_energy_4>
5.247

>  <homo_energy>
-5.638

>  <homo_lumo_gap>
5.042

>  <logP>
1.586

>  <lumo_energy>
-0.596

>  <melting_point>
16.07

>  <molecular_refractivity>
44.43

>  <oscillator_strength_1>
0.0002

>  <oscillator_strength_2>
0.0459

>  <oscillator_strength_3>
0.0397

>  <oscillator_strength_4>
0.0068

>  <open_babel_can_smiles>
CCSC(=S)N(C)C

>  <mulliken_charges>
19
1   -0.436333
2   -0.337654
3   -0.31001
4   -0.420683
5   -0.013807
6   -0.335712
7   -0.257007
8   0.139765
9   0.150872
10   0.183931
11   0.151913
12   0.168788
13   0.191957
14   0.197095
15   0.19224
16   0.150103
17   0.197382
18   0.213173
19   0.173988

>  <lowdin_charges>
19
1   -0.446643
2   -0.361811
3   -0.346737
4   -0.369399
5   -0.160028
6   -0.068291
7   -0.235543
8   0.147306
9   0.156682
10   0.169031
11   0.152812
12   0.166527
13   0.169557
14   0.173383
15   0.170334
16   0.155262
17   0.174348
18   0.185968
19   0.167243

$$$$

