PCCDB-ID:  61379
public computational chemistry database (PCCDB) project, http://pccdb.org

 39 39  0  0  0  0  0  0  0  0999 V2000
   12.8647    5.2117   -2.8173 C   0  0  0  0  0  0  0  0  0  0  0  0
   11.5108    5.7433   -3.3035 C   0  0  0  0  0  0  0  0  0  0  0  0
   10.3009    5.2292   -2.5052 C   0  0  0  0  0  0  0  0  0  0  0  0
   10.2703    5.6922   -1.0396 C   0  0  0  0  0  0  0  0  0  0  0  0
    1.5053    3.8330    4.3206 C   0  0  0  0  0  0  0  0  0  0  0  0
    1.7050    3.5213    2.9745 C   0  0  0  0  0  0  0  0  0  0  0  0
    2.5493    4.3913    5.0605 C   0  0  0  0  0  0  0  0  0  0  0  0
    8.9812    5.3344   -0.2804 C   0  0  0  0  0  0  0  0  0  0  0  0
    2.9411    3.7661    2.3750 C   0  0  0  0  0  0  0  0  0  0  0  0
    3.7835    4.6341    4.4565 C   0  0  0  0  0  0  0  0  0  0  0  0
    5.3493    4.5525    2.4648 C   0  0  0  0  0  0  0  0  0  0  0  0
    6.2788    3.3200    2.6048 C   0  0  0  0  0  0  0  0  0  0  0  0
    8.7880    3.8320   -0.0884 C   0  0  0  0  0  0  0  0  0  0  0  0
    3.9977    4.3246    3.1068 C   0  0  0  0  0  0  0  0  0  0  0  0
    7.6388    3.5750    1.9871 C   0  0  0  0  0  0  0  0  0  0  0  0
    8.6559    3.8022    2.6074 O   0  0  0  0  0  0  0  0  0  0  0  0
    7.5659    3.5489    0.6341 O   0  0  0  0  0  0  0  0  0  0  0  0
   13.6795    5.5663   -3.4588 H   0  0  0  0  0  0  0  0  0  0  0  0
   12.8857    4.1145   -2.8300 H   0  0  0  0  0  0  0  0  0  0  0  0
   13.0880    5.5354   -1.7947 H   0  0  0  0  0  0  0  0  0  0  0  0
   11.3773    5.4668   -4.3580 H   0  0  0  0  0  0  0  0  0  0  0  0
   11.5188    6.8424   -3.2755 H   0  0  0  0  0  0  0  0  0  0  0  0
   10.2855    4.1309   -2.5544 H   0  0  0  0  0  0  0  0  0  0  0  0
    9.3806    5.5700   -3.0014 H   0  0  0  0  0  0  0  0  0  0  0  0
   10.3898    6.7843   -1.0132 H   0  0  0  0  0  0  0  0  0  0  0  0
   11.1314    5.2806   -0.4963 H   0  0  0  0  0  0  0  0  0  0  0  0
    0.5421    3.6470    4.7879 H   0  0  0  0  0  0  0  0  0  0  0  0
    0.8963    3.0921    2.3885 H   0  0  0  0  0  0  0  0  0  0  0  0
    2.4018    4.6426    6.1077 H   0  0  0  0  0  0  0  0  0  0  0  0
    8.1085    5.7409   -0.8092 H   0  0  0  0  0  0  0  0  0  0  0  0
    9.0058    5.8017    0.7106 H   0  0  0  0  0  0  0  0  0  0  0  0
    3.0878    3.5264    1.3238 H   0  0  0  0  0  0  0  0  0  0  0  0
    4.5914    5.0742    5.0376 H   0  0  0  0  0  0  0  0  0  0  0  0
    5.2294    4.7810    1.4000 H   0  0  0  0  0  0  0  0  0  0  0  0
    5.8410    5.4173    2.9267 H   0  0  0  0  0  0  0  0  0  0  0  0
    5.8117    2.4581    2.1162 H   0  0  0  0  0  0  0  0  0  0  0  0
    6.4331    3.0817    3.6602 H   0  0  0  0  0  0  0  0  0  0  0  0
    9.6300    3.3974    0.4577 H   0  0  0  0  0  0  0  0  0  0  0  0
    8.6646    3.3111   -1.0405 H   0  0  0  0  0  0  0  0  0  0  0  0
  1 20  1  0  0  0  0
  2 22  1  0  0  0  0
  2  1  1  0  0  0  0
  2  3  1  0  0  0  0
  3  4  1  0  0  0  0
  4 25  1  0  0  0  0
  4 26  1  0  0  0  0
  4  8  1  0  0  0  0
  5 27  1  0  0  0  0
  5  7  2  0  0  0  0
  6  5  1  0  0  0  0
  7 29  1  0  0  0  0
  8 13  1  0  0  0  0
  8 31  1  0  0  0  0
  9  6  2  0  0  0  0
  9 14  1  0  0  0  0
 10 33  1  0  0  0  0
 10  7  1  0  0  0  0
 11 12  1  0  0  0  0
 11 35  1  0  0  0  0
 11 14  1  0  0  0  0
 12 37  1  0  0  0  0
 13 38  1  0  0  0  0
 13 17  1  0  0  0  0
 14 10  2  0  0  0  0
 15 12  1  0  0  0  0
 15 16  2  0  0  0  0
 17 15  1  0  0  0  0
 18  1  1  0  0  0  0
 19  1  1  0  0  0  0
 21  2  1  0  0  0  0
 23  3  1  0  0  0  0
 24  3  1  0  0  0  0
 28  6  1  0  0  0  0
 30  8  1  0  0  0  0
 32  9  1  0  0  0  0
 34 11  1  0  0  0  0
 36 12  1  0  0  0  0
 39 13  1  0  0  0  0
M  END
>  <HBA>
2

>  <HBD>
0

>  <TPSA>
26.3

>  <cid>
61379

>  <dipole>
1.8

>  <excitation_energy_1>
5.287

>  <excitation_energy_2>
5.59

>  <excitation_energy_3>
5.877

>  <excitation_energy_4>
6.075

>  <homo_energy>
-6.544

>  <homo_lumo_gap>
6.433

>  <logP>
3.743

>  <lumo_energy>
-0.112

>  <melting_point>
14.28

>  <molecular_refractivity>
71.15

>  <oscillator_strength_1>
0.0003

>  <oscillator_strength_2>
0.0438

>  <oscillator_strength_3>
0.057

>  <oscillator_strength_4>
0.0009

>  <open_babel_can_smiles>
CCCCCCOC(=O)CCc1ccccc1

>  <mulliken_charges>
39
1   -0.444425
2   -0.249639
3   -0.254133
4   -0.267023
5   -0.130466
6   -0.127797
7   -0.12792
8   -0.280017
9   -0.180767
10   -0.180079
11   -0.365266
12   -0.325714
13   -0.045829
14   0.170969
15   0.602974
16   -0.476399
17   -0.463685
18   0.143849
19   0.140911
20   0.148354
21   0.132065
22   0.131323
23   0.129507
24   0.129221
25   0.135383
26   0.14228
27   0.129107
28   0.129483
29   0.130221
30   0.138582
31   0.158071
32   0.125244
33   0.127325
34   0.162106
35   0.156975
36   0.165843
37   0.17081
38   0.166359
39   0.1522

>  <lowdin_charges>
39
1   -0.445545
2   -0.268578
3   -0.277129
4   -0.275974
5   -0.159786
6   -0.155855
7   -0.152184
8   -0.287368
9   -0.165241
10   -0.167813
11   -0.266845
12   -0.291236
13   -0.136034
14   -0.002981
15   0.199255
16   -0.270122
17   -0.200151
18   0.151618
19   0.143905
20   0.147436
21   0.140888
22   0.136958
23   0.134791
24   0.140844
25   0.143263
26   0.145085
27   0.157429
28   0.15869
29   0.156435
30   0.144709
31   0.156616
32   0.15364
33   0.157261
34   0.155992
35   0.156008
36   0.166532
37   0.166188
38   0.157865
39   0.151435

$$$$

