PCCDB-ID:  21228
public computational chemistry database (PCCDB) project, http://pccdb.org

 18 17  0  0  0  0  0  0  0  0999 V2000
    7.2959    4.9225    1.1596 C   0  0  0  0  0  0  0  0  0  0  0  0
    6.6398    0.2852    0.2544 C   0  0  0  0  0  0  0  0  0  0  0  0
    6.4694    0.5209    2.7843 C   0  0  0  0  0  0  0  0  0  0  0  0
    7.3429    3.3992    1.2888 C   0  0  0  0  0  0  0  0  0  0  0  0
    5.8725    0.9059    1.4265 C   0  0  0  0  0  0  0  0  0  0  0  0
    5.6275    2.7348    1.2396 S   0  0  0  0  0  0  0  0  0  0  0  0
    8.3115    5.3338    1.1847 H   0  0  0  0  0  0  0  0  0  0  0  0
    6.7267    5.3726    1.9798 H   0  0  0  0  0  0  0  0  0  0  0  0
    6.8300    5.2263    0.2162 H   0  0  0  0  0  0  0  0  0  0  0  0
    6.6511   -0.8085    0.3471 H   0  0  0  0  0  0  0  0  0  0  0  0
    7.6828    0.6216    0.2348 H   0  0  0  0  0  0  0  0  0  0  0  0
    6.1797    0.5452   -0.7035 H   0  0  0  0  0  0  0  0  0  0  0  0
    6.4856   -0.5712    2.8937 H   0  0  0  0  0  0  0  0  0  0  0  0
    5.8851    0.9411    3.6082 H   0  0  0  0  0  0  0  0  0  0  0  0
    7.5023    0.8737    2.8836 H   0  0  0  0  0  0  0  0  0  0  0  0
    7.8200    3.1151    2.2324 H   0  0  0  0  0  0  0  0  0  0  0  0
    7.9275    2.9694    0.4689 H   0  0  0  0  0  0  0  0  0  0  0  0
    4.8354    0.5492    1.3902 H   0  0  0  0  0  0  0  0  0  0  0  0
  1  7  1  0  0  0  0
  1  4  1  0  0  0  0
  1  8  1  0  0  0  0
  2 10  1  0  0  0  0
  2  5  1  0  0  0  0
  3 15  1  0  0  0  0
  3 13  1  0  0  0  0
  3 14  1  0  0  0  0
  4 16  1  0  0  0  0
  5  3  1  0  0  0  0
  6  4  1  0  0  0  0
  6  5  1  0  0  0  0
  9  1  1  0  0  0  0
 11  2  1  0  0  0  0
 12  2  1  0  0  0  0
 17  4  1  0  0  0  0
 18  5  1  0  0  0  0
M  END
>  <HBA>
1

>  <HBD>
0

>  <TPSA>
25.3

>  <cid>
21228

>  <dipole>
1.71

>  <excitation_energy_1>
5.037

>  <excitation_energy_2>
5.338

>  <excitation_energy_3>
5.877

>  <excitation_energy_4>
5.99

>  <homo_energy>
-5.785

>  <homo_lumo_gap>
7.012

>  <logP>
2.148

>  <lumo_energy>
1.227

>  <melting_point>
-16.93

>  <molecular_refractivity>
33.74

>  <oscillator_strength_1>
0.0015

>  <oscillator_strength_2>
0.0179

>  <oscillator_strength_3>
0.0136

>  <oscillator_strength_4>
0.0094

>  <open_babel_can_smiles>
CCSC(C)C

>  <mulliken_charges>
18
1   -0.452815
2   -0.436945
3   -0.436828
4   -0.396751
5   -0.234382
6   0.068677
7   0.150328
8   0.164129
9   0.164085
10   0.1454
11   0.147468
12   0.162204
13   0.145343
14   0.162143
15   0.147438
16   0.16701
17   0.167081
18   0.166415

>  <lowdin_charges>
18
1   -0.443821
2   -0.444417
3   -0.445674
4   -0.373543
5   -0.213397
6   0.067348
7   0.153999
8   0.159595
9   0.158667
10   0.148834
11   0.147721
12   0.15994
13   0.148852
14   0.160951
15   0.147825
16   0.152798
17   0.153688
18   0.160635

$$$$

