PCCDB-ID:  26630
public computational chemistry database (PCCDB) project, http://pccdb.org

 26 25  0  0  0  0  0  0  0  0999 V2000
    0.5580   -1.8456   -0.1468 C   0  0  0  0  0  0  0  0  0  0  0  0
   10.3815   -0.6545   -0.1628 C   0  0  0  0  0  0  0  0  0  0  0  0
    1.8439   -1.0212   -0.2642 C   0  0  0  0  0  0  0  0  0  0  0  0
    3.0599   -1.8568   -0.6849 C   0  0  0  0  0  0  0  0  0  0  0  0
    4.3495   -1.0360   -0.8073 C   0  0  0  0  0  0  0  0  0  0  0  0
    5.5657   -1.8859   -1.2315 C   0  0  0  0  0  0  0  0  0  0  0  0
    6.8087   -1.0685   -1.4037 C   0  0  0  0  0  0  0  0  0  0  0  0
    7.9584   -1.2330   -0.7335 C   0  0  0  0  0  0  0  0  0  0  0  0
    9.1354   -0.3542   -0.9792 C   0  0  0  0  0  0  0  0  0  0  0  0
    9.1093    0.5611   -1.7894 O   0  0  0  0  0  0  0  0  0  0  0  0
   -0.2901   -1.2220    0.1578 H   0  0  0  0  0  0  0  0  0  0  0  0
    0.6664   -2.6459    0.5956 H   0  0  0  0  0  0  0  0  0  0  0  0
    0.2989   -2.3154   -1.1036 H   0  0  0  0  0  0  0  0  0  0  0  0
   10.1647   -0.5765    0.9105 H   0  0  0  0  0  0  0  0  0  0  0  0
   11.1756    0.0463   -0.4269 H   0  0  0  0  0  0  0  0  0  0  0  0
   10.7220   -1.6820   -0.3454 H   0  0  0  0  0  0  0  0  0  0  0  0
    2.0557   -0.5331    0.6976 H   0  0  0  0  0  0  0  0  0  0  0  0
    1.6947   -0.2096   -0.9904 H   0  0  0  0  0  0  0  0  0  0  0  0
    2.8482   -2.3473   -1.6469 H   0  0  0  0  0  0  0  0  0  0  0  0
    3.2115   -2.6682    0.0424 H   0  0  0  0  0  0  0  0  0  0  0  0
    4.5703   -0.5471    0.1513 H   0  0  0  0  0  0  0  0  0  0  0  0
    4.2026   -0.2271   -1.5369 H   0  0  0  0  0  0  0  0  0  0  0  0
    5.3277   -2.3760   -2.1886 H   0  0  0  0  0  0  0  0  0  0  0  0
    5.7344   -2.6866   -0.4997 H   0  0  0  0  0  0  0  0  0  0  0  0
    6.7731   -0.2574   -2.1323 H   0  0  0  0  0  0  0  0  0  0  0  0
    8.0626   -2.0242    0.0083 H   0  0  0  0  0  0  0  0  0  0  0  0
  1 11  1  0  0  0  0
  1 12  1  0  0  0  0
  2 14  1  0  0  0  0
  3  1  1  0  0  0  0
  3 17  1  0  0  0  0
  4  3  1  0  0  0  0
  4 20  1  0  0  0  0
  5  4  1  0  0  0  0
  5 21  1  0  0  0  0
  6  5  1  0  0  0  0
  6 24  1  0  0  0  0
  7  6  1  0  0  0  0
  7  8  2  0  0  0  0
  8 26  1  0  0  0  0
  9  8  1  0  0  0  0
  9  2  1  0  0  0  0
 10  9  2  0  0  0  0
 13  1  1  0  0  0  0
 15  2  1  0  0  0  0
 16  2  1  0  0  0  0
 18  3  1  0  0  0  0
 19  4  1  0  0  0  0
 22  5  1  0  0  0  0
 23  6  1  0  0  0  0
 25  7  1  0  0  0  0
M  END
>  <HBA>
1

>  <HBD>
0

>  <TPSA>
17.07

>  <cid>
26630

>  <dipole>
2.98

>  <excitation_energy_1>
3.712

>  <excitation_energy_2>
5.517

>  <excitation_energy_3>
6.235

>  <excitation_energy_4>
6.565

>  <homo_energy>
-6.514

>  <homo_lumo_gap>
5.29

>  <logP>
2.712

>  <lumo_energy>
-1.225

>  <melting_point>
2.63

>  <molecular_refractivity>
45.1

>  <oscillator_strength_1>
0.0002

>  <oscillator_strength_2>
0.4654

>  <oscillator_strength_3>
0.0243

>  <oscillator_strength_4>
0.0029

>  <open_babel_can_smiles>
CCCCC/C=C/C(=O)C

>  <mulliken_charges>
26
1   -0.442017
2   -0.537883
3   -0.247996
4   -0.246595
5   -0.258859
6   -0.3138
7   -0.053762
8   -0.192831
9   0.434774
10   -0.46189
11   0.144026
12   0.14185
13   0.142385
14   0.166714
15   0.177075
16   0.166776
17   0.132654
18   0.132978
19   0.129294
20   0.129002
21   0.141028
22   0.138429
23   0.151787
24   0.141789
25   0.163403
26   0.121666

>  <lowdin_charges>
26
1   -0.445422
2   -0.47271
3   -0.2723
4   -0.274926
5   -0.272267
6   -0.272875
7   -0.089362
8   -0.228348
9   0.157339
10   -0.252859
11   0.151236
12   0.147077
13   0.146801
14   0.166549
15   0.172211
16   0.167148
17   0.140001
18   0.140819
19   0.138427
20   0.139033
21   0.144408
22   0.14387
23   0.155523
24   0.147828
25   0.170139
26   0.152661

$$$$

