PCCDB-ID:  7505
public computational chemistry database (PCCDB) project, http://pccdb.org

 13 13  0  0  0  0  0  0  0  0999 V2000
   -1.3948   -0.0761    0.0343 C   0  0  0  0  0  0  0  0  0  0  0  0
   -0.7674    1.1719    0.0080 C   0  0  0  0  0  0  0  0  0  0  0  0
   -0.6318   -1.2461    0.0103 C   0  0  0  0  0  0  0  0  0  0  0  0
    0.6215    1.2561   -0.0432 C   0  0  0  0  0  0  0  0  0  0  0  0
    0.7579   -1.1749   -0.0408 C   0  0  0  0  0  0  0  0  0  0  0  0
    2.8213    0.1606   -0.1201 C   0  0  0  0  0  0  0  0  0  0  0  0
    1.3899    0.0799   -0.0676 C   0  0  0  0  0  0  0  0  0  0  0  0
    3.9820    0.2265   -0.1626 N   0  0  0  0  0  0  0  0  0  0  0  0
   -2.4788   -0.1369    0.0744 H   0  0  0  0  0  0  0  0  0  0  0  0
   -1.3610    2.0812    0.0267 H   0  0  0  0  0  0  0  0  0  0  0  0
   -1.1201   -2.2160    0.0314 H   0  0  0  0  0  0  0  0  0  0  0  0
    1.1188    2.2205   -0.0634 H   0  0  0  0  0  0  0  0  0  0  0  0
    1.3597   -2.0778   -0.0595 H   0  0  0  0  0  0  0  0  0  0  0  0
  1  9  1  0  0  0  0
  2 10  1  0  0  0  0
  2  1  2  0  0  0  0
  3 11  1  0  0  0  0
  3  1  1  0  0  0  0
  4  2  1  0  0  0  0
  5  3  2  0  0  0  0
  6  7  1  0  0  0  0
  7  4  2  0  0  0  0
  7  5  1  0  0  0  0
  8  6  3  0  0  0  0
 12  4  1  0  0  0  0
 13  5  1  0  0  0  0
M  END
>  <HBA>
1

>  <HBD>
0

>  <TPSA>
23.79

>  <cid>
7505

>  <dipole>
4.56

>  <excitation_energy_1>
5.083

>  <excitation_energy_2>
5.521

>  <excitation_energy_3>
6.241

>  <excitation_energy_4>
6.468

>  <homo_energy>
-7.26

>  <homo_lumo_gap>
5.848

>  <logP>
1.558

>  <lumo_energy>
-1.412

>  <melting_point>
41.05

>  <molecular_refractivity>
31.16

>  <oscillator_strength_1>
0.0081

>  <oscillator_strength_2>
0.2273

>  <oscillator_strength_3>
0.0

>  <oscillator_strength_4>
0.3442

>  <open_babel_can_smiles>
N#Cc1ccccc1

>  <mulliken_charges>
13
1   -0.115545
2   -0.133779
3   -0.13352
4   -0.133412
5   -0.133578
6   0.239827
7   0.124396
8   -0.476416
9   0.145868
10   0.147604
11   0.147533
12   0.160502
13   0.16052

>  <lowdin_charges>
13
1   -0.135004
2   -0.149548
3   -0.14879
4   -0.132115
5   -0.132817
6   -0.014821
7   -0.01711
8   -0.117836
9   0.163827
10   0.167471
11   0.16686
12   0.174653
13   0.175232

$$$$

