PCCDB-ID:  41842
public computational chemistry database (PCCDB) project, http://pccdb.org

 32 31  0  0  0  0  0  0  0  0999 V2000
    4.3131   -0.5594   -2.0216 C   0  0  0  0  0  0  0  0  0  0  0  0
    5.1183    5.7690    7.3177 C   0  0  0  0  0  0  0  0  0  0  0  0
    5.1896   -0.0509   -0.8725 C   0  0  0  0  0  0  0  0  0  0  0  0
    5.4179    6.3353    5.9259 C   0  0  0  0  0  0  0  0  0  0  0  0
    4.4118    0.7811    0.1558 C   0  0  0  0  0  0  0  0  0  0  0  0
    5.2833    1.2947    1.3084 C   0  0  0  0  0  0  0  0  0  0  0  0
    4.4920    2.1407    2.3282 C   0  0  0  0  0  0  0  0  0  0  0  0
    5.3346    2.5963    3.4797 C   0  0  0  0  0  0  0  0  0  0  0  0
    6.6583    5.6991    5.2565 C   0  0  0  0  0  0  0  0  0  0  0  0
    5.5952    3.8707    3.8066 C   0  0  0  0  0  0  0  0  0  0  0  0
    6.4633    4.2165    4.9670 C   0  0  0  0  0  0  0  0  0  0  0  0
    6.9766    3.3578    5.6726 O   0  0  0  0  0  0  0  0  0  0  0  0
    4.8958   -1.1486   -2.7387 H   0  0  0  0  0  0  0  0  0  0  0  0
    3.8544    0.2733   -2.5690 H   0  0  0  0  0  0  0  0  0  0  0  0
    3.5012   -1.1960   -1.6489 H   0  0  0  0  0  0  0  0  0  0  0  0
    4.2363    6.2512    7.7542 H   0  0  0  0  0  0  0  0  0  0  0  0
    5.9628    5.9319    7.9976 H   0  0  0  0  0  0  0  0  0  0  0  0
    4.9318    4.6903    7.2832 H   0  0  0  0  0  0  0  0  0  0  0  0
    6.0126    0.5540   -1.2784 H   0  0  0  0  0  0  0  0  0  0  0  0
    5.6609   -0.9046   -0.3655 H   0  0  0  0  0  0  0  0  0  0  0  0
    5.5856    7.4175    5.9967 H   0  0  0  0  0  0  0  0  0  0  0  0
    4.5425    6.2044    5.2752 H   0  0  0  0  0  0  0  0  0  0  0  0
    3.5880    0.1769    0.5640 H   0  0  0  0  0  0  0  0  0  0  0  0
    3.9393    1.6351   -0.3520 H   0  0  0  0  0  0  0  0  0  0  0  0
    6.1100    1.8972    0.9084 H   0  0  0  0  0  0  0  0  0  0  0  0
    5.7470    0.4431    1.8263 H   0  0  0  0  0  0  0  0  0  0  0  0
    3.6618    1.5295    2.7154 H   0  0  0  0  0  0  0  0  0  0  0  0
    4.0404    3.0048    1.8239 H   0  0  0  0  0  0  0  0  0  0  0  0
    5.7889    1.8235    4.1015 H   0  0  0  0  0  0  0  0  0  0  0  0
    7.5294    5.7994    5.9121 H   0  0  0  0  0  0  0  0  0  0  0  0
    6.8708    6.2283    4.3174 H   0  0  0  0  0  0  0  0  0  0  0  0
    5.1758    4.6895    3.2232 H   0  0  0  0  0  0  0  0  0  0  0  0
  1 15  1  0  0  0  0
  1  3  1  0  0  0  0
  2 16  1  0  0  0  0
  2 17  1  0  0  0  0
  3 20  1  0  0  0  0
  3  5  1  0  0  0  0
  4 21  1  0  0  0  0
  4  2  1  0  0  0  0
  5 23  1  0  0  0  0
  5  6  1  0  0  0  0
  6 26  1  0  0  0  0
  6  7  1  0  0  0  0
  7 27  1  0  0  0  0
  7  8  1  0  0  0  0
  8 10  2  0  0  0  0
  8 29  1  0  0  0  0
  9 30  1  0  0  0  0
  9  4  1  0  0  0  0
 10 11  1  0  0  0  0
 11  9  1  0  0  0  0
 11 12  2  0  0  0  0
 13  1  1  0  0  0  0
 14  1  1  0  0  0  0
 18  2  1  0  0  0  0
 19  3  1  0  0  0  0
 22  4  1  0  0  0  0
 24  5  1  0  0  0  0
 25  6  1  0  0  0  0
 28  7  1  0  0  0  0
 31  9  1  0  0  0  0
 32 10  1  0  0  0  0
M  END
>  <HBA>
1

>  <HBD>
0

>  <TPSA>
17.07

>  <cid>
41842

>  <dipole>
2.89

>  <excitation_energy_1>
3.578

>  <excitation_energy_2>
5.438

>  <excitation_energy_3>
6.053

>  <excitation_energy_4>
6.429

>  <homo_energy>
-6.395

>  <homo_lumo_gap>
5.129

>  <logP>
3.492

>  <lumo_energy>
-1.265

>  <melting_point>
1.3

>  <molecular_refractivity>
54.72

>  <oscillator_strength_1>
0.0007

>  <oscillator_strength_2>
0.47

>  <oscillator_strength_3>
0.008

>  <oscillator_strength_4>
0.0184

>  <open_babel_can_smiles>
CCCCC/C=C/C(=O)CCC

>  <mulliken_charges>
32
1   -0.441929
2   -0.441434
3   -0.248124
4   -0.264996
5   -0.246528
6   -0.258269
7   -0.313948
8   -0.055321
9   -0.3413
10   -0.193837
11   0.434942
12   -0.474071
13   0.143993
14   0.141836
15   0.142283
16   0.141977
17   0.149247
18   0.162208
19   0.132635
20   0.133037
21   0.143071
22   0.1389
23   0.129267
24   0.128943
25   0.140936
26   0.13847
27   0.150911
28   0.14162
29   0.162986
30   0.158304
31   0.141294
32   0.122894

>  <lowdin_charges>
32
1   -0.447289
2   -0.446304
3   -0.273911
4   -0.266137
5   -0.27636
6   -0.273491
7   -0.274353
8   -0.090536
9   -0.306137
10   -0.230505
11   0.157968
12   -0.257315
13   0.151858
14   0.14753
15   0.147625
16   0.150564
17   0.151784
18   0.154805
19   0.141045
20   0.141224
21   0.14503
22   0.142317
23   0.139478
24   0.139344
25   0.145421
26   0.14435
27   0.156003
28   0.147953
29   0.170823
30   0.160756
31   0.153102
32   0.153354

$$$$

