PCCDB-ID:  72823
public computational chemistry database (PCCDB) project, http://pccdb.org

 13 13  0  0  0  0  0  0  0  0999 V2000
   -0.3479    1.2830   -0.1395 C   0  0  0  0  0  0  0  0  0  0  0  0
    0.9932    0.5881   -0.0001 C   0  0  0  0  0  0  0  0  0  0  0  0
   -0.4473   -1.0181    0.1809 C   0  0  0  0  0  0  0  0  0  0  0  0
   -2.5458    0.1604   -0.2646 N   0  0  0  0  0  0  0  0  0  0  0  0
    0.9394   -0.6772    0.1868 N   0  0  0  0  0  0  0  0  0  0  0  0
   -1.2064    0.1611    0.1729 N   0  0  0  0  0  0  0  0  0  0  0  0
    2.1566    1.2478   -0.0448 O   0  0  0  0  0  0  0  0  0  0  0  0
   -0.9215   -2.1327    0.1586 O   0  0  0  0  0  0  0  0  0  0  0  0
   -0.5152    1.6628   -1.1583 H   0  0  0  0  0  0  0  0  0  0  0  0
   -0.4602    2.1196    0.5641 H   0  0  0  0  0  0  0  0  0  0  0  0
   -3.1334   -0.0057    0.5523 H   0  0  0  0  0  0  0  0  0  0  0  0
   -2.6647   -0.6614   -0.8618 H   0  0  0  0  0  0  0  0  0  0  0  0
    1.9965    2.1926   -0.2012 H   0  0  0  0  0  0  0  0  0  0  0  0
  1  2  1  0  0  0  0
  1  6  1  0  0  0  0
  1 10  1  0  0  0  0
  2  5  2  0  0  0  0
  3  5  1  0  0  0  0
  4  6  1  0  0  0  0
  4 11  1  0  0  0  0
  6  3  1  0  0  0  0
  7  2  1  0  0  0  0
  8  3  2  0  0  0  0
  9  1  1  0  0  0  0
 12  4  1  0  0  0  0
 13  7  1  0  0  0  0
M  END
>  <HBA>
5

>  <HBD>
2

>  <TPSA>
75.43

>  <cid>
72823

>  <dipole>
5.81

>  <excitation_energy_1>
5.028

>  <excitation_energy_2>
5.158

>  <excitation_energy_3>
5.594

>  <excitation_energy_4>
5.649

>  <homo_energy>
-6.876

>  <homo_lumo_gap>
6.027

>  <logP>
-0.621

>  <lumo_energy>
-0.849

>  <melting_point>
135.19

>  <molecular_refractivity>
31.45

>  <oscillator_strength_1>
0.0005

>  <oscillator_strength_2>
0.0334

>  <oscillator_strength_3>
0.0037

>  <oscillator_strength_4>
0.0047

>  <open_babel_can_smiles>
OC1=NC(=O)N(C1)N

>  <mulliken_charges>
13
1   -0.18402
2   0.509836
3   0.687792
4   -0.570103
5   -0.46684
6   -0.364696
7   -0.563568
8   -0.496372
9   0.188932
10   0.177351
11   0.332149
12   0.327476
13   0.422063

>  <lowdin_charges>
13
1   -0.226315
2   0.138887
3   0.161888
4   -0.450704
5   -0.186138
6   -0.099343
7   -0.312121
8   -0.269635
9   0.170087
10   0.165533
11   0.271449
12   0.268396
13   0.368014

$$$$

