PCCDB-ID:  8105
public computational chemistry database (PCCDB) project, http://pccdb.org

 19 18  0  0  0  0  0  0  0  0999 V2000
    1.2898    1.0593    0.4922 C   0  0  0  0  0  0  0  0  0  0  0  0
   -0.0766    1.5760    0.0238 C   0  0  0  0  0  0  0  0  0  0  0  0
    2.4698    1.8356   -0.1063 C   0  0  0  0  0  0  0  0  0  0  0  0
   -1.2509    0.8053    0.6304 C   0  0  0  0  0  0  0  0  0  0  0  0
    3.8306    1.3182    0.3642 C   0  0  0  0  0  0  0  0  0  0  0  0
   -2.5148    1.2484    0.1490 O   0  0  0  0  0  0  0  0  0  0  0  0
    4.9239    2.0042   -0.2355 O   0  0  0  0  0  0  0  0  0  0  0  0
    1.3846   -0.0040    0.2274 H   0  0  0  0  0  0  0  0  0  0  0  0
    1.3413    1.1050    1.5904 H   0  0  0  0  0  0  0  0  0  0  0  0
   -0.1503    1.5169   -1.0698 H   0  0  0  0  0  0  0  0  0  0  0  0
   -0.1737    2.6414    0.2861 H   0  0  0  0  0  0  0  0  0  0  0  0
    2.3797    2.9003    0.1615 H   0  0  0  0  0  0  0  0  0  0  0  0
    2.4394    1.7869   -1.2025 H   0  0  0  0  0  0  0  0  0  0  0  0
   -1.2058    0.8540    1.7319 H   0  0  0  0  0  0  0  0  0  0  0  0
   -1.1900   -0.2529    0.3534 H   0  0  0  0  0  0  0  0  0  0  0  0
    3.9543    0.2683    0.0764 H   0  0  0  0  0  0  0  0  0  0  0  0
    3.8905    1.3605    1.4652 H   0  0  0  0  0  0  0  0  0  0  0  0
   -2.6191    2.1747    0.4163 H   0  0  0  0  0  0  0  0  0  0  0  0
    4.8649    2.9345    0.0321 H   0  0  0  0  0  0  0  0  0  0  0  0
  1  9  1  0  0  0  0
  2 11  1  0  0  0  0
  2  1  1  0  0  0  0
  2  4  1  0  0  0  0
  3 12  1  0  0  0  0
  3  5  1  0  0  0  0
  3  1  1  0  0  0  0
  4 14  1  0  0  0  0
  5 17  1  0  0  0  0
  6 18  1  0  0  0  0
  6  4  1  0  0  0  0
  7 19  1  0  0  0  0
  7  5  1  0  0  0  0
  8  1  1  0  0  0  0
 10  2  1  0  0  0  0
 13  3  1  0  0  0  0
 15  4  1  0  0  0  0
 16  5  1  0  0  0  0
M  END
>  <HBA>
2

>  <HBD>
2

>  <TPSA>
40.46

>  <cid>
8105

>  <dipole>
2.37

>  <excitation_energy_1>
6.4

>  <excitation_energy_2>
6.46

>  <excitation_energy_3>
7.093

>  <excitation_energy_4>
7.183

>  <homo_energy>
-7.018

>  <homo_lumo_gap>
8.961

>  <logP>
0.141

>  <lumo_energy>
1.943

>  <melting_point>
11.34

>  <molecular_refractivity>
28.47

>  <oscillator_strength_1>
0.0122

>  <oscillator_strength_2>
0.0064

>  <oscillator_strength_3>
0.0003

>  <oscillator_strength_4>
0.0027

>  <open_babel_can_smiles>
OCCCCCO

>  <mulliken_charges>
19
1   -0.268391
2   -0.275501
3   -0.275706
4   -0.026011
5   -0.02582
6   -0.614508
7   -0.614536
8   0.137561
9   0.131071
10   0.148664
11   0.119248
12   0.11923
13   0.148647
14   0.11662
15   0.146116
16   0.146134
17   0.116619
18   0.385307
19   0.385256

>  <lowdin_charges>
19
1   -0.271319
2   -0.288656
3   -0.288716
4   -0.131135
5   -0.13162
6   -0.465711
7   -0.46521
8   0.141122
9   0.136736
10   0.146997
11   0.132054
12   0.132025
13   0.146927
14   0.120582
15   0.1444
16   0.144512
17   0.120516
18   0.338209
19   0.338289

$$$$

