PCCDB-ID:  13192
public computational chemistry database (PCCDB) project, http://pccdb.org

 24 23  0  0  0  0  0  0  0  0999 V2000
    0.9986   -0.2921    0.0858 C   0  0  0  0  0  0  0  0  0  0  0  0
    0.7704   -0.5597    1.5792 C   0  0  0  0  0  0  0  0  0  0  0  0
    2.4428    0.1120   -0.2357 C   0  0  0  0  0  0  0  0  0  0  0  0
   -0.6726   -0.9622    1.9030 C   0  0  0  0  0  0  0  0  0  0  0  0
    2.6552    0.3783   -1.7312 C   0  0  0  0  0  0  0  0  0  0  0  0
   -0.9212   -1.2183    3.3913 C   0  0  0  0  0  0  0  0  0  0  0  0
    4.8628    1.5231   -1.7665 C   0  0  0  0  0  0  0  0  0  0  0  0
   -0.5404    0.3140    5.3179 C   0  0  0  0  0  0  0  0  0  0  0  0
    4.0268    0.7039   -2.0600 N   0  0  0  0  0  0  0  0  0  0  0  0
   -0.7191   -0.0098    4.1693 N   0  0  0  0  0  0  0  0  0  0  0  0
    5.7717    2.2533   -1.5744 O   0  0  0  0  0  0  0  0  0  0  0  0
   -0.3607    0.7649    6.3945 O   0  0  0  0  0  0  0  0  0  0  0  0
    0.3127    0.4999   -0.2486 H   0  0  0  0  0  0  0  0  0  0  0  0
    0.7335   -1.1903   -0.4913 H   0  0  0  0  0  0  0  0  0  0  0  0
    1.0296    0.3370    2.1568 H   0  0  0  0  0  0  0  0  0  0  0  0
    1.4539   -1.3532    1.9159 H   0  0  0  0  0  0  0  0  0  0  0  0
    3.1353   -0.6772    0.0840 H   0  0  0  0  0  0  0  0  0  0  0  0
    2.7118    1.0151    0.3290 H   0  0  0  0  0  0  0  0  0  0  0  0
   -0.9368   -1.8799    1.3597 H   0  0  0  0  0  0  0  0  0  0  0  0
   -1.3641   -0.1813    1.5605 H   0  0  0  0  0  0  0  0  0  0  0  0
    1.9981    1.1904   -2.0704 H   0  0  0  0  0  0  0  0  0  0  0  0
    2.3861   -0.5112   -2.3102 H   0  0  0  0  0  0  0  0  0  0  0  0
   -0.2512   -2.0087    3.7547 H   0  0  0  0  0  0  0  0  0  0  0  0
   -1.9516   -1.5647    3.5395 H   0  0  0  0  0  0  0  0  0  0  0  0
  1  2  1  0  0  0  0
  2  4  1  0  0  0  0
  2 16  1  0  0  0  0
  2 15  1  0  0  0  0
  3 17  1  0  0  0  0
  3  1  1  0  0  0  0
  3 18  1  0  0  0  0
  4  6  1  0  0  0  0
  5  3  1  0  0  0  0
  6 24  1  0  0  0  0
  6 23  1  0  0  0  0
  6 10  1  0  0  0  0
  7 11  2  0  0  0  0
  8 12  2  0  0  0  0
  9  7  2  0  0  0  0
  9  5  1  0  0  0  0
 10  8  2  0  0  0  0
 13  1  1  0  0  0  0
 14  1  1  0  0  0  0
 19  4  1  0  0  0  0
 20  4  1  0  0  0  0
 21  5  1  0  0  0  0
 22  5  1  0  0  0  0
M  END
>  <HBA>
4

>  <HBD>
0

>  <TPSA>
58.86

>  <cid>
13192

>  <dipole>
4.62

>  <excitation_energy_1>
5.973

>  <excitation_energy_2>
6.064

>  <excitation_energy_3>
6.733

>  <excitation_energy_4>
6.756

>  <homo_energy>
-7.456

>  <homo_lumo_gap>
7.902

>  <logP>
1.218

>  <lumo_energy>
0.446

>  <melting_point>
73.66

>  <molecular_refractivity>
45.09

>  <oscillator_strength_1>
0.0004

>  <oscillator_strength_2>
0.0004

>  <oscillator_strength_3>
0.0123

>  <oscillator_strength_4>
0.014

>  <open_babel_can_smiles>
O=C=NCCCCCCN=C=O

>  <mulliken_charges>
24
1   -0.262196
2   -0.256723
3   -0.268191
4   -0.26528
5   -0.137195
6   -0.139903
7   0.604367
8   0.606257
9   -0.427376
10   -0.426562
11   -0.415236
12   -0.411092
13   0.136984
14   0.133927
15   0.155718
16   0.131484
17   0.151851
18   0.146892
19   0.138325
20   0.150339
21   0.162277
22   0.164692
23   0.160671
24   0.165971

>  <lowdin_charges>
24
1   -0.275684
2   -0.277092
3   -0.28142
4   -0.279364
5   -0.170117
6   -0.167256
7   0.174451
8   0.171933
9   -0.182854
10   -0.182543
11   -0.166505
12   -0.161247
13   0.143188
14   0.140977
15   0.151764
16   0.141331
17   0.151829
18   0.148257
19   0.147674
20   0.151774
21   0.154266
22   0.157306
23   0.152752
24   0.156579

$$$$

