PCCDB-ID:  70745
public computational chemistry database (PCCDB) project, http://pccdb.org

 24 24  0  0  0  0  0  0  0  0999 V2000
    2.0782   -0.1638    1.4143 C   0  0  0  0  0  0  0  0  0  0  0  0
    5.4374    2.0791    0.9832 C   0  0  0  0  0  0  0  0  0  0  0  0
    5.4511    0.5919    0.6037 C   0  0  0  0  0  0  0  0  0  0  0  0
    4.0010    2.6045    1.1105 C   0  0  0  0  0  0  0  0  0  0  0  0
    4.6603    0.3373   -0.6884 C   0  0  0  0  0  0  0  0  0  0  0  0
    3.1918    2.3717   -0.1766 C   0  0  0  0  0  0  0  0  0  0  0  0
    2.1976   -0.0238   -0.0867 C   0  0  0  0  0  0  0  0  0  0  0  0
    3.2204    0.9334   -0.7519 C   0  0  0  0  0  0  0  0  0  0  0  0
    1.4671   -0.6751   -0.8196 O   0  0  0  0  0  0  0  0  0  0  0  0
    2.8497    1.0311   -2.1189 O   0  0  0  0  0  0  0  0  0  0  0  0
    1.6966    0.7683    1.8478 H   0  0  0  0  0  0  0  0  0  0  0  0
    3.0436   -0.3646    1.8870 H   0  0  0  0  0  0  0  0  0  0  0  0
    1.3797   -0.9729    1.6374 H   0  0  0  0  0  0  0  0  0  0  0  0
    5.9664    2.6534    0.2088 H   0  0  0  0  0  0  0  0  0  0  0  0
    5.9835    2.2378    1.9214 H   0  0  0  0  0  0  0  0  0  0  0  0
    5.0510   -0.0019    1.4368 H   0  0  0  0  0  0  0  0  0  0  0  0
    6.4825    0.2456    0.4603 H   0  0  0  0  0  0  0  0  0  0  0  0
    4.0091    3.6793    1.3310 H   0  0  0  0  0  0  0  0  0  0  0  0
    3.5173    2.1248    1.9713 H   0  0  0  0  0  0  0  0  0  0  0  0
    4.6206   -0.7334   -0.9274 H   0  0  0  0  0  0  0  0  0  0  0  0
    5.1861    0.8157   -1.5238 H   0  0  0  0  0  0  0  0  0  0  0  0
    3.6099    2.9988   -0.9737 H   0  0  0  0  0  0  0  0  0  0  0  0
    2.1505    2.6965   -0.0540 H   0  0  0  0  0  0  0  0  0  0  0  0
    2.2103    0.3049   -2.2645 H   0  0  0  0  0  0  0  0  0  0  0  0
  1 13  1  0  0  0  0
  1 11  1  0  0  0  0
  1 12  1  0  0  0  0
  2  4  1  0  0  0  0
  2 15  1  0  0  0  0
  3  2  1  0  0  0  0
  3 16  1  0  0  0  0
  4 18  1  0  0  0  0
  4 19  1  0  0  0  0
  5  3  1  0  0  0  0
  6 23  1  0  0  0  0
  6  4  1  0  0  0  0
  7  1  1  0  0  0  0
  8  5  1  0  0  0  0
  8  6  1  0  0  0  0
  8  7  1  0  0  0  0
  9  7  2  0  0  0  0
 10  8  1  0  0  0  0
 14  2  1  0  0  0  0
 17  3  1  0  0  0  0
 20  5  1  0  0  0  0
 21  5  1  0  0  0  0
 22  6  1  0  0  0  0
 24 10  1  0  0  0  0
M  END
>  <HBA>
2

>  <HBD>
1

>  <TPSA>
37.3

>  <cid>
70745

>  <dipole>
3.14

>  <excitation_energy_1>
4.55

>  <excitation_energy_2>
5.247

>  <excitation_energy_3>
6.39

>  <excitation_energy_4>
6.664

>  <homo_energy>
-6.846

>  <homo_lumo_gap>
6.144

>  <logP>
1.271

>  <lumo_energy>
-0.702

>  <melting_point>
45.72

>  <molecular_refractivity>
39.86

>  <oscillator_strength_1>
0.0008

>  <oscillator_strength_2>
0.0156

>  <oscillator_strength_3>
0.0086

>  <oscillator_strength_4>
0.021

>  <open_babel_can_smiles>
CC(=O)C1(O)CCCCC1

>  <mulliken_charges>
24
1   -0.542325
2   -0.257152
3   -0.273012
4   -0.271993
5   -0.290178
6   -0.292358
7   0.434758
8   0.257157
9   -0.463322
10   -0.669634
11   0.185264
12   0.180323
13   0.184453
14   0.135803
15   0.133626
16   0.130264
17   0.141114
18   0.140129
19   0.127851
20   0.139707
21   0.162145
22   0.161741
23   0.13844
24   0.4072

>  <lowdin_charges>
24
1   -0.473713
2   -0.279012
3   -0.283168
4   -0.28304
5   -0.287753
6   -0.285257
7   0.164016
8   0.083228
9   -0.242963
10   -0.463982
11   0.178702
12   0.172141
13   0.176786
14   0.142682
15   0.145817
16   0.136133
17   0.148981
18   0.147677
19   0.137826
20   0.147151
21   0.161833
22   0.162306
23   0.146843
24   0.346765

$$$$

