PCCDB-ID:  11370
public computational chemistry database (PCCDB) project, http://pccdb.org

 19 19  0  0  0  0  0  0  0  0999 V2000
    2.4056   -0.0646   -0.6443 C   0  0  0  0  0  0  0  0  0  0  0  0
    4.3733    2.6236    3.1699 C   0  0  0  0  0  0  0  0  0  0  0  0
    3.3936    2.8902    2.2148 C   0  0  0  0  0  0  0  0  0  0  0  0
    5.0063    1.3844    3.1665 C   0  0  0  0  0  0  0  0  0  0  0  0
    3.0496    1.9279    1.2646 C   0  0  0  0  0  0  0  0  0  0  0  0
    4.6861    0.3948    2.2288 C   0  0  0  0  0  0  0  0  0  0  0  0
    3.6904    0.6856    1.2684 C   0  0  0  0  0  0  0  0  0  0  0  0
    5.4539   -0.9010    2.3459 C   0  0  0  0  0  0  0  0  0  0  0  0
    6.2967   -1.0641    3.2012 O   0  0  0  0  0  0  0  0  0  0  0  0
    5.1776   -1.8846    1.4676 O   0  0  0  0  0  0  0  0  0  0  0  0
    3.3932   -0.3000    0.3556 O   0  0  0  0  0  0  0  0  0  0  0  0
    2.3561   -0.9818   -1.2324 H   0  0  0  0  0  0  0  0  0  0  0  0
    2.6932    0.7720   -1.2912 H   0  0  0  0  0  0  0  0  0  0  0  0
    1.4275    0.1344   -0.1920 H   0  0  0  0  0  0  0  0  0  0  0  0
    4.6427    3.3732    3.9076 H   0  0  0  0  0  0  0  0  0  0  0  0
    2.8890    3.8524    2.1990 H   0  0  0  0  0  0  0  0  0  0  0  0
    5.7740    1.1407    3.8930 H   0  0  0  0  0  0  0  0  0  0  0  0
    2.2854    2.1522    0.5300 H   0  0  0  0  0  0  0  0  0  0  0  0
    4.4774   -1.5888    0.8520 H   0  0  0  0  0  0  0  0  0  0  0  0
  1 14  1  0  0  0  0
  1 11  1  0  0  0  0
  2 15  1  0  0  0  0
  3  2  2  0  0  0  0
  4  2  1  0  0  0  0
  4 17  1  0  0  0  0
  5  7  2  0  0  0  0
  5  3  1  0  0  0  0
  6  8  1  0  0  0  0
  6  4  2  0  0  0  0
  7  6  1  0  0  0  0
  8  9  2  0  0  0  0
 10  8  1  0  0  0  0
 11  7  1  0  0  0  0
 12  1  1  0  0  0  0
 13  1  1  0  0  0  0
 16  3  1  0  0  0  0
 18  5  1  0  0  0  0
 19 10  1  0  0  0  0
M  END
>  <HBA>
3

>  <HBD>
1

>  <TPSA>
46.53

>  <cid>
11370

>  <dipole>
6.71

>  <excitation_energy_1>
4.648

>  <excitation_energy_2>
4.679

>  <excitation_energy_3>
5.431

>  <excitation_energy_4>
5.904

>  <homo_energy>
-6.661

>  <homo_lumo_gap>
5.448

>  <logP>
1.393

>  <lumo_energy>
-1.214

>  <melting_point>
100.75

>  <molecular_refractivity>
39.89

>  <oscillator_strength_1>
0.0001

>  <oscillator_strength_2>
0.0728

>  <oscillator_strength_3>
0.1229

>  <oscillator_strength_4>
0.0026

>  <open_babel_can_smiles>
COc1ccccc1C(=O)O

>  <mulliken_charges>
19
1   -0.22006
2   -0.129128
3   -0.129361
4   -0.172401
5   -0.190773
6   -0.005705
7   0.343333
8   0.573167
9   -0.463379
10   -0.599827
11   -0.562907
12   0.182899
13   0.168974
14   0.168779
15   0.140359
16   0.141572
17   0.17748
18   0.140582
19   0.436396

>  <lowdin_charges>
19
1   -0.275557
2   -0.171396
3   -0.129422
4   -0.115735
5   -0.209388
6   -0.085491
7   0.105534
8   0.192449
9   -0.258514
10   -0.362568
11   -0.211879
12   0.17062
13   0.156224
14   0.154908
15   0.165223
16   0.163398
17   0.185601
18   0.167239
19   0.358754

$$$$

