PCCDB-ID:  21024
public computational chemistry database (PCCDB) project, http://pccdb.org

 20 19  0  0  0  0  0  0  0  0999 V2000
    2.9232   -1.7238    0.2961 C   0  0  0  0  0  0  0  0  0  0  0  0
    5.2627   -0.9399   -0.0341 C   0  0  0  0  0  0  0  0  0  0  0  0
    4.3229    4.1288   -0.7617 C   0  0  0  0  0  0  0  0  0  0  0  0
    1.9832    3.3443   -0.4347 C   0  0  0  0  0  0  0  0  0  0  0  0
    3.2534    0.6497   -0.1140 C   0  0  0  0  0  0  0  0  0  0  0  0
    3.9925    1.7547   -0.3551 C   0  0  0  0  0  0  0  0  0  0  0  0
    3.7728   -0.7069    0.0585 C   0  0  0  0  0  0  0  0  0  0  0  0
    3.4732    3.1115   -0.5262 C   0  0  0  0  0  0  0  0  0  0  0  0
    3.2735   -2.7431    0.4311 H   0  0  0  0  0  0  0  0  0  0  0  0
    1.8498   -1.5647    0.3625 H   0  0  0  0  0  0  0  0  0  0  0  0
    5.5064   -1.9949    0.1203 H   0  0  0  0  0  0  0  0  0  0  0  0
    5.8054   -0.3522    0.7170 H   0  0  0  0  0  0  0  0  0  0  0  0
    5.6516   -0.6417   -1.0159 H   0  0  0  0  0  0  0  0  0  0  0  0
    3.9728    5.1485   -0.8942 H   0  0  0  0  0  0  0  0  0  0  0  0
    5.3963    3.9696   -0.8287 H   0  0  0  0  0  0  0  0  0  0  0  0
    1.7399    4.3999   -0.5847 H   0  0  0  0  0  0  0  0  0  0  0  0
    1.5926    3.0414    0.5450 H   0  0  0  0  0  0  0  0  0  0  0  0
    1.4418    2.7601   -1.1895 H   0  0  0  0  0  0  0  0  0  0  0  0
    2.1716    0.7436   -0.0348 H   0  0  0  0  0  0  0  0  0  0  0  0
    5.0743    1.6607   -0.4347 H   0  0  0  0  0  0  0  0  0  0  0  0
  1 10  1  0  0  0  0
  1  9  1  0  0  0  0
  2  7  1  0  0  0  0
  2 11  1  0  0  0  0
  2 12  1  0  0  0  0
  3  8  2  0  0  0  0
  4 17  1  0  0  0  0
  5 19  1  0  0  0  0
  5  7  1  0  0  0  0
  6  5  2  0  0  0  0
  7  1  2  0  0  0  0
  8  4  1  0  0  0  0
  8  6  1  0  0  0  0
 13  2  1  0  0  0  0
 14  3  1  0  0  0  0
 15  3  1  0  0  0  0
 16  4  1  0  0  0  0
 18  4  1  0  0  0  0
 20  6  1  0  0  0  0
M  END
>  <HBA>
0

>  <HBD>
0

>  <TPSA>
0.0

>  <cid>
21024

>  <dipole>
0.0

>  <excitation_energy_1>
4.612

>  <excitation_energy_2>
5.317

>  <excitation_energy_3>
5.373

>  <excitation_energy_4>
5.643

>  <homo_energy>
-5.614

>  <homo_lumo_gap>
4.593

>  <logP>
2.695

>  <lumo_energy>
-1.02

>  <melting_point>
-52.46

>  <molecular_refractivity>
39.15

>  <oscillator_strength_1>
0.9021

>  <oscillator_strength_2>
0.0017

>  <oscillator_strength_3>
0.0

>  <oscillator_strength_4>
0.0

>  <open_babel_can_smiles>
CC(=C)/C=C/C(=C)C

>  <mulliken_charges>
20
1   -0.414768
2   -0.527783
3   -0.414779
4   -0.527804
5   -0.173403
6   -0.173474
7   0.244568
8   0.244614
9   0.137106
10   0.137939
11   0.152899
12   0.160321
13   0.160487
14   0.137106
15   0.137939
16   0.152899
17   0.160434
18   0.160375
19   0.122662
20   0.122663

>  <lowdin_charges>
20
1   -0.345848
2   -0.44287
3   -0.345844
4   -0.442875
5   -0.163175
6   -0.16318
7   0.012215
8   0.012216
9   0.156177
10   0.154204
11   0.156912
12   0.160395
13   0.159034
14   0.156172
15   0.154204
16   0.1569
17   0.159017
18   0.160426
19   0.152959
20   0.152959

$$$$

