PCCDB-ID:  58855
public computational chemistry database (PCCDB) project, http://pccdb.org

 25 25  0  0  0  0  0  0  0  0999 V2000
    1.0051    0.0042   -0.1789 C   0  0  0  0  0  0  0  0  0  0  0  0
    4.4219   -1.1606    0.9179 C   0  0  0  0  0  0  0  0  0  0  0  0
    4.4005    1.3489    0.7690 C   0  0  0  0  0  0  0  0  0  0  0  0
    2.8937   -1.1282    0.8133 C   0  0  0  0  0  0  0  0  0  0  0  0
    2.8732    1.2785    0.6691 C   0  0  0  0  0  0  0  0  0  0  0  0
    7.0324    1.4036    2.1741 C   0  0  0  0  0  0  0  0  0  0  0  0
    7.0541   -1.0049    2.3142 C   0  0  0  0  0  0  0  0  0  0  0  0
    4.9471    0.1402    1.5450 C   0  0  0  0  0  0  0  0  0  0  0  0
    6.5113    0.1562    1.5854 C   0  0  0  0  0  0  0  0  0  0  0  0
    7.4127    2.4009    2.6280 N   0  0  0  0  0  0  0  0  0  0  0  0
    7.4522   -1.9363    2.8792 N   0  0  0  0  0  0  0  0  0  0  0  0
    2.4433    0.0298    0.0456 N   0  0  0  0  0  0  0  0  0  0  0  0
    0.7300   -0.9179   -0.7021 H   0  0  0  0  0  0  0  0  0  0  0  0
    0.7154    0.8522   -0.8088 H   0  0  0  0  0  0  0  0  0  0  0  0
    0.4155    0.0558    0.7575 H   0  0  0  0  0  0  0  0  0  0  0  0
    4.8417   -1.2761   -0.0905 H   0  0  0  0  0  0  0  0  0  0  0  0
    4.7311   -2.0299    1.5088 H   0  0  0  0  0  0  0  0  0  0  0  0
    4.6938    2.2873    1.2528 H   0  0  0  0  0  0  0  0  0  0  0  0
    4.8205    1.3513   -0.2460 H   0  0  0  0  0  0  0  0  0  0  0  0
    2.4546   -1.1378    1.8336 H   0  0  0  0  0  0  0  0  0  0  0  0
    2.5436   -2.0362    0.3091 H   0  0  0  0  0  0  0  0  0  0  0  0
    2.5089    2.1139    0.0602 H   0  0  0  0  0  0  0  0  0  0  0  0
    2.4325    1.4032    1.6811 H   0  0  0  0  0  0  0  0  0  0  0  0
    4.5961    0.1984    2.5843 H   0  0  0  0  0  0  0  0  0  0  0  0
    6.8803    0.0989    0.5509 H   0  0  0  0  0  0  0  0  0  0  0  0
  1 12  1  0  0  0  0
  1 15  1  0  0  0  0
  2 17  1  0  0  0  0
  2  8  1  0  0  0  0
  3 18  1  0  0  0  0
  3  8  1  0  0  0  0
  4  2  1  0  0  0  0
  4 20  1  0  0  0  0
  5  3  1  0  0  0  0
  5 23  1  0  0  0  0
  6 10  3  0  0  0  0
  7 11  3  0  0  0  0
  8  9  1  0  0  0  0
  8 24  1  0  0  0  0
  9  6  1  0  0  0  0
  9  7  1  0  0  0  0
 12  5  1  0  0  0  0
 12  4  1  0  0  0  0
 13  1  1  0  0  0  0
 14  1  1  0  0  0  0
 16  2  1  0  0  0  0
 19  3  1  0  0  0  0
 21  4  1  0  0  0  0
 22  5  1  0  0  0  0
 25  9  1  0  0  0  0
M  END
>  <HBA>
3

>  <HBD>
0

>  <TPSA>
50.82

>  <cid>
58855

>  <dipole>
4.75

>  <excitation_energy_1>
5.234

>  <excitation_energy_2>
5.348

>  <excitation_energy_3>
5.599

>  <excitation_energy_4>
5.931

>  <homo_energy>
-6.207

>  <homo_lumo_gap>
5.954

>  <logP>
0.929

>  <lumo_energy>
-0.253

>  <melting_point>
64.46

>  <molecular_refractivity>
49.57

>  <oscillator_strength_1>
0.0014

>  <oscillator_strength_2>
0.002

>  <oscillator_strength_3>
0.036

>  <oscillator_strength_4>
0.0389

>  <open_babel_can_smiles>
CN1CCC(CC1)C(C#N)C#N

>  <mulliken_charges>
25
1   -0.295057
2   -0.279198
3   -0.279261
4   -0.123946
5   -0.124078
6   0.377342
7   0.377338
8   -0.103688
9   -0.220183
10   -0.459315
11   -0.459352
12   -0.378731
13   0.152561
14   0.152549
15   0.123111
16   0.146478
17   0.166163
18   0.166168
19   0.146458
20   0.114636
21   0.148083
22   0.148105
23   0.114651
24   0.158574
25   0.230594

>  <lowdin_charges>
25
1   -0.356391
2   -0.285686
3   -0.285104
4   -0.197155
5   -0.197826
6   -0.00779
7   -0.007495
8   -0.113269
9   -0.118715
10   -0.096656
11   -0.096648
12   -0.187904
13   0.152589
14   0.153033
15   0.124018
16   0.149067
17   0.163085
18   0.162591
19   0.148925
20   0.116924
21   0.152386
22   0.152903
23   0.117073
24   0.155057
25   0.20299

$$$$

