PCCDB-ID:  15683
public computational chemistry database (PCCDB) project, http://pccdb.org

 17 16  0  0  1  0  0  0  0  0999 V2000
    1.5146   -0.2659    0.8523 C   0  0  0  0  0  0  0  0  0  0  0  0
    2.7247   -0.6348   -2.4934 C   0  0  0  0  0  0  0  0  0  0  0  0
    2.3113    0.1358   -0.1381 C   0  0  0  0  0  0  0  0  0  0  0  0
    4.6489   -0.4713   -0.8278 C   0  0  0  0  0  0  0  0  0  0  0  0
    5.5255   -1.4854   -1.5278 C   0  0  0  0  0  0  0  0  0  0  0  0
    3.1369   -0.7722   -1.0154 C   0  0  2  0  0  0  0  0  0  0  0  0
    6.3606   -1.2252   -2.3652 O   0  0  0  0  0  0  0  0  0  0  0  0
    0.9407    0.4394    1.4473 H   0  0  0  0  0  0  0  0  0  0  0  0
    1.4031   -1.3183    1.1072 H   0  0  0  0  0  0  0  0  0  0  0  0
    1.6647   -0.8754   -2.6237 H   0  0  0  0  0  0  0  0  0  0  0  0
    3.3097   -1.3012   -3.1376 H   0  0  0  0  0  0  0  0  0  0  0  0
    2.8845    0.3906   -2.8486 H   0  0  0  0  0  0  0  0  0  0  0  0
    2.3903    1.2018   -0.3619 H   0  0  0  0  0  0  0  0  0  0  0  0
    4.9036    0.5280   -1.1978 H   0  0  0  0  0  0  0  0  0  0  0  0
    4.8851   -0.5121    0.2456 H   0  0  0  0  0  0  0  0  0  0  0  0
    5.3481   -2.5418   -1.2150 H   0  0  0  0  0  0  0  0  0  0  0  0
    2.9567   -1.8092   -0.6966 H   0  0  0  0  0  0  0  0  0  0  0  0
  1  9  1  0  0  0  0
  1  8  1  0  0  0  0
  2  6  1  0  0  0  0
  3  1  2  0  0  0  0
  4 15  1  0  0  0  0
  5 16  1  0  0  0  0
  5  4  1  0  0  0  0
  6  4  1  0  0  0  0
  6 17  1  1  0  0  0
  6  3  1  0  0  0  0
  7  5  2  0  0  0  0
 10  2  1  0  0  0  0
 11  2  1  0  0  0  0
 12  2  1  0  0  0  0
 13  3  1  0  0  0  0
 14  4  1  0  0  0  0
M  END
>  <HBA>
1

>  <HBD>
0

>  <TPSA>
17.07

>  <cid>
15683

>  <dipole>
2.55

>  <excitation_energy_1>
4.192

>  <excitation_energy_2>
5.669

>  <excitation_energy_3>
6.285

>  <excitation_energy_4>
6.532

>  <homo_energy>
-6.77

>  <homo_lumo_gap>
6.093

>  <logP>
1.397

>  <lumo_energy>
-0.678

>  <melting_point>
-15.44

>  <molecular_refractivity>
30.68

>  <oscillator_strength_1>
0.0008

>  <oscillator_strength_2>
0.0232

>  <oscillator_strength_3>
0.0381

>  <oscillator_strength_4>
0.0423

>  <open_babel_can_smiles>
O=CC[C@@H](C=C)C

>  <mulliken_charges>
17
1   -0.345983
2   -0.449633
3   -0.035507
4   -0.328761
5   0.254938
6   -0.141473
7   -0.382481
8   0.143745
9   0.137849
10   0.156836
11   0.156487
12   0.150449
13   0.127454
14   0.160682
15   0.164168
16   0.098824
17   0.132404

>  <lowdin_charges>
17
1   -0.340093
2   -0.444123
3   -0.143002
4   -0.306917
5   0.054413
6   -0.115713
7   -0.213856
8   0.162336
9   0.153687
10   0.155851
11   0.156841
12   0.151583
13   0.149661
14   0.160075
15   0.166398
16   0.111092
17   0.141766

$$$$

