PCCDB-ID:  24141
public computational chemistry database (PCCDB) project, http://pccdb.org

 18 18  0  0  1  0  0  0  0  0999 V2000
   -0.7685   -1.1245   -0.2992 C   0  0  0  0  0  0  0  0  0  0  0  0
    0.7125   -1.1608    0.1258 C   0  0  0  0  0  0  0  0  0  0  0  0
   -1.2722    0.2205    0.2415 C   0  0  0  0  0  0  0  0  0  0  0  0
    1.1834    0.2867   -0.0566 C   0  0  1  0  0  0  0  0  0  0  0  0
    1.7710    0.5599   -1.4657 C   0  0  0  0  0  0  0  0  0  0  0  0
   -0.1143    2.3148    0.5598 N   0  0  0  0  0  0  0  0  0  0  0  0
   -0.0607    1.0625    0.1805 N   0  0  0  0  0  0  0  0  0  0  0  0
    1.9231   -0.3121   -2.2878 O   0  0  0  0  0  0  0  0  0  0  0  0
    2.1124    1.8319   -1.6909 O   0  0  0  0  0  0  0  0  0  0  0  0
    0.9724    2.9266    0.5176 O   0  0  0  0  0  0  0  0  0  0  0  0
   -1.3472   -1.9652    0.0919 H   0  0  0  0  0  0  0  0  0  0  0  0
   -0.8355   -1.1420   -1.3918 H   0  0  0  0  0  0  0  0  0  0  0  0
    1.3084   -1.8388   -0.4868 H   0  0  0  0  0  0  0  0  0  0  0  0
    0.8072   -1.4508    1.1780 H   0  0  0  0  0  0  0  0  0  0  0  0
   -1.6085    0.1475    1.2821 H   0  0  0  0  0  0  0  0  0  0  0  0
   -2.0700    0.6702   -0.3539 H   0  0  0  0  0  0  0  0  0  0  0  0
    1.9195    0.6162    0.6870 H   0  0  0  0  0  0  0  0  0  0  0  0
    1.8859    2.3798   -0.8967 H   0  0  0  0  0  0  0  0  0  0  0  0
  1 11  1  0  0  0  0
  1  2  1  0  0  0  0
  1  3  1  0  0  0  0
  2 14  1  0  0  0  0
  3 15  1  0  0  0  0
  4  2  1  0  0  0  0
  4  7  1  0  0  0  0
  4 17  1  1  0  0  0
  5  4  1  0  0  0  0
  7  3  1  0  0  0  0
  7  6  1  0  0  0  0
  8  5  2  0  0  0  0
  9  5  1  0  0  0  0
  9 18  1  0  0  0  0
 10  6  1  0  0  0  0
 12  1  1  0  0  0  0
 13  2  1  0  0  0  0
 16  3  1  0  0  0  0
M  RAD  2   6   2  10   2
M  END
>  <HBA>
5

>  <HBD>
1

>  <TPSA>
69.97

>  <cid>
24141

>  <dipole>
4.87

>  <excitation_energy_1>
3.436

>  <excitation_energy_2>
4.982

>  <excitation_energy_3>
5.52

>  <excitation_energy_4>
5.872

>  <homo_energy>
-6.958

>  <homo_lumo_gap>
5.14

>  <logP>
0.155

>  <lumo_energy>
-1.818

>  <melting_point>
95.53

>  <molecular_refractivity>
37.36

>  <oscillator_strength_1>
0.0012

>  <oscillator_strength_2>
0.0519

>  <oscillator_strength_3>
0.0031

>  <oscillator_strength_4>
0.0571

>  <open_babel_can_smiles>
[O][N]N1CCC[C@H]1C(=O)O

>  <mulliken_charges>
18
1   -0.312285
2   -0.297953
3   -0.111981
4   -0.104564
5   0.623335
6   0.166344
7   -0.229341
8   -0.446467
9   -0.581346
10   -0.414476
11   0.164795
12   0.184078
13   0.197054
14   0.154891
15   0.178032
16   0.18831
17   0.198373
18   0.443202

>  <lowdin_charges>
18
1   -0.280903
2   -0.278655
3   -0.193584
4   -0.11608
5   0.184266
6   0.074217
7   -0.028393
8   -0.24498
9   -0.348576
10   -0.301035
11   0.164017
12   0.164034
13   0.182413
14   0.153616
15   0.160146
16   0.172277
17   0.179047
18   0.358173

$$$$

