PCCDB-ID:  15538
public computational chemistry database (PCCDB) project, http://pccdb.org

 25 24  0  0  0  0  0  0  0  0999 V2000
    1.3010   -0.1331    0.6191 C   0  0  0  0  0  0  0  0  0  0  0  0
    0.8630   -4.0455   -4.0479 C   0  0  0  0  0  0  0  0  0  0  0  0
    0.6079   -1.6208   -4.7868 C   0  0  0  0  0  0  0  0  0  0  0  0
    2.6751   -2.9290   -5.4004 C   0  0  0  0  0  0  0  0  0  0  0  0
    2.7847   -1.5605   -0.9690 C   0  0  0  0  0  0  0  0  0  0  0  0
    2.4542   -0.1866   -0.3578 C   0  0  0  0  0  0  0  0  0  0  0  0
    1.7482   -1.9864   -2.0065 C   0  0  0  0  0  0  0  0  0  0  0  0
    1.5769   -2.7255   -4.3544 C   0  0  0  0  0  0  0  0  0  0  0  0
    3.1131    0.7875   -0.6590 O   0  0  0  0  0  0  0  0  0  0  0  0
    0.5545   -2.0443   -1.7824 O   0  0  0  0  0  0  0  0  0  0  0  0
    2.3468   -2.2821   -3.1687 O   0  0  0  0  0  0  0  0  0  0  0  0
    0.4146   -0.5974    0.1746 H   0  0  0  0  0  0  0  0  0  0  0  0
    1.0998    0.9021    0.9013 H   0  0  0  0  0  0  0  0  0  0  0  0
    1.5511   -0.7133    1.5174 H   0  0  0  0  0  0  0  0  0  0  0  0
    0.4052   -4.4320   -4.9653 H   0  0  0  0  0  0  0  0  0  0  0  0
    0.0821   -3.9118   -3.2976 H   0  0  0  0  0  0  0  0  0  0  0  0
    1.5793   -4.7921   -3.6875 H   0  0  0  0  0  0  0  0  0  0  0  0
    0.1479   -1.8949   -5.7428 H   0  0  0  0  0  0  0  0  0  0  0  0
    1.1449   -0.6766   -4.9272 H   0  0  0  0  0  0  0  0  0  0  0  0
   -0.1819   -1.4722   -4.0488 H   0  0  0  0  0  0  0  0  0  0  0  0
    2.2349   -3.2669   -6.3444 H   0  0  0  0  0  0  0  0  0  0  0  0
    3.3951   -3.6821   -5.0642 H   0  0  0  0  0  0  0  0  0  0  0  0
    3.2138   -1.9939   -5.5829 H   0  0  0  0  0  0  0  0  0  0  0  0
    2.7758   -2.3217   -0.1784 H   0  0  0  0  0  0  0  0  0  0  0  0
    3.7757   -1.5116   -1.4203 H   0  0  0  0  0  0  0  0  0  0  0  0
  1 13  1  0  0  0  0
  1 14  1  0  0  0  0
  2 17  1  0  0  0  0
  2 16  1  0  0  0  0
  3  8  1  0  0  0  0
  3 20  1  0  0  0  0
  4 22  1  0  0  0  0
  4  8  1  0  0  0  0
  5  6  1  0  0  0  0
  5 24  1  0  0  0  0
  6  1  1  0  0  0  0
  7 10  2  0  0  0  0
  7  5  1  0  0  0  0
  8  2  1  0  0  0  0
  8 11  1  0  0  0  0
  9  6  2  0  0  0  0
 11  7  1  0  0  0  0
 12  1  1  0  0  0  0
 15  2  1  0  0  0  0
 18  3  1  0  0  0  0
 19  3  1  0  0  0  0
 21  4  1  0  0  0  0
 23  4  1  0  0  0  0
 25  5  1  0  0  0  0
M  END
>  <HBA>
3

>  <HBD>
0

>  <TPSA>
43.37

>  <cid>
15538

>  <dipole>
2.66

>  <excitation_energy_1>
4.353

>  <excitation_energy_2>
5.486

>  <excitation_energy_3>
5.957

>  <excitation_energy_4>
6.268

>  <homo_energy>
-6.762

>  <homo_lumo_gap>
6.153

>  <logP>
1.307

>  <lumo_energy>
-0.61

>  <melting_point>
16.96

>  <molecular_refractivity>
42.09

>  <oscillator_strength_1>
0.0015

>  <oscillator_strength_2>
0.0074

>  <oscillator_strength_3>
0.0124

>  <oscillator_strength_4>
0.0243

>  <open_babel_can_smiles>
CC(=O)CC(=O)OC(C)(C)C

>  <mulliken_charges>
25
1   -0.53759
2   -0.466318
3   -0.466912
4   -0.450238
5   -0.432581
6   0.450949
7   0.631936
8   0.303917
9   -0.423175
10   -0.480503
11   -0.480367
12   0.20649
13   0.175674
14   0.165872
15   0.147044
16   0.185593
17   0.148848
18   0.146158
19   0.154842
20   0.185167
21   0.147897
22   0.155123
23   0.159242
24   0.181789
25   0.191142

>  <lowdin_charges>
25
1   -0.481062
2   -0.457791
3   -0.456425
4   -0.445071
5   -0.329807
6   0.174671
7   0.202568
8   0.145014
9   -0.225876
10   -0.277905
11   -0.185236
12   0.18842
13   0.17021
14   0.17089
15   0.157527
16   0.172113
17   0.15564
18   0.156698
19   0.157681
20   0.172055
21   0.156003
22   0.158406
23   0.159635
24   0.180553
25   0.181091

$$$$

