PCCDB-ID:  24314
public computational chemistry database (PCCDB) project, http://pccdb.org

 23 23  0  0  1  0  0  0  0  0999 V2000
    0.5433   -0.2833   -0.4670 C   0  0  0  0  0  0  0  0  0  0  0  0
    2.1922   -1.3634   -2.0609 C   0  0  0  0  0  0  0  0  0  0  0  0
    2.1792    1.1362   -1.7504 C   0  0  0  0  0  0  0  0  0  0  0  0
    5.4384   -1.2857    1.9131 C   0  0  0  0  0  0  0  0  0  0  0  0
    3.1216   -1.4124    0.7370 C   0  0  0  0  0  0  0  0  0  0  0  0
    3.9884   -1.0619    1.9242 C   0  0  1  0  0  0  0  0  0  0  0  0
    1.9583   -0.2166   -1.0654 C   0  0  0  0  0  0  0  0  0  0  0  0
    4.5611   -2.1765    2.6184 O   0  0  0  0  0  0  0  0  0  0  0  0
    2.9536   -0.2258   -0.0173 O   0  0  0  0  0  0  0  0  0  0  0  0
   -0.2101   -0.1623   -1.2534 H   0  0  0  0  0  0  0  0  0  0  0  0
    0.4053    0.5167    0.2681 H   0  0  0  0  0  0  0  0  0  0  0  0
    0.3486   -1.2418    0.0258 H   0  0  0  0  0  0  0  0  0  0  0  0
    1.5199   -1.2633   -2.9200 H   0  0  0  0  0  0  0  0  0  0  0  0
    2.0044   -2.3436   -1.6093 H   0  0  0  0  0  0  0  0  0  0  0  0
    3.2236   -1.3446   -2.4299 H   0  0  0  0  0  0  0  0  0  0  0  0
    1.4610    1.2839   -2.5640 H   0  0  0  0  0  0  0  0  0  0  0  0
    3.1919    1.1923   -2.1627 H   0  0  0  0  0  0  0  0  0  0  0  0
    2.0599    1.9496   -1.0274 H   0  0  0  0  0  0  0  0  0  0  0  0
    6.0872   -0.6750    2.5410 H   0  0  0  0  0  0  0  0  0  0  0  0
    5.9101   -1.7033    1.0230 H   0  0  0  0  0  0  0  0  0  0  0  0
    2.1613   -1.8090    1.0994 H   0  0  0  0  0  0  0  0  0  0  0  0
    3.6111   -2.2090    0.1569 H   0  0  0  0  0  0  0  0  0  0  0  0
    3.5881   -0.2780    2.5696 H   0  0  0  0  0  0  0  0  0  0  0  0
  1 12  1  0  0  0  0
  1 11  1  0  0  0  0
  2 14  1  0  0  0  0
  2  7  1  0  0  0  0
  3  7  1  0  0  0  0
  3 18  1  0  0  0  0
  4  6  1  0  0  0  0
  4 19  1  0  0  0  0
  4  8  1  0  0  0  0
  5 21  1  0  0  0  0
  5  6  1  0  0  0  0
  6 23  1  1  0  0  0
  6  8  1  0  0  0  0
  7  1  1  0  0  0  0
  7  9  1  0  0  0  0
  9  5  1  0  0  0  0
 10  1  1  0  0  0  0
 13  2  1  0  0  0  0
 15  2  1  0  0  0  0
 16  3  1  0  0  0  0
 17  3  1  0  0  0  0
 20  4  1  0  0  0  0
 22  5  1  0  0  0  0
M  END
>  <HBA>
2

>  <HBD>
0

>  <TPSA>
21.76

>  <cid>
24314

>  <dipole>
1.89

>  <excitation_energy_1>
6.431

>  <excitation_energy_2>
6.877

>  <excitation_energy_3>
6.978

>  <excitation_energy_4>
6.984

>  <homo_energy>
-6.882

>  <homo_lumo_gap>
8.879

>  <logP>
1.2

>  <lumo_energy>
1.997

>  <melting_point>
-11.52

>  <molecular_refractivity>
35.86

>  <oscillator_strength_1>
0.0053

>  <oscillator_strength_2>
0.0093

>  <oscillator_strength_3>
0.0063

>  <oscillator_strength_4>
0.0078

>  <open_babel_can_smiles>
CC(OC[C@H]1OC1)(C)C

>  <mulliken_charges>
23
1   -0.458334
2   -0.464176
3   -0.445749
4   -0.103203
5   -0.031418
6   0.093429
7   0.331385
8   -0.449684
9   -0.507841
10   0.143488
11   0.152119
12   0.144742
13   0.145624
14   0.146853
15   0.152087
16   0.137429
17   0.150492
18   0.151947
19   0.151506
20   0.150083
21   0.130842
22   0.129433
23   0.148944

>  <lowdin_charges>
23
1   -0.458661
2   -0.456097
3   -0.444038
4   -0.165398
5   -0.137531
6   -0.024415
7   0.133708
8   -0.287535
9   -0.278666
10   0.154892
11   0.1563
12   0.149791
13   0.15608
14   0.151006
15   0.154416
16   0.150363
17   0.154573
18   0.156661
19   0.156411
20   0.153105
21   0.135389
22   0.136511
23   0.153132

$$$$

