PCCDB-ID:  19298
public computational chemistry database (PCCDB) project, http://pccdb.org

 25 25  0  0  0  0  0  0  0  0999 V2000
    0.6574    0.5630   -0.1163 C   0  0  0  0  0  0  0  0  0  0  0  0
    4.3613    1.4964    0.1407 C   0  0  0  0  0  0  0  0  0  0  0  0
    2.9713    1.5938    0.0650 C   0  0  0  0  0  0  0  0  0  0  0  0
    4.9724    0.2457    0.1003 C   0  0  0  0  0  0  0  0  0  0  0  0
    2.7837   -0.8000   -0.0938 C   0  0  0  0  0  0  0  0  0  0  0  0
    3.0574   -5.7262    0.6590 C   0  0  0  0  0  0  0  0  0  0  0  0
    5.3079   -6.5759    0.9554 C   0  0  0  0  0  0  0  0  0  0  0  0
    5.0091   -4.3780   -0.1738 C   0  0  0  0  0  0  0  0  0  0  0  0
    2.1634    0.4497   -0.0513 C   0  0  0  0  0  0  0  0  0  0  0  0
    4.4670   -5.3680    0.8992 C   0  0  0  0  0  0  0  0  0  0  0  0
    4.1801   -0.9024   -0.0159 C   0  0  0  0  0  0  0  0  0  0  0  0
    1.9494   -6.0115    0.4717 N   0  0  0  0  0  0  0  0  0  0  0  0
    5.9985   -7.5067    0.9916 N   0  0  0  0  0  0  0  0  0  0  0  0
    4.1964   -3.1625   -0.1329 N   0  0  0  0  0  0  0  0  0  0  0  0
    4.9011   -2.1312   -0.0486 N   0  0  0  0  0  0  0  0  0  0  0  0
    0.3401    1.5987   -0.2726 H   0  0  0  0  0  0  0  0  0  0  0  0
    0.1933    0.2110    0.8137 H   0  0  0  0  0  0  0  0  0  0  0  0
    0.2461   -0.0437   -0.9307 H   0  0  0  0  0  0  0  0  0  0  0  0
    4.9645    2.3955    0.2278 H   0  0  0  0  0  0  0  0  0  0  0  0
    2.5005    2.5735    0.0942 H   0  0  0  0  0  0  0  0  0  0  0  0
    6.0505    0.1321    0.1537 H   0  0  0  0  0  0  0  0  0  0  0  0
    2.1978   -1.7089   -0.1888 H   0  0  0  0  0  0  0  0  0  0  0  0
    4.8940   -4.8347   -1.1633 H   0  0  0  0  0  0  0  0  0  0  0  0
    6.0687   -4.1714    0.0145 H   0  0  0  0  0  0  0  0  0  0  0  0
    4.5246   -4.8724    1.8782 H   0  0  0  0  0  0  0  0  0  0  0  0
  1  9  1  0  0  0  0
  1 17  1  0  0  0  0
  2 19  1  0  0  0  0
  3 20  1  0  0  0  0
  3  2  2  0  0  0  0
  4  2  1  0  0  0  0
  4 21  1  0  0  0  0
  5  9  2  0  0  0  0
  5 11  1  0  0  0  0
  6 10  1  0  0  0  0
  7 13  3  0  0  0  0
  8 14  1  0  0  0  0
  8 24  1  0  0  0  0
  8 10  1  0  0  0  0
  9  3  1  0  0  0  0
 10  7  1  0  0  0  0
 10 25  1  0  0  0  0
 11  4  2  0  0  0  0
 12  6  3  0  0  0  0
 14 15  1  0  0  0  0
 15 11  1  0  0  0  0
 16  1  1  0  0  0  0
 18  1  1  0  0  0  0
 22  5  1  0  0  0  0
 23  8  1  0  0  0  0
M  RAD  2  14   2  15   2
M  END
>  <HBA>
4

>  <HBD>
0

>  <TPSA>
72.3

>  <cid>
19298

>  <dipole>
5.62

>  <excitation_energy_1>
2.959

>  <excitation_energy_2>
3.928

>  <excitation_energy_3>
4.318

>  <excitation_energy_4>
5.456

>  <homo_energy>
-6.814

>  <homo_lumo_gap>
4.435

>  <logP>
2.742

>  <lumo_energy>
-2.378

>  <melting_point>
96.86

>  <molecular_refractivity>
55.71

>  <oscillator_strength_1>
0.0002

>  <oscillator_strength_2>
0.0242

>  <oscillator_strength_3>
0.4237

>  <oscillator_strength_4>
0.0015

>  <open_babel_can_smiles>
N#CC(C[N][N]c1cccc(c1)C)C#N

>  <mulliken_charges>
25
1   -0.528142
2   -0.135912
3   -0.164006
4   -0.137861
5   -0.180526
6   0.387469
7   0.373233
8   -0.122137
9   0.159239
10   -0.240293
11   0.250966
12   -0.442821
13   -0.444968
14   -0.195208
15   -0.2875
16   0.158301
17   0.173058
18   0.170303
19   0.141297
20   0.134329
21   0.147052
22   0.162379
23   0.195569
24   0.181754
25   0.244427

>  <lowdin_charges>
25
1   -0.442718
2   -0.154038
3   -0.148136
4   -0.143653
5   -0.155849
6   -0.008404
7   -0.010025
8   -0.199947
9   0.00821
10   -0.115569
11   0.00368
12   -0.089264
13   -0.087349
14   -0.101607
15   -0.064234
16   0.157929
17   0.167032
18   0.166668
19   0.164456
20   0.160223
21   0.168339
22   0.176173
23   0.176346
24   0.162182
25   0.209555

$$$$

