PCCDB-ID:  18920
public computational chemistry database (PCCDB) project, http://pccdb.org

 31 31  0  0  0  0  0  0  0  0999 V2000
    0.3978    2.0529    2.8888 C   0  0  0  0  0  0  0  0  0  0  0  0
    1.8199    1.7624    2.3993 C   0  0  0  0  0  0  0  0  0  0  0  0
    6.2618    6.3964    2.2794 C   0  0  0  0  0  0  0  0  0  0  0  0
    7.3440    5.6418    3.0712 C   0  0  0  0  0  0  0  0  0  0  0  0
    5.9494    5.7430    0.9202 C   0  0  0  0  0  0  0  0  0  0  0  0
    6.9504    4.2456    3.5753 C   0  0  0  0  0  0  0  0  0  0  0  0
    2.7370    2.9840    2.4911 C   0  0  0  0  0  0  0  0  0  0  0  0
    4.9252    4.5947    0.9479 C   0  0  0  0  0  0  0  0  0  0  0  0
    6.3364    3.3007    2.5317 C   0  0  0  0  0  0  0  0  0  0  0  0
    4.0901    2.6372    2.0502 N   0  0  0  0  0  0  0  0  0  0  0  0
    4.9911    3.7399    2.1340 N   0  0  0  0  0  0  0  0  0  0  0  0
   -0.2356    1.1617    2.8183 H   0  0  0  0  0  0  0  0  0  0  0  0
   -0.0756    2.8452    2.2960 H   0  0  0  0  0  0  0  0  0  0  0  0
    0.3984    2.3787    3.9361 H   0  0  0  0  0  0  0  0  0  0  0  0
    1.7817    1.4122    1.3569 H   0  0  0  0  0  0  0  0  0  0  0  0
    2.2640    0.9463    2.9824 H   0  0  0  0  0  0  0  0  0  0  0  0
    6.6222    7.4178    2.1000 H   0  0  0  0  0  0  0  0  0  0  0  0
    5.3452    6.4888    2.8768 H   0  0  0  0  0  0  0  0  0  0  0  0
    7.6493    6.2490    3.9343 H   0  0  0  0  0  0  0  0  0  0  0  0
    8.2358    5.5575    2.4316 H   0  0  0  0  0  0  0  0  0  0  0  0
    6.8923    5.3875    0.4840 H   0  0  0  0  0  0  0  0  0  0  0  0
    5.5664    6.4972    0.2209 H   0  0  0  0  0  0  0  0  0  0  0  0
    6.2199    4.3414    4.3890 H   0  0  0  0  0  0  0  0  0  0  0  0
    7.8411    3.7641    4.0034 H   0  0  0  0  0  0  0  0  0  0  0  0
    2.8149    3.3209    3.5308 H   0  0  0  0  0  0  0  0  0  0  0  0
    2.2905    3.8192    1.9196 H   0  0  0  0  0  0  0  0  0  0  0  0
    5.0494    3.9942    0.0212 H   0  0  0  0  0  0  0  0  0  0  0  0
    3.9130    5.0162    0.9118 H   0  0  0  0  0  0  0  0  0  0  0  0
    6.2084    2.3117    2.9775 H   0  0  0  0  0  0  0  0  0  0  0  0
    7.0116    3.1783    1.6644 H   0  0  0  0  0  0  0  0  0  0  0  0
    4.0513    2.2951    1.0816 H   0  0  0  0  0  0  0  0  0  0  0  0
  1 14  1  0  0  0  0
  2  7  1  0  0  0  0
  2  1  1  0  0  0  0
  2 16  1  0  0  0  0
  3 18  1  0  0  0  0
  3  4  1  0  0  0  0
  4  6  1  0  0  0  0
  4 19  1  0  0  0  0
  5  8  1  0  0  0  0
  5  3  1  0  0  0  0
  6 24  1  0  0  0  0
  6 23  1  0  0  0  0
  7 25  1  0  0  0  0
  8 11  1  0  0  0  0
  9 29  1  0  0  0  0
  9  6  1  0  0  0  0
 10 11  1  0  0  0  0
 10  7  1  0  0  0  0
 11  9  1  0  0  0  0
 12  1  1  0  0  0  0
 13  1  1  0  0  0  0
 15  2  1  0  0  0  0
 17  3  1  0  0  0  0
 20  4  1  0  0  0  0
 21  5  1  0  0  0  0
 22  5  1  0  0  0  0
 26  7  1  0  0  0  0
 27  8  1  0  0  0  0
 28  8  1  0  0  0  0
 30  9  1  0  0  0  0
 31 10  1  0  0  0  0
M  END
>  <HBA>
2

>  <HBD>
1

>  <TPSA>
15.27

>  <cid>
18920

>  <dipole>
1.07

>  <excitation_energy_1>
5.311

>  <excitation_energy_2>
5.549

>  <excitation_energy_3>
5.633

>  <excitation_energy_4>
5.672

>  <homo_energy>
-5.66

>  <homo_lumo_gap>
7.908

>  <logP>
2.106

>  <lumo_energy>
2.248

>  <melting_point>
23.84

>  <molecular_refractivity>
52.88

>  <oscillator_strength_1>
0.0275

>  <oscillator_strength_2>
0.028

>  <oscillator_strength_3>
0.0163

>  <oscillator_strength_4>
0.0358

>  <open_babel_can_smiles>
CCCNN1CCCCCC1

>  <mulliken_charges>
31
1   -0.444474
2   -0.263669
3   -0.246764
4   -0.260728
5   -0.285856
6   -0.24236
7   -0.086324
8   -0.117051
9   -0.118749
10   -0.437193
11   -0.289019
12   0.144858
13   0.142236
14   0.145115
15   0.125351
16   0.147998
17   0.126898
18   0.14214
19   0.128332
20   0.123905
21   0.136341
22   0.136189
23   0.138112
24   0.122268
25   0.145651
26   0.109138
27   0.100286
28   0.14089
29   0.154383
30   0.109481
31   0.272615

>  <lowdin_charges>
31
1   -0.443593
2   -0.277449
3   -0.277492
4   -0.278287
5   -0.287958
6   -0.282569
7   -0.204018
8   -0.210171
9   -0.20909
10   -0.28838
11   -0.137069
12   0.151586
13   0.147599
14   0.147002
15   0.13497
16   0.149263
17   0.141555
18   0.146592
19   0.143198
20   0.134754
21   0.140599
22   0.150567
23   0.145305
24   0.141695
25   0.144689
26   0.116818
27   0.112416
28   0.139948
29   0.158306
30   0.121098
31   0.228114

$$$$

