PCCDB-ID:  5251
public computational chemistry database (PCCDB) project, http://pccdb.org

 16 15  0  0  0  0  0  0  0  0999 V2000
    0.6169   -0.0700    0.0103 C   0  0  0  0  0  0  0  0  0  0  0  0
    2.0973    0.1470    0.0008 C   0  0  0  0  0  0  0  0  0  0  0  0
    3.0155   -0.7342    0.4400 C   0  0  0  0  0  0  0  0  0  0  0  0
    4.4381   -0.4752    0.4068 C   0  0  0  0  0  0  0  0  0  0  0  0
    5.3938   -1.3258    0.8323 C   0  0  0  0  0  0  0  0  0  0  0  0
    6.8246   -0.9495    0.7463 C   0  0  0  0  0  0  0  0  0  0  0  0
    7.2367    0.0979    0.3002 O   0  0  0  0  0  0  0  0  0  0  0  0
    7.7111   -1.8773    1.2144 O   0  0  0  0  0  0  0  0  0  0  0  0
    0.2024    0.0045   -1.0043 H   0  0  0  0  0  0  0  0  0  0  0  0
    0.1107    0.6990    0.6097 H   0  0  0  0  0  0  0  0  0  0  0  0
    0.3520   -1.0510    0.4175 H   0  0  0  0  0  0  0  0  0  0  0  0
    2.4451    1.1013   -0.3975 H   0  0  0  0  0  0  0  0  0  0  0  0
    2.6878   -1.6933    0.8427 H   0  0  0  0  0  0  0  0  0  0  0  0
    4.7706    0.4818    0.0061 H   0  0  0  0  0  0  0  0  0  0  0  0
    5.1224   -2.2982    1.2430 H   0  0  0  0  0  0  0  0  0  0  0  0
    7.2354   -2.6595    1.5378 H   0  0  0  0  0  0  0  0  0  0  0  0
  1 11  1  0  0  0  0
  1 10  1  0  0  0  0
  2  1  1  0  0  0  0
  2  3  2  0  0  0  0
  3 13  1  0  0  0  0
  4  3  1  0  0  0  0
  4  5  2  0  0  0  0
  5 15  1  0  0  0  0
  6  5  1  0  0  0  0
  6  8  1  0  0  0  0
  7  6  2  0  0  0  0
  8 16  1  0  0  0  0
  9  1  1  0  0  0  0
 12  2  1  0  0  0  0
 14  4  1  0  0  0  0
M  END
>  <HBA>
2

>  <HBD>
1

>  <TPSA>
37.3

>  <cid>
5251

>  <dipole>
5.32

>  <excitation_energy_1>
4.335

>  <excitation_energy_2>
4.829

>  <excitation_energy_3>
5.743

>  <excitation_energy_4>
6.003

>  <homo_energy>
-6.558

>  <homo_lumo_gap>
4.819

>  <logP>
1.203

>  <lumo_energy>
-1.739

>  <melting_point>
70.18

>  <molecular_refractivity>
31.78

>  <oscillator_strength_1>
0.0001

>  <oscillator_strength_2>
0.8

>  <oscillator_strength_3>
0.0025

>  <oscillator_strength_4>
0.0202

>  <open_babel_can_smiles>
C/C=C/C=C/C(=O)O

>  <mulliken_charges>
16
1   -0.496288
2   -0.090059
3   -0.108327
4   -0.07158
5   -0.25603
6   0.599957
7   -0.461885
8   -0.583569
9   0.169219
10   0.169316
11   0.160829
12   0.144032
13   0.127021
14   0.171075
15   0.121177
16   0.405112

>  <lowdin_charges>
16
1   -0.439531
2   -0.121224
3   -0.170773
4   -0.088586
5   -0.240393
6   0.191339
7   -0.256059
8   -0.36212
9   0.165397
10   0.167266
11   0.158934
12   0.158501
13   0.153399
14   0.17801
15   0.150534
16   0.355306

$$$$

