PCCDB-ID:  11935
public computational chemistry database (PCCDB) project, http://pccdb.org

 28 29  0  0  0  0  0  0  0  0999 V2000
   -0.5949    3.0900    2.3960 C   0  0  0  0  0  0  0  0  0  0  0  0
   -2.5986   -4.2109    3.6721 C   0  0  0  0  0  0  0  0  0  0  0  0
   -1.2575    2.5871    1.2734 C   0  0  0  0  0  0  0  0  0  0  0  0
    0.3444    2.2974    3.0552 C   0  0  0  0  0  0  0  0  0  0  0  0
   -1.9439   -3.0309    4.0218 C   0  0  0  0  0  0  0  0  0  0  0  0
   -2.6803   -4.5745    2.3255 C   0  0  0  0  0  0  0  0  0  0  0  0
   -0.9843    1.3004    0.8111 C   0  0  0  0  0  0  0  0  0  0  0  0
    0.6140    1.0065    2.5954 C   0  0  0  0  0  0  0  0  0  0  0  0
   -1.3788   -2.2143    3.0414 C   0  0  0  0  0  0  0  0  0  0  0  0
   -2.1079   -3.7789    1.3370 C   0  0  0  0  0  0  0  0  0  0  0  0
    0.2907   -0.8933    0.9609 C   0  0  0  0  0  0  0  0  0  0  0  0
   -0.0461    0.4955    1.4719 C   0  0  0  0  0  0  0  0  0  0  0  0
   -1.4582   -2.5871    1.6938 C   0  0  0  0  0  0  0  0  0  0  0  0
   -1.3642   -1.8892   -0.5565 N   0  0  0  0  0  0  0  0  0  0  0  0
   -0.8691   -1.7620    0.6934 N   0  0  0  0  0  0  0  0  0  0  0  0
   -0.8234   -1.1938   -1.4101 O   0  0  0  0  0  0  0  0  0  0  0  0
   -0.8100    4.0935    2.7530 H   0  0  0  0  0  0  0  0  0  0  0  0
   -3.0390   -4.8422    4.4383 H   0  0  0  0  0  0  0  0  0  0  0  0
   -1.9873    3.2009    0.7523 H   0  0  0  0  0  0  0  0  0  0  0  0
    0.8658    2.6788    3.9291 H   0  0  0  0  0  0  0  0  0  0  0  0
   -1.8766   -2.7308    5.0638 H   0  0  0  0  0  0  0  0  0  0  0  0
   -3.1823   -5.4945    2.0389 H   0  0  0  0  0  0  0  0  0  0  0  0
   -1.4906    0.9197   -0.0705 H   0  0  0  0  0  0  0  0  0  0  0  0
    1.3480    0.3923    3.1134 H   0  0  0  0  0  0  0  0  0  0  0  0
   -0.9038   -1.2820    3.3241 H   0  0  0  0  0  0  0  0  0  0  0  0
   -2.1581   -4.0693    0.2950 H   0  0  0  0  0  0  0  0  0  0  0  0
    0.9327   -1.4199    1.6718 H   0  0  0  0  0  0  0  0  0  0  0  0
    0.8120   -0.8237    0.0011 H   0  0  0  0  0  0  0  0  0  0  0  0
  1 17  1  0  0  0  0
  1  4  2  0  0  0  0
  2  5  1  0  0  0  0
  2 18  1  0  0  0  0
  3  1  1  0  0  0  0
  4 20  1  0  0  0  0
  5 21  1  0  0  0  0
  6  2  2  0  0  0  0
  7  3  2  0  0  0  0
  7 12  1  0  0  0  0
  8  4  1  0  0  0  0
  8 24  1  0  0  0  0
  9 25  1  0  0  0  0
  9  5  2  0  0  0  0
 10 13  2  0  0  0  0
 10  6  1  0  0  0  0
 11 12  1  0  0  0  0
 11 27  1  0  0  0  0
 12  8  2  0  0  0  0
 13  9  1  0  0  0  0
 14 15  1  0  0  0  0
 15 11  1  0  0  0  0
 15 13  1  0  0  0  0
 16 14  2  0  0  0  0
 19  3  1  0  0  0  0
 22  6  1  0  0  0  0
 23  7  1  0  0  0  0
 26 10  1  0  0  0  0
 28 11  1  0  0  0  0
M  END
>  <HBA>
3

>  <HBD>
0

>  <TPSA>
32.67

>  <cid>
11935

>  <dipole>
3.4

>  <excitation_energy_1>
3.136

>  <excitation_energy_2>
4.362

>  <excitation_energy_3>
4.561

>  <excitation_energy_4>
4.693

>  <homo_energy>
-6.27

>  <homo_lumo_gap>
4.803

>  <logP>
3.375

>  <lumo_energy>
-1.467

>  <melting_point>
62.77

>  <molecular_refractivity>
65.07

>  <oscillator_strength_1>
0.001

>  <oscillator_strength_2>
0.1871

>  <oscillator_strength_3>
0.0053

>  <oscillator_strength_4>
0.0041

>  <open_babel_can_smiles>
O=NN(c1ccccc1)Cc1ccccc1

>  <mulliken_charges>
28
1   -0.127619
2   -0.121388
3   -0.129263
4   -0.128028
5   -0.143263
6   -0.143132
7   -0.171994
8   -0.190923
9   -0.16824
10   -0.147541
11   -0.262273
12   0.168206
13   0.327096
14   0.167987
15   -0.34632
16   -0.370402
17   0.133114
18   0.133619
19   0.136601
20   0.132754
21   0.13663
22   0.138272
23   0.155327
24   0.126811
25   0.1531
26   0.1631
27   0.17004
28   0.207728

>  <lowdin_charges>
28
1   -0.154532
2   -0.162566
3   -0.150851
4   -0.154494
5   -0.146813
6   -0.146405
7   -0.157287
8   -0.173652
9   -0.180629
10   -0.166282
11   -0.216521
12   -0.015825
13   0.043735
14   0.064202
15   -0.015103
16   -0.257297
17   0.158781
18   0.161918
19   0.162299
20   0.159787
21   0.160227
22   0.162357
23   0.169886
24   0.156381
25   0.17202
26   0.174653
27   0.166418
28   0.185594

$$$$

