PCCDB-ID:  34718
public computational chemistry database (PCCDB) project, http://pccdb.org

 27 28  0  0  1  0  0  0  0  0999 V2000
   -2.0936   -0.9691   -0.7432 C   0  0  0  0  0  0  0  0  0  0  0  0
   -2.6378   -0.1415    0.4485 C   0  0  0  0  0  0  0  0  0  0  0  0
    2.1162    1.0352   -0.7069 C   0  0  0  0  0  0  0  0  0  0  0  0
   -0.8902   -0.1586   -1.2493 C   0  0  0  0  0  0  0  0  0  0  0  0
   -1.4590    0.7634    0.9042 C   0  0  0  0  0  0  0  0  0  0  0  0
    0.7730    1.5164   -0.1353 C   0  0  0  0  0  0  0  0  0  0  0  0
    1.5816   -1.2386    0.1787 C   0  0  0  0  0  0  0  0  0  0  0  0
    2.6521   -0.1499    0.1143 C   0  0  2  0  0  0  0  0  0  0  0  0
   -0.2371    0.3723    0.0466 C   0  0  0  0  0  0  0  0  0  0  0  0
    3.0151    0.2508    1.4348 O   0  0  0  0  0  0  0  0  0  0  0  0
    0.3930   -0.7181    0.7761 O   0  0  0  0  0  0  0  0  0  0  0  0
   -2.8455   -1.1413   -1.5206 H   0  0  0  0  0  0  0  0  0  0  0  0
   -1.7502   -1.9488   -0.3948 H   0  0  0  0  0  0  0  0  0  0  0  0
   -2.9940   -0.7874    1.2568 H   0  0  0  0  0  0  0  0  0  0  0  0
   -3.4904    0.4719    0.1361 H   0  0  0  0  0  0  0  0  0  0  0  0
    2.8493    1.8491   -0.6934 H   0  0  0  0  0  0  0  0  0  0  0  0
    1.9958    0.7213   -1.7534 H   0  0  0  0  0  0  0  0  0  0  0  0
   -1.2305    0.7012   -1.8424 H   0  0  0  0  0  0  0  0  0  0  0  0
   -0.2131   -0.7372   -1.8859 H   0  0  0  0  0  0  0  0  0  0  0  0
   -1.2120    0.6473    1.9639 H   0  0  0  0  0  0  0  0  0  0  0  0
   -1.6913    1.8218    0.7378 H   0  0  0  0  0  0  0  0  0  0  0  0
    0.3366    2.2951   -0.7725 H   0  0  0  0  0  0  0  0  0  0  0  0
    0.9524    1.9783    0.8446 H   0  0  0  0  0  0  0  0  0  0  0  0
    1.9044   -2.0556    0.8313 H   0  0  0  0  0  0  0  0  0  0  0  0
    1.3841   -1.6536   -0.8206 H   0  0  0  0  0  0  0  0  0  0  0  0
    3.5639   -0.5499   -0.3449 H   0  0  0  0  0  0  0  0  0  0  0  0
    2.1870    0.2600    1.9441 H   0  0  0  0  0  0  0  0  0  0  0  0
  1 13  1  0  0  0  0
  1  2  1  0  0  0  0
  2  5  1  0  0  0  0
  2 14  1  0  0  0  0
  3 16  1  0  0  0  0
  3  6  1  0  0  0  0
  3  8  1  0  0  0  0
  4  1  1  0  0  0  0
  4  9  1  0  0  0  0
  5 20  1  0  0  0  0
  6  9  1  0  0  0  0
  6 23  1  0  0  0  0
  7 11  1  0  0  0  0
  7 24  1  0  0  0  0
  8 26  1  6  0  0  0
  8  7  1  0  0  0  0
  8 10  1  0  0  0  0
  9 11  1  0  0  0  0
  9  5  1  0  0  0  0
 10 27  1  0  0  0  0
 12  1  1  0  0  0  0
 15  2  1  0  0  0  0
 17  3  1  0  0  0  0
 18  4  1  0  0  0  0
 19  4  1  0  0  0  0
 21  5  1  0  0  0  0
 22  6  1  0  0  0  0
 25  7  1  0  0  0  0
M  END
>  <HBA>
2

>  <HBD>
1

>  <TPSA>
29.46

>  <cid>
34718

>  <dipole>
2.07

>  <excitation_energy_1>
6.119

>  <excitation_energy_2>
6.451

>  <excitation_energy_3>
6.692

>  <excitation_energy_4>
6.748

>  <homo_energy>
-6.637

>  <homo_lumo_gap>
8.46

>  <logP>
1.47

>  <lumo_energy>
1.823

>  <melting_point>
37.29

>  <molecular_refractivity>
43.43

>  <oscillator_strength_1>
0.0046

>  <oscillator_strength_2>
0.0081

>  <oscillator_strength_3>
0.0126

>  <oscillator_strength_4>
0.0008

>  <open_babel_can_smiles>
O[C@@H]1CCC2(OC1)CCCC2

>  <mulliken_charges>
27
1   -0.263609
2   -0.273765
3   -0.275571
4   -0.294191
5   -0.286999
6   -0.302636
7   -0.06502
8   0.128868
9   0.320809
10   -0.636418
11   -0.523918
12   0.132109
13   0.14949
14   0.142802
15   0.134753
16   0.148977
17   0.127763
18   0.132653
19   0.137809
20   0.148575
21   0.136725
22   0.134433
23   0.140599
24   0.154612
25   0.125161
26   0.130006
27   0.395985

>  <lowdin_charges>
27
1   -0.281745
2   -0.284972
3   -0.293996
4   -0.298099
5   -0.284012
6   -0.292824
7   -0.154871
8   -0.018136
9   0.117177
10   -0.469221
11   -0.286117
12   0.145171
13   0.14868
14   0.150465
15   0.14404
16   0.155151
17   0.140297
18   0.145831
19   0.147644
20   0.153824
21   0.145629
22   0.150521
23   0.146263
24   0.155404
25   0.131886
26   0.14546
27   0.340552

$$$$

