PCCDB-ID:  18750
public computational chemistry database (PCCDB) project, http://pccdb.org

 18 19  0  0  0  0  0  0  0  0999 V2000
   -2.4261    0.6698   -0.0245 C   0  0  0  0  0  0  0  0  0  0  0  0
   -2.4232   -0.7470   -0.0342 C   0  0  0  0  0  0  0  0  0  0  0  0
   -1.2388    1.3672   -0.0080 C   0  0  0  0  0  0  0  0  0  0  0  0
   -1.2374   -1.4489   -0.0266 C   0  0  0  0  0  0  0  0  0  0  0  0
    1.2558    1.3468    0.0169 C   0  0  0  0  0  0  0  0  0  0  0  0
    2.4149   -0.6290    0.0174 C   0  0  0  0  0  0  0  0  0  0  0  0
    0.0002    0.6767    0.0002 C   0  0  0  0  0  0  0  0  0  0  0  0
   -0.0036   -0.7504   -0.0087 C   0  0  0  0  0  0  0  0  0  0  0  0
    1.2662   -1.3946    0.0011 C   0  0  0  0  0  0  0  0  0  0  0  0
    2.4170    0.7281    0.0249 N   0  0  0  0  0  0  0  0  0  0  0  0
    1.2741   -2.7600   -0.0064 O   0  0  0  0  0  0  0  0  0  0  0  0
   -3.3724    1.2037   -0.0306 H   0  0  0  0  0  0  0  0  0  0  0  0
   -3.3685   -1.2827   -0.0482 H   0  0  0  0  0  0  0  0  0  0  0  0
   -1.2337    2.4545   -0.0013 H   0  0  0  0  0  0  0  0  0  0  0  0
   -1.2296   -2.5334   -0.0349 H   0  0  0  0  0  0  0  0  0  0  0  0
    1.2771    2.4367    0.0230 H   0  0  0  0  0  0  0  0  0  0  0  0
    3.3939   -1.1105    0.0244 H   0  0  0  0  0  0  0  0  0  0  0  0
    2.1946   -3.0675   -0.0054 H   0  0  0  0  0  0  0  0  0  0  0  0
  1  3  2  0  0  0  0
  2  4  2  0  0  0  0
  2  1  1  0  0  0  0
  3 14  1  0  0  0  0
  3  7  1  0  0  0  0
  4  8  1  0  0  0  0
  5 16  1  0  0  0  0
  5 10  2  0  0  0  0
  6 17  1  0  0  0  0
  6 10  1  0  0  0  0
  7  5  1  0  0  0  0
  8  7  2  0  0  0  0
  8  9  1  0  0  0  0
  9  6  2  0  0  0  0
 11 18  1  0  0  0  0
 11  9  1  0  0  0  0
 12  1  1  0  0  0  0
 13  2  1  0  0  0  0
 15  4  1  0  0  0  0
M  END
>  <HBA>
2

>  <HBD>
1

>  <TPSA>
33.12

>  <cid>
18750

>  <dipole>
1.63

>  <excitation_energy_1>
4.12

>  <excitation_energy_2>
4.451

>  <excitation_energy_3>
4.538

>  <excitation_energy_4>
5.038

>  <homo_energy>
-5.826

>  <homo_lumo_gap>
4.623

>  <logP>
1.94

>  <lumo_energy>
-1.203

>  <melting_point>
104.13

>  <molecular_refractivity>
43.77

>  <oscillator_strength_1>
0.0803

>  <oscillator_strength_2>
0.0427

>  <oscillator_strength_3>
0.0012

>  <oscillator_strength_4>
0.0001

>  <open_babel_can_smiles>
Oc1cncc2c1cccc2

>  <mulliken_charges>
18
1   -0.129178
2   -0.134247
3   -0.197356
4   -0.163599
5   -0.012982
6   -0.043489
7   0.108398
8   0.109809
9   0.280474
10   -0.418545
11   -0.643234
12   0.135924
13   0.136833
14   0.138922
15   0.156227
16   0.13794
17   0.123783
18   0.414321

>  <lowdin_charges>
18
1   -0.154663
2   -0.14811
3   -0.14499
4   -0.146702
5   -0.104618
6   -0.167104
7   -0.015641
8   -0.012243
9   0.086666
10   -0.138958
11   -0.37219
12   0.161505
13   0.161748
14   0.16027
15   0.170461
16   0.15229
17   0.150434
18   0.361845

$$$$

