PCCDB-ID:  68286
public computational chemistry database (PCCDB) project, http://pccdb.org

 28 28  0  0  0  0  0  0  0  0999 V2000
    4.1721    2.2680    3.2078 C   0  0  0  0  0  0  0  0  0  0  0  0
    7.1588   -3.2160   -2.5090 C   0  0  0  0  0  0  0  0  0  0  0  0
    3.4719    1.3702    2.1987 C   0  0  0  0  0  0  0  0  0  0  0  0
    6.1024   -2.4783   -0.4661 C   0  0  0  0  0  0  0  0  0  0  0  0
    6.8144   -0.8603   -2.0945 C   0  0  0  0  0  0  0  0  0  0  0  0
    6.1280   -1.4203    0.6396 C   0  0  0  0  0  0  0  0  0  0  0  0
    6.8585    0.2335   -1.0275 C   0  0  0  0  0  0  0  0  0  0  0  0
    5.1099    0.8726    0.5522 C   0  0  0  0  0  0  0  0  0  0  0  0
    7.0875   -2.1691   -1.5008 N   0  0  0  0  0  0  0  0  0  0  0  0
    5.9448   -0.0922    0.0623 N   0  0  0  0  0  0  0  0  0  0  0  0
    5.0089    2.0018    0.0958 O   0  0  0  0  0  0  0  0  0  0  0  0
    4.3849    0.4175    1.6130 O   0  0  0  0  0  0  0  0  0  0  0  0
    3.4422    2.9293    3.6897 H   0  0  0  0  0  0  0  0  0  0  0  0
    4.9212    2.8883    2.7082 H   0  0  0  0  0  0  0  0  0  0  0  0
    4.6627    1.6729    3.9854 H   0  0  0  0  0  0  0  0  0  0  0  0
    7.4177   -4.1687   -2.0337 H   0  0  0  0  0  0  0  0  0  0  0  0
    7.9423   -2.9743   -3.2355 H   0  0  0  0  0  0  0  0  0  0  0  0
    6.2095   -3.3558   -3.0627 H   0  0  0  0  0  0  0  0  0  0  0  0
    3.0141    1.9588    1.4003 H   0  0  0  0  0  0  0  0  0  0  0  0
    2.7082    0.7508    2.6769 H   0  0  0  0  0  0  0  0  0  0  0  0
    5.0765   -2.5420   -0.8829 H   0  0  0  0  0  0  0  0  0  0  0  0
    6.3445   -3.4560   -0.0323 H   0  0  0  0  0  0  0  0  0  0  0  0
    7.5786   -0.6540   -2.8535 H   0  0  0  0  0  0  0  0  0  0  0  0
    5.8272   -0.8380   -2.5990 H   0  0  0  0  0  0  0  0  0  0  0  0
    7.0984   -1.4650    1.1565 H   0  0  0  0  0  0  0  0  0  0  0  0
    5.3393   -1.6074    1.3665 H   0  0  0  0  0  0  0  0  0  0  0  0
    6.5640    1.1991   -1.4389 H   0  0  0  0  0  0  0  0  0  0  0  0
    7.8835    0.3145   -0.6360 H   0  0  0  0  0  0  0  0  0  0  0  0
  1 13  1  0  0  0  0
  1 15  1  0  0  0  0
  2 16  1  0  0  0  0
  2  9  1  0  0  0  0
  3 20  1  0  0  0  0
  3  1  1  0  0  0  0
  4 22  1  0  0  0  0
  4  6  1  0  0  0  0
  5  9  1  0  0  0  0
  5  7  1  0  0  0  0
  6 25  1  0  0  0  0
  6 26  1  0  0  0  0
  7 28  1  0  0  0  0
  7 10  1  0  0  0  0
  8 12  1  0  0  0  0
  9  4  1  0  0  0  0
 10  8  1  0  0  0  0
 10  6  1  0  0  0  0
 11  8  2  0  0  0  0
 12  3  1  0  0  0  0
 14  1  1  0  0  0  0
 17  2  1  0  0  0  0
 18  2  1  0  0  0  0
 19  3  1  0  0  0  0
 21  4  1  0  0  0  0
 23  5  1  0  0  0  0
 24  5  1  0  0  0  0
 27  7  1  0  0  0  0
M  END
>  <HBA>
4

>  <HBD>
0

>  <TPSA>
32.78

>  <cid>
68286

>  <dipole>
2.23

>  <excitation_energy_1>
5.503

>  <excitation_energy_2>
5.877

>  <excitation_energy_3>
5.99

>  <excitation_energy_4>
6.049

>  <homo_energy>
-5.938

>  <homo_lumo_gap>
7.5

>  <logP>
0.266

>  <lumo_energy>
1.562

>  <melting_point>
22.73

>  <molecular_refractivity>
53.75

>  <oscillator_strength_1>
0.0108

>  <oscillator_strength_2>
0.0577

>  <oscillator_strength_3>
0.0411

>  <oscillator_strength_4>
0.0139

>  <open_babel_can_smiles>
CCOC(=O)N1CCN(CC1)C

>  <mulliken_charges>
28
1   -0.460705
2   -0.291737
3   -0.032252
4   -0.121666
5   -0.12448
6   -0.137272
7   -0.139013
8   0.795783
9   -0.386145
10   -0.467223
11   -0.535306
12   -0.497025
13   0.14555
14   0.178254
15   0.151557
16   0.149327
17   0.150394
18   0.12127
19   0.170221
20   0.145238
21   0.117912
22   0.14072
23   0.141777
24   0.119963
25   0.148127
26   0.180882
27   0.18853
28   0.147319

>  <lowdin_charges>
28
1   -0.460066
2   -0.356602
3   -0.127878
4   -0.204859
5   -0.206283
6   -0.19935
7   -0.196165
8   0.205439
9   -0.190752
10   -0.112775
11   -0.327906
12   -0.215664
13   0.157592
14   0.167707
15   0.154249
16   0.150413
17   0.151905
18   0.122868
19   0.160397
20   0.149748
21   0.11948
22   0.148893
23   0.15075
24   0.121178
25   0.143782
26   0.173013
27   0.177953
28   0.142933

$$$$

