PCCDB-ID:  43774
public computational chemistry database (PCCDB) project, http://pccdb.org

 21 20  0  0  1  0  0  0  0  0999 V2000
    3.8107    4.0768   -1.1995 C   0  0  0  0  0  0  0  0  0  0  0  0
    2.7221    3.3469    3.1964 C   0  0  0  0  0  0  0  0  0  0  0  0
    0.2156    2.2135    0.7727 C   0  0  0  0  0  0  0  0  0  0  0  0
    3.3729    4.0804    0.2634 C   0  0  0  0  0  0  0  0  0  0  0  0
    2.2311    2.5813    1.9755 C   0  0  2  0  0  0  0  0  0  0  0  0
    3.7248    1.7047    0.2066 N   0  0  0  0  0  0  0  0  0  0  0  0
    3.1290    2.7425    0.8165 N   0  0  0  0  0  0  0  0  0  0  0  0
    3.5201    0.5957    0.6954 O   0  0  0  0  0  0  0  0  0  0  0  0
    0.9373    3.0547    1.6634 O   0  0  0  0  0  0  0  0  0  0  0  0
    3.9012    5.1138   -1.5408 H   0  0  0  0  0  0  0  0  0  0  0  0
    3.0765    3.5674   -1.8314 H   0  0  0  0  0  0  0  0  0  0  0  0
    4.7732    3.5798   -1.3346 H   0  0  0  0  0  0  0  0  0  0  0  0
    3.7360    3.0316    3.4609 H   0  0  0  0  0  0  0  0  0  0  0  0
    2.0571    3.1438    4.0407 H   0  0  0  0  0  0  0  0  0  0  0  0
    2.7188    4.4261    3.0145 H   0  0  0  0  0  0  0  0  0  0  0  0
   -0.7541    2.6899    0.6112 H   0  0  0  0  0  0  0  0  0  0  0  0
    0.0625    1.2144    1.2046 H   0  0  0  0  0  0  0  0  0  0  0  0
    0.7294    2.1036   -0.1920 H   0  0  0  0  0  0  0  0  0  0  0  0
    2.4337    4.6311    0.3760 H   0  0  0  0  0  0  0  0  0  0  0  0
    4.1268    4.5925    0.8772 H   0  0  0  0  0  0  0  0  0  0  0  0
    2.2198    1.5039    2.1669 H   0  0  0  0  0  0  0  0  0  0  0  0
  1  4  1  0  0  0  0
  2 13  1  0  0  0  0
  2 14  1  0  0  0  0
  3 17  1  0  0  0  0
  3  9  1  0  0  0  0
  4 19  1  0  0  0  0
  4  7  1  0  0  0  0
  4 20  1  0  0  0  0
  5 21  1  1  0  0  0
  5  2  1  0  0  0  0
  6  8  2  0  0  0  0
  6  7  1  0  0  0  0
  7  5  1  0  0  0  0
  9  5  1  0  0  0  0
 10  1  1  0  0  0  0
 11  1  1  0  0  0  0
 12  1  1  0  0  0  0
 15  2  1  0  0  0  0
 16  3  1  0  0  0  0
 18  3  1  0  0  0  0
M  END
>  <HBA>
4

>  <HBD>
0

>  <TPSA>
41.9

>  <cid>
43774

>  <dipole>
2.83

>  <excitation_energy_1>
3.208

>  <excitation_energy_2>
5.664

>  <excitation_energy_3>
5.703

>  <excitation_energy_4>
5.791

>  <homo_energy>
-5.91

>  <homo_lumo_gap>
5.023

>  <logP>
0.982

>  <lumo_energy>
-0.887

>  <melting_point>
-13.16

>  <molecular_refractivity>
34.87

>  <oscillator_strength_1>
0.0005

>  <oscillator_strength_2>
0.0074

>  <oscillator_strength_3>
0.0417

>  <oscillator_strength_4>
0.0943

>  <open_babel_can_smiles>
CO[C@@H](N(N=O)CC)C

>  <mulliken_charges>
21
1   -0.451046
2   -0.458045
3   -0.211115
4   -0.130971
5   0.24169
6   0.159827
7   -0.245727
8   -0.387752
9   -0.463244
10   0.148542
11   0.161275
12   0.178091
13   0.161997
14   0.168877
15   0.160332
16   0.162465
17   0.148862
18   0.148656
19   0.174366
20   0.157899
21   0.175023

>  <lowdin_charges>
21
1   -0.44622
2   -0.446876
3   -0.282351
4   -0.198454
5   0.041184
6   0.053503
7   -0.062129
8   -0.275225
9   -0.262612
10   0.155156
11   0.159716
12   0.165697
13   0.162442
14   0.167815
15   0.15772
16   0.157884
17   0.14242
18   0.140726
19   0.161227
20   0.150225
21   0.158152

$$$$

