PCCDB-ID:  19997
public computational chemistry database (PCCDB) project, http://pccdb.org

 28 27  0  0  0  0  0  0  0  0999 V2000
    5.0069   -0.7592   -4.6203 C   0  0  0  0  0  0  0  0  0  0  0  0
    8.4329    0.3170    6.5498 C   0  0  0  0  0  0  0  0  0  0  0  0
    4.3853   -0.5787   -3.4607 C   0  0  0  0  0  0  0  0  0  0  0  0
    7.6282    1.2759    6.1058 C   0  0  0  0  0  0  0  0  0  0  0  0
    4.6517    0.7735    1.2348 C   0  0  0  0  0  0  0  0  0  0  0  0
    5.6190    1.2597    2.3200 C   0  0  0  0  0  0  0  0  0  0  0  0
    5.3550    0.5256   -0.1012 C   0  0  0  0  0  0  0  0  0  0  0  0
    4.9031    1.5149    3.6623 C   0  0  0  0  0  0  0  0  0  0  0  0
    4.4118    0.0401   -1.1803 C   0  0  0  0  0  0  0  0  0  0  0  0
    5.8538    2.0109    4.7269 C   0  0  0  0  0  0  0  0  0  0  0  0
    3.2300   -0.1747   -1.0493 O   0  0  0  0  0  0  0  0  0  0  0  0
    5.9288    3.1427    5.1427 O   0  0  0  0  0  0  0  0  0  0  0  0
    5.0926   -0.1300   -2.3564 O   0  0  0  0  0  0  0  0  0  0  0  0
    6.6656    0.9888    5.1520 O   0  0  0  0  0  0  0  0  0  0  0  0
    4.4490   -1.1100   -5.4807 H   0  0  0  0  0  0  0  0  0  0  0  0
    6.0679   -0.5648   -4.7384 H   0  0  0  0  0  0  0  0  0  0  0  0
    9.1839    0.5476    7.2965 H   0  0  0  0  0  0  0  0  0  0  0  0
    8.3647   -0.7029    6.1857 H   0  0  0  0  0  0  0  0  0  0  0  0
    3.3319   -0.7533   -3.2759 H   0  0  0  0  0  0  0  0  0  0  0  0
    7.6418    2.3102    6.4288 H   0  0  0  0  0  0  0  0  0  0  0  0
    3.8505    1.5085    1.0897 H   0  0  0  0  0  0  0  0  0  0  0  0
    4.1580   -0.1505    1.5598 H   0  0  0  0  0  0  0  0  0  0  0  0
    6.1083    2.1874    1.9934 H   0  0  0  0  0  0  0  0  0  0  0  0
    6.4151    0.5204    2.4731 H   0  0  0  0  0  0  0  0  0  0  0  0
    6.1566   -0.2182    0.0029 H   0  0  0  0  0  0  0  0  0  0  0  0
    5.8469    1.4360   -0.4690 H   0  0  0  0  0  0  0  0  0  0  0  0
    4.4344    0.5862    4.0089 H   0  0  0  0  0  0  0  0  0  0  0  0
    4.1246    2.2734    3.5428 H   0  0  0  0  0  0  0  0  0  0  0  0
  1  3  2  0  0  0  0
  2 17  1  0  0  0  0
  3 19  1  0  0  0  0
  3 13  1  0  0  0  0
  4 20  1  0  0  0  0
  4  2  2  0  0  0  0
  5 22  1  0  0  0  0
  5  6  1  0  0  0  0
  6 24  1  0  0  0  0
  6  8  1  0  0  0  0
  7 25  1  0  0  0  0
  7  5  1  0  0  0  0
  8 27  1  0  0  0  0
  8 10  1  0  0  0  0
  9 11  2  0  0  0  0
  9  7  1  0  0  0  0
 10 12  2  0  0  0  0
 10 14  1  0  0  0  0
 13  9  1  0  0  0  0
 14  4  1  0  0  0  0
 15  1  1  0  0  0  0
 16  1  1  0  0  0  0
 18  2  1  0  0  0  0
 21  5  1  0  0  0  0
 23  6  1  0  0  0  0
 26  7  1  0  0  0  0
 28  8  1  0  0  0  0
M  END
>  <HBA>
4

>  <HBD>
0

>  <TPSA>
52.6

>  <cid>
19997

>  <dipole>
2.09

>  <excitation_energy_1>
5.553

>  <excitation_energy_2>
5.695

>  <excitation_energy_3>
5.856

>  <excitation_energy_4>
5.926

>  <homo_energy>
-6.825

>  <homo_lumo_gap>
6.46

>  <logP>
1.92

>  <lumo_energy>
-0.365

>  <melting_point>
-45.53

>  <molecular_refractivity>
51.81

>  <oscillator_strength_1>
0.0043

>  <oscillator_strength_2>
0.0004

>  <oscillator_strength_3>
0.335

>  <oscillator_strength_4>
0.2913

>  <open_babel_can_smiles>
C=COC(=O)CCCCC(=O)OC=C

>  <mulliken_charges>
28
1   -0.388473
2   -0.388421
3   0.155163
4   0.154092
5   -0.25251
6   -0.276435
7   -0.373582
8   -0.34166
9   0.63297
10   0.608459
11   -0.463322
12   -0.458112
13   -0.461887
14   -0.454449
15   0.156071
16   0.156212
17   0.155622
18   0.154773
19   0.183438
20   0.183679
21   0.156438
22   0.156144
23   0.150261
24   0.156195
25   0.178889
26   0.17902
27   0.168704
28   0.172721

>  <lowdin_charges>
28
1   -0.360628
2   -0.362669
3   -0.034159
4   -0.034161
5   -0.270857
6   -0.271065
7   -0.300288
8   -0.294882
9   0.204732
10   0.204948
11   -0.246785
12   -0.246442
13   -0.154743
14   -0.156557
15   0.174227
16   0.168616
17   0.173732
18   0.168406
19   0.172785
20   0.173273
21   0.154655
22   0.154204
23   0.148936
24   0.151978
25   0.172717
26   0.172677
27   0.168034
28   0.169314

$$$$

