PCCDB-ID:  20903
public computational chemistry database (PCCDB) project, http://pccdb.org

 19 19  0  0  1  0  0  0  0  0999 V2000
   -1.3311   -0.2679    0.1918 C   0  0  0  0  0  0  0  0  0  0  0  0
   -0.4537   -1.2730    0.0549 C   0  0  0  0  0  0  0  0  0  0  0  0
   -0.9481    1.1898    0.1083 C   0  0  0  0  0  0  0  0  0  0  0  0
    1.0249   -1.0659   -0.1863 C   0  0  0  0  0  0  0  0  0  0  0  0
    0.4643    1.3890   -0.4657 C   0  0  0  0  0  0  0  0  0  0  0  0
    1.4885    0.3780    0.1071 C   0  0  1  0  0  0  0  0  0  0  0  0
    1.7541    0.6627    1.5912 C   0  0  0  0  0  0  0  0  0  0  0  0
    2.6594    1.3671    1.9672 O   0  0  0  0  0  0  0  0  0  0  0  0
    0.9010    0.1112    2.4937 O   0  0  0  0  0  0  0  0  0  0  0  0
   -2.3801   -0.4957    0.3758 H   0  0  0  0  0  0  0  0  0  0  0  0
   -0.8040   -2.3027    0.1096 H   0  0  0  0  0  0  0  0  0  0  0  0
   -1.0264    1.6452    1.1069 H   0  0  0  0  0  0  0  0  0  0  0  0
   -1.6793    1.7238   -0.5127 H   0  0  0  0  0  0  0  0  0  0  0  0
    1.2562   -1.3057   -1.2345 H   0  0  0  0  0  0  0  0  0  0  0  0
    1.6056   -1.7826    0.4099 H   0  0  0  0  0  0  0  0  0  0  0  0
    0.8121    2.4117   -0.2855 H   0  0  0  0  0  0  0  0  0  0  0  0
    0.4331    1.2464   -1.5534 H   0  0  0  0  0  0  0  0  0  0  0  0
    2.4532    0.5551   -0.3762 H   0  0  0  0  0  0  0  0  0  0  0  0
    0.2061   -0.3986    2.0335 H   0  0  0  0  0  0  0  0  0  0  0  0
  1 10  1  0  0  0  0
  2 11  1  0  0  0  0
  2  1  2  0  0  0  0
  3  1  1  0  0  0  0
  3 12  1  0  0  0  0
  4  2  1  0  0  0  0
  4  6  1  0  0  0  0
  4 15  1  0  0  0  0
  5 16  1  0  0  0  0
  5  6  1  0  0  0  0
  5  3  1  0  0  0  0
  6 18  1  6  0  0  0
  6  7  1  0  0  0  0
  7  8  2  0  0  0  0
  7  9  1  0  0  0  0
 13  3  1  0  0  0  0
 14  4  1  0  0  0  0
 17  5  1  0  0  0  0
 19  9  1  0  0  0  0
M  END
>  <HBA>
2

>  <HBD>
1

>  <TPSA>
37.3

>  <cid>
20903

>  <dipole>
4.83

>  <excitation_energy_1>
5.532

>  <excitation_energy_2>
6.229

>  <excitation_energy_3>
6.279

>  <excitation_energy_4>
6.515

>  <homo_energy>
-7.01

>  <homo_lumo_gap>
6.917

>  <logP>
1.427

>  <lumo_energy>
-0.093

>  <melting_point>
82.3

>  <molecular_refractivity>
34.95

>  <oscillator_strength_1>
0.0005

>  <oscillator_strength_2>
0.0249

>  <oscillator_strength_3>
0.0046

>  <oscillator_strength_4>
0.0381

>  <open_babel_can_smiles>
OC(=O)[C@@H]1CCC=CC1

>  <mulliken_charges>
19
1   -0.10483
2   -0.154944
3   -0.324595
4   -0.320393
5   -0.270842
6   -0.205063
7   0.587526
8   -0.45352
9   -0.581175
10   0.138966
11   0.139786
12   0.169572
13   0.157721
14   0.166367
15   0.163791
16   0.163836
17   0.149794
18   0.166118
19   0.411884

>  <lowdin_charges>
19
1   -0.169644
2   -0.190572
3   -0.288044
4   -0.287833
5   -0.266995
6   -0.164634
7   0.187134
8   -0.248066
9   -0.366146
10   0.158316
11   0.158933
12   0.159053
13   0.161642
14   0.162467
15   0.160244
16   0.158977
17   0.148993
18   0.169739
19   0.356436

$$$$

