PCCDB-ID:  27627
public computational chemistry database (PCCDB) project, http://pccdb.org

 17 17  0  0  0  0  0  0  0  0999 V2000
    0.9341   -0.0498   -0.1448 C   0  0  0  0  0  0  0  0  0  0  0  0
    4.5900    1.3265    0.1921 C   0  0  0  0  0  0  0  0  0  0  0  0
    5.1953    0.0181   -0.3386 C   0  0  0  0  0  0  0  0  0  0  0  0
    3.0845    1.2418    0.1678 C   0  0  0  0  0  0  0  0  0  0  0  0
    4.4185   -1.1674    0.2270 C   0  0  0  0  0  0  0  0  0  0  0  0
    2.4219    0.0910   -0.0261 C   0  0  0  0  0  0  0  0  0  0  0  0
    3.0375   -1.1314   -0.1514 O   0  0  0  0  0  0  0  0  0  0  0  0
    0.4413    0.9237   -0.0788 H   0  0  0  0  0  0  0  0  0  0  0  0
    0.5405   -0.7011    0.6453 H   0  0  0  0  0  0  0  0  0  0  0  0
    0.6694   -0.5127   -1.1036 H   0  0  0  0  0  0  0  0  0  0  0  0
    4.9313    2.1738   -0.4180 H   0  0  0  0  0  0  0  0  0  0  0  0
    4.9557    1.5275    1.2112 H   0  0  0  0  0  0  0  0  0  0  0  0
    6.2550   -0.0723   -0.0715 H   0  0  0  0  0  0  0  0  0  0  0  0
    5.1288   -0.0094   -1.4332 H   0  0  0  0  0  0  0  0  0  0  0  0
    2.5059    2.1549    0.2724 H   0  0  0  0  0  0  0  0  0  0  0  0
    4.4815   -1.1733    1.3256 H   0  0  0  0  0  0  0  0  0  0  0  0
    4.7963   -2.1234   -0.1460 H   0  0  0  0  0  0  0  0  0  0  0  0
  1  8  1  0  0  0  0
  1  6  1  0  0  0  0
  1  9  1  0  0  0  0
  2 12  1  0  0  0  0
  3 13  1  0  0  0  0
  3  2  1  0  0  0  0
  3  5  1  0  0  0  0
  4  2  1  0  0  0  0
  4 15  1  0  0  0  0
  5 16  1  0  0  0  0
  6  4  2  0  0  0  0
  7  6  1  0  0  0  0
  7  5  1  0  0  0  0
 10  1  1  0  0  0  0
 11  2  1  0  0  0  0
 14  3  1  0  0  0  0
 17  5  1  0  0  0  0
M  END
>  <HBA>
1

>  <HBD>
0

>  <TPSA>
9.23

>  <cid>
27627

>  <dipole>
0.89

>  <excitation_energy_1>
5.159

>  <excitation_energy_2>
5.648

>  <excitation_energy_3>
5.798

>  <excitation_energy_4>
5.919

>  <homo_energy>
-5.57

>  <homo_lumo_gap>
6.871

>  <logP>
1.701

>  <lumo_energy>
1.301

>  <melting_point>
0.28

>  <molecular_refractivity>
29.45

>  <oscillator_strength_1>
0.0054

>  <oscillator_strength_2>
0.0078

>  <oscillator_strength_3>
0.0027

>  <oscillator_strength_4>
0.0057

>  <open_babel_can_smiles>
CC1=CCCCO1

>  <mulliken_charges>
17
1   -0.5111
2   -0.287438
3   -0.291542
4   -0.215914
5   -0.032658
6   0.386937
7   -0.500434
8   0.155005
9   0.161366
10   0.163929
11   0.142474
12   0.141048
13   0.135986
14   0.152042
15   0.116494
16   0.137412
17   0.146392

>  <lowdin_charges>
17
1   -0.441461
2   -0.270835
3   -0.286273
4   -0.264787
5   -0.122889
6   0.088897
7   -0.221211
8   0.15993
9   0.162272
10   0.163129
11   0.15087
12   0.143144
13   0.148723
14   0.14875
15   0.156242
16   0.134638
17   0.150861

$$$$

