PCCDB-ID:  7910
public computational chemistry database (PCCDB) project, http://pccdb.org

 21 20  0  0  1  0  0  0  0  0999 V2000
    2.3597   -0.8049   -1.1904 C   0  0  0  0  0  0  0  0  0  0  0  0
    4.5093    0.3415   -1.8569 C   0  0  0  0  0  0  0  0  0  0  0  0
    4.9086    1.4666    2.5476 C   0  0  0  0  0  0  0  0  0  0  0  0
    3.7070    0.4089    0.5689 C   0  0  0  0  0  0  0  0  0  0  0  0
    3.7720   -0.4073   -0.7365 C   0  0  0  0  0  0  0  0  0  0  0  0
    5.0596    0.6700    1.2495 C   0  0  2  0  0  0  0  0  0  0  0  0
    5.7775   -0.5481    1.4799 O   0  0  0  0  0  0  0  0  0  0  0  0
    2.3927   -1.4114   -2.1034 H   0  0  0  0  0  0  0  0  0  0  0  0
    1.7492    0.0825   -1.4043 H   0  0  0  0  0  0  0  0  0  0  0  0
    1.8392   -1.3874   -0.4203 H   0  0  0  0  0  0  0  0  0  0  0  0
    4.5354   -0.2586   -2.7741 H   0  0  0  0  0  0  0  0  0  0  0  0
    5.5457    0.5685   -1.5855 H   0  0  0  0  0  0  0  0  0  0  0  0
    4.0064    1.2887   -2.0948 H   0  0  0  0  0  0  0  0  0  0  0  0
    4.4405    2.4414    2.3668 H   0  0  0  0  0  0  0  0  0  0  0  0
    5.8876    1.6309    3.0088 H   0  0  0  0  0  0  0  0  0  0  0  0
    4.2788    0.9239    3.2660 H   0  0  0  0  0  0  0  0  0  0  0  0
    3.0611   -0.1195    1.2894 H   0  0  0  0  0  0  0  0  0  0  0  0
    3.2149    1.3741    0.3757 H   0  0  0  0  0  0  0  0  0  0  0  0
    4.3358   -1.3236   -0.5171 H   0  0  0  0  0  0  0  0  0  0  0  0
    5.7089    1.2316    0.5683 H   0  0  0  0  0  0  0  0  0  0  0  0
    5.2441   -1.0826    2.0912 H   0  0  0  0  0  0  0  0  0  0  0  0
  1  5  1  0  0  0  0
  1 10  1  0  0  0  0
  2 12  1  0  0  0  0
  2  5  1  0  0  0  0
  3 15  1  0  0  0  0
  3 16  1  0  0  0  0
  4  6  1  0  0  0  0
  4 17  1  0  0  0  0
  5 19  1  0  0  0  0
  5  4  1  0  0  0  0
  6 20  1  6  0  0  0
  6  7  1  0  0  0  0
  6  3  1  0  0  0  0
  7 21  1  0  0  0  0
  8  1  1  0  0  0  0
  9  1  1  0  0  0  0
 11  2  1  0  0  0  0
 13  2  1  0  0  0  0
 14  3  1  0  0  0  0
 18  4  1  0  0  0  0
M  END
>  <HBA>
1

>  <HBD>
1

>  <TPSA>
20.23

>  <cid>
7910

>  <dipole>
1.46

>  <excitation_energy_1>
6.543

>  <excitation_energy_2>
7.136

>  <excitation_energy_3>
7.341

>  <excitation_energy_4>
7.447

>  <homo_energy>
-7.091

>  <homo_lumo_gap>
9.004

>  <logP>
1.413

>  <lumo_energy>
1.913

>  <melting_point>
-7.94

>  <molecular_refractivity>
32.12

>  <oscillator_strength_1>
0.0225

>  <oscillator_strength_2>
0.0061

>  <oscillator_strength_3>
0.0012

>  <oscillator_strength_4>
0.0006

>  <open_babel_can_smiles>
CC(C[C@H](O)C)C

>  <mulliken_charges>
21
1   -0.443501
2   -0.450196
3   -0.455924
4   -0.266287
5   -0.058818
6   0.13277
7   -0.618527
8   0.140379
9   0.136468
10   0.135665
11   0.14058
12   0.151765
13   0.133555
14   0.142902
15   0.157466
16   0.130252
17   0.111889
18   0.12525
19   0.135644
20   0.138715
21   0.379953

>  <lowdin_charges>
21
1   -0.446092
2   -0.445437
3   -0.460088
4   -0.294558
5   -0.123023
6   -0.001993
7   -0.46715
8   0.148074
9   0.144344
10   0.14625
11   0.149125
12   0.150605
13   0.142479
14   0.152588
15   0.157573
16   0.143756
17   0.134962
18   0.14241
19   0.143613
20   0.14448
21   0.338081

$$$$

