PCCDB-ID:  27785
public computational chemistry database (PCCDB) project, http://pccdb.org

 24 24  0  0  0  0  0  0  0  0999 V2000
    2.5653    0.6080    1.4796 C   0  0  0  0  0  0  0  0  0  0  0  0
    1.5019   -0.9611   -0.2043 C   0  0  0  0  0  0  0  0  0  0  0  0
    2.7810   -0.2197    0.2012 C   0  0  0  0  0  0  0  0  0  0  0  0
    6.8481    0.7227   -0.7219 C   0  0  0  0  0  0  0  0  0  0  0  0
    5.9938    2.1124   -2.6091 C   0  0  0  0  0  0  0  0  0  0  0  0
    4.4037    0.9083   -1.1298 C   0  0  0  0  0  0  0  0  0  0  0  0
    7.7595    0.2053    0.0095 N   0  0  0  0  0  0  0  0  0  0  0  0
    6.1311    2.8761   -3.6248 N   0  0  0  0  0  0  0  0  0  0  0  0
    3.1767    0.6492   -0.9020 N   0  0  0  0  0  0  0  0  0  0  0  0
    7.0148    1.5680   -1.8190 N   0  0  0  0  0  0  0  0  0  0  0  0
    5.5186    0.4512   -0.4318 N   0  0  0  0  0  0  0  0  0  0  0  0
    4.7298    1.7479   -2.1902 N   0  0  0  0  0  0  0  0  0  0  0  0
    2.2262   -0.0285    2.3052 H   0  0  0  0  0  0  0  0  0  0  0  0
    1.8079    1.3792    1.3018 H   0  0  0  0  0  0  0  0  0  0  0  0
    3.4883    1.1101    1.7922 H   0  0  0  0  0  0  0  0  0  0  0  0
    1.1702   -1.6349    0.5940 H   0  0  0  0  0  0  0  0  0  0  0  0
    1.6695   -1.5519   -1.1107 H   0  0  0  0  0  0  0  0  0  0  0  0
    0.7012   -0.2430   -0.4129 H   0  0  0  0  0  0  0  0  0  0  0  0
    3.5463   -0.9903    0.4135 H   0  0  0  0  0  0  0  0  0  0  0  0
    8.6946    0.4786   -0.2926 H   0  0  0  0  0  0  0  0  0  0  0  0
    7.1120    3.0699   -3.8261 H   0  0  0  0  0  0  0  0  0  0  0  0
    7.9629    1.7968   -2.0791 H   0  0  0  0  0  0  0  0  0  0  0  0
    5.3841   -0.1578    0.3622 H   0  0  0  0  0  0  0  0  0  0  0  0
    3.9542    2.1012   -2.7338 H   0  0  0  0  0  0  0  0  0  0  0  0
  1 15  1  0  0  0  0
  1 13  1  0  0  0  0
  2  3  1  0  0  0  0
  2 16  1  0  0  0  0
  3 19  1  0  0  0  0
  3  1  1  0  0  0  0
  4 11  1  0  0  0  0
  4  7  2  0  0  0  0
  5 12  1  0  0  0  0
  5 10  1  0  0  0  0
  6  9  2  0  0  0  0
  6 11  1  0  0  0  0
  8  5  2  0  0  0  0
  9  3  1  0  0  0  0
 10  4  1  0  0  0  0
 11 23  1  0  0  0  0
 12  6  1  0  0  0  0
 14  1  1  0  0  0  0
 17  2  1  0  0  0  0
 18  2  1  0  0  0  0
 20  7  1  0  0  0  0
 21  8  1  0  0  0  0
 22 10  1  0  0  0  0
 24 12  1  0  0  0  0
M  END
>  <HBA>
6

>  <HBD>
3

>  <TPSA>
102.74

>  <cid>
27785

>  <dipole>
2.15

>  <excitation_energy_1>
5.106

>  <excitation_energy_2>
5.657

>  <excitation_energy_3>
5.744

>  <excitation_energy_4>
5.803

>  <homo_energy>
-6.136

>  <homo_lumo_gap>
6.487

>  <logP>
1.092

>  <lumo_energy>
0.351

>  <melting_point>
183.37

>  <molecular_refractivity>
47.56

>  <oscillator_strength_1>
0.0063

>  <oscillator_strength_2>
0.0442

>  <oscillator_strength_3>
0.0497

>  <oscillator_strength_4>
0.0036

>  <open_babel_can_smiles>
CC(N=c1[nH]c(=N)[nH]c(=N)[nH]1)C

>  <mulliken_charges>
24
1   -0.433952
2   -0.427742
3   0.010037
4   0.691716
5   0.692189
6   0.755353
7   -0.648887
8   -0.647679
9   -0.492817
10   -0.707136
11   -0.70317
12   -0.681633
13   0.141872
14   0.157804
15   0.13951
16   0.133987
17   0.148142
18   0.152044
19   0.100637
20   0.279771
21   0.277148
22   0.337104
23   0.363191
24   0.362512

>  <lowdin_charges>
24
1   -0.451934
2   -0.444395
3   -0.055368
4   0.145621
5   0.139501
6   0.135448
7   -0.457317
8   -0.454695
9   -0.25598
10   -0.274129
11   -0.25196
12   -0.23325
13   0.151151
14   0.157476
15   0.147287
16   0.146963
17   0.153843
18   0.15514
19   0.115543
20   0.256714
21   0.253411
22   0.295424
23   0.30901
24   0.316494

$$$$

