PCCDB-ID:  10876
public computational chemistry database (PCCDB) project, http://pccdb.org

 16 16  0  0  0  0  0  0  0  0999 V2000
   -1.4765    0.0347   -0.0419 C   0  0  0  0  0  0  0  0  0  0  0  0
   -0.0590    0.1174    0.0772 C   0  0  0  0  0  0  0  0  0  0  0  0
    1.7610   -1.6857   -0.0111 C   0  0  0  0  0  0  0  0  0  0  0  0
    2.1184   -2.9792   -0.1472 C   0  0  0  0  0  0  0  0  0  0  0  0
   -1.7599   -1.2871   -0.2305 C   0  0  0  0  0  0  0  0  0  0  0  0
    0.4279   -1.1632   -0.0477 C   0  0  0  0  0  0  0  0  0  0  0  0
    3.5495   -3.3543   -0.0846 C   0  0  0  0  0  0  0  0  0  0  0  0
    4.4605   -2.5728    0.0775 O   0  0  0  0  0  0  0  0  0  0  0  0
    3.8191   -4.6853   -0.2239 O   0  0  0  0  0  0  0  0  0  0  0  0
   -0.6232   -2.0293   -0.2378 O   0  0  0  0  0  0  0  0  0  0  0  0
   -2.1900    0.8450    0.0067 H   0  0  0  0  0  0  0  0  0  0  0  0
    0.5362    1.0061    0.2357 H   0  0  0  0  0  0  0  0  0  0  0  0
    2.5546   -0.9576    0.1422 H   0  0  0  0  0  0  0  0  0  0  0  0
    1.3636   -3.7467   -0.3028 H   0  0  0  0  0  0  0  0  0  0  0  0
   -2.6791   -1.8361   -0.3695 H   0  0  0  0  0  0  0  0  0  0  0  0
    2.9937   -5.1823   -0.3442 H   0  0  0  0  0  0  0  0  0  0  0  0
  1 11  1  0  0  0  0
  1  2  1  0  0  0  0
  2 12  1  0  0  0  0
  3 13  1  0  0  0  0
  4  7  1  0  0  0  0
  4  3  2  0  0  0  0
  5  1  2  0  0  0  0
  6  3  1  0  0  0  0
  6  2  2  0  0  0  0
  7  8  2  0  0  0  0
  9  7  1  0  0  0  0
 10  5  1  0  0  0  0
 10  6  1  0  0  0  0
 14  4  1  0  0  0  0
 15  5  1  0  0  0  0
 16  9  1  0  0  0  0
M  END
>  <HBA>
3

>  <HBD>
1

>  <TPSA>
50.44

>  <cid>
10876

>  <dipole>
5.59

>  <excitation_energy_1>
4.198

>  <excitation_energy_2>
4.231

>  <excitation_energy_3>
5.432

>  <excitation_energy_4>
5.491

>  <homo_energy>
-6.207

>  <homo_lumo_gap>
4.31

>  <logP>
1.377

>  <lumo_energy>
-1.897

>  <melting_point>
102.56

>  <molecular_refractivity>
35.38

>  <oscillator_strength_1>
0.6483

>  <oscillator_strength_2>
0.0024

>  <oscillator_strength_3>
0.0293

>  <oscillator_strength_4>
0.0066

>  <open_babel_can_smiles>
OC(=O)/C=C/c1ccco1

>  <mulliken_charges>
16
1   -0.182405
2   -0.189146
3   -0.138512
4   -0.25453
5   0.101308
6   0.339853
7   0.610087
8   -0.465
9   -0.586027
10   -0.446757
11   0.154606
12   0.159694
13   0.183534
14   0.140162
15   0.167012
16   0.406122

>  <lowdin_charges>
16
1   -0.200781
2   -0.182303
3   -0.106801
4   -0.23611
5   -0.05746
6   0.062761
7   0.197991
8   -0.259627
9   -0.363431
10   -0.093934
11   0.17662
12   0.178415
13   0.190487
14   0.161606
15   0.17718
16   0.355388

$$$$

