PCCDB-ID:  44290
public computational chemistry database (PCCDB) project, http://pccdb.org

 25 25  0  0  0  0  0  0  0  0999 V2000
    2.6832    2.9099   -1.6902 C   0  0  0  0  0  0  0  0  0  0  0  0
    1.2228   -0.1991   -3.0955 C   0  0  0  0  0  0  0  0  0  0  0  0
    2.2147    1.7260   -0.8363 C   0  0  0  0  0  0  0  0  0  0  0  0
    2.6815   -0.0892   -2.6404 C   0  0  0  0  0  0  0  0  0  0  0  0
    5.7567   -0.2062    1.1631 C   0  0  0  0  0  0  0  0  0  0  0  0
    4.3338   -0.3203    1.6348 C   0  0  0  0  0  0  0  0  0  0  0  0
    2.8520    0.3481   -1.1681 C   0  0  0  0  0  0  0  0  0  0  0  0
    4.3381    0.3421   -0.8162 C   0  0  0  0  0  0  0  0  0  0  0  0
    4.6919   -0.5098    0.2366 N   0  0  0  0  0  0  0  0  0  0  0  0
    5.1811    0.9598   -1.4470 O   0  0  0  0  0  0  0  0  0  0  0  0
    2.2127    3.8363   -1.3410 H   0  0  0  0  0  0  0  0  0  0  0  0
    2.4112    2.7806   -2.7436 H   0  0  0  0  0  0  0  0  0  0  0  0
    3.7685    3.0316   -1.6425 H   0  0  0  0  0  0  0  0  0  0  0  0
    1.1669   -0.5989   -4.1142 H   0  0  0  0  0  0  0  0  0  0  0  0
    0.7174    0.7729   -3.0973 H   0  0  0  0  0  0  0  0  0  0  0  0
    0.6497   -0.8711   -2.4442 H   0  0  0  0  0  0  0  0  0  0  0  0
    1.1258    1.6205   -0.9226 H   0  0  0  0  0  0  0  0  0  0  0  0
    2.4043    1.9497    0.2232 H   0  0  0  0  0  0  0  0  0  0  0  0
    3.2315    0.6057   -3.2839 H   0  0  0  0  0  0  0  0  0  0  0  0
    3.1697   -1.0650   -2.7636 H   0  0  0  0  0  0  0  0  0  0  0  0
    6.4566   -1.0141    1.3641 H   0  0  0  0  0  0  0  0  0  0  0  0
    6.1998    0.7856    1.0963 H   0  0  0  0  0  0  0  0  0  0  0  0
    3.8221    0.5999    1.9130 H   0  0  0  0  0  0  0  0  0  0  0  0
    4.0025   -1.2084    2.1694 H   0  0  0  0  0  0  0  0  0  0  0  0
    2.3573   -0.3980   -0.5324 H   0  0  0  0  0  0  0  0  0  0  0  0
  1 13  1  0  0  0  0
  1 11  1  0  0  0  0
  1  3  1  0  0  0  0
  2  4  1  0  0  0  0
  2 16  1  0  0  0  0
  3 18  1  0  0  0  0
  4  7  1  0  0  0  0
  5 21  1  0  0  0  0
  5  6  1  0  0  0  0
  6 23  1  0  0  0  0
  6 24  1  0  0  0  0
  7  3  1  0  0  0  0
  7  8  1  0  0  0  0
  7 25  1  0  0  0  0
  8  9  1  0  0  0  0
  9  5  1  0  0  0  0
  9  6  1  0  0  0  0
 10  8  2  0  0  0  0
 12  1  1  0  0  0  0
 14  2  1  0  0  0  0
 15  2  1  0  0  0  0
 17  3  1  0  0  0  0
 19  4  1  0  0  0  0
 20  4  1  0  0  0  0
 22  5  1  0  0  0  0
M  END
>  <HBA>
2

>  <HBD>
0

>  <TPSA>
20.08

>  <cid>
44290

>  <dipole>
2.9

>  <excitation_energy_1>
4.948

>  <excitation_energy_2>
6.168

>  <excitation_energy_3>
6.425

>  <excitation_energy_4>
6.595

>  <homo_energy>
-6.563

>  <homo_lumo_gap>
6.691

>  <logP>
1.203

>  <lumo_energy>
0.128

>  <melting_point>
4.79

>  <molecular_refractivity>
45.47

>  <oscillator_strength_1>
0.0052

>  <oscillator_strength_2>
0.0165

>  <oscillator_strength_3>
0.0688

>  <oscillator_strength_4>
0.0164

>  <open_babel_can_smiles>
CCC(C(=O)N1CC1)CC

>  <mulliken_charges>
25
1   -0.451005
2   -0.453786
3   -0.270713
4   -0.257992
5   -0.186097
6   -0.20217
7   -0.142467
8   0.545596
9   -0.375078
10   -0.487938
11   0.136555
12   0.146805
13   0.177598
14   0.14768
15   0.148899
16   0.140668
17   0.142001
18   0.128004
19   0.163084
20   0.141991
21   0.167379
22   0.176705
23   0.167736
24   0.166725
25   0.12982

>  <lowdin_charges>
25
1   -0.44976
2   -0.447697
3   -0.266847
4   -0.271285
5   -0.222184
6   -0.224501
7   -0.153624
8   0.168796
9   -0.152909
10   -0.273126
11   0.14825
12   0.147664
13   0.16264
14   0.15275
15   0.148377
16   0.147313
17   0.144034
18   0.136338
19   0.157359
20   0.147967
21   0.165843
22   0.165115
23   0.158351
24   0.163308
25   0.147826

$$$$

