PCCDB-ID:  69462
public computational chemistry database (PCCDB) project, http://pccdb.org

 23 25  0  0  0  0  0  0  0  0999 V2000
   -3.5880   -0.7142    0.0036 C   0  0  0  0  0  0  0  0  0  0  0  0
    3.5783   -0.7279   -0.0003 C   0  0  0  0  0  0  0  0  0  0  0  0
   -2.3863   -1.4026    0.0026 C   0  0  0  0  0  0  0  0  0  0  0  0
    2.4156   -1.4133   -0.0015 C   0  0  0  0  0  0  0  0  0  0  0  0
   -2.3845    1.4086    0.0017 C   0  0  0  0  0  0  0  0  0  0  0  0
    2.3255    1.4438    0.0003 C   0  0  0  0  0  0  0  0  0  0  0  0
   -3.5862    0.6944    0.0034 C   0  0  0  0  0  0  0  0  0  0  0  0
    3.6184    0.7547    0.0003 C   0  0  0  0  0  0  0  0  0  0  0  0
   -1.1594   -0.7149    0.0019 C   0  0  0  0  0  0  0  0  0  0  0  0
    1.1385   -0.7253   -0.0003 C   0  0  0  0  0  0  0  0  0  0  0  0
   -1.1927    0.6989    0.0014 C   0  0  0  0  0  0  0  0  0  0  0  0
    1.1698    0.7396    0.0000 C   0  0  0  0  0  0  0  0  0  0  0  0
    0.0286   -1.4156    0.0009 N   0  0  0  0  0  0  0  0  0  0  0  0
   -4.7334    1.4223    0.0043 O   0  0  0  0  0  0  0  0  0  0  0  0
    4.6904    1.3630    0.0004 O   0  0  0  0  0  0  0  0  0  0  0  0
   -0.0280    1.4097    0.0004 O   0  0  0  0  0  0  0  0  0  0  0  0
   -4.5318   -1.2544    0.0046 H   0  0  0  0  0  0  0  0  0  0  0  0
    4.5416   -1.2288   -0.0002 H   0  0  0  0  0  0  0  0  0  0  0  0
   -2.3584   -2.4874    0.0015 H   0  0  0  0  0  0  0  0  0  0  0  0
    2.3752   -2.4985   -0.0037 H   0  0  0  0  0  0  0  0  0  0  0  0
   -2.3859    2.4924    0.0004 H   0  0  0  0  0  0  0  0  0  0  0  0
    2.3243    2.5282    0.0003 H   0  0  0  0  0  0  0  0  0  0  0  0
   -5.4962    0.8227    0.0074 H   0  0  0  0  0  0  0  0  0  0  0  0
  1 17  1  0  0  0  0
  2 18  1  0  0  0  0
  2  8  1  0  0  0  0
  3  1  1  0  0  0  0
  4 10  1  0  0  0  0
  4  2  2  0  0  0  0
  5  7  1  0  0  0  0
  7  1  2  0  0  0  0
  7 14  1  0  0  0  0
  8  6  1  0  0  0  0
  8 15  2  0  0  0  0
  9  3  2  0  0  0  0
 10 12  2  0  0  0  0
 10 13  1  0  0  0  0
 11  5  2  0  0  0  0
 11  9  1  0  0  0  0
 12  6  1  0  0  0  0
 12 16  1  0  0  0  0
 13  9  1  0  0  0  0
 14 23  1  0  0  0  0
 16 11  1  0  0  0  0
 19  3  1  0  0  0  0
 20  4  1  0  0  0  0
 21  5  1  0  0  0  0
 22  6  1  0  0  0  0
M  RAD  2   6   2  13   2
M  END
>  <HBA>
4

>  <HBD>
1

>  <TPSA>
63.33

>  <cid>
69462

>  <dipole>
7.03

>  <excitation_energy_1>
2.636

>  <excitation_energy_2>
2.912

>  <excitation_energy_3>
3.392

>  <excitation_energy_4>
3.711

>  <homo_energy>
-5.935

>  <homo_lumo_gap>
3.069

>  <logP>
1.998

>  <lumo_energy>
-2.865

>  <melting_point>
176.31

>  <molecular_refractivity>
58.92

>  <oscillator_strength_1>
0.0

>  <oscillator_strength_2>
0.3161

>  <oscillator_strength_3>
0.2522

>  <oscillator_strength_4>
0.0009

>  <open_babel_can_smiles>
Oc1cc2OC3=C([N]c2cc1)C=CC(=O)[CH]3

>  <mulliken_charges>
23
1   -0.197876
2   -0.179949
3   -0.167558
4   -0.142298
5   -0.242361
6   -0.300827
7   0.366832
8   0.444163
9   0.258121
10   0.286166
11   0.363629
12   0.38566
13   -0.546782
14   -0.627955
15   -0.509958
16   -0.546246
17   0.134643
18   0.156198
19   0.161473
20   0.160178
21   0.168774
22   0.15882
23   0.417156

>  <lowdin_charges>
23
1   -0.217284
2   -0.160688
3   -0.123267
4   -0.141481
5   -0.204336
6   -0.220474
7   0.123768
8   0.134924
9   -0.015102
10   0.034869
11   0.111511
12   0.096446
13   -0.112133
14   -0.356068
15   -0.264615
16   -0.104854
17   0.162413
18   0.176246
19   0.176019
20   0.174687
21   0.184267
22   0.179926
23   0.365224

$$$$

