PCCDB-ID:  17369
public computational chemistry database (PCCDB) project, http://pccdb.org

 22 22  0  0  0  0  0  0  0  0999 V2000
    1.0529   -0.1235    0.6102 C   0  0  0  0  0  0  0  0  0  0  0  0
    4.5618    1.6353   -1.7508 C   0  0  0  0  0  0  0  0  0  0  0  0
    4.4830    0.1859   -2.2498 C   0  0  0  0  0  0  0  0  0  0  0  0
    3.3662    2.1058   -0.9114 C   0  0  0  0  0  0  0  0  0  0  0  0
    4.3775   -0.8745   -1.1323 C   0  0  0  0  0  0  0  0  0  0  0  0
    3.1134    1.2613    0.3494 C   0  0  0  0  0  0  0  0  0  0  0  0
    2.9668   -1.0616   -0.5767 C   0  0  0  0  0  0  0  0  0  0  0  0
    2.4173   -0.0050    0.1109 N   0  0  0  0  0  0  0  0  0  0  0  0
    2.3558   -2.1105   -0.7656 O   0  0  0  0  0  0  0  0  0  0  0  0
    1.0276   -0.0288    1.7036 H   0  0  0  0  0  0  0  0  0  0  0  0
    0.6739   -1.1036    0.3235 H   0  0  0  0  0  0  0  0  0  0  0  0
    0.4101    0.6556    0.1798 H   0  0  0  0  0  0  0  0  0  0  0  0
    4.6795    2.3052   -2.6125 H   0  0  0  0  0  0  0  0  0  0  0  0
    5.4758    1.7488   -1.1483 H   0  0  0  0  0  0  0  0  0  0  0  0
    5.3847   -0.0251   -2.8382 H   0  0  0  0  0  0  0  0  0  0  0  0
    3.6347    0.0677   -2.9377 H   0  0  0  0  0  0  0  0  0  0  0  0
    2.4501    2.1130   -1.5173 H   0  0  0  0  0  0  0  0  0  0  0  0
    3.5456    3.1433   -0.5986 H   0  0  0  0  0  0  0  0  0  0  0  0
    5.0843   -0.6342   -0.3252 H   0  0  0  0  0  0  0  0  0  0  0  0
    4.6540   -1.8560   -1.5236 H   0  0  0  0  0  0  0  0  0  0  0  0
    2.4874    1.8290    1.0439 H   0  0  0  0  0  0  0  0  0  0  0  0
    4.0628    1.0801    0.8731 H   0  0  0  0  0  0  0  0  0  0  0  0
  1 10  1  0  0  0  0
  2 14  1  0  0  0  0
  2  4  1  0  0  0  0
  3  2  1  0  0  0  0
  3  5  1  0  0  0  0
  4 18  1  0  0  0  0
  4  6  1  0  0  0  0
  5  7  1  0  0  0  0
  5 19  1  0  0  0  0
  6 22  1  0  0  0  0
  6 21  1  0  0  0  0
  7  8  1  0  0  0  0
  8  6  1  0  0  0  0
  8  1  1  0  0  0  0
  9  7  2  0  0  0  0
 11  1  1  0  0  0  0
 12  1  1  0  0  0  0
 13  2  1  0  0  0  0
 15  3  1  0  0  0  0
 16  3  1  0  0  0  0
 17  4  1  0  0  0  0
 20  5  1  0  0  0  0
M  END
>  <HBA>
2

>  <HBD>
0

>  <TPSA>
20.31

>  <cid>
17369

>  <dipole>
3.83

>  <excitation_energy_1>
5.498

>  <excitation_energy_2>
5.689

>  <excitation_energy_3>
5.988

>  <excitation_energy_4>
6.13

>  <homo_energy>
-6.237

>  <homo_lumo_gap>
7.195

>  <logP>
0.957

>  <lumo_energy>
0.958

>  <melting_point>
19.38

>  <molecular_refractivity>
40.66

>  <oscillator_strength_1>
0.0011

>  <oscillator_strength_2>
0.0178

>  <oscillator_strength_3>
0.0035

>  <oscillator_strength_4>
0.017

>  <open_babel_can_smiles>
CN1CCCCCC1=O

>  <mulliken_charges>
22
1   -0.326268
2   -0.261172
3   -0.264133
4   -0.254753
5   -0.353087
6   -0.153711
7   0.569708
8   -0.399683
9   -0.519097
10   0.150332
11   0.205916
12   0.148261
13   0.13796
14   0.130391
15   0.142852
16   0.14828
17   0.14385
18   0.135973
19   0.14459
20   0.171634
21   0.153045
22   0.149112

>  <lowdin_charges>
22
1   -0.356658
2   -0.279383
3   -0.274275
4   -0.284979
5   -0.306418
6   -0.199974
7   0.1541
8   -0.115248
9   -0.320062
10   0.144571
11   0.184634
12   0.146841
13   0.147937
14   0.138263
15   0.150405
16   0.14863
17   0.147386
18   0.147045
19   0.152174
20   0.170715
21   0.158933
22   0.145364

$$$$

