PCCDB-ID:  67504
public computational chemistry database (PCCDB) project, http://pccdb.org

 14 15  0  0  0  0  0  0  0  0999 V2000
    2.0869   -0.6774   -0.0022 C   0  0  0  0  0  0  0  0  0  0  0  0
    0.9166   -1.4348   -0.0041 C   0  0  0  0  0  0  0  0  0  0  0  0
    2.0264    0.7288    0.0029 C   0  0  0  0  0  0  0  0  0  0  0  0
   -2.2969   -0.0212   -0.0004 C   0  0  0  0  0  0  0  0  0  0  0  0
   -0.2857   -0.7247   -0.0014 C   0  0  0  0  0  0  0  0  0  0  0  0
   -0.2042    0.6898    0.0025 C   0  0  0  0  0  0  0  0  0  0  0  0
    0.8911    1.4415    0.0051 N   0  0  0  0  0  0  0  0  0  0  0  0
   -1.6103   -1.1372   -0.0030 N   0  0  0  0  0  0  0  0  0  0  0  0
   -1.5196    1.1145    0.0043 N   0  0  0  0  0  0  0  0  0  0  0  0
    3.0578   -1.1631   -0.0050 H   0  0  0  0  0  0  0  0  0  0  0  0
    0.9300   -2.5206   -0.0080 H   0  0  0  0  0  0  0  0  0  0  0  0
    2.9475    1.3079    0.0057 H   0  0  0  0  0  0  0  0  0  0  0  0
   -3.3781    0.0392   -0.0002 H   0  0  0  0  0  0  0  0  0  0  0  0
   -1.8308    2.0752   -0.0005 H   0  0  0  0  0  0  0  0  0  0  0  0
  1  3  1  0  0  0  0
  2  1  2  0  0  0  0
  2  5  1  0  0  0  0
  3  7  2  0  0  0  0
  3 12  1  0  0  0  0
  4 13  1  0  0  0  0
  4  9  1  0  0  0  0
  5  6  2  0  0  0  0
  6  9  1  0  0  0  0
  6  7  1  0  0  0  0
  8  5  1  0  0  0  0
  8  4  2  0  0  0  0
 10  1  1  0  0  0  0
 11  2  1  0  0  0  0
 14  9  1  0  0  0  0
M  END
>  <HBA>
2

>  <HBD>
1

>  <TPSA>
41.57

>  <cid>
67504

>  <dipole>
1.48

>  <excitation_energy_1>
4.772

>  <excitation_energy_2>
4.964

>  <excitation_energy_3>
5.252

>  <excitation_energy_4>
5.907

>  <homo_energy>
-6.465

>  <homo_lumo_gap>
5.562

>  <logP>
0.958

>  <lumo_energy>
-0.903

>  <melting_point>
125.94

>  <molecular_refractivity>
33.89

>  <oscillator_strength_1>
0.001

>  <oscillator_strength_2>
0.1407

>  <oscillator_strength_3>
0.0633

>  <oscillator_strength_4>
0.0043

>  <open_babel_can_smiles>
c1cnc2c(c1)nc[nH]2

>  <mulliken_charges>
14
1   -0.165859
2   -0.130164
3   0.028672
4   0.231664
5   0.235204
6   0.497691
7   -0.500906
8   -0.495655
9   -0.636961
10   0.135959
11   0.152168
12   0.139792
13   0.166542
14   0.341855

>  <lowdin_charges>
14
1   -0.190553
2   -0.125515
3   -0.09242
4   -0.049451
5   -0.006942
6   0.051589
7   -0.163726
8   -0.189378
9   -0.196277
10   0.164285
11   0.16958
12   0.157804
13   0.169344
14   0.301661

$$$$

