PCCDB-ID:  370
public computational chemistry database (PCCDB) project, http://pccdb.org

 18 18  0  0  0  0  0  0  0  0999 V2000
   -0.6382    1.2658   -0.0255 C   0  0  0  0  0  0  0  0  0  0  0  0
   -0.6680   -1.1568    0.0431 C   0  0  0  0  0  0  0  0  0  0  0  0
   -1.3568    0.0607    0.0097 C   0  0  0  0  0  0  0  0  0  0  0  0
    0.7528    1.2274   -0.0374 C   0  0  0  0  0  0  0  0  0  0  0  0
    0.7248   -1.1912    0.0198 C   0  0  0  0  0  0  0  0  0  0  0  0
    1.4504    0.0112   -0.0240 C   0  0  0  0  0  0  0  0  0  0  0  0
   -2.8490    0.0083    0.0405 C   0  0  0  0  0  0  0  0  0  0  0  0
    1.5631    2.3396   -0.0569 O   0  0  0  0  0  0  0  0  0  0  0  0
    1.4507   -2.3433    0.0398 O   0  0  0  0  0  0  0  0  0  0  0  0
    2.8061   -0.0222   -0.0386 O   0  0  0  0  0  0  0  0  0  0  0  0
   -3.4795   -0.9418    0.4423 O   0  0  0  0  0  0  0  0  0  0  0  0
   -3.5075    1.1124   -0.4181 O   0  0  0  0  0  0  0  0  0  0  0  0
   -1.1414    2.2296    0.0186 H   0  0  0  0  0  0  0  0  0  0  0  0
   -1.2439   -2.0768    0.0889 H   0  0  0  0  0  0  0  0  0  0  0  0
    1.0270    3.1425    0.0210 H   0  0  0  0  0  0  0  0  0  0  0  0
    0.8386   -3.0939    0.0930 H   0  0  0  0  0  0  0  0  0  0  0  0
    3.1180    0.8996   -0.0457 H   0  0  0  0  0  0  0  0  0  0  0  0
   -2.8851    1.6914   -0.8867 H   0  0  0  0  0  0  0  0  0  0  0  0
  1  3  1  0  0  0  0
  1 13  1  0  0  0  0
  2 14  1  0  0  0  0
  3  7  1  0  0  0  0
  3  2  2  0  0  0  0
  4  1  2  0  0  0  0
  4  6  1  0  0  0  0
  5  9  1  0  0  0  0
  5  2  1  0  0  0  0
  6  5  2  0  0  0  0
  7 11  2  0  0  0  0
  8  4  1  0  0  0  0
  8 15  1  0  0  0  0
  9 16  1  0  0  0  0
 10  6  1  0  0  0  0
 12  7  1  0  0  0  0
 17 10  1  0  0  0  0
 18 12  1  0  0  0  0
M  END
>  <HBA>
5

>  <HBD>
4

>  <TPSA>
97.99

>  <cid>
370

>  <dipole>
4.27

>  <excitation_energy_1>
4.526

>  <excitation_energy_2>
4.577

>  <excitation_energy_3>
4.801

>  <excitation_energy_4>
4.908

>  <homo_energy>
-6.079

>  <homo_lumo_gap>
4.936

>  <logP>
0.502

>  <lumo_energy>
-1.143

>  <melting_point>
217.57

>  <molecular_refractivity>
39.47

>  <oscillator_strength_1>
0.0238

>  <oscillator_strength_2>
0.1661

>  <oscillator_strength_3>
0.0018

>  <oscillator_strength_4>
0.0102

>  <open_babel_can_smiles>
OC(=O)c1cc(O)c(c(c1)O)O

>  <mulliken_charges>
18
1   -0.274369
2   -0.238318
3   0.048328
4   0.310173
5   0.320979
6   0.294728
7   0.54754
8   -0.677876
9   -0.628989
10   -0.630505
11   -0.451911
12   -0.578709
13   0.123784
14   0.157638
15   0.421708
16   0.415957
17   0.43204
18   0.407803

>  <lowdin_charges>
18
1   -0.232951
2   -0.195401
3   -0.058408
4   0.064702
5   0.085385
6   0.068326
7   0.196288
8   -0.395272
9   -0.36006
10   -0.353123
11   -0.245971
12   -0.363764
13   0.154425
14   0.177516
15   0.368935
16   0.36523
17   0.367439
18   0.356705

$$$$

