PCCDB-ID:  16715
public computational chemistry database (PCCDB) project, http://pccdb.org

 27 26  0  0  0  0  0  0  0  0999 V2000
    7.1254    1.8996    1.8757 C   0  0  0  0  0  0  0  0  0  0  0  0
    6.3725    0.5661    1.9546 C   0  0  0  0  0  0  0  0  0  0  0  0
    6.5541   -0.3426    0.7267 C   0  0  0  0  0  0  0  0  0  0  0  0
    5.9478    0.2177   -0.5693 C   0  0  0  0  0  0  0  0  0  0  0  0
    6.0244   -0.7364   -1.7733 C   0  0  0  0  0  0  0  0  0  0  0  0
    7.4479   -1.0063   -2.2816 C   0  0  0  0  0  0  0  0  0  0  0  0
    7.4723   -1.9152   -3.5159 C   0  0  0  0  0  0  0  0  0  0  0  0
    8.8912   -2.1769   -4.0680 C   0  0  0  0  0  0  0  0  0  0  0  0
    9.7615   -2.8698   -3.1114 C   0  0  0  0  0  0  0  0  0  0  0  0
   10.4372   -3.4191   -2.3434 N   0  0  0  0  0  0  0  0  0  0  0  0
    7.0007    2.4764    2.7993 H   0  0  0  0  0  0  0  0  0  0  0  0
    6.7684    2.5240    1.0490 H   0  0  0  0  0  0  0  0  0  0  0  0
    8.2004    1.7366    1.7282 H   0  0  0  0  0  0  0  0  0  0  0  0
    5.3006    0.7589    2.1065 H   0  0  0  0  0  0  0  0  0  0  0  0
    6.7112    0.0198    2.8451 H   0  0  0  0  0  0  0  0  0  0  0  0
    6.0906   -1.3173    0.9372 H   0  0  0  0  0  0  0  0  0  0  0  0
    7.6261   -0.5395    0.5869 H   0  0  0  0  0  0  0  0  0  0  0  0
    6.4366    1.1655   -0.8340 H   0  0  0  0  0  0  0  0  0  0  0  0
    4.8919    0.4618   -0.3840 H   0  0  0  0  0  0  0  0  0  0  0  0
    5.4299   -0.3146   -2.5964 H   0  0  0  0  0  0  0  0  0  0  0  0
    5.5459   -1.6917   -1.5108 H   0  0  0  0  0  0  0  0  0  0  0  0
    8.0527   -1.4638   -1.4888 H   0  0  0  0  0  0  0  0  0  0  0  0
    7.9325   -0.0492   -2.5269 H   0  0  0  0  0  0  0  0  0  0  0  0
    6.8848   -1.4632   -4.3255 H   0  0  0  0  0  0  0  0  0  0  0  0
    6.9982   -2.8767   -3.2823 H   0  0  0  0  0  0  0  0  0  0  0  0
    9.3711   -1.2288   -4.3429 H   0  0  0  0  0  0  0  0  0  0  0  0
    8.8382   -2.7816   -4.9816 H   0  0  0  0  0  0  0  0  0  0  0  0
  1  2  1  0  0  0  0
  1 11  1  0  0  0  0
  2 14  1  0  0  0  0
  2 15  1  0  0  0  0
  3 16  1  0  0  0  0
  3  2  1  0  0  0  0
  4 19  1  0  0  0  0
  4  3  1  0  0  0  0
  5 21  1  0  0  0  0
  5  4  1  0  0  0  0
  6  5  1  0  0  0  0
  6 22  1  0  0  0  0
  7 25  1  0  0  0  0
  7  6  1  0  0  0  0
  8  7  1  0  0  0  0
  8  9  1  0  0  0  0
  9 10  3  0  0  0  0
 12  1  1  0  0  0  0
 13  1  1  0  0  0  0
 17  3  1  0  0  0  0
 18  4  1  0  0  0  0
 20  5  1  0  0  0  0
 23  6  1  0  0  0  0
 24  7  1  0  0  0  0
 26  8  1  0  0  0  0
 27  8  1  0  0  0  0
M  END
>  <HBA>
1

>  <HBD>
0

>  <TPSA>
23.79

>  <cid>
16715

>  <dipole>
3.81

>  <excitation_energy_1>
7.464

>  <excitation_energy_2>
7.623

>  <excitation_energy_3>
7.748

>  <excitation_energy_4>
7.817

>  <homo_energy>
-8.365

>  <homo_lumo_gap>
9.285

>  <logP>
3.261

>  <lumo_energy>
0.92

>  <melting_point>
5.35

>  <molecular_refractivity>
45.13

>  <oscillator_strength_1>
0.0014

>  <oscillator_strength_2>
0.0086

>  <oscillator_strength_3>
0.0083

>  <oscillator_strength_4>
0.0028

>  <open_babel_can_smiles>
CCCCCCCCC#N

>  <mulliken_charges>
27
1   -0.443755
2   -0.249548
3   -0.253194
4   -0.25598
5   -0.257626
6   -0.264258
7   -0.261011
8   -0.348094
9   0.354772
10   -0.474177
11   0.142811
12   0.144511
13   0.142452
14   0.128851
15   0.133119
16   0.128245
17   0.136409
18   0.131921
19   0.128588
20   0.127306
21   0.131635
22   0.163536
23   0.129644
24   0.146041
25   0.155487
26   0.190656
27   0.191662

>  <lowdin_charges>
27
1   -0.44678
2   -0.271306
3   -0.276477
4   -0.275492
5   -0.274787
6   -0.281973
7   -0.265701
8   -0.277256
9   -0.016818
10   -0.132631
11   0.150331
12   0.147093
13   0.144986
14   0.136256
15   0.1435
16   0.14006
17   0.139102
18   0.13938
19   0.139795
20   0.140785
21   0.139708
22   0.154941
23   0.139442
24   0.150433
25   0.152715
26   0.178914
27   0.181779

$$$$

