PCCDB-ID:  42646
public computational chemistry database (PCCDB) project, http://pccdb.org

 24 24  0  0  0  0  0  0  0  0999 V2000
    0.7072    0.8522    0.6181 C   0  0  0  0  0  0  0  0  0  0  0  0
    4.7032   -5.5599   -0.4365 C   0  0  0  0  0  0  0  0  0  0  0  0
    4.2232    1.5462   -0.7033 C   0  0  0  0  0  0  0  0  0  0  0  0
    2.8982    1.7276   -0.3077 C   0  0  0  0  0  0  0  0  0  0  0  0
    4.8308    0.2966   -0.5821 C   0  0  0  0  0  0  0  0  0  0  0  0
    2.7642   -0.5887    0.3481 C   0  0  0  0  0  0  0  0  0  0  0  0
    2.1524    0.6641    0.2187 C   0  0  0  0  0  0  0  0  0  0  0  0
    4.0842   -0.7542   -0.0604 C   0  0  0  0  0  0  0  0  0  0  0  0
    4.2321   -3.1141   -0.3192 C   0  0  0  0  0  0  0  0  0  0  0  0
    6.2821   -3.9733    0.5870 N   0  0  0  0  0  0  0  0  0  0  0  0
    5.0811   -4.2043   -0.0431 N   0  0  0  0  0  0  0  0  0  0  0  0
    3.1703   -3.2477   -0.8805 O   0  0  0  0  0  0  0  0  0  0  0  0
    6.9251   -4.9901    0.7585 O   0  0  0  0  0  0  0  0  0  0  0  0
    4.7736   -1.9639    0.1232 O   0  0  0  0  0  0  0  0  0  0  0  0
    0.5173    1.8743    0.9619 H   0  0  0  0  0  0  0  0  0  0  0  0
    0.4190    0.1648    1.4201 H   0  0  0  0  0  0  0  0  0  0  0  0
    0.0360    0.6625   -0.2300 H   0  0  0  0  0  0  0  0  0  0  0  0
    3.7178   -5.5081   -0.8931 H   0  0  0  0  0  0  0  0  0  0  0  0
    4.6905   -6.2053    0.4455 H   0  0  0  0  0  0  0  0  0  0  0  0
    5.4371   -5.9559   -1.1437 H   0  0  0  0  0  0  0  0  0  0  0  0
    4.7902    2.3817   -1.1041 H   0  0  0  0  0  0  0  0  0  0  0  0
    2.4360    2.7068   -0.4045 H   0  0  0  0  0  0  0  0  0  0  0  0
    5.8620    0.1290   -0.8744 H   0  0  0  0  0  0  0  0  0  0  0  0
    2.2115   -1.4290    0.7524 H   0  0  0  0  0  0  0  0  0  0  0  0
  1 15  1  0  0  0  0
  1 16  1  0  0  0  0
  2 11  1  0  0  0  0
  2 19  1  0  0  0  0
  3  5  2  0  0  0  0
  3  4  1  0  0  0  0
  4  7  2  0  0  0  0
  5  8  1  0  0  0  0
  6 24  1  0  0  0  0
  7  6  1  0  0  0  0
  7  1  1  0  0  0  0
  8 14  1  0  0  0  0
  8  6  2  0  0  0  0
  9 11  1  0  0  0  0
  9 14  1  0  0  0  0
 10 13  1  0  0  0  0
 11 10  1  0  0  0  0
 12  9  2  0  0  0  0
 17  1  1  0  0  0  0
 18  2  1  0  0  0  0
 20  2  1  0  0  0  0
 21  3  1  0  0  0  0
 22  4  1  0  0  0  0
 23  5  1  0  0  0  0
M  RAD  2  10   2  13   2
M  END
>  <HBA>
5

>  <HBD>
0

>  <TPSA>
58.97

>  <cid>
42646

>  <dipole>
2.14

>  <excitation_energy_1>
2.982

>  <excitation_energy_2>
3.946

>  <excitation_energy_3>
4.177

>  <excitation_energy_4>
5.211

>  <homo_energy>
-6.648

>  <homo_lumo_gap>
4.661

>  <logP>
2.107

>  <lumo_energy>
-1.986

>  <melting_point>
66.01

>  <molecular_refractivity>
50.93

>  <oscillator_strength_1>
0.0011

>  <oscillator_strength_2>
0.0192

>  <oscillator_strength_3>
0.0038

>  <oscillator_strength_4>
0.0011

>  <open_babel_can_smiles>
[O][N]N(C(=O)Oc1cccc(c1)C)C

>  <mulliken_charges>
24
1   -0.528497
2   -0.327198
3   -0.139113
4   -0.169192
5   -0.161481
6   -0.185261
7   0.159316
8   0.343423
9   0.815794
10   0.199068
11   -0.34479
12   -0.471214
13   -0.320371
14   -0.511132
15   0.159595
16   0.160569
17   0.172916
18   0.20892
19   0.188935
20   0.188926
21   0.138459
22   0.127192
23   0.148727
24   0.146408

>  <lowdin_charges>
24
1   -0.441696
2   -0.366967
3   -0.146861
4   -0.169225
5   -0.171951
6   -0.176636
7   0.011473
8   0.106308
9   0.221025
10   0.091013
11   -0.046711
12   -0.256646
13   -0.20544
14   -0.135217
15   0.159052
16   0.161046
17   0.166684
18   0.189211
19   0.173483
20   0.173751
21   0.163699
22   0.157687
23   0.170759
24   0.17216

$$$$

