PCCDB-ID:  9074
public computational chemistry database (PCCDB) project, http://pccdb.org

 25 26  0  0  0  0  0  0  0  0999 V2000
   -1.9539   -0.2968    0.4277 C   0  0  0  0  0  0  0  0  0  0  0  0
   -1.0186    0.5789    0.9829 C   0  0  0  0  0  0  0  0  0  0  0  0
   -1.5091   -1.3630   -0.3559 C   0  0  0  0  0  0  0  0  0  0  0  0
    0.3439    0.3799    0.7743 C   0  0  0  0  0  0  0  0  0  0  0  0
   -0.1485   -1.5600   -0.5877 C   0  0  0  0  0  0  0  0  0  0  0  0
    4.2796   -1.8068   -0.8473 C   0  0  0  0  0  0  0  0  0  0  0  0
    2.4846   -3.2552   -0.0552 C   0  0  0  0  0  0  0  0  0  0  0  0
    5.1099   -2.8974   -0.9913 C   0  0  0  0  0  0  0  0  0  0  0  0
    3.3273   -4.3457   -0.2066 C   0  0  0  0  0  0  0  0  0  0  0  0
    0.7932   -0.6944   -0.0096 C   0  0  0  0  0  0  0  0  0  0  0  0
    2.9471   -1.9621   -0.3825 C   0  0  0  0  0  0  0  0  0  0  0  0
    4.6374   -4.1854   -0.6773 C   0  0  0  0  0  0  0  0  0  0  0  0
    2.1776   -0.8229   -0.2413 N   0  0  0  0  0  0  0  0  0  0  0  0
    5.4113   -5.3718   -0.7964 N   0  0  0  0  0  0  0  0  0  0  0  0
    6.5603   -5.2091   -1.2062 O   0  0  0  0  0  0  0  0  0  0  0  0
   -3.0157   -0.1466    0.5985 H   0  0  0  0  0  0  0  0  0  0  0  0
   -1.3480    1.4163    1.5918 H   0  0  0  0  0  0  0  0  0  0  0  0
   -2.2266   -2.0412   -0.8098 H   0  0  0  0  0  0  0  0  0  0  0  0
    1.0705    1.0512    1.2264 H   0  0  0  0  0  0  0  0  0  0  0  0
    0.1815   -2.3649   -1.2353 H   0  0  0  0  0  0  0  0  0  0  0  0
    4.6362   -0.8101   -1.1001 H   0  0  0  0  0  0  0  0  0  0  0  0
    1.4848   -3.3900    0.3390 H   0  0  0  0  0  0  0  0  0  0  0  0
    6.1287   -2.7957   -1.3507 H   0  0  0  0  0  0  0  0  0  0  0  0
    2.9924   -5.3472    0.0483 H   0  0  0  0  0  0  0  0  0  0  0  0
    2.6926    0.0472   -0.2527 H   0  0  0  0  0  0  0  0  0  0  0  0
  1 16  1  0  0  0  0
  1  2  2  0  0  0  0
  2 17  1  0  0  0  0
  3  1  1  0  0  0  0
  4  2  1  0  0  0  0
  4 19  1  0  0  0  0
  5  3  2  0  0  0  0
  5 10  1  0  0  0  0
  6 11  1  0  0  0  0
  7 22  1  0  0  0  0
  8  6  2  0  0  0  0
  8 12  1  0  0  0  0
  9  7  1  0  0  0  0
  9 24  1  0  0  0  0
 10  4  2  0  0  0  0
 11 13  1  0  0  0  0
 11  7  2  0  0  0  0
 12  9  2  0  0  0  0
 13 10  1  0  0  0  0
 14 12  1  0  0  0  0
 15 14  2  0  0  0  0
 18  3  1  0  0  0  0
 20  5  1  0  0  0  0
 21  6  1  0  0  0  0
 23  8  1  0  0  0  0
 25 13  1  0  0  0  0
M  END
>  <HBA>
2

>  <HBD>
1

>  <TPSA>
41.46

>  <cid>
9074

>  <dipole>
6.45

>  <excitation_energy_1>
1.592

>  <excitation_energy_2>
3.319

>  <excitation_energy_3>
4.098

>  <excitation_energy_4>
4.197

>  <homo_energy>
-5.44

>  <homo_lumo_gap>
3.244

>  <logP>
3.901

>  <lumo_energy>
-2.196

>  <melting_point>
105.53

>  <molecular_refractivity>
61.44

>  <oscillator_strength_1>
0.0003

>  <oscillator_strength_2>
0.5456

>  <oscillator_strength_3>
0.0001

>  <oscillator_strength_4>
0.0021

>  <open_babel_can_smiles>
O=Nc1ccc(cc1)Nc1ccccc1

>  <mulliken_charges>
25
1   -0.127952
2   -0.133338
3   -0.140976
4   -0.180763
5   -0.16584
6   -0.20682
7   -0.191481
8   -0.125834
9   -0.13717
10   0.34743
11   0.39527
12   0.218539
13   -0.786165
14   -0.079431
15   -0.317718
16   0.134993
17   0.137738
18   0.139113
19   0.130315
20   0.152417
21   0.132853
22   0.154633
23   0.162764
24   0.154042
25   0.333381

>  <lowdin_charges>
25
1   -0.164841
2   -0.144539
3   -0.146673
4   -0.185746
5   -0.182682
6   -0.189768
7   -0.202635
8   -0.122011
9   -0.117756
10   0.052445
11   0.082053
12   -0.045479
13   -0.232231
14   0.029008
15   -0.21255
16   0.159827
17   0.1627
18   0.163906
19   0.159395
20   0.169968
21   0.157114
22   0.170773
23   0.176902
24   0.173074
25   0.289744

$$$$

