PCCDB-ID:  35599
public computational chemistry database (PCCDB) project, http://pccdb.org

 16 16  0  0  0  0  0  0  0  0999 V2000
    1.1115   -0.0715    0.0088 C   0  0  0  0  0  0  0  0  0  0  0  0
    5.3755   -2.4412    0.0186 C   0  0  0  0  0  0  0  0  0  0  0  0
    2.6135   -0.0572    0.0078 C   0  0  0  0  0  0  0  0  0  0  0  0
    4.5984   -1.1559    0.0128 C   0  0  0  0  0  0  0  0  0  0  0  0
    4.5539    1.0822    0.0032 C   0  0  0  0  0  0  0  0  0  0  0  0
    3.2563   -1.2338    0.0128 N   0  0  0  0  0  0  0  0  0  0  0  0
    3.2172    1.1394    0.0028 N   0  0  0  0  0  0  0  0  0  0  0  0
    5.3041   -0.0179    0.0081 N   0  0  0  0  0  0  0  0  0  0  0  0
    5.2149    2.2462   -0.0019 O   0  0  0  0  0  0  0  0  0  0  0  0
    0.7426   -1.0980    0.0025 H   0  0  0  0  0  0  0  0  0  0  0  0
    0.7293    0.4638   -0.8674 H   0  0  0  0  0  0  0  0  0  0  0  0
    0.7312    0.4510    0.8937 H   0  0  0  0  0  0  0  0  0  0  0  0
    4.6986   -3.2967    0.0234 H   0  0  0  0  0  0  0  0  0  0  0  0
    6.0276   -2.4797    0.8981 H   0  0  0  0  0  0  0  0  0  0  0  0
    6.0260   -2.4886   -0.8617 H   0  0  0  0  0  0  0  0  0  0  0  0
    4.5342    2.9434   -0.0042 H   0  0  0  0  0  0  0  0  0  0  0  0
  1 12  1  0  0  0  0
  2 13  1  0  0  0  0
  2 14  1  0  0  0  0
  3  1  1  0  0  0  0
  3  6  2  0  0  0  0
  4  2  1  0  0  0  0
  5  8  2  0  0  0  0
  6  4  2  0  0  0  0
  7  5  2  0  0  0  0
  7  3  1  0  0  0  0
  8  4  1  0  0  0  0
  9  5  1  0  0  0  0
 10  1  1  0  0  0  0
 11  1  1  0  0  0  0
 15  2  1  0  0  0  0
 16  9  1  0  0  0  0
M  END
>  <HBA>
3

>  <HBD>
1

>  <TPSA>
58.64

>  <cid>
35599

>  <dipole>
1.53

>  <excitation_energy_1>
4.664

>  <excitation_energy_2>
4.88

>  <excitation_energy_3>
5.332

>  <excitation_energy_4>
5.494

>  <homo_energy>
-7.241

>  <homo_lumo_gap>
6.055

>  <logP>
-0.218

>  <lumo_energy>
-1.186

>  <melting_point>
125.72

>  <molecular_refractivity>
32.58

>  <oscillator_strength_1>
0.0009

>  <oscillator_strength_2>
0.0061

>  <oscillator_strength_3>
0.0031

>  <oscillator_strength_4>
0.0028

>  <open_babel_can_smiles>
CC1=[N]=C(C)N=[C](=N1)O

>  <mulliken_charges>
16
1   -0.50712
2   -0.505278
3   0.439836
4   0.432637
5   0.627369
6   -0.46579
7   -0.492612
8   -0.446399
9   -0.576503
10   0.179893
11   0.177988
12   0.178167
13   0.17657
14   0.180673
15   0.180685
16   0.419884

>  <lowdin_charges>
16
1   -0.447605
2   -0.447136
3   0.126426
4   0.127695
5   0.16853
6   -0.205622
7   -0.226462
8   -0.187861
9   -0.324729
10   0.171891
11   0.175691
12   0.175791
13   0.171263
14   0.177104
15   0.177115
16   0.367908

$$$$

