PCCDB-ID:  42811
public computational chemistry database (PCCDB) project, http://pccdb.org

 22 21  0  0  1  0  0  0  0  0999 V2000
    2.5257    0.7272    1.1865 C   0  0  0  0  0  0  0  0  0  0  0  0
    1.9589   -1.4658   -2.0213 C   0  0  0  0  0  0  0  0  0  0  0  0
    2.0379    0.2993   -0.2003 C   0  0  0  0  0  0  0  0  0  0  0  0
    4.8565   -2.1117   -1.1211 C   0  0  0  0  0  0  0  0  0  0  0  0
    2.6385   -1.0188   -0.7173 C   0  0  2  0  0  0  0  0  0  0  0  0
    6.2719   -2.0352   -0.5215 C   0  0  0  0  0  0  0  0  0  0  0  0
    4.1049   -0.8830   -0.8426 N   0  0  0  0  0  0  0  0  0  0  0  0
    7.1570   -2.7977   -0.8260 O   0  0  0  0  0  0  0  0  0  0  0  0
    6.4094   -1.0618    0.3930 O   0  0  0  0  0  0  0  0  0  0  0  0
    2.0339    1.6535    1.5027 H   0  0  0  0  0  0  0  0  0  0  0  0
    3.6060    0.9012    1.1971 H   0  0  0  0  0  0  0  0  0  0  0  0
    2.3039   -0.0408    1.9375 H   0  0  0  0  0  0  0  0  0  0  0  0
    0.8806   -1.5974   -1.8755 H   0  0  0  0  0  0  0  0  0  0  0  0
    2.3633   -2.4168   -2.3845 H   0  0  0  0  0  0  0  0  0  0  0  0
    2.0997   -0.7151   -2.8102 H   0  0  0  0  0  0  0  0  0  0  0  0
    2.2464    1.0944   -0.9323 H   0  0  0  0  0  0  0  0  0  0  0  0
    0.9462    0.1867   -0.1854 H   0  0  0  0  0  0  0  0  0  0  0  0
    4.3495   -2.9516   -0.6306 H   0  0  0  0  0  0  0  0  0  0  0  0
    4.9514   -2.3722   -2.1825 H   0  0  0  0  0  0  0  0  0  0  0  0
    2.4751   -1.7922    0.0468 H   0  0  0  0  0  0  0  0  0  0  0  0
    4.3101   -0.1892   -1.5624 H   0  0  0  0  0  0  0  0  0  0  0  0
    5.5303   -0.6047    0.4017 H   0  0  0  0  0  0  0  0  0  0  0  0
  1 11  1  0  0  0  0
  1 10  1  0  0  0  0
  1 12  1  0  0  0  0
  2 13  1  0  0  0  0
  2  5  1  0  0  0  0
  3 17  1  0  0  0  0
  3  1  1  0  0  0  0
  4  7  1  0  0  0  0
  4 18  1  0  0  0  0
  4  6  1  0  0  0  0
  5  3  1  0  0  0  0
  5 20  1  1  0  0  0
  6  9  1  0  0  0  0
  7  5  1  0  0  0  0
  8  6  2  0  0  0  0
  9 22  1  0  0  0  0
 14  2  1  0  0  0  0
 15  2  1  0  0  0  0
 16  3  1  0  0  0  0
 19  4  1  0  0  0  0
 21  7  1  0  0  0  0
M  END
>  <HBA>
3

>  <HBD>
2

>  <TPSA>
49.33

>  <cid>
42811

>  <dipole>
5.72

>  <excitation_energy_1>
5.565

>  <excitation_energy_2>
6.057

>  <excitation_energy_3>
6.4

>  <excitation_energy_4>
6.589

>  <homo_energy>
-6.727

>  <homo_lumo_gap>
7.304

>  <logP>
0.85

>  <lumo_energy>
0.577

>  <melting_point>
77.78

>  <molecular_refractivity>
35.53

>  <oscillator_strength_1>
0.0007

>  <oscillator_strength_2>
0.0045

>  <oscillator_strength_3>
0.0019

>  <oscillator_strength_4>
0.0069

>  <open_babel_can_smiles>
C[C@@H](NCC(=O)O)CC

>  <mulliken_charges>
22
1   -0.443648
2   -0.455959
3   -0.257238
4   -0.235808
5   0.044398
6   0.583338
7   -0.60694
8   -0.459556
9   -0.577853
10   0.148969
11   0.153492
12   0.145819
13   0.152844
14   0.154738
15   0.141998
16   0.129292
17   0.141786
18   0.186276
19   0.175068
20   0.138653
21   0.311071
22   0.429261

>  <lowdin_charges>
22
1   -0.444436
2   -0.458953
3   -0.27637
4   -0.249885
5   -0.06098
6   0.175393
7   -0.359765
8   -0.2562
9   -0.35929
10   0.154235
11   0.14872
12   0.150254
13   0.155236
14   0.154391
15   0.149019
16   0.140665
17   0.146967
18   0.17509
19   0.159759
20   0.142394
21   0.262134
22   0.351622

$$$$

