PCCDB-ID:  69387
public computational chemistry database (PCCDB) project, http://pccdb.org

 15 14  0  0  0  0  0  0  0  0999 V2000
    3.1094   -0.3873    1.7242 C   0  0  0  0  0  0  0  0  0  0  0  0
    3.7363    0.7875    0.9765 C   0  0  0  0  0  0  0  0  0  0  0  0
    5.0595   -0.7692   -1.0134 C   0  0  0  0  0  0  0  0  0  0  0  0
    4.5033   -2.1935   -0.8672 C   0  0  0  0  0  0  0  0  0  0  0  0
    5.2220   -3.1245   -0.5990 O   0  0  0  0  0  0  0  0  0  0  0  0
    3.1869   -2.3514   -1.1013 O   0  0  0  0  0  0  0  0  0  0  0  0
    3.8634    0.6112   -0.8552 S   0  0  0  0  0  0  0  0  0  0  0  0
    3.0267   -0.1404    2.7896 H   0  0  0  0  0  0  0  0  0  0  0  0
    3.7139   -1.2960    1.6445 H   0  0  0  0  0  0  0  0  0  0  0  0
    2.1059   -0.6110    1.3489 H   0  0  0  0  0  0  0  0  0  0  0  0
    4.7395    1.0099    1.3563 H   0  0  0  0  0  0  0  0  0  0  0  0
    3.1350    1.6938    1.1041 H   0  0  0  0  0  0  0  0  0  0  0  0
    5.4790   -0.6828   -2.0224 H   0  0  0  0  0  0  0  0  0  0  0  0
    5.8882   -0.6509   -0.3109 H   0  0  0  0  0  0  0  0  0  0  0  0
    2.7889   -1.4651   -1.2369 H   0  0  0  0  0  0  0  0  0  0  0  0
  1  8  1  0  0  0  0
  2 12  1  0  0  0  0
  2 11  1  0  0  0  0
  2  1  1  0  0  0  0
  3  4  1  0  0  0  0
  3  7  1  0  0  0  0
  3 14  1  0  0  0  0
  4  5  2  0  0  0  0
  6  4  1  0  0  0  0
  7  2  1  0  0  0  0
  9  1  1  0  0  0  0
 10  1  1  0  0  0  0
 13  3  1  0  0  0  0
 15  6  1  0  0  0  0
M  END
>  <HBA>
3

>  <HBD>
1

>  <TPSA>
62.6

>  <cid>
69387

>  <dipole>
3.74

>  <excitation_energy_1>
5.342

>  <excitation_energy_2>
5.649

>  <excitation_energy_3>
5.996

>  <excitation_energy_4>
6.252

>  <homo_energy>
-6.754

>  <homo_lumo_gap>
6.827

>  <logP>
0.824

>  <lumo_energy>
0.073

>  <melting_point>
60.89

>  <molecular_refractivity>
30.7

>  <oscillator_strength_1>
0.0016

>  <oscillator_strength_2>
0.0007

>  <oscillator_strength_3>
0.0149

>  <oscillator_strength_4>
0.0036

>  <open_babel_can_smiles>
CCSCC(=O)O

>  <mulliken_charges>
15
1   -0.451962
2   -0.406057
3   -0.528235
4   0.59486
5   -0.44054
6   -0.561208
7   0.068805
8   0.162042
9   0.176412
10   0.165367
11   0.181896
12   0.186354
13   0.219913
14   0.209096
15   0.423256

>  <lowdin_charges>
15
1   -0.450085
2   -0.368513
3   -0.42646
4   0.183556
5   -0.24501
6   -0.352483
7   0.104061
8   0.159738
9   0.163366
10   0.159388
11   0.162041
12   0.173147
13   0.197673
14   0.187321
15   0.35226

$$$$

