PCCDB-ID:  22132
public computational chemistry database (PCCDB) project, http://pccdb.org

 23 22  0  0  0  0  0  0  0  0999 V2000
    3.8321    0.0742   -0.2167 C   0  0  0  0  0  0  0  0  0  0  0  0
    2.3497   -2.6383   -2.2423 C   0  0  0  0  0  0  0  0  0  0  0  0
    0.9475   -2.8201   -2.8383 C   0  0  0  0  0  0  0  0  0  0  0  0
    2.4226   -1.3168   -1.4953 C   0  0  0  0  0  0  0  0  0  0  0  0
    0.6991   -4.1215   -3.5836 C   0  0  0  0  0  0  0  0  0  0  0  0
    1.1412   -5.3591   -2.7896 N   0  0  0  0  0  0  0  0  0  0  0  0
   -0.8088   -4.3127   -3.8643 N   0  0  0  0  0  0  0  0  0  0  0  0
    1.3880   -4.2020   -4.9565 N   0  0  0  0  0  0  0  0  0  0  0  0
    1.5140   -0.5205   -1.4019 O   0  0  0  0  0  0  0  0  0  0  0  0
    0.8104   -5.3488   -1.6142 O   0  0  0  0  0  0  0  0  0  0  0  0
    1.7588   -6.2217   -3.3862 O   0  0  0  0  0  0  0  0  0  0  0  0
   -1.3915   -3.3084   -4.2361 O   0  0  0  0  0  0  0  0  0  0  0  0
   -1.2640   -5.4303   -3.7069 O   0  0  0  0  0  0  0  0  0  0  0  0
    0.7239   -4.6186   -5.8879 O   0  0  0  0  0  0  0  0  0  0  0  0
    2.5546   -3.8421   -4.9777 O   0  0  0  0  0  0  0  0  0  0  0  0
    3.6408   -1.1498   -0.9521 O   0  0  0  0  0  0  0  0  0  0  0  0
    4.8586    0.0358    0.1473 H   0  0  0  0  0  0  0  0  0  0  0  0
    3.1282    0.1326    0.6173 H   0  0  0  0  0  0  0  0  0  0  0  0
    3.6856    0.9379   -0.8699 H   0  0  0  0  0  0  0  0  0  0  0  0
    3.1248   -2.6500   -3.0118 H   0  0  0  0  0  0  0  0  0  0  0  0
    2.5907   -3.4401   -1.5358 H   0  0  0  0  0  0  0  0  0  0  0  0
    0.7050   -2.0026   -3.5216 H   0  0  0  0  0  0  0  0  0  0  0  0
    0.2071   -2.7761   -2.0356 H   0  0  0  0  0  0  0  0  0  0  0  0
  1 17  1  0  0  0  0
  1 18  1  0  0  0  0
  2 21  1  0  0  0  0
  2  4  1  0  0  0  0
  3  2  1  0  0  0  0
  3 23  1  0  0  0  0
  4  9  2  0  0  0  0
  4 16  1  0  0  0  0
  5  3  1  0  0  0  0
  5  6  1  0  0  0  0
  6 10  2  0  0  0  0
  7 13  2  0  0  0  0
  7  5  1  0  0  0  0
  8  5  1  0  0  0  0
 11  6  2  0  0  0  0
 12  7  2  0  0  0  0
 14  8  2  0  0  0  0
 15  8  2  0  0  0  0
 16  1  1  0  0  0  0
 19  1  1  0  0  0  0
 20  2  1  0  0  0  0
 22  3  1  0  0  0  0
M  END
>  <HBA>
2

>  <HBD>
0

>  <TPSA>
163.76

>  <cid>
22132

>  <dipole>
4.44

>  <excitation_energy_1>
4.008

>  <excitation_energy_2>
4.1

>  <excitation_energy_3>
4.115

>  <excitation_energy_4>
4.148

>  <homo_energy>
-8.093

>  <homo_lumo_gap>
4.732

>  <logP>
0.993

>  <lumo_energy>
-3.361

>  <melting_point>
89.83

>  <molecular_refractivity>
51.79

>  <oscillator_strength_1>
0.0006

>  <oscillator_strength_2>
0.0044

>  <oscillator_strength_3>
0.0002

>  <oscillator_strength_4>
0.0001

>  <open_babel_can_smiles>
COC(=O)CCC(N(=O)=O)(N(=O)=O)N(=O)=O

>  <mulliken_charges>
23
1   -0.223964
2   -0.392353
3   -0.285949
4   0.636042
5   0.309312
6   0.495003
7   0.496655
8   0.497485
9   -0.472688
10   -0.34176
11   -0.323315
12   -0.338315
13   -0.323163
14   -0.323229
15   -0.346086
16   -0.451456
17   0.174128
18   0.177213
19   0.176883
20   0.221876
21   0.200011
22   0.220296
23   0.217374

>  <lowdin_charges>
23
1   -0.27604
2   -0.315627
3   -0.279284
4   0.198424
5   0.100546
6   0.290751
7   0.293642
8   0.291515
9   -0.26064
10   -0.195125
11   -0.18022
12   -0.189449
13   -0.180872
14   -0.18037
15   -0.192848
16   -0.18459
17   0.164982
18   0.163691
19   0.163648
20   0.191687
21   0.182285
22   0.197331
23   0.196566

$$$$

