PCCDB-ID:  61154
public computational chemistry database (PCCDB) project, http://pccdb.org

 38 38  0  0  0  0  0  0  0  0999 V2000
    6.3709    1.7812   -1.3927 C   0  0  0  0  0  0  0  0  0  0  0  0
    9.9094    6.1835   -4.0568 C   0  0  0  0  0  0  0  0  0  0  0  0
    6.2798    2.9774   -0.4373 C   0  0  0  0  0  0  0  0  0  0  0  0
    8.6534    5.6662   -4.7694 C   0  0  0  0  0  0  0  0  0  0  0  0
    7.6295    3.6384   -0.1140 C   0  0  0  0  0  0  0  0  0  0  0  0
    7.3185    6.1974   -4.2124 C   0  0  0  0  0  0  0  0  0  0  0  0
    7.5334    9.1544    0.5488 C   0  0  0  0  0  0  0  0  0  0  0  0
    6.7178    9.0178   -0.5744 C   0  0  0  0  0  0  0  0  0  0  0  0
    8.3549    8.0830    0.8995 C   0  0  0  0  0  0  0  0  0  0  0  0
    6.7184    7.8486   -1.3313 C   0  0  0  0  0  0  0  0  0  0  0  0
    8.3651    6.9053    0.1564 C   0  0  0  0  0  0  0  0  0  0  0  0
    8.2866    4.4007   -1.2828 C   0  0  0  0  0  0  0  0  0  0  0  0
    6.7643    5.4745   -2.9669 C   0  0  0  0  0  0  0  0  0  0  0  0
    7.5439    6.7517   -0.9865 C   0  0  0  0  0  0  0  0  0  0  0  0
    7.5526    5.5792   -1.7406 N   0  0  0  0  0  0  0  0  0  0  0  0
    7.0249    1.0003   -0.9848 H   0  0  0  0  0  0  0  0  0  0  0  0
    6.7707    2.0628   -2.3744 H   0  0  0  0  0  0  0  0  0  0  0  0
    5.3844    1.3342   -1.5601 H   0  0  0  0  0  0  0  0  0  0  0  0
   10.8168    5.7918   -4.5317 H   0  0  0  0  0  0  0  0  0  0  0  0
    9.9325    5.8999   -3.0010 H   0  0  0  0  0  0  0  0  0  0  0  0
    9.9571    7.2783   -4.1011 H   0  0  0  0  0  0  0  0  0  0  0  0
    5.8257    2.6414    0.5041 H   0  0  0  0  0  0  0  0  0  0  0  0
    5.5952    3.7322   -0.8463 H   0  0  0  0  0  0  0  0  0  0  0  0
    8.6421    4.5661   -4.7581 H   0  0  0  0  0  0  0  0  0  0  0  0
    8.7186    5.9501   -5.8283 H   0  0  0  0  0  0  0  0  0  0  0  0
    8.3388    2.8704    0.2295 H   0  0  0  0  0  0  0  0  0  0  0  0
    7.4946    4.3323    0.7236 H   0  0  0  0  0  0  0  0  0  0  0  0
    6.5463    6.0978   -4.9888 H   0  0  0  0  0  0  0  0  0  0  0  0
    7.4118    7.2716   -4.0102 H   0  0  0  0  0  0  0  0  0  0  0  0
    7.5287   10.0689    1.1341 H   0  0  0  0  0  0  0  0  0  0  0  0
    6.0657    9.8340   -0.8764 H   0  0  0  0  0  0  0  0  0  0  0  0
    9.0040    8.1564    1.7690 H   0  0  0  0  0  0  0  0  0  0  0  0
    6.0699    7.7967   -2.1971 H   0  0  0  0  0  0  0  0  0  0  0  0
    9.0189    6.1026    0.4749 H   0  0  0  0  0  0  0  0  0  0  0  0
    8.4035    3.7356   -2.1433 H   0  0  0  0  0  0  0  0  0  0  0  0
    9.3072    4.6878   -0.9974 H   0  0  0  0  0  0  0  0  0  0  0  0
    6.6692    4.4091   -3.2000 H   0  0  0  0  0  0  0  0  0  0  0  0
    5.7408    5.8274   -2.7781 H   0  0  0  0  0  0  0  0  0  0  0  0
  1 16  1  0  0  0  0
  1  3  1  0  0  0  0
  2 20  1  0  0  0  0
  3  5  1  0  0  0  0
  3 22  1  0  0  0  0
  4 24  1  0  0  0  0
  4  6  1  0  0  0  0
  4  2  1  0  0  0  0
  5 26  1  0  0  0  0
  5 27  1  0  0  0  0
  6 29  1  0  0  0  0
  6 13  1  0  0  0  0
  7  9  1  0  0  0  0
  7 30  1  0  0  0  0
  8  7  2  0  0  0  0
  9 32  1  0  0  0  0
 10 14  2  0  0  0  0
 10  8  1  0  0  0  0
 11 34  1  0  0  0  0
 11  9  2  0  0  0  0
 12 36  1  0  0  0  0
 12  5  1  0  0  0  0
 13 38  1  0  0  0  0
 13 15  1  0  0  0  0
 14 11  1  0  0  0  0
 15 12  1  0  0  0  0
 15 14  1  0  0  0  0
 17  1  1  0  0  0  0
 18  1  1  0  0  0  0
 19  2  1  0  0  0  0
 21  2  1  0  0  0  0
 23  3  1  0  0  0  0
 25  4  1  0  0  0  0
 28  6  1  0  0  0  0
 31  8  1  0  0  0  0
 33 10  1  0  0  0  0
 35 12  1  0  0  0  0
 37 13  1  0  0  0  0
M  END
>  <HBA>
1

>  <HBD>
0

>  <TPSA>
3.24

>  <cid>
61154

>  <dipole>
1.78

>  <excitation_energy_1>
4.348

>  <excitation_energy_2>
4.458

>  <excitation_energy_3>
4.673

>  <excitation_energy_4>
4.769

>  <homo_energy>
-4.884

>  <homo_lumo_gap>
5.225

>  <logP>
4.093

>  <lumo_energy>
0.34

>  <melting_point>
8.68

>  <molecular_refractivity>
69.49

>  <oscillator_strength_1>
0.047

>  <oscillator_strength_2>
0.0046

>  <oscillator_strength_3>
0.0951

>  <oscillator_strength_4>
0.0089

>  <open_babel_can_smiles>
CCCCN(c1ccccc1)CCCC

>  <mulliken_charges>
38
1   -0.448746
2   -0.446631
3   -0.253102
4   -0.249574
5   -0.25598
6   -0.256694
7   -0.138053
8   -0.139282
9   -0.138752
10   -0.193418
11   -0.191691
12   -0.161921
13   -0.154985
14   0.362434
15   -0.483337
16   0.142912
17   0.140846
18   0.145751
19   0.136867
20   0.162218
21   0.146312
22   0.136176
23   0.144497
24   0.123284
25   0.134031
26   0.125055
27   0.15036
28   0.12736
29   0.147961
30   0.116412
31   0.120414
32   0.120511
33   0.122176
34   0.121991
35   0.14801
36   0.14648
37   0.145551
38   0.144557

>  <lowdin_charges>
38
1   -0.448847
2   -0.444902
3   -0.277609
4   -0.269499
5   -0.291278
6   -0.288384
7   -0.19482
8   -0.148589
9   -0.147449
10   -0.214276
11   -0.21596
12   -0.201225
13   -0.196849
14   0.061614
15   -0.119876
16   0.147974
17   0.141526
18   0.151357
19   0.146954
20   0.153146
21   0.147113
22   0.145515
23   0.146476
24   0.132337
25   0.141674
26   0.141845
27   0.153266
28   0.144961
29   0.147373
30   0.153095
31   0.154225
32   0.153577
33   0.156985
34   0.157384
35   0.150146
36   0.142409
37   0.147106
38   0.141507

$$$$

