PCCDB-ID:  31532
public computational chemistry database (PCCDB) project, http://pccdb.org

 24 26  0  0  0  0  0  0  0  0999 V2000
   -3.6334   -0.6747    0.0008 C   0  0  0  0  0  0  0  0  0  0  0  0
   -3.5826    0.7514    0.0014 C   0  0  0  0  0  0  0  0  0  0  0  0
   -2.4788   -1.4119    0.0001 C   0  0  0  0  0  0  0  0  0  0  0  0
   -2.3801    1.4078    0.0011 C   0  0  0  0  0  0  0  0  0  0  0  0
    3.5892    0.7543    0.0001 C   0  0  0  0  0  0  0  0  0  0  0  0
    2.3861    1.4050    0.0003 C   0  0  0  0  0  0  0  0  0  0  0  0
    0.0074   -1.4643   -0.0010 C   0  0  0  0  0  0  0  0  0  0  0  0
    2.4912   -1.4170   -0.0009 C   0  0  0  0  0  0  0  0  0  0  0  0
   -1.2035   -0.7670   -0.0001 C   0  0  0  0  0  0  0  0  0  0  0  0
    1.2228   -0.7700   -0.0008 C   0  0  0  0  0  0  0  0  0  0  0  0
    3.6460   -0.6741   -0.0006 C   0  0  0  0  0  0  0  0  0  0  0  0
   -1.1504    0.6777    0.0008 C   0  0  0  0  0  0  0  0  0  0  0  0
    1.1567    0.6746    0.0005 C   0  0  0  0  0  0  0  0  0  0  0  0
    0.0047    1.3636    0.0016 N   0  0  0  0  0  0  0  0  0  0  0  0
    4.8462   -1.3283   -0.0011 O   0  0  0  0  0  0  0  0  0  0  0  0
   -4.5987   -1.1736    0.0002 H   0  0  0  0  0  0  0  0  0  0  0  0
   -4.5113    1.3157    0.0022 H   0  0  0  0  0  0  0  0  0  0  0  0
   -2.5132   -2.4989   -0.0001 H   0  0  0  0  0  0  0  0  0  0  0  0
   -2.3161    2.4914    0.0003 H   0  0  0  0  0  0  0  0  0  0  0  0
    4.5193    1.3209    0.0001 H   0  0  0  0  0  0  0  0  0  0  0  0
    2.3260    2.4886   -0.0001 H   0  0  0  0  0  0  0  0  0  0  0  0
    0.0057   -2.5527   -0.0013 H   0  0  0  0  0  0  0  0  0  0  0  0
    2.5514   -2.5013   -0.0009 H   0  0  0  0  0  0  0  0  0  0  0  0
    5.5638   -0.6766    0.0002 H   0  0  0  0  0  0  0  0  0  0  0  0
  1  2  2  0  0  0  0
  2 17  1  0  0  0  0
  3  1  1  0  0  0  0
  4  2  1  0  0  0  0
  5 20  1  0  0  0  0
  5  6  2  0  0  0  0
  6 13  1  0  0  0  0
  7 10  2  0  0  0  0
  7  9  1  0  0  0  0
  8 10  1  0  0  0  0
  8 11  2  0  0  0  0
  9  3  2  0  0  0  0
  9 12  1  0  0  0  0
 10 13  1  0  0  0  0
 11  5  1  0  0  0  0
 12  4  2  0  0  0  0
 12 14  1  0  0  0  0
 13 14  2  0  0  0  0
 15 11  1  0  0  0  0
 15 24  1  0  0  0  0
 16  1  1  0  0  0  0
 18  3  1  0  0  0  0
 19  4  1  0  0  0  0
 21  6  1  0  0  0  0
 22  7  1  0  0  0  0
 23  8  1  0  0  0  0
M  END
>  <HBA>
2

>  <HBD>
1

>  <TPSA>
33.12

>  <cid>
31532

>  <dipole>
1.1

>  <excitation_energy_1>
3.146

>  <excitation_energy_2>
3.819

>  <excitation_energy_3>
3.827

>  <excitation_energy_4>
4.294

>  <homo_energy>
-5.459

>  <homo_lumo_gap>
3.538

>  <logP>
3.094

>  <lumo_energy>
-1.921

>  <melting_point>
149.47

>  <molecular_refractivity>
61.27

>  <oscillator_strength_1>
0.0564

>  <oscillator_strength_2>
0.0608

>  <oscillator_strength_3>
0.0006

>  <oscillator_strength_4>
0.0142

>  <open_babel_can_smiles>
Oc1ccc2c(c1)cc1c(n2)cccc1

>  <mulliken_charges>
24
1   -0.13809
2   -0.138095
3   -0.187142
4   -0.143743
5   -0.192241
6   -0.149095
7   -0.23654
8   -0.244493
9   0.154093
10   0.161395
11   0.354621
12   0.249815
13   0.252429
14   -0.606373
15   -0.641709
16   0.133187
17   0.133684
18   0.132111
19   0.142405
20   0.127159
21   0.149673
22   0.137031
23   0.140026
24   0.409895

>  <lowdin_charges>
24
1   -0.156189
2   -0.155694
3   -0.154691
4   -0.149243
5   -0.19368
6   -0.137489
7   -0.134644
8   -0.197908
9   -0.015948
10   -0.008644
11   0.101215
12   0.04051
13   0.035794
14   -0.155121
15   -0.375462
16   0.15996
17   0.160866
18   0.156586
19   0.166904
20   0.15759
21   0.170708
22   0.158785
23   0.166225
24   0.359571

$$$$

