PCCDB-ID:  70732
public computational chemistry database (PCCDB) project, http://pccdb.org

 18 18  0  0  0  0  0  0  0  0999 V2000
    0.9600    0.0015   -0.1655 C   0  0  0  0  0  0  0  0  0  0  0  0
    5.1887   -2.3901   -0.0314 C   0  0  0  0  0  0  0  0  0  0  0  0
    3.1163    1.3201    0.1089 C   0  0  0  0  0  0  0  0  0  0  0  0
    4.5079    1.3384    0.2112 C   0  0  0  0  0  0  0  0  0  0  0  0
    2.4609    0.0965   -0.0367 C   0  0  0  0  0  0  0  0  0  0  0  0
    4.4716   -1.0668    0.0178 C   0  0  0  0  0  0  0  0  0  0  0  0
    5.1987    0.1327    0.1649 C   0  0  0  0  0  0  0  0  0  0  0  0
    3.1403   -1.0649   -0.0787 N   0  0  0  0  0  0  0  0  0  0  0  0
    6.5620    0.0346    0.2572 O   0  0  0  0  0  0  0  0  0  0  0  0
    0.4776    0.9685    0.0087 H   0  0  0  0  0  0  0  0  0  0  0  0
    0.5587   -0.7242    0.5500 H   0  0  0  0  0  0  0  0  0  0  0  0
    0.6774   -0.3469   -1.1665 H   0  0  0  0  0  0  0  0  0  0  0  0
    5.9128   -2.4192   -0.8546 H   0  0  0  0  0  0  0  0  0  0  0  0
    4.4582   -3.1904   -0.1661 H   0  0  0  0  0  0  0  0  0  0  0  0
    5.7548   -2.5696    0.8908 H   0  0  0  0  0  0  0  0  0  0  0  0
    2.5528    2.2482    0.1427 H   0  0  0  0  0  0  0  0  0  0  0  0
    5.0457    2.2786    0.3256 H   0  0  0  0  0  0  0  0  0  0  0  0
    6.9369    0.9243    0.3520 H   0  0  0  0  0  0  0  0  0  0  0  0
  1  5  1  0  0  0  0
  1 10  1  0  0  0  0
  1 11  1  0  0  0  0
  2  6  1  0  0  0  0
  2 15  1  0  0  0  0
  3 16  1  0  0  0  0
  3  4  2  0  0  0  0
  4 17  1  0  0  0  0
  5  3  1  0  0  0  0
  6  7  2  0  0  0  0
  7  4  1  0  0  0  0
  7  9  1  0  0  0  0
  8  5  2  0  0  0  0
  8  6  1  0  0  0  0
  9 18  1  0  0  0  0
 12  1  1  0  0  0  0
 13  2  1  0  0  0  0
 14  2  1  0  0  0  0
M  END
>  <HBA>
2

>  <HBD>
1

>  <TPSA>
33.12

>  <cid>
70732

>  <dipole>
2.82

>  <excitation_energy_1>
4.85

>  <excitation_energy_2>
4.881

>  <excitation_energy_3>
5.073

>  <excitation_energy_4>
5.529

>  <homo_energy>
-5.938

>  <homo_lumo_gap>
5.573

>  <logP>
1.404

>  <lumo_energy>
-0.365

>  <melting_point>
68.47

>  <molecular_refractivity>
36.19

>  <oscillator_strength_1>
0.1053

>  <oscillator_strength_2>
0.004

>  <oscillator_strength_3>
0.0002

>  <oscillator_strength_4>
0.0001

>  <open_babel_can_smiles>
Cc1ccc(c(n1)C)O

>  <mulliken_charges>
18
1   -0.502299
2   -0.503121
3   -0.180082
4   -0.157181
5   0.296699
6   0.270391
7   0.300639
8   -0.517496
9   -0.641952
10   0.143602
11   0.168157
12   0.166204
13   0.163631
14   0.168384
15   0.16367
16   0.128571
17   0.124988
18   0.407194

>  <lowdin_charges>
18
1   -0.443957
2   -0.444852
3   -0.182322
4   -0.188422
5   0.03877
6   0.031834
7   0.073754
8   -0.158627
9   -0.379382
10   0.151129
11   0.16732
12   0.164018
13   0.164424
14   0.168424
15   0.16418
16   0.160573
17   0.156066
18   0.35707

$$$$

