PCCDB-ID:  37794
public computational chemistry database (PCCDB) project, http://pccdb.org

 29 29  0  0  0  0  0  0  0  0999 V2000
    3.9581    4.8831   -4.3427 C   0  0  0  0  0  0  0  0  0  0  0  0
    4.0713    3.3552   -4.3536 C   0  0  0  0  0  0  0  0  0  0  0  0
    4.6656    2.7937   -3.0546 C   0  0  0  0  0  0  0  0  0  0  0  0
    4.7642    1.2719   -3.0808 C   0  0  0  0  0  0  0  0  0  0  0  0
    8.3451    0.0002   -0.0724 C   0  0  0  0  0  0  0  0  0  0  0  0
    6.0266   -0.2498    0.6175 C   0  0  0  0  0  0  0  0  0  0  0  0
    7.8224   -0.8952    2.1220 C   0  0  0  0  0  0  0  0  0  0  0  0
    6.9782    0.1278   -0.3360 C   0  0  0  0  0  0  0  0  0  0  0  0
    8.7591   -0.5131    1.1593 C   0  0  0  0  0  0  0  0  0  0  0  0
    6.4608   -0.7606    1.8448 C   0  0  0  0  0  0  0  0  0  0  0  0
    6.5877    0.6802   -1.6661 C   0  0  0  0  0  0  0  0  0  0  0  0
   10.0773   -0.6658    1.4822 O   0  0  0  0  0  0  0  0  0  0  0  0
    5.5891   -1.1485    2.8231 O   0  0  0  0  0  0  0  0  0  0  0  0
    7.3822    1.0288   -2.5189 O   0  0  0  0  0  0  0  0  0  0  0  0
    5.2451    0.7466   -1.8219 O   0  0  0  0  0  0  0  0  0  0  0  0
    3.5367    5.2571   -5.2824 H   0  0  0  0  0  0  0  0  0  0  0  0
    4.9407    5.3507   -4.2070 H   0  0  0  0  0  0  0  0  0  0  0  0
    3.3117    5.2267   -3.5260 H   0  0  0  0  0  0  0  0  0  0  0  0
    4.6928    3.0408   -5.2035 H   0  0  0  0  0  0  0  0  0  0  0  0
    3.0777    2.9158   -4.5222 H   0  0  0  0  0  0  0  0  0  0  0  0
    4.0485    3.0965   -2.1981 H   0  0  0  0  0  0  0  0  0  0  0  0
    5.6681    3.2084   -2.8949 H   0  0  0  0  0  0  0  0  0  0  0  0
    5.4286    0.9341   -3.8804 H   0  0  0  0  0  0  0  0  0  0  0  0
    3.7799    0.8124   -3.2089 H   0  0  0  0  0  0  0  0  0  0  0  0
    9.0590    0.3026   -0.8329 H   0  0  0  0  0  0  0  0  0  0  0  0
    4.9686   -0.1463    0.4002 H   0  0  0  0  0  0  0  0  0  0  0  0
    8.1495   -1.2933    3.0759 H   0  0  0  0  0  0  0  0  0  0  0  0
   10.6187   -0.3636    0.7363 H   0  0  0  0  0  0  0  0  0  0  0  0
    4.6827   -1.0069    2.5088 H   0  0  0  0  0  0  0  0  0  0  0  0
  1 17  1  0  0  0  0
  1 18  1  0  0  0  0
  2  1  1  0  0  0  0
  2  3  1  0  0  0  0
  3 22  1  0  0  0  0
  3 21  1  0  0  0  0
  4  3  1  0  0  0  0
  4 15  1  0  0  0  0
  5  9  1  0  0  0  0
  6 10  2  0  0  0  0
  7 27  1  0  0  0  0
  8  5  2  0  0  0  0
  8  6  1  0  0  0  0
  9 12  1  0  0  0  0
  9  7  2  0  0  0  0
 10  7  1  0  0  0  0
 10 13  1  0  0  0  0
 11  8  1  0  0  0  0
 14 11  2  0  0  0  0
 15 11  1  0  0  0  0
 16  1  1  0  0  0  0
 19  2  1  0  0  0  0
 20  2  1  0  0  0  0
 23  4  1  0  0  0  0
 24  4  1  0  0  0  0
 25  5  1  0  0  0  0
 26  6  1  0  0  0  0
 28 12  1  0  0  0  0
 29 13  1  0  0  0  0
M  END
>  <HBA>
4

>  <HBD>
2

>  <TPSA>
66.76

>  <cid>
37794

>  <dipole>
2.4

>  <excitation_energy_1>
4.212

>  <excitation_energy_2>
4.876

>  <excitation_energy_3>
4.894

>  <excitation_energy_4>
5.247

>  <homo_energy>
-6.055

>  <homo_lumo_gap>
4.879

>  <logP>
2.055

>  <lumo_energy>
-1.176

>  <melting_point>
109.22

>  <molecular_refractivity>
56.19

>  <oscillator_strength_1>
0.0432

>  <oscillator_strength_2>
0.1195

>  <oscillator_strength_3>
0.0535

>  <oscillator_strength_4>
0.0001

>  <open_babel_can_smiles>
CCCCOC(=O)c1cc(O)cc(c1)O

>  <mulliken_charges>
29
1   -0.441192
2   -0.258915
3   -0.272149
4   -0.043179
5   -0.23928
6   -0.243834
7   -0.191357
8   0.041411
9   0.35765
10   0.360009
11   0.603109
12   -0.644327
13   -0.644486
14   -0.496274
15   -0.486821
16   0.145467
17   0.14817
18   0.143913
19   0.141161
20   0.132096
21   0.140345
22   0.161262
23   0.168934
24   0.147602
25   0.149935
26   0.142084
27   0.155507
28   0.412426
29   0.410731

>  <lowdin_charges>
29
1   -0.443231
2   -0.271976
3   -0.28686
4   -0.131945
5   -0.214294
6   -0.219896
7   -0.200582
8   -0.025551
9   0.113472
10   0.110509
11   0.203717
12   -0.375724
13   -0.372931
14   -0.276014
15   -0.193151
16   0.151651
17   0.149637
18   0.148591
19   0.144604
20   0.138886
21   0.146067
22   0.155551
23   0.159609
24   0.149637
25   0.173913
26   0.165982
27   0.179601
28   0.361778
29   0.358949

$$$$

