PCCDB-ID:  40225
public computational chemistry database (PCCDB) project, http://pccdb.org

 22 23  0  0  0  0  0  0  0  0999 V2000
    2.5754   -0.3649    0.1781 C   0  0  0  0  0  0  0  0  0  0  0  0
    2.3402    1.0192   -0.0035 C   0  0  0  0  0  0  0  0  0  0  0  0
    1.5272   -1.2668    0.2333 C   0  0  0  0  0  0  0  0  0  0  0  0
    1.0572    1.5278   -0.1325 C   0  0  0  0  0  0  0  0  0  0  0  0
   -1.0775   -1.4037    0.1095 C   0  0  0  0  0  0  0  0  0  0  0  0
   -4.2207   -1.7443   -0.0199 C   0  0  0  0  0  0  0  0  0  0  0  0
    0.2074   -0.7862    0.1044 C   0  0  0  0  0  0  0  0  0  0  0  0
   -0.0067    0.6151   -0.0773 C   0  0  0  0  0  0  0  0  0  0  0  0
   -2.0152   -0.3995   -0.0633 C   0  0  0  0  0  0  0  0  0  0  0  0
   -3.4684   -0.4217   -0.1423 C   0  0  0  0  0  0  0  0  0  0  0  0
   -1.3579    0.8149   -0.1725 N   0  0  0  0  0  0  0  0  0  0  0  0
   -5.6017   -1.5382   -0.1269 O   0  0  0  0  0  0  0  0  0  0  0  0
   -4.1123    0.6162   -0.3075 O   0  0  0  0  0  0  0  0  0  0  0  0
    3.5975   -0.7187    0.2763 H   0  0  0  0  0  0  0  0  0  0  0  0
    3.1869    1.6988   -0.0426 H   0  0  0  0  0  0  0  0  0  0  0  0
    1.7132   -2.3281    0.3739 H   0  0  0  0  0  0  0  0  0  0  0  0
    0.8822    2.5909   -0.2713 H   0  0  0  0  0  0  0  0  0  0  0  0
   -1.2889   -2.4582    0.2250 H   0  0  0  0  0  0  0  0  0  0  0  0
   -3.9638   -2.2076    0.9468 H   0  0  0  0  0  0  0  0  0  0  0  0
   -3.8615   -2.4295   -0.8050 H   0  0  0  0  0  0  0  0  0  0  0  0
   -1.8508    1.6847   -0.3164 H   0  0  0  0  0  0  0  0  0  0  0  0
   -5.7028   -0.5732   -0.2512 H   0  0  0  0  0  0  0  0  0  0  0  0
  1  3  1  0  0  0  0
  1 14  1  0  0  0  0
  2  1  2  0  0  0  0
  3 16  1  0  0  0  0
  4  8  2  0  0  0  0
  4  2  1  0  0  0  0
  5 18  1  0  0  0  0
  6 19  1  0  0  0  0
  7  5  1  0  0  0  0
  7  3  2  0  0  0  0
  8  7  1  0  0  0  0
  9  5  2  0  0  0  0
 10  9  1  0  0  0  0
 10  6  1  0  0  0  0
 11  8  1  0  0  0  0
 11  9  1  0  0  0  0
 12  6  1  0  0  0  0
 13 10  2  0  0  0  0
 15  2  1  0  0  0  0
 17  4  1  0  0  0  0
 20  6  1  0  0  0  0
 21 11  1  0  0  0  0
 22 12  1  0  0  0  0
M  END
>  <HBA>
2

>  <HBD>
2

>  <TPSA>
53.09

>  <cid>
40225

>  <dipole>
3.39

>  <excitation_energy_1>
3.677

>  <excitation_energy_2>
4.118

>  <excitation_energy_3>
4.232

>  <excitation_energy_4>
4.744

>  <homo_energy>
-6.079

>  <homo_lumo_gap>
4.172

>  <logP>
1.343

>  <lumo_energy>
-1.908

>  <melting_point>
149.44

>  <molecular_refractivity>
49.66

>  <oscillator_strength_1>
0.0488

>  <oscillator_strength_2>
0.4409

>  <oscillator_strength_3>
0.0001

>  <oscillator_strength_4>
0.0243

>  <open_babel_can_smiles>
OCC(=O)c1cc2c([nH]1)cccc2

>  <mulliken_charges>
22
1   -0.13913
2   -0.144363
3   -0.195269
4   -0.166128
5   -0.25694
6   -0.063137
7   0.093297
8   0.362438
9   0.298558
10   0.343667
11   -0.745421
12   -0.628754
13   -0.510676
14   0.130979
15   0.134352
16   0.135352
17   0.135358
18   0.14871
19   0.155425
20   0.155357
21   0.345355
22   0.410971

>  <lowdin_charges>
22
1   -0.170296
2   -0.149498
3   -0.148627
4   -0.181788
5   -0.18891
6   -0.159213
7   -0.029331
8   0.047811
9   -0.014133
10   0.138539
11   -0.179145
12   -0.460685
13   -0.275046
14   0.158932
15   0.16199
16   0.159999
17   0.160793
18   0.170361
19   0.153249
20   0.154469
21   0.303799
22   0.34673

$$$$

