PCCDB-ID:  41281
public computational chemistry database (PCCDB) project, http://pccdb.org

 19 19  0  0  0  0  0  0  0  0999 V2000
   -1.1630   -0.0209    0.3131 C   0  0  0  0  0  0  0  0  0  0  0  0
   -0.8059   -1.3389    0.0223 C   0  0  0  0  0  0  0  0  0  0  0  0
    2.0384    2.8371    1.0906 C   0  0  0  0  0  0  0  0  0  0  0  0
   -0.1869    0.9685    0.3899 C   0  0  0  0  0  0  0  0  0  0  0  0
    2.1598    1.7804    0.2628 C   0  0  0  0  0  0  0  0  0  0  0  0
    0.5325   -1.6551   -0.1856 C   0  0  0  0  0  0  0  0  0  0  0  0
    2.9621    3.9236    1.0850 C   0  0  0  0  0  0  0  0  0  0  0  0
    1.1791    0.6840    0.2067 C   0  0  0  0  0  0  0  0  0  0  0  0
    1.5030   -0.6590   -0.0860 C   0  0  0  0  0  0  0  0  0  0  0  0
    3.6967    4.8268    1.0963 N   0  0  0  0  0  0  0  0  0  0  0  0
    2.9016   -1.0922   -0.2626 N   0  0  0  0  0  0  0  0  0  0  0  0
    3.0961   -2.1739   -0.8141 O   0  0  0  0  0  0  0  0  0  0  0  0
    3.7949   -0.3580    0.1628 O   0  0  0  0  0  0  0  0  0  0  0  0
   -2.2058    0.2423    0.4641 H   0  0  0  0  0  0  0  0  0  0  0  0
   -1.5620   -2.1146   -0.0463 H   0  0  0  0  0  0  0  0  0  0  0  0
    1.2387    2.8975    1.8247 H   0  0  0  0  0  0  0  0  0  0  0  0
   -0.4818    1.9985    0.5616 H   0  0  0  0  0  0  0  0  0  0  0  0
    3.0134    1.7321   -0.4024 H   0  0  0  0  0  0  0  0  0  0  0  0
    0.8479   -2.6651   -0.4152 H   0  0  0  0  0  0  0  0  0  0  0  0
  1  4  1  0  0  0  0
  1 14  1  0  0  0  0
  2  1  2  0  0  0  0
  3 16  1  0  0  0  0
  4 17  1  0  0  0  0
  5  3  2  0  0  0  0
  6  9  2  0  0  0  0
  6  2  1  0  0  0  0
  7  3  1  0  0  0  0
  7 10  3  0  0  0  0
  8  5  1  0  0  0  0
  8  4  2  0  0  0  0
  9  8  1  0  0  0  0
 11  9  1  0  0  0  0
 11 13  2  0  0  0  0
 12 11  2  0  0  0  0
 15  2  1  0  0  0  0
 18  5  1  0  0  0  0
 19  6  1  0  0  0  0
M  END
>  <HBA>
1

>  <HBD>
0

>  <TPSA>
69.61

>  <cid>
41281

>  <dipole>
7.11

>  <excitation_energy_1>
3.596

>  <excitation_energy_2>
3.711

>  <excitation_energy_3>
4.189

>  <excitation_energy_4>
4.515

>  <homo_energy>
-7.263

>  <homo_lumo_gap>
4.34

>  <logP>
2.655

>  <lumo_energy>
-2.923

>  <melting_point>
99.87

>  <molecular_refractivity>
49.91

>  <oscillator_strength_1>
0.0462

>  <oscillator_strength_2>
0.0659

>  <oscillator_strength_3>
0.0021

>  <oscillator_strength_4>
0.1044

>  <open_babel_can_smiles>
N#C/C=C/c1ccccc1N(=O)=O

>  <mulliken_charges>
19
1   -0.107529
2   -0.136231
3   -0.154703
4   -0.1928
5   -0.107029
6   -0.143818
7   0.319689
8   0.136372
9   0.211363
10   -0.468896
11   0.365717
12   -0.379223
13   -0.38849
14   0.157282
15   0.158984
16   0.184375
17   0.157294
18   0.195002
19   0.192641

>  <lowdin_charges>
19
1   -0.1271
2   -0.142578
3   -0.17192
4   -0.144708
5   -0.097815
6   -0.131587
7   -0.011563
8   0.010176
9   0.006252
10   -0.108558
11   0.307677
12   -0.23702
13   -0.234614
14   0.170844
15   0.173859
16   0.184939
17   0.171326
18   0.191012
19   0.191378

$$$$

