PCCDB-ID:  10742
public computational chemistry database (PCCDB) project, http://pccdb.org

 24 24  0  0  0  0  0  0  0  0999 V2000
    1.1011   -0.1266   -0.9664 C   0  0  0  0  0  0  0  0  0  0  0  0
    5.3814   -0.0301    4.0156 C   0  0  0  0  0  0  0  0  0  0  0  0
    2.5029   -2.1756    0.4567 C   0  0  0  0  0  0  0  0  0  0  0  0
    4.2861   -2.6743    2.0209 C   0  0  0  0  0  0  0  0  0  0  0  0
    3.2637   -3.1133    1.1747 C   0  0  0  0  0  0  0  0  0  0  0  0
    2.7712   -0.8240    0.6056 C   0  0  0  0  0  0  0  0  0  0  0  0
    4.5658   -1.3123    2.1695 C   0  0  0  0  0  0  0  0  0  0  0  0
    3.8093   -0.3763    1.4515 C   0  0  0  0  0  0  0  0  0  0  0  0
    2.9286   -4.5549    0.9641 C   0  0  0  0  0  0  0  0  0  0  0  0
    4.0767    0.9532    1.5457 O   0  0  0  0  0  0  0  0  0  0  0  0
    2.2511   -4.9529    0.0435 O   0  0  0  0  0  0  0  0  0  0  0  0
    3.4182   -5.4443    1.8713 O   0  0  0  0  0  0  0  0  0  0  0  0
    2.1173    0.2038   -0.0256 O   0  0  0  0  0  0  0  0  0  0  0  0
    5.6304   -0.9597    2.9544 O   0  0  0  0  0  0  0  0  0  0  0  0
    0.7362    0.8232   -1.3601 H   0  0  0  0  0  0  0  0  0  0  0  0
    0.2769   -0.6649   -0.4833 H   0  0  0  0  0  0  0  0  0  0  0  0
    1.5046   -0.7351   -1.7844 H   0  0  0  0  0  0  0  0  0  0  0  0
    6.3032    0.0018    4.6001 H   0  0  0  0  0  0  0  0  0  0  0  0
    4.5592   -0.3799    4.6535 H   0  0  0  0  0  0  0  0  0  0  0  0
    5.1495    0.9669    3.6331 H   0  0  0  0  0  0  0  0  0  0  0  0
    1.7247   -2.5420   -0.2007 H   0  0  0  0  0  0  0  0  0  0  0  0
    4.9376   -3.3584    2.5577 H   0  0  0  0  0  0  0  0  0  0  0  0
    3.4455    1.4051    0.9562 H   0  0  0  0  0  0  0  0  0  0  0  0
    3.8108   -4.9716    2.6226 H   0  0  0  0  0  0  0  0  0  0  0  0
  1 16  1  0  0  0  0
  1 13  1  0  0  0  0
  2 18  1  0  0  0  0
  2 19  1  0  0  0  0
  3  6  2  0  0  0  0
  3  5  1  0  0  0  0
  4  7  1  0  0  0  0
  4 22  1  0  0  0  0
  5  4  2  0  0  0  0
  6  8  1  0  0  0  0
  7 14  1  0  0  0  0
  8 10  1  0  0  0  0
  8  7  2  0  0  0  0
  9  5  1  0  0  0  0
  9 12  1  0  0  0  0
 11  9  2  0  0  0  0
 12 24  1  0  0  0  0
 13  6  1  0  0  0  0
 14  2  1  0  0  0  0
 15  1  1  0  0  0  0
 17  1  1  0  0  0  0
 20  2  1  0  0  0  0
 21  3  1  0  0  0  0
 23 10  1  0  0  0  0
M  END
>  <HBA>
5

>  <HBD>
2

>  <TPSA>
75.99

>  <cid>
10742

>  <dipole>
4.85

>  <excitation_energy_1>
4.524

>  <excitation_energy_2>
4.639

>  <excitation_energy_3>
4.902

>  <excitation_energy_4>
5.326

>  <homo_energy>
-6.114

>  <homo_lumo_gap>
5.034

>  <logP>
1.108

>  <lumo_energy>
-1.08

>  <melting_point>
147.84

>  <molecular_refractivity>
48.41

>  <oscillator_strength_1>
0.0194

>  <oscillator_strength_2>
0.1488

>  <oscillator_strength_3>
0.0212

>  <oscillator_strength_4>
0.004

>  <open_babel_can_smiles>
COc1cc(cc(c1O)OC)C(=O)O

>  <mulliken_charges>
24
1   -0.218865
2   -0.219905
3   -0.239267
4   -0.268281
5   0.053133
6   0.358419
7   0.333098
8   0.266728
9   0.553307
10   -0.647199
11   -0.459747
12   -0.58037
13   -0.557981
14   -0.522125
15   0.174604
16   0.166602
17   0.170425
18   0.163763
19   0.141759
20   0.179524
21   0.171122
22   0.135074
23   0.43253
24   0.41365

>  <lowdin_charges>
24
1   -0.275843
2   -0.276661
3   -0.18896
4   -0.194844
5   -0.06367
6   0.062783
7   0.072872
8   0.067007
9   0.193904
10   -0.366962
11   -0.252122
12   -0.357963
13   -0.217475
14   -0.216698
15   0.16619
16   0.154843
17   0.156885
18   0.159293
19   0.142042
20   0.157329
21   0.185312
22   0.166065
23   0.368664
24   0.358009

$$$$

