PCCDB-ID:  7044
public computational chemistry database (PCCDB) project, http://pccdb.org

 28 29  0  0  1  0  0  0  0  0999 V2000
   -2.5504    0.7267    0.2491 C   0  0  0  0  0  0  0  0  0  0  0  0
   -2.5504   -0.7266   -0.2489 C   0  0  0  0  0  0  0  0  0  0  0  0
    2.5506    0.7266    0.2488 C   0  0  0  0  0  0  0  0  0  0  0  0
    2.5506   -0.7266   -0.2491 C   0  0  0  0  0  0  0  0  0  0  0  0
   -1.2770    1.4668   -0.1862 C   0  0  0  0  0  0  0  0  0  0  0  0
   -1.2770   -1.4667    0.1863 C   0  0  0  0  0  0  0  0  0  0  0  0
    1.2772    1.4667   -0.1864 C   0  0  0  0  0  0  0  0  0  0  0  0
    1.2772   -1.4667    0.1862 C   0  0  0  0  0  0  0  0  0  0  0  0
    0.0001    0.7309    0.2534 C   0  0  2  0  0  0  0  0  0  0  0  0
    0.0001   -0.7309   -0.2534 C   0  0  2  0  0  0  0  0  0  0  0  0
   -2.6139    0.7320    1.3475 H   0  0  0  0  0  0  0  0  0  0  0  0
   -3.4405    1.2550   -0.1163 H   0  0  0  0  0  0  0  0  0  0  0  0
   -2.6140   -0.7319   -1.3472 H   0  0  0  0  0  0  0  0  0  0  0  0
   -3.4405   -1.2549    0.1166 H   0  0  0  0  0  0  0  0  0  0  0  0
    3.4407    1.2549   -0.1167 H   0  0  0  0  0  0  0  0  0  0  0  0
    2.6143    0.7319    1.3472 H   0  0  0  0  0  0  0  0  0  0  0  0
    3.4407   -1.2550    0.1163 H   0  0  0  0  0  0  0  0  0  0  0  0
    2.6141   -0.7320   -1.3475 H   0  0  0  0  0  0  0  0  0  0  0  0
   -1.2745    2.4890    0.2163 H   0  0  0  0  0  0  0  0  0  0  0  0
   -1.2722    1.5667   -1.2828 H   0  0  0  0  0  0  0  0  0  0  0  0
   -1.2746   -2.4889   -0.2162 H   0  0  0  0  0  0  0  0  0  0  0  0
   -1.2721   -1.5666    1.2829 H   0  0  0  0  0  0  0  0  0  0  0  0
    1.2723    1.5666   -1.2829 H   0  0  0  0  0  0  0  0  0  0  0  0
    1.2748    2.4890    0.2162 H   0  0  0  0  0  0  0  0  0  0  0  0
    1.2724   -1.5666    1.2828 H   0  0  0  0  0  0  0  0  0  0  0  0
    1.2747   -2.4890   -0.2164 H   0  0  0  0  0  0  0  0  0  0  0  0
    0.0002    0.6909    1.3569 H   0  0  0  0  0  0  0  0  0  0  0  0
    0.0000   -0.6909   -1.3569 H   0  0  0  0  0  0  0  0  0  0  0  0
  1 11  1  0  0  0  0
  2 14  1  0  0  0  0
  2  6  1  0  0  0  0
  2  1  1  0  0  0  0
  3 16  1  0  0  0  0
  4 17  1  0  0  0  0
  4  8  1  0  0  0  0
  4  3  1  0  0  0  0
  5 19  1  0  0  0  0
  5  1  1  0  0  0  0
  5  9  1  0  0  0  0
  6 22  1  0  0  0  0
  7 24  1  0  0  0  0
  7  3  1  0  0  0  0
  7  9  1  0  0  0  0
  8 25  1  0  0  0  0
  9 27  1  1  0  0  0
 10 28  1  6  0  0  0
 10  8  1  0  0  0  0
 10  6  1  0  0  0  0
 10  9  1  0  0  0  0
 12  1  1  0  0  0  0
 13  2  1  0  0  0  0
 15  3  1  0  0  0  0
 18  4  1  0  0  0  0
 20  5  1  0  0  0  0
 21  6  1  0  0  0  0
 23  7  1  0  0  0  0
 26  8  1  0  0  0  0
M  END
>  <HBA>
0

>  <HBD>
0

>  <TPSA>
0.0

>  <cid>
7044

>  <dipole>
0.0

>  <excitation_energy_1>
7.025

>  <excitation_energy_2>
7.146

>  <excitation_energy_3>
7.217

>  <excitation_energy_4>
7.245

>  <homo_energy>
-7.431

>  <homo_lumo_gap>
9.894

>  <logP>
3.367

>  <lumo_energy>
2.463

>  <melting_point>
15.94

>  <molecular_refractivity>
45.96

>  <oscillator_strength_1>
0.0

>  <oscillator_strength_2>
0.0

>  <oscillator_strength_3>
0.0022

>  <oscillator_strength_4>
0.0001

>  <open_babel_can_smiles>
C1CC[C@@H]2[C@@H](C1)CCCC2

>  <mulliken_charges>
28
1   -0.258636
2   -0.258701
3   -0.258655
4   -0.258703
5   -0.261129
6   -0.261115
7   -0.261124
8   -0.261112
9   -0.073946
10   -0.073952
11   0.126311
12   0.12794
13   0.126314
14   0.127945
15   0.127943
16   0.126313
17   0.127946
18   0.126315
19   0.125372
20   0.123131
21   0.125372
22   0.123131
23   0.123131
24   0.125373
25   0.12313
26   0.125372
27   0.108018
28   0.108018

>  <lowdin_charges>
28
1   -0.276068
2   -0.276076
3   -0.27607
4   -0.276076
5   -0.274075
6   -0.274074
7   -0.274075
8   -0.274074
9   -0.129287
10   -0.129288
11   0.134563
12   0.142875
13   0.134563
14   0.142876
15   0.142876
16   0.134563
17   0.142876
18   0.134563
19   0.139909
20   0.133774
21   0.139909
22   0.133774
23   0.133774
24   0.139909
25   0.133774
26   0.139909
27   0.127338
28   0.127338

$$$$

