PCCDB-ID:  21828
public computational chemistry database (PCCDB) project, http://pccdb.org

 14 14  0  0  0  0  0  0  0  0999 V2000
    0.8900    0.1133    0.4314 C   0  0  0  0  0  0  0  0  0  0  0  0
    3.0869   -1.4078   -2.1082 C   0  0  0  0  0  0  0  0  0  0  0  0
    3.7055   -0.0344   -2.3403 C   0  0  0  0  0  0  0  0  0  0  0  0
    2.3817    0.0488    0.1045 C   0  0  0  0  0  0  0  0  0  0  0  0
    2.9778   -1.6587   -0.2951 S   0  0  0  0  0  0  0  0  0  0  0  0
    2.7853    1.1809   -1.3170 S   0  0  0  0  0  0  0  0  0  0  0  0
    0.6681   -0.4974    1.3137 H   0  0  0  0  0  0  0  0  0  0  0  0
    0.2890   -0.2507   -0.4066 H   0  0  0  0  0  0  0  0  0  0  0  0
    0.5899    1.1460    0.6476 H   0  0  0  0  0  0  0  0  0  0  0  0
    3.7199   -2.2079   -2.5062 H   0  0  0  0  0  0  0  0  0  0  0  0
    2.0966   -1.4779   -2.5676 H   0  0  0  0  0  0  0  0  0  0  0  0
    3.6033    0.2807   -3.3845 H   0  0  0  0  0  0  0  0  0  0  0  0
    4.7648   -0.0333   -2.0693 H   0  0  0  0  0  0  0  0  0  0  0  0
    2.9689    0.3692    0.9690 H   0  0  0  0  0  0  0  0  0  0  0  0
  1  9  1  0  0  0  0
  1  7  1  0  0  0  0
  2  5  1  0  0  0  0
  3  2  1  0  0  0  0
  3 13  1  0  0  0  0
  3  6  1  0  0  0  0
  4  1  1  0  0  0  0
  4 14  1  0  0  0  0
  5  4  1  0  0  0  0
  6  4  1  0  0  0  0
  8  1  1  0  0  0  0
 10  2  1  0  0  0  0
 11  2  1  0  0  0  0
 12  3  1  0  0  0  0
M  END
>  <HBA>
2

>  <HBD>
0

>  <TPSA>
50.6

>  <cid>
21828

>  <dipole>
1.01

>  <excitation_energy_1>
4.707

>  <excitation_energy_2>
4.844

>  <excitation_energy_3>
5.564

>  <excitation_energy_4>
5.703

>  <homo_energy>
-6.139

>  <homo_lumo_gap>
6.12

>  <logP>
1.812

>  <lumo_energy>
-0.019

>  <melting_point>
15.28

>  <molecular_refractivity>
34.41

>  <oscillator_strength_1>
0.0012

>  <oscillator_strength_2>
0.002

>  <oscillator_strength_3>
0.0304

>  <oscillator_strength_4>
0.008

>  <open_babel_can_smiles>
CC1SCCS1

>  <mulliken_charges>
14
1   -0.42235
2   -0.413981
3   -0.41143
4   -0.401217
5   0.11033
6   0.103298
7   0.15969
8   0.1678
9   0.159379
10   0.184318
11   0.18835
12   0.183271
13   0.190523
14   0.20202

>  <lowdin_charges>
14
1   -0.446384
2   -0.376268
3   -0.371855
4   -0.319636
5   0.099915
6   0.088192
7   0.158591
8   0.162966
9   0.157086
10   0.174758
11   0.163625
12   0.171363
13   0.164044
14   0.173602

$$$$

