PCCDB-ID:  41520
public computational chemistry database (PCCDB) project, http://pccdb.org

 21 21  0  0  1  0  0  0  0  0999 V2000
    0.9013    0.0645    0.4206 C   0  0  0  0  0  0  0  0  0  0  0  0
    3.0789   -2.1212    1.0987 C   0  0  0  0  0  0  0  0  0  0  0  0
    5.3292   -1.2758   -1.5739 C   0  0  0  0  0  0  0  0  0  0  0  0
    3.0810    1.2237   -0.1728 C   0  0  0  0  0  0  0  0  0  0  0  0
    2.3547    0.1152    0.0663 C   0  0  0  0  0  0  0  0  0  0  0  0
    3.1798   -1.1573   -0.0947 C   0  0  1  0  0  0  0  0  0  0  0  0
    4.6168   -0.6488   -0.3724 C   0  0  2  0  0  0  0  0  0  0  0  0
    4.4710    0.8785   -0.5169 C   0  0  0  0  0  0  0  0  0  0  0  0
    5.3599    1.6385   -0.8610 O   0  0  0  0  0  0  0  0  0  0  0  0
    0.4461    1.0590    0.4108 H   0  0  0  0  0  0  0  0  0  0  0  0
    0.7546   -0.3687    1.4186 H   0  0  0  0  0  0  0  0  0  0  0  0
    0.3503   -0.5765   -0.2810 H   0  0  0  0  0  0  0  0  0  0  0  0
    2.0561   -2.4868    1.2437 H   0  0  0  0  0  0  0  0  0  0  0  0
    3.3995   -1.6328    2.0268 H   0  0  0  0  0  0  0  0  0  0  0  0
    3.7220   -2.9938    0.9388 H   0  0  0  0  0  0  0  0  0  0  0  0
    5.5168   -2.3439   -1.4153 H   0  0  0  0  0  0  0  0  0  0  0  0
    6.2871   -0.7739   -1.7415 H   0  0  0  0  0  0  0  0  0  0  0  0
    4.7304   -1.1685   -2.4863 H   0  0  0  0  0  0  0  0  0  0  0  0
    2.7183    2.2465   -0.1551 H   0  0  0  0  0  0  0  0  0  0  0  0
    2.8019   -1.6885   -0.9834 H   0  0  0  0  0  0  0  0  0  0  0  0
    5.2349   -0.8129    0.5230 H   0  0  0  0  0  0  0  0  0  0  0  0
  1 11  1  0  0  0  0
  2 13  1  0  0  0  0
  2 14  1  0  0  0  0
  3 16  1  0  0  0  0
  3  7  1  0  0  0  0
  4 19  1  0  0  0  0
  4  5  2  0  0  0  0
  5  1  1  0  0  0  0
  6 20  1  6  0  0  0
  6  5  1  0  0  0  0
  6  2  1  0  0  0  0
  7  6  1  0  0  0  0
  7 21  1  1  0  0  0
  8  7  1  0  0  0  0
  8  4  1  0  0  0  0
  9  8  2  0  0  0  0
 10  1  1  0  0  0  0
 12  1  1  0  0  0  0
 15  2  1  0  0  0  0
 17  3  1  0  0  0  0
 18  3  1  0  0  0  0
M  END
>  <HBA>
1

>  <HBD>
0

>  <TPSA>
17.07

>  <cid>
41520

>  <dipole>
4.11

>  <excitation_energy_1>
3.744

>  <excitation_energy_2>
5.768

>  <excitation_energy_3>
5.878

>  <excitation_energy_4>
6.172

>  <homo_energy>
-6.245

>  <homo_lumo_gap>
5.2

>  <logP>
1.788

>  <lumo_energy>
-1.045

>  <melting_point>
29.29

>  <molecular_refractivity>
38.18

>  <oscillator_strength_1>
0.0004

>  <oscillator_strength_2>
0.3397

>  <oscillator_strength_3>
0.0057

>  <oscillator_strength_4>
0.0032

>  <open_babel_can_smiles>
CC1=CC(=O)[C@@H]([C@H]1C)C

>  <mulliken_charges>
21
1   -0.527025
2   -0.458431
3   -0.451355
4   -0.205124
5   0.172255
6   -0.152152
7   -0.176558
8   0.422011
9   -0.487591
10   0.168016
11   0.172668
12   0.166318
13   0.147043
14   0.151613
15   0.154967
16   0.141405
17   0.173307
18   0.145605
19   0.137868
20   0.146002
21   0.159159

>  <lowdin_charges>
21
1   -0.444092
2   -0.44434
3   -0.436949
4   -0.217547
5   0.039791
6   -0.129042
7   -0.156069
8   0.144824
9   -0.254654
10   0.164654
11   0.167951
12   0.166631
13   0.149794
14   0.151596
15   0.156425
16   0.147187
17   0.165806
18   0.149379
19   0.164924
20   0.151711
21   0.162021

$$$$

