PCCDB-ID:  67104
public computational chemistry database (PCCDB) project, http://pccdb.org

 21 20  0  0  0  0  0  0  0  0999 V2000
    1.6553   -0.6994   -0.0321 C   0  0  0  0  0  0  0  0  0  0  0  0
    5.2592    2.2682    4.5275 C   0  0  0  0  0  0  0  0  0  0  0  0
    3.0457   -0.0916   -0.2015 C   0  0  0  0  0  0  0  0  0  0  0  0
    5.0923    2.1143    2.0998 C   0  0  0  0  0  0  0  0  0  0  0  0
    4.8172    1.1568    0.9389 C   0  0  0  0  0  0  0  0  0  0  0  0
    4.8014    1.4816    3.3864 N   0  0  0  0  0  0  0  0  0  0  0  0
    3.4574    0.6187    1.0101 N   0  0  0  0  0  0  0  0  0  0  0  0
    1.3314   -1.1974   -0.9526 H   0  0  0  0  0  0  0  0  0  0  0  0
    0.9252    0.0760    0.2224 H   0  0  0  0  0  0  0  0  0  0  0  0
    1.6465   -1.4488    0.7699 H   0  0  0  0  0  0  0  0  0  0  0  0
    4.9407    1.7839    5.4568 H   0  0  0  0  0  0  0  0  0  0  0  0
    4.8908    3.3114    4.5397 H   0  0  0  0  0  0  0  0  0  0  0  0
    6.3550    2.3047    4.5290 H   0  0  0  0  0  0  0  0  0  0  0  0
    3.0328    0.6347   -1.0251 H   0  0  0  0  0  0  0  0  0  0  0  0
    3.7633   -0.8825   -0.4962 H   0  0  0  0  0  0  0  0  0  0  0  0
    4.5180    3.0477    1.9499 H   0  0  0  0  0  0  0  0  0  0  0  0
    6.1559    2.3865    2.0872 H   0  0  0  0  0  0  0  0  0  0  0  0
    5.5854    0.3619    0.9282 H   0  0  0  0  0  0  0  0  0  0  0  0
    4.9159    1.7114   -0.0032 H   0  0  0  0  0  0  0  0  0  0  0  0
    3.7899    1.3783    3.4534 H   0  0  0  0  0  0  0  0  0  0  0  0
    3.4324   -0.0440    1.7854 H   0  0  0  0  0  0  0  0  0  0  0  0
  1  9  1  0  0  0  0
  1 10  1  0  0  0  0
  2 13  1  0  0  0  0
  2 12  1  0  0  0  0
  2 11  1  0  0  0  0
  3  1  1  0  0  0  0
  3  7  1  0  0  0  0
  4  6  1  0  0  0  0
  5  7  1  0  0  0  0
  5  4  1  0  0  0  0
  6 20  1  0  0  0  0
  6  2  1  0  0  0  0
  7 21  1  0  0  0  0
  8  1  1  0  0  0  0
 14  3  1  0  0  0  0
 15  3  1  0  0  0  0
 16  4  1  0  0  0  0
 17  4  1  0  0  0  0
 18  5  1  0  0  0  0
 19  5  1  0  0  0  0
M  END
>  <HBA>
2

>  <HBD>
2

>  <TPSA>
24.06

>  <cid>
67104

>  <dipole>
0.1

>  <excitation_energy_1>
5.426

>  <excitation_energy_2>
5.708

>  <excitation_energy_3>
5.802

>  <excitation_energy_4>
5.962

>  <homo_energy>
-5.75

>  <homo_lumo_gap>
8.082

>  <logP>
0.597

>  <lumo_energy>
2.332

>  <melting_point>
28.46

>  <molecular_refractivity>
31.75

>  <oscillator_strength_1>
0.0011

>  <oscillator_strength_2>
0.0191

>  <oscillator_strength_3>
0.0132

>  <oscillator_strength_4>
0.0787

>  <open_babel_can_smiles>
CNCCNCC

>  <mulliken_charges>
21
1   -0.451577
2   -0.297342
3   -0.104244
4   -0.118962
5   -0.11702
6   -0.553564
7   -0.563931
8   0.143773
9   0.157389
10   0.138611
11   0.146151
12   0.120401
13   0.150313
14   0.138721
15   0.111186
16   0.118465
17   0.131806
18   0.120292
19   0.132028
20   0.300957
21   0.296547

>  <lowdin_charges>
21
1   -0.450203
2   -0.355969
3   -0.19873
4   -0.204111
5   -0.206575
6   -0.367696
7   -0.372256
8   0.152803
9   0.156045
10   0.145415
11   0.149427
12   0.119997
13   0.14493
14   0.140568
15   0.116884
16   0.121143
17   0.140246
18   0.123352
19   0.142223
20   0.250779
21   0.251729

$$$$

