PCCDB-ID:  66013
public computational chemistry database (PCCDB) project, http://pccdb.org

 17 17  0  0  1  0  0  0  0  0999 V2000
   -1.4015   -0.3844    0.1908 C   0  0  0  0  0  0  0  0  0  0  0  0
   -0.5058   -1.3504   -0.0338 C   0  0  0  0  0  0  0  0  0  0  0  0
   -1.0673    1.0862    0.1628 C   0  0  0  0  0  0  0  0  0  0  0  0
    0.9534   -1.0937   -0.3202 C   0  0  0  0  0  0  0  0  0  0  0  0
    0.2926    1.3537   -0.4968 C   0  0  0  0  0  0  0  0  0  0  0  0
    1.6074    0.5390    1.4465 C   0  0  0  0  0  0  0  0  0  0  0  0
    1.3709    0.3627    0.0044 C   0  0  1  0  0  0  0  0  0  0  0  0
    1.7937    0.6912    2.5827 N   0  0  0  0  0  0  0  0  0  0  0  0
   -2.4325   -0.6526    0.4153 H   0  0  0  0  0  0  0  0  0  0  0  0
   -0.8178   -2.3930   -0.0085 H   0  0  0  0  0  0  0  0  0  0  0  0
   -1.0738    1.4842    1.1886 H   0  0  0  0  0  0  0  0  0  0  0  0
   -1.8497    1.6377   -0.3752 H   0  0  0  0  0  0  0  0  0  0  0  0
    1.1700   -1.2857   -1.3815 H   0  0  0  0  0  0  0  0  0  0  0  0
    1.5793   -1.7950    0.2452 H   0  0  0  0  0  0  0  0  0  0  0  0
    0.6147    2.3851   -0.3192 H   0  0  0  0  0  0  0  0  0  0  0  0
    0.2098    1.2192   -1.5825 H   0  0  0  0  0  0  0  0  0  0  0  0
    2.3219    0.5806   -0.4980 H   0  0  0  0  0  0  0  0  0  0  0  0
  1  9  1  0  0  0  0
  2 10  1  0  0  0  0
  2  1  2  0  0  0  0
  3  1  1  0  0  0  0
  3 11  1  0  0  0  0
  4  2  1  0  0  0  0
  4  7  1  0  0  0  0
  4 14  1  0  0  0  0
  5 15  1  0  0  0  0
  5  7  1  0  0  0  0
  5  3  1  0  0  0  0
  6  8  3  0  0  0  0
  7 17  1  6  0  0  0
  7  6  1  0  0  0  0
 12  3  1  0  0  0  0
 13  4  1  0  0  0  0
 16  5  1  0  0  0  0
M  END
>  <HBA>
1

>  <HBD>
0

>  <TPSA>
23.79

>  <cid>
66013

>  <dipole>
3.9

>  <excitation_energy_1>
5.898

>  <excitation_energy_2>
6.484

>  <excitation_energy_3>
6.618

>  <excitation_energy_4>
6.817

>  <homo_energy>
-6.838

>  <homo_lumo_gap>
7.255

>  <logP>
1.866

>  <lumo_energy>
0.416

>  <melting_point>
39.04

>  <molecular_refractivity>
32.92

>  <oscillator_strength_1>
0.013

>  <oscillator_strength_2>
0.0207

>  <oscillator_strength_3>
0.0114

>  <oscillator_strength_4>
0.0268

>  <open_babel_can_smiles>
N#C[C@@H]1CCC=CC1

>  <mulliken_charges>
17
1   -0.096012
2   -0.105898
3   -0.312098
4   -0.301335
5   -0.268808
6   0.35659
7   -0.188719
8   -0.478162
9   0.130103
10   0.130654
11   0.172604
12   0.150141
13   0.157818
14   0.166863
15   0.155714
16   0.151673
17   0.178872

>  <lowdin_charges>
17
1   -0.165771
2   -0.175668
3   -0.280034
4   -0.267608
5   -0.262759
6   -0.018377
7   -0.126627
8   -0.134631
9   0.155528
10   0.15607
11   0.161649
12   0.157431
13   0.155375
14   0.164824
15   0.155504
16   0.150205
17   0.174889

$$$$

