PCCDB-ID:  69293
public computational chemistry database (PCCDB) project, http://pccdb.org

 30 31  0  0  0  0  0  0  0  0999 V2000
    1.7120    2.7724   -2.9859 C   0  0  0  0  0  0  0  0  0  0  0  0
   11.5124    0.8974    0.5579 C   0  0  0  0  0  0  0  0  0  0  0  0
    4.1982    2.4441   -2.5868 C   0  0  0  0  0  0  0  0  0  0  0  0
    2.7183    0.6670   -1.9823 C   0  0  0  0  0  0  0  0  0  0  0  0
    9.7761   -0.6716   -0.4302 C   0  0  0  0  0  0  0  0  0  0  0  0
    9.0811    1.5303    0.1906 C   0  0  0  0  0  0  0  0  0  0  0  0
    5.2919    1.7089   -2.1339 C   0  0  0  0  0  0  0  0  0  0  0  0
    3.7958   -0.0746   -1.5089 C   0  0  0  0  0  0  0  0  0  0  0  0
    8.4813   -0.9670   -0.8465 C   0  0  0  0  0  0  0  0  0  0  0  0
    7.7756    1.2463   -0.2032 C   0  0  0  0  0  0  0  0  0  0  0  0
    2.8902    1.9496   -2.5197 C   0  0  0  0  0  0  0  0  0  0  0  0
   10.1096    0.5845    0.0915 C   0  0  0  0  0  0  0  0  0  0  0  0
    5.1050    0.4343   -1.5729 C   0  0  0  0  0  0  0  0  0  0  0  0
    7.4557   -0.0120   -0.7418 C   0  0  0  0  0  0  0  0  0  0  0  0
    6.1585   -0.3713   -1.1256 N   0  0  0  0  0  0  0  0  0  0  0  0
    2.0003    3.4713   -3.7789 H   0  0  0  0  0  0  0  0  0  0  0  0
    1.2855    3.3697   -2.1680 H   0  0  0  0  0  0  0  0  0  0  0  0
    0.9073    2.1383   -3.3745 H   0  0  0  0  0  0  0  0  0  0  0  0
   12.2495    0.2496    0.0712 H   0  0  0  0  0  0  0  0  0  0  0  0
   11.6202    0.7545    1.6420 H   0  0  0  0  0  0  0  0  0  0  0  0
   11.7860    1.9365    0.3422 H   0  0  0  0  0  0  0  0  0  0  0  0
    4.3742    3.4270   -3.0194 H   0  0  0  0  0  0  0  0  0  0  0  0
    1.7190    0.2408   -1.9215 H   0  0  0  0  0  0  0  0  0  0  0  0
   10.5469   -1.4335   -0.5256 H   0  0  0  0  0  0  0  0  0  0  0  0
    9.2991    2.5139    0.6020 H   0  0  0  0  0  0  0  0  0  0  0  0
    6.2923    2.1119   -2.2434 H   0  0  0  0  0  0  0  0  0  0  0  0
    3.6276   -1.0611   -1.0815 H   0  0  0  0  0  0  0  0  0  0  0  0
    8.2584   -1.9445   -1.2694 H   0  0  0  0  0  0  0  0  0  0  0  0
    7.0002    1.9931   -0.0740 H   0  0  0  0  0  0  0  0  0  0  0  0
    5.9707   -1.3637   -1.1285 H   0  0  0  0  0  0  0  0  0  0  0  0
  1 11  1  0  0  0  0
  1 17  1  0  0  0  0
  2 20  1  0  0  0  0
  3 11  2  0  0  0  0
  3  7  1  0  0  0  0
  4 23  1  0  0  0  0
  4  8  2  0  0  0  0
  5 12  2  0  0  0  0
  6 25  1  0  0  0  0
  7 13  2  0  0  0  0
  8 27  1  0  0  0  0
  9 14  2  0  0  0  0
  9  5  1  0  0  0  0
 10 29  1  0  0  0  0
 10  6  2  0  0  0  0
 11  4  1  0  0  0  0
 12  6  1  0  0  0  0
 12  2  1  0  0  0  0
 13  8  1  0  0  0  0
 13 15  1  0  0  0  0
 14 10  1  0  0  0  0
 15 14  1  0  0  0  0
 16  1  1  0  0  0  0
 18  1  1  0  0  0  0
 19  2  1  0  0  0  0
 21  2  1  0  0  0  0
 22  3  1  0  0  0  0
 24  5  1  0  0  0  0
 26  7  1  0  0  0  0
 28  9  1  0  0  0  0
 30 15  1  0  0  0  0
M  END
>  <HBA>
0

>  <HBD>
1

>  <TPSA>
12.03

>  <cid>
69293

>  <dipole>
0.66

>  <excitation_energy_1>
4.077

>  <excitation_energy_2>
4.129

>  <excitation_energy_3>
4.191

>  <excitation_energy_4>
4.464

>  <homo_energy>
-4.882

>  <homo_lumo_gap>
4.868

>  <logP>
4.12

>  <lumo_energy>
-0.014

>  <melting_point>
87.12

>  <molecular_refractivity>
65.92

>  <oscillator_strength_1>
0.0203

>  <oscillator_strength_2>
0.3934

>  <oscillator_strength_3>
0.0379

>  <oscillator_strength_4>
0.1297

>  <open_babel_can_smiles>
Cc1ccc(cc1)Nc1ccc(cc1)C

>  <mulliken_charges>
30
1   -0.529745
2   -0.529633
3   -0.194645
4   -0.185058
5   -0.186083
6   -0.1934
7   -0.174034
8   -0.190524
9   -0.190203
10   -0.172907
11   0.178055
12   0.177645
13   0.364692
14   0.365634
15   -0.799279
16   0.153605
17   0.161074
18   0.153175
19   0.152689
20   0.161224
21   0.154977
22   0.120147
23   0.119551
24   0.119774
25   0.120805
26   0.142455
27   0.117311
28   0.117717
29   0.143035
30   0.321943

>  <lowdin_charges>
30
1   -0.44361
2   -0.440031
3   -0.156903
4   -0.157548
5   -0.159909
6   -0.156845
7   -0.194286
8   -0.192377
9   -0.193266
10   -0.193501
11   -0.021658
12   -0.019627
13   0.054148
14   0.055445
15   -0.25212
16   0.156792
17   0.159165
18   0.156724
19   0.156792
20   0.156586
21   0.15564
22   0.153057
23   0.153244
24   0.154741
25   0.153494
26   0.164893
27   0.151173
28   0.151686
29   0.166502
30   0.281599

$$$$

