PCCDB-ID:  6585
public computational chemistry database (PCCDB) project, http://pccdb.org

  9  8  0  0  0  0  0  0  0  0999 V2000
    0.9664    0.0313    0.0195 C   0  0  0  0  0  0  0  0  0  0  0  0
    2.3524    0.1351   -0.5546 C   0  0  0  0  0  0  0  0  0  0  0  0
    3.1011    1.0905   -0.4909 O   0  0  0  0  0  0  0  0  0  0  0  0
    4.0314   -0.9143   -1.7403 O   0  0  0  0  0  0  0  0  0  0  0  0
    2.7020   -1.0102   -1.1871 O   0  0  0  0  0  0  0  0  0  0  0  0
    1.0183    0.2003    1.0992 H   0  0  0  0  0  0  0  0  0  0  0  0
    0.5175   -0.9429   -0.1811 H   0  0  0  0  0  0  0  0  0  0  0  0
    0.3454    0.8210   -0.4141 H   0  0  0  0  0  0  0  0  0  0  0  0
    4.2655    0.0076   -1.4612 H   0  0  0  0  0  0  0  0  0  0  0  0
  1  6  1  0  0  0  0
  2  3  2  0  0  0  0
  2  1  1  0  0  0  0
  4  9  1  0  0  0  0
  4  5  1  0  0  0  0
  5  2  1  0  0  0  0
  7  1  1  0  0  0  0
  8  1  1  0  0  0  0
M  END
>  <HBA>
3

>  <HBD>
1

>  <TPSA>
46.53

>  <cid>
6585

>  <dipole>
2.31

>  <excitation_energy_1>
5.538

>  <excitation_energy_2>
6.243

>  <excitation_energy_3>
6.725

>  <excitation_energy_4>
6.9

>  <homo_energy>
-7.698

>  <homo_lumo_gap>
7.393

>  <logP>
0.022

>  <lumo_energy>
-0.305

>  <melting_point>
27.0

>  <molecular_refractivity>
14.58

>  <oscillator_strength_1>
0.0006

>  <oscillator_strength_2>
0.0007

>  <oscillator_strength_3>
0.0648

>  <oscillator_strength_4>
0.0105

>  <open_babel_can_smiles>
CC(=O)OO

>  <mulliken_charges>
9
1   -0.538715
2   0.627384
3   -0.481912
4   -0.39201
5   -0.241901
6   0.201492
7   0.193872
8   0.201521
9   0.430268

>  <lowdin_charges>
9
1   -0.459132
2   0.197328
3   -0.27113
4   -0.31678
5   -0.06329
6   0.187759
7   0.181129
8   0.190371
9   0.353745

$$$$

