PCCDB-ID:  36503
public computational chemistry database (PCCDB) project, http://pccdb.org

 27 26  0  0  0  0  0  0  0  0999 V2000
   -0.8721   -0.7129   -2.3540 C   0  0  0  0  0  0  0  0  0  0  0  0
    8.4505   -4.4947   -4.7196 C   0  0  0  0  0  0  0  0  0  0  0  0
    0.4757   -0.5195   -1.6380 C   0  0  0  0  0  0  0  0  0  0  0  0
    7.9017   -3.0839   -4.5170 C   0  0  0  0  0  0  0  0  0  0  0  0
    1.6551   -0.7372   -2.5466 C   0  0  0  0  0  0  0  0  0  0  0  0
    2.5956   -1.6724   -2.3852 C   0  0  0  0  0  0  0  0  0  0  0  0
    3.7705   -1.8869   -3.3014 C   0  0  0  0  0  0  0  0  0  0  0  0
    5.0971   -1.5904   -2.5935 C   0  0  0  0  0  0  0  0  0  0  0  0
    6.7220   -3.0408   -3.5639 C   0  0  0  0  0  0  0  0  0  0  0  0
    6.2813   -3.9882   -2.9486 O   0  0  0  0  0  0  0  0  0  0  0  0
    6.2231   -1.7843   -3.4788 O   0  0  0  0  0  0  0  0  0  0  0  0
   -1.7099   -0.5157   -1.6755 H   0  0  0  0  0  0  0  0  0  0  0  0
   -0.9714   -1.7368   -2.7310 H   0  0  0  0  0  0  0  0  0  0  0  0
   -0.9673   -0.0328   -3.2091 H   0  0  0  0  0  0  0  0  0  0  0  0
    9.3059   -4.4776   -5.4027 H   0  0  0  0  0  0  0  0  0  0  0  0
    7.6873   -5.1571   -5.1393 H   0  0  0  0  0  0  0  0  0  0  0  0
    8.7742   -4.9296   -3.7695 H   0  0  0  0  0  0  0  0  0  0  0  0
    0.5412   -1.1992   -0.7789 H   0  0  0  0  0  0  0  0  0  0  0  0
    0.5144    0.5023   -1.2310 H   0  0  0  0  0  0  0  0  0  0  0  0
    7.5841   -2.6336   -5.4659 H   0  0  0  0  0  0  0  0  0  0  0  0
    8.6721   -2.4103   -4.1188 H   0  0  0  0  0  0  0  0  0  0  0  0
    1.7158   -0.0747   -3.4138 H   0  0  0  0  0  0  0  0  0  0  0  0
    2.5342   -2.3390   -1.5222 H   0  0  0  0  0  0  0  0  0  0  0  0
    3.6868   -1.2480   -4.1886 H   0  0  0  0  0  0  0  0  0  0  0  0
    3.7964   -2.9297   -3.6437 H   0  0  0  0  0  0  0  0  0  0  0  0
    5.2209   -2.2274   -1.7137 H   0  0  0  0  0  0  0  0  0  0  0  0
    5.1526   -0.5409   -2.2946 H   0  0  0  0  0  0  0  0  0  0  0  0
  1 12  1  0  0  0  0
  1  3  1  0  0  0  0
  2  4  1  0  0  0  0
  2 17  1  0  0  0  0
  3 19  1  0  0  0  0
  3 18  1  0  0  0  0
  4 21  1  0  0  0  0
  4  9  1  0  0  0  0
  5  6  2  0  0  0  0
  5  3  1  0  0  0  0
  6 23  1  0  0  0  0
  7  8  1  0  0  0  0
  7  6  1  0  0  0  0
  8 27  1  0  0  0  0
  8 26  1  0  0  0  0
  9 11  1  0  0  0  0
  9 10  2  0  0  0  0
 11  8  1  0  0  0  0
 13  1  1  0  0  0  0
 14  1  1  0  0  0  0
 15  2  1  0  0  0  0
 16  2  1  0  0  0  0
 20  4  1  0  0  0  0
 22  5  1  0  0  0  0
 24  7  1  0  0  0  0
 25  7  1  0  0  0  0
M  END
>  <HBA>
2

>  <HBD>
0

>  <TPSA>
26.3

>  <cid>
36503

>  <dipole>
1.68

>  <excitation_energy_1>
5.837

>  <excitation_energy_2>
6.2

>  <excitation_energy_3>
6.296

>  <excitation_energy_4>
6.517

>  <homo_energy>
-6.621

>  <homo_lumo_gap>
7.031

>  <logP>
2.296

>  <lumo_energy>
0.411

>  <melting_point>
-6.32

>  <molecular_refractivity>
46.19

>  <oscillator_strength_1>
0.0009

>  <oscillator_strength_2>
0.0485

>  <oscillator_strength_3>
0.136

>  <oscillator_strength_4>
0.0027

>  <open_babel_can_smiles>
CC/C=C/CCOC(=O)CC

>  <mulliken_charges>
27
1   -0.439853
2   -0.435392
3   -0.297029
4   -0.352612
5   -0.084046
6   -0.110825
7   -0.323287
8   -0.042532
9   0.622418
10   -0.479249
11   -0.467488
12   0.144428
13   0.151716
14   0.143658
15   0.142411
16   0.160214
17   0.163745
18   0.140492
19   0.142687
20   0.171137
21   0.173049
22   0.116717
23   0.124559
24   0.146797
25   0.167277
26   0.166426
27   0.154583

>  <lowdin_charges>
27
1   -0.442784
2   -0.441017
3   -0.268017
4   -0.302426
5   -0.161791
6   -0.173915
7   -0.281234
8   -0.13113
9   0.199681
10   -0.269297
11   -0.198301
12   0.150892
13   0.150626
14   0.148079
15   0.15199
16   0.159406
17   0.160294
18   0.14701
19   0.147323
20   0.168114
21   0.17034
22   0.14548
23   0.149257
24   0.151117
25   0.16089
26   0.157162
27   0.152249

$$$$

