PCCDB-ID:  14087
public computational chemistry database (PCCDB) project, http://pccdb.org

 20 20  0  0  0  0  0  0  0  0999 V2000
    5.5743   -0.1735    0.2392 C   0  0  0  0  0  0  0  0  0  0  0  0
    2.6125    2.0318    0.3723 C   0  0  0  0  0  0  0  0  0  0  0  0
    1.1482    1.8288    0.7572 C   0  0  0  0  0  0  0  0  0  0  0  0
   -1.0180    3.0137    0.5605 C   0  0  0  0  0  0  0  0  0  0  0  0
   -0.1824    3.4198   -0.6046 C   0  0  0  0  0  0  0  0  0  0  0  0
    3.4215    0.7568    0.4787 C   0  0  0  0  0  0  0  0  0  0  0  0
    0.4341    3.1017    0.6840 N   0  0  0  0  0  0  0  0  0  0  0  0
    2.9877   -0.3300    0.7973 O   0  0  0  0  0  0  0  0  0  0  0  0
    4.7191    0.9788    0.1677 O   0  0  0  0  0  0  0  0  0  0  0  0
    6.5678    0.1818   -0.0361 H   0  0  0  0  0  0  0  0  0  0  0  0
    5.2368   -0.9477   -0.4553 H   0  0  0  0  0  0  0  0  0  0  0  0
    5.5806   -0.5862    1.2517 H   0  0  0  0  0  0  0  0  0  0  0  0
    3.0703    2.7980    1.0091 H   0  0  0  0  0  0  0  0  0  0  0  0
    2.6971    2.4107   -0.6546 H   0  0  0  0  0  0  0  0  0  0  0  0
    1.0853    1.4599    1.7867 H   0  0  0  0  0  0  0  0  0  0  0  0
    0.6980    1.0521    0.1141 H   0  0  0  0  0  0  0  0  0  0  0  0
   -1.4707    2.0218    0.5258 H   0  0  0  0  0  0  0  0  0  0  0  0
   -1.5855    3.7535    1.1210 H   0  0  0  0  0  0  0  0  0  0  0  0
   -0.1284    4.4616   -0.9132 H   0  0  0  0  0  0  0  0  0  0  0  0
   -0.0788    2.6970   -1.4158 H   0  0  0  0  0  0  0  0  0  0  0  0
  1 12  1  0  0  0  0
  2  6  1  0  0  0  0
  2  3  1  0  0  0  0
  2 13  1  0  0  0  0
  3 15  1  0  0  0  0
  4  7  1  0  0  0  0
  4 18  1  0  0  0  0
  5  4  1  0  0  0  0
  5  7  1  0  0  0  0
  6  8  2  0  0  0  0
  7  3  1  0  0  0  0
  9  1  1  0  0  0  0
  9  6  1  0  0  0  0
 10  1  1  0  0  0  0
 11  1  1  0  0  0  0
 14  2  1  0  0  0  0
 16  3  1  0  0  0  0
 17  4  1  0  0  0  0
 19  5  1  0  0  0  0
 20  5  1  0  0  0  0
M  END
>  <HBA>
3

>  <HBD>
0

>  <TPSA>
29.31

>  <cid>
14087

>  <dipole>
1.31

>  <excitation_energy_1>
5.763

>  <excitation_energy_2>
5.96

>  <excitation_energy_3>
6.099

>  <excitation_energy_4>
6.293

>  <homo_energy>
-6.373

>  <homo_lumo_gap>
6.748

>  <logP>
-0.197

>  <lumo_energy>
0.376

>  <melting_point>
-2.83

>  <molecular_refractivity>
36.94

>  <oscillator_strength_1>
0.0022

>  <oscillator_strength_2>
0.0043

>  <oscillator_strength_3>
0.0119

>  <oscillator_strength_4>
0.0262

>  <open_babel_can_smiles>
COC(=O)CCN1CC1

>  <mulliken_charges>
20
1   -0.218112
2   -0.363436
3   -0.120268
4   -0.191633
5   -0.197838
6   0.62236
7   -0.358076
8   -0.481384
9   -0.452963
10   0.164306
11   0.169081
12   0.170189
13   0.187216
14   0.17444
15   0.160522
16   0.128959
17   0.147454
18   0.157818
19   0.157543
20   0.143821

>  <lowdin_charges>
20
1   -0.278608
2   -0.30402
3   -0.195113
4   -0.24151
5   -0.247871
6   0.198342
7   -0.193611
8   -0.267102
9   -0.196359
10   0.159802
11   0.159512
12   0.158426
13   0.178387
14   0.169411
15   0.154314
16   0.131591
17   0.148784
18   0.160545
19   0.157635
20   0.147445

$$$$

