PCCDB-ID:  36594
public computational chemistry database (PCCDB) project, http://pccdb.org

 29 30  0  0  0  0  0  0  0  0999 V2000
    1.4840    0.3011    1.9593 C   0  0  0  0  0  0  0  0  0  0  0  0
    1.5665   -4.5366    0.9814 C   0  0  0  0  0  0  0  0  0  0  0  0
    7.5319   -0.8146   -0.3641 C   0  0  0  0  0  0  0  0  0  0  0  0
    6.8141   -2.0345   -0.3141 C   0  0  0  0  0  0  0  0  0  0  0  0
    6.9335    0.3561    0.0425 C   0  0  0  0  0  0  0  0  0  0  0  0
    5.5155   -2.0653    0.1423 C   0  0  0  0  0  0  0  0  0  0  0  0
    3.6458    1.5248    1.3864 C   0  0  0  0  0  0  0  0  0  0  0  0
    4.9453    1.5543    0.9386 C   0  0  0  0  0  0  0  0  0  0  0  0
    2.9048    0.3149    1.4547 C   0  0  0  0  0  0  0  0  0  0  0  0
    5.5950    0.3649    0.5179 C   0  0  0  0  0  0  0  0  0  0  0  0
    4.8748   -0.8725    0.5721 C   0  0  0  0  0  0  0  0  0  0  0  0
    3.5392   -0.8443    1.0563 C   0  0  0  0  0  0  0  0  0  0  0  0
    2.7121   -2.8294    2.1369 C   0  0  0  0  0  0  0  0  0  0  0  0
    2.1531   -3.9609    2.1795 N   0  0  0  0  0  0  0  0  0  0  0  0
    3.2697   -2.2674    3.2341 O   0  0  0  0  0  0  0  0  0  0  0  0
    2.8176   -2.0462    1.0287 O   0  0  0  0  0  0  0  0  0  0  0  0
    1.0762    1.3153    2.0037 H   0  0  0  0  0  0  0  0  0  0  0  0
    1.4297   -0.1281    2.9675 H   0  0  0  0  0  0  0  0  0  0  0  0
    0.8364   -0.3033    1.3154 H   0  0  0  0  0  0  0  0  0  0  0  0
    1.9127   -5.5714    0.8759 H   0  0  0  0  0  0  0  0  0  0  0  0
    1.8033   -3.9918    0.0590 H   0  0  0  0  0  0  0  0  0  0  0  0
    0.4747   -4.5734    1.0879 H   0  0  0  0  0  0  0  0  0  0  0  0
    8.5563   -0.8073   -0.7262 H   0  0  0  0  0  0  0  0  0  0  0  0
    7.2942   -2.9534   -0.6396 H   0  0  0  0  0  0  0  0  0  0  0  0
    7.4779    1.2967    0.0043 H   0  0  0  0  0  0  0  0  0  0  0  0
    4.9648   -2.9993    0.1707 H   0  0  0  0  0  0  0  0  0  0  0  0
    3.1595    2.4454    1.6994 H   0  0  0  0  0  0  0  0  0  0  0  0
    5.4898    2.4943    0.8965 H   0  0  0  0  0  0  0  0  0  0  0  0
    3.1373   -2.9234    3.9413 H   0  0  0  0  0  0  0  0  0  0  0  0
  1 17  1  0  0  0  0
  1 18  1  0  0  0  0
  2 22  1  0  0  0  0
  2 14  1  0  0  0  0
  3  4  2  0  0  0  0
  3  5  1  0  0  0  0
  4  6  1  0  0  0  0
  5 10  2  0  0  0  0
  6 26  1  0  0  0  0
  6 11  2  0  0  0  0
  7  9  1  0  0  0  0
  7 27  1  0  0  0  0
  8  7  2  0  0  0  0
  9  1  1  0  0  0  0
 10 11  1  0  0  0  0
 10  8  1  0  0  0  0
 11 12  1  0  0  0  0
 12  9  2  0  0  0  0
 13 14  2  0  0  0  0
 13 15  1  0  0  0  0
 15 29  1  0  0  0  0
 16 12  1  0  0  0  0
 16 13  1  0  0  0  0
 19  1  1  0  0  0  0
 20  2  1  0  0  0  0
 21  2  1  0  0  0  0
 23  3  1  0  0  0  0
 24  4  1  0  0  0  0
 25  5  1  0  0  0  0
 28  8  1  0  0  0  0
M  END
>  <HBA>
3

>  <HBD>
1

>  <TPSA>
38.33

>  <cid>
36594

>  <dipole>
1.0

>  <excitation_energy_1>
4.223

>  <excitation_energy_2>
4.384

>  <excitation_energy_3>
4.937

>  <excitation_energy_4>
5.321

>  <homo_energy>
-5.744

>  <homo_lumo_gap>
4.683

>  <logP>
3.257

>  <lumo_energy>
-1.061

>  <melting_point>
116.84

>  <molecular_refractivity>
63.6

>  <oscillator_strength_1>
0.0836

>  <oscillator_strength_2>
0.0049

>  <oscillator_strength_3>
0.001

>  <oscillator_strength_4>
0.0081

>  <open_babel_can_smiles>
C/N=C(\Oc1c(C)ccc2c1cccc2)/O

>  <mulliken_charges>
29
1   -0.540607
2   -0.326612
3   -0.131629
4   -0.137231
5   -0.19682
6   -0.190407
7   -0.207253
8   -0.175489
9   0.17733
10   0.121228
11   0.133902
12   0.196529
13   0.710911
14   -0.484328
15   -0.590582
16   -0.543665
17   0.154164
18   0.176403
19   0.172272
20   0.153815
21   0.154789
22   0.154236
23   0.130734
24   0.131534
25   0.130966
26   0.144192
27   0.127906
28   0.130021
29   0.423692

>  <lowdin_charges>
29
1   -0.443066
2   -0.35122
3   -0.156696
4   -0.155311
5   -0.155361
6   -0.157319
7   -0.16175
8   -0.158893
9   -0.009854
10   0.001547
11   -0.010687
12   0.087388
13   0.188163
14   -0.263565
15   -0.360731
16   -0.163327
17   0.15739
18   0.167
19   0.167944
20   0.150322
21   0.144269
22   0.149309
23   0.157952
24   0.159883
25   0.158417
26   0.166432
27   0.158976
28   0.159378
29   0.373411

$$$$

