PCCDB-ID:  11167
public computational chemistry database (PCCDB) project, http://pccdb.org

  7  6  0  0  0  0  0  0  0  0999 V2000
    0.8719    0.1481   -0.2430 C   0  0  0  0  0  0  0  0  0  0  0  0
    2.9372   -0.8896    0.9326 C   0  0  0  0  0  0  0  0  0  0  0  0
    2.0039   -0.4103    0.3899 N   0  0  0  0  0  0  0  0  0  0  0  0
    4.2057   -1.5354    1.6640 S   0  0  0  0  0  0  0  0  0  0  0  0
    1.1827    0.8408   -1.0333 H   0  0  0  0  0  0  0  0  0  0  0  0
    0.2617    0.6970    0.4834 H   0  0  0  0  0  0  0  0  0  0  0  0
    0.2581   -0.6418   -0.6906 H   0  0  0  0  0  0  0  0  0  0  0  0
  1  3  1  0  0  0  0
  1  6  1  0  0  0  0
  2  4  2  0  0  0  0
  3  2  2  0  0  0  0
  5  1  1  0  0  0  0
  7  1  1  0  0  0  0
M  END
>  <HBA>
2

>  <HBD>
0

>  <TPSA>
44.45

>  <cid>
11167

>  <dipole>
4.28

>  <excitation_energy_1>
5.243

>  <excitation_energy_2>
5.43

>  <excitation_energy_3>
5.431

>  <excitation_energy_4>
5.665

>  <homo_energy>
-6.574

>  <homo_lumo_gap>
6.879

>  <logP>
0.719

>  <lumo_energy>
0.305

>  <melting_point>
25.51

>  <molecular_refractivity>
20.89

>  <oscillator_strength_1>
0.0

>  <oscillator_strength_2>
0.0002

>  <oscillator_strength_3>
0.0009

>  <oscillator_strength_4>
0.0215

>  <open_babel_can_smiles>
CN=C=S

>  <mulliken_charges>
7
1   -0.33397
2   0.196672
3   -0.291718
4   -0.15268
5   0.193951
6   0.193884
7   0.193861

>  <lowdin_charges>
7
1   -0.324967
2   -0.03673
3   -0.086669
4   -0.081611
5   0.176295
6   0.17693
7   0.176752

$$$$

