PCCDB-ID:  34123
public computational chemistry database (PCCDB) project, http://pccdb.org

 25 25  0  0  0  0  0  0  0  0999 V2000
    4.7813    0.1711   -1.9907 C   0  0  0  0  0  0  0  0  0  0  0  0
    0.1991   -0.1126   -0.7653 C   0  0  0  0  0  0  0  0  0  0  0  0
    1.5168    3.5078   -3.8244 C   0  0  0  0  0  0  0  0  0  0  0  0
    0.8718    2.4873   -4.5286 C   0  0  0  0  0  0  0  0  0  0  0  0
    2.2421    3.2196   -2.6713 C   0  0  0  0  0  0  0  0  0  0  0  0
    0.9610    1.1743   -4.0685 C   0  0  0  0  0  0  0  0  0  0  0  0
    4.0338    0.8874   -0.8914 C   0  0  0  0  0  0  0  0  0  0  0  0
    1.2170   -0.9750   -1.4584 C   0  0  0  0  0  0  0  0  0  0  0  0
    2.3675    1.9014   -2.1998 C   0  0  0  0  0  0  0  0  0  0  0  0
    1.6923    0.8949   -2.9174 C   0  0  0  0  0  0  0  0  0  0  0  0
    3.0224    1.6553   -0.9898 N   0  0  0  0  0  0  0  0  0  0  0  0
    4.5047    0.6900    0.3655 O   0  0  0  0  0  0  0  0  0  0  0  0
    1.8415   -0.4478   -2.5412 O   0  0  0  0  0  0  0  0  0  0  0  0
    1.6296   -2.4978   -0.9987 S   0  0  0  0  0  0  0  0  0  0  0  0
    4.5173    0.5723   -2.9702 H   0  0  0  0  0  0  0  0  0  0  0  0
    4.5254   -0.8951   -1.9803 H   0  0  0  0  0  0  0  0  0  0  0  0
    5.8637    0.2748   -1.8481 H   0  0  0  0  0  0  0  0  0  0  0  0
   -0.4882    0.3453   -1.4860 H   0  0  0  0  0  0  0  0  0  0  0  0
    0.7119    0.7009   -0.2361 H   0  0  0  0  0  0  0  0  0  0  0  0
   -0.3586   -0.7098   -0.0453 H   0  0  0  0  0  0  0  0  0  0  0  0
    1.4503    4.5348   -4.1723 H   0  0  0  0  0  0  0  0  0  0  0  0
    0.3028    2.7095   -5.4262 H   0  0  0  0  0  0  0  0  0  0  0  0
    2.7325    4.0075   -2.1079 H   0  0  0  0  0  0  0  0  0  0  0  0
    0.4794    0.3544   -4.5927 H   0  0  0  0  0  0  0  0  0  0  0  0
    5.2504    0.0707    0.3362 H   0  0  0  0  0  0  0  0  0  0  0  0
  1 16  1  0  0  0  0
  1 17  1  0  0  0  0
  1  7  1  0  0  0  0
  2 19  1  0  0  0  0
  2 20  1  0  0  0  0
  3  5  2  0  0  0  0
  4  6  2  0  0  0  0
  4  3  1  0  0  0  0
  5  9  1  0  0  0  0
  5 23  1  0  0  0  0
  6 10  1  0  0  0  0
  7 12  1  0  0  0  0
  8 14  2  0  0  0  0
  8  2  1  0  0  0  0
  9 11  1  0  0  0  0
 10 13  1  0  0  0  0
 10  9  2  0  0  0  0
 11  7  2  0  0  0  0
 13  8  1  0  0  0  0
 15  1  1  0  0  0  0
 18  2  1  0  0  0  0
 21  3  1  0  0  0  0
 22  4  1  0  0  0  0
 24  6  1  0  0  0  0
 25 12  1  0  0  0  0
M  END
>  <HBA>
4

>  <HBD>
1

>  <TPSA>
70.42

>  <cid>
34123

>  <dipole>
3.35

>  <excitation_energy_1>
3.14

>  <excitation_energy_2>
4.053

>  <excitation_energy_3>
4.583

>  <excitation_energy_4>
4.737

>  <homo_energy>
-5.929

>  <homo_lumo_gap>
4.566

>  <logP>
2.444

>  <lumo_energy>
-1.363

>  <melting_point>
94.4

>  <molecular_refractivity>
59.84

>  <oscillator_strength_1>
0.0002

>  <oscillator_strength_2>
0.0193

>  <oscillator_strength_3>
0.003

>  <oscillator_strength_4>
0.0481

>  <open_babel_can_smiles>
CC(=S)Oc1ccccc1/N=C(/O)\C

>  <mulliken_charges>
25
1   -0.551233
2   -0.51781
3   -0.1282
4   -0.144367
5   -0.169098
6   -0.166202
7   0.497378
8   0.222873
9   0.223529
10   0.294917
11   -0.48448
12   -0.562758
13   -0.472672
14   -0.196538
15   0.192388
16   0.220024
17   0.161484
18   0.180158
19   0.219052
20   0.1956
21   0.13654
22   0.137583
23   0.144613
24   0.150703
25   0.416514

>  <lowdin_charges>
25
1   -0.477747
2   -0.46852
3   -0.151441
4   -0.162883
5   -0.166084
6   -0.168821
7   0.161392
8   0.026378
9   0.029213
10   0.059327
11   -0.188326
12   -0.345409
13   -0.132888
14   -0.138675
15   0.182164
16   0.19214
17   0.162493
18   0.176241
19   0.195726
20   0.185525
21   0.161337
22   0.162833
23   0.170017
24   0.17283
25   0.363181

$$$$

