PCCDB-ID:  30214
public computational chemistry database (PCCDB) project, http://pccdb.org

 14 14  0  0  0  0  0  0  0  0999 V2000
    0.8392    0.1061   -0.0246 C   0  0  0  0  0  0  0  0  0  0  0  0
    2.8070   -2.6485   -0.0220 C   0  0  0  0  0  0  0  0  0  0  0  0
    4.3623    0.5568   -0.0331 C   0  0  0  0  0  0  0  0  0  0  0  0
    2.3254   -0.0550   -0.0273 C   0  0  0  0  0  0  0  0  0  0  0  0
    3.0831   -1.1874   -0.0257 C   0  0  0  0  0  0  0  0  0  0  0  0
    3.1722    1.0589   -0.0319 N   0  0  0  0  0  0  0  0  0  0  0  0
    4.4088   -0.7981   -0.0296 O   0  0  0  0  0  0  0  0  0  0  0  0
    0.3307   -0.8629   -0.0146 H   0  0  0  0  0  0  0  0  0  0  0  0
    0.5043    0.6574   -0.9110 H   0  0  0  0  0  0  0  0  0  0  0  0
    0.5096    0.6731    0.8538 H   0  0  0  0  0  0  0  0  0  0  0  0
    1.7282   -2.8259   -0.0119 H   0  0  0  0  0  0  0  0  0  0  0  0
    3.2404   -3.1377    0.8590 H   0  0  0  0  0  0  0  0  0  0  0  0
    3.2239   -3.1395   -0.9100 H   0  0  0  0  0  0  0  0  0  0  0  0
    5.3107    1.0749   -0.0363 H   0  0  0  0  0  0  0  0  0  0  0  0
  1  8  1  0  0  0  0
  1 10  1  0  0  0  0
  2 11  1  0  0  0  0
  2 12  1  0  0  0  0
  3  6  2  0  0  0  0
  3  7  1  0  0  0  0
  4  5  2  0  0  0  0
  4  1  1  0  0  0  0
  5  2  1  0  0  0  0
  6  4  1  0  0  0  0
  7  5  1  0  0  0  0
  9  1  1  0  0  0  0
 13  2  1  0  0  0  0
 14  3  1  0  0  0  0
M  END
>  <HBA>
2

>  <HBD>
0

>  <TPSA>
26.03

>  <cid>
30214

>  <dipole>
1.83

>  <excitation_energy_1>
5.692

>  <excitation_energy_2>
5.831

>  <excitation_energy_3>
6.324

>  <excitation_energy_4>
6.4

>  <homo_energy>
-6.196

>  <homo_lumo_gap>
6.479

>  <logP>
1.291

>  <lumo_energy>
0.283

>  <melting_point>
26.73

>  <molecular_refractivity>
26.43

>  <oscillator_strength_1>
0.0014

>  <oscillator_strength_2>
0.1463

>  <oscillator_strength_3>
0.0025

>  <oscillator_strength_4>
0.0032

>  <open_babel_can_smiles>
Cc1ocnc1C

>  <mulliken_charges>
14
1   -0.519248
2   -0.532191
3   0.247397
4   0.196172
5   0.300203
6   -0.442229
7   -0.426078
8   0.149996
9   0.170672
10   0.170779
11   0.169164
12   0.173941
13   0.173938
14   0.167485

>  <lowdin_charges>
14
1   -0.438061
2   -0.439068
3   -0.029577
4   -0.014723
5   0.039235
6   -0.17595
7   -0.112223
8   0.155952
9   0.167182
10   0.167328
11   0.167457
12   0.168684
13   0.168554
14   0.175211

$$$$

