PCCDB-ID:  36128
public computational chemistry database (PCCDB) project, http://pccdb.org

 31 32  0  0  1  0  0  0  0  0999 V2000
    1.0308    1.9812    0.2359 C   0  0  0  0  0  0  0  0  0  0  0  0
    2.5198    1.1569    4.5318 C   0  0  0  0  0  0  0  0  0  0  0  0
    1.5842    0.0159    4.1056 C   0  0  0  0  0  0  0  0  0  0  0  0
    2.7138    2.1515    3.3775 C   0  0  0  0  0  0  0  0  0  0  0  0
    2.0775   -0.6300    2.7964 C   0  0  0  0  0  0  0  0  0  0  0  0
    3.1459    1.4099    2.0979 C   0  0  0  0  0  0  0  0  0  0  0  0
    0.6980   -0.5106   -0.0110 C   0  0  0  0  0  0  0  0  0  0  0  0
   -2.2039   -0.0498   -2.0056 C   0  0  0  0  0  0  0  0  0  0  0  0
    0.9944    0.6487    0.9909 C   0  0  1  0  0  0  0  0  0  0  0  0
   -0.6738   -0.4656   -0.5914 C   0  0  0  0  0  0  0  0  0  0  0  0
   -2.8035   -0.5551   -0.9816 N   0  0  0  0  0  0  0  0  0  0  0  0
   -1.7934   -0.8298   -0.0478 N   0  0  0  0  0  0  0  0  0  0  0  0
    2.2516    0.3206    1.6874 N   0  0  0  0  0  0  0  0  0  0  0  0
   -0.8574    0.0476   -1.8499 O   0  0  0  0  0  0  0  0  0  0  0  0
    0.0926    2.1213   -0.3097 H   0  0  0  0  0  0  0  0  0  0  0  0
    1.8464    2.0016   -0.4963 H   0  0  0  0  0  0  0  0  0  0  0  0
    1.1467    2.8348    0.9095 H   0  0  0  0  0  0  0  0  0  0  0  0
    3.4980    0.7358    4.8101 H   0  0  0  0  0  0  0  0  0  0  0  0
    2.1326    1.6645    5.4239 H   0  0  0  0  0  0  0  0  0  0  0  0
    0.5667    0.4061    3.9643 H   0  0  0  0  0  0  0  0  0  0  0  0
    1.5192   -0.7486    4.8907 H   0  0  0  0  0  0  0  0  0  0  0  0
    3.4674    2.9064    3.6386 H   0  0  0  0  0  0  0  0  0  0  0  0
    1.7740    2.6918    3.1949 H   0  0  0  0  0  0  0  0  0  0  0  0
    1.3928   -1.4263    2.4867 H   0  0  0  0  0  0  0  0  0  0  0  0
    3.0511   -1.1087    2.9787 H   0  0  0  0  0  0  0  0  0  0  0  0
    4.1313    0.9539    2.2777 H   0  0  0  0  0  0  0  0  0  0  0  0
    3.2815    2.1069    1.2681 H   0  0  0  0  0  0  0  0  0  0  0  0
    0.8048   -1.4697    0.5021 H   0  0  0  0  0  0  0  0  0  0  0  0
    1.4402   -0.4816   -0.8145 H   0  0  0  0  0  0  0  0  0  0  0  0
   -2.6308    0.2870   -2.9382 H   0  0  0  0  0  0  0  0  0  0  0  0
    0.1449    0.6886    1.6937 H   0  0  0  0  0  0  0  0  0  0  0  0
  1 17  1  0  0  0  0
  1  9  1  0  0  0  0
  2 18  1  0  0  0  0
  2 19  1  0  0  0  0
  3  2  1  0  0  0  0
  3 21  1  0  0  0  0
  4 22  1  0  0  0  0
  4  2  1  0  0  0  0
  5 25  1  0  0  0  0
  5  3  1  0  0  0  0
  6 26  1  0  0  0  0
  6  4  1  0  0  0  0
  7 28  1  0  0  0  0
  7  9  1  0  0  0  0
  8 14  1  0  0  0  0
  8 11  2  0  0  0  0
  9 13  1  0  0  0  0
  9 31  1  1  0  0  0
 10 12  2  0  0  0  0
 10  7  1  0  0  0  0
 11 12  1  0  0  0  0
 13  6  1  0  0  0  0
 13  5  1  0  0  0  0
 14 10  1  0  0  0  0
 15  1  1  0  0  0  0
 16  1  1  0  0  0  0
 20  3  1  0  0  0  0
 23  4  1  0  0  0  0
 24  5  1  0  0  0  0
 27  6  1  0  0  0  0
 29  7  1  0  0  0  0
 30  8  1  0  0  0  0
M  END
>  <HBA>
4

>  <HBD>
0

>  <TPSA>
42.16

>  <cid>
36128

>  <dipole>
3.21

>  <excitation_energy_1>
4.473

>  <excitation_energy_2>
4.95

>  <excitation_energy_3>
5.268

>  <excitation_energy_4>
5.398

>  <homo_energy>
-5.529

>  <homo_lumo_gap>
5.295

>  <logP>
1.424

>  <lumo_energy>
-0.234

>  <melting_point>
57.96

>  <molecular_refractivity>
57.61

>  <oscillator_strength_1>
0.0105

>  <oscillator_strength_2>
0.0228

>  <oscillator_strength_3>
0.0041

>  <oscillator_strength_4>
0.0088

>  <open_babel_can_smiles>
C[C@H](N1CCCCC1)Cc1ocnn1

>  <mulliken_charges>
31
1   -0.484873
2   -0.258628
3   -0.265311
4   -0.265661
5   -0.151464
6   -0.142385
7   -0.338994
8   0.248821
9   0.060878
10   0.502278
11   -0.27263
12   -0.331496
13   -0.396067
14   -0.410981
15   0.158637
16   0.155261
17   0.159509
18   0.127929
19   0.13481
20   0.139886
21   0.133585
22   0.13053
23   0.133084
24   0.142263
25   0.136341
26   0.135308
27   0.143409
28   0.182465
29   0.167942
30   0.186667
31   0.138887

>  <lowdin_charges>
31
1   -0.454445
2   -0.278915
3   -0.29351
4   -0.296264
5   -0.206393
6   -0.207567
7   -0.285545
8   -0.038811
9   -0.050943
10   0.099196
11   -0.117452
12   -0.141736
13   -0.19325
14   -0.105565
15   0.159744
16   0.153683
17   0.157083
18   0.137074
19   0.14528
20   0.141518
21   0.147644
22   0.145984
23   0.138567
24   0.14744
25   0.140305
26   0.140142
27   0.15072
28   0.175942
29   0.16929
30   0.186869
31   0.133918

$$$$

