PCCDB-ID:  10460
public computational chemistry database (PCCDB) project, http://pccdb.org

 17 16  0  0  0  0  0  0  0  0999 V2000
    1.3565    0.4451   -0.4506 C   0  0  0  0  0  0  0  0  0  0  0  0
    2.8699    0.2338   -0.3469 C   0  0  0  0  0  0  0  0  0  0  0  0
    3.2618   -0.6630    0.8461 C   0  0  0  0  0  0  0  0  0  0  0  0
    4.7438   -0.8380    0.9785 C   0  0  0  0  0  0  0  0  0  0  0  0
    5.4105   -2.0022    0.9261 C   0  0  0  0  0  0  0  0  0  0  0  0
    6.8730   -2.0498    1.0595 C   0  0  0  0  0  0  0  0  0  0  0  0
    7.5375   -3.0690    1.0251 O   0  0  0  0  0  0  0  0  0  0  0  0
    1.1044    1.0819   -1.3055 H   0  0  0  0  0  0  0  0  0  0  0  0
    0.9598    0.9248    0.4525 H   0  0  0  0  0  0  0  0  0  0  0  0
    0.8306   -0.5087   -0.5784 H   0  0  0  0  0  0  0  0  0  0  0  0
    3.3735    1.2054   -0.2506 H   0  0  0  0  0  0  0  0  0  0  0  0
    3.2476   -0.2183   -1.2729 H   0  0  0  0  0  0  0  0  0  0  0  0
    2.7746   -1.6416    0.7529 H   0  0  0  0  0  0  0  0  0  0  0  0
    2.8745   -0.2027    1.7686 H   0  0  0  0  0  0  0  0  0  0  0  0
    5.3224    0.0787    1.1196 H   0  0  0  0  0  0  0  0  0  0  0  0
    4.9001   -2.9534    0.7869 H   0  0  0  0  0  0  0  0  0  0  0  0
    7.3577   -1.0558    1.1997 H   0  0  0  0  0  0  0  0  0  0  0  0
  1  2  1  0  0  0  0
  1  9  1  0  0  0  0
  2 11  1  0  0  0  0
  2  3  1  0  0  0  0
  3  4  1  0  0  0  0
  3 14  1  0  0  0  0
  4 15  1  0  0  0  0
  5  4  2  0  0  0  0
  5  6  1  0  0  0  0
  6 17  1  0  0  0  0
  7  6  2  0  0  0  0
  8  1  1  0  0  0  0
 10  1  1  0  0  0  0
 12  2  1  0  0  0  0
 13  3  1  0  0  0  0
 16  5  1  0  0  0  0
M  END
>  <HBA>
1

>  <HBD>
0

>  <TPSA>
17.07

>  <cid>
10460

>  <dipole>
4.08

>  <excitation_energy_1>
3.707

>  <excitation_energy_2>
5.86

>  <excitation_energy_3>
6.561

>  <excitation_energy_4>
6.603

>  <homo_energy>
-6.735

>  <homo_lumo_gap>
5.257

>  <logP>
1.542

>  <lumo_energy>
-1.478

>  <melting_point>
14.95

>  <molecular_refractivity>
30.68

>  <oscillator_strength_1>
0.0003

>  <oscillator_strength_2>
0.5587

>  <oscillator_strength_3>
0.0013

>  <oscillator_strength_4>
0.1007

>  <open_babel_can_smiles>
CCC/C=C/C=O

>  <mulliken_charges>
17
1   -0.443125
2   -0.254101
3   -0.305615
4   -0.078524
5   -0.151663
6   0.230241
7   -0.416511
8   0.15071
9   0.145804
10   0.147944
11   0.13876
12   0.148116
13   0.150365
14   0.154351
15   0.140853
16   0.146478
17   0.095916

>  <lowdin_charges>
17
1   -0.444911
2   -0.269424
3   -0.272456
4   -0.106012
5   -0.205095
6   0.043415
7   -0.23288
8   0.155104
9   0.149228
10   0.149877
11   0.142796
12   0.147813
13   0.15159
14   0.157199
15   0.156181
16   0.166377
17   0.111197

$$$$

