PCCDB-ID:  72852
public computational chemistry database (PCCDB) project, http://pccdb.org

 21 21  0  0  0  0  0  0  0  0999 V2000
    1.0008   -0.0662    0.0033 C   0  0  0  0  0  0  0  0  0  0  0  0
    2.9204   -0.0657   -1.6432 C   0  0  0  0  0  0  0  0  0  0  0  0
    4.6401    1.2157    0.7621 C   0  0  0  0  0  0  0  0  0  0  0  0
    4.6379   -1.3561    0.7590 C   0  0  0  0  0  0  0  0  0  0  0  0
    5.1610   -0.0714    1.3891 C   0  0  0  0  0  0  0  0  0  0  0  0
    3.1305    1.1985    0.5102 C   0  0  0  0  0  0  0  0  0  0  0  0
    3.1284   -1.3357    0.5068 C   0  0  0  0  0  0  0  0  0  0  0  0
    2.5269   -0.0673   -0.1338 C   0  0  0  0  0  0  0  0  0  0  0  0
    5.9344   -0.0731    2.3217 O   0  0  0  0  0  0  0  0  0  0  0  0
    2.4460    2.1593    0.7905 O   0  0  0  0  0  0  0  0  0  0  0  0
    2.4423   -2.2964    0.7842 O   0  0  0  0  0  0  0  0  0  0  0  0
    0.5826    0.8271   -0.4661 H   0  0  0  0  0  0  0  0  0  0  0  0
    0.7014   -0.0671    1.0548 H   0  0  0  0  0  0  0  0  0  0  0  0
    0.5811   -0.9577   -0.4682 H   0  0  0  0  0  0  0  0  0  0  0  0
    2.5037    0.8228   -2.1286 H   0  0  0  0  0  0  0  0  0  0  0  0
    2.5015   -0.9517   -2.1310 H   0  0  0  0  0  0  0  0  0  0  0  0
    4.0028   -0.0668   -1.8083 H   0  0  0  0  0  0  0  0  0  0  0  0
    5.1403    1.3347   -0.2120 H   0  0  0  0  0  0  0  0  0  0  0  0
    4.8976    2.0736    1.3854 H   0  0  0  0  0  0  0  0  0  0  0  0
    4.8940   -2.2159    1.3802 H   0  0  0  0  0  0  0  0  0  0  0  0
    5.1379   -1.4736   -0.2153 H   0  0  0  0  0  0  0  0  0  0  0  0
  1 13  1  0  0  0  0
  2  8  1  0  0  0  0
  3 19  1  0  0  0  0
  3  5  1  0  0  0  0
  4 20  1  0  0  0  0
  4  5  1  0  0  0  0
  5  9  2  0  0  0  0
  6  3  1  0  0  0  0
  6 10  2  0  0  0  0
  7  4  1  0  0  0  0
  7 11  2  0  0  0  0
  8  1  1  0  0  0  0
  8  7  1  0  0  0  0
  8  6  1  0  0  0  0
 12  1  1  0  0  0  0
 14  1  1  0  0  0  0
 15  2  1  0  0  0  0
 16  2  1  0  0  0  0
 17  2  1  0  0  0  0
 18  3  1  0  0  0  0
 21  4  1  0  0  0  0
M  END
>  <HBA>
3

>  <HBD>
0

>  <TPSA>
51.21

>  <cid>
72852

>  <dipole>
3.81

>  <excitation_energy_1>
3.718

>  <excitation_energy_2>
4.3

>  <excitation_energy_3>
4.329

>  <excitation_energy_4>
5.043

>  <homo_energy>
-6.8

>  <homo_lumo_gap>
5.07

>  <logP>
0.514

>  <lumo_energy>
-1.731

>  <melting_point>
77.55

>  <molecular_refractivity>
38.8

>  <oscillator_strength_1>
0.0

>  <oscillator_strength_2>
0.0013

>  <oscillator_strength_3>
0.001

>  <oscillator_strength_4>
0.0002

>  <open_babel_can_smiles>
O=C1CC(=O)CC(=O)C1(C)C

>  <mulliken_charges>
21
1   -0.433881
2   -0.470078
3   -0.444932
4   -0.444987
5   0.454847
6   0.45142
7   0.451461
8   -0.091609
9   -0.419819
10   -0.425495
11   -0.425516
12   0.161413
13   0.164668
14   0.161429
15   0.179559
16   0.179573
17   0.148911
18   0.194635
19   0.206868
20   0.206881
21   0.194652

>  <lowdin_charges>
21
1   -0.432663
2   -0.432547
3   -0.334073
4   -0.334065
5   0.155
6   0.160306
7   0.16034
8   -0.052721
9   -0.206911
10   -0.208403
11   -0.208427
12   0.163289
13   0.16348
14   0.163309
15   0.16925
16   0.169279
17   0.147799
18   0.187822
19   0.191056
20   0.191052
21   0.187831

$$$$

