PCCDB-ID:  7690
public computational chemistry database (PCCDB) project, http://pccdb.org

 22 22  0  0  0  0  0  0  0  0999 V2000
    1.3553   -0.1729    0.3998 C   0  0  0  0  0  0  0  0  0  0  0  0
    3.1327    3.6691    0.3533 C   0  0  0  0  0  0  0  0  0  0  0  0
    5.2385    2.6259    0.8488 C   0  0  0  0  0  0  0  0  0  0  0  0
    2.4996    2.4237    0.3609 C   0  0  0  0  0  0  0  0  0  0  0  0
    4.6269    1.3797    0.8591 C   0  0  0  0  0  0  0  0  0  0  0  0
    5.1738    5.1564    0.6064 C   0  0  0  0  0  0  0  0  0  0  0  0
    4.5059    3.8001    0.5945 C   0  0  0  0  0  0  0  0  0  0  0  0
    3.2493    1.2683    0.6137 C   0  0  0  0  0  0  0  0  0  0  0  0
    5.1746    5.9125    1.9493 C   0  0  0  0  0  0  0  0  0  0  0  0
    5.6747    7.0025    2.0714 O   0  0  0  0  0  0  0  0  0  0  0  0
    4.5839    5.2944    2.9978 O   0  0  0  0  0  0  0  0  0  0  0  0
    2.7434    0.0046    0.6432 O   0  0  0  0  0  0  0  0  0  0  0  0
    1.1752   -1.2467    0.4713 H   0  0  0  0  0  0  0  0  0  0  0  0
    1.0743    0.1764   -0.6022 H   0  0  0  0  0  0  0  0  0  0  0  0
    0.7453    0.3481    1.1493 H   0  0  0  0  0  0  0  0  0  0  0  0
    2.5386    4.5569    0.1474 H   0  0  0  0  0  0  0  0  0  0  0  0
    6.3079    2.6929    1.0359 H   0  0  0  0  0  0  0  0  0  0  0  0
    1.4354    2.3678    0.1632 H   0  0  0  0  0  0  0  0  0  0  0  0
    5.1945    0.4744    1.0494 H   0  0  0  0  0  0  0  0  0  0  0  0
    4.7058    5.8326   -0.1179 H   0  0  0  0  0  0  0  0  0  0  0  0
    6.2248    5.0780    0.3060 H   0  0  0  0  0  0  0  0  0  0  0  0
    4.2388    4.4312    2.7035 H   0  0  0  0  0  0  0  0  0  0  0  0
  1 13  1  0  0  0  0
  1 12  1  0  0  0  0
  1 15  1  0  0  0  0
  2  4  2  0  0  0  0
  2  7  1  0  0  0  0
  3  5  1  0  0  0  0
  3 17  1  0  0  0  0
  4  8  1  0  0  0  0
  5 19  1  0  0  0  0
  6  9  1  0  0  0  0
  7  6  1  0  0  0  0
  7  3  2  0  0  0  0
  8 12  1  0  0  0  0
  8  5  2  0  0  0  0
  9 10  2  0  0  0  0
  9 11  1  0  0  0  0
 14  1  1  0  0  0  0
 16  2  1  0  0  0  0
 18  4  1  0  0  0  0
 20  6  1  0  0  0  0
 21  6  1  0  0  0  0
 22 11  1  0  0  0  0
M  END
>  <HBA>
3

>  <HBD>
1

>  <TPSA>
46.53

>  <cid>
7690

>  <dipole>
5.87

>  <excitation_energy_1>
4.859

>  <excitation_energy_2>
5.463

>  <excitation_energy_3>
5.519

>  <excitation_energy_4>
5.564

>  <homo_energy>
-6.275

>  <homo_lumo_gap>
5.693

>  <logP>
1.322

>  <lumo_energy>
-0.582

>  <melting_point>
89.75

>  <molecular_refractivity>
44.48

>  <oscillator_strength_1>
0.0251

>  <oscillator_strength_2>
0.1874

>  <oscillator_strength_3>
0.0012

>  <oscillator_strength_4>
0.0254

>  <open_babel_can_smiles>
COc1ccc(cc1)CC(=O)O

>  <mulliken_charges>
22
1   -0.219422
2   -0.18077
3   -0.173774
4   -0.191208
5   -0.167863
6   -0.453371
7   0.076188
8   0.378332
9   0.584319
10   -0.444261
11   -0.563976
12   -0.502438
13   0.17608
14   0.156219
15   0.155749
16   0.140577
17   0.141039
18   0.140589
19   0.148381
20   0.191539
21   0.191569
22   0.416502

>  <lowdin_charges>
22
1   -0.275721
2   -0.157579
3   -0.15386
4   -0.207922
5   -0.177196
6   -0.314478
7   -0.054899
8   0.104745
9   0.185637
10   -0.24745
11   -0.352069
12   -0.19396
13   0.164654
14   0.147073
15   0.14886
16   0.162623
17   0.161086
18   0.164933
19   0.17222
20   0.182785
21   0.180227
22   0.360291

$$$$

