PCCDB-ID:  70319
public computational chemistry database (PCCDB) project, http://pccdb.org

 24 25  0  0  1  0  0  0  0  0999 V2000
    0.9646    0.3640    0.0396 C   0  0  0  0  0  0  0  0  0  0  0  0
    3.6317   -3.0585   -5.5411 C   0  0  0  0  0  0  0  0  0  0  0  0
    3.4001   -3.6684   -4.3079 C   0  0  0  0  0  0  0  0  0  0  0  0
    3.7522   -1.6673   -5.6164 C   0  0  0  0  0  0  0  0  0  0  0  0
    3.2809   -2.8921   -3.1546 C   0  0  0  0  0  0  0  0  0  0  0  0
    3.6349   -0.8904   -4.4678 C   0  0  0  0  0  0  0  0  0  0  0  0
    3.3697    1.0420   -0.6032 C   0  0  0  0  0  0  0  0  0  0  0  0
    2.4445   -0.0304    0.0450 C   0  0  2  0  0  0  0  0  0  0  0  0
    3.3911   -1.4959   -3.2252 C   0  0  0  0  0  0  0  0  0  0  0  0
    3.2591   -0.6493   -2.0208 C   0  0  2  0  0  0  0  0  0  0  0  0
    3.6481    0.5763   -1.9671 N   0  0  0  0  0  0  0  0  0  0  0  0
    2.7247   -1.1818   -0.8383 N   0  0  0  0  0  0  0  0  0  0  0  0
    0.7921    1.2164    0.7072 H   0  0  0  0  0  0  0  0  0  0  0  0
    0.3285   -0.4611    0.3839 H   0  0  0  0  0  0  0  0  0  0  0  0
    0.6435    0.6502   -0.9689 H   0  0  0  0  0  0  0  0  0  0  0  0
    3.7217   -3.6630   -6.4398 H   0  0  0  0  0  0  0  0  0  0  0  0
    3.3173   -4.7499   -4.2406 H   0  0  0  0  0  0  0  0  0  0  0  0
    3.9366   -1.1888   -6.5745 H   0  0  0  0  0  0  0  0  0  0  0  0
    3.1319   -3.3757   -2.1933 H   0  0  0  0  0  0  0  0  0  0  0  0
    3.7275    0.1899   -4.5062 H   0  0  0  0  0  0  0  0  0  0  0  0
    4.3180    1.1294   -0.0551 H   0  0  0  0  0  0  0  0  0  0  0  0
    2.9108    2.0383   -0.6168 H   0  0  0  0  0  0  0  0  0  0  0  0
    2.7588   -0.2650    1.0680 H   0  0  0  0  0  0  0  0  0  0  0  0
    1.9658   -1.8461   -0.9534 H   0  0  0  0  0  0  0  0  0  0  0  0
  1  8  1  0  0  0  0
  1 14  1  0  0  0  0
  1 13  1  0  0  0  0
  2  3  1  0  0  0  0
  3 17  1  0  0  0  0
  3  5  2  0  0  0  0
  4  2  2  0  0  0  0
  4  6  1  0  0  0  0
  5 19  1  0  0  0  0
  6  9  2  0  0  0  0
  7 21  1  0  0  0  0
  7  8  1  0  0  0  0
  8 23  1  1  0  0  0
  9  5  1  0  0  0  0
 10  9  1  1  0  0  0
 10 11  1  0  0  0  0
 10 12  1  0  0  0  0
 11  7  1  0  0  0  0
 12  8  1  0  0  0  0
 15  1  1  0  0  0  0
 16  2  1  0  0  0  0
 18  4  1  0  0  0  0
 20  6  1  0  0  0  0
 22  7  1  0  0  0  0
 24 12  1  0  0  0  0
M  RAD  2  10   2  11   2
M  END
>  <HBA>
2

>  <HBD>
1

>  <TPSA>
24.39

>  <cid>
70319

>  <dipole>
2.44

>  <excitation_energy_1>
4.49

>  <excitation_energy_2>
4.874

>  <excitation_energy_3>
5.078

>  <excitation_energy_4>
5.204

>  <homo_energy>
-5.821

>  <homo_lumo_gap>
5.056

>  <logP>
1.189

>  <lumo_energy>
-0.765

>  <melting_point>
72.78

>  <molecular_refractivity>
57.44

>  <oscillator_strength_1>
0.0706

>  <oscillator_strength_2>
0.0009

>  <oscillator_strength_3>
0.0149

>  <oscillator_strength_4>
0.0166

>  <open_babel_can_smiles>
C[C@@H]1C[N][C](N1)c1ccccc1

>  <mulliken_charges>
24
1   -0.460677
2   -0.122647
3   -0.134504
4   -0.137213
5   -0.190834
6   -0.161785
7   -0.158986
8   0.031246
9   0.111975
10   0.436043
11   -0.48348
12   -0.62304
13   0.152098
14   0.142074
15   0.159311
16   0.131839
17   0.131421
18   0.133819
19   0.135788
20   0.163288
21   0.15143
22   0.144085
23   0.138352
24   0.310397

>  <lowdin_charges>
24
1   -0.458772
2   -0.151511
3   -0.154262
4   -0.155144
5   -0.162343
6   -0.133362
7   -0.20875
8   -0.067506
9   -0.018076
10   0.080019
11   -0.236384
12   -0.316049
13   0.156806
14   0.149231
15   0.155564
16   0.159424
17   0.156592
18   0.159699
19   0.159985
20   0.174996
21   0.149388
22   0.14701
23   0.143075
24   0.270371

$$$$

