PCCDB-ID:  10767
public computational chemistry database (PCCDB) project, http://pccdb.org

 38 38  0  0  1  0  0  0  0  0999 V2000
    0.9603    0.1492    0.6901 C   0  0  0  0  0  0  0  0  0  0  0  0
    2.1146   -2.4861   -0.4298 C   0  0  0  0  0  0  0  0  0  0  0  0
    2.6958    0.3389   -4.1934 C   0  0  0  0  0  0  0  0  0  0  0  0
    0.8327    1.3392   -3.0550 C   0  0  0  0  0  0  0  0  0  0  0  0
    2.3380    0.0143    0.0302 C   0  0  0  0  0  0  0  0  0  0  0  0
    8.7936   -1.3685   -2.3284 C   0  0  0  0  0  0  0  0  0  0  0  0
    8.0404   -0.5468   -1.4865 C   0  0  0  0  0  0  0  0  0  0  0  0
    8.1620   -2.3538   -3.0921 C   0  0  0  0  0  0  0  0  0  0  0  0
    6.6581   -0.7074   -1.4043 C   0  0  0  0  0  0  0  0  0  0  0  0
    6.7813   -2.5170   -3.0129 C   0  0  0  0  0  0  0  0  0  0  0  0
    1.6795   -0.8296   -2.2998 C   0  0  0  0  0  0  0  0  0  0  0  0
    6.0218   -1.6955   -2.1683 C   0  0  0  0  0  0  0  0  0  0  0  0
    4.5429   -1.9198   -2.1256 C   0  0  0  0  0  0  0  0  0  0  0  0
    2.4832   -1.1154   -1.0068 C   0  0  2  0  0  0  0  0  0  0  0  0
    1.9878    0.4620   -2.9246 N   0  0  0  0  0  0  0  0  0  0  0  0
    3.9813   -2.7696   -2.7965 O   0  0  0  0  0  0  0  0  0  0  0  0
    3.9337   -1.0725   -1.2777 O   0  0  0  0  0  0  0  0  0  0  0  0
    0.9562    1.0122    1.3650 H   0  0  0  0  0  0  0  0  0  0  0  0
    0.6988   -0.7314    1.2866 H   0  0  0  0  0  0  0  0  0  0  0  0
    0.1592    0.3063   -0.0410 H   0  0  0  0  0  0  0  0  0  0  0  0
    1.0502   -2.5156   -0.1754 H   0  0  0  0  0  0  0  0  0  0  0  0
    2.6870   -2.6795    0.4843 H   0  0  0  0  0  0  0  0  0  0  0  0
    2.3194   -3.2818   -1.1477 H   0  0  0  0  0  0  0  0  0  0  0  0
    3.0412    1.3276   -4.5166 H   0  0  0  0  0  0  0  0  0  0  0  0
    2.0678   -0.0834   -5.0025 H   0  0  0  0  0  0  0  0  0  0  0  0
    3.5704   -0.3048   -4.0810 H   0  0  0  0  0  0  0  0  0  0  0  0
    1.1565    2.3162   -3.4320 H   0  0  0  0  0  0  0  0  0  0  0  0
    0.3646    1.4994   -2.0786 H   0  0  0  0  0  0  0  0  0  0  0  0
    0.0595    0.9510   -3.7478 H   0  0  0  0  0  0  0  0  0  0  0  0
    3.0923   -0.1579    0.8077 H   0  0  0  0  0  0  0  0  0  0  0  0
    2.6065    0.9479   -0.4755 H   0  0  0  0  0  0  0  0  0  0  0  0
    9.8713   -1.2414   -2.3897 H   0  0  0  0  0  0  0  0  0  0  0  0
    8.5308    0.2200   -0.8929 H   0  0  0  0  0  0  0  0  0  0  0  0
    8.7467   -2.9934   -3.7475 H   0  0  0  0  0  0  0  0  0  0  0  0
    6.0665   -0.0720   -0.7554 H   0  0  0  0  0  0  0  0  0  0  0  0
    6.2690   -3.2747   -3.5965 H   0  0  0  0  0  0  0  0  0  0  0  0
    0.6176   -0.8664   -2.0242 H   0  0  0  0  0  0  0  0  0  0  0  0
    1.8454   -1.6550   -2.9998 H   0  0  0  0  0  0  0  0  0  0  0  0
  1 19  1  0  0  0  0
  1 18  1  0  0  0  0
  2 21  1  0  0  0  0
  2 22  1  0  0  0  0
  3 26  1  0  0  0  0
  3 15  1  0  0  0  0
  4 15  1  0  0  0  0
  4 28  1  0  0  0  0
  5  1  1  0  0  0  0
  5 30  1  0  0  0  0
  6  7  2  0  0  0  0
  7  9  1  0  0  0  0
  7 33  1  0  0  0  0
  8 10  2  0  0  0  0
  8  6  1  0  0  0  0
  9 35  1  0  0  0  0
 10 12  1  0  0  0  0
 11 37  1  0  0  0  0
 11 14  1  0  0  0  0
 12 13  1  0  0  0  0
 12  9  2  0  0  0  0
 13 17  1  0  0  0  0
 14 17  1  6  0  0  0
 14  2  1  0  0  0  0
 14  5  1  0  0  0  0
 15 11  1  0  0  0  0
 16 13  2  0  0  0  0
 20  1  1  0  0  0  0
 23  2  1  0  0  0  0
 24  3  1  0  0  0  0
 25  3  1  0  0  0  0
 27  4  1  0  0  0  0
 29  4  1  0  0  0  0
 31  5  1  0  0  0  0
 32  6  1  0  0  0  0
 34  8  1  0  0  0  0
 36 10  1  0  0  0  0
 38 11  1  0  0  0  0
M  END
>  <HBA>
3

>  <HBD>
0

>  <TPSA>
29.54

>  <cid>
10767

>  <dipole>
1.49

>  <excitation_energy_1>
3.743

>  <excitation_energy_2>
4.713

>  <excitation_energy_3>
4.833

>  <excitation_energy_4>
4.921

>  <homo_energy>
-5.567

>  <homo_lumo_gap>
4.476

>  <logP>
2.574

>  <lumo_energy>
-1.091

>  <melting_point>
38.94

>  <molecular_refractivity>
69.5

>  <oscillator_strength_1>
0.0002

>  <oscillator_strength_2>
0.0002

>  <oscillator_strength_3>
0.0007

>  <oscillator_strength_4>
0.0161

>  <open_babel_can_smiles>
CC[C@](OC(=O)c1ccccc1)(CN(C)C)C

>  <mulliken_charges>
38
1   -0.464706
2   -0.488978
3   -0.307014
4   -0.305154
5   -0.277292
6   -0.117617
7   -0.137492
8   -0.138408
9   -0.157985
10   -0.153072
11   -0.17811
12   0.047479
13   0.613596
14   0.342506
15   -0.364086
16   -0.510488
17   -0.521056
18   0.149928
19   0.149158
20   0.14661
21   0.147897
22   0.149695
23   0.187745
24   0.144961
25   0.119079
26   0.166265
27   0.147987
28   0.151056
29   0.119198
30   0.139726
31   0.165349
32   0.135012
33   0.134559
34   0.135831
35   0.157079
36   0.161038
37   0.134881
38   0.17482

>  <lowdin_charges>
38
1   -0.451652
2   -0.460571
3   -0.358014
4   -0.35789
5   -0.284476
6   -0.139761
7   -0.159227
8   -0.158881
9   -0.140983
10   -0.133727
11   -0.218474
12   -0.045713
13   0.197554
14   0.135715
15   -0.184812
16   -0.285663
17   -0.185939
18   0.156159
19   0.150132
20   0.146343
21   0.154847
22   0.156022
23   0.173898
24   0.147108
25   0.122209
26   0.158268
27   0.148722
28   0.147779
29   0.121155
30   0.149254
31   0.159924
32   0.158223
33   0.161107
34   0.162036
35   0.173878
36   0.177061
37   0.145483
38   0.162901

$$$$

