PCCDB-ID:  21525
public computational chemistry database (PCCDB) project, http://pccdb.org

 19 18  0  0  0  0  0  0  0  0999 V2000
    1.1700    0.0255    0.2941 C   0  0  0  0  0  0  0  0  0  0  0  0
    3.4536   -3.8288   -4.5568 C   0  0  0  0  0  0  0  0  0  0  0  0
    2.4628   -1.6125   -1.8029 C   0  0  0  0  0  0  0  0  0  0  0  0
    3.4246   -2.3352   -2.7396 C   0  0  0  0  0  0  0  0  0  0  0  0
    2.6524   -0.1182    0.0166 C   0  0  0  0  0  0  0  0  0  0  0  0
    3.2340   -0.8088   -0.8684 N   0  0  0  0  0  0  0  0  0  0  0  0
    3.4588    0.6026    0.8586 O   0  0  0  0  0  0  0  0  0  0  0  0
    2.6577   -3.1119   -3.6401 O   0  0  0  0  0  0  0  0  0  0  0  0
    0.5647   -0.4986   -0.4467 H   0  0  0  0  0  0  0  0  0  0  0  0
    0.8783    1.0835    0.2877 H   0  0  0  0  0  0  0  0  0  0  0  0
    0.9261   -0.3810    1.2842 H   0  0  0  0  0  0  0  0  0  0  0  0
    2.7762   -4.3932   -5.2038 H   0  0  0  0  0  0  0  0  0  0  0  0
    4.1305   -4.5338   -4.0466 H   0  0  0  0  0  0  0  0  0  0  0  0
    4.0656   -3.1567   -5.1805 H   0  0  0  0  0  0  0  0  0  0  0  0
    1.8464   -2.3677   -1.2925 H   0  0  0  0  0  0  0  0  0  0  0  0
    1.7808   -1.0017   -2.4138 H   0  0  0  0  0  0  0  0  0  0  0  0
    4.1088   -2.9698   -2.1525 H   0  0  0  0  0  0  0  0  0  0  0  0
    4.0434   -1.5991   -3.2788 H   0  0  0  0  0  0  0  0  0  0  0  0
    2.9065    1.0853    1.4920 H   0  0  0  0  0  0  0  0  0  0  0  0
  1 11  1  0  0  0  0
  2 13  1  0  0  0  0
  2  8  1  0  0  0  0
  3 15  1  0  0  0  0
  3  6  1  0  0  0  0
  4 17  1  0  0  0  0
  4  3  1  0  0  0  0
  5  1  1  0  0  0  0
  5  7  1  0  0  0  0
  6  5  2  0  0  0  0
  7 19  1  0  0  0  0
  8  4  1  0  0  0  0
  9  1  1  0  0  0  0
 10  1  1  0  0  0  0
 12  2  1  0  0  0  0
 14  2  1  0  0  0  0
 16  3  1  0  0  0  0
 18  4  1  0  0  0  0
M  END
>  <HBA>
3

>  <HBD>
1

>  <TPSA>
38.33

>  <cid>
21525

>  <dipole>
2.73

>  <excitation_energy_1>
5.684

>  <excitation_energy_2>
5.883

>  <excitation_energy_3>
5.904

>  <excitation_energy_4>
6.26

>  <homo_energy>
-6.672

>  <homo_lumo_gap>
7.23

>  <logP>
0.16

>  <lumo_energy>
0.558

>  <melting_point>
13.72

>  <molecular_refractivity>
30.24

>  <oscillator_strength_1>
0.0002

>  <oscillator_strength_2>
0.0046

>  <oscillator_strength_3>
0.004

>  <oscillator_strength_4>
0.0001

>  <open_babel_can_smiles>
COCC/N=C(/O)\C

>  <mulliken_charges>
19
1   -0.564965
2   -0.187605
3   -0.161467
4   -0.007158
5   0.502547
6   -0.424553
7   -0.579846
8   -0.470635
9   0.188298
10   0.170573
11   0.177158
12   0.153953
13   0.129134
14   0.129188
15   0.143169
16   0.143404
17   0.127748
18   0.127852
19   0.403207

>  <lowdin_charges>
19
1   -0.484219
2   -0.283197
3   -0.210327
4   -0.136733
5   0.131097
6   -0.209411
7   -0.371386
8   -0.274239
9   0.178031
10   0.166036
11   0.170262
12   0.154238
13   0.132327
14   0.132641
15   0.142499
16   0.142681
17   0.132575
18   0.132427
19   0.354698

$$$$

