PCCDB-ID:  69244
public computational chemistry database (PCCDB) project, http://pccdb.org

 18 17  0  0  0  0  0  0  0  0999 V2000
    2.8789   -0.1894   -1.6056 C   0  0  0  0  0  0  0  0  0  0  0  0
    2.9309    2.6624    2.6969 C   0  0  0  0  0  0  0  0  0  0  0  0
    2.4322   -0.0326   -0.1499 C   0  0  0  0  0  0  0  0  0  0  0  0
    2.4570    1.3884    1.9928 C   0  0  0  0  0  0  0  0  0  0  0  0
    4.4857    1.1589    0.5782 C   0  0  0  0  0  0  0  0  0  0  0  0
    3.0145    1.2146    0.5591 C   0  0  0  0  0  0  0  0  0  0  0  0
    5.6455    1.0993    0.6033 N   0  0  0  0  0  0  0  0  0  0  0  0
    2.4317   -1.0836   -2.0526 H   0  0  0  0  0  0  0  0  0  0  0  0
    3.9674   -0.2849   -1.6805 H   0  0  0  0  0  0  0  0  0  0  0  0
    2.5746    0.6737   -2.2100 H   0  0  0  0  0  0  0  0  0  0  0  0
    2.4978    2.7333    3.7003 H   0  0  0  0  0  0  0  0  0  0  0  0
    2.6320    3.5588    2.1403 H   0  0  0  0  0  0  0  0  0  0  0  0
    4.0213    2.6787    2.7993 H   0  0  0  0  0  0  0  0  0  0  0  0
    2.7073   -0.9246    0.4269 H   0  0  0  0  0  0  0  0  0  0  0  0
    1.3389    0.0490   -0.1009 H   0  0  0  0  0  0  0  0  0  0  0  0
    1.3623    1.3887    1.9159 H   0  0  0  0  0  0  0  0  0  0  0  0
    2.7306    0.5064    2.5853 H   0  0  0  0  0  0  0  0  0  0  0  0
    2.7402    2.1042   -0.0275 H   0  0  0  0  0  0  0  0  0  0  0  0
  1  3  1  0  0  0  0
  2 13  1  0  0  0  0
  2 11  1  0  0  0  0
  3 15  1  0  0  0  0
  3 14  1  0  0  0  0
  3  6  1  0  0  0  0
  4 17  1  0  0  0  0
  4  2  1  0  0  0  0
  5  7  3  0  0  0  0
  6  5  1  0  0  0  0
  6  4  1  0  0  0  0
  8  1  1  0  0  0  0
  9  1  1  0  0  0  0
 10  1  1  0  0  0  0
 12  2  1  0  0  0  0
 16  4  1  0  0  0  0
 18  6  1  0  0  0  0
M  END
>  <HBA>
1

>  <HBD>
0

>  <TPSA>
23.79

>  <cid>
69244

>  <dipole>
3.85

>  <excitation_energy_1>
7.438

>  <excitation_energy_2>
7.656

>  <excitation_energy_3>
7.692

>  <excitation_energy_4>
8.118

>  <homo_energy>
-8.534

>  <homo_lumo_gap>
9.478

>  <logP>
1.946

>  <lumo_energy>
0.944

>  <melting_point>
7.34

>  <molecular_refractivity>
30.7

>  <oscillator_strength_1>
0.0014

>  <oscillator_strength_2>
0.0045

>  <oscillator_strength_3>
0.0095

>  <oscillator_strength_4>
0.0346

>  <open_babel_can_smiles>
CCC(C#N)CC

>  <mulliken_charges>
18
1   -0.45708
2   -0.457313
3   -0.255062
4   -0.254774
5   0.357338
6   -0.159829
7   -0.487145
8   0.152547
9   0.173093
10   0.146203
11   0.152588
12   0.146226
13   0.17313
14   0.153121
15   0.145257
16   0.145259
17   0.15303
18   0.17341

>  <lowdin_charges>
18
1   -0.44752
2   -0.446144
3   -0.262545
4   -0.262222
5   -0.018208
6   -0.128516
7   -0.137273
8   0.15709
9   0.160534
10   0.150247
11   0.155906
12   0.150021
13   0.160506
14   0.152652
15   0.146936
16   0.146903
17   0.152627
18   0.169004

$$$$

