PCCDB-ID:  31138
public computational chemistry database (PCCDB) project, http://pccdb.org

 23 22  0  0  0  0  0  0  0  0999 V2000
    2.6578    0.2317    4.0573 C   0  0  0  0  0  0  0  0  0  0  0  0
    6.6076    0.0530   -1.6558 C   0  0  0  0  0  0  0  0  0  0  0  0
    4.6070   -0.1695   -3.2274 C   0  0  0  0  0  0  0  0  0  0  0  0
    3.8479    0.2229    3.0939 C   0  0  0  0  0  0  0  0  0  0  0  0
    3.4280    0.0752    1.6319 C   0  0  0  0  0  0  0  0  0  0  0  0
    4.2390   -0.0531   -0.7785 C   0  0  0  0  0  0  0  0  0  0  0  0
    5.1101   -0.0528   -1.8126 C   0  0  0  0  0  0  0  0  0  0  0  0
    4.5998    0.0533    0.6508 C   0  0  0  0  0  0  0  0  0  0  0  0
    5.7595    0.1180    1.0473 O   0  0  0  0  0  0  0  0  0  0  0  0
    2.9914    0.3397    5.0955 H   0  0  0  0  0  0  0  0  0  0  0  0
    2.0796   -0.6987    3.9901 H   0  0  0  0  0  0  0  0  0  0  0  0
    1.9712    1.0606    3.8425 H   0  0  0  0  0  0  0  0  0  0  0  0
    7.0982    0.1426   -2.6307 H   0  0  0  0  0  0  0  0  0  0  0  0
    7.0089   -0.8279   -1.1419 H   0  0  0  0  0  0  0  0  0  0  0  0
    6.8847    0.9056   -1.0298 H   0  0  0  0  0  0  0  0  0  0  0  0
    4.9137    0.7052   -3.8173 H   0  0  0  0  0  0  0  0  0  0  0  0
    3.5181   -0.2590   -3.2785 H   0  0  0  0  0  0  0  0  0  0  0  0
    5.0521   -1.0442   -3.7215 H   0  0  0  0  0  0  0  0  0  0  0  0
    4.5352   -0.5921    3.3496 H   0  0  0  0  0  0  0  0  0  0  0  0
    4.4300    1.1456    3.2051 H   0  0  0  0  0  0  0  0  0  0  0  0
    2.7467    0.8886    1.3359 H   0  0  0  0  0  0  0  0  0  0  0  0
    2.8458   -0.8488    1.4853 H   0  0  0  0  0  0  0  0  0  0  0  0
    3.1749   -0.1311   -0.9976 H   0  0  0  0  0  0  0  0  0  0  0  0
  1 10  1  0  0  0  0
  2 14  1  0  0  0  0
  2 15  1  0  0  0  0
  3  7  1  0  0  0  0
  4 20  1  0  0  0  0
  4 19  1  0  0  0  0
  4  1  1  0  0  0  0
  5  4  1  0  0  0  0
  6  8  1  0  0  0  0
  7  2  1  0  0  0  0
  7  6  2  0  0  0  0
  8  9  2  0  0  0  0
  8  5  1  0  0  0  0
 11  1  1  0  0  0  0
 12  1  1  0  0  0  0
 13  2  1  0  0  0  0
 16  3  1  0  0  0  0
 17  3  1  0  0  0  0
 18  3  1  0  0  0  0
 21  5  1  0  0  0  0
 22  5  1  0  0  0  0
 23  6  1  0  0  0  0
M  END
>  <HBA>
1

>  <HBD>
0

>  <TPSA>
17.07

>  <cid>
31138

>  <dipole>
2.54

>  <excitation_energy_1>
3.693

>  <excitation_energy_2>
5.491

>  <excitation_energy_3>
5.966

>  <excitation_energy_4>
6.298

>  <homo_energy>
-6.338

>  <homo_lumo_gap>
5.23

>  <logP>
2.322

>  <lumo_energy>
-1.108

>  <melting_point>
6.71

>  <molecular_refractivity>
40.3

>  <oscillator_strength_1>
0.0001

>  <oscillator_strength_2>
0.4126

>  <oscillator_strength_3>
0.0268

>  <oscillator_strength_4>
0.001

>  <open_babel_can_smiles>
CCCC(=O)C=C(C)C

>  <mulliken_charges>
23
1   -0.445677
2   -0.498703
3   -0.518348
4   -0.239353
5   -0.358756
6   -0.230208
7   0.199541
8   0.43951
9   -0.488144
10   0.145008
11   0.138553
12   0.138423
13   0.137675
14   0.182293
15   0.188735
16   0.165838
17   0.158349
18   0.166158
19   0.149504
20   0.147651
21   0.152737
22   0.153754
23   0.115459

>  <lowdin_charges>
23
1   -0.444527
2   -0.44725
3   -0.440013
4   -0.269174
5   -0.308982
6   -0.243572
7   0.063458
8   0.153736
9   -0.260941
10   0.149722
11   0.144708
12   0.145143
13   0.147568
14   0.177924
15   0.180442
16   0.16433
17   0.155376
18   0.164519
19   0.151767
20   0.150161
21   0.157316
22   0.157558
23   0.150728

$$$$

