PCCDB-ID:  45693
public computational chemistry database (PCCDB) project, http://pccdb.org

 29 29  0  0  0  0  0  0  0  0999 V2000
    3.5101    1.7122    0.4139 C   0  0  0  0  0  0  0  0  0  0  0  0
    1.0817    1.0707    0.2101 C   0  0  0  0  0  0  0  0  0  0  0  0
    2.7061    0.4336   -1.6077 C   0  0  0  0  0  0  0  0  0  0  0  0
    8.4206   -3.5255    3.2821 C   0  0  0  0  0  0  0  0  0  0  0  0
    7.1122   -2.9485    3.1279 C   0  0  0  0  0  0  0  0  0  0  0  0
    9.0011   -3.5339    2.0558 C   0  0  0  0  0  0  0  0  0  0  0  0
    2.7697   -0.6832    0.6546 C   0  0  0  0  0  0  0  0  0  0  0  0
    7.0094   -2.6531    1.8008 C   0  0  0  0  0  0  0  0  0  0  0  0
    4.8029   -1.6659    1.4417 C   0  0  0  0  0  0  0  0  0  0  0  0
    2.5296    0.6381   -0.0915 C   0  0  0  0  0  0  0  0  0  0  0  0
    6.0301   -2.0877    0.9932 N   0  0  0  0  0  0  0  0  0  0  0  0
    4.4180   -1.7274    2.5923 O   0  0  0  0  0  0  0  0  0  0  0  0
    8.1375   -2.9967    1.1246 O   0  0  0  0  0  0  0  0  0  0  0  0
    4.1028   -1.1721    0.3876 O   0  0  0  0  0  0  0  0  0  0  0  0
    3.3367    2.6653   -0.0994 H   0  0  0  0  0  0  0  0  0  0  0  0
    4.5486    1.4166    0.2323 H   0  0  0  0  0  0  0  0  0  0  0  0
    3.3905    1.8837    1.4906 H   0  0  0  0  0  0  0  0  0  0  0  0
    0.8493    2.0118   -0.3013 H   0  0  0  0  0  0  0  0  0  0  0  0
    0.9249    1.2271    1.2843 H   0  0  0  0  0  0  0  0  0  0  0  0
    0.3585    0.3197   -0.1312 H   0  0  0  0  0  0  0  0  0  0  0  0
    2.5187    1.3688   -2.1483 H   0  0  0  0  0  0  0  0  0  0  0  0
    2.0066   -0.3202   -1.9900 H   0  0  0  0  0  0  0  0  0  0  0  0
    3.7218    0.1023   -1.8463 H   0  0  0  0  0  0  0  0  0  0  0  0
    8.8628   -3.8827    4.2019 H   0  0  0  0  0  0  0  0  0  0  0  0
    6.3575   -2.7775    3.8774 H   0  0  0  0  0  0  0  0  0  0  0  0
    9.9523   -3.8602    1.6671 H   0  0  0  0  0  0  0  0  0  0  0  0
    2.0690   -1.4541    0.3110 H   0  0  0  0  0  0  0  0  0  0  0  0
    2.6540   -0.5616    1.7342 H   0  0  0  0  0  0  0  0  0  0  0  0
    6.2371   -1.9931    0.0083 H   0  0  0  0  0  0  0  0  0  0  0  0
  1 17  1  0  0  0  0
  2 19  1  0  0  0  0
  3 10  1  0  0  0  0
  4 24  1  0  0  0  0
  5  4  1  0  0  0  0
  5 25  1  0  0  0  0
  6  4  2  0  0  0  0
  7 28  1  0  0  0  0
  8  5  2  0  0  0  0
  9 12  2  0  0  0  0
 10  2  1  0  0  0  0
 10  1  1  0  0  0  0
 10  7  1  0  0  0  0
 11  9  1  0  0  0  0
 11  8  1  0  0  0  0
 13  8  1  0  0  0  0
 13  6  1  0  0  0  0
 14  7  1  0  0  0  0
 14  9  1  0  0  0  0
 15  1  1  0  0  0  0
 16  1  1  0  0  0  0
 18  2  1  0  0  0  0
 20  2  1  0  0  0  0
 21  3  1  0  0  0  0
 22  3  1  0  0  0  0
 23  3  1  0  0  0  0
 26  6  1  0  0  0  0
 27  7  1  0  0  0  0
 29 11  1  0  0  0  0
M  END
>  <HBA>
4

>  <HBD>
1

>  <TPSA>
51.47

>  <cid>
45693

>  <dipole>
2.02

>  <excitation_energy_1>
4.933

>  <excitation_energy_2>
5.218

>  <excitation_energy_3>
5.388

>  <excitation_energy_4>
5.536

>  <homo_energy>
-5.396

>  <homo_lumo_gap>
5.763

>  <logP>
2.947

>  <lumo_energy>
0.367

>  <melting_point>
75.24

>  <molecular_refractivity>
53.46

>  <oscillator_strength_1>
0.0021

>  <oscillator_strength_2>
0.4949

>  <oscillator_strength_3>
0.0087

>  <oscillator_strength_4>
0.0042

>  <open_babel_can_smiles>
O=C(Nc1ccco1)OCC(C)(C)C

>  <mulliken_charges>
29
1   -0.448482
2   -0.449984
3   -0.443944
4   -0.188427
5   -0.171286
6   0.075622
7   -0.036218
8   0.546781
9   0.807011
10   0.071724
11   -0.736951
12   -0.498717
13   -0.463884
14   -0.509505
15   0.141966
16   0.151186
17   0.145415
18   0.148144
19   0.146203
20   0.142108
21   0.141545
22   0.137732
23   0.152437
24   0.141363
25   0.168695
26   0.152858
27   0.143212
28   0.178608
29   0.354786

>  <lowdin_charges>
29
1   -0.441802
2   -0.441644
3   -0.445473
4   -0.191882
5   -0.240439
6   -0.098829
7   -0.128251
8   0.121746
9   0.215612
10   0.005809
11   -0.231704
12   -0.293344
13   -0.115684
14   -0.210828
15   0.149861
16   0.151664
17   0.149075
18   0.153699
19   0.149024
20   0.149593
21   0.149451
22   0.148071
23   0.152627
24   0.17004
25   0.187056
26   0.170963
27   0.147363
28   0.163041
29   0.305184

$$$$

