PCCDB-ID:  50863
public computational chemistry database (PCCDB) project, http://pccdb.org

 32 32  0  0  1  0  0  0  0  0999 V2000
    2.1453   -2.9620    1.9802 C   0  0  0  0  0  0  0  0  0  0  0  0
    2.2853   -1.9356    3.1103 C   0  0  0  0  0  0  0  0  0  0  0  0
    7.3164    4.0248   -1.3034 C   0  0  0  0  0  0  0  0  0  0  0  0
    7.9454    2.7757   -1.3434 C   0  0  0  0  0  0  0  0  0  0  0  0
    6.1455    4.1724   -0.5638 C   0  0  0  0  0  0  0  0  0  0  0  0
    2.8359   -0.5677    2.6661 C   0  0  0  0  0  0  0  0  0  0  0  0
    7.4103    1.6927   -0.6546 C   0  0  0  0  0  0  0  0  0  0  0  0
    5.5941    3.0932    0.1346 C   0  0  0  0  0  0  0  0  0  0  0  0
    4.5602    0.7972    1.4733 C   0  0  0  0  0  0  0  0  0  0  0  0
    4.2657   -0.5728    2.0900 C   0  0  1  0  0  0  0  0  0  0  0  0
    6.2308    1.8477    0.0880 C   0  0  0  0  0  0  0  0  0  0  0  0
    6.4602   -1.4630    2.5997 N   0  0  0  0  0  0  0  0  0  0  0  0
    5.2259   -0.8679    3.1630 N   0  0  0  0  0  0  0  0  0  0  0  0
    5.7800    0.7247    0.7292 O   0  0  0  0  0  0  0  0  0  0  0  0
    1.6752   -3.8820    2.3453 H   0  0  0  0  0  0  0  0  0  0  0  0
    3.1164   -3.2359    1.5537 H   0  0  0  0  0  0  0  0  0  0  0  0
    1.5223   -2.5699    1.1665 H   0  0  0  0  0  0  0  0  0  0  0  0
    2.9066   -2.3583    3.9123 H   0  0  0  0  0  0  0  0  0  0  0  0
    1.3016   -1.7653    3.5669 H   0  0  0  0  0  0  0  0  0  0  0  0
    7.7361    4.8689   -1.8427 H   0  0  0  0  0  0  0  0  0  0  0  0
    8.8600    2.6437   -1.9155 H   0  0  0  0  0  0  0  0  0  0  0  0
    5.6449    5.1364   -0.5233 H   0  0  0  0  0  0  0  0  0  0  0  0
    2.8130    0.1246    3.5189 H   0  0  0  0  0  0  0  0  0  0  0  0
    2.1583   -0.1548    1.9069 H   0  0  0  0  0  0  0  0  0  0  0  0
    7.8861    0.7170   -0.6794 H   0  0  0  0  0  0  0  0  0  0  0  0
    4.6833    3.2330    0.7050 H   0  0  0  0  0  0  0  0  0  0  0  0
    4.6513    1.5443    2.2726 H   0  0  0  0  0  0  0  0  0  0  0  0
    3.7447    1.0915    0.7979 H   0  0  0  0  0  0  0  0  0  0  0  0
    4.3357   -1.3208    1.2812 H   0  0  0  0  0  0  0  0  0  0  0  0
    7.1727   -1.2372    3.2982 H   0  0  0  0  0  0  0  0  0  0  0  0
    6.6948   -0.8527    1.8155 H   0  0  0  0  0  0  0  0  0  0  0  0
    4.8302   -1.6438    3.6928 H   0  0  0  0  0  0  0  0  0  0  0  0
  1 15  1  0  0  0  0
  1  2  1  0  0  0  0
  2 19  1  0  0  0  0
  2 18  1  0  0  0  0
  3  5  1  0  0  0  0
  4  3  2  0  0  0  0
  4  7  1  0  0  0  0
  5 22  1  0  0  0  0
  5  8  2  0  0  0  0
  6  2  1  0  0  0  0
  6 23  1  0  0  0  0
  7 11  2  0  0  0  0
  8 26  1  0  0  0  0
  9 10  1  0  0  0  0
  9 27  1  0  0  0  0
 10 29  1  6  0  0  0
 10  6  1  0  0  0  0
 10 13  1  0  0  0  0
 11  8  1  0  0  0  0
 11 14  1  0  0  0  0
 12 13  1  0  0  0  0
 12 30  1  0  0  0  0
 13 32  1  0  0  0  0
 14  9  1  0  0  0  0
 16  1  1  0  0  0  0
 17  1  1  0  0  0  0
 20  3  1  0  0  0  0
 21  4  1  0  0  0  0
 24  6  1  0  0  0  0
 25  7  1  0  0  0  0
 28  9  1  0  0  0  0
 31 12  1  0  0  0  0
M  END
>  <HBA>
3

>  <HBD>
2

>  <TPSA>
47.28

>  <cid>
50863

>  <dipole>
1.61

>  <excitation_energy_1>
4.654

>  <excitation_energy_2>
4.941

>  <excitation_energy_3>
5.029

>  <excitation_energy_4>
5.075

>  <homo_energy>
-5.2

>  <homo_lumo_gap>
5.216

>  <logP>
2.789

>  <lumo_energy>
0.016

>  <melting_point>
87.19

>  <molecular_refractivity>
57.67

>  <oscillator_strength_1>
0.0015

>  <oscillator_strength_2>
0.004

>  <oscillator_strength_3>
0.0062

>  <oscillator_strength_4>
0.0281

>  <open_babel_can_smiles>
CCC[C@@H](COc1ccccc1)NN

>  <mulliken_charges>
32
1   -0.448066
2   -0.262332
3   -0.132038
4   -0.133305
5   -0.138399
6   -0.284158
7   -0.178654
8   -0.1912
9   -0.010079
10   0.008173
11   0.382319
12   -0.621978
13   -0.481446
14   -0.54384
15   0.146615
16   0.161237
17   0.142532
18   0.134519
19   0.139576
20   0.1261
21   0.131007
22   0.130066
23   0.146035
24   0.135511
25   0.136382
26   0.135495
27   0.1494
28   0.135103
29   0.136929
30   0.30151
31   0.33014
32   0.316847

>  <lowdin_charges>
32
1   -0.449851
2   -0.275796
3   -0.179326
4   -0.145486
5   -0.145724
6   -0.284125
7   -0.18545
8   -0.211708
9   -0.135527
10   -0.081731
11   0.102702
12   -0.512051
13   -0.320567
14   -0.2065
15   0.15286
16   0.154092
17   0.148092
18   0.139881
19   0.146901
20   0.15807
21   0.158663
22   0.157654
23   0.150288
24   0.147597
25   0.164071
26   0.163112
27   0.146569
28   0.140587
29   0.135522
30   0.25358
31   0.259802
32   0.253798

$$$$

