PCCDB-ID:  8079
public computational chemistry database (PCCDB) project, http://pccdb.org

 16 16  0  0  0  0  0  0  0  0999 V2000
   -1.3549   -0.3976    0.0569 C   0  0  0  0  0  0  0  0  0  0  0  0
   -0.4231   -1.3502   -0.0521 C   0  0  0  0  0  0  0  0  0  0  0  0
   -1.0395    1.0781    0.1008 C   0  0  0  0  0  0  0  0  0  0  0  0
    1.0583   -1.0649   -0.1099 C   0  0  0  0  0  0  0  0  0  0  0  0
    0.4094    1.3730   -0.3216 C   0  0  0  0  0  0  0  0  0  0  0  0
    1.3843    0.3751    0.3185 C   0  0  0  0  0  0  0  0  0  0  0  0
   -2.4057   -0.6799    0.1169 H   0  0  0  0  0  0  0  0  0  0  0  0
   -0.7279   -2.3954   -0.0998 H   0  0  0  0  0  0  0  0  0  0  0  0
   -1.2220    1.4613    1.1177 H   0  0  0  0  0  0  0  0  0  0  0  0
   -1.7394    1.6252   -0.5463 H   0  0  0  0  0  0  0  0  0  0  0  0
    1.4270   -1.2466   -1.1324 H   0  0  0  0  0  0  0  0  0  0  0  0
    1.5987   -1.7799    0.5261 H   0  0  0  0  0  0  0  0  0  0  0  0
    0.6789    2.4022   -0.0545 H   0  0  0  0  0  0  0  0  0  0  0  0
    0.4881    1.2997   -1.4153 H   0  0  0  0  0  0  0  0  0  0  0  0
    2.4200    0.6231    0.0555 H   0  0  0  0  0  0  0  0  0  0  0  0
    1.3090    0.4513    1.4123 H   0  0  0  0  0  0  0  0  0  0  0  0
  1  3  1  0  0  0  0
  1  7  1  0  0  0  0
  2  1  2  0  0  0  0
  3  9  1  0  0  0  0
  4  2  1  0  0  0  0
  4  6  1  0  0  0  0
  4 12  1  0  0  0  0
  5 13  1  0  0  0  0
  5  3  1  0  0  0  0
  5  6  1  0  0  0  0
  6 16  1  0  0  0  0
  8  2  1  0  0  0  0
 10  3  1  0  0  0  0
 11  4  1  0  0  0  0
 14  5  1  0  0  0  0
 15  6  1  0  0  0  0
M  END
>  <HBA>
0

>  <HBD>
0

>  <TPSA>
0.0

>  <cid>
8079

>  <dipole>
0.23

>  <excitation_energy_1>
5.871

>  <excitation_energy_2>
6.459

>  <excitation_energy_3>
6.542

>  <excitation_energy_4>
6.659

>  <homo_energy>
-6.351

>  <homo_lumo_gap>
7.285

>  <logP>
2.117

>  <lumo_energy>
0.933

>  <melting_point>
5.81

>  <molecular_refractivity>
28.37

>  <oscillator_strength_1>
0.009

>  <oscillator_strength_2>
0.0356

>  <oscillator_strength_3>
0.0001

>  <oscillator_strength_4>
0.0126

>  <open_babel_can_smiles>
C1CCC=CC1

>  <mulliken_charges>
16
1   -0.105051
2   -0.105615
3   -0.294388
4   -0.294121
5   -0.262915
6   -0.263001
7   0.116944
8   0.117009
9   0.142287
10   0.13879
11   0.142325
12   0.138511
13   0.129417
14   0.135214
15   0.129286
16   0.135307

>  <lowdin_charges>
16
1   -0.175238
2   -0.17554
3   -0.277747
4   -0.277628
5   -0.272066
6   -0.271847
7   0.147842
8   0.14797
9   0.146139
10   0.150018
11   0.146071
12   0.14986
13   0.142028
14   0.139114
15   0.141851
16   0.139172

$$$$

