PCCDB-ID:  40981
public computational chemistry database (PCCDB) project, http://pccdb.org

 24 24  0  0  1  0  0  0  0  0999 V2000
    0.8988    0.0520    0.1116 C   0  0  0  0  0  0  0  0  0  0  0  0
    2.8058    0.0840   -1.5147 C   0  0  0  0  0  0  0  0  0  0  0  0
    2.6123   -2.6604   -0.1058 C   0  0  0  0  0  0  0  0  0  0  0  0
    4.4978   -1.2523    0.8089 C   0  0  0  0  0  0  0  0  0  0  0  0
    4.3267    1.0672    0.9021 C   0  0  0  0  0  0  0  0  0  0  0  0
    2.4165   -0.0707   -0.0346 C   0  0  0  0  0  0  0  0  0  0  0  0
    2.9696   -1.3779    0.6403 C   0  0  1  0  0  0  0  0  0  0  0  0
    2.4077   -1.5057    1.9473 O   0  0  0  0  0  0  0  0  0  0  0  0
    4.8057   -0.0819    1.5665 O   0  0  0  0  0  0  0  0  0  0  0  0
    2.9324    1.0505    0.7432 O   0  0  0  0  0  0  0  0  0  0  0  0
    0.3826   -0.7176   -0.4707 H   0  0  0  0  0  0  0  0  0  0  0  0
    0.5773    1.0328   -0.2533 H   0  0  0  0  0  0  0  0  0  0  0  0
    0.6088   -0.0520    1.1581 H   0  0  0  0  0  0  0  0  0  0  0  0
    2.2562   -0.6337   -2.1313 H   0  0  0  0  0  0  0  0  0  0  0  0
    3.8721   -0.0626   -1.7112 H   0  0  0  0  0  0  0  0  0  0  0  0
    2.5378    1.0920   -1.8473 H   0  0  0  0  0  0  0  0  0  0  0  0
    3.0463   -2.6851   -1.1100 H   0  0  0  0  0  0  0  0  0  0  0  0
    1.5272   -2.7696   -0.1908 H   0  0  0  0  0  0  0  0  0  0  0  0
    2.9896   -3.5210    0.4564 H   0  0  0  0  0  0  0  0  0  0  0  0
    5.0231   -1.2273   -0.1584 H   0  0  0  0  0  0  0  0  0  0  0  0
    4.8667   -2.1030    1.3872 H   0  0  0  0  0  0  0  0  0  0  0  0
    4.8383    1.1723   -0.0698 H   0  0  0  0  0  0  0  0  0  0  0  0
    4.5583    1.9230    1.5391 H   0  0  0  0  0  0  0  0  0  0  0  0
    2.7459   -0.7458    2.4526 H   0  0  0  0  0  0  0  0  0  0  0  0
  1 13  1  0  0  0  0
  2  6  1  0  0  0  0
  3 19  1  0  0  0  0
  3  7  1  0  0  0  0
  4 21  1  0  0  0  0
  4  9  1  0  0  0  0
  5 23  1  0  0  0  0
  5  9  1  0  0  0  0
  6  1  1  0  0  0  0
  6  7  1  0  0  0  0
  6 10  1  0  0  0  0
  7  4  1  0  0  0  0
  7  8  1  1  0  0  0
  8 24  1  0  0  0  0
 10  5  1  0  0  0  0
 11  1  1  0  0  0  0
 12  1  1  0  0  0  0
 14  2  1  0  0  0  0
 15  2  1  0  0  0  0
 16  2  1  0  0  0  0
 17  3  1  0  0  0  0
 18  3  1  0  0  0  0
 20  4  1  0  0  0  0
 22  5  1  0  0  0  0
M  END
>  <HBA>
3

>  <HBD>
1

>  <TPSA>
38.69

>  <cid>
40981

>  <dipole>
2.22

>  <excitation_energy_1>
6.328

>  <excitation_energy_2>
6.762

>  <excitation_energy_3>
6.838

>  <excitation_energy_4>
6.903

>  <homo_energy>
-6.716

>  <homo_lumo_gap>
8.735

>  <logP>
0.52

>  <lumo_energy>
2.019

>  <melting_point>
18.12

>  <molecular_refractivity>
37.06

>  <oscillator_strength_1>
0.0069

>  <oscillator_strength_2>
0.0015

>  <oscillator_strength_3>
0.0192

>  <oscillator_strength_4>
0.0355

>  <open_babel_can_smiles>
CC1(C)OCOC[C@@]1(C)O

>  <mulliken_charges>
24
1   -0.451089
2   -0.480487
3   -0.469462
4   -0.064206
5   0.172801
6   0.285806
7   0.281856
8   -0.645782
9   -0.474345
10   -0.504609
11   0.139732
12   0.149476
13   0.170402
14   0.153972
15   0.145146
16   0.160502
17   0.145066
18   0.163848
19   0.160193
20   0.124781
21   0.160088
22   0.118222
23   0.157668
24   0.400419

>  <lowdin_charges>
24
1   -0.44584
2   -0.461553
3   -0.445814
4   -0.155853
5   -0.02859
6   0.110896
7   0.092114
8   -0.455593
9   -0.268611
10   -0.272785
11   0.15273
12   0.156106
13   0.165223
14   0.160602
15   0.146733
16   0.161276
17   0.152797
18   0.16076
19   0.162807
20   0.132317
21   0.160702
22   0.118385
23   0.156716
24   0.344476

$$$$

