PCCDB-ID:  20894
public computational chemistry database (PCCDB) project, http://pccdb.org

 26 25  0  0  0  0  0  0  0  0999 V2000
    0.2521    0.3411    0.9642 C   0  0  0  0  0  0  0  0  0  0  0  0
    1.7216   -0.2603    2.9218 C   0  0  0  0  0  0  0  0  0  0  0  0
    0.9820   -2.0303    1.2738 C   0  0  0  0  0  0  0  0  0  0  0  0
    5.1821   -2.5825    1.5866 C   0  0  0  0  0  0  0  0  0  0  0  0
    3.8876   -0.5469    0.8245 C   0  0  0  0  0  0  0  0  0  0  0  0
    1.4041   -0.5589    1.4444 C   0  0  0  0  0  0  0  0  0  0  0  0
    5.2608   -3.8470    1.3856 N   0  0  0  0  0  0  0  0  0  0  0  0
    6.0651   -1.7785    2.3022 N   0  0  0  0  0  0  0  0  0  0  0  0
    4.7759    0.3849    0.8164 N   0  0  0  0  0  0  0  0  0  0  0  0
    4.0909   -1.9187    1.0189 N   0  0  0  0  0  0  0  0  0  0  0  0
    2.5588   -0.2173    0.5596 N   0  0  0  0  0  0  0  0  0  0  0  0
   -0.6564    0.1413    1.5412 H   0  0  0  0  0  0  0  0  0  0  0  0
    0.0356    0.1615   -0.0945 H   0  0  0  0  0  0  0  0  0  0  0  0
    0.5010    1.4024    1.0902 H   0  0  0  0  0  0  0  0  0  0  0  0
    0.8505   -0.4630    3.5559 H   0  0  0  0  0  0  0  0  0  0  0  0
    2.0058    0.7895    3.0557 H   0  0  0  0  0  0  0  0  0  0  0  0
    2.5470   -0.8861    3.2781 H   0  0  0  0  0  0  0  0  0  0  0  0
    0.0172   -2.2002    1.7650 H   0  0  0  0  0  0  0  0  0  0  0  0
    1.6998   -2.7214    1.7246 H   0  0  0  0  0  0  0  0  0  0  0  0
    0.8700   -2.2775    0.2122 H   0  0  0  0  0  0  0  0  0  0  0  0
    6.0607   -4.2489    1.8765 H   0  0  0  0  0  0  0  0  0  0  0  0
    6.6523   -2.2851    2.9519 H   0  0  0  0  0  0  0  0  0  0  0  0
    5.6864   -0.9195    2.6854 H   0  0  0  0  0  0  0  0  0  0  0  0
    5.7171   -0.0084    0.7811 H   0  0  0  0  0  0  0  0  0  0  0  0
    3.4725   -2.5519    0.5298 H   0  0  0  0  0  0  0  0  0  0  0  0
    2.5533    0.7698    0.3187 H   0  0  0  0  0  0  0  0  0  0  0  0
  1 14  1  0  0  0  0
  1  6  1  0  0  0  0
  1 12  1  0  0  0  0
  2 16  1  0  0  0  0
  2 17  1  0  0  0  0
  2 15  1  0  0  0  0
  3  6  1  0  0  0  0
  3 19  1  0  0  0  0
  3 18  1  0  0  0  0
  4  8  2  0  0  0  0
  5 10  1  0  0  0  0
  6  2  1  0  0  0  0
  7  4  1  0  0  0  0
  7 21  1  0  0  0  0
  8 23  1  0  0  0  0
  8 22  1  0  0  0  0
  9  5  2  0  0  0  0
 10  4  1  0  0  0  0
 11  5  1  0  0  0  0
 11  6  1  0  0  0  0
 13  1  1  0  0  0  0
 20  3  1  0  0  0  0
 24  9  1  0  0  0  0
 25 10  1  0  0  0  0
 26 11  1  0  0  0  0
M  RAD  1   7   2
M  END
>  <HBA>
5

>  <HBD>
3

>  <TPSA>
102.78

>  <cid>
20894

>  <dipole>
2.81

>  <excitation_energy_1>
5.302

>  <excitation_energy_2>
5.703

>  <excitation_energy_3>
5.819

>  <excitation_energy_4>
6.015

>  <homo_energy>
-6.079

>  <homo_lumo_gap>
6.602

>  <logP>
1.474

>  <lumo_energy>
0.522

>  <melting_point>
182.93

>  <molecular_refractivity>
46.49

>  <oscillator_strength_1>
0.0076

>  <oscillator_strength_2>
0.0045

>  <oscillator_strength_3>
0.1343

>  <oscillator_strength_4>
0.0582

>  <open_babel_can_smiles>
[NH]C(=[NH2])NC(=N)NC(C)(C)C

>  <mulliken_charges>
26
1   -0.462754
2   -0.441516
3   -0.459638
4   0.601679
5   0.576468
6   0.21312
7   -0.647171
8   -0.759801
9   -0.653497
10   -0.635884
11   -0.603899
12   0.151283
13   0.159447
14   0.145181
15   0.143383
16   0.15075
17   0.14699
18   0.145354
19   0.159405
20   0.153404
21   0.271114
22   0.328436
23   0.340367
24   0.294749
25   0.354858
26   0.32817

>  <lowdin_charges>
26
1   -0.442961
2   -0.453273
3   -0.455139
4   0.132283
5   0.122721
6   0.080383
7   -0.474688
8   -0.501507
9   -0.475437
10   -0.271335
11   -0.307637
12   0.156079
13   0.15624
14   0.148195
15   0.152914
16   0.153028
17   0.152502
18   0.153539
19   0.157384
20   0.153811
21   0.250803
22   0.283816
23   0.288081
24   0.256252
25   0.304612
26   0.279336

$$$$

