PCCDB-ID:  18648
public computational chemistry database (PCCDB) project, http://pccdb.org

 29 28  0  0  1  0  0  0  0  0999 V2000
    0.5731   -0.2318   -0.6259 C   0  0  0  0  0  0  0  0  0  0  0  0
    8.8021   -3.7047   -1.8945 C   0  0  0  0  0  0  0  0  0  0  0  0
    2.0967   -0.1322   -0.5009 C   0  0  0  0  0  0  0  0  0  0  0  0
    7.2858   -3.6299   -2.1062 C   0  0  0  0  0  0  0  0  0  0  0  0
    2.8346   -1.3091   -1.1521 C   0  0  0  0  0  0  0  0  0  0  0  0
    4.3609   -1.2171   -1.0284 C   0  0  0  0  0  0  0  0  0  0  0  0
    5.0884   -2.3966   -1.6871 C   0  0  0  0  0  0  0  0  0  0  0  0
    6.6213   -2.3398   -1.5645 C   0  0  2  0  0  0  0  0  0  0  0  0
    7.1692   -1.1395   -2.3432 C   0  0  0  0  0  0  0  0  0  0  0  0
    6.7783   -0.8200   -3.4390 O   0  0  0  0  0  0  0  0  0  0  0  0
    8.1860   -0.4441   -1.7600 O   0  0  0  0  0  0  0  0  0  0  0  0
    0.0759    0.6240   -0.1552 H   0  0  0  0  0  0  0  0  0  0  0  0
    0.1941   -1.1428   -0.1462 H   0  0  0  0  0  0  0  0  0  0  0  0
    0.2629   -0.2598   -1.6778 H   0  0  0  0  0  0  0  0  0  0  0  0
    9.2004   -4.6491   -2.2806 H   0  0  0  0  0  0  0  0  0  0  0  0
    9.0579   -3.6541   -0.8279 H   0  0  0  0  0  0  0  0  0  0  0  0
    9.3282   -2.8921   -2.4076 H   0  0  0  0  0  0  0  0  0  0  0  0
    2.3735   -0.0735    0.5615 H   0  0  0  0  0  0  0  0  0  0  0  0
    2.4413    0.8066   -0.9570 H   0  0  0  0  0  0  0  0  0  0  0  0
    6.8060   -4.4856   -1.6143 H   0  0  0  0  0  0  0  0  0  0  0  0
    7.0539   -3.7095   -3.1754 H   0  0  0  0  0  0  0  0  0  0  0  0
    2.5617   -1.3642   -2.2160 H   0  0  0  0  0  0  0  0  0  0  0  0
    2.4870   -2.2502   -0.6997 H   0  0  0  0  0  0  0  0  0  0  0  0
    4.6349   -1.1655    0.0365 H   0  0  0  0  0  0  0  0  0  0  0  0
    4.7021   -0.2775   -1.4842 H   0  0  0  0  0  0  0  0  0  0  0  0
    4.8341   -2.4369   -2.7529 H   0  0  0  0  0  0  0  0  0  0  0  0
    4.7417   -3.3368   -1.2369 H   0  0  0  0  0  0  0  0  0  0  0  0
    6.8862   -2.2384   -0.4999 H   0  0  0  0  0  0  0  0  0  0  0  0
    8.3804   -0.8210   -0.8866 H   0  0  0  0  0  0  0  0  0  0  0  0
  1  3  1  0  0  0  0
  1 12  1  0  0  0  0
  1 13  1  0  0  0  0
  2 16  1  0  0  0  0
  3 18  1  0  0  0  0
  4  2  1  0  0  0  0
  4 20  1  0  0  0  0
  4  8  1  0  0  0  0
  5  6  1  0  0  0  0
  5 23  1  0  0  0  0
  5  3  1  0  0  0  0
  6 24  1  0  0  0  0
  7  8  1  0  0  0  0
  7 27  1  0  0  0  0
  7  6  1  0  0  0  0
  8 28  1  1  0  0  0
  9 11  1  0  0  0  0
  9  8  1  0  0  0  0
 10  9  2  0  0  0  0
 11 29  1  0  0  0  0
 14  1  1  0  0  0  0
 15  2  1  0  0  0  0
 17  2  1  0  0  0  0
 19  3  1  0  0  0  0
 21  4  1  0  0  0  0
 22  5  1  0  0  0  0
 25  6  1  0  0  0  0
 26  7  1  0  0  0  0
M  END
>  <HBA>
2

>  <HBD>
1

>  <TPSA>
37.3

>  <cid>
18648

>  <dipole>
3.94

>  <excitation_energy_1>
5.637

>  <excitation_energy_2>
6.45

>  <excitation_energy_3>
7.198

>  <excitation_energy_4>
7.362

>  <homo_energy>
-7.249

>  <homo_lumo_gap>
7.535

>  <logP>
2.678

>  <lumo_energy>
0.286

>  <melting_point>
48.6

>  <molecular_refractivity>
47.15

>  <oscillator_strength_1>
0.0021

>  <oscillator_strength_2>
0.0094

>  <oscillator_strength_3>
0.0069

>  <oscillator_strength_4>
0.0071

>  <open_babel_can_smiles>
CCCCC[C@H](C(=O)O)CC

>  <mulliken_charges>
29
1   -0.441809
2   -0.469376
3   -0.248064
4   -0.256107
5   -0.247319
6   -0.269339
7   -0.258442
8   -0.186993
9   0.604314
10   -0.452736
11   -0.568994
12   0.142368
13   0.140179
14   0.143482
15   0.156807
16   0.135424
17   0.165324
18   0.128041
19   0.13519
20   0.143073
21   0.16324
22   0.13502
23   0.125061
24   0.120663
25   0.150569
26   0.162487
27   0.128829
28   0.111855
29   0.407251

>  <lowdin_charges>
29
1   -0.444466
2   -0.454156
3   -0.270435
4   -0.266177
5   -0.271678
6   -0.27775
7   -0.269444
8   -0.164179
9   0.193767
10   -0.244515
11   -0.355854
12   0.150503
13   0.146047
14   0.146109
15   0.15847
16   0.141276
17   0.157482
18   0.136123
19   0.141311
20   0.148615
21   0.155147
22   0.140135
23   0.136302
24   0.132365
25   0.148563
26   0.156594
27   0.142355
28   0.132345
29   0.355143

$$$$

