PCCDB-ID:  2108
public computational chemistry database (PCCDB) project, http://pccdb.org

 27 27  0  0  1  0  0  0  0  0999 V2000
    2.8204   -0.1169   -1.1519 C   0  0  0  0  0  0  0  0  0  0  0  0
    4.4930    3.8455    0.4334 C   0  0  0  0  0  0  0  0  0  0  0  0
    2.9808    3.6553    0.5892 C   0  0  2  0  0  0  0  0  0  0  0  0
    2.4347    3.8512    2.0218 C   0  0  2  0  0  0  0  0  0  0  0  0
    2.6156    2.5871    2.8906 C   0  0  2  0  0  0  0  0  0  0  0  0
    2.0791    1.3412    2.1529 C   0  0  2  0  0  0  0  0  0  0  0  0
    2.7215    1.2462    0.7635 C   0  0  1  0  0  0  0  0  0  0  0  0
    5.2163    3.0121    1.3341 O   0  0  0  0  0  0  0  0  0  0  0  0
    1.0206    4.1001    1.9625 O   0  0  0  0  0  0  0  0  0  0  0  0
    1.9828    2.7272    4.1447 O   0  0  0  0  0  0  0  0  0  0  0  0
    0.6599    1.3637    2.1167 O   0  0  0  0  0  0  0  0  0  0  0  0
    2.1544    0.1946    0.0635 O   0  0  0  0  0  0  0  0  0  0  0  0
    2.4842    2.4522    0.0124 O   0  0  0  0  0  0  0  0  0  0  0  0
    2.3371   -1.0116   -1.5512 H   0  0  0  0  0  0  0  0  0  0  0  0
    3.8864   -0.3315   -0.9775 H   0  0  0  0  0  0  0  0  0  0  0  0
    2.7361    0.6993   -1.8785 H   0  0  0  0  0  0  0  0  0  0  0  0
    4.7218    4.9084    0.6167 H   0  0  0  0  0  0  0  0  0  0  0  0
    4.7475    3.6185   -0.6122 H   0  0  0  0  0  0  0  0  0  0  0  0
    2.5408    4.4452   -0.0376 H   0  0  0  0  0  0  0  0  0  0  0  0
    2.9440    4.6959    2.5074 H   0  0  0  0  0  0  0  0  0  0  0  0
    3.6858    2.4679    3.0765 H   0  0  0  0  0  0  0  0  0  0  0  0
    2.3500    0.4459    2.7214 H   0  0  0  0  0  0  0  0  0  0  0  0
    3.8093    1.1071    0.8716 H   0  0  0  0  0  0  0  0  0  0  0  0
    6.1633    3.1329    1.1667 H   0  0  0  0  0  0  0  0  0  0  0  0
    0.8718    4.9149    1.4586 H   0  0  0  0  0  0  0  0  0  0  0  0
    1.0402    2.5564    3.9670 H   0  0  0  0  0  0  0  0  0  0  0  0
    0.4122    2.1679    1.6240 H   0  0  0  0  0  0  0  0  0  0  0  0
  1 15  1  0  0  0  0
  1 12  1  0  0  0  0
  2  3  1  0  0  0  0
  2 17  1  0  0  0  0
  2  8  1  0  0  0  0
  3 19  1  6  0  0  0
  3  4  1  0  0  0  0
  4 20  1  1  0  0  0
  4  5  1  0  0  0  0
  5 21  1  1  0  0  0
  5 10  1  0  0  0  0
  6 22  1  1  0  0  0
  6  5  1  0  0  0  0
  7 23  1  1  0  0  0
  7  6  1  0  0  0  0
  9  4  1  0  0  0  0
 11  6  1  0  0  0  0
 12  7  1  0  0  0  0
 13  3  1  0  0  0  0
 13  7  1  0  0  0  0
 14  1  1  0  0  0  0
 16  1  1  0  0  0  0
 18  2  1  0  0  0  0
 24  8  1  0  0  0  0
 25  9  1  0  0  0  0
 26 10  1  0  0  0  0
 27 11  1  0  0  0  0
M  END
>  <HBA>
6

>  <HBD>
4

>  <TPSA>
99.38

>  <cid>
2108

>  <dipole>
6.11

>  <excitation_energy_1>
5.642

>  <excitation_energy_2>
5.994

>  <excitation_energy_3>
6.045

>  <excitation_energy_4>
6.294

>  <homo_energy>
-6.523

>  <homo_lumo_gap>
7.698

>  <logP>
-2.567

>  <lumo_energy>
1.176

>  <melting_point>
51.92

>  <molecular_refractivity>
40.47

>  <oscillator_strength_1>
0.0007

>  <oscillator_strength_2>
0.0024

>  <oscillator_strength_3>
0.0008

>  <oscillator_strength_4>
0.0125

>  <open_babel_can_smiles>
CO[C@H]1O[C@H](CO)[C@H]([C@H]([C@H]1O)O)O

>  <mulliken_charges>
27
1   -0.202049
2   -0.052477
3   0.100507
4   0.09597
5   0.106865
6   0.066315
7   0.357581
8   -0.609749
9   -0.641078
10   -0.635458
11   -0.6401
12   -0.460622
13   -0.51218
14   0.160632
15   0.126511
16   0.15365
17   0.125639
18   0.141563
19   0.126427
20   0.131151
21   0.16447
22   0.151118
23   0.124836
24   0.403288
25   0.398044
26   0.405085
27   0.414061

>  <lowdin_charges>
27
1   -0.279162
2   -0.148952
3   -0.02942
4   -0.033657
5   -0.038268
6   -0.035888
7   0.07999
8   -0.464525
9   -0.460449
10   -0.449599
11   -0.456722
12   -0.231014
13   -0.282349
14   0.157517
15   0.129943
16   0.145534
17   0.131778
18   0.139889
19   0.148129
20   0.143888
21   0.160924
22   0.15864
23   0.126423
24   0.350514
25   0.346928
26   0.34483
27   0.345078

$$$$

