PCCDB-ID:  50193
public computational chemistry database (PCCDB) project, http://pccdb.org

 26 26  0  0  1  0  0  0  0  0999 V2000
    3.0704    1.3296   -1.1234 C   0  0  0  0  0  0  0  0  0  0  0  0
    2.5928   -2.4697   -0.2484 C   0  0  0  0  0  0  0  0  0  0  0  0
    2.4144   -0.0489   -1.0001 C   0  0  0  0  0  0  0  0  0  0  0  0
    6.9422   -1.4367   -1.8317 C   0  0  0  0  0  0  0  0  0  0  0  0
    5.8616   -1.2120   -0.9764 C   0  0  0  0  0  0  0  0  0  0  0  0
    6.7389   -1.8336   -3.1495 C   0  0  0  0  0  0  0  0  0  0  0  0
    4.3525   -1.7887   -2.7636 C   0  0  0  0  0  0  0  0  0  0  0  0
    3.3658   -1.1614   -0.5043 C   0  0  2  0  0  0  0  0  0  0  0  0
    4.5505   -1.3887   -1.4367 C   0  0  0  0  0  0  0  0  0  0  0  0
    5.4314   -2.0155   -3.6315 C   0  0  0  0  0  0  0  0  0  0  0  0
    5.2107   -2.4717   -4.9375 N   0  0  0  0  0  0  0  0  0  0  0  0
    2.3465    2.0815   -1.4583 H   0  0  0  0  0  0  0  0  0  0  0  0
    3.8983    1.3139   -1.8401 H   0  0  0  0  0  0  0  0  0  0  0  0
    3.4732    1.6629   -0.1588 H   0  0  0  0  0  0  0  0  0  0  0  0
    1.7931   -2.3110    0.4852 H   0  0  0  0  0  0  0  0  0  0  0  0
    3.2574   -3.2525    0.1325 H   0  0  0  0  0  0  0  0  0  0  0  0
    2.1310   -2.8454   -1.1692 H   0  0  0  0  0  0  0  0  0  0  0  0
    1.9877   -0.3420   -1.9696 H   0  0  0  0  0  0  0  0  0  0  0  0
    1.5669    0.0115   -0.3031 H   0  0  0  0  0  0  0  0  0  0  0  0
    7.9572   -1.2968   -1.4678 H   0  0  0  0  0  0  0  0  0  0  0  0
    6.0352   -0.8993    0.0500 H   0  0  0  0  0  0  0  0  0  0  0  0
    7.5860   -2.0134   -3.8080 H   0  0  0  0  0  0  0  0  0  0  0  0
    3.3416   -1.9386   -3.1388 H   0  0  0  0  0  0  0  0  0  0  0  0
    3.7767   -0.8281    0.4597 H   0  0  0  0  0  0  0  0  0  0  0  0
    5.9531   -2.2522   -5.5906 H   0  0  0  0  0  0  0  0  0  0  0  0
    4.3059   -2.2267   -5.3213 H   0  0  0  0  0  0  0  0  0  0  0  0
  1  3  1  0  0  0  0
  1 14  1  0  0  0  0
  2 16  1  0  0  0  0
  2 15  1  0  0  0  0
  3  8  1  0  0  0  0
  3 19  1  0  0  0  0
  4 20  1  0  0  0  0
  4  5  2  0  0  0  0
  5 21  1  0  0  0  0
  6  4  1  0  0  0  0
  7  9  2  0  0  0  0
  8  2  1  0  0  0  0
  8 24  1  1  0  0  0
  9  5  1  0  0  0  0
  9  8  1  0  0  0  0
 10  6  2  0  0  0  0
 10  7  1  0  0  0  0
 11 10  1  0  0  0  0
 12  1  1  0  0  0  0
 13  1  1  0  0  0  0
 17  2  1  0  0  0  0
 18  3  1  0  0  0  0
 22  6  1  0  0  0  0
 23  7  1  0  0  0  0
 25 11  1  0  0  0  0
 26 11  1  0  0  0  0
M  END
>  <HBA>
1

>  <HBD>
1

>  <TPSA>
26.02

>  <cid>
50193

>  <dipole>
1.6

>  <excitation_energy_1>
4.679

>  <excitation_energy_2>
4.717

>  <excitation_energy_3>
5.328

>  <excitation_energy_4>
5.382

>  <homo_energy>
-5.35

>  <homo_lumo_gap>
5.592

>  <logP>
3.364

>  <lumo_energy>
0.242

>  <melting_point>
55.32

>  <molecular_refractivity>
50.23

>  <oscillator_strength_1>
0.0354

>  <oscillator_strength_2>
0.0118

>  <oscillator_strength_3>
0.0053

>  <oscillator_strength_4>
0.0004

>  <open_babel_can_smiles>
CC[C@H](c1cccc(c1)N)C

>  <mulliken_charges>
26
1   -0.445801
2   -0.442349
3   -0.244346
4   -0.131213
5   -0.206358
6   -0.175853
7   -0.235932
8   -0.159251
9   0.181004
10   0.31073
11   -0.787741
12   0.137967
13   0.156649
14   0.138727
15   0.138073
16   0.150222
17   0.141984
18   0.12758
19   0.128311
20   0.122885
21   0.114197
22   0.112895
23   0.110135
24   0.123226
25   0.317279
26   0.316981

>  <lowdin_charges>
26
1   -0.449024
2   -0.442719
3   -0.271022
4   -0.144782
5   -0.199522
6   -0.207229
7   -0.212518
8   -0.121137
9   0.010564
10   0.063673
11   -0.493994
12   0.148874
13   0.154998
14   0.14535
15   0.147095
16   0.154543
17   0.147301
18   0.137441
19   0.140472
20   0.15431
21   0.150225
22   0.151777
23   0.147434
24   0.139892
25   0.274696
26   0.273301

$$$$

