PCCDB-ID:  39913
public computational chemistry database (PCCDB) project, http://pccdb.org

 29 28  0  0  0  0  0  0  0  0999 V2000
    0.7174   -1.3014   -1.0396 C   0  0  0  0  0  0  0  0  0  0  0  0
    7.6536   -5.4942    3.0843 C   0  0  0  0  0  0  0  0  0  0  0  0
    1.9265   -0.5514   -0.4711 C   0  0  0  0  0  0  0  0  0  0  0  0
    8.1842   -4.0705    3.0656 C   0  0  0  0  0  0  0  0  0  0  0  0
    2.9919   -1.4858    0.1153 C   0  0  0  0  0  0  0  0  0  0  0  0
    4.2134   -0.7474    0.6760 C   0  0  0  0  0  0  0  0  0  0  0  0
    5.2534   -1.6992    1.2665 C   0  0  0  0  0  0  0  0  0  0  0  0
    7.5758   -1.8727    2.4451 C   0  0  0  0  0  0  0  0  0  0  0  0
    6.4834   -1.0040    1.8144 C   0  0  0  0  0  0  0  0  0  0  0  0
    6.6490    0.2005    1.7706 O   0  0  0  0  0  0  0  0  0  0  0  0
    7.1945   -3.2284    2.4922 O   0  0  0  0  0  0  0  0  0  0  0  0
   -0.0280   -0.6105   -1.4494 H   0  0  0  0  0  0  0  0  0  0  0  0
    0.2241   -1.9020   -0.2651 H   0  0  0  0  0  0  0  0  0  0  0  0
    1.0176   -1.9829   -1.8452 H   0  0  0  0  0  0  0  0  0  0  0  0
    8.3944   -6.1707    3.5243 H   0  0  0  0  0  0  0  0  0  0  0  0
    7.4316   -5.8361    2.0683 H   0  0  0  0  0  0  0  0  0  0  0  0
    6.7344   -5.5538    3.6759 H   0  0  0  0  0  0  0  0  0  0  0  0
    1.5911    0.1495    0.3063 H   0  0  0  0  0  0  0  0  0  0  0  0
    2.3794    0.0661   -1.2599 H   0  0  0  0  0  0  0  0  0  0  0  0
    9.1163   -4.0090    2.4786 H   0  0  0  0  0  0  0  0  0  0  0  0
    8.4210   -3.7292    4.0876 H   0  0  0  0  0  0  0  0  0  0  0  0
    3.3195   -2.1933   -0.6614 H   0  0  0  0  0  0  0  0  0  0  0  0
    2.5368   -2.0979    0.9089 H   0  0  0  0  0  0  0  0  0  0  0  0
    3.8988   -0.0321    1.4468 H   0  0  0  0  0  0  0  0  0  0  0  0
    4.6792   -0.1429   -0.1128 H   0  0  0  0  0  0  0  0  0  0  0  0
    5.5967   -2.4359    0.5249 H   0  0  0  0  0  0  0  0  0  0  0  0
    4.8280   -2.3122    2.0741 H   0  0  0  0  0  0  0  0  0  0  0  0
    7.7830   -1.4737    3.4524 H   0  0  0  0  0  0  0  0  0  0  0  0
    8.4974   -1.7319    1.8536 H   0  0  0  0  0  0  0  0  0  0  0  0
  1  3  1  0  0  0  0
  1 13  1  0  0  0  0
  2 15  1  0  0  0  0
  2 17  1  0  0  0  0
  3  5  1  0  0  0  0
  3 18  1  0  0  0  0
  4  2  1  0  0  0  0
  4 21  1  0  0  0  0
  5  6  1  0  0  0  0
  5 23  1  0  0  0  0
  6  7  1  0  0  0  0
  6 24  1  0  0  0  0
  7  9  1  0  0  0  0
  7 27  1  0  0  0  0
  8 11  1  0  0  0  0
  8 28  1  0  0  0  0
  9  8  1  0  0  0  0
 10  9  2  0  0  0  0
 11  4  1  0  0  0  0
 12  1  1  0  0  0  0
 14  1  1  0  0  0  0
 16  2  1  0  0  0  0
 19  3  1  0  0  0  0
 20  4  1  0  0  0  0
 22  5  1  0  0  0  0
 25  6  1  0  0  0  0
 26  7  1  0  0  0  0
 29  8  1  0  0  0  0
M  END
>  <HBA>
2

>  <HBD>
0

>  <TPSA>
26.3

>  <cid>
39913

>  <dipole>
2.72

>  <excitation_energy_1>
4.452

>  <excitation_energy_2>
5.927

>  <excitation_energy_3>
6.336

>  <excitation_energy_4>
6.72

>  <homo_energy>
-6.615

>  <homo_lumo_gap>
6.319

>  <logP>
2.172

>  <lumo_energy>
-0.297

>  <melting_point>
-16.11

>  <molecular_refractivity>
46.66

>  <oscillator_strength_1>
0.0001

>  <oscillator_strength_2>
0.0088

>  <oscillator_strength_3>
0.0309

>  <oscillator_strength_4>
0.0182

>  <open_babel_can_smiles>
CCCCCC(=O)COCC

>  <mulliken_charges>
29
1   -0.441375
2   -0.455305
3   -0.247232
4   -0.004037
5   -0.248799
6   -0.248189
7   -0.352323
8   -0.085769
9   0.420527
10   -0.450705
11   -0.477004
12   0.142015
13   0.140484
14   0.140523
15   0.147319
16   0.159964
17   0.160058
18   0.132192
19   0.132284
20   0.124415
21   0.124635
22   0.125155
23   0.125319
24   0.144259
25   0.14548
26   0.167069
27   0.170757
28   0.154751
29   0.153532

>  <lowdin_charges>
29
1   -0.447442
2   -0.449149
3   -0.274212
4   -0.122485
5   -0.276716
6   -0.273507
7   -0.308757
8   -0.162087
9   0.157348
10   -0.238974
11   -0.273724
12   0.150494
13   0.146981
14   0.146553
15   0.157723
16   0.157216
17   0.158083
18   0.140964
19   0.141155
20   0.127949
21   0.127258
22   0.137399
23   0.137619
24   0.149365
25   0.150096
26   0.168487
27   0.169901
28   0.151253
29   0.151207

$$$$

