PCCDB-ID:  22006
public computational chemistry database (PCCDB) project, http://pccdb.org

 32 34  0  0  0  0  0  0  0  0999 V2000
    4.0215   -0.0705    0.5238 C   0  0  0  0  0  0  0  0  0  0  0  0
    3.2807    1.2749    0.5478 C   0  0  0  0  0  0  0  0  0  0  0  0
    3.1429   -1.3272    0.6158 C   0  0  0  0  0  0  0  0  0  0  0  0
   -3.9575    0.6327    0.2061 C   0  0  0  0  0  0  0  0  0  0  0  0
   -3.9029   -0.7695    0.1866 C   0  0  0  0  0  0  0  0  0  0  0  0
    2.2690    1.4581   -0.6050 C   0  0  0  0  0  0  0  0  0  0  0  0
   -2.7897    1.3713    0.0787 C   0  0  0  0  0  0  0  0  0  0  0  0
    2.1262   -1.4855   -0.5365 C   0  0  0  0  0  0  0  0  0  0  0  0
   -2.6864   -1.4177    0.0379 C   0  0  0  0  0  0  0  0  0  0  0  0
    0.9398    0.7560   -0.4108 C   0  0  0  0  0  0  0  0  0  0  0  0
   -1.5426    0.7425   -0.0734 C   0  0  0  0  0  0  0  0  0  0  0  0
    0.8994   -0.6104   -0.4036 C   0  0  0  0  0  0  0  0  0  0  0  0
   -1.5066   -0.6640   -0.0928 C   0  0  0  0  0  0  0  0  0  0  0  0
   -0.2942    1.5380   -0.2012 C   0  0  0  0  0  0  0  0  0  0  0  0
   -0.4050    2.8252   -0.1186 N   0  0  0  0  0  0  0  0  0  0  0  0
   -0.2832   -1.2961   -0.2400 N   0  0  0  0  0  0  0  0  0  0  0  0
    4.7489   -0.0931    1.3461 H   0  0  0  0  0  0  0  0  0  0  0  0
    4.6109   -0.1274   -0.4042 H   0  0  0  0  0  0  0  0  0  0  0  0
    4.0322    2.0738    0.4898 H   0  0  0  0  0  0  0  0  0  0  0  0
    2.7612    1.4041    1.5065 H   0  0  0  0  0  0  0  0  0  0  0  0
    2.6045   -1.3438    1.5727 H   0  0  0  0  0  0  0  0  0  0  0  0
    3.8007   -2.2063    0.6124 H   0  0  0  0  0  0  0  0  0  0  0  0
   -4.9123    1.1380    0.3207 H   0  0  0  0  0  0  0  0  0  0  0  0
   -4.8135   -1.3541    0.2873 H   0  0  0  0  0  0  0  0  0  0  0  0
    2.7388    1.1233   -1.5423 H   0  0  0  0  0  0  0  0  0  0  0  0
    2.0923    2.5284   -0.7481 H   0  0  0  0  0  0  0  0  0  0  0  0
   -2.7985    2.4557    0.0931 H   0  0  0  0  0  0  0  0  0  0  0  0
    1.8098   -2.5355   -0.5909 H   0  0  0  0  0  0  0  0  0  0  0  0
    2.6274   -1.2750   -1.4916 H   0  0  0  0  0  0  0  0  0  0  0  0
   -2.6347   -2.5046    0.0214 H   0  0  0  0  0  0  0  0  0  0  0  0
    0.5030    3.2852   -0.2078 H   0  0  0  0  0  0  0  0  0  0  0  0
   -0.2622   -2.3053   -0.2393 H   0  0  0  0  0  0  0  0  0  0  0  0
  1  2  1  0  0  0  0
  1  3  1  0  0  0  0
  1 17  1  0  0  0  0
  2 20  1  0  0  0  0
  3 21  1  0  0  0  0
  4 23  1  0  0  0  0
  5  4  2  0  0  0  0
  5 24  1  0  0  0  0
  6 10  1  0  0  0  0
  6  2  1  0  0  0  0
  7 27  1  0  0  0  0
  7  4  1  0  0  0  0
  8 12  1  0  0  0  0
  8  3  1  0  0  0  0
  9  5  1  0  0  0  0
 10 12  2  0  0  0  0
 10 14  1  0  0  0  0
 11  7  2  0  0  0  0
 12 16  1  0  0  0  0
 13 11  1  0  0  0  0
 13  9  2  0  0  0  0
 14 15  2  0  0  0  0
 14 11  1  0  0  0  0
 16 32  1  0  0  0  0
 16 13  1  0  0  0  0
 18  1  1  0  0  0  0
 19  2  1  0  0  0  0
 22  3  1  0  0  0  0
 25  6  1  0  0  0  0
 26  6  1  0  0  0  0
 28  8  1  0  0  0  0
 29  8  1  0  0  0  0
 30  9  1  0  0  0  0
 31 15  1  0  0  0  0
M  END
>  <HBA>
2

>  <HBD>
1

>  <TPSA>
38.91

>  <cid>
22006

>  <dipole>
4.91

>  <excitation_energy_1>
3.825

>  <excitation_energy_2>
4.176

>  <excitation_energy_3>
4.241

>  <excitation_energy_4>
4.606

>  <homo_energy>
-4.993

>  <homo_lumo_gap>
4.354

>  <logP>
3.667

>  <lumo_energy>
-0.639

>  <melting_point>
143.58

>  <molecular_refractivity>
68.39

>  <oscillator_strength_1>
0.1082

>  <oscillator_strength_2>
0.0484

>  <oscillator_strength_3>
0.0138

>  <oscillator_strength_4>
0.0026

>  <open_babel_can_smiles>
N=c1c2CCCCCc2[nH]c2c1cccc2

>  <mulliken_charges>
32
1   -0.259982
2   -0.244522
3   -0.249314
4   -0.130749
5   -0.135505
6   -0.366495
7   -0.191496
8   -0.358723
9   -0.179928
10   0.065454
11   0.098042
12   0.328258
13   0.325974
14   0.234998
15   -0.682357
16   -0.790208
17   0.135722
18   0.128396
19   0.132361
20   0.142686
21   0.144001
22   0.136717
23   0.128094
24   0.129192
25   0.140709
26   0.140001
27   0.170771
28   0.132486
29   0.164487
30   0.118809
31   0.271042
32   0.321078

>  <lowdin_charges>
32
1   -0.277741
2   -0.27533
3   -0.27256
4   -0.172079
5   -0.145791
6   -0.274761
7   -0.12472
8   -0.277855
9   -0.191543
10   -0.097394
11   -0.035206
12   0.050112
13   0.050725
14   0.046941
15   -0.436301
16   -0.204814
17   0.146734
18   0.137201
19   0.144928
20   0.145946
21   0.146164
22   0.147012
23   0.158122
24   0.158843
25   0.146801
26   0.148652
27   0.179845
28   0.144561
29   0.16028
30   0.150421
31   0.239225
32   0.283583

$$$$

