PCCDB-ID:  62126
public computational chemistry database (PCCDB) project, http://pccdb.org

 36 36  0  0  1  0  0  0  0  0999 V2000
    1.4280    1.3517    0.1585 C   0  0  0  0  0  0  0  0  0  0  0  0
    1.9809   -2.7487    3.9540 C   0  0  0  0  0  0  0  0  0  0  0  0
    5.5524    0.0567   -1.4381 C   0  0  0  0  0  0  0  0  0  0  0  0
    6.1217   -0.4111    0.9631 C   0  0  0  0  0  0  0  0  0  0  0  0
    4.7973    2.9582   -0.3312 C   0  0  0  0  0  0  0  0  0  0  0  0
    3.4880    2.6830   -0.4014 C   0  0  0  0  0  0  0  0  0  0  0  0
    2.9806   -1.2392    2.1572 C   0  0  0  0  0  0  0  0  0  0  0  0
    3.2086   -1.0296    0.6431 C   0  0  0  0  0  0  0  0  0  0  0  0
    5.7374    1.9389    0.2483 C   0  0  0  0  0  0  0  0  0  0  0  0
    2.9365    1.3913    0.0366 C   0  0  0  0  0  0  0  0  0  0  0  0
    2.0782   -2.4447    2.4583 C   0  0  2  0  0  0  0  0  0  0  0  0
    3.7559    0.3364    0.2715 C   0  0  0  0  0  0  0  0  0  0  0  0
    5.2744    0.4770    0.0274 C   0  0  0  0  0  0  0  0  0  0  0  0
    0.7744   -2.2675    1.8872 O   0  0  0  0  0  0  0  0  0  0  0  0
    1.0758    2.1559    0.8187 H   0  0  0  0  0  0  0  0  0  0  0  0
    1.0442    0.4080    0.5501 H   0  0  0  0  0  0  0  0  0  0  0  0
    0.9548    1.5242   -0.8186 H   0  0  0  0  0  0  0  0  0  0  0  0
    2.9615   -2.9994    4.3747 H   0  0  0  0  0  0  0  0  0  0  0  0
    1.3020   -3.5895    4.1281 H   0  0  0  0  0  0  0  0  0  0  0  0
    1.5972   -1.8782    4.5041 H   0  0  0  0  0  0  0  0  0  0  0  0
    6.6290    0.0902   -1.6523 H   0  0  0  0  0  0  0  0  0  0  0  0
    5.0425    0.7239   -2.1403 H   0  0  0  0  0  0  0  0  0  0  0  0
    5.2056   -0.9657   -1.6276 H   0  0  0  0  0  0  0  0  0  0  0  0
    7.1874   -0.2443    0.7640 H   0  0  0  0  0  0  0  0  0  0  0  0
    5.9298   -1.4792    0.8189 H   0  0  0  0  0  0  0  0  0  0  0  0
    5.9401   -0.1701    2.0167 H   0  0  0  0  0  0  0  0  0  0  0  0
    5.1854    3.9287   -0.6324 H   0  0  0  0  0  0  0  0  0  0  0  0
    2.7850    3.4272   -0.7729 H   0  0  0  0  0  0  0  0  0  0  0  0
    2.5144   -0.3408    2.5881 H   0  0  0  0  0  0  0  0  0  0  0  0
    3.9398   -1.3621    2.6758 H   0  0  0  0  0  0  0  0  0  0  0  0
    2.2545   -1.2057    0.1386 H   0  0  0  0  0  0  0  0  0  0  0  0
    3.8830   -1.8150    0.2806 H   0  0  0  0  0  0  0  0  0  0  0  0
    5.8336    2.1267    1.3323 H   0  0  0  0  0  0  0  0  0  0  0  0
    6.7478    2.0579   -0.1651 H   0  0  0  0  0  0  0  0  0  0  0  0
    2.4746   -3.3270    1.9398 H   0  0  0  0  0  0  0  0  0  0  0  0
    0.3471   -1.5437    2.3743 H   0  0  0  0  0  0  0  0  0  0  0  0
  1 16  1  0  0  0  0
  1 15  1  0  0  0  0
  2 19  1  0  0  0  0
  2 18  1  0  0  0  0
  2 20  1  0  0  0  0
  3 13  1  0  0  0  0
  4 26  1  0  0  0  0
  5  9  1  0  0  0  0
  6  5  2  0  0  0  0
  6 10  1  0  0  0  0
  7 11  1  0  0  0  0
  7 29  1  0  0  0  0
  7 30  1  0  0  0  0
  8  7  1  0  0  0  0
  9 33  1  0  0  0  0
 10  1  1  0  0  0  0
 10 12  2  0  0  0  0
 11 35  1  6  0  0  0
 11  2  1  0  0  0  0
 12  8  1  0  0  0  0
 13  9  1  0  0  0  0
 13 12  1  0  0  0  0
 13  4  1  0  0  0  0
 14 36  1  0  0  0  0
 14 11  1  0  0  0  0
 17  1  1  0  0  0  0
 21  3  1  0  0  0  0
 22  3  1  0  0  0  0
 23  3  1  0  0  0  0
 24  4  1  0  0  0  0
 25  4  1  0  0  0  0
 27  5  1  0  0  0  0
 28  6  1  0  0  0  0
 31  8  1  0  0  0  0
 32  8  1  0  0  0  0
 34  9  1  0  0  0  0
M  END
>  <HBA>
1

>  <HBD>
1

>  <TPSA>
20.23

>  <cid>
62126

>  <dipole>
1.52

>  <excitation_energy_1>
4.515

>  <excitation_energy_2>
4.888

>  <excitation_energy_3>
5.115

>  <excitation_energy_4>
5.23

>  <homo_energy>
-5.287

>  <homo_lumo_gap>
5.015

>  <logP>
3.45

>  <lumo_energy>
-0.272

>  <melting_point>
55.09

>  <molecular_refractivity>
62.44

>  <oscillator_strength_1>
0.1766

>  <oscillator_strength_2>
0.0036

>  <oscillator_strength_3>
0.0002

>  <oscillator_strength_4>
0.011

>  <open_babel_can_smiles>
C[C@H](CCC1=C(C)C=CCC1(C)C)O

>  <mulliken_charges>
36
1   -0.535641
2   -0.460689
3   -0.445073
4   -0.457612
5   -0.134327
6   -0.135724
7   -0.264089
8   -0.359096
9   -0.301748
10   0.107784
11   0.133228
12   0.089028
13   0.031925
14   -0.619027
15   0.150944
16   0.155851
17   0.155534
18   0.145453
19   0.158863
20   0.132694
21   0.132453
22   0.156136
23   0.14089
24   0.139807
25   0.140926
26   0.142548
27   0.12245
28   0.114726
29   0.126101
30   0.135478
31   0.171375
32   0.13575
33   0.141389
34   0.132446
35   0.135947
36   0.3833

>  <lowdin_charges>
36
1   -0.449709
2   -0.461475
3   -0.441238
4   -0.439033
5   -0.167859
6   -0.175585
7   -0.29177
8   -0.283503
9   -0.268773
10   -0.032163
11   0.00115
12   -0.022156
13   0.016041
14   -0.467388
15   0.155126
16   0.157392
17   0.156667
18   0.154015
19   0.158941
20   0.14443
21   0.141372
22   0.157702
23   0.146951
24   0.147336
25   0.145634
26   0.145354
27   0.152488
28   0.15233
29   0.139362
30   0.146428
31   0.161569
32   0.145623
33   0.147234
34   0.146413
35   0.142743
36   0.338351

$$$$

