PCCDB-ID:  28493
public computational chemistry database (PCCDB) project, http://pccdb.org

 22 22  0  0  0  0  0  0  0  0999 V2000
    1.0692   -0.8944   -0.2850 C   0  0  0  0  0  0  0  0  0  0  0  0
    1.6712    0.8769    1.3395 C   0  0  0  0  0  0  0  0  0  0  0  0
    6.0487   -0.2536   -1.1420 C   0  0  0  0  0  0  0  0  0  0  0  0
    5.0994   -0.2636   -3.3394 C   0  0  0  0  0  0  0  0  0  0  0  0
    7.2976   -0.1346   -1.7483 C   0  0  0  0  0  0  0  0  0  0  0  0
    6.3925   -0.1424   -3.8353 C   0  0  0  0  0  0  0  0  0  0  0  0
    3.2669    0.1796   -0.3800 C   0  0  0  0  0  0  0  0  0  0  0  0
    4.8962   -0.3048   -1.9487 C   0  0  0  0  0  0  0  0  0  0  0  0
    7.4943   -0.0734   -3.0713 N   0  0  0  0  0  0  0  0  0  0  0  0
    3.5975   -0.4405   -1.4595 N   0  0  0  0  0  0  0  0  0  0  0  0
    2.0723    0.0142    0.2458 N   0  0  0  0  0  0  0  0  0  0  0  0
    0.6765   -1.5288    0.5190 H   0  0  0  0  0  0  0  0  0  0  0  0
    1.5333   -1.5135   -1.0522 H   0  0  0  0  0  0  0  0  0  0  0  0
    0.2319   -0.3388   -0.7300 H   0  0  0  0  0  0  0  0  0  0  0  0
    1.3210    0.2798    2.1911 H   0  0  0  0  0  0  0  0  0  0  0  0
    0.8578    1.5542    1.0408 H   0  0  0  0  0  0  0  0  0  0  0  0
    2.5206    1.4818    1.6675 H   0  0  0  0  0  0  0  0  0  0  0  0
    5.9731   -0.3382   -0.0614 H   0  0  0  0  0  0  0  0  0  0  0  0
    4.2443   -0.3187   -4.0058 H   0  0  0  0  0  0  0  0  0  0  0  0
    8.1948   -0.0946   -1.1310 H   0  0  0  0  0  0  0  0  0  0  0  0
    6.5577   -0.1009   -4.9113 H   0  0  0  0  0  0  0  0  0  0  0  0
    3.9232    0.9034    0.1200 H   0  0  0  0  0  0  0  0  0  0  0  0
  1 11  1  0  0  0  0
  1 12  1  0  0  0  0
  2 17  1  0  0  0  0
  2 15  1  0  0  0  0
  3 18  1  0  0  0  0
  4  8  1  0  0  0  0
  5  3  1  0  0  0  0
  5 20  1  0  0  0  0
  6  4  2  0  0  0  0
  6  9  1  0  0  0  0
  7 22  1  0  0  0  0
  7 11  1  0  0  0  0
  8 10  1  0  0  0  0
  8  3  2  0  0  0  0
  9  5  2  0  0  0  0
 10  7  2  0  0  0  0
 11  2  1  0  0  0  0
 13  1  1  0  0  0  0
 14  1  1  0  0  0  0
 16  2  1  0  0  0  0
 19  4  1  0  0  0  0
 21  6  1  0  0  0  0
M  END
>  <HBA>
3

>  <HBD>
0

>  <TPSA>
28.49

>  <cid>
28493

>  <dipole>
5.99

>  <excitation_energy_1>
4.727

>  <excitation_energy_2>
4.866

>  <excitation_energy_3>
4.951

>  <excitation_energy_4>
5.135

>  <homo_energy>
-5.807

>  <homo_lumo_gap>
5.333

>  <logP>
1.303

>  <lumo_energy>
-0.473

>  <melting_point>
45.37

>  <molecular_refractivity>
45.96

>  <oscillator_strength_1>
0.4776

>  <oscillator_strength_2>
0.0044

>  <oscillator_strength_3>
0.0191

>  <oscillator_strength_4>
0.0157

>  <open_babel_can_smiles>
CN(/C=N/c1ccncc1)C

>  <mulliken_charges>
22
1   -0.319695
2   -0.311846
3   -0.177645
4   -0.167942
5   0.028999
6   0.029769
7   0.270184
8   0.303208
9   -0.420698
10   -0.53357
11   -0.367863
12   0.15554
13   0.210355
14   0.157148
15   0.163931
16   0.162392
17   0.167976
18   0.1208
19   0.130608
20   0.13113
21   0.132633
22   0.134586

>  <lowdin_charges>
22
1   -0.357956
2   -0.348539
3   -0.215372
4   -0.195586
5   -0.091501
6   -0.088602
7   -0.019114
8   0.067782
9   -0.171438
10   -0.226626
11   -0.08093
12   0.153998
13   0.187793
14   0.152053
15   0.155225
16   0.151521
17   0.163856
18   0.154563
19   0.165442
20   0.152447
21   0.150526
22   0.140455

$$$$

