PCCDB-ID:  10774
public computational chemistry database (PCCDB) project, http://pccdb.org

 28 29  0  0  0  0  0  0  0  0999 V2000
   -1.9152   -2.4605   -0.7177 C   0  0  0  0  0  0  0  0  0  0  0  0
    2.9396    5.3228   -0.2972 C   0  0  0  0  0  0  0  0  0  0  0  0
   -1.7842   -1.3761    0.1524 C   0  0  0  0  0  0  0  0  0  0  0  0
   -0.7781   -3.0152   -1.3094 C   0  0  0  0  0  0  0  0  0  0  0  0
    1.6460    4.9932   -0.7077 C   0  0  0  0  0  0  0  0  0  0  0  0
    3.7682    4.3155    0.2028 C   0  0  0  0  0  0  0  0  0  0  0  0
   -0.5261   -0.8409    0.4263 C   0  0  0  0  0  0  0  0  0  0  0  0
    0.4821   -2.4889   -1.0336 C   0  0  0  0  0  0  0  0  0  0  0  0
    1.1868    3.6816   -0.6188 C   0  0  0  0  0  0  0  0  0  0  0  0
    3.3240    2.9984    0.3001 C   0  0  0  0  0  0  0  0  0  0  0  0
    0.6254   -1.3897   -0.1669 C   0  0  0  0  0  0  0  0  0  0  0  0
    2.0232    2.6732   -0.1128 C   0  0  0  0  0  0  0  0  0  0  0  0
    1.9834   -0.8674    0.1349 C   0  0  0  0  0  0  0  0  0  0  0  0
    1.5120    1.3742    0.0069 N   0  0  0  0  0  0  0  0  0  0  0  0
    2.3784    0.3460    0.2377 N   0  0  0  0  0  0  0  0  0  0  0  0
    2.9769   -1.8111    0.2627 O   0  0  0  0  0  0  0  0  0  0  0  0
   -2.8975   -2.8724   -0.9316 H   0  0  0  0  0  0  0  0  0  0  0  0
    3.2959    6.3463   -0.3680 H   0  0  0  0  0  0  0  0  0  0  0  0
   -2.6637   -0.9495    0.6269 H   0  0  0  0  0  0  0  0  0  0  0  0
   -0.8730   -3.8581   -1.9885 H   0  0  0  0  0  0  0  0  0  0  0  0
    0.9863    5.7607   -1.1047 H   0  0  0  0  0  0  0  0  0  0  0  0
    4.7793    4.5547    0.5232 H   0  0  0  0  0  0  0  0  0  0  0  0
   -0.4288   -0.0122    1.1211 H   0  0  0  0  0  0  0  0  0  0  0  0
    1.3655   -2.9146   -1.5012 H   0  0  0  0  0  0  0  0  0  0  0  0
    0.1774    3.4337   -0.9420 H   0  0  0  0  0  0  0  0  0  0  0  0
    3.9661    2.2141    0.6824 H   0  0  0  0  0  0  0  0  0  0  0  0
    0.6736    1.1756   -0.5337 H   0  0  0  0  0  0  0  0  0  0  0  0
    2.5699   -2.6326    0.5807 H   0  0  0  0  0  0  0  0  0  0  0  0
  1  3  2  0  0  0  0
  2  6  2  0  0  0  0
  3  7  1  0  0  0  0
  3 19  1  0  0  0  0
  4  8  2  0  0  0  0
  4  1  1  0  0  0  0
  5  9  2  0  0  0  0
  5  2  1  0  0  0  0
  6 10  1  0  0  0  0
  6 22  1  0  0  0  0
  7 23  1  0  0  0  0
  8 11  1  0  0  0  0
  9 12  1  0  0  0  0
 10 26  1  0  0  0  0
 11 13  1  0  0  0  0
 11  7  2  0  0  0  0
 12 14  1  0  0  0  0
 12 10  2  0  0  0  0
 13 15  2  0  0  0  0
 13 16  1  0  0  0  0
 14 15  1  0  0  0  0
 16 28  1  0  0  0  0
 17  1  1  0  0  0  0
 18  2  1  0  0  0  0
 20  4  1  0  0  0  0
 21  5  1  0  0  0  0
 24  8  1  0  0  0  0
 25  9  1  0  0  0  0
 27 14  1  0  0  0  0
M  END
>  <HBA>
3

>  <HBD>
2

>  <TPSA>
41.13

>  <cid>
10774

>  <dipole>
4.7

>  <excitation_energy_1>
3.154

>  <excitation_energy_2>
3.58

>  <excitation_energy_3>
4.35

>  <excitation_energy_4>
4.412

>  <homo_energy>
-4.933

>  <homo_lumo_gap>
3.782

>  <logP>
2.907

>  <lumo_energy>
-1.151

>  <melting_point>
127.16

>  <molecular_refractivity>
63.46

>  <oscillator_strength_1>
0.1952

>  <oscillator_strength_2>
0.0083

>  <oscillator_strength_3>
0.0052

>  <oscillator_strength_4>
0.0167

>  <open_babel_can_smiles>
O/C(=N/Nc1ccccc1)/c1ccccc1

>  <mulliken_charges>
28
1   -0.122818
2   -0.134492
3   -0.133077
4   -0.130135
5   -0.136232
6   -0.141069
7   -0.182654
8   -0.179669
9   -0.192106
10   -0.160172
11   0.042326
12   0.36407
13   0.415398
14   -0.553284
15   -0.266041
16   -0.593086
17   0.141112
18   0.119276
19   0.142903
20   0.142035
21   0.122877
22   0.12559
23   0.168016
24   0.151877
25   0.112359
26   0.156035
27   0.316972
28   0.403988

>  <lowdin_charges>
28
1   -0.147811
2   -0.18495
3   -0.152283
4   -0.149197
5   -0.150873
6   -0.144452
7   -0.160582
8   -0.162201
9   -0.200474
10   -0.190473
11   -0.050238
12   0.055983
13   0.085182
14   -0.203456
15   -0.111409
16   -0.376003
17   0.163092
18   0.153078
19   0.164752
20   0.163758
21   0.156185
22   0.154972
23   0.173264
24   0.168326
25   0.148831
26   0.175072
27   0.265919
28   0.355987

$$$$

