PCCDB-ID:  69653
public computational chemistry database (PCCDB) project, http://pccdb.org

 16 15  0  0  0  0  0  0  0  0999 V2000
    1.3424    0.6498   -1.3175 C   0  0  0  0  0  0  0  0  0  0  0  0
    5.0793   -0.3485   -1.7145 C   0  0  0  0  0  0  0  0  0  0  0  0
    1.9397    0.2147   -0.2073 C   0  0  0  0  0  0  0  0  0  0  0  0
    2.7438   -1.0587   -0.1001 C   0  0  0  0  0  0  0  0  0  0  0  0
    5.0310   -0.4881   -0.2022 C   0  0  0  0  0  0  0  0  0  0  0  0
    4.0394   -0.8053    0.5204 N   0  0  0  0  0  0  0  0  0  0  0  0
    6.1949   -0.2082    0.4599 O   0  0  0  0  0  0  0  0  0  0  0  0
    0.7669    1.5718   -1.3341 H   0  0  0  0  0  0  0  0  0  0  0  0
    1.3935    0.0939   -2.2521 H   0  0  0  0  0  0  0  0  0  0  0  0
    4.6229   -1.2162   -2.2004 H   0  0  0  0  0  0  0  0  0  0  0  0
    6.1019   -0.2546   -2.0949 H   0  0  0  0  0  0  0  0  0  0  0  0
    4.5119    0.5353   -2.0269 H   0  0  0  0  0  0  0  0  0  0  0  0
    1.8732    0.7955    0.7122 H   0  0  0  0  0  0  0  0  0  0  0  0
    2.8079   -1.5342   -1.0922 H   0  0  0  0  0  0  0  0  0  0  0  0
    2.2109   -1.7647    0.5517 H   0  0  0  0  0  0  0  0  0  0  0  0
    6.8883   -0.0039   -0.1839 H   0  0  0  0  0  0  0  0  0  0  0  0
  1  3  2  0  0  0  0
  2  5  1  0  0  0  0
  3  4  1  0  0  0  0
  3 13  1  0  0  0  0
  4  6  1  0  0  0  0
  4 15  1  0  0  0  0
  5  7  1  0  0  0  0
  5  6  2  0  0  0  0
  8  1  1  0  0  0  0
  9  1  1  0  0  0  0
 10  2  1  0  0  0  0
 11  2  1  0  0  0  0
 12  2  1  0  0  0  0
 14  4  1  0  0  0  0
 16  7  1  0  0  0  0
M  END
>  <HBA>
2

>  <HBD>
1

>  <TPSA>
29.1

>  <cid>
69653

>  <dipole>
3.52

>  <excitation_energy_1>
5.695

>  <excitation_energy_2>
5.869

>  <excitation_energy_3>
5.937

>  <excitation_energy_4>
5.972

>  <homo_energy>
-6.588

>  <homo_lumo_gap>
7.07

>  <logP>
0.699

>  <lumo_energy>
0.482

>  <melting_point>
2.07

>  <molecular_refractivity>
28.68

>  <oscillator_strength_1>
0.0014

>  <oscillator_strength_2>
0.0065

>  <oscillator_strength_3>
0.0049

>  <oscillator_strength_4>
0.0048

>  <open_babel_can_smiles>
C/C(=N\CC=C)/O

>  <mulliken_charges>
16
1   -0.345997
2   -0.544084
3   -0.041027
4   -0.198848
5   0.479544
6   -0.401397
7   -0.572324
8   0.141702
9   0.13194
10   0.185071
11   0.14356
12   0.197628
13   0.143421
14   0.120575
15   0.159249
16   0.400987

>  <lowdin_charges>
16
1   -0.3483
2   -0.481393
3   -0.14494
4   -0.198702
5   0.133991
6   -0.214115
7   -0.367862
8   0.159152
9   0.151511
10   0.175432
11   0.154151
12   0.182836
13   0.159665
14   0.1286
15   0.157318
16   0.352657

$$$$

