PCCDB-ID:  70036
public computational chemistry database (PCCDB) project, http://pccdb.org

 29 30  0  0  0  0  0  0  0  0999 V2000
    6.5936   -6.6952    1.3035 C   0  0  0  0  0  0  0  0  0  0  0  0
    6.0623    3.3312   -2.3274 C   0  0  0  0  0  0  0  0  0  0  0  0
    7.0245    3.2733   -1.3193 C   0  0  0  0  0  0  0  0  0  0  0  0
    5.4828    2.1504   -2.7994 C   0  0  0  0  0  0  0  0  0  0  0  0
    7.4033    2.0397   -0.7854 C   0  0  0  0  0  0  0  0  0  0  0  0
    5.8693    0.9194   -2.2720 C   0  0  0  0  0  0  0  0  0  0  0  0
    5.2685   -4.6603    0.5648 C   0  0  0  0  0  0  0  0  0  0  0  0
    7.6533   -4.4781    0.6686 C   0  0  0  0  0  0  0  0  0  0  0  0
    5.1777   -3.3463    0.1274 C   0  0  0  0  0  0  0  0  0  0  0  0
    7.5853   -3.1504    0.2298 C   0  0  0  0  0  0  0  0  0  0  0  0
    7.2884   -0.4799   -0.7161 C   0  0  0  0  0  0  0  0  0  0  0  0
    6.5097   -5.2582    0.8434 C   0  0  0  0  0  0  0  0  0  0  0  0
    6.8347    0.8536   -1.2592 C   0  0  0  0  0  0  0  0  0  0  0  0
    6.3400   -2.5793   -0.0453 C   0  0  0  0  0  0  0  0  0  0  0  0
    6.1433   -1.2946   -0.4752 O   0  0  0  0  0  0  0  0  0  0  0  0
    5.9315   -6.8850    2.1573 H   0  0  0  0  0  0  0  0  0  0  0  0
    7.6118   -6.9570    1.6092 H   0  0  0  0  0  0  0  0  0  0  0  0
    6.2985   -7.3927    0.5084 H   0  0  0  0  0  0  0  0  0  0  0  0
    5.7612    4.2902   -2.7407 H   0  0  0  0  0  0  0  0  0  0  0  0
    7.4750    4.1869   -0.9406 H   0  0  0  0  0  0  0  0  0  0  0  0
    4.7289    2.1893   -3.5813 H   0  0  0  0  0  0  0  0  0  0  0  0
    8.1456    2.0004    0.0090 H   0  0  0  0  0  0  0  0  0  0  0  0
    5.4138    0.0018   -2.6324 H   0  0  0  0  0  0  0  0  0  0  0  0
    4.3556   -5.2381    0.6950 H   0  0  0  0  0  0  0  0  0  0  0  0
    8.6302   -4.9080    0.8791 H   0  0  0  0  0  0  0  0  0  0  0  0
    4.2173   -2.8868   -0.0853 H   0  0  0  0  0  0  0  0  0  0  0  0
    8.5015   -2.5824    0.1154 H   0  0  0  0  0  0  0  0  0  0  0  0
    7.8601   -0.3415    0.2124 H   0  0  0  0  0  0  0  0  0  0  0  0
    7.9479   -0.9865   -1.4381 H   0  0  0  0  0  0  0  0  0  0  0  0
  1 17  1  0  0  0  0
  1 16  1  0  0  0  0
  2  3  1  0  0  0  0
  3 20  1  0  0  0  0
  3  5  2  0  0  0  0
  4  2  2  0  0  0  0
  4  6  1  0  0  0  0
  5 22  1  0  0  0  0
  6 13  2  0  0  0  0
  7 24  1  0  0  0  0
  7 12  2  0  0  0  0
  8 12  1  0  0  0  0
  8 25  1  0  0  0  0
  9  7  1  0  0  0  0
 10  8  2  0  0  0  0
 11 15  1  0  0  0  0
 11 28  1  0  0  0  0
 12  1  1  0  0  0  0
 13  5  1  0  0  0  0
 13 11  1  0  0  0  0
 14  9  2  0  0  0  0
 14 10  1  0  0  0  0
 15 14  1  0  0  0  0
 18  1  1  0  0  0  0
 19  2  1  0  0  0  0
 21  4  1  0  0  0  0
 23  6  1  0  0  0  0
 26  9  1  0  0  0  0
 27 10  1  0  0  0  0
 29 11  1  0  0  0  0
M  END
>  <HBA>
1

>  <HBD>
0

>  <TPSA>
9.23

>  <cid>
70036

>  <dipole>
0.96

>  <excitation_energy_1>
4.801

>  <excitation_energy_2>
4.939

>  <excitation_energy_3>
5.018

>  <excitation_energy_4>
5.312

>  <homo_energy>
-5.698

>  <homo_lumo_gap>
5.551

>  <logP>
3.574

>  <lumo_energy>
-0.147

>  <melting_point>
43.65

>  <molecular_refractivity>
62.39

>  <oscillator_strength_1>
0.0141

>  <oscillator_strength_2>
0.0172

>  <oscillator_strength_3>
0.003

>  <oscillator_strength_4>
0.0003

>  <open_babel_can_smiles>
Cc1ccc(cc1)OCc1ccccc1

>  <mulliken_charges>
29
1   -0.530136
2   -0.126516
3   -0.128915
4   -0.13265
5   -0.180874
6   -0.157494
7   -0.181685
8   -0.19586
9   -0.175004
10   -0.190365
11   -0.111022
12   0.179397
13   0.137427
14   0.377457
15   -0.522516
16   0.157621
17   0.15231
18   0.160213
19   0.130169
20   0.130582
21   0.131568
22   0.125153
23   0.142139
24   0.122378
25   0.121007
26   0.136204
27   0.131935
28   0.144895
29   0.152582

>  <lowdin_charges>
29
1   -0.442266
2   -0.156542
3   -0.156038
4   -0.152399
5   -0.163299
6   -0.153205
7   -0.156771
8   -0.159353
9   -0.180505
10   -0.215998
11   -0.124655
12   -0.017291
13   -0.014949
14   0.09978
15   -0.201918
16   0.15812
17   0.154572
18   0.159184
19   0.158054
20   0.158714
21   0.158595
22   0.155389
23   0.165026
24   0.155515
25   0.153554
26   0.165506
27   0.161523
28   0.14375
29   0.147906

$$$$

