PCCDB-ID:  6043
public computational chemistry database (PCCDB) project, http://pccdb.org

 15 16  0  0  0  0  0  0  0  0999 V2000
   -2.0800   -0.7305    0.0002 C   0  0  0  0  0  0  0  0  0  0  0  0
   -2.0889    0.6735    0.0006 C   0  0  0  0  0  0  0  0  0  0  0  0
   -0.8874   -1.4592    0.0002 C   0  0  0  0  0  0  0  0  0  0  0  0
   -0.8984    1.4106    0.0008 C   0  0  0  0  0  0  0  0  0  0  0  0
    0.3060   -0.7379    0.0003 C   0  0  0  0  0  0  0  0  0  0  0  0
    0.2649    0.6640    0.0012 C   0  0  0  0  0  0  0  0  0  0  0  0
    2.2948   -0.0355    0.0004 C   0  0  0  0  0  0  0  0  0  0  0  0
    1.6452   -1.1536   -0.0004 N   0  0  0  0  0  0  0  0  0  0  0  0
    3.6125    0.1467    0.0009 O   0  0  0  0  0  0  0  0  0  0  0  0
    1.5771    1.1156    0.0014 O   0  0  0  0  0  0  0  0  0  0  0  0
   -3.0266   -1.2636   -0.0010 H   0  0  0  0  0  0  0  0  0  0  0  0
   -3.0377    1.2018    0.0007 H   0  0  0  0  0  0  0  0  0  0  0  0
   -0.8818   -2.5444   -0.0000 H   0  0  0  0  0  0  0  0  0  0  0  0
   -0.8874    2.4952    0.0003 H   0  0  0  0  0  0  0  0  0  0  0  0
    4.0126   -0.7401    0.0002 H   0  0  0  0  0  0  0  0  0  0  0  0
  1  3  2  0  0  0  0
  1  2  1  0  0  0  0
  2 12  1  0  0  0  0
  2  4  2  0  0  0  0
  3  5  1  0  0  0  0
  4  6  1  0  0  0  0
  5  6  2  0  0  0  0
  6 10  1  0  0  0  0
  7  9  1  0  0  0  0
  7 10  1  0  0  0  0
  8  5  1  0  0  0  0
  8  7  2  0  0  0  0
 11  1  1  0  0  0  0
 13  3  1  0  0  0  0
 14  4  1  0  0  0  0
 15  9  1  0  0  0  0
M  END
>  <HBA>
2

>  <HBD>
1

>  <TPSA>
46.0

>  <cid>
6043

>  <dipole>
0.26

>  <excitation_energy_1>
5.077

>  <excitation_energy_2>
5.368

>  <excitation_energy_3>
5.526

>  <excitation_energy_4>
5.935

>  <homo_energy>
-6.161

>  <homo_lumo_gap>
5.812

>  <logP>
1.121

>  <lumo_energy>
-0.348

>  <melting_point>
129.6

>  <molecular_refractivity>
36.83

>  <oscillator_strength_1>
0.0542

>  <oscillator_strength_2>
0.0002

>  <oscillator_strength_3>
0.1379

>  <oscillator_strength_4>
0.005

>  <open_babel_can_smiles>
Oc1nc2c(o1)cccc2

>  <mulliken_charges>
15
1   -0.14086
2   -0.148965
3   -0.180122
4   -0.183412
5   0.250745
6   0.320266
7   0.700537
8   -0.53915
9   -0.590027
10   -0.487304
11   0.132592
12   0.134338
13   0.143846
14   0.150257
15   0.437258

>  <lowdin_charges>
15
1   -0.160697
2   -0.161991
3   -0.161211
4   -0.170202
5   0.017888
6   0.069985
7   0.188084
8   -0.232088
9   -0.319856
10   -0.112586
11   0.160602
12   0.161516
13   0.166562
14   0.170164
15   0.38383

$$$$

