PCCDB-ID:  16568
public computational chemistry database (PCCDB) project, http://pccdb.org

 28 27  0  0  0  0  0  0  0  0999 V2000
    4.9300    2.4851   -0.9431 C   0  0  0  0  0  0  0  0  0  0  0  0
    4.8103   -5.7327    5.6017 C   0  0  0  0  0  0  0  0  0  0  0  0
    4.4528    1.0848   -0.5449 C   0  0  0  0  0  0  0  0  0  0  0  0
    4.3721   -5.0263    4.3147 C   0  0  0  0  0  0  0  0  0  0  0  0
    4.8214    0.7213    0.9005 C   0  0  0  0  0  0  0  0  0  0  0  0
    4.7599   -3.5410    4.2916 C   0  0  0  0  0  0  0  0  0  0  0  0
    4.3537   -0.6806    1.2906 C   0  0  0  0  0  0  0  0  0  0  0  0
    4.3290   -2.8399    3.0034 C   0  0  0  0  0  0  0  0  0  0  0  0
    6.4114   -1.0949    3.0174 O   0  0  0  0  0  0  0  0  0  0  0  0
    4.8942   -1.0798    3.0133 S   0  0  0  0  0  0  0  0  0  0  0  0
    4.6585    2.7181   -1.9788 H   0  0  0  0  0  0  0  0  0  0  0  0
    6.0197    2.5709   -0.8552 H   0  0  0  0  0  0  0  0  0  0  0  0
    4.4843    3.2537   -0.3000 H   0  0  0  0  0  0  0  0  0  0  0  0
    4.5237   -6.7902    5.5920 H   0  0  0  0  0  0  0  0  0  0  0  0
    4.3512   -5.2703    6.4839 H   0  0  0  0  0  0  0  0  0  0  0  0
    5.8982   -5.6820    5.7297 H   0  0  0  0  0  0  0  0  0  0  0  0
    4.8875    0.3409   -1.2271 H   0  0  0  0  0  0  0  0  0  0  0  0
    3.3630    1.0175   -0.6730 H   0  0  0  0  0  0  0  0  0  0  0  0
    3.2836   -5.1226    4.1948 H   0  0  0  0  0  0  0  0  0  0  0  0
    4.8212   -5.5309    3.4479 H   0  0  0  0  0  0  0  0  0  0  0  0
    4.3842    1.4599    1.5874 H   0  0  0  0  0  0  0  0  0  0  0  0
    5.9089    0.7734    1.0338 H   0  0  0  0  0  0  0  0  0  0  0  0
    5.8469   -3.4372    4.3961 H   0  0  0  0  0  0  0  0  0  0  0  0
    4.3107   -3.0311    5.1557 H   0  0  0  0  0  0  0  0  0  0  0  0
    4.7885   -1.4384    0.6274 H   0  0  0  0  0  0  0  0  0  0  0  0
    3.2602   -0.7710    1.2653 H   0  0  0  0  0  0  0  0  0  0  0  0
    3.2377   -2.8295    2.8862 H   0  0  0  0  0  0  0  0  0  0  0  0
    4.7765   -3.3209    2.1250 H   0  0  0  0  0  0  0  0  0  0  0  0
  1 12  1  0  0  0  0
  1  3  1  0  0  0  0
  1 13  1  0  0  0  0
  2 16  1  0  0  0  0
  2 15  1  0  0  0  0
  3  5  1  0  0  0  0
  4  2  1  0  0  0  0
  5 22  1  0  0  0  0
  5  7  1  0  0  0  0
  5 21  1  0  0  0  0
  6  4  1  0  0  0  0
  6 23  1  0  0  0  0
  6 24  1  0  0  0  0
  7 10  1  0  0  0  0
  8 10  1  0  0  0  0
  8  6  1  0  0  0  0
 10  9  2  0  0  0  0
 11  1  1  0  0  0  0
 14  2  1  0  0  0  0
 17  3  1  0  0  0  0
 18  3  1  0  0  0  0
 19  4  1  0  0  0  0
 20  4  1  0  0  0  0
 25  7  1  0  0  0  0
 26  7  1  0  0  0  0
 27  8  1  0  0  0  0
 28  8  1  0  0  0  0
M  END
>  <HBA>
1

>  <HBD>
0

>  <TPSA>
36.28

>  <cid>
16568

>  <dipole>
3.68

>  <excitation_energy_1>
5.615

>  <excitation_energy_2>
5.615

>  <excitation_energy_3>
5.672

>  <excitation_energy_4>
6.021

>  <homo_energy>
-5.848

>  <homo_lumo_gap>
7.015

>  <logP>
3.201

>  <lumo_energy>
1.167

>  <melting_point>
-8.59

>  <molecular_refractivity>
48.85

>  <oscillator_strength_1>
0.0778

>  <oscillator_strength_2>
0.0256

>  <oscillator_strength_3>
0.0119

>  <oscillator_strength_4>
0.0726

>  <open_babel_can_smiles>
CCCCS(=O)CCCC

>  <mulliken_charges>
28
1   -0.441931
2   -0.441869
3   -0.249534
4   -0.249406
5   -0.26657
6   -0.266604
7   -0.457956
8   -0.457546
9   -0.644929
10   0.762216
11   0.144951
12   0.149453
13   0.144481
14   0.144931
15   0.144447
16   0.149425
17   0.136633
18   0.13066
19   0.13059
20   0.136697
21   0.143822
22   0.173636
23   0.173432
24   0.143751
25   0.174815
26   0.158754
27   0.158604
28   0.175046

>  <lowdin_charges>
28
1   -0.441791
2   -0.440814
3   -0.269709
4   -0.269219
5   -0.280102
6   -0.280057
7   -0.420981
8   -0.420233
9   -0.68338
10   0.794937
11   0.150222
12   0.148745
13   0.149203
14   0.149819
15   0.148665
16   0.148772
17   0.143072
18   0.13655
19   0.136537
20   0.142663
21   0.147859
22   0.160031
23   0.159927
24   0.147394
25   0.162177
26   0.158964
27   0.158981
28   0.161766

$$$$

