PCCDB-ID:  45006
public computational chemistry database (PCCDB) project, http://pccdb.org

 36 36  0  0  0  0  0  0  0  0999 V2000
    4.8792   -0.9672    0.9470 C   0  0  0  0  0  0  0  0  0  0  0  0
    3.8226   -2.5794   -3.0484 C   0  0  0  0  0  0  0  0  0  0  0  0
    5.3317   -1.8420   -0.2255 C   0  0  0  0  0  0  0  0  0  0  0  0
    3.9565   -1.2800   -2.2488 C   0  0  0  0  0  0  0  0  0  0  0  0
    6.6495    0.3378   -5.6292 C   0  0  0  0  0  0  0  0  0  0  0  0
    6.2845    1.6831   -5.7007 C   0  0  0  0  0  0  0  0  0  0  0  0
    6.5844   -0.3299   -4.4058 C   0  0  0  0  0  0  0  0  0  0  0  0
    5.8546    2.3563   -4.5568 C   0  0  0  0  0  0  0  0  0  0  0  0
    6.8449    3.1656   -0.5090 C   0  0  0  0  0  0  0  0  0  0  0  0
    5.9749    3.4843   -1.7274 C   0  0  0  0  0  0  0  0  0  0  0  0
    6.1666    0.3338   -3.2472 C   0  0  0  0  0  0  0  0  0  0  0  0
    5.8027    1.6869   -3.3296 C   0  0  0  0  0  0  0  0  0  0  0  0
    6.2513   -0.3443   -1.8972 C   0  0  0  0  0  0  0  0  0  0  0  0
    5.2236   -1.1641   -1.5236 N   0  0  0  0  0  0  0  0  0  0  0  0
    7.4718    4.3473   -0.0188 O   0  0  0  0  0  0  0  0  0  0  0  0
    7.2487   -0.1767   -1.1950 O   0  0  0  0  0  0  0  0  0  0  0  0
    5.3228    2.2915   -2.1935 O   0  0  0  0  0  0  0  0  0  0  0  0
    4.9535   -1.5254    1.8876 H   0  0  0  0  0  0  0  0  0  0  0  0
    3.8392   -0.6412    0.8290 H   0  0  0  0  0  0  0  0  0  0  0  0
    5.5156   -0.0812    1.0202 H   0  0  0  0  0  0  0  0  0  0  0  0
    2.8321   -2.6359   -3.5144 H   0  0  0  0  0  0  0  0  0  0  0  0
    3.9438   -3.4612   -2.4097 H   0  0  0  0  0  0  0  0  0  0  0  0
    4.5769   -2.6264   -3.8406 H   0  0  0  0  0  0  0  0  0  0  0  0
    4.7314   -2.7568   -0.2785 H   0  0  0  0  0  0  0  0  0  0  0  0
    6.3760   -2.1324   -0.0901 H   0  0  0  0  0  0  0  0  0  0  0  0
    3.1432   -1.2042   -1.5156 H   0  0  0  0  0  0  0  0  0  0  0  0
    3.8569   -0.4205   -2.9144 H   0  0  0  0  0  0  0  0  0  0  0  0
    6.9852   -0.1880   -6.5183 H   0  0  0  0  0  0  0  0  0  0  0  0
    6.3237    2.2103   -6.6501 H   0  0  0  0  0  0  0  0  0  0  0  0
    6.8857   -1.3721   -4.3385 H   0  0  0  0  0  0  0  0  0  0  0  0
    5.5433    3.3955   -4.6114 H   0  0  0  0  0  0  0  0  0  0  0  0
    7.5641    2.3741   -0.7556 H   0  0  0  0  0  0  0  0  0  0  0  0
    6.2117    2.7899    0.3000 H   0  0  0  0  0  0  0  0  0  0  0  0
    6.5836    3.9258   -2.5268 H   0  0  0  0  0  0  0  0  0  0  0  0
    5.1947    4.2024   -1.4553 H   0  0  0  0  0  0  0  0  0  0  0  0
    8.2286    4.5390   -0.5933 H   0  0  0  0  0  0  0  0  0  0  0  0
  1 20  1  0  0  0  0
  1 18  1  0  0  0  0
  2 22  1  0  0  0  0
  2  4  1  0  0  0  0
  3 25  1  0  0  0  0
  3  1  1  0  0  0  0
  4 14  1  0  0  0  0
  4 26  1  0  0  0  0
  5  7  1  0  0  0  0
  6  5  2  0  0  0  0
  6  8  1  0  0  0  0
  7 30  1  0  0  0  0
  7 11  2  0  0  0  0
  8 12  2  0  0  0  0
  9 15  1  0  0  0  0
  9 33  1  0  0  0  0
 10 35  1  0  0  0  0
 10  9  1  0  0  0  0
 11 13  1  0  0  0  0
 12 11  1  0  0  0  0
 12 17  1  0  0  0  0
 13 14  1  0  0  0  0
 13 16  2  0  0  0  0
 14  3  1  0  0  0  0
 17 10  1  0  0  0  0
 19  1  1  0  0  0  0
 21  2  1  0  0  0  0
 23  2  1  0  0  0  0
 24  3  1  0  0  0  0
 27  4  1  0  0  0  0
 28  5  1  0  0  0  0
 29  6  1  0  0  0  0
 31  8  1  0  0  0  0
 32  9  1  0  0  0  0
 34 10  1  0  0  0  0
 36 15  1  0  0  0  0
M  END
>  <HBA>
4

>  <HBD>
1

>  <TPSA>
49.77

>  <cid>
45006

>  <dipole>
3.26

>  <excitation_energy_1>
4.955

>  <excitation_energy_2>
5.211

>  <excitation_energy_3>
5.319

>  <excitation_energy_4>
5.48

>  <homo_energy>
-6.133

>  <homo_lumo_gap>
5.856

>  <logP>
1.54

>  <lumo_energy>
-0.278

>  <melting_point>
62.92

>  <molecular_refractivity>
66.41

>  <oscillator_strength_1>
0.0277

>  <oscillator_strength_2>
0.002

>  <oscillator_strength_3>
0.0205

>  <oscillator_strength_4>
0.0133

>  <open_babel_can_smiles>
OCCOc1ccccc1C(=O)N(CC)CC

>  <mulliken_charges>
36
1   -0.447423
2   -0.443157
3   -0.144082
4   -0.148102
5   -0.130307
6   -0.135905
7   -0.168045
8   -0.168047
9   -0.069571
10   -0.056361
11   -0.005425
12   0.335625
13   0.530713
14   -0.392075
15   -0.614939
16   -0.52117
17   -0.537231
18   0.144789
19   0.143726
20   0.180117
21   0.148826
22   0.152091
23   0.15589
24   0.138849
25   0.17902
26   0.151357
27   0.174786
28   0.131683
29   0.134282
30   0.140189
31   0.137372
32   0.171232
33   0.156919
34   0.12737
35   0.155493
36   0.391513

>  <lowdin_charges>
36
1   -0.450587
2   -0.453798
3   -0.193297
4   -0.196637
5   -0.168638
6   -0.149143
7   -0.148835
8   -0.186924
9   -0.15556
10   -0.143666
11   -0.053897
12   0.096712
13   0.164332
14   -0.095231
15   -0.466644
16   -0.315886
17   -0.222356
18   0.153397
19   0.146245
20   0.166046
21   0.154756
22   0.151811
23   0.154983
24   0.144351
25   0.166419
26   0.149143
27   0.167069
28   0.160712
29   0.160272
30   0.16097
31   0.162958
32   0.153524
33   0.153288
34   0.137951
35   0.152056
36   0.344103

$$$$

