PCCDB-ID:  757
public computational chemistry database (PCCDB) project, http://pccdb.org

  9  8  0  0  0  0  0  0  0  0999 V2000
    1.0563   -0.2410    0.2422 C   0  0  0  0  0  0  0  0  0  0  0  0
    0.3816   -1.3523   -0.5741 C   0  0  0  0  0  0  0  0  0  0  0  0
    2.1297    0.3739   -0.4757 O   0  0  0  0  0  0  0  0  0  0  0  0
   -0.4320   -2.1069   -0.1030 O   0  0  0  0  0  0  0  0  0  0  0  0
    0.7630   -1.3820   -1.8640 O   0  0  0  0  0  0  0  0  0  0  0  0
    1.3714   -0.6508    1.2072 H   0  0  0  0  0  0  0  0  0  0  0  0
    0.3112    0.5368    0.4380 H   0  0  0  0  0  0  0  0  0  0  0  0
    2.9502   -0.0945   -0.2573 H   0  0  0  0  0  0  0  0  0  0  0  0
    1.4180   -0.6588   -1.9709 H   0  0  0  0  0  0  0  0  0  0  0  0
  1  7  1  0  0  0  0
  1  6  1  0  0  0  0
  2  4  2  0  0  0  0
  2  1  1  0  0  0  0
  3  8  1  0  0  0  0
  3  1  1  0  0  0  0
  5  2  1  0  0  0  0
  9  5  1  0  0  0  0
M  END
>  <HBA>
3

>  <HBD>
2

>  <TPSA>
57.53

>  <cid>
757

>  <dipole>
4.03

>  <excitation_energy_1>
5.615

>  <excitation_energy_2>
6.102

>  <excitation_energy_3>
7.349

>  <excitation_energy_4>
7.392

>  <homo_energy>
-7.23

>  <homo_lumo_gap>
7.442

>  <logP>
-0.937

>  <lumo_energy>
0.212

>  <melting_point>
71.87

>  <molecular_refractivity>
14.66

>  <oscillator_strength_1>
0.0012

>  <oscillator_strength_2>
0.0068

>  <oscillator_strength_3>
0.0483

>  <oscillator_strength_4>
0.0082

>  <open_babel_can_smiles>
OCC(=O)O

>  <mulliken_charges>
9
1   -0.159274
2   0.565825
3   -0.618131
4   -0.442118
5   -0.566108
6   0.181397
7   0.201915
8   0.412596
9   0.423898

>  <lowdin_charges>
9
1   -0.181696
2   0.168205
3   -0.458747
4   -0.244277
5   -0.351055
6   0.16781
7   0.181495
8   0.357673
9   0.360592

$$$$

