PCCDB-ID:  11985
public computational chemistry database (PCCDB) project, http://pccdb.org

 16 17  0  0  0  0  0  0  0  0999 V2000
    2.0848   -0.6900   -0.0039 C   0  0  0  0  0  0  0  0  0  0  0  0
    2.0971    0.7150    0.0218 C   0  0  0  0  0  0  0  0  0  0  0  0
    0.8887   -1.4076   -0.0137 C   0  0  0  0  0  0  0  0  0  0  0  0
    0.9104    1.4512    0.0392 C   0  0  0  0  0  0  0  0  0  0  0  0
   -0.3101   -0.6910    0.0033 C   0  0  0  0  0  0  0  0  0  0  0  0
   -0.2767    0.7260    0.0301 C   0  0  0  0  0  0  0  0  0  0  0  0
   -2.3408   -0.0583    0.0193 C   0  0  0  0  0  0  0  0  0  0  0  0
   -1.6284   -1.1500   -0.0024 N   0  0  0  0  0  0  0  0  0  0  0  0
   -1.6184    1.1048    0.0397 N   0  0  0  0  0  0  0  0  0  0  0  0
   -3.6814    0.0187    0.0235 O   0  0  0  0  0  0  0  0  0  0  0  0
    3.0290   -1.2274   -0.0165 H   0  0  0  0  0  0  0  0  0  0  0  0
    3.0473    1.2413    0.0288 H   0  0  0  0  0  0  0  0  0  0  0  0
    0.8763   -2.4929   -0.0338 H   0  0  0  0  0  0  0  0  0  0  0  0
    0.9206    2.5374    0.0587 H   0  0  0  0  0  0  0  0  0  0  0  0
   -2.0036    2.0369    0.0565 H   0  0  0  0  0  0  0  0  0  0  0  0
   -4.0016   -0.8999    0.0056 H   0  0  0  0  0  0  0  0  0  0  0  0
  1  2  1  0  0  0  0
  2 12  1  0  0  0  0
  2  4  2  0  0  0  0
  3  1  2  0  0  0  0
  3  5  1  0  0  0  0
  4 14  1  0  0  0  0
  5  6  2  0  0  0  0
  6  4  1  0  0  0  0
  6  9  1  0  0  0  0
  7 10  1  0  0  0  0
  7  9  1  0  0  0  0
  8  5  1  0  0  0  0
  8  7  2  0  0  0  0
  9 15  1  0  0  0  0
 11  1  1  0  0  0  0
 13  3  1  0  0  0  0
 16 10  1  0  0  0  0
M  END
>  <HBA>
1

>  <HBD>
2

>  <TPSA>
48.65

>  <cid>
11985

>  <dipole>
2.21

>  <excitation_energy_1>
4.993

>  <excitation_energy_2>
5.05

>  <excitation_energy_3>
5.366

>  <excitation_energy_4>
5.441

>  <homo_energy>
-5.736

>  <homo_lumo_gap>
5.736

>  <logP>
0.856

>  <lumo_energy>
0.0

>  <melting_point>
177.64

>  <molecular_refractivity>
38.92

>  <oscillator_strength_1>
0.0651

>  <oscillator_strength_2>
0.0

>  <oscillator_strength_3>
0.0614

>  <oscillator_strength_4>
0.0

>  <open_babel_can_smiles>
Oc1nc2c([nH]1)cccc2

>  <mulliken_charges>
16
1   -0.141418
2   -0.152412
3   -0.189451
4   -0.175449
5   0.238913
6   0.347632
7   0.697875
8   -0.561122
9   -0.72529
10   -0.619808
11   0.123836
12   0.124598
13   0.135545
14   0.125878
15   0.339314
16   0.431358

>  <lowdin_charges>
16
1   -0.170177
2   -0.167248
3   -0.16278
4   -0.184797
5   0.020401
6   0.019289
7   0.152371
8   -0.248303
9   -0.216857
10   -0.353155
11   0.156662
12   0.156768
13   0.162792
14   0.155615
15   0.301666
16   0.377752

$$$$

