PCCDB-ID:  11676
public computational chemistry database (PCCDB) project, http://pccdb.org

 24 23  0  0  0  0  0  0  0  0999 V2000
    1.0273   -0.0347   -0.0937 C   0  0  0  0  0  0  0  0  0  0  0  0
    3.0998   -1.4055    0.1680 C   0  0  0  0  0  0  0  0  0  0  0  0
    3.0619    0.5035   -1.4563 C   0  0  0  0  0  0  0  0  0  0  0  0
    4.5946    1.0508    1.1978 C   0  0  0  0  0  0  0  0  0  0  0  0
    2.5088    2.4178    0.9464 C   0  0  0  0  0  0  0  0  0  0  0  0
    2.5717    0.0268   -0.0738 C   0  0  0  0  0  0  0  0  0  0  0  0
    3.0603    0.9854    1.0769 C   0  0  0  0  0  0  0  0  0  0  0  0
    2.5331    0.4056    2.2882 O   0  0  0  0  0  0  0  0  0  0  0  0
    0.6940   -0.7858   -0.8197 H   0  0  0  0  0  0  0  0  0  0  0  0
    0.5805    0.9205   -0.3901 H   0  0  0  0  0  0  0  0  0  0  0  0
    0.6325   -0.3083    0.8882 H   0  0  0  0  0  0  0  0  0  0  0  0
    2.6685   -2.0902   -0.5718 H   0  0  0  0  0  0  0  0  0  0  0  0
    2.8264   -1.7601    1.1652 H   0  0  0  0  0  0  0  0  0  0  0  0
    4.1889   -1.4664    0.0681 H   0  0  0  0  0  0  0  0  0  0  0  0
    2.7003   -0.1842   -2.2299 H   0  0  0  0  0  0  0  0  0  0  0  0
    4.1551    0.5228   -1.5250 H   0  0  0  0  0  0  0  0  0  0  0  0
    2.6874    1.5014   -1.7105 H   0  0  0  0  0  0  0  0  0  0  0  0
    5.0664    1.4631    0.3002 H   0  0  0  0  0  0  0  0  0  0  0  0
    5.0204    0.0643    1.3962 H   0  0  0  0  0  0  0  0  0  0  0  0
    4.8688    1.7058    2.0354 H   0  0  0  0  0  0  0  0  0  0  0  0
    2.8522    2.9155    0.0336 H   0  0  0  0  0  0  0  0  0  0  0  0
    2.8579    3.0227    1.7937 H   0  0  0  0  0  0  0  0  0  0  0  0
    1.4163    2.4277    0.9606 H   0  0  0  0  0  0  0  0  0  0  0  0
    2.8159    0.9714    3.0236 H   0  0  0  0  0  0  0  0  0  0  0  0
  1  6  1  0  0  0  0
  1 11  1  0  0  0  0
  2 13  1  0  0  0  0
  3  6  1  0  0  0  0
  4 19  1  0  0  0  0
  4 20  1  0  0  0  0
  5 23  1  0  0  0  0
  5  7  1  0  0  0  0
  5 22  1  0  0  0  0
  6  2  1  0  0  0  0
  6  7  1  0  0  0  0
  7  4  1  0  0  0  0
  7  8  1  0  0  0  0
  8 24  1  0  0  0  0
  9  1  1  0  0  0  0
 10  1  1  0  0  0  0
 12  2  1  0  0  0  0
 14  2  1  0  0  0  0
 15  3  1  0  0  0  0
 16  3  1  0  0  0  0
 17  3  1  0  0  0  0
 18  4  1  0  0  0  0
 21  5  1  0  0  0  0
M  END
>  <HBA>
1

>  <HBD>
1

>  <TPSA>
20.23

>  <cid>
11676

>  <dipole>
1.44

>  <excitation_energy_1>
6.393

>  <excitation_energy_2>
7.089

>  <excitation_energy_3>
7.374

>  <excitation_energy_4>
7.384

>  <homo_energy>
-7.034

>  <homo_lumo_gap>
8.778

>  <logP>
1.803

>  <lumo_energy>
1.744

>  <melting_point>
21.1

>  <molecular_refractivity>
36.7

>  <oscillator_strength_1>
0.0159

>  <oscillator_strength_2>
0.0008

>  <oscillator_strength_3>
0.0073

>  <oscillator_strength_4>
0.0029

>  <open_babel_can_smiles>
CC(C(C)(C)C)(O)C

>  <mulliken_charges>
24
1   -0.456884
2   -0.456592
3   -0.457832
4   -0.47041
5   -0.470266
6   0.099622
7   0.327092
8   -0.6463
9   0.132089
10   0.133564
11   0.167156
12   0.132003
13   0.16753
14   0.133407
15   0.141605
16   0.14009
17   0.139895
18   0.145643
19   0.159511
20   0.125406
21   0.145404
22   0.125363
23   0.159684
24   0.38322

>  <lowdin_charges>
24
1   -0.447718
2   -0.44535
3   -0.444362
4   -0.461972
5   -0.45985
6   0.011003
7   0.125957
8   -0.464803
9   0.146113
10   0.143514
11   0.160638
12   0.146267
13   0.16062
14   0.141463
15   0.151728
16   0.144425
17   0.14574
18   0.153341
19   0.157706
20   0.143378
21   0.152979
22   0.143454
23   0.156089
24   0.33964

$$$$

