PCCDB-ID:  32106
public computational chemistry database (PCCDB) project, http://pccdb.org

 32 33  0  0  1  0  0  0  0  0999 V2000
    1.3080   -0.1780   -0.7284 C   0  0  0  0  0  0  0  0  0  0  0  0
    2.1816   -1.3423   -0.2872 C   0  0  0  0  0  0  0  0  0  0  0  0
    8.4790   -2.0139   -2.3340 C   0  0  0  0  0  0  0  0  0  0  0  0
    7.4112   -1.7414   -1.4846 C   0  0  0  0  0  0  0  0  0  0  0  0
    8.5358    0.3173   -2.9717 C   0  0  0  0  0  0  0  0  0  0  0  0
    5.5249    2.0223   -1.4442 C   0  0  0  0  0  0  0  0  0  0  0  0
    9.0456   -0.9764   -3.0839 C   0  0  0  0  0  0  0  0  0  0  0  0
    6.8897   -0.4500   -1.3656 C   0  0  0  0  0  0  0  0  0  0  0  0
    7.4596    0.5864   -2.1245 C   0  0  0  0  0  0  0  0  0  0  0  0
    6.9544    2.0176   -1.9865 C   0  0  2  0  0  0  0  0  0  0  0  0
    5.7246   -0.1911   -0.4303 C   0  0  2  0  0  0  0  0  0  0  0  0
    4.4047   -0.7842   -0.9650 C   0  0  0  0  0  0  0  0  0  0  0  0
    5.5586    1.2527   -0.1915 N   0  0  0  0  0  0  0  0  0  0  0  0
   10.0961   -1.1717   -3.9380 O   0  0  0  0  0  0  0  0  0  0  0  0
    7.8031    2.7805   -1.1298 O   0  0  0  0  0  0  0  0  0  0  0  0
    4.1464   -1.0448   -2.1189 O   0  0  0  0  0  0  0  0  0  0  0  0
    3.5184   -0.9002    0.0573 O   0  0  0  0  0  0  0  0  0  0  0  0
    0.2855   -0.5282   -0.9103 H   0  0  0  0  0  0  0  0  0  0  0  0
    1.6885    0.2596   -1.6558 H   0  0  0  0  0  0  0  0  0  0  0  0
    1.2707    0.5979    0.0437 H   0  0  0  0  0  0  0  0  0  0  0  0
    2.2565   -2.1000   -1.0709 H   0  0  0  0  0  0  0  0  0  0  0  0
    1.8052   -1.8024    0.6297 H   0  0  0  0  0  0  0  0  0  0  0  0
    8.8715   -3.0260   -2.4145 H   0  0  0  0  0  0  0  0  0  0  0  0
    6.9756   -2.5533   -0.9058 H   0  0  0  0  0  0  0  0  0  0  0  0
    8.9924    1.1145   -3.5510 H   0  0  0  0  0  0  0  0  0  0  0  0
    4.8229    1.6195   -2.1930 H   0  0  0  0  0  0  0  0  0  0  0  0
    5.2336    3.0508   -1.2119 H   0  0  0  0  0  0  0  0  0  0  0  0
    6.9914    2.5174   -2.9599 H   0  0  0  0  0  0  0  0  0  0  0  0
    5.9160   -0.6623    0.5411 H   0  0  0  0  0  0  0  0  0  0  0  0
    4.7232    1.4094    0.3670 H   0  0  0  0  0  0  0  0  0  0  0  0
   10.3413   -2.1098   -3.9257 H   0  0  0  0  0  0  0  0  0  0  0  0
    7.6285    2.4271   -0.2382 H   0  0  0  0  0  0  0  0  0  0  0  0
  1  2  1  0  0  0  0
  1 20  1  0  0  0  0
  2 17  1  0  0  0  0
  2 22  1  0  0  0  0
  3  4  2  0  0  0  0
  4  8  1  0  0  0  0
  4 24  1  0  0  0  0
  5  9  1  0  0  0  0
  6 27  1  0  0  0  0
  6 13  1  0  0  0  0
  7  5  2  0  0  0  0
  7  3  1  0  0  0  0
  8 11  1  0  0  0  0
  9 10  1  0  0  0  0
  9  8  2  0  0  0  0
 10 28  1  6  0  0  0
 10  6  1  0  0  0  0
 10 15  1  0  0  0  0
 11 13  1  0  0  0  0
 11 29  1  1  0  0  0
 12 11  1  0  0  0  0
 12 17  1  0  0  0  0
 13 30  1  0  0  0  0
 14 31  1  0  0  0  0
 14  7  1  0  0  0  0
 15 32  1  0  0  0  0
 16 12  2  0  0  0  0
 18  1  1  0  0  0  0
 19  1  1  0  0  0  0
 21  2  1  0  0  0  0
 23  3  1  0  0  0  0
 25  5  1  0  0  0  0
 26  6  1  0  0  0  0
M  END
>  <HBA>
5

>  <HBD>
3

>  <TPSA>
78.79

>  <cid>
32106

>  <dipole>
3.95

>  <excitation_energy_1>
4.81

>  <excitation_energy_2>
4.977

>  <excitation_energy_3>
5.139

>  <excitation_energy_4>
5.213

>  <homo_energy>
-5.894

>  <homo_lumo_gap>
5.728

>  <logP>
0.962

>  <lumo_energy>
-0.166

>  <melting_point>
131.13

>  <molecular_refractivity>
64.67

>  <oscillator_strength_1>
0.0104

>  <oscillator_strength_2>
0.03

>  <oscillator_strength_3>
0.0092

>  <oscillator_strength_4>
0.0008

>  <open_babel_can_smiles>
CCOC(=O)[C@@H]1NC[C@H](c2c1ccc(c2)O)O

>  <mulliken_charges>
32
1   -0.464479
2   -0.045409
3   -0.195948
4   -0.175061
5   -0.218987
6   -0.182492
7   0.358147
8   0.143013
9   0.104713
10   0.070398
11   -0.139106
12   0.619562
13   -0.586222
14   -0.643569
15   -0.62521
16   -0.473134
17   -0.471088
18   0.154829
19   0.17671
20   0.154321
21   0.173355
22   0.154818
23   0.118929
24   0.126077
25   0.143817
26   0.148254
27   0.152366
28   0.139348
29   0.165897
30   0.3142
31   0.406867
32   0.395082

>  <lowdin_charges>
32
1   -0.455824
2   -0.128374
3   -0.210449
4   -0.145366
5   -0.182199
6   -0.228169
7   0.106446
8   -0.031726
9   -0.012114
10   -0.003394
11   -0.08451
12   0.173509
13   -0.350836
14   -0.375805
15   -0.460122
16   -0.255067
17   -0.204221
18   0.160542
19   0.165558
20   0.155006
21   0.16081
22   0.153967
23   0.153245
24   0.157572
25   0.171546
26   0.140088
27   0.15484
28   0.150341
29   0.16529
30   0.264466
31   0.355554
32   0.339397

$$$$

