PCCDB-ID:  9262
public computational chemistry database (PCCDB) project, http://pccdb.org

  9  9  0  0  0  0  0  0  0  0999 V2000
   -0.6445    1.1213    0.0010 C   0  0  0  0  0  0  0  0  0  0  0  0
   -0.6460   -1.1203   -0.0017 C   0  0  0  0  0  0  0  0  0  0  0  0
    1.2960   -0.0008   -0.0040 C   0  0  0  0  0  0  0  0  0  0  0  0
   -1.3741    0.0010    0.0012 N   0  0  0  0  0  0  0  0  0  0  0  0
    0.6907    1.1913   -0.0009 N   0  0  0  0  0  0  0  0  0  0  0  0
    0.6891   -1.1921   -0.0052 N   0  0  0  0  0  0  0  0  0  0  0  0
   -1.1881    2.0644    0.0023 H   0  0  0  0  0  0  0  0  0  0  0  0
   -1.1909   -2.0626   -0.0018 H   0  0  0  0  0  0  0  0  0  0  0  0
    2.3846   -0.0015   -0.0062 H   0  0  0  0  0  0  0  0  0  0  0  0
  1  4  2  0  0  0  0
  1  7  1  0  0  0  0
  2  4  2  0  0  0  0
  3  5  2  0  0  0  0
  5  1  1  0  0  0  0
  6  3  1  0  0  0  0
  6  2  1  0  0  0  0
  8  2  1  0  0  0  0
  9  3  1  0  0  0  0
M  RAD  1   6   2
M  END
>  <HBA>
3

>  <HBD>
0

>  <TPSA>
38.67

>  <cid>
9262

>  <dipole>
0.0

>  <excitation_energy_1>
4.512

>  <excitation_energy_2>
4.603

>  <excitation_energy_3>
4.603

>  <excitation_energy_4>
4.614

>  <homo_energy>
-7.608

>  <homo_lumo_gap>
6.03

>  <logP>
-0.128

>  <lumo_energy>
-1.578

>  <melting_point>
48.83

>  <molecular_refractivity>
19.83

>  <oscillator_strength_1>
0.0

>  <oscillator_strength_2>
0.0

>  <oscillator_strength_3>
0.0

>  <oscillator_strength_4>
0.0145

>  <open_babel_can_smiles>
C1=NC=[N]=C[N]1

>  <mulliken_charges>
9
1   0.181892
2   0.181847
3   0.181711
4   -0.35541
5   -0.355374
6   -0.355357
7   0.173554
8   0.173562
9   0.173575

>  <lowdin_charges>
9
1   -0.010898
2   -0.01091
3   -0.008331
4   -0.159119
5   -0.159072
6   -0.159071
7   0.170152
8   0.170164
9   0.167086

$$$$

