PCCDB-ID:  10123
public computational chemistry database (PCCDB) project, http://pccdb.org

 39 40  0  0  1  0  0  0  0  0999 V2000
    5.7157   -4.1877   -0.5007 C   0  0  0  0  0  0  0  0  0  0  0  0
    7.8210   -3.5792   -1.6582 C   0  0  0  0  0  0  0  0  0  0  0  0
    3.8656    0.0922    2.2712 C   0  0  0  0  0  0  0  0  0  0  0  0
    6.9351   -2.3313    4.2131 C   0  0  0  0  0  0  0  0  0  0  0  0
    6.6780    0.5830    4.9400 C   0  0  0  0  0  0  0  0  0  0  0  0
    5.3849    0.5901    4.1662 C   0  0  0  0  0  0  0  0  0  0  0  0
    8.2836   -2.7973    1.4287 C   0  0  0  0  0  0  0  0  0  0  0  0
    7.8518    0.0112    4.1277 C   0  0  0  0  0  0  0  0  0  0  0  0
    8.6473   -1.7135    2.4576 C   0  0  0  0  0  0  0  0  0  0  0  0
    5.9262   -1.8609    1.3134 C   0  0  0  0  0  0  0  0  0  0  0  0
    6.8114   -3.4217   -0.5434 C   0  0  0  0  0  0  0  0  0  0  0  0
    5.1949   -0.0066    2.9801 C   0  0  0  0  0  0  0  0  0  0  0  0
    7.1343   -2.3507    0.4909 C   0  0  2  0  0  0  0  0  0  0  0  0
    6.3432   -0.7305    2.2772 C   0  0  1  0  0  0  0  0  0  0  0  0
    7.4386   -1.2088    3.2782 C   0  0  1  0  0  0  0  0  0  0  0  0
    5.5327   -4.9498   -1.2544 H   0  0  0  0  0  0  0  0  0  0  0  0
    4.9613   -4.0923    0.2739 H   0  0  0  0  0  0  0  0  0  0  0  0
    7.5395   -4.3833   -2.3450 H   0  0  0  0  0  0  0  0  0  0  0  0
    8.8246   -3.8022   -1.2737 H   0  0  0  0  0  0  0  0  0  0  0  0
    7.9089   -2.6508   -2.2398 H   0  0  0  0  0  0  0  0  0  0  0  0
    3.1628    0.7081    2.8415 H   0  0  0  0  0  0  0  0  0  0  0  0
    3.4039   -0.8921    2.1202 H   0  0  0  0  0  0  0  0  0  0  0  0
    3.9723    0.5425    1.2741 H   0  0  0  0  0  0  0  0  0  0  0  0
    7.6975   -2.5554    4.9700 H   0  0  0  0  0  0  0  0  0  0  0  0
    6.7289   -3.2623    3.6779 H   0  0  0  0  0  0  0  0  0  0  0  0
    6.0165   -2.0448    4.7330 H   0  0  0  0  0  0  0  0  0  0  0  0
    6.5405    0.0098    5.8703 H   0  0  0  0  0  0  0  0  0  0  0  0
    6.9171    1.6046    5.2685 H   0  0  0  0  0  0  0  0  0  0  0  0
    4.5514    1.1227    4.6258 H   0  0  0  0  0  0  0  0  0  0  0  0
    7.9819   -3.7227    1.9355 H   0  0  0  0  0  0  0  0  0  0  0  0
    9.1750   -3.0490    0.8413 H   0  0  0  0  0  0  0  0  0  0  0  0
    8.6769   -0.2606    4.8003 H   0  0  0  0  0  0  0  0  0  0  0  0
    8.2401    0.7887    3.4551 H   0  0  0  0  0  0  0  0  0  0  0  0
    9.0937   -0.8585    1.9280 H   0  0  0  0  0  0  0  0  0  0  0  0
    9.4227   -2.0942    3.1372 H   0  0  0  0  0  0  0  0  0  0  0  0
    5.4823   -2.6920    1.8757 H   0  0  0  0  0  0  0  0  0  0  0  0
    5.1536   -1.5083    0.6216 H   0  0  0  0  0  0  0  0  0  0  0  0
    7.5083   -1.4750   -0.0675 H   0  0  0  0  0  0  0  0  0  0  0  0
    6.8301    0.0283    1.6375 H   0  0  0  0  0  0  0  0  0  0  0  0
  1 17  1  0  0  0  0
  2 19  1  0  0  0  0
  2 11  1  0  0  0  0
  3 21  1  0  0  0  0
  3 12  1  0  0  0  0
  4 26  1  0  0  0  0
  4 24  1  0  0  0  0
  5 28  1  0  0  0  0
  5 27  1  0  0  0  0
  6 29  1  0  0  0  0
  6  5  1  0  0  0  0
  7 30  1  0  0  0  0
  7  9  1  0  0  0  0
  8 32  1  0  0  0  0
  8  5  1  0  0  0  0
  9 35  1  0  0  0  0
  9 15  1  0  0  0  0
 10 36  1  0  0  0  0
 10 14  1  0  0  0  0
 11  1  2  0  0  0  0
 11 13  1  0  0  0  0
 12  6  2  0  0  0  0
 13 38  1  6  0  0  0
 13 10  1  0  0  0  0
 13  7  1  0  0  0  0
 14 39  1  6  0  0  0
 14 12  1  0  0  0  0
 14 15  1  0  0  0  0
 15  8  1  0  0  0  0
 15  4  1  1  0  0  0
 16  1  1  0  0  0  0
 18  2  1  0  0  0  0
 20  2  1  0  0  0  0
 22  3  1  0  0  0  0
 23  3  1  0  0  0  0
 25  4  1  0  0  0  0
 31  7  1  0  0  0  0
 33  8  1  0  0  0  0
 34  9  1  0  0  0  0
 37 10  1  0  0  0  0
M  END
>  <HBA>
0

>  <HBD>
0

>  <TPSA>
0.0

>  <cid>
10123

>  <dipole>
0.52

>  <excitation_energy_1>
5.528

>  <excitation_energy_2>
5.832

>  <excitation_energy_3>
5.945

>  <excitation_energy_4>
5.968

>  <homo_energy>
-6.071

>  <homo_lumo_gap>
6.89

>  <logP>
4.725

>  <lumo_energy>
0.819

>  <melting_point>
27.33

>  <molecular_refractivity>
68.78

>  <oscillator_strength_1>
0.0147

>  <oscillator_strength_2>
0.0065

>  <oscillator_strength_3>
0.0045

>  <oscillator_strength_4>
0.0081

>  <open_babel_can_smiles>
CC1=CCC[C@]2([C@H]1C[C@@H](CC2)C(=C)C)C

>  <mulliken_charges>
39
1   -0.40746
2   -0.515667
3   -0.526146
4   -0.470177
5   -0.305055
6   -0.179387
7   -0.271963
8   -0.2699
9   -0.269933
10   -0.289603
11   0.227195
12   0.193009
13   -0.146229
14   -0.156494
15   0.092884
16   0.127589
17   0.134801
18   0.151466
19   0.155278
20   0.151672
21   0.14918
22   0.154911
23   0.150224
24   0.135527
25   0.145526
26   0.154108
27   0.143456
28   0.139243
29   0.108598
30   0.139779
31   0.13094
32   0.12392
33   0.128226
34   0.122094
35   0.126363
36   0.139122
37   0.140552
38   0.117325
39   0.125023

>  <lowdin_charges>
39
1   -0.371546
2   -0.442054
3   -0.440493
4   -0.453163
5   -0.27664
6   -0.196987
7   -0.278268
8   -0.275678
9   -0.27854
10   -0.282407
11   0.008547
12   -0.019232
13   -0.12684
14   -0.130263
15   0.005611
16   0.153527
17   0.155534
18   0.156619
19   0.153846
20   0.1544
21   0.155736
22   0.154515
23   0.151489
24   0.147778
25   0.148475
26   0.156735
27   0.146466
28   0.148958
29   0.146444
30   0.143909
31   0.144352
32   0.141174
33   0.141063
34   0.138247
35   0.143019
36   0.144033
37   0.150498
38   0.137778
39   0.143359

$$$$

