PCCDB-ID:  18050
public computational chemistry database (PCCDB) project, http://pccdb.org

 15 14  0  0  0  0  0  0  0  0999 V2000
    4.2720   -0.4034   -0.2384 C   0  0  0  0  0  0  0  0  0  0  0  0
    2.2189    1.7936    1.9149 C   0  0  0  0  0  0  0  0  0  0  0  0
    0.7146    1.9682    2.1134 C   0  0  0  0  0  0  0  0  0  0  0  0
    2.5331    0.7675    0.8399 C   0  0  0  0  0  0  0  0  0  0  0  0
    1.7164    0.2238    0.1281 O   0  0  0  0  0  0  0  0  0  0  0  0
    3.8621    0.5395    0.7671 O   0  0  0  0  0  0  0  0  0  0  0  0
    0.2790    3.3138    3.2900 S   0  0  0  0  0  0  0  0  0  0  0  0
    5.3572   -0.4665   -0.1545 H   0  0  0  0  0  0  0  0  0  0  0  0
    3.9829   -0.0540   -1.2331 H   0  0  0  0  0  0  0  0  0  0  0  0
    3.8147   -1.3799   -0.0584 H   0  0  0  0  0  0  0  0  0  0  0  0
    2.7120    1.4839    2.8443 H   0  0  0  0  0  0  0  0  0  0  0  0
    2.6861    2.7447    1.6320 H   0  0  0  0  0  0  0  0  0  0  0  0
    0.2491    1.0330    2.4337 H   0  0  0  0  0  0  0  0  0  0  0  0
    0.2385    2.2498    1.1709 H   0  0  0  0  0  0  0  0  0  0  0  0
    0.8111    2.7444    4.3941 H   0  0  0  0  0  0  0  0  0  0  0  0
  1  8  1  0  0  0  0
  1 10  1  0  0  0  0
  1  6  1  0  0  0  0
  2  3  1  0  0  0  0
  2 11  1  0  0  0  0
  3 13  1  0  0  0  0
  3  7  1  0  0  0  0
  4  2  1  0  0  0  0
  5  4  2  0  0  0  0
  6  4  1  0  0  0  0
  7 15  1  0  0  0  0
  9  1  1  0  0  0  0
 12  2  1  0  0  0  0
 14  3  1  0  0  0  0
M  END
>  <HBA>
3

>  <HBD>
1

>  <TPSA>
65.1

>  <cid>
18050

>  <dipole>
2.63

>  <excitation_energy_1>
5.275

>  <excitation_energy_2>
5.652

>  <excitation_energy_3>
5.956

>  <excitation_energy_4>
6.033

>  <homo_energy>
-6.534

>  <homo_lumo_gap>
6.705

>  <logP>
0.479

>  <lumo_energy>
0.171

>  <melting_point>
7.47

>  <molecular_refractivity>
30.56

>  <oscillator_strength_1>
0.0145

>  <oscillator_strength_2>
0.0003

>  <oscillator_strength_3>
0.011

>  <oscillator_strength_4>
0.0216

>  <open_babel_can_smiles>
COC(=O)CCS

>  <mulliken_charges>
15
1   -0.21935
2   -0.349432
3   -0.412415
4   0.617043
5   -0.473739
6   -0.449346
7   -0.074784
8   0.16685
9   0.17191
10   0.171827
11   0.174625
12   0.194505
13   0.191271
14   0.19958
15   0.091456

>  <lowdin_charges>
15
1   -0.275247
2   -0.309081
3   -0.367443
4   0.197811
5   -0.263826
6   -0.193835
7   -0.080106
8   0.15975
9   0.159489
10   0.159626
11   0.170715
12   0.180701
13   0.169168
14   0.180208
15   0.112069

$$$$

