PCCDB-ID:  20413
public computational chemistry database (PCCDB) project, http://pccdb.org

 28 28  0  0  0  0  0  0  0  0999 V2000
    3.7983    0.8308   -0.9769 C   0  0  0  0  0  0  0  0  0  0  0  0
    1.4064    0.1575   -0.4548 C   0  0  0  0  0  0  0  0  0  0  0  0
    4.5123   -1.7789    5.0400 C   0  0  0  0  0  0  0  0  0  0  0  0
    3.5790   -1.8215    2.6765 C   0  0  0  0  0  0  0  0  0  0  0  0
    3.1470   -1.1796    1.5212 C   0  0  0  0  0  0  0  0  0  0  0  0
    2.6800    0.8355    0.0845 C   0  0  0  0  0  0  0  0  0  0  0  0
    4.0490   -1.0997    3.7720 C   0  0  0  0  0  0  0  0  0  0  0  0
    3.1798    0.2140    1.3894 C   0  0  0  0  0  0  0  0  0  0  0  0
    3.6755    0.9769    2.4811 C   0  0  0  0  0  0  0  0  0  0  0  0
    4.0758    0.2958    3.6513 C   0  0  0  0  0  0  0  0  0  0  0  0
    3.8026    2.4810    2.3755 C   0  0  0  0  0  0  0  0  0  0  0  0
    4.5236    1.0603    4.7138 O   0  0  0  0  0  0  0  0  0  0  0  0
    3.9679    3.0580    1.3218 O   0  0  0  0  0  0  0  0  0  0  0  0
    3.6971    3.2053    3.5104 O   0  0  0  0  0  0  0  0  0  0  0  0
    3.4415    1.2939   -1.9046 H   0  0  0  0  0  0  0  0  0  0  0  0
    4.1190   -0.1922   -1.2104 H   0  0  0  0  0  0  0  0  0  0  0  0
    4.6626    1.3989   -0.6241 H   0  0  0  0  0  0  0  0  0  0  0  0
    1.0132    0.7418   -1.2945 H   0  0  0  0  0  0  0  0  0  0  0  0
    0.6237    0.0973    0.3098 H   0  0  0  0  0  0  0  0  0  0  0  0
    1.5915   -0.8560   -0.8296 H   0  0  0  0  0  0  0  0  0  0  0  0
    4.4317   -2.8650    4.9443 H   0  0  0  0  0  0  0  0  0  0  0  0
    3.9077   -1.4956    5.9149 H   0  0  0  0  0  0  0  0  0  0  0  0
    5.5630   -1.5553    5.2733 H   0  0  0  0  0  0  0  0  0  0  0  0
    3.5456   -2.9070    2.7348 H   0  0  0  0  0  0  0  0  0  0  0  0
    2.7741   -1.7817    0.7001 H   0  0  0  0  0  0  0  0  0  0  0  0
    2.4350    1.8797    0.2790 H   0  0  0  0  0  0  0  0  0  0  0  0
    4.6807    0.4919    5.4827 H   0  0  0  0  0  0  0  0  0  0  0  0
    3.7414    2.6180    4.2888 H   0  0  0  0  0  0  0  0  0  0  0  0
  1 17  1  0  0  0  0
  1  6  1  0  0  0  0
  2  6  1  0  0  0  0
  2 19  1  0  0  0  0
  3 23  1  0  0  0  0
  3 22  1  0  0  0  0
  4 24  1  0  0  0  0
  4  7  2  0  0  0  0
  5  4  1  0  0  0  0
  6 26  1  0  0  0  0
  6  8  1  0  0  0  0
  7  3  1  0  0  0  0
  8  5  2  0  0  0  0
  8  9  1  0  0  0  0
  9 10  2  0  0  0  0
 10  7  1  0  0  0  0
 10 12  1  0  0  0  0
 11  9  1  0  0  0  0
 11 14  1  0  0  0  0
 12 27  1  0  0  0  0
 13 11  2  0  0  0  0
 14 28  1  0  0  0  0
 15  1  1  0  0  0  0
 16  1  1  0  0  0  0
 18  2  1  0  0  0  0
 20  2  1  0  0  0  0
 21  3  1  0  0  0  0
 25  5  1  0  0  0  0
M  END
>  <HBA>
3

>  <HBD>
2

>  <TPSA>
57.53

>  <cid>
20413

>  <dipole>
6.27

>  <excitation_energy_1>
4.579

>  <excitation_energy_2>
4.713

>  <excitation_energy_3>
5.265

>  <excitation_energy_4>
5.382

>  <homo_energy>
-6.441

>  <homo_lumo_gap>
5.412

>  <logP>
2.522

>  <lumo_energy>
-1.029

>  <melting_point>
143.97

>  <molecular_refractivity>
54.97

>  <oscillator_strength_1>
0.0555

>  <oscillator_strength_2>
0.0172

>  <oscillator_strength_3>
0.0019

>  <oscillator_strength_4>
0.0728

>  <open_babel_can_smiles>
OC(=O)c1c(ccc(c1O)C)C(C)C

>  <mulliken_charges>
28
1   -0.438851
2   -0.452862
3   -0.588714
4   -0.191749
5   -0.180747
6   -0.144659
7   0.176912
8   0.1129
9   -0.028855
10   0.221181
11   0.557642
12   -0.685951
13   -0.456106
14   -0.587694
15   0.141325
16   0.130586
17   0.173183
18   0.14778
19   0.145679
20   0.138423
21   0.180099
22   0.162713
23   0.171897
24   0.131233
25   0.131888
26   0.167752
27   0.430689
28   0.434308

>  <lowdin_charges>
28
1   -0.43848
2   -0.445441
3   -0.452477
4   -0.140628
5   -0.180593
6   -0.125887
7   -0.051685
8   0.034584
9   -0.092786
10   0.094505
11   0.199055
12   -0.391352
13   -0.252129
14   -0.360938
15   0.149549
16   0.140082
17   0.164883
18   0.154158
19   0.150672
20   0.141756
21   0.17133
22   0.156701
23   0.159768
24   0.15729
25   0.163643
26   0.165942
27   0.3686
28   0.359874

$$$$

