PCCDB-ID:  36653
public computational chemistry database (PCCDB) project, http://pccdb.org

 28 29  0  0  1  0  0  0  0  0999 V2000
   -2.5458    0.7125    0.2597 C   0  0  0  0  0  0  0  0  0  0  0  0
   -2.5540   -0.7404   -0.2382 C   0  0  0  0  0  0  0  0  0  0  0  0
   -1.2784    1.4557   -0.1863 C   0  0  0  0  0  0  0  0  0  0  0  0
   -1.2869   -1.4907    0.1933 C   0  0  0  0  0  0  0  0  0  0  0  0
    2.5456    0.7100    0.2455 C   0  0  0  0  0  0  0  0  0  0  0  0
    2.5576   -0.7634   -0.2170 C   0  0  0  0  0  0  0  0  0  0  0  0
    0.0052    0.7214    0.2355 C   0  0  1  0  0  0  0  0  0  0  0  0
   -0.0178   -0.7567   -0.2578 C   0  0  1  0  0  0  0  0  0  0  0  0
    1.2852    1.4558   -0.2194 C   0  0  2  0  0  0  0  0  0  0  0  0
    1.2645   -1.4736    0.1644 C   0  0  0  0  0  0  0  0  0  0  0  0
    1.3075    1.7082   -1.6281 O   0  0  0  0  0  0  0  0  0  0  0  0
    1.2574   -2.5252    0.7768 O   0  0  0  0  0  0  0  0  0  0  0  0
   -2.6028    0.7173    1.3583 H   0  0  0  0  0  0  0  0  0  0  0  0
   -3.4364    1.2432   -0.0999 H   0  0  0  0  0  0  0  0  0  0  0  0
   -2.6269   -0.7467   -1.3362 H   0  0  0  0  0  0  0  0  0  0  0  0
   -3.4431   -1.2645    0.1342 H   0  0  0  0  0  0  0  0  0  0  0  0
   -1.2675    2.4718    0.2304 H   0  0  0  0  0  0  0  0  0  0  0  0
   -1.2740    1.5713   -1.2779 H   0  0  0  0  0  0  0  0  0  0  0  0
   -1.2814   -2.5119   -0.2031 H   0  0  0  0  0  0  0  0  0  0  0  0
   -1.2649   -1.5917    1.2865 H   0  0  0  0  0  0  0  0  0  0  0  0
    3.4342    1.2303   -0.1284 H   0  0  0  0  0  0  0  0  0  0  0  0
    2.5896    0.7404    1.3422 H   0  0  0  0  0  0  0  0  0  0  0  0
    3.4009   -1.3145    0.2081 H   0  0  0  0  0  0  0  0  0  0  0  0
    2.6640   -0.8038   -1.3122 H   0  0  0  0  0  0  0  0  0  0  0  0
    0.0357    0.6920    1.3368 H   0  0  0  0  0  0  0  0  0  0  0  0
   -0.0102   -0.7276   -1.3630 H   0  0  0  0  0  0  0  0  0  0  0  0
    1.2839    2.4584    0.2236 H   0  0  0  0  0  0  0  0  0  0  0  0
    1.3076    0.8566   -2.0922 H   0  0  0  0  0  0  0  0  0  0  0  0
  1 13  1  0  0  0  0
  2 16  1  0  0  0  0
  2  4  1  0  0  0  0
  2  1  1  0  0  0  0
  3 17  1  0  0  0  0
  3  7  1  0  0  0  0
  3  1  1  0  0  0  0
  4 20  1  0  0  0  0
  5 22  1  0  0  0  0
  6 10  1  0  0  0  0
  6 23  1  0  0  0  0
  6  5  1  0  0  0  0
  7 25  1  1  0  0  0
  8 26  1  6  0  0  0
  8 10  1  0  0  0  0
  8  4  1  0  0  0  0
  8  7  1  0  0  0  0
  9 27  1  1  0  0  0
  9  7  1  0  0  0  0
  9  5  1  0  0  0  0
 10 12  2  0  0  0  0
 11  9  1  0  0  0  0
 14  1  1  0  0  0  0
 15  2  1  0  0  0  0
 18  3  1  0  0  0  0
 19  4  1  0  0  0  0
 21  5  1  0  0  0  0
 24  6  1  0  0  0  0
 28 11  1  0  0  0  0
M  END
>  <HBA>
2

>  <HBD>
1

>  <TPSA>
37.3

>  <cid>
36653

>  <dipole>
1.25

>  <excitation_energy_1>
4.206

>  <excitation_energy_2>
5.794

>  <excitation_energy_3>
5.891

>  <excitation_energy_4>
6.183

>  <homo_energy>
-6.523

>  <homo_lumo_gap>
6.016

>  <logP>
1.517

>  <lumo_energy>
-0.506

>  <melting_point>
55.95

>  <molecular_refractivity>
47.32

>  <oscillator_strength_1>
0.0001

>  <oscillator_strength_2>
0.0013

>  <oscillator_strength_3>
0.006

>  <oscillator_strength_4>
0.0046

>  <open_babel_can_smiles>
O=C1CC[C@H]([C@@H]2[C@@H]1CCCC2)O

>  <mulliken_charges>
28
1   -0.261879
2   -0.26551
3   -0.257542
4   -0.253949
5   -0.284639
6   -0.364063
7   -0.108119
8   -0.196877
9   0.127323
10   0.455024
11   -0.630558
12   -0.447981
13   0.129512
14   0.134202
15   0.126955
16   0.135819
17   0.132063
18   0.142632
19   0.147383
20   0.143817
21   0.156226
22   0.145862
23   0.170386
24   0.145368
25   0.126658
26   0.12225
27   0.138449
28   0.391188

>  <lowdin_charges>
28
1   -0.276299
2   -0.276464
3   -0.27469
4   -0.269401
5   -0.2883
6   -0.308925
7   -0.142474
8   -0.163847
9   -0.003691
10   0.15397
11   -0.462919
12   -0.230282
13   0.136
14   0.146289
15   0.134757
16   0.147182
17   0.14484
18   0.144253
19   0.153175
20   0.146411
21   0.158204
22   0.14911
23   0.168955
24   0.15097
25   0.140265
26   0.139252
27   0.148443
28   0.335216

$$$$

