PCCDB-ID:  55655
public computational chemistry database (PCCDB) project, http://pccdb.org

 26 28  0  0  0  0  0  0  0  0999 V2000
    3.3492   -0.6622   -1.0993 C   0  0  0  0  0  0  0  0  0  0  0  0
    2.6103   -0.0889    0.1119 C   0  0  0  0  0  0  0  0  0  0  0  0
    6.6171   -0.8678    2.4639 C   0  0  0  0  0  0  0  0  0  0  0  0
    7.5553    0.0046    3.0285 C   0  0  0  0  0  0  0  0  0  0  0  0
    5.4930   -0.3628    1.8226 C   0  0  0  0  0  0  0  0  0  0  0  0
    7.3659    1.3790    2.9489 C   0  0  0  0  0  0  0  0  0  0  0  0
    2.3401    2.4091    0.0875 C   0  0  0  0  0  0  0  0  0  0  0  0
    5.2734    1.0256    1.7270 C   0  0  0  0  0  0  0  0  0  0  0  0
    6.2361    1.8889    2.3046 C   0  0  0  0  0  0  0  0  0  0  0  0
    4.0683    3.1000    1.0892 C   0  0  0  0  0  0  0  0  0  0  0  0
    4.1658    1.7122    1.1052 C   0  0  0  0  0  0  0  0  0  0  0  0
    5.0714    3.9627    1.6857 C   0  0  0  0  0  0  0  0  0  0  0  0
    2.9255    3.5204    0.4525 N   0  0  0  0  0  0  0  0  0  0  0  0
    3.0324    1.2711    0.4523 N   0  0  0  0  0  0  0  0  0  0  0  0
    5.1035    5.1643    1.7312 O   0  0  0  0  0  0  0  0  0  0  0  0
    6.1313    3.2516    2.2762 O   0  0  0  0  0  0  0  0  0  0  0  0
    2.9775   -1.6686   -1.3206 H   0  0  0  0  0  0  0  0  0  0  0  0
    4.4265   -0.7263   -0.9188 H   0  0  0  0  0  0  0  0  0  0  0  0
    3.1889   -0.0339   -1.9812 H   0  0  0  0  0  0  0  0  0  0  0  0
    2.7323   -0.7228    0.9946 H   0  0  0  0  0  0  0  0  0  0  0  0
    1.5360   -0.0372   -0.0901 H   0  0  0  0  0  0  0  0  0  0  0  0
    6.7634   -1.9420    2.5258 H   0  0  0  0  0  0  0  0  0  0  0  0
    8.4344   -0.3891    3.5302 H   0  0  0  0  0  0  0  0  0  0  0  0
    4.7795   -1.0550    1.3922 H   0  0  0  0  0  0  0  0  0  0  0  0
    8.0744    2.0808    3.3762 H   0  0  0  0  0  0  0  0  0  0  0  0
    1.3995    2.3380   -0.4443 H   0  0  0  0  0  0  0  0  0  0  0  0
  1 18  1  0  0  0  0
  1  2  1  0  0  0  0
  2 14  1  0  0  0  0
  2 20  1  0  0  0  0
  3 22  1  0  0  0  0
  3  4  2  0  0  0  0
  4 23  1  0  0  0  0
  5  3  1  0  0  0  0
  6  4  1  0  0  0  0
  6 25  1  0  0  0  0
  7 14  1  0  0  0  0
  7 13  2  0  0  0  0
  8  5  2  0  0  0  0
  8  9  1  0  0  0  0
  9  6  2  0  0  0  0
 10 11  2  0  0  0  0
 10 12  1  0  0  0  0
 11  8  1  0  0  0  0
 12 15  2  0  0  0  0
 12 16  1  0  0  0  0
 13 10  1  0  0  0  0
 14 11  1  0  0  0  0
 16  9  1  0  0  0  0
 17  1  1  0  0  0  0
 19  1  1  0  0  0  0
 21  2  1  0  0  0  0
 24  5  1  0  0  0  0
 26  7  1  0  0  0  0
M  END
>  <HBA>
4

>  <HBD>
0

>  <TPSA>
48.03

>  <cid>
55655

>  <dipole>
8.41

>  <excitation_energy_1>
4.262

>  <excitation_energy_2>
4.7

>  <excitation_energy_3>
4.893

>  <excitation_energy_4>
5.246

>  <homo_energy>
-6.074

>  <homo_lumo_gap>
4.729

>  <logP>
2.163

>  <lumo_energy>
-1.344

>  <melting_point>
145.67

>  <molecular_refractivity>
61.84

>  <oscillator_strength_1>
0.2432

>  <oscillator_strength_2>
0.0378

>  <oscillator_strength_3>
0.0001

>  <oscillator_strength_4>
0.0565

>  <open_babel_can_smiles>
CCn1cnc2c1c1ccccc1oc2=O

>  <mulliken_charges>
26
1   -0.449266
2   -0.170933
3   -0.139149
4   -0.129581
5   -0.199824
6   -0.171641
7   0.207446
8   0.149242
9   0.299219
10   0.087516
11   0.295835
12   0.58251
13   -0.468881
14   -0.502094
15   -0.444311
16   -0.536119
17   0.161426
18   0.174133
19   0.169173
20   0.178482
21   0.171429
22   0.136303
23   0.142138
24   0.132781
25   0.158933
26   0.165232

>  <lowdin_charges>
26
1   -0.450765
2   -0.190089
3   -0.163008
4   -0.143746
5   -0.167494
6   -0.169638
7   -0.079314
8   -0.040133
9   0.113739
10   -0.051252
11   0.014863
12   0.194631
13   -0.14345
14   -0.009632
15   -0.217692
16   -0.145971
17   0.162046
18   0.161811
19   0.163718
20   0.161772
21   0.162227
22   0.160409
23   0.165818
24   0.161966
25   0.178429
26   0.170756

$$$$

