PCCDB-ID:  37256
public computational chemistry database (PCCDB) project, http://pccdb.org

 20 20  0  0  0  0  0  0  0  0999 V2000
    0.9615    0.2383    0.2564 C   0  0  0  0  0  0  0  0  0  0  0  0
    2.1094   -4.5757   -0.0051 C   0  0  0  0  0  0  0  0  0  0  0  0
    0.6177   -3.7665   -1.7394 C   0  0  0  0  0  0  0  0  0  0  0  0
    2.7016   -3.3235    0.0694 C   0  0  0  0  0  0  0  0  0  0  0  0
    1.2061   -2.5103   -1.6551 C   0  0  0  0  0  0  0  0  0  0  0  0
    0.4468   -6.1039   -0.9899 C   0  0  0  0  0  0  0  0  0  0  0  0
    2.3528    0.0403   -0.3043 C   0  0  0  0  0  0  0  0  0  0  0  0
    1.0582   -4.8118   -0.9106 C   0  0  0  0  0  0  0  0  0  0  0  0
    2.2481   -2.2646   -0.7402 C   0  0  0  0  0  0  0  0  0  0  0  0
   -0.0543   -7.1529   -1.0509 N   0  0  0  0  0  0  0  0  0  0  0  0
    2.9061   -1.0367   -0.6850 N   0  0  0  0  0  0  0  0  0  0  0  0
    3.1130    1.1653   -0.3786 O   0  0  0  0  0  0  0  0  0  0  0  0
    0.4207   -0.7062    0.3224 H   0  0  0  0  0  0  0  0  0  0  0  0
    0.3855    0.9262   -0.3748 H   0  0  0  0  0  0  0  0  0  0  0  0
    1.0226    0.6779    1.2600 H   0  0  0  0  0  0  0  0  0  0  0  0
    2.4586   -5.3834    0.6303 H   0  0  0  0  0  0  0  0  0  0  0  0
   -0.1843   -3.9468   -2.4484 H   0  0  0  0  0  0  0  0  0  0  0  0
    3.5231   -3.1408    0.7547 H   0  0  0  0  0  0  0  0  0  0  0  0
    0.8793   -1.7105   -2.3130 H   0  0  0  0  0  0  0  0  0  0  0  0
    2.6099    1.9188   -0.0328 H   0  0  0  0  0  0  0  0  0  0  0  0
  1 13  1  0  0  0  0
  1 15  1  0  0  0  0
  2  4  1  0  0  0  0
  2 16  1  0  0  0  0
  3  5  2  0  0  0  0
  3  8  1  0  0  0  0
  4 18  1  0  0  0  0
  5  9  1  0  0  0  0
  6  8  1  0  0  0  0
  7  1  1  0  0  0  0
  8  2  2  0  0  0  0
  9 11  1  0  0  0  0
  9  4  2  0  0  0  0
 10  6  3  0  0  0  0
 11  7  2  0  0  0  0
 12  7  1  0  0  0  0
 12 20  1  0  0  0  0
 14  1  1  0  0  0  0
 17  3  1  0  0  0  0
 19  5  1  0  0  0  0
M  END
>  <HBA>
3

>  <HBD>
1

>  <TPSA>
52.89

>  <cid>
37256

>  <dipole>
7.15

>  <excitation_energy_1>
4.619

>  <excitation_energy_2>
4.786

>  <excitation_energy_3>
5.243

>  <excitation_energy_4>
5.339

>  <homo_energy>
-6.305

>  <homo_lumo_gap>
5.121

>  <logP>
1.59

>  <lumo_energy>
-1.184

>  <melting_point>
97.34

>  <molecular_refractivity>
45.47

>  <oscillator_strength_1>
0.3069

>  <oscillator_strength_2>
0.0927

>  <oscillator_strength_3>
0.0357

>  <oscillator_strength_4>
0.0746

>  <open_babel_can_smiles>
N#Cc1ccc(cc1)/N=C(/O)\C

>  <mulliken_charges>
20
1   -0.55571
2   -0.145537
3   -0.146168
4   -0.154536
5   -0.161642
6   0.229288
7   0.485391
8   0.127959
9   0.252689
10   -0.484243
11   -0.461753
12   -0.561887
13   0.199367
14   0.181413
15   0.180012
16   0.158091
17   0.157289
18   0.147661
19   0.138937
20   0.413378

>  <lowdin_charges>
20
1   -0.483427
2   -0.128734
3   -0.128515
4   -0.16913
5   -0.185736
6   -0.015819
7   0.154188
8   -0.037963
9   0.064231
10   -0.1292
11   -0.16686
12   -0.351605
13   0.184798
14   0.174781
15   0.172532
16   0.174811
17   0.173652
18   0.171024
19   0.165484
20   0.361487

$$$$

