PCCDB-ID:  31275
public computational chemistry database (PCCDB) project, http://pccdb.org

 14 14  0  0  0  0  0  0  0  0999 V2000
    0.6725    1.2087   -0.2766 C   0  0  0  0  0  0  0  0  0  0  0  0
    1.3795   -0.0267    0.2718 C   0  0  0  0  0  0  0  0  0  0  0  0
   -1.3615    0.0453   -0.2755 C   0  0  0  0  0  0  0  0  0  0  0  0
   -0.6545   -1.1901    0.2730 C   0  0  0  0  0  0  0  0  0  0  0  0
   -0.6896    1.2306    0.1384 O   0  0  0  0  0  0  0  0  0  0  0  0
    0.7076   -1.2120   -0.1420 O   0  0  0  0  0  0  0  0  0  0  0  0
    0.7332    1.2092   -1.3777 H   0  0  0  0  0  0  0  0  0  0  0  0
    1.1307    2.1284    0.1018 H   0  0  0  0  0  0  0  0  0  0  0  0
    1.4123    0.0259    1.3729 H   0  0  0  0  0  0  0  0  0  0  0  0
    2.4041   -0.0981   -0.1077 H   0  0  0  0  0  0  0  0  0  0  0  0
   -2.3861    0.1167    0.1038 H   0  0  0  0  0  0  0  0  0  0  0  0
   -1.3941   -0.0073   -1.3766 H   0  0  0  0  0  0  0  0  0  0  0  0
   -1.1127   -2.1098   -0.1052 H   0  0  0  0  0  0  0  0  0  0  0  0
   -0.7151   -1.1904    1.3741 H   0  0  0  0  0  0  0  0  0  0  0  0
  1  8  1  0  0  0  0
  1  5  1  0  0  0  0
  1  2  1  0  0  0  0
  2  9  1  0  0  0  0
  3 11  1  0  0  0  0
  3  5  1  0  0  0  0
  3  4  1  0  0  0  0
  4 14  1  0  0  0  0
  6  2  1  0  0  0  0
  6  4  1  0  0  0  0
  7  1  1  0  0  0  0
 10  2  1  0  0  0  0
 12  3  1  0  0  0  0
 13  4  1  0  0  0  0
M  END
>  <HBA>
2

>  <HBD>
0

>  <TPSA>
18.46

>  <cid>
31275

>  <dipole>
0.0

>  <excitation_energy_1>
6.244

>  <excitation_energy_2>
6.49

>  <excitation_energy_3>
6.56

>  <excitation_energy_4>
6.759

>  <homo_energy>
-6.408

>  <homo_lumo_gap>
9.021

>  <logP>
0.033

>  <lumo_energy>
2.612

>  <melting_point>
-20.56

>  <molecular_refractivity>
21.4

>  <oscillator_strength_1>
0.0

>  <oscillator_strength_2>
0.0775

>  <oscillator_strength_3>
0.0441

>  <oscillator_strength_4>
0.0

>  <open_babel_can_smiles>
O1CCOCC1

>  <mulliken_charges>
14
1   -0.042133
2   -0.042293
3   -0.042222
4   -0.042243
5   -0.46777
6   -0.467754
7   0.130129
8   0.14596
9   0.130133
10   0.145976
11   0.145979
12   0.130135
13   0.145969
14   0.130136

>  <lowdin_charges>
14
1   -0.145653
2   -0.144401
3   -0.144392
4   -0.145668
5   -0.275965
6   -0.275959
7   0.130146
8   0.153682
9   0.130138
10   0.152053
11   0.152052
12   0.130138
13   0.153682
14   0.130148

$$$$

