PCCDB-ID:  16479
public computational chemistry database (PCCDB) project, http://pccdb.org

 27 28  0  0  0  0  0  0  0  0999 V2000
    0.9246    0.0223   -0.1220 C   0  0  0  0  0  0  0  0  0  0  0  0
    7.4787    1.3746    0.2600 C   0  0  0  0  0  0  0  0  0  0  0  0
    4.5939   -3.7475    0.0197 C   0  0  0  0  0  0  0  0  0  0  0  0
    3.1439    1.2448    0.0235 C   0  0  0  0  0  0  0  0  0  0  0  0
    7.3744   -1.1315    0.2139 C   0  0  0  0  0  0  0  0  0  0  0  0
    6.6797   -2.3614    0.1557 C   0  0  0  0  0  0  0  0  0  0  0  0
    4.5173    1.2645    0.0986 C   0  0  0  0  0  0  0  0  0  0  0  0
    3.1538   -1.1578   -0.0183 C   0  0  0  0  0  0  0  0  0  0  0  0
    2.4321    0.0193   -0.0366 C   0  0  0  0  0  0  0  0  0  0  0  0
    6.7103    0.0760    0.1986 C   0  0  0  0  0  0  0  0  0  0  0  0
    5.3046   -2.4164    0.0794 C   0  0  0  0  0  0  0  0  0  0  0  0
    5.2793    0.0646    0.1198 C   0  0  0  0  0  0  0  0  0  0  0  0
    4.5732   -1.1832    0.0602 C   0  0  0  0  0  0  0  0  0  0  0  0
    0.5759    0.5555   -1.0158 H   0  0  0  0  0  0  0  0  0  0  0  0
    0.4758    0.5259    0.7439 H   0  0  0  0  0  0  0  0  0  0  0  0
    0.5235   -0.9952   -0.1618 H   0  0  0  0  0  0  0  0  0  0  0  0
    8.5545    1.1838    0.3191 H   0  0  0  0  0  0  0  0  0  0  0  0
    7.1998    1.9753    1.1353 H   0  0  0  0  0  0  0  0  0  0  0  0
    7.3003    1.9981   -0.6255 H   0  0  0  0  0  0  0  0  0  0  0  0
    5.3141   -4.5709    0.0461 H   0  0  0  0  0  0  0  0  0  0  0  0
    4.0008   -3.8547   -0.8976 H   0  0  0  0  0  0  0  0  0  0  0  0
    3.9048   -3.8821    0.8634 H   0  0  0  0  0  0  0  0  0  0  0  0
    2.5909    2.1818    0.0107 H   0  0  0  0  0  0  0  0  0  0  0  0
    8.4604   -1.1438    0.2727 H   0  0  0  0  0  0  0  0  0  0  0  0
    7.2504   -3.2873    0.1714 H   0  0  0  0  0  0  0  0  0  0  0  0
    5.0321    2.2190    0.1442 H   0  0  0  0  0  0  0  0  0  0  0  0
    2.6159   -2.1001   -0.0660 H   0  0  0  0  0  0  0  0  0  0  0  0
  1  9  1  0  0  0  0
  1 15  1  0  0  0  0
  2 17  1  0  0  0  0
  2 18  1  0  0  0  0
  3 20  1  0  0  0  0
  3 11  1  0  0  0  0
  3 22  1  0  0  0  0
  4  7  2  0  0  0  0
  5 24  1  0  0  0  0
  6 25  1  0  0  0  0
  6  5  2  0  0  0  0
  7 12  1  0  0  0  0
  7 26  1  0  0  0  0
  8 13  1  0  0  0  0
  9  8  2  0  0  0  0
  9  4  1  0  0  0  0
 10  5  1  0  0  0  0
 10  2  1  0  0  0  0
 11  6  1  0  0  0  0
 12 10  2  0  0  0  0
 13 11  2  0  0  0  0
 13 12  1  0  0  0  0
 14  1  1  0  0  0  0
 16  1  1  0  0  0  0
 19  2  1  0  0  0  0
 21  3  1  0  0  0  0
 23  4  1  0  0  0  0
 27  8  1  0  0  0  0
M  END
>  <HBA>
0

>  <HBD>
0

>  <TPSA>
0.0

>  <cid>
16479

>  <dipole>
0.37

>  <excitation_energy_1>
4.163

>  <excitation_energy_2>
4.324

>  <excitation_energy_3>
5.231

>  <excitation_energy_4>
5.45

>  <homo_energy>
-5.486

>  <homo_lumo_gap>
4.683

>  <logP>
3.765

>  <lumo_energy>
-0.803

>  <melting_point>
62.17

>  <molecular_refractivity>
58.85

>  <oscillator_strength_1>
0.0924

>  <oscillator_strength_2>
0.01

>  <oscillator_strength_3>
0.0002

>  <oscillator_strength_4>
0.333

>  <open_babel_can_smiles>
Cc1ccc2c(c1)c(C)ccc2C

>  <mulliken_charges>
27
1   -0.533857
2   -0.536333
3   -0.535102
4   -0.180369
5   -0.20081
6   -0.200639
7   -0.199883
8   -0.277732
9   0.194463
10   0.13914
11   0.136681
12   0.075056
13   0.090639
14   0.160796
15   0.160676
16   0.154909
17   0.154817
18   0.160435
19   0.160616
20   0.154338
21   0.160364
22   0.160439
23   0.119486
24   0.117707
25   0.117864
26   0.126559
27   0.119738

>  <lowdin_charges>
27
1   -0.442287
2   -0.442339
3   -0.443963
4   -0.166494
5   -0.170597
6   -0.17164
7   -0.159638
8   -0.176861
9   0.000695
10   -0.003717
11   -0.005363
12   -0.010657
13   -0.00536
14   0.160121
15   0.160312
16   0.155719
17   0.155804
18   0.15886
19   0.158837
20   0.157804
21   0.158417
22   0.158811
23   0.154245
24   0.150998
25   0.153489
26   0.158897
27   0.155909

$$$$

