PCCDB-ID:  50420
public computational chemistry database (PCCDB) project, http://pccdb.org

 31 31  0  0  0  0  0  0  0  0999 V2000
    3.2432   -3.6192    1.7870 C   0  0  0  0  0  0  0  0  0  0  0  0
    2.3567   -2.7110    0.9553 C   0  0  0  0  0  0  0  0  0  0  0  0
    7.1566    2.5988   -6.7100 C   0  0  0  0  0  0  0  0  0  0  0  0
    6.0200    2.9898   -5.9997 C   0  0  0  0  0  0  0  0  0  0  0  0
    7.5346    1.2550   -6.7158 C   0  0  0  0  0  0  0  0  0  0  0  0
    5.2697    2.0426   -5.3019 C   0  0  0  0  0  0  0  0  0  0  0  0
    6.7806    0.3125   -6.0151 C   0  0  0  0  0  0  0  0  0  0  0  0
    4.8427   -0.3283   -4.5092 C   0  0  0  0  0  0  0  0  0  0  0  0
    5.3002   -0.4213   -3.0431 C   0  0  0  0  0  0  0  0  0  0  0  0
    5.6374    0.6895   -5.2969 C   0  0  0  0  0  0  0  0  0  0  0  0
    2.5952   -1.4280   -1.0714 C   0  0  0  0  0  0  0  0  0  0  0  0
    4.5243   -1.4196   -2.3064 N   0  0  0  0  0  0  0  0  0  0  0  0
    3.2091   -0.9630   -2.0830 N   0  0  0  0  0  0  0  0  0  0  0  0
    1.3010   -1.0961   -0.8219 O   0  0  0  0  0  0  0  0  0  0  0  0
    3.1457   -2.2630   -0.1684 O   0  0  0  0  0  0  0  0  0  0  0  0
    2.6885   -3.9813    2.6594 H   0  0  0  0  0  0  0  0  0  0  0  0
    4.1293   -3.0816    2.1395 H   0  0  0  0  0  0  0  0  0  0  0  0
    3.5727   -4.4832    1.2015 H   0  0  0  0  0  0  0  0  0  0  0  0
    2.0174   -1.8425    1.5297 H   0  0  0  0  0  0  0  0  0  0  0  0
    1.4730   -3.2407    0.5851 H   0  0  0  0  0  0  0  0  0  0  0  0
    7.7402    3.3343   -7.2575 H   0  0  0  0  0  0  0  0  0  0  0  0
    5.7138    4.0330   -5.9930 H   0  0  0  0  0  0  0  0  0  0  0  0
    8.4150    0.9386   -7.2697 H   0  0  0  0  0  0  0  0  0  0  0  0
    4.3818    2.3539   -4.7552 H   0  0  0  0  0  0  0  0  0  0  0  0
    7.0791   -0.7339   -6.0280 H   0  0  0  0  0  0  0  0  0  0  0  0
    3.7780   -0.0711   -4.5167 H   0  0  0  0  0  0  0  0  0  0  0  0
    4.9361   -1.3230   -4.9604 H   0  0  0  0  0  0  0  0  0  0  0  0
    5.2484    0.5782   -2.5794 H   0  0  0  0  0  0  0  0  0  0  0  0
    6.3465   -0.7480   -3.0063 H   0  0  0  0  0  0  0  0  0  0  0  0
    4.9804   -1.6388   -1.4196 H   0  0  0  0  0  0  0  0  0  0  0  0
    1.0403   -0.5130   -1.5558 H   0  0  0  0  0  0  0  0  0  0  0  0
  1 17  1  0  0  0  0
  1 16  1  0  0  0  0
  2 19  1  0  0  0  0
  2  1  1  0  0  0  0
  3  4  1  0  0  0  0
  4 22  1  0  0  0  0
  4  6  2  0  0  0  0
  5  3  2  0  0  0  0
  5  7  1  0  0  0  0
  6 10  1  0  0  0  0
  6 24  1  0  0  0  0
  7 10  2  0  0  0  0
  8  9  1  0  0  0  0
  9 29  1  0  0  0  0
  9 28  1  0  0  0  0
  9 12  1  0  0  0  0
 10  8  1  0  0  0  0
 11 14  1  0  0  0  0
 11 15  1  0  0  0  0
 12 13  1  0  0  0  0
 12 30  1  0  0  0  0
 13 11  2  0  0  0  0
 15  2  1  0  0  0  0
 18  1  1  0  0  0  0
 20  2  1  0  0  0  0
 21  3  1  0  0  0  0
 23  5  1  0  0  0  0
 25  7  1  0  0  0  0
 26  8  1  0  0  0  0
 27  8  1  0  0  0  0
 31 14  1  0  0  0  0
M  END
>  <HBA>
4

>  <HBD>
2

>  <TPSA>
50.36

>  <cid>
50420

>  <dipole>
2.64

>  <excitation_energy_1>
4.606

>  <excitation_energy_2>
4.754

>  <excitation_energy_3>
4.792

>  <excitation_energy_4>
4.94

>  <homo_energy>
-5.102

>  <homo_lumo_gap>
5.358

>  <logP>
2.262

>  <lumo_energy>
0.256

>  <melting_point>
81.63

>  <molecular_refractivity>
57.91

>  <oscillator_strength_1>
0.0007

>  <oscillator_strength_2>
0.0114

>  <oscillator_strength_3>
0.0028

>  <oscillator_strength_4>
0.0018

>  <open_babel_can_smiles>
CCO/C(=N\NCCc1ccccc1)/O

>  <mulliken_charges>
31
1   -0.4614
2   -0.022891
3   -0.132462
4   -0.128129
5   -0.127721
6   -0.180373
7   -0.183086
8   -0.340453
9   -0.10726
10   0.164811
11   0.74112
12   -0.440202
13   -0.397566
14   -0.613389
15   -0.490792
16   0.153486
17   0.162016
18   0.167242
19   0.157673
20   0.160307
21   0.124365
22   0.124701
23   0.124977
24   0.123061
25   0.121824
26   0.16144
27   0.147051
28   0.12569
29   0.134535
30   0.307574
31   0.42385

>  <lowdin_charges>
31
1   -0.450533
2   -0.117224
3   -0.165427
4   -0.155785
5   -0.15683
6   -0.167765
7   -0.167621
8   -0.276804
9   -0.199115
10   0.000771
11   0.162989
12   -0.274559
13   -0.212385
14   -0.376016
15   -0.205116
16   0.160792
17   0.159646
18   0.16226
19   0.150322
20   0.151718
21   0.15665
22   0.153826
23   0.155606
24   0.154634
25   0.152299
26   0.157317
27   0.152368
28   0.125839
29   0.142511
30   0.252346
31   0.373287

$$$$

