PCCDB-ID:  22165
public computational chemistry database (PCCDB) project, http://pccdb.org

 32 32  0  0  1  0  0  0  0  0999 V2000
   -1.9357    1.8863    1.0342 C   0  0  0  0  0  0  0  0  0  0  0  0
   -1.5995    1.4601   -0.2520 C   0  0  0  0  0  0  0  0  0  0  0  0
   -0.9236    2.2258    1.9335 C   0  0  0  0  0  0  0  0  0  0  0  0
   -0.2601    1.3749   -0.6334 C   0  0  0  0  0  0  0  0  0  0  0  0
    0.4145    2.1389    1.5467 C   0  0  0  0  0  0  0  0  0  0  0  0
    2.2181    1.5797   -0.1480 C   0  0  0  0  0  0  0  0  0  0  0  0
    2.7864    0.1820    0.1489 C   0  0  0  0  0  0  0  0  0  0  0  0
    6.0987   -1.2492   -1.0055 C   0  0  0  0  0  0  0  0  0  0  0  0
    0.7663    1.7113    0.2596 C   0  0  0  0  0  0  0  0  0  0  0  0
    4.8144   -1.2185   -0.1713 C   0  0  1  0  0  0  0  0  0  0  0  0
    6.7758   -2.6113   -0.9865 C   0  0  0  0  0  0  0  0  0  0  0  0
    5.0377   -1.5500    1.3057 C   0  0  0  0  0  0  0  0  0  0  0  0
    4.1723    0.0918   -0.3270 N   0  0  0  0  0  0  0  0  0  0  0  0
    6.3627   -3.5685   -0.3807 O   0  0  0  0  0  0  0  0  0  0  0  0
    7.9152   -2.7092   -1.7225 O   0  0  0  0  0  0  0  0  0  0  0  0
    4.2221   -2.0698    2.0314 O   0  0  0  0  0  0  0  0  0  0  0  0
    6.2240   -1.0648    1.7674 O   0  0  0  0  0  0  0  0  0  0  0  0
   -2.9784    1.9573    1.3318 H   0  0  0  0  0  0  0  0  0  0  0  0
   -2.3806    1.1985   -0.9612 H   0  0  0  0  0  0  0  0  0  0  0  0
   -1.1750    2.5620    2.9360 H   0  0  0  0  0  0  0  0  0  0  0  0
   -0.0057    1.0465   -1.6391 H   0  0  0  0  0  0  0  0  0  0  0  0
    1.1975    2.4084    2.2527 H   0  0  0  0  0  0  0  0  0  0  0  0
    2.3367    1.7802   -1.2193 H   0  0  0  0  0  0  0  0  0  0  0  0
    2.8200    2.3304    0.3834 H   0  0  0  0  0  0  0  0  0  0  0  0
    2.2011   -0.5721   -0.3915 H   0  0  0  0  0  0  0  0  0  0  0  0
    2.6728   -0.0457    1.2209 H   0  0  0  0  0  0  0  0  0  0  0  0
    6.8077   -0.4954   -0.6394 H   0  0  0  0  0  0  0  0  0  0  0  0
    5.8447   -0.9747   -2.0372 H   0  0  0  0  0  0  0  0  0  0  0  0
    4.1225   -1.9788   -0.5434 H   0  0  0  0  0  0  0  0  0  0  0  0
    4.7404    0.8027    0.1347 H   0  0  0  0  0  0  0  0  0  0  0  0
    8.1163   -1.8566   -2.1433 H   0  0  0  0  0  0  0  0  0  0  0  0
    6.2475   -1.2760    2.7200 H   0  0  0  0  0  0  0  0  0  0  0  0
  1 18  1  0  0  0  0
  1  3  2  0  0  0  0
  2  1  1  0  0  0  0
  3 20  1  0  0  0  0
  4  2  2  0  0  0  0
  4  9  1  0  0  0  0
  5  3  1  0  0  0  0
  5 22  1  0  0  0  0
  6  7  1  0  0  0  0
  6  9  1  0  0  0  0
  6 24  1  0  0  0  0
  7 26  1  0  0  0  0
  8 11  1  0  0  0  0
  8 27  1  0  0  0  0
  8 10  1  0  0  0  0
  9  5  2  0  0  0  0
 10 29  1  6  0  0  0
 10 12  1  0  0  0  0
 11 14  2  0  0  0  0
 12 17  1  0  0  0  0
 12 16  2  0  0  0  0
 13 10  1  0  0  0  0
 13 30  1  0  0  0  0
 13  7  1  0  0  0  0
 15 11  1  0  0  0  0
 17 32  1  0  0  0  0
 19  2  1  0  0  0  0
 21  4  1  0  0  0  0
 23  6  1  0  0  0  0
 25  7  1  0  0  0  0
 28  8  1  0  0  0  0
 31 15  1  0  0  0  0
M  END
>  <HBA>
5

>  <HBD>
3

>  <TPSA>
86.63

>  <cid>
22165

>  <dipole>
4.84

>  <excitation_energy_1>
5.141

>  <excitation_energy_2>
5.307

>  <excitation_energy_3>
5.417

>  <excitation_energy_4>
5.565

>  <homo_energy>
-6.365

>  <homo_lumo_gap>
6.359

>  <logP>
1.137

>  <lumo_energy>
-0.005

>  <melting_point>
185.33

>  <molecular_refractivity>
61.79

>  <oscillator_strength_1>
0.0405

>  <oscillator_strength_2>
0.0004

>  <oscillator_strength_3>
0.0098

>  <oscillator_strength_4>
0.012

>  <open_babel_can_smiles>
OC(=O)[C@H](CC(=O)O)NCCc1ccccc1

>  <mulliken_charges>
32
1   -0.130271
2   -0.127434
3   -0.127127
4   -0.17934
5   -0.177332
6   -0.361611
7   -0.120057
8   -0.419619
9   0.168969
10   -0.017983
11   0.626947
12   0.598145
13   -0.573255
14   -0.437665
15   -0.570421
16   -0.463912
17   -0.585043
18   0.12918
19   0.129518
20   0.129484
21   0.123948
22   0.121092
23   0.15451
24   0.135452
25   0.15236
26   0.151178
27   0.180035
28   0.184931
29   0.184281
30   0.297442
31   0.411858
32   0.411741

>  <lowdin_charges>
32
1   -0.158106
2   -0.155818
3   -0.152836
4   -0.165021
5   -0.168367
6   -0.276671
7   -0.200746
8   -0.329358
9   -0.001271
10   -0.078444
11   0.201018
12   0.185474
13   -0.349915
14   -0.234754
15   -0.353596
16   -0.255504
17   -0.370637
18   0.156407
19   0.158704
20   0.156829
21   0.153831
22   0.154573
23   0.153385
24   0.145957
25   0.151123
26   0.135961
27   0.171507
28   0.174399
29   0.175235
30   0.255879
31   0.359448
32   0.361313

$$$$

