PCCDB-ID:  31090
public computational chemistry database (PCCDB) project, http://pccdb.org

 28 29  0  0  1  0  0  0  0  0999 V2000
    2.3778   -0.5606   -3.4712 C   0  0  0  0  0  0  0  0  0  0  0  0
    2.4420   -1.1736   -2.0807 C   0  0  0  0  0  0  0  0  0  0  0  0
    9.5449    1.7607    1.8923 C   0  0  0  0  0  0  0  0  0  0  0  0
    9.7049    0.3793    1.7430 C   0  0  0  0  0  0  0  0  0  0  0  0
    8.4728    2.4082    1.2849 C   0  0  0  0  0  0  0  0  0  0  0  0
    8.7692   -0.3506    1.0140 C   0  0  0  0  0  0  0  0  0  0  0  0
    5.6333    1.5247   -0.9801 C   0  0  0  0  0  0  0  0  0  0  0  0
    7.5289    1.6906    0.5359 C   0  0  0  0  0  0  0  0  0  0  0  0
    7.6790    0.2949    0.4295 C   0  0  0  0  0  0  0  0  0  0  0  0
    5.4859    0.1019   -0.3988 C   0  0  1  0  0  0  0  0  0  0  0  0
    4.6699   -0.7945   -1.3209 C   0  0  0  0  0  0  0  0  0  0  0  0
    6.4726    2.3482   -0.1266 N   0  0  0  0  0  0  0  0  0  0  0  0
    5.1113   -1.6495   -2.0494 O   0  0  0  0  0  0  0  0  0  0  0  0
    3.3639   -0.4519   -1.2244 O   0  0  0  0  0  0  0  0  0  0  0  0
    6.7668   -0.4858   -0.2495 O   0  0  0  0  0  0  0  0  0  0  0  0
    1.6129   -1.0719   -4.0667 H   0  0  0  0  0  0  0  0  0  0  0  0
    3.3378   -0.6657   -3.9841 H   0  0  0  0  0  0  0  0  0  0  0  0
    2.1174    0.5017   -3.4176 H   0  0  0  0  0  0  0  0  0  0  0  0
    2.7523   -2.2204   -2.1217 H   0  0  0  0  0  0  0  0  0  0  0  0
    1.4826   -1.0991   -1.5632 H   0  0  0  0  0  0  0  0  0  0  0  0
   10.2635    2.3364    2.4688 H   0  0  0  0  0  0  0  0  0  0  0  0
   10.5479   -0.1295    2.2013 H   0  0  0  0  0  0  0  0  0  0  0  0
    8.3598    3.4868    1.3669 H   0  0  0  0  0  0  0  0  0  0  0  0
    8.8492   -1.4274    0.8997 H   0  0  0  0  0  0  0  0  0  0  0  0
    4.6536    1.9933   -1.0990 H   0  0  0  0  0  0  0  0  0  0  0  0
    6.0923    1.4333   -1.9733 H   0  0  0  0  0  0  0  0  0  0  0  0
    4.9792    0.1655    0.5750 H   0  0  0  0  0  0  0  0  0  0  0  0
    5.9657    2.9999    0.4600 H   0  0  0  0  0  0  0  0  0  0  0  0
  1 18  1  0  0  0  0
  1  2  1  0  0  0  0
  2 20  1  0  0  0  0
  2 14  1  0  0  0  0
  3 21  1  0  0  0  0
  4  3  1  0  0  0  0
  4 22  1  0  0  0  0
  5 23  1  0  0  0  0
  5  3  2  0  0  0  0
  6  4  2  0  0  0  0
  7 10  1  0  0  0  0
  7 12  1  0  0  0  0
  8  5  1  0  0  0  0
  9  8  2  0  0  0  0
  9  6  1  0  0  0  0
 10 15  1  0  0  0  0
 10 27  1  1  0  0  0
 11 14  1  0  0  0  0
 11 10  1  0  0  0  0
 12 28  1  0  0  0  0
 12  8  1  0  0  0  0
 13 11  2  0  0  0  0
 15  9  1  0  0  0  0
 16  1  1  0  0  0  0
 17  1  1  0  0  0  0
 19  2  1  0  0  0  0
 24  6  1  0  0  0  0
 25  7  1  0  0  0  0
 26  7  1  0  0  0  0
M  END
>  <HBA>
4

>  <HBD>
1

>  <TPSA>
47.56

>  <cid>
31090

>  <dipole>
3.93

>  <excitation_energy_1>
4.483

>  <excitation_energy_2>
4.669

>  <excitation_energy_3>
4.847

>  <excitation_energy_4>
5.204

>  <homo_energy>
-5.396

>  <homo_lumo_gap>
5.358

>  <logP>
1.561

>  <lumo_energy>
-0.038

>  <melting_point>
77.0

>  <molecular_refractivity>
58.77

>  <oscillator_strength_1>
0.0743

>  <oscillator_strength_2>
0.0037

>  <oscillator_strength_3>
0.0039

>  <oscillator_strength_4>
0.0231

>  <open_babel_can_smiles>
CCOC(=O)[C@@H]1CNc2c(O1)cccc2

>  <mulliken_charges>
28
1   -0.464464
2   -0.045705
3   -0.138951
4   -0.139343
5   -0.186852
6   -0.192356
7   -0.152775
8   0.286802
9   0.336544
10   0.063778
11   0.603982
12   -0.655093
13   -0.458747
14   -0.472015
15   -0.530832
16   0.1546
17   0.179549
18   0.155868
19   0.17534
20   0.155688
21   0.124135
22   0.125639
23   0.122856
24   0.140889
25   0.161936
26   0.174521
27   0.156213
28   0.318791

>  <lowdin_charges>
28
1   -0.455136
2   -0.125701
3   -0.167932
4   -0.169775
5   -0.179293
6   -0.171206
7   -0.209949
8   0.010257
9   0.066041
10   -0.030193
11   0.189874
12   -0.309861
13   -0.238512
14   -0.200325
15   -0.191974
16   0.162433
17   0.1668
18   0.153911
19   0.159691
20   0.1539
21   0.157897
22   0.158341
23   0.154229
24   0.166301
25   0.161977
26   0.157274
27   0.153438
28   0.277492

$$$$

