PCCDB-ID:  22783
public computational chemistry database (PCCDB) project, http://pccdb.org

 20 20  0  0  0  0  0  0  0  0999 V2000
   -2.9123   -0.5196   -0.1168 C   0  0  0  0  0  0  0  0  0  0  0  0
   -1.7335   -1.2505    0.0251 C   0  0  0  0  0  0  0  0  0  0  0  0
   -2.9473    0.6039   -0.9463 C   0  0  0  0  0  0  0  0  0  0  0  0
   -0.5844   -0.8588   -0.6667 C   0  0  0  0  0  0  0  0  0  0  0  0
    1.6554    1.0846   -1.5241 C   0  0  0  0  0  0  0  0  0  0  0  0
   -1.7979    1.0016   -1.6270 C   0  0  0  0  0  0  0  0  0  0  0  0
   -0.6089    0.2680   -1.4853 C   0  0  0  0  0  0  0  0  0  0  0  0
    1.7852    2.6104   -1.4097 C   0  0  0  0  0  0  0  0  0  0  0  0
   -1.7452    2.0981   -2.4534 O   0  0  0  0  0  0  0  0  0  0  0  0
    2.7289    3.1025   -0.8385 O   0  0  0  0  0  0  0  0  0  0  0  0
    0.8218    3.3395   -1.9858 O   0  0  0  0  0  0  0  0  0  0  0  0
    0.4805    0.6762   -2.2283 O   0  0  0  0  0  0  0  0  0  0  0  0
   -3.8112   -0.8200    0.4130 H   0  0  0  0  0  0  0  0  0  0  0  0
   -1.7061   -2.1288    0.6625 H   0  0  0  0  0  0  0  0  0  0  0  0
   -3.8655    1.1769   -1.0602 H   0  0  0  0  0  0  0  0  0  0  0  0
    0.3362   -1.4292   -0.5831 H   0  0  0  0  0  0  0  0  0  0  0  0
    1.6943    0.6589   -0.5166 H   0  0  0  0  0  0  0  0  0  0  0  0
    2.5194    0.7170   -2.0854 H   0  0  0  0  0  0  0  0  0  0  0  0
   -2.5663    2.6074   -2.3712 H   0  0  0  0  0  0  0  0  0  0  0  0
    0.1328    2.7571   -2.3731 H   0  0  0  0  0  0  0  0  0  0  0  0
  1  2  1  0  0  0  0
  1 13  1  0  0  0  0
  2 14  1  0  0  0  0
  3  1  2  0  0  0  0
  4 16  1  0  0  0  0
  4  2  2  0  0  0  0
  5  8  1  0  0  0  0
  5 17  1  0  0  0  0
  6  7  2  0  0  0  0
  6  3  1  0  0  0  0
  7  4  1  0  0  0  0
  8 10  2  0  0  0  0
  9 19  1  0  0  0  0
  9  6  1  0  0  0  0
 11  8  1  0  0  0  0
 12  5  1  0  0  0  0
 12  7  1  0  0  0  0
 15  3  1  0  0  0  0
 18  5  1  0  0  0  0
 20 11  1  0  0  0  0
M  END
>  <HBA>
4

>  <HBD>
2

>  <TPSA>
66.76

>  <cid>
22783

>  <dipole>
5.35

>  <excitation_energy_1>
4.966

>  <excitation_energy_2>
5.343

>  <excitation_energy_3>
5.528

>  <excitation_energy_4>
5.623

>  <homo_energy>
-6.376

>  <homo_lumo_gap>
5.867

>  <logP>
0.856

>  <lumo_energy>
-0.509

>  <melting_point>
125.89

>  <molecular_refractivity>
41.54

>  <oscillator_strength_1>
0.0472

>  <oscillator_strength_2>
0.0004

>  <oscillator_strength_3>
0.002

>  <oscillator_strength_4>
0.0246

>  <open_babel_can_smiles>
OC(=O)COc1ccccc1O

>  <mulliken_charges>
20
1   -0.130973
2   -0.140281
3   -0.191455
4   -0.1669
5   -0.151729
6   0.323749
7   0.314813
8   0.567184
9   -0.660984
10   -0.449313
11   -0.587899
12   -0.541368
13   0.139459
14   0.139197
15   0.131394
16   0.145455
17   0.181088
18   0.195286
19   0.422395
20   0.460882

>  <lowdin_charges>
20
1   -0.150634
2   -0.163306
3   -0.20105
4   -0.17227
5   -0.169688
6   0.0815
7   0.064061
8   0.173518
9   -0.375947
10   -0.254558
11   -0.349039
12   -0.223005
13   0.164505
14   0.163894
15   0.160198
16   0.168973
17   0.169711
18   0.179679
19   0.368501
20   0.364957

$$$$

