PCCDB-ID:  7868
public computational chemistry database (PCCDB) project, http://pccdb.org

 24 23  0  0  0  0  0  0  0  0999 V2000
    2.3691    0.5724    2.5870 C   0  0  0  0  0  0  0  0  0  0  0  0
    2.0449   -1.8876    2.5218 C   0  0  0  0  0  0  0  0  0  0  0  0
    5.3028   -0.9721   -0.8348 C   0  0  0  0  0  0  0  0  0  0  0  0
    5.5068    0.4461    1.2246 C   0  0  0  0  0  0  0  0  0  0  0  0
    5.2877   -2.0456    1.4317 C   0  0  0  0  0  0  0  0  0  0  0  0
    3.2889   -0.6556    0.6157 C   0  0  0  0  0  0  0  0  0  0  0  0
    2.5747   -0.5900    1.9559 C   0  0  0  0  0  0  0  0  0  0  0  0
    4.8447   -0.8091    0.6282 C   0  0  0  0  0  0  0  0  0  0  0  0
    1.8528    0.6212    3.5429 H   0  0  0  0  0  0  0  0  0  0  0  0
    2.7024    1.5191    2.1691 H   0  0  0  0  0  0  0  0  0  0  0  0
    1.5565   -1.7356    3.4896 H   0  0  0  0  0  0  0  0  0  0  0  0
    2.8361   -2.6350    2.6531 H   0  0  0  0  0  0  0  0  0  0  0  0
    1.3089   -2.3328    1.8375 H   0  0  0  0  0  0  0  0  0  0  0  0
    6.3950   -1.0532   -0.8970 H   0  0  0  0  0  0  0  0  0  0  0  0
    4.9969   -0.1132   -1.4450 H   0  0  0  0  0  0  0  0  0  0  0  0
    4.8743   -1.8748   -1.2879 H   0  0  0  0  0  0  0  0  0  0  0  0
    6.5992    0.3467    1.2169 H   0  0  0  0  0  0  0  0  0  0  0  0
    5.1896    0.6117    2.2592 H   0  0  0  0  0  0  0  0  0  0  0  0
    5.2505    1.3426    0.6458 H   0  0  0  0  0  0  0  0  0  0  0  0
    6.3736   -2.1824    1.3577 H   0  0  0  0  0  0  0  0  0  0  0  0
    4.8125   -2.9604    1.0556 H   0  0  0  0  0  0  0  0  0  0  0  0
    5.0412   -1.9445    2.4942 H   0  0  0  0  0  0  0  0  0  0  0  0
    3.0587    0.2547    0.0467 H   0  0  0  0  0  0  0  0  0  0  0  0
    2.8757   -1.4934    0.0360 H   0  0  0  0  0  0  0  0  0  0  0  0
  1  9  1  0  0  0  0
  2 12  1  0  0  0  0
  2 11  1  0  0  0  0
  3  8  1  0  0  0  0
  4 18  1  0  0  0  0
  5 22  1  0  0  0  0
  6  8  1  0  0  0  0
  6  7  1  0  0  0  0
  7  2  1  0  0  0  0
  7  1  2  0  0  0  0
  8  4  1  0  0  0  0
  8  5  1  0  0  0  0
 10  1  1  0  0  0  0
 13  2  1  0  0  0  0
 14  3  1  0  0  0  0
 15  3  1  0  0  0  0
 16  3  1  0  0  0  0
 17  4  1  0  0  0  0
 19  4  1  0  0  0  0
 20  5  1  0  0  0  0
 21  5  1  0  0  0  0
 23  6  1  0  0  0  0
 24  6  1  0  0  0  0
M  END
>  <HBA>
0

>  <HBD>
0

>  <TPSA>
0.0

>  <cid>
7868

>  <dipole>
0.42

>  <excitation_energy_1>
6.002

>  <excitation_energy_2>
6.318

>  <excitation_energy_3>
6.562

>  <excitation_energy_4>
6.618

>  <homo_energy>
-6.457

>  <homo_lumo_gap>
7.127

>  <logP>
2.999

>  <lumo_energy>
0.669

>  <melting_point>
-26.38

>  <molecular_refractivity>
39.84

>  <oscillator_strength_1>
0.029

>  <oscillator_strength_2>
0.1535

>  <oscillator_strength_3>
0.0097

>  <oscillator_strength_4>
0.015

>  <open_babel_can_smiles>
CC(=C)CC(C)(C)C

>  <mulliken_charges>
24
1   -0.397818
2   -0.516719
3   -0.439199
4   -0.443945
5   -0.449139
6   -0.330337
7   0.230498
8   0.106233
9   0.12965
10   0.132552
11   0.149716
12   0.157812
13   0.152514
14   0.138302
15   0.137585
16   0.136673
17   0.135121
18   0.151525
19   0.132537
20   0.137624
21   0.135513
22   0.149047
23   0.137057
24   0.1272

>  <lowdin_charges>
24
1   -0.364408
2   -0.445222
3   -0.441524
4   -0.443632
5   -0.442106
6   -0.278854
7   0.008373
8   0.020378
9   0.152195
10   0.153305
11   0.154287
12   0.157614
13   0.156211
14   0.145124
15   0.146962
16   0.145922
17   0.143997
18   0.15306
19   0.14429
20   0.145614
21   0.145014
22   0.149427
23   0.149789
24   0.144183

$$$$

