PCCDB-ID:  17869
public computational chemistry database (PCCDB) project, http://pccdb.org

 26 25  0  0  0  0  0  0  0  0999 V2000
    3.9878    0.2134    1.6421 C   0  0  0  0  0  0  0  0  0  0  0  0
    3.7229    2.7104    1.5543 C   0  0  0  0  0  0  0  0  0  0  0  0
    8.0307    1.4763   -3.9469 C   0  0  0  0  0  0  0  0  0  0  0  0
    9.4797   -0.1884   -3.0024 C   0  0  0  0  0  0  0  0  0  0  0  0
    7.3968    0.3472   -1.8922 C   0  0  0  0  0  0  0  0  0  0  0  0
    5.8839    0.2082   -2.0754 C   0  0  0  0  0  0  0  0  0  0  0  0
    4.1682    1.3791    1.0086 C   0  0  0  0  0  0  0  0  0  0  0  0
    4.8479    1.4438   -0.3217 C   0  0  0  0  0  0  0  0  0  0  0  0
    8.0972    0.2416   -3.1710 N   0  0  0  0  0  0  0  0  0  0  0  0
    5.0412    2.4862   -0.9187 O   0  0  0  0  0  0  0  0  0  0  0  0
    5.2193    0.2296   -0.7943 O   0  0  0  0  0  0  0  0  0  0  0  0
    3.4954    0.1727    2.6102 H   0  0  0  0  0  0  0  0  0  0  0  0
    4.3251   -0.7244    1.2156 H   0  0  0  0  0  0  0  0  0  0  0  0
    3.2346    2.5902    2.5255 H   0  0  0  0  0  0  0  0  0  0  0  0
    3.0254    3.2018    0.8665 H   0  0  0  0  0  0  0  0  0  0  0  0
    4.5740    3.3911    1.6682 H   0  0  0  0  0  0  0  0  0  0  0  0
    8.4902    1.3153   -4.9281 H   0  0  0  0  0  0  0  0  0  0  0  0
    8.5513    2.3217   -3.4561 H   0  0  0  0  0  0  0  0  0  0  0  0
    6.9910    1.7731   -4.1104 H   0  0  0  0  0  0  0  0  0  0  0  0
    9.9451   -0.3134   -3.9863 H   0  0  0  0  0  0  0  0  0  0  0  0
    9.5094   -1.1550   -2.4884 H   0  0  0  0  0  0  0  0  0  0  0  0
   10.0962    0.5286   -2.4249 H   0  0  0  0  0  0  0  0  0  0  0  0
    7.7315   -0.4706   -1.2443 H   0  0  0  0  0  0  0  0  0  0  0  0
    7.6189    1.2927   -1.3636 H   0  0  0  0  0  0  0  0  0  0  0  0
    5.6456   -0.7638   -2.5115 H   0  0  0  0  0  0  0  0  0  0  0  0
    5.4727    1.0031   -2.7001 H   0  0  0  0  0  0  0  0  0  0  0  0
  1 12  1  0  0  0  0
  2 16  1  0  0  0  0
  2 14  1  0  0  0  0
  3 18  1  0  0  0  0
  3  9  1  0  0  0  0
  4 21  1  0  0  0  0
  4 22  1  0  0  0  0
  5 24  1  0  0  0  0
  5 23  1  0  0  0  0
  6  5  1  0  0  0  0
  6 11  1  0  0  0  0
  7  2  1  0  0  0  0
  7  1  2  0  0  0  0
  8  7  1  0  0  0  0
  9  4  1  0  0  0  0
  9  5  1  0  0  0  0
 10  8  2  0  0  0  0
 11  8  1  0  0  0  0
 13  1  1  0  0  0  0
 15  2  1  0  0  0  0
 17  3  1  0  0  0  0
 19  3  1  0  0  0  0
 20  4  1  0  0  0  0
 25  6  1  0  0  0  0
 26  6  1  0  0  0  0
M  END
>  <HBA>
3

>  <HBD>
0

>  <TPSA>
29.54

>  <cid>
17869

>  <dipole>
1.43

>  <excitation_energy_1>
4.081

>  <excitation_energy_2>
4.82

>  <excitation_energy_3>
5.467

>  <excitation_energy_4>
5.808

>  <homo_energy>
-5.834

>  <homo_lumo_gap>
4.795

>  <logP>
0.667

>  <lumo_energy>
-1.039

>  <melting_point>
-29.99

>  <molecular_refractivity>
44.28

>  <oscillator_strength_1>
0.0018

>  <oscillator_strength_2>
0.0001

>  <oscillator_strength_3>
0.0114

>  <oscillator_strength_4>
0.2285

>  <open_babel_can_smiles>
CN(CCOC(=O)C(=C)C)C

>  <mulliken_charges>
26
1   -0.369055
2   -0.499911
3   -0.303579
4   -0.295154
5   -0.137803
6   -0.047845
7   0.12644
8   0.595399
9   -0.375582
10   -0.487802
11   -0.482269
12   0.147916
13   0.172048
14   0.146803
15   0.172697
16   0.172485
17   0.149523
18   0.125311
19   0.158012
20   0.149236
21   0.149839
22   0.120972
23   0.144273
24   0.137512
25   0.160012
26   0.170522

>  <lowdin_charges>
26
1   -0.301232
2   -0.436197
3   -0.357185
4   -0.355963
5   -0.211792
6   -0.136517
7   -0.02842
8   0.194255
9   -0.185189
10   -0.271593
11   -0.19175
12   0.16232
13   0.1752
14   0.154909
15   0.169795
16   0.168994
17   0.150111
18   0.125455
19   0.152224
20   0.150015
21   0.149419
22   0.123484
23   0.150428
24   0.132591
25   0.156885
26   0.159753

$$$$

