PCCDB-ID:  18298
public computational chemistry database (PCCDB) project, http://pccdb.org

 25 25  0  0  0  0  0  0  0  0999 V2000
    3.2032   -0.4716    2.0228 C   0  0  0  0  0  0  0  0  0  0  0  0
    4.2118   -0.1176    1.2237 C   0  0  0  0  0  0  0  0  0  0  0  0
    8.3345   -0.6110   -2.6337 C   0  0  0  0  0  0  0  0  0  0  0  0
    7.4412   -1.7199   -2.0551 C   0  0  0  0  0  0  0  0  0  0  0  0
    7.7666    0.7830   -2.3222 C   0  0  0  0  0  0  0  0  0  0  0  0
    5.9915   -1.5866   -2.5461 C   0  0  0  0  0  0  0  0  0  0  0  0
    6.3149    0.9212   -2.8085 C   0  0  0  0  0  0  0  0  0  0  0  0
    5.4116   -0.1925   -2.2749 C   0  0  0  0  0  0  0  0  0  0  0  0
    4.1737   -0.4243   -0.2305 C   0  0  0  0  0  0  0  0  0  0  0  0
    3.2650   -0.9929   -0.8044 O   0  0  0  0  0  0  0  0  0  0  0  0
    5.2975    0.0242   -0.8362 O   0  0  0  0  0  0  0  0  0  0  0  0
    3.2139   -0.2555    3.0868 H   0  0  0  0  0  0  0  0  0  0  0  0
    2.3385   -0.9897    1.6179 H   0  0  0  0  0  0  0  0  0  0  0  0
    5.0917    0.4011    1.5929 H   0  0  0  0  0  0  0  0  0  0  0  0
    8.4084   -0.7376   -3.7246 H   0  0  0  0  0  0  0  0  0  0  0  0
    9.3548   -0.7008   -2.2401 H   0  0  0  0  0  0  0  0  0  0  0  0
    7.4567   -1.6639   -0.9586 H   0  0  0  0  0  0  0  0  0  0  0  0
    7.8342   -2.7080   -2.3247 H   0  0  0  0  0  0  0  0  0  0  0  0
    8.3871    1.5611   -2.7838 H   0  0  0  0  0  0  0  0  0  0  0  0
    7.7990    0.9551   -1.2385 H   0  0  0  0  0  0  0  0  0  0  0  0
    5.3433   -2.3417   -2.0891 H   0  0  0  0  0  0  0  0  0  0  0  0
    5.9529   -1.7520   -3.6325 H   0  0  0  0  0  0  0  0  0  0  0  0
    6.2868    0.8709   -3.9061 H   0  0  0  0  0  0  0  0  0  0  0  0
    5.8989    1.8945   -2.5227 H   0  0  0  0  0  0  0  0  0  0  0  0
    4.4050   -0.1188   -2.6947 H   0  0  0  0  0  0  0  0  0  0  0  0
  1 12  1  0  0  0  0
  2 14  1  0  0  0  0
  2  1  2  0  0  0  0
  3  5  1  0  0  0  0
  3 16  1  0  0  0  0
  3  4  1  0  0  0  0
  4 17  1  0  0  0  0
  5 20  1  0  0  0  0
  6  8  1  0  0  0  0
  6 21  1  0  0  0  0
  6  4  1  0  0  0  0
  7 24  1  0  0  0  0
  7  5  1  0  0  0  0
  7  8  1  0  0  0  0
  8 11  1  0  0  0  0
  9  2  1  0  0  0  0
 10  9  2  0  0  0  0
 11  9  1  0  0  0  0
 13  1  1  0  0  0  0
 15  3  1  0  0  0  0
 18  4  1  0  0  0  0
 19  5  1  0  0  0  0
 22  6  1  0  0  0  0
 23  7  1  0  0  0  0
 25  8  1  0  0  0  0
M  END
>  <HBA>
2

>  <HBD>
0

>  <TPSA>
26.3

>  <cid>
18298

>  <dipole>
1.71

>  <excitation_energy_1>
4.713

>  <excitation_energy_2>
5.865

>  <excitation_energy_3>
6.1

>  <excitation_energy_4>
6.241

>  <homo_energy>
-7.309

>  <homo_lumo_gap>
6.172

>  <logP>
2.048

>  <lumo_energy>
-1.137

>  <melting_point>
-14.13

>  <molecular_refractivity>
44.07

>  <oscillator_strength_1>
0.0005

>  <oscillator_strength_2>
0.0714

>  <oscillator_strength_3>
0.1021

>  <oscillator_strength_4>
0.2393

>  <open_babel_can_smiles>
C=CC(=O)OC1CCCCC1

>  <mulliken_charges>
25
1   -0.303164
2   -0.135929
3   -0.260446
4   -0.260112
5   -0.261321
6   -0.282001
7   -0.275055
8   0.118476
9   0.615143
10   -0.495168
11   -0.49098
12   0.156057
13   0.180046
14   0.151297
15   0.126116
16   0.132628
17   0.140777
18   0.133197
19   0.132086
20   0.14517
21   0.159789
22   0.134362
23   0.135686
24   0.143999
25   0.159347

>  <lowdin_charges>
25
1   -0.266241
2   -0.186864
3   -0.275264
4   -0.277498
5   -0.279471
6   -0.287619
7   -0.281221
8   0.005186
9   0.195465
10   -0.27642
11   -0.197526
12   0.166527
13   0.17983
14   0.169243
15   0.134143
16   0.143694
17   0.141721
18   0.145067
19   0.145928
20   0.143987
21   0.159947
22   0.145008
23   0.14464
24   0.151438
25   0.1563

$$$$

