PCCDB-ID:  19569
public computational chemistry database (PCCDB) project, http://pccdb.org

 32 33  0  0  1  0  0  0  0  0999 V2000
    5.6475    2.1182   -2.8640 C   0  0  0  0  0  0  0  0  0  0  0  0
    2.7412   -1.2591   -2.9039 C   0  0  0  0  0  0  0  0  0  0  0  0
    4.6030    1.0849   -2.4484 C   0  0  0  0  0  0  0  0  0  0  0  0
    5.1939   -7.5989   -3.2369 C   0  0  0  0  0  0  0  0  0  0  0  0
    4.4176   -7.3807   -2.0953 C   0  0  0  0  0  0  0  0  0  0  0  0
    5.6072   -6.5194   -4.0162 C   0  0  0  0  0  0  0  0  0  0  0  0
    4.0715   -6.0818   -1.7254 C   0  0  0  0  0  0  0  0  0  0  0  0
    4.9623   -2.9609   -4.2284 C   0  0  0  0  0  0  0  0  0  0  0  0
    4.1724   -1.3511   -2.3619 C   0  0  1  0  0  0  0  0  0  0  0  0
    5.2550   -5.2178   -3.6560 C   0  0  0  0  0  0  0  0  0  0  0  0
    4.4918   -4.9979   -2.4968 C   0  0  0  0  0  0  0  0  0  0  0  0
    4.8621   -2.6754   -2.7336 C   0  0  1  0  0  0  0  0  0  0  0  0
    5.0146   -0.2584   -2.8658 N   0  0  0  0  0  0  0  0  0  0  0  0
    5.6793   -4.1787   -4.4471 O   0  0  0  0  0  0  0  0  0  0  0  0
    4.1371   -3.7315   -2.0925 O   0  0  0  0  0  0  0  0  0  0  0  0
    5.3262    3.1281   -2.5879 H   0  0  0  0  0  0  0  0  0  0  0  0
    5.8098    2.0875   -3.9464 H   0  0  0  0  0  0  0  0  0  0  0  0
    6.6104    1.9306   -2.3715 H   0  0  0  0  0  0  0  0  0  0  0  0
    2.1963   -2.1782   -2.6703 H   0  0  0  0  0  0  0  0  0  0  0  0
    2.7383   -1.1077   -3.9888 H   0  0  0  0  0  0  0  0  0  0  0  0
    2.1998   -0.4255   -2.4463 H   0  0  0  0  0  0  0  0  0  0  0  0
    3.6491    1.3214   -2.9325 H   0  0  0  0  0  0  0  0  0  0  0  0
    4.4272    1.1491   -1.3567 H   0  0  0  0  0  0  0  0  0  0  0  0
    5.4714   -8.6081   -3.5268 H   0  0  0  0  0  0  0  0  0  0  0  0
    4.0874   -8.2182   -1.4877 H   0  0  0  0  0  0  0  0  0  0  0  0
    6.1998   -6.6598   -4.9152 H   0  0  0  0  0  0  0  0  0  0  0  0
    3.4811   -5.8816   -0.8362 H   0  0  0  0  0  0  0  0  0  0  0  0
    5.5163   -2.1713   -4.7373 H   0  0  0  0  0  0  0  0  0  0  0  0
    3.9610   -3.0429   -4.6700 H   0  0  0  0  0  0  0  0  0  0  0  0
    4.1088   -1.3461   -1.2565 H   0  0  0  0  0  0  0  0  0  0  0  0
    5.8863   -2.6676   -2.3251 H   0  0  0  0  0  0  0  0  0  0  0  0
    5.9656   -0.4082   -2.5257 H   0  0  0  0  0  0  0  0  0  0  0  0
  1 16  1  0  0  0  0
  1  3  1  0  0  0  0
  1 18  1  0  0  0  0
  2 19  1  0  0  0  0
  2 21  1  0  0  0  0
  2  9  1  0  0  0  0
  3 23  1  0  0  0  0
  4  5  2  0  0  0  0
  5  7  1  0  0  0  0
  5 25  1  0  0  0  0
  6 10  2  0  0  0  0
  6  4  1  0  0  0  0
  7 27  1  0  0  0  0
  8 12  1  0  0  0  0
  9 30  1  1  0  0  0
 10 11  1  0  0  0  0
 11 15  1  0  0  0  0
 11  7  2  0  0  0  0
 12  9  1  0  0  0  0
 12 31  1  1  0  0  0
 12 15  1  0  0  0  0
 13 32  1  0  0  0  0
 13  3  1  0  0  0  0
 13  9  1  0  0  0  0
 14  8  1  0  0  0  0
 14 10  1  0  0  0  0
 17  1  1  0  0  0  0
 20  2  1  0  0  0  0
 22  3  1  0  0  0  0
 24  4  1  0  0  0  0
 26  6  1  0  0  0  0
 28  8  1  0  0  0  0
 29  8  1  0  0  0  0
M  END
>  <HBA>
3

>  <HBD>
1

>  <TPSA>
30.49

>  <cid>
19569

>  <dipole>
2.11

>  <excitation_energy_1>
4.878

>  <excitation_energy_2>
5.22

>  <excitation_energy_3>
5.536

>  <excitation_energy_4>
5.55

>  <homo_energy>
-5.576

>  <homo_lumo_gap>
5.818

>  <logP>
2.215

>  <lumo_energy>
0.242

>  <melting_point>
61.63

>  <molecular_refractivity>
59.34

>  <oscillator_strength_1>
0.0504

>  <oscillator_strength_2>
0.0104

>  <oscillator_strength_3>
0.0047

>  <oscillator_strength_4>
0.0043

>  <open_babel_can_smiles>
CCN[C@H]([C@@H]1COc2c(O1)cccc2)C

>  <mulliken_charges>
32
1   -0.456686
2   -0.469166
3   -0.109014
4   -0.13828
5   -0.138324
6   -0.192177
7   -0.193825
8   -0.050937
9   0.044375
10   0.332695
11   0.331943
12   0.098054
13   -0.570487
14   -0.529985
15   -0.549073
16   0.149233
17   0.160767
18   0.140326
19   0.170345
20   0.153715
21   0.15027
22   0.149723
23   0.11461
24   0.126205
25   0.125919
26   0.137507
27   0.135838
28   0.173171
29   0.153933
30   0.122935
31   0.135689
32   0.290701

>  <lowdin_charges>
32
1   -0.445328
2   -0.456018
3   -0.195052
4   -0.166479
5   -0.169002
6   -0.176075
7   -0.177311
8   -0.143234
9   -0.06224
10   0.05979
11   0.06094
12   -0.011932
13   -0.365856
14   -0.208258
15   -0.208689
16   0.15485
17   0.155211
18   0.145312
19   0.165338
20   0.151119
21   0.155426
22   0.145475
23   0.116027
24   0.156935
25   0.158478
26   0.166434
27   0.165658
28   0.169879
29   0.147714
30   0.124945
31   0.137339
32   0.248603

$$$$

