PCCDB-ID:  7504
public computational chemistry database (PCCDB) project, http://pccdb.org

 17 17  0  0  0  0  0  0  0  0999 V2000
   -1.4545   -0.0882   -0.0107 C   0  0  0  0  0  0  0  0  0  0  0  0
   -0.8889    1.1662   -0.2426 C   0  0  0  0  0  0  0  0  0  0  0  0
   -0.6226   -1.1883    0.2114 C   0  0  0  0  0  0  0  0  0  0  0  0
    0.4992    1.3157   -0.2516 C   0  0  0  0  0  0  0  0  0  0  0  0
    0.7640   -1.0372    0.1964 C   0  0  0  0  0  0  0  0  0  0  0  0
    2.8487    0.3824   -0.0914 C   0  0  0  0  0  0  0  0  0  0  0  0
    1.3411    0.2180   -0.0391 C   0  0  0  0  0  0  0  0  0  0  0  0
    3.5236   -0.4755    0.8898 N   0  0  0  0  0  0  0  0  0  0  0  0
   -2.5348   -0.2072    0.0023 H   0  0  0  0  0  0  0  0  0  0  0  0
   -1.5268    2.0307   -0.4084 H   0  0  0  0  0  0  0  0  0  0  0  0
   -1.0560   -2.1682    0.3960 H   0  0  0  0  0  0  0  0  0  0  0  0
    0.9342    2.2984   -0.4239 H   0  0  0  0  0  0  0  0  0  0  0  0
    1.4167   -1.8855    0.3779 H   0  0  0  0  0  0  0  0  0  0  0  0
    3.0897    1.4563    0.0046 H   0  0  0  0  0  0  0  0  0  0  0  0
    3.2119    0.0784   -1.0837 H   0  0  0  0  0  0  0  0  0  0  0  0
    3.2929   -0.1627    1.8321 H   0  0  0  0  0  0  0  0  0  0  0  0
    4.5328   -0.3823    0.7910 H   0  0  0  0  0  0  0  0  0  0  0  0
  1  9  1  0  0  0  0
  1  3  2  0  0  0  0
  2  1  1  0  0  0  0
  3 11  1  0  0  0  0
  4  2  2  0  0  0  0
  4  7  1  0  0  0  0
  5  3  1  0  0  0  0
  5 13  1  0  0  0  0
  6  7  1  0  0  0  0
  6 14  1  0  0  0  0
  6  8  1  0  0  0  0
  7  5  2  0  0  0  0
  8 16  1  0  0  0  0
 10  2  1  0  0  0  0
 12  4  1  0  0  0  0
 15  6  1  0  0  0  0
 17  8  1  0  0  0  0
M  END
>  <HBA>
1

>  <HBD>
1

>  <TPSA>
26.02

>  <cid>
7504

>  <dipole>
1.44

>  <excitation_energy_1>
5.252

>  <excitation_energy_2>
5.42

>  <excitation_energy_3>
5.771

>  <excitation_energy_4>
5.8

>  <homo_energy>
-6.24

>  <homo_lumo_gap>
6.389

>  <logP>
1.846

>  <lumo_energy>
0.15

>  <melting_point>
61.4

>  <molecular_refractivity>
34.12

>  <oscillator_strength_1>
0.0005

>  <oscillator_strength_2>
0.0303

>  <oscillator_strength_3>
0.0112

>  <oscillator_strength_4>
0.004

>  <open_babel_can_smiles>
NCc1ccccc1

>  <mulliken_charges>
17
1   -0.129808
2   -0.128555
3   -0.13104
4   -0.186627
5   -0.16625
6   -0.20781
7   0.143948
8   -0.715154
9   0.125226
10   0.125321
11   0.126466
12   0.117938
13   0.150072
14   0.121132
15   0.157606
16   0.298786
17   0.298749

>  <lowdin_charges>
17
1   -0.159
2   -0.159135
3   -0.156174
4   -0.169695
5   -0.160697
6   -0.199586
7   -0.014272
8   -0.551044
9   0.153491
10   0.156238
11   0.155416
12   0.151446
13   0.16956
14   0.122062
15   0.152062
16   0.254899
17   0.254429

$$$$

