PCCDB-ID:  67161
public computational chemistry database (PCCDB) project, http://pccdb.org

 35 34  0  0  0  0  0  0  0  0999 V2000
    0.4883    1.0331    0.0365 C   0  0  0  0  0  0  0  0  0  0  0  0
    8.3554    3.7986   -7.6311 C   0  0  0  0  0  0  0  0  0  0  0  0
    6.9972    0.6224   -1.7896 C   0  0  0  0  0  0  0  0  0  0  0  0
    4.1438    1.4529   -0.8628 C   0  0  0  0  0  0  0  0  0  0  0  0
    6.9871    2.3187   -4.4213 C   0  0  0  0  0  0  0  0  0  0  0  0
    2.6268    1.4199   -1.0608 C   0  0  0  0  0  0  0  0  0  0  0  0
    7.7232    3.3026   -5.3326 C   0  0  0  0  0  0  0  0  0  0  0  0
    4.8934    1.8053   -2.1542 C   0  0  0  0  0  0  0  0  0  0  0  0
    7.0035    2.7714   -2.9468 C   0  0  0  0  0  0  0  0  0  0  0  0
    1.9354    1.1190    0.1901 N   0  0  0  0  0  0  0  0  0  0  0  0
    7.6314    2.9047   -6.7350 N   0  0  0  0  0  0  0  0  0  0  0  0
    6.3407    1.9089   -1.9680 N   0  0  0  0  0  0  0  0  0  0  0  0
    0.0355    0.7371    0.9887 H   0  0  0  0  0  0  0  0  0  0  0  0
    0.1522    0.3220   -0.7427 H   0  0  0  0  0  0  0  0  0  0  0  0
    0.0915    2.0209   -0.2273 H   0  0  0  0  0  0  0  0  0  0  0  0
    8.3034    3.4127   -8.6547 H   0  0  0  0  0  0  0  0  0  0  0  0
    9.4213    3.9444   -7.3699 H   0  0  0  0  0  0  0  0  0  0  0  0
    7.8774    4.7857   -7.6233 H   0  0  0  0  0  0  0  0  0  0  0  0
    6.6135    0.1235   -0.8941 H   0  0  0  0  0  0  0  0  0  0  0  0
    8.0716    0.7797   -1.6421 H   0  0  0  0  0  0  0  0  0  0  0  0
    6.8677   -0.0749   -2.6401 H   0  0  0  0  0  0  0  0  0  0  0  0
    4.4732    0.4725   -0.4905 H   0  0  0  0  0  0  0  0  0  0  0  0
    4.3948    2.1855   -0.0879 H   0  0  0  0  0  0  0  0  0  0  0  0
    7.4522    1.3264   -4.5113 H   0  0  0  0  0  0  0  0  0  0  0  0
    5.9558    2.2173   -4.7801 H   0  0  0  0  0  0  0  0  0  0  0  0
    2.3709    0.7064   -1.8714 H   0  0  0  0  0  0  0  0  0  0  0  0
    2.2786    2.4052   -1.4029 H   0  0  0  0  0  0  0  0  0  0  0  0
    8.7724    3.4147   -4.9884 H   0  0  0  0  0  0  0  0  0  0  0  0
    7.2666    4.2988   -5.2413 H   0  0  0  0  0  0  0  0  0  0  0  0
    4.5371    2.7830   -2.5033 H   0  0  0  0  0  0  0  0  0  0  0  0
    4.6249    1.0759   -2.9444 H   0  0  0  0  0  0  0  0  0  0  0  0
    6.5382    3.7643   -2.8770 H   0  0  0  0  0  0  0  0  0  0  0  0
    8.0456    2.8947   -2.6204 H   0  0  0  0  0  0  0  0  0  0  0  0
    2.2842    0.2324    0.5519 H   0  0  0  0  0  0  0  0  0  0  0  0
    8.0056    1.9618   -6.8331 H   0  0  0  0  0  0  0  0  0  0  0  0
  1 10  1  0  0  0  0
  1 13  1  0  0  0  0
  2 18  1  0  0  0  0
  2 17  1  0  0  0  0
  2 11  1  0  0  0  0
  3 20  1  0  0  0  0
  3 19  1  0  0  0  0
  4 22  1  0  0  0  0
  4 23  1  0  0  0  0
  5  9  1  0  0  0  0
  6  4  1  0  0  0  0
  6 10  1  0  0  0  0
  7 29  1  0  0  0  0
  7 28  1  0  0  0  0
  7  5  1  0  0  0  0
  8 12  1  0  0  0  0
  8  4  1  0  0  0  0
  9 32  1  0  0  0  0
  9 33  1  0  0  0  0
  9 12  1  0  0  0  0
 10 34  1  0  0  0  0
 11  7  1  0  0  0  0
 12  3  1  0  0  0  0
 14  1  1  0  0  0  0
 15  1  1  0  0  0  0
 16  2  1  0  0  0  0
 21  3  1  0  0  0  0
 24  5  1  0  0  0  0
 25  5  1  0  0  0  0
 26  6  1  0  0  0  0
 27  6  1  0  0  0  0
 30  8  1  0  0  0  0
 31  8  1  0  0  0  0
 35 11  1  0  0  0  0
M  END
>  <HBA>
3

>  <HBD>
2

>  <TPSA>
27.3

>  <cid>
67161

>  <dipole>
1.66

>  <excitation_energy_1>
5.004

>  <excitation_energy_2>
5.243

>  <excitation_energy_3>
5.335

>  <excitation_energy_4>
5.375

>  <homo_energy>
-5.415

>  <homo_lumo_gap>
7.663

>  <logP>
0.919

>  <lumo_energy>
2.248

>  <melting_point>
28.44

>  <molecular_refractivity>
53.88

>  <oscillator_strength_1>
0.0104

>  <oscillator_strength_2>
0.0001

>  <oscillator_strength_3>
0.0013

>  <oscillator_strength_4>
0.0042

>  <open_babel_can_smiles>
CNCCCN(CCCNC)C

>  <mulliken_charges>
35
1   -0.298202
2   -0.298691
3   -0.30422
4   -0.269007
5   -0.281219
6   -0.114775
7   -0.111897
8   -0.117528
9   -0.136048
10   -0.539666
11   -0.539847
12   -0.371892
13   0.146653
14   0.116964
15   0.150621
16   0.146972
17   0.117552
18   0.150692
19   0.151645
20   0.145032
21   0.118725
22   0.124465
23   0.158084
24   0.127812
25   0.152217
26   0.105477
27   0.135758
28   0.105145
29   0.135711
30   0.134034
31   0.111555
32   0.136022
33   0.132071
34   0.289831
35   0.289955

>  <lowdin_charges>
35
1   -0.360481
2   -0.356925
3   -0.358377
4   -0.283985
5   -0.2977
6   -0.201634
7   -0.197782
8   -0.198721
9   -0.20088
10   -0.362003
11   -0.36224
12   -0.183567
13   0.149945
14   0.119923
15   0.147318
16   0.148834
17   0.11762
18   0.147104
19   0.150019
20   0.147557
21   0.119985
22   0.136033
23   0.155878
24   0.137275
25   0.149292
26   0.112874
27   0.138531
28   0.110921
29   0.138107
30   0.143325
31   0.117593
32   0.14012
33   0.138271
34   0.248977
35   0.248791

$$$$

