PCCDB-ID:  7358
public computational chemistry database (PCCDB) project, http://pccdb.org

 21 20  0  0  0  0  0  0  0  0999 V2000
    1.1003   -0.7249   -0.2507 C   0  0  0  0  0  0  0  0  0  0  0  0
    3.2741   -3.1364    1.6160 C   0  0  0  0  0  0  0  0  0  0  0  0
    2.6204   -0.5860   -0.1104 C   0  0  0  0  0  0  0  0  0  0  0  0
    2.7805   -1.7978    2.1810 C   0  0  0  0  0  0  0  0  0  0  0  0
    4.6378   -0.2447    1.3621 C   0  0  0  0  0  0  0  0  0  0  0  0
    3.1291   -0.5460    1.3449 C   0  0  0  0  0  0  0  0  0  0  0  0
    5.1871   -0.1344    2.6719 O   0  0  0  0  0  0  0  0  0  0  0  0
    0.7986   -0.6729   -1.3030 H   0  0  0  0  0  0  0  0  0  0  0  0
    0.5779    0.0776    0.2849 H   0  0  0  0  0  0  0  0  0  0  0  0
    0.7392   -1.6790    0.1485 H   0  0  0  0  0  0  0  0  0  0  0  0
    2.9928   -3.9581    2.2842 H   0  0  0  0  0  0  0  0  0  0  0  0
    4.3651   -3.1585    1.5162 H   0  0  0  0  0  0  0  0  0  0  0  0
    2.8435   -3.3536    0.6315 H   0  0  0  0  0  0  0  0  0  0  0  0
    2.9402    0.3367   -0.6150 H   0  0  0  0  0  0  0  0  0  0  0  0
    3.1128   -1.4065   -0.6499 H   0  0  0  0  0  0  0  0  0  0  0  0
    3.2093   -1.6570    3.1798 H   0  0  0  0  0  0  0  0  0  0  0  0
    1.6925   -1.8448    2.3167 H   0  0  0  0  0  0  0  0  0  0  0  0
    4.8341    0.6695    0.7774 H   0  0  0  0  0  0  0  0  0  0  0  0
    5.1978   -1.0553    0.8835 H   0  0  0  0  0  0  0  0  0  0  0  0
    2.6316    0.3094    1.8356 H   0  0  0  0  0  0  0  0  0  0  0  0
    4.7414    0.6070    3.1112 H   0  0  0  0  0  0  0  0  0  0  0  0
  1  3  1  0  0  0  0
  1 10  1  0  0  0  0
  1  9  1  0  0  0  0
  2  4  1  0  0  0  0
  2 11  1  0  0  0  0
  3  6  1  0  0  0  0
  4 17  1  0  0  0  0
  4 16  1  0  0  0  0
  5  7  1  0  0  0  0
  6  5  1  0  0  0  0
  6 20  1  0  0  0  0
  6  4  1  0  0  0  0
  7 21  1  0  0  0  0
  8  1  1  0  0  0  0
 12  2  1  0  0  0  0
 13  2  1  0  0  0  0
 14  3  1  0  0  0  0
 15  3  1  0  0  0  0
 18  5  1  0  0  0  0
 19  5  1  0  0  0  0
M  END
>  <HBA>
1

>  <HBD>
1

>  <TPSA>
20.23

>  <cid>
7358

>  <dipole>
1.61

>  <excitation_energy_1>
6.32

>  <excitation_energy_2>
7.025

>  <excitation_energy_3>
7.263

>  <excitation_energy_4>
7.349

>  <homo_energy>
-7.072

>  <homo_lumo_gap>
8.958

>  <logP>
1.415

>  <lumo_energy>
1.886

>  <melting_point>
-7.94

>  <molecular_refractivity>
32.12

>  <oscillator_strength_1>
0.0046

>  <oscillator_strength_2>
0.0137

>  <oscillator_strength_3>
0.0012

>  <oscillator_strength_4>
0.0142

>  <open_babel_can_smiles>
CCC(CO)CC

>  <mulliken_charges>
21
1   -0.447814
2   -0.455072
3   -0.258742
4   -0.250525
5   -0.031895
6   -0.101405
7   -0.615266
8   0.143326
9   0.140992
10   0.150296
11   0.143493
12   0.151748
13   0.142385
14   0.12849
15   0.136289
16   0.143829
17   0.129415
18   0.116896
19   0.144805
20   0.103343
21   0.385409

>  <lowdin_charges>
21
1   -0.445422
2   -0.447753
3   -0.277607
4   -0.277732
5   -0.141232
6   -0.147352
7   -0.467579
8   0.149492
9   0.147413
10   0.149469
11   0.152489
12   0.148426
13   0.14466
14   0.140775
15   0.142863
16   0.148781
17   0.138294
18   0.126117
19   0.14626
20   0.129013
21   0.340627

$$$$

