PCCDB-ID:  36312
public computational chemistry database (PCCDB) project, http://pccdb.org

 20 20  0  0  1  0  0  0  0  0999 V2000
    1.0461    0.0669    0.3522 C   0  0  0  0  0  0  0  0  0  0  0  0
    3.8117    0.0678    2.4030 C   0  0  0  0  0  0  0  0  0  0  0  0
    3.6968    1.2479    1.7857 C   0  0  0  0  0  0  0  0  0  0  0  0
    3.4683   -1.2451    1.7453 C   0  0  0  0  0  0  0  0  0  0  0  0
    3.2135    1.3966    0.3626 C   0  0  0  0  0  0  0  0  0  0  0  0
    3.3009   -1.1054    0.2241 C   0  0  0  0  0  0  0  0  0  0  0  0
    2.4897    0.1386   -0.1662 C   0  0  1  0  0  0  0  0  0  0  0  0
    2.4803    0.1426   -1.6018 O   0  0  0  0  0  0  0  0  0  0  0  0
    1.0035    0.0956    1.4458 H   0  0  0  0  0  0  0  0  0  0  0  0
    0.5604   -0.8498    0.0010 H   0  0  0  0  0  0  0  0  0  0  0  0
    0.4660    0.9220   -0.0201 H   0  0  0  0  0  0  0  0  0  0  0  0
    4.1613    0.0316    3.4341 H   0  0  0  0  0  0  0  0  0  0  0  0
    3.9682    2.1614    2.3132 H   0  0  0  0  0  0  0  0  0  0  0  0
    2.5498   -1.6511    2.1977 H   0  0  0  0  0  0  0  0  0  0  0  0
    4.2487   -1.9870    1.9632 H   0  0  0  0  0  0  0  0  0  0  0  0
    4.0643    1.6011   -0.3037 H   0  0  0  0  0  0  0  0  0  0  0  0
    2.5497    2.2713    0.2822 H   0  0  0  0  0  0  0  0  0  0  0  0
    2.8221   -1.9955   -0.2003 H   0  0  0  0  0  0  0  0  0  0  0  0
    4.2867   -1.0168   -0.2489 H   0  0  0  0  0  0  0  0  0  0  0  0
    1.9644    0.9145   -1.8863 H   0  0  0  0  0  0  0  0  0  0  0  0
  1  9  1  0  0  0  0
  2 12  1  0  0  0  0
  3 13  1  0  0  0  0
  3  2  2  0  0  0  0
  4 15  1  0  0  0  0
  4 14  1  0  0  0  0
  4  2  1  0  0  0  0
  5  3  1  0  0  0  0
  6  4  1  0  0  0  0
  7  8  1  6  0  0  0
  7  6  1  0  0  0  0
  7  1  1  0  0  0  0
  7  5  1  0  0  0  0
 10  1  1  0  0  0  0
 11  1  1  0  0  0  0
 16  5  1  0  0  0  0
 17  5  1  0  0  0  0
 18  6  1  0  0  0  0
 19  6  1  0  0  0  0
 20  8  1  0  0  0  0
M  END
>  <HBA>
1

>  <HBD>
1

>  <TPSA>
20.23

>  <cid>
36312

>  <dipole>
1.36

>  <excitation_energy_1>
5.929

>  <excitation_energy_2>
6.326

>  <excitation_energy_3>
6.459

>  <excitation_energy_4>
6.604

>  <homo_energy>
-6.498

>  <homo_lumo_gap>
7.293

>  <logP>
1.478

>  <lumo_energy>
0.795

>  <melting_point>
34.78

>  <molecular_refractivity>
34.37

>  <oscillator_strength_1>
0.0051

>  <oscillator_strength_2>
0.0103

>  <oscillator_strength_3>
0.0096

>  <oscillator_strength_4>
0.0139

>  <open_babel_can_smiles>
C[C@]1(O)CCC=CC1

>  <mulliken_charges>
20
1   -0.46273
2   -0.105157
3   -0.107325
4   -0.311568
5   -0.323605
6   -0.27188
7   0.31533
8   -0.649785
9   0.154492
10   0.152078
11   0.126519
12   0.120865
13   0.119975
14   0.146704
15   0.144859
16   0.157686
17   0.125363
18   0.139812
19   0.147346
20   0.38102

>  <lowdin_charges>
20
1   -0.457564
2   -0.173799
3   -0.177249
4   -0.27955
5   -0.29448
6   -0.277152
7   0.121092
8   -0.463422
9   0.156192
10   0.155314
11   0.143599
12   0.150339
13   0.152052
14   0.148909
15   0.153867
16   0.158588
17   0.14276
18   0.150906
19   0.151617
20   0.337982

$$$$

