PCCDB-ID:  19969
public computational chemistry database (PCCDB) project, http://pccdb.org

 17 17  0  0  0  0  0  0  0  0999 V2000
    1.5985    0.0852    0.0970 C   0  0  0  0  0  0  0  0  0  0  0  0
    0.9913   -1.2277    0.3277 C   0  0  0  0  0  0  0  0  0  0  0  0
    1.0323    1.2503   -0.2675 C   0  0  0  0  0  0  0  0  0  0  0  0
   -0.2938   -1.6169    0.2366 C   0  0  0  0  0  0  0  0  0  0  0  0
   -0.4251    1.5508   -0.4972 C   0  0  0  0  0  0  0  0  0  0  0  0
   -1.5042   -0.7814   -0.0865 C   0  0  0  0  0  0  0  0  0  0  0  0
   -1.4287    0.7032    0.2985 C   0  0  0  0  0  0  0  0  0  0  0  0
    2.6815    0.0940    0.2173 H   0  0  0  0  0  0  0  0  0  0  0  0
    1.7114   -2.0039    0.5853 H   0  0  0  0  0  0  0  0  0  0  0  0
    1.7046    2.0952   -0.4168 H   0  0  0  0  0  0  0  0  0  0  0  0
   -0.4994   -2.6715    0.4200 H   0  0  0  0  0  0  0  0  0  0  0  0
   -0.6477    1.4710   -1.5737 H   0  0  0  0  0  0  0  0  0  0  0  0
   -0.5965    2.6079   -0.2502 H   0  0  0  0  0  0  0  0  0  0  0  0
   -2.3692   -1.2258    0.4255 H   0  0  0  0  0  0  0  0  0  0  0  0
   -1.7330   -0.8725   -1.1608 H   0  0  0  0  0  0  0  0  0  0  0  0
   -2.4259    1.1412    0.1621 H   0  0  0  0  0  0  0  0  0  0  0  0
   -1.1957    0.7840    1.3677 H   0  0  0  0  0  0  0  0  0  0  0  0
  1  8  1  0  0  0  0
  1  2  1  0  0  0  0
  2  9  1  0  0  0  0
  3  1  2  0  0  0  0
  4  2  2  0  0  0  0
  4 11  1  0  0  0  0
  5  3  1  0  0  0  0
  5 13  1  0  0  0  0
  5  7  1  0  0  0  0
  6  4  1  0  0  0  0
  6  7  1  0  0  0  0
  6 14  1  0  0  0  0
  7 17  1  0  0  0  0
 10  3  1  0  0  0  0
 12  5  1  0  0  0  0
 15  6  1  0  0  0  0
 16  7  1  0  0  0  0
M  END
>  <HBA>
0

>  <HBD>
0

>  <TPSA>
0.0

>  <cid>
19969

>  <dipole>
0.63

>  <excitation_energy_1>
4.774

>  <excitation_energy_2>
5.232

>  <excitation_energy_3>
5.71

>  <excitation_energy_4>
5.808

>  <homo_energy>
-5.671

>  <homo_lumo_gap>
5.159

>  <logP>
2.283

>  <lumo_energy>
-0.512

>  <melting_point>
14.93

>  <molecular_refractivity>
32.7

>  <oscillator_strength_1>
0.1887

>  <oscillator_strength_2>
0.034

>  <oscillator_strength_3>
0.0109

>  <oscillator_strength_4>
0.0143

>  <open_babel_can_smiles>
C1CC=CC=CC1

>  <mulliken_charges>
17
1   -0.121624
2   -0.121641
3   -0.117813
4   -0.117956
5   -0.296402
6   -0.296607
7   -0.263519
8   0.117685
9   0.117666
10   0.122372
11   0.122444
12   0.149319
13   0.139498
14   0.139594
15   0.149396
16   0.130098
17   0.14749

>  <lowdin_charges>
17
1   -0.17775
2   -0.18024
3   -0.163326
4   -0.161512
5   -0.274248
6   -0.276779
7   -0.270298
8   0.150984
9   0.154254
10   0.152845
11   0.150571
12   0.150894
13   0.149716
14   0.151986
15   0.151015
16   0.144576
17   0.147312

$$$$

