PCCDB-ID:  8114
public computational chemistry database (PCCDB) project, http://pccdb.org

 21 20  0  0  0  0  0  0  0  0999 V2000
    3.1641   -2.6025    1.9389 C   0  0  0  0  0  0  0  0  0  0  0  0
    3.7628   -1.7976   -4.6888 C   0  0  0  0  0  0  0  0  0  0  0  0
    3.9059   -2.7152    0.6028 C   0  0  0  0  0  0  0  0  0  0  0  0
    4.4564   -2.8860   -3.8644 C   0  0  0  0  0  0  0  0  0  0  0  0
    3.2039   -1.9350   -0.5135 C   0  0  0  0  0  0  0  0  0  0  0  0
    3.8080   -3.1190   -2.5035 C   0  0  0  0  0  0  0  0  0  0  0  0
    3.9115   -1.9252   -1.7431 O   0  0  0  0  0  0  0  0  0  0  0  0
    3.6830   -3.1565    2.7284 H   0  0  0  0  0  0  0  0  0  0  0  0
    2.1457   -3.0041    1.8664 H   0  0  0  0  0  0  0  0  0  0  0  0
    3.0850   -1.5576    2.2637 H   0  0  0  0  0  0  0  0  0  0  0  0
    4.2665   -1.6479   -5.6504 H   0  0  0  0  0  0  0  0  0  0  0  0
    3.7634   -0.8463   -4.1488 H   0  0  0  0  0  0  0  0  0  0  0  0
    2.7190   -2.0654   -4.8963 H   0  0  0  0  0  0  0  0  0  0  0  0
    3.9943   -3.7724    0.3212 H   0  0  0  0  0  0  0  0  0  0  0  0
    4.9285   -2.3295    0.7017 H   0  0  0  0  0  0  0  0  0  0  0  0
    5.5091   -2.6204   -3.7033 H   0  0  0  0  0  0  0  0  0  0  0  0
    4.4508   -3.8387   -4.4109 H   0  0  0  0  0  0  0  0  0  0  0  0
    3.1103   -0.8820   -0.2208 H   0  0  0  0  0  0  0  0  0  0  0  0
    2.1832   -2.3272   -0.6657 H   0  0  0  0  0  0  0  0  0  0  0  0
    4.3041   -3.9586   -1.9909 H   0  0  0  0  0  0  0  0  0  0  0  0
    2.7448   -3.3934   -2.6281 H   0  0  0  0  0  0  0  0  0  0  0  0
  1 10  1  0  0  0  0
  1  8  1  0  0  0  0
  2 12  1  0  0  0  0
  2  4  1  0  0  0  0
  3 15  1  0  0  0  0
  3  1  1  0  0  0  0
  4 16  1  0  0  0  0
  4  6  1  0  0  0  0
  5 18  1  0  0  0  0
  5  3  1  0  0  0  0
  6 20  1  0  0  0  0
  6  7  1  0  0  0  0
  7  5  1  0  0  0  0
  9  1  1  0  0  0  0
 11  2  1  0  0  0  0
 13  2  1  0  0  0  0
 14  3  1  0  0  0  0
 17  4  1  0  0  0  0
 19  5  1  0  0  0  0
 21  6  1  0  0  0  0
M  END
>  <HBA>
1

>  <HBD>
0

>  <TPSA>
9.23

>  <cid>
8114

>  <dipole>
1.14

>  <excitation_energy_1>
6.367

>  <excitation_energy_2>
6.709

>  <excitation_energy_3>
6.767

>  <excitation_energy_4>
6.949

>  <homo_energy>
-6.664

>  <homo_lumo_gap>
9.178

>  <logP>
1.823

>  <lumo_energy>
2.514

>  <melting_point>
-35.51

>  <molecular_refractivity>
32.04

>  <oscillator_strength_1>
0.0115

>  <oscillator_strength_2>
0.0002

>  <oscillator_strength_3>
0.0084

>  <oscillator_strength_4>
0.0212

>  <open_babel_can_smiles>
CCCOCCC

>  <mulliken_charges>
21
1   -0.450297
2   -0.440734
3   -0.27099
4   -0.265458
5   -0.005741
6   -0.009611
7   -0.47518
8   0.148628
9   0.143827
10   0.144972
11   0.139273
12   0.165772
13   0.135444
14   0.137219
15   0.145553
16   0.145571
17   0.130075
18   0.137567
19   0.113219
20   0.119498
21   0.111395

>  <lowdin_charges>
21
1   -0.443859
2   -0.444813
3   -0.28792
4   -0.277133
5   -0.129741
6   -0.129084
7   -0.275203
8   0.154662
9   0.146375
10   0.146826
11   0.148065
12   0.158229
13   0.142751
14   0.140667
15   0.146745
16   0.147034
17   0.144006
18   0.142244
19   0.122578
20   0.127284
21   0.12029

$$$$

