PCCDB-ID:  7136
public computational chemistry database (PCCDB) project, http://pccdb.org

 29 29  0  0  0  0  0  0  0  0999 V2000
    1.8938    3.9841    2.2560 C   0  0  0  0  0  0  0  0  0  0  0  0
    7.9078   -2.8385   -0.2766 C   0  0  0  0  0  0  0  0  0  0  0  0
    3.0139   -1.1433    0.5680 C   0  0  0  0  0  0  0  0  0  0  0  0
    3.2141    3.8451    2.1274 C   0  0  0  0  0  0  0  0  0  0  0  0
    3.9719    3.9586    0.8286 C   0  0  0  0  0  0  0  0  0  0  0  0
    6.1226    2.8058    0.1248 C   0  0  0  0  0  0  0  0  0  0  0  0
    6.8447    1.6554   -0.2081 C   0  0  0  0  0  0  0  0  0  0  0  0
    4.1588    1.4532    0.5020 C   0  0  0  0  0  0  0  0  0  0  0  0
    7.2819   -1.6298    0.3742 C   0  0  0  0  0  0  0  0  0  0  0  0
    4.7774    2.7140    0.4824 C   0  0  0  0  0  0  0  0  0  0  0  0
    6.2267    0.4175   -0.1863 C   0  0  0  0  0  0  0  0  0  0  0  0
    4.8684    0.3000    0.1637 C   0  0  0  0  0  0  0  0  0  0  0  0
    7.1006   -1.4677    1.5536 O   0  0  0  0  0  0  0  0  0  0  0  0
    4.3527   -0.9592    0.1331 O   0  0  0  0  0  0  0  0  0  0  0  0
    6.9358   -0.7132   -0.5892 O   0  0  0  0  0  0  0  0  0  0  0  0
    1.4007    3.8991    3.2207 H   0  0  0  0  0  0  0  0  0  0  0  0
    1.2555    4.1975    1.4005 H   0  0  0  0  0  0  0  0  0  0  0  0
    8.6922   -2.5364   -0.9769 H   0  0  0  0  0  0  0  0  0  0  0  0
    7.1455   -3.3775   -0.8498 H   0  0  0  0  0  0  0  0  0  0  0  0
    8.3180   -3.4936    0.4926 H   0  0  0  0  0  0  0  0  0  0  0  0
    2.8224   -2.2152    0.4955 H   0  0  0  0  0  0  0  0  0  0  0  0
    2.3045   -0.6033   -0.0728 H   0  0  0  0  0  0  0  0  0  0  0  0
    2.8829   -0.8180    1.6077 H   0  0  0  0  0  0  0  0  0  0  0  0
    3.8189    3.6276    3.0084 H   0  0  0  0  0  0  0  0  0  0  0  0
    4.6610    4.8128    0.8818 H   0  0  0  0  0  0  0  0  0  0  0  0
    3.2639    4.1830    0.0185 H   0  0  0  0  0  0  0  0  0  0  0  0
    6.6155    3.7740    0.1050 H   0  0  0  0  0  0  0  0  0  0  0  0
    7.8931    1.7098   -0.4850 H   0  0  0  0  0  0  0  0  0  0  0  0
    3.1160    1.3882    0.7919 H   0  0  0  0  0  0  0  0  0  0  0  0
  1 16  1  0  0  0  0
  2  9  1  0  0  0  0
  2 20  1  0  0  0  0
  3 23  1  0  0  0  0
  4  1  2  0  0  0  0
  4 24  1  0  0  0  0
  5 25  1  0  0  0  0
  5  4  1  0  0  0  0
  6 10  2  0  0  0  0
  7 11  2  0  0  0  0
  7  6  1  0  0  0  0
  8 29  1  0  0  0  0
  9 13  2  0  0  0  0
 10  8  1  0  0  0  0
 10  5  1  0  0  0  0
 11 12  1  0  0  0  0
 12  8  2  0  0  0  0
 14 12  1  0  0  0  0
 14  3  1  0  0  0  0
 15 11  1  0  0  0  0
 15  9  1  0  0  0  0
 17  1  1  0  0  0  0
 18  2  1  0  0  0  0
 19  2  1  0  0  0  0
 21  3  1  0  0  0  0
 22  3  1  0  0  0  0
 26  5  1  0  0  0  0
 27  6  1  0  0  0  0
 28  7  1  0  0  0  0
M  END
>  <HBA>
3

>  <HBD>
0

>  <TPSA>
35.53

>  <cid>
7136

>  <dipole>
1.78

>  <excitation_energy_1>
4.918

>  <excitation_energy_2>
5.264

>  <excitation_energy_3>
5.374

>  <excitation_energy_4>
5.577

>  <homo_energy>
-5.891

>  <homo_lumo_gap>
5.821

>  <logP>
2.349

>  <lumo_energy>
-0.071

>  <melting_point>
18.17

>  <molecular_refractivity>
58.54

>  <oscillator_strength_1>
0.0553

>  <oscillator_strength_2>
0.0388

>  <oscillator_strength_3>
0.0068

>  <oscillator_strength_4>
0.0068

>  <open_babel_can_smiles>
C=CCc1ccc(c(c1)OC)OC(=O)C

>  <mulliken_charges>
29
1   -0.349082
2   -0.527577
3   -0.21472
4   -0.031505
5   -0.392191
6   -0.213696
7   -0.159831
8   -0.260903
9   0.604925
10   0.174248
11   0.31557
12   0.381929
13   -0.445836
14   -0.513869
15   -0.525322
16   0.141857
17   0.135778
18   0.180148
19   0.188056
20   0.18137
21   0.170338
22   0.151969
23   0.1616
24   0.136203
25   0.153851
26   0.155317
27   0.123699
28   0.138195
29   0.139477

>  <lowdin_charges>
29
1   -0.347001
2   -0.466577
3   -0.272871
4   -0.142102
5   -0.269194
6   -0.18391
7   -0.157395
8   -0.21229
9   0.209075
10   0.002526
11   0.07437
12   0.093257
13   -0.239522
14   -0.192427
15   -0.165945
16   0.159672
17   0.154627
18   0.177407
19   0.182803
20   0.176344
21   0.161761
22   0.146792
23   0.149608
24   0.156162
25   0.158199
26   0.158036
27   0.156336
28   0.166223
29   0.166039

$$$$

