PCCDB-ID:  17206
public computational chemistry database (PCCDB) project, http://pccdb.org

 13 12  0  0  0  0  0  0  0  0999 V2000
    2.5060   -0.6156    1.4486 C   0  0  0  0  0  0  0  0  0  0  0  0
    1.9100    0.5218   -2.0032 C   0  0  0  0  0  0  0  0  0  0  0  0
    2.7262    0.1067   -0.7818 C   0  0  0  0  0  0  0  0  0  0  0  0
    2.8358    0.9069   -3.1188 N   0  0  0  0  0  0  0  0  0  0  0  0
    3.9290    0.0553   -0.7273 O   0  0  0  0  0  0  0  0  0  0  0  0
    3.1700    0.0165   -3.8912 O   0  0  0  0  0  0  0  0  0  0  0  0
    3.1930    2.0783   -3.1580 O   0  0  0  0  0  0  0  0  0  0  0  0
    1.8812   -0.1950    0.2170 O   0  0  0  0  0  0  0  0  0  0  0  0
    1.6837   -0.8170    2.1344 H   0  0  0  0  0  0  0  0  0  0  0  0
    3.1495    0.1778    1.8356 H   0  0  0  0  0  0  0  0  0  0  0  0
    3.1021   -1.5158    1.2815 H   0  0  0  0  0  0  0  0  0  0  0  0
    1.2883    1.3880   -1.7734 H   0  0  0  0  0  0  0  0  0  0  0  0
    1.2962   -0.3091   -2.3534 H   0  0  0  0  0  0  0  0  0  0  0  0
  1 10  1  0  0  0  0
  1  9  1  0  0  0  0
  2 12  1  0  0  0  0
  2  3  1  0  0  0  0
  3  5  2  0  0  0  0
  3  8  1  0  0  0  0
  4  2  1  0  0  0  0
  6  4  2  0  0  0  0
  7  4  2  0  0  0  0
  8  1  1  0  0  0  0
 11  1  1  0  0  0  0
 13  2  1  0  0  0  0
M  END
>  <HBA>
2

>  <HBD>
0

>  <TPSA>
72.12

>  <cid>
17206

>  <dipole>
5.16

>  <excitation_energy_1>
4.088

>  <excitation_energy_2>
4.471

>  <excitation_energy_3>
5.214

>  <excitation_energy_4>
5.931

>  <homo_energy>
-8.109

>  <homo_lumo_gap>
6.123

>  <logP>
-0.041

>  <lumo_energy>
-1.986

>  <melting_point>
18.63

>  <molecular_refractivity>
25.93

>  <oscillator_strength_1>
0.0

>  <oscillator_strength_2>
0.0

>  <oscillator_strength_3>
0.0118

>  <oscillator_strength_4>
0.0002

>  <open_babel_can_smiles>
COC(=O)CN(=O)=O

>  <mulliken_charges>
13
1   -0.226009
2   -0.252436
3   0.631717
4   0.472217
5   -0.43835
6   -0.365649
7   -0.366142
8   -0.446626
9   0.1766
10   0.183183
11   0.182797
12   0.224047
13   0.224652

>  <lowdin_charges>
13
1   -0.27637
2   -0.24767
3   0.188806
4   0.304221
5   -0.227848
6   -0.230008
7   -0.228559
8   -0.18291
9   0.168589
10   0.167827
11   0.166614
12   0.198464
13   0.198845

$$$$

