PCCDB-ID:  52373
public computational chemistry database (PCCDB) project, http://pccdb.org

 24 25  0  0  0  0  0  0  0  0999 V2000
    3.5969    0.6713   -0.3431 C   0  0  0  0  0  0  0  0  0  0  0  0
    2.6903    0.1004    0.7466 C   0  0  0  0  0  0  0  0  0  0  0  0
   -0.4299    2.6582    5.9867 C   0  0  0  0  0  0  0  0  0  0  0  0
    0.3698    3.4600    5.1542 C   0  0  0  0  0  0  0  0  0  0  0  0
   -0.5874    1.3007    5.7293 C   0  0  0  0  0  0  0  0  0  0  0  0
    1.0316    2.9325    4.0465 C   0  0  0  0  0  0  0  0  0  0  0  0
    0.1171   -0.5913    4.0750 C   0  0  0  0  0  0  0  0  0  0  0  0
    0.9129   -0.5547    2.9761 C   0  0  0  0  0  0  0  0  0  0  0  0
    0.0660    0.7436    4.6216 C   0  0  0  0  0  0  0  0  0  0  0  0
    0.8682    1.5681    3.7941 C   0  0  0  0  0  0  0  0  0  0  0  0
    2.2477    1.1709    1.7399 C   0  0  0  0  0  0  0  0  0  0  0  0
    1.3931    0.7514    2.7691 N   0  0  0  0  0  0  0  0  0  0  0  0
    2.6111    2.3302    1.6548 O   0  0  0  0  0  0  0  0  0  0  0  0
    3.8969   -0.1211   -1.0365 H   0  0  0  0  0  0  0  0  0  0  0  0
    4.4976    1.1157    0.0887 H   0  0  0  0  0  0  0  0  0  0  0  0
    3.0846    1.4537   -0.9097 H   0  0  0  0  0  0  0  0  0  0  0  0
    3.2057   -0.6991    1.2958 H   0  0  0  0  0  0  0  0  0  0  0  0
    1.7993   -0.3628    0.3022 H   0  0  0  0  0  0  0  0  0  0  0  0
   -0.9305    3.1063    6.8407 H   0  0  0  0  0  0  0  0  0  0  0  0
    0.4776    4.5182    5.3762 H   0  0  0  0  0  0  0  0  0  0  0  0
   -1.2055    0.6799    6.3726 H   0  0  0  0  0  0  0  0  0  0  0  0
    1.6487    3.5461    3.4053 H   0  0  0  0  0  0  0  0  0  0  0  0
   -0.3845   -1.4678    4.4629 H   0  0  0  0  0  0  0  0  0  0  0  0
    1.1899   -1.3505    2.3033 H   0  0  0  0  0  0  0  0  0  0  0  0
  1 15  1  0  0  0  0
  1  2  1  0  0  0  0
  2 17  1  0  0  0  0
  2 11  1  0  0  0  0
  3 19  1  0  0  0  0
  4 20  1  0  0  0  0
  4  3  2  0  0  0  0
  5  3  1  0  0  0  0
  5 21  1  0  0  0  0
  6  4  1  0  0  0  0
  7 23  1  0  0  0  0
  7  9  1  0  0  0  0
  8  7  2  0  0  0  0
  9  5  2  0  0  0  0
 10  6  2  0  0  0  0
 10  9  1  0  0  0  0
 11 12  1  0  0  0  0
 12  8  1  0  0  0  0
 12 10  1  0  0  0  0
 13 11  2  0  0  0  0
 14  1  1  0  0  0  0
 16  1  1  0  0  0  0
 18  2  1  0  0  0  0
 22  6  1  0  0  0  0
 24  8  1  0  0  0  0
M  END
>  <HBA>
2

>  <HBD>
0

>  <TPSA>
22.0

>  <cid>
52373

>  <dipole>
2.73

>  <excitation_energy_1>
4.35

>  <excitation_energy_2>
4.615

>  <excitation_energy_3>
4.868

>  <excitation_energy_4>
5.132

>  <homo_energy>
-5.845

>  <homo_lumo_gap>
4.933

>  <logP>
2.692

>  <lumo_energy>
-0.912

>  <melting_point>
70.88

>  <molecular_refractivity>
53.24

>  <oscillator_strength_1>
0.1574

>  <oscillator_strength_2>
0.0419

>  <oscillator_strength_3>
0.0005

>  <oscillator_strength_4>
0.1076

>  <open_babel_can_smiles>
CCC(=O)n1ccc2c1cccc2

>  <mulliken_charges>
24
1   -0.433092
2   -0.377432
3   -0.129856
4   -0.153951
5   -0.20744
6   -0.142062
7   -0.221121
8   0.04175
9   0.09892
10   0.292796
11   0.60976
12   -0.58752
13   -0.472551
14   0.142545
15   0.167193
16   0.166364
17   0.171767
18   0.1708
19   0.125983
20   0.129761
21   0.128348
22   0.17474
23   0.141444
24   0.162855

>  <lowdin_charges>
24
1   -0.439502
2   -0.308114
3   -0.16477
4   -0.158514
5   -0.16384
6   -0.169852
7   -0.196323
8   -0.127874
9   -0.020466
10   0.039155
11   0.179621
12   -0.025043
13   -0.255788
14   0.15295
15   0.162837
16   0.163111
17   0.166193
18   0.165013
19   0.15767
20   0.15718
21   0.15967
22   0.183825
23   0.16935
24   0.173509

$$$$

