PCCDB-ID:  43715
public computational chemistry database (PCCDB) project, http://pccdb.org

 29 29  0  0  1  0  0  0  0  0999 V2000
    5.0871   -0.3428    0.4004 C   0  0  0  0  0  0  0  0  0  0  0  0
    3.6933    2.1929   -4.3820 C   0  0  0  0  0  0  0  0  0  0  0  0
    0.6460    5.9533    2.8645 C   0  0  0  0  0  0  0  0  0  0  0  0
    4.9996    0.8912   -0.0943 C   0  0  0  0  0  0  0  0  0  0  0  0
    3.8841    3.8894   -0.0259 C   0  0  0  0  0  0  0  0  0  0  0  0
    2.0356    2.5630    0.7483 C   0  0  0  0  0  0  0  0  0  0  0  0
    3.4000    4.9843    0.6756 C   0  0  0  0  0  0  0  0  0  0  0  0
    1.5369    3.6537    1.4658 C   0  0  0  0  0  0  0  0  0  0  0  0
    3.1781    1.6998   -3.0493 C   0  0  0  0  0  0  0  0  0  0  0  0
    3.2093    2.6579    0.0009 C   0  0  0  0  0  0  0  0  0  0  0  0
    2.2219    4.8731    1.4306 C   0  0  0  0  0  0  0  0  0  0  0  0
    3.7565    1.4498   -0.7332 C   0  0  1  0  0  0  0  0  0  0  0  0
    2.0685    1.2581   -2.8487 O   0  0  0  0  0  0  0  0  0  0  0  0
    1.8306    6.0048    2.0857 O   0  0  0  0  0  0  0  0  0  0  0  0
    4.1333    1.8275   -2.0949 O   0  0  0  0  0  0  0  0  0  0  0  0
    5.9939   -0.7034    0.8780 H   0  0  0  0  0  0  0  0  0  0  0  0
    4.2529   -1.0396    0.3524 H   0  0  0  0  0  0  0  0  0  0  0  0
    3.7985    3.2833   -4.3521 H   0  0  0  0  0  0  0  0  0  0  0  0
    2.9875    1.9201   -5.1675 H   0  0  0  0  0  0  0  0  0  0  0  0
    4.6809    1.7729   -4.5940 H   0  0  0  0  0  0  0  0  0  0  0  0
    0.5266    6.9496    3.2942 H   0  0  0  0  0  0  0  0  0  0  0  0
    0.7273    5.2165    3.6746 H   0  0  0  0  0  0  0  0  0  0  0  0
   -0.2321    5.7164    2.2493 H   0  0  0  0  0  0  0  0  0  0  0  0
    5.8474    1.5722   -0.0315 H   0  0  0  0  0  0  0  0  0  0  0  0
    4.7900    3.9928   -0.6170 H   0  0  0  0  0  0  0  0  0  0  0  0
    1.4891    1.6233    0.7717 H   0  0  0  0  0  0  0  0  0  0  0  0
    3.9139    5.9404    0.6552 H   0  0  0  0  0  0  0  0  0  0  0  0
    0.6186    3.5436    2.0313 H   0  0  0  0  0  0  0  0  0  0  0  0
    2.9851    0.6794   -0.7988 H   0  0  0  0  0  0  0  0  0  0  0  0
  1 16  1  0  0  0  0
  2 18  1  0  0  0  0
  2  9  1  0  0  0  0
  3 21  1  0  0  0  0
  3 22  1  0  0  0  0
  4 24  1  0  0  0  0
  4  1  2  0  0  0  0
  5 10  2  0  0  0  0
  5  7  1  0  0  0  0
  6 26  1  0  0  0  0
  6  8  2  0  0  0  0
  7 11  2  0  0  0  0
  8 28  1  0  0  0  0
  9 13  2  0  0  0  0
  9 15  1  0  0  0  0
 10  6  1  0  0  0  0
 11  8  1  0  0  0  0
 11 14  1  0  0  0  0
 12 29  1  6  0  0  0
 12  4  1  0  0  0  0
 12 10  1  0  0  0  0
 14  3  1  0  0  0  0
 15 12  1  0  0  0  0
 17  1  1  0  0  0  0
 19  2  1  0  0  0  0
 20  2  1  0  0  0  0
 23  3  1  0  0  0  0
 25  5  1  0  0  0  0
 27  7  1  0  0  0  0
M  END
>  <HBA>
3

>  <HBD>
0

>  <TPSA>
35.53

>  <cid>
43715

>  <dipole>
1.48

>  <excitation_energy_1>
4.92

>  <excitation_energy_2>
5.065

>  <excitation_energy_3>
5.482

>  <excitation_energy_4>
5.583

>  <homo_energy>
-5.891

>  <homo_lumo_gap>
5.682

>  <logP>
2.485

>  <lumo_energy>
-0.21

>  <melting_point>
2.45

>  <molecular_refractivity>
57.94

>  <oscillator_strength_1>
0.0495

>  <oscillator_strength_2>
0.19

>  <oscillator_strength_3>
0.0128

>  <oscillator_strength_4>
0.032

>  <open_babel_can_smiles>
C=C[C@@H](c1ccc(cc1)OC)OC(=O)C

>  <mulliken_charges>
29
1   -0.336642
2   -0.525342
3   -0.215594
4   -0.036007
5   -0.183397
6   -0.179879
7   -0.172211
8   -0.197381
9   0.609509
10   0.155115
11   0.377628
12   -0.01821
13   -0.465579
14   -0.506202
15   -0.469499
16   0.146719
17   0.144914
18   0.183397
19   0.181278
20   0.179176
21   0.170266
22   0.152442
23   0.153841
24   0.138715
25   0.136689
26   0.135189
27   0.138592
28   0.133151
29   0.169321

>  <lowdin_charges>
29
1   -0.326412
2   -0.463123
3   -0.27788
4   -0.146796
5   -0.149462
6   -0.143971
7   -0.180548
8   -0.211636
9   0.201681
10   -0.034588
11   0.103028
12   0.008899
13   -0.26362
14   -0.19722
15   -0.200386
16   0.163312
17   0.159298
18   0.177172
19   0.175921
20   0.17514
21   0.162663
22   0.14586
23   0.146614
24   0.158943
25   0.16112
26   0.160966
27   0.166651
28   0.163167
29   0.165207

$$$$

