PCCDB-ID:  7595
public computational chemistry database (PCCDB) project, http://pccdb.org

 28 29  0  0  0  0  0  0  0  0999 V2000
   -0.1399   -2.2032   -3.1308 C   0  0  0  0  0  0  0  0  0  0  0  0
    8.2214    0.1819   -1.4138 C   0  0  0  0  0  0  0  0  0  0  0  0
    1.0027   -2.9494   -2.8405 C   0  0  0  0  0  0  0  0  0  0  0  0
   -0.5108   -1.1607   -2.2765 C   0  0  0  0  0  0  0  0  0  0  0  0
    7.2762    0.2598   -2.4378 C   0  0  0  0  0  0  0  0  0  0  0  0
    7.8158   -0.2498   -0.1506 C   0  0  0  0  0  0  0  0  0  0  0  0
    1.7748   -2.6546   -1.7154 C   0  0  0  0  0  0  0  0  0  0  0  0
    0.2517   -0.8631   -1.1498 C   0  0  0  0  0  0  0  0  0  0  0  0
    5.9485   -0.0810   -2.1967 C   0  0  0  0  0  0  0  0  0  0  0  0
    6.4909   -0.6042    0.1040 C   0  0  0  0  0  0  0  0  0  0  0  0
    1.4140   -1.5983   -0.8556 C   0  0  0  0  0  0  0  0  0  0  0  0
    5.5401   -0.5142   -0.9240 C   0  0  0  0  0  0  0  0  0  0  0  0
    3.3764   -1.0226    0.3137 C   0  0  0  0  0  0  0  0  0  0  0  0
    2.1233   -1.3040    0.3202 N   0  0  0  0  0  0  0  0  0  0  0  0
    4.1821   -0.8751   -0.7857 N   0  0  0  0  0  0  0  0  0  0  0  0
    3.9976   -0.8083    1.4951 O   0  0  0  0  0  0  0  0  0  0  0  0
   -0.7403   -2.4362   -4.0057 H   0  0  0  0  0  0  0  0  0  0  0  0
    9.2573    0.4512   -1.5979 H   0  0  0  0  0  0  0  0  0  0  0  0
    1.2949   -3.7730   -3.4873 H   0  0  0  0  0  0  0  0  0  0  0  0
   -1.4035   -0.5772   -2.4876 H   0  0  0  0  0  0  0  0  0  0  0  0
    7.5682    0.5924   -3.4303 H   0  0  0  0  0  0  0  0  0  0  0  0
    8.5402   -0.3216    0.6565 H   0  0  0  0  0  0  0  0  0  0  0  0
    2.6453   -3.2606   -1.4776 H   0  0  0  0  0  0  0  0  0  0  0  0
   -0.0359   -0.0604   -0.4773 H   0  0  0  0  0  0  0  0  0  0  0  0
    5.2156   -0.0062   -2.9975 H   0  0  0  0  0  0  0  0  0  0  0  0
    6.1981   -0.9449    1.0870 H   0  0  0  0  0  0  0  0  0  0  0  0
    3.6700   -0.9583   -1.6556 H   0  0  0  0  0  0  0  0  0  0  0  0
    3.2963   -0.9350    2.1604 H   0  0  0  0  0  0  0  0  0  0  0  0
  1  3  2  0  0  0  0
  1  4  1  0  0  0  0
  2  6  2  0  0  0  0
  3  7  1  0  0  0  0
  4  8  2  0  0  0  0
  5  9  2  0  0  0  0
  5  2  1  0  0  0  0
  6 10  1  0  0  0  0
  6 22  1  0  0  0  0
  7 23  1  0  0  0  0
  7 11  2  0  0  0  0
  8 11  1  0  0  0  0
  8 24  1  0  0  0  0
  9 12  1  0  0  0  0
 10 26  1  0  0  0  0
 11 14  1  0  0  0  0
 12 15  1  0  0  0  0
 12 10  2  0  0  0  0
 13 14  2  0  0  0  0
 13 16  1  0  0  0  0
 15 13  1  0  0  0  0
 16 28  1  0  0  0  0
 17  1  1  0  0  0  0
 18  2  1  0  0  0  0
 19  3  1  0  0  0  0
 20  4  1  0  0  0  0
 21  5  1  0  0  0  0
 25  9  1  0  0  0  0
 27 15  1  0  0  0  0
M  END
>  <HBA>
3

>  <HBD>
2

>  <TPSA>
41.13

>  <cid>
7595

>  <dipole>
1.09

>  <excitation_energy_1>
4.562

>  <excitation_energy_2>
4.652

>  <excitation_energy_3>
4.724

>  <excitation_energy_4>
4.984

>  <homo_energy>
-5.529

>  <homo_lumo_gap>
5.233

>  <logP>
3.477

>  <lumo_energy>
-0.297

>  <melting_point>
130.7

>  <molecular_refractivity>
65.16

>  <oscillator_strength_1>
0.511

>  <oscillator_strength_2>
0.0317

>  <oscillator_strength_3>
0.0079

>  <oscillator_strength_4>
0.0068

>  <open_babel_can_smiles>
O/C(=N/c1ccccc1)/Nc1ccccc1

>  <mulliken_charges>
28
1   -0.13201
2   -0.129708
3   -0.137275
4   -0.137653
5   -0.131584
6   -0.142039
7   -0.179563
8   -0.146156
9   -0.199494
10   -0.154564
11   0.227925
12   0.358608
13   0.707334
14   -0.567297
15   -0.741683
16   -0.600361
17   0.125803
18   0.128209
19   0.129123
20   0.129148
21   0.132094
22   0.132074
23   0.134802
24   0.130348
25   0.129088
26   0.163866
27   0.348471
28   0.422495

>  <lowdin_charges>
28
1   -0.173979
2   -0.171431
3   -0.154733
4   -0.151288
5   -0.146524
6   -0.147378
7   -0.200086
8   -0.174293
9   -0.191262
10   -0.184295
11   0.042332
12   0.063759
13   0.178649
14   -0.262516
15   -0.242132
16   -0.355797
17   0.156988
18   0.156938
19   0.157793
20   0.157688
21   0.158982
22   0.160026
23   0.159793
24   0.162736
25   0.15715
26   0.175574
27   0.297075
28   0.370233

$$$$

