PCCDB-ID:  8471
public computational chemistry database (PCCDB) project, http://pccdb.org

 22 21  0  0  0  0  0  0  0  0999 V2000
    3.3713    0.6485   -1.8942 C   0  0  0  0  0  0  0  0  0  0  0  0
    2.5424   -3.5853   -1.2440 C   0  0  0  0  0  0  0  0  0  0  0  0
    6.4714   -1.2174   -0.5746 C   0  0  0  0  0  0  0  0  0  0  0  0
    3.7621   -0.8175   -2.0943 C   0  0  0  0  0  0  0  0  0  0  0  0
    3.9446   -3.0056   -1.0332 C   0  0  0  0  0  0  0  0  0  0  0  0
    5.0476   -1.0759   -0.0051 C   0  0  0  0  0  0  0  0  0  0  0  0
    3.9396   -1.5521   -0.8398 N   0  0  0  0  0  0  0  0  0  0  0  0
    3.1244    1.1058   -2.8591 H   0  0  0  0  0  0  0  0  0  0  0  0
    4.1792    1.2405   -1.4509 H   0  0  0  0  0  0  0  0  0  0  0  0
    2.4961    0.7238   -1.2400 H   0  0  0  0  0  0  0  0  0  0  0  0
    2.5920   -4.6779   -1.3218 H   0  0  0  0  0  0  0  0  0  0  0  0
    2.0720   -3.2140   -2.1610 H   0  0  0  0  0  0  0  0  0  0  0  0
    1.8927   -3.3231   -0.4026 H   0  0  0  0  0  0  0  0  0  0  0  0
    7.2046   -0.8486    0.1524 H   0  0  0  0  0  0  0  0  0  0  0  0
    6.6035   -0.6415   -1.4973 H   0  0  0  0  0  0  0  0  0  0  0  0
    6.7168   -2.2628   -0.7939 H   0  0  0  0  0  0  0  0  0  0  0  0
    4.6565   -0.8769   -2.7453 H   0  0  0  0  0  0  0  0  0  0  0  0
    2.9568   -1.3115   -2.6477 H   0  0  0  0  0  0  0  0  0  0  0  0
    4.6006   -3.3159   -1.8695 H   0  0  0  0  0  0  0  0  0  0  0  0
    4.3697   -3.4564   -0.1284 H   0  0  0  0  0  0  0  0  0  0  0  0
    4.8614   -0.0239    0.2395 H   0  0  0  0  0  0  0  0  0  0  0  0
    4.9880   -1.6201    0.9460 H   0  0  0  0  0  0  0  0  0  0  0  0
  1  9  1  0  0  0  0
  1 10  1  0  0  0  0
  2  5  1  0  0  0  0
  2 13  1  0  0  0  0
  3  6  1  0  0  0  0
  3 14  1  0  0  0  0
  4  1  1  0  0  0  0
  4  7  1  0  0  0  0
  5  7  1  0  0  0  0
  5 20  1  0  0  0  0
  6 21  1  0  0  0  0
  6 22  1  0  0  0  0
  7  6  1  0  0  0  0
  8  1  1  0  0  0  0
 11  2  1  0  0  0  0
 12  2  1  0  0  0  0
 15  3  1  0  0  0  0
 16  3  1  0  0  0  0
 17  4  1  0  0  0  0
 18  4  1  0  0  0  0
 19  5  1  0  0  0  0
M  END
>  <HBA>
1

>  <HBD>
0

>  <TPSA>
3.24

>  <cid>
8471

>  <dipole>
0.55

>  <excitation_energy_1>
5.029

>  <excitation_energy_2>
5.423

>  <excitation_energy_3>
5.466

>  <excitation_energy_4>
5.517

>  <homo_energy>
-5.399

>  <homo_lumo_gap>
7.652

>  <logP>
1.348

>  <lumo_energy>
2.253

>  <melting_point>
-23.93

>  <molecular_refractivity>
33.85

>  <oscillator_strength_1>
0.0232

>  <oscillator_strength_2>
0.0191

>  <oscillator_strength_3>
0.012

>  <oscillator_strength_4>
0.0075

>  <open_babel_can_smiles>
CCN(CC)CC

>  <mulliken_charges>
22
1   -0.452137
2   -0.439709
3   -0.457276
4   -0.113551
5   -0.114799
6   -0.134968
7   -0.370121
8   0.140313
9   0.145788
10   0.155015
11   0.136677
12   0.144893
13   0.152836
14   0.140858
15   0.148214
16   0.147431
17   0.111077
18   0.137843
19   0.11278
20   0.132505
21   0.140171
22   0.136161

>  <lowdin_charges>
22
1   -0.452183
2   -0.448734
3   -0.466957
4   -0.200399
5   -0.197471
6   -0.201777
7   -0.192677
8   0.15141
9   0.148184
10   0.154799
11   0.146801
12   0.147229
13   0.153998
14   0.152938
15   0.149031
16   0.147964
17   0.115956
18   0.14611
19   0.119049
20   0.143547
21   0.141852
22   0.141329

$$$$

