PCCDB-ID:  20051
public computational chemistry database (PCCDB) project, http://pccdb.org

 14 14  0  0  1  0  0  0  0  0999 V2000
    0.9619   -0.0028    0.0748 C   0  0  0  0  0  0  0  0  0  0  0  0
    3.0026    1.1582   -1.0681 C   0  0  0  0  0  0  0  0  0  0  0  0
    2.4811    0.1253   -0.0602 C   0  0  2  0  0  0  0  0  0  0  0  0
    4.1692    0.4680   -1.7557 C   0  0  0  0  0  0  0  0  0  0  0  0
    3.1314   -1.1743   -0.5303 C   0  0  0  0  0  0  0  0  0  0  0  0
    5.0033    0.9270   -2.4791 O   0  0  0  0  0  0  0  0  0  0  0  0
    2.8814   -2.2980   -0.2029 O   0  0  0  0  0  0  0  0  0  0  0  0
    4.1422   -0.8877   -1.4410 O   0  0  0  0  0  0  0  0  0  0  0  0
    0.5335    0.9138    0.4921 H   0  0  0  0  0  0  0  0  0  0  0  0
    0.7094   -0.8380    0.7337 H   0  0  0  0  0  0  0  0  0  0  0  0
    0.4954   -0.1863   -0.8995 H   0  0  0  0  0  0  0  0  0  0  0  0
    3.3320    2.1051   -0.6339 H   0  0  0  0  0  0  0  0  0  0  0  0
    2.2525    1.3937   -1.8340 H   0  0  0  0  0  0  0  0  0  0  0  0
    2.9115    0.3271    0.9309 H   0  0  0  0  0  0  0  0  0  0  0  0
  1  9  1  0  0  0  0
  1 10  1  0  0  0  0
  2 12  1  0  0  0  0
  2  3  1  0  0  0  0
  3  1  1  0  0  0  0
  3 14  1  1  0  0  0
  4  8  1  0  0  0  0
  4  2  1  0  0  0  0
  5  7  2  0  0  0  0
  5  3  1  0  0  0  0
  6  4  2  0  0  0  0
  8  5  1  0  0  0  0
 11  1  1  0  0  0  0
 13  2  1  0  0  0  0
M  END
>  <HBA>
3

>  <HBD>
0

>  <TPSA>
43.37

>  <cid>
20051

>  <dipole>
4.45

>  <excitation_energy_1>
5.24

>  <excitation_energy_2>
5.63

>  <excitation_energy_3>
6.465

>  <excitation_energy_4>
6.841

>  <homo_energy>
-7.725

>  <homo_lumo_gap>
6.86

>  <logP>
0.096

>  <lumo_energy>
-0.865

>  <melting_point>
30.51

>  <molecular_refractivity>
25.52

>  <oscillator_strength_1>
0.001

>  <oscillator_strength_2>
0.0

>  <oscillator_strength_3>
0.0005

>  <oscillator_strength_4>
0.0006

>  <open_babel_can_smiles>
O=C1C[C@H](C(=O)O1)C

>  <mulliken_charges>
14
1   -0.451897
2   -0.391894
3   -0.203688
4   0.610667
5   0.624696
6   -0.418701
7   -0.426328
8   -0.438664
9   0.160153
10   0.184349
11   0.15986
12   0.198466
13   0.200544
14   0.192436

>  <lowdin_charges>
14
1   -0.437132
2   -0.312416
3   -0.15861
4   0.208865
5   0.202708
6   -0.194686
7   -0.196477
8   -0.149621
9   0.160104
10   0.173426
11   0.157252
12   0.184006
13   0.185293
14   0.177287

$$$$

