PCCDB-ID:  12807
public computational chemistry database (PCCDB) project, http://pccdb.org

 21 21  0  0  0  0  0  0  0  0999 V2000
    0.4888   -1.3973    0.5245 C   0  0  0  0  0  0  0  0  0  0  0  0
    1.3279   -4.0137   -4.2723 C   0  0  0  0  0  0  0  0  0  0  0  0
    0.4647   -3.0774   -3.6991 C   0  0  0  0  0  0  0  0  0  0  0  0
    2.6031   -4.2002   -3.7336 C   0  0  0  0  0  0  0  0  0  0  0  0
    0.8612   -2.3452   -2.5820 C   0  0  0  0  0  0  0  0  0  0  0  0
    3.0061   -3.4594   -2.6264 C   0  0  0  0  0  0  0  0  0  0  0  0
    2.6324   -1.7995   -0.8494 C   0  0  0  0  0  0  0  0  0  0  0  0
    1.9440   -1.2943    0.1914 C   0  0  0  0  0  0  0  0  0  0  0  0
    2.1356   -2.5361   -2.0143 C   0  0  0  0  0  0  0  0  0  0  0  0
    2.7447   -0.5509    1.1947 N   0  0  0  0  0  0  0  0  0  0  0  0
    2.1210   -0.0502    2.1335 O   0  0  0  0  0  0  0  0  0  0  0  0
    3.9648   -0.4566    1.0492 O   0  0  0  0  0  0  0  0  0  0  0  0
    0.0256   -2.1942   -0.0606 H   0  0  0  0  0  0  0  0  0  0  0  0
   -0.0453   -0.4601    0.3265 H   0  0  0  0  0  0  0  0  0  0  0  0
    0.3597   -1.6150    1.5873 H   0  0  0  0  0  0  0  0  0  0  0  0
    1.0141   -4.5837   -5.1424 H   0  0  0  0  0  0  0  0  0  0  0  0
   -0.5189   -2.9094   -4.1288 H   0  0  0  0  0  0  0  0  0  0  0  0
    3.2859   -4.9169   -4.1812 H   0  0  0  0  0  0  0  0  0  0  0  0
    0.1939   -1.5938   -2.1745 H   0  0  0  0  0  0  0  0  0  0  0  0
    4.0023   -3.5995   -2.2145 H   0  0  0  0  0  0  0  0  0  0  0  0
    3.7090   -1.6591   -0.8033 H   0  0  0  0  0  0  0  0  0  0  0  0
  1 15  1  0  0  0  0
  2  4  2  0  0  0  0
  2  3  1  0  0  0  0
  3  5  2  0  0  0  0
  4  6  1  0  0  0  0
  5 19  1  0  0  0  0
  5  9  1  0  0  0  0
  6 20  1  0  0  0  0
  6  9  2  0  0  0  0
  7 21  1  0  0  0  0
  7  8  2  0  0  0  0
  8  1  1  0  0  0  0
  8 10  1  0  0  0  0
  9  7  1  0  0  0  0
 10 11  2  0  0  0  0
 12 10  2  0  0  0  0
 13  1  1  0  0  0  0
 14  1  1  0  0  0  0
 16  2  1  0  0  0  0
 17  3  1  0  0  0  0
 18  4  1  0  0  0  0
M  END
>  <HBA>
0

>  <HBD>
0

>  <TPSA>
45.82

>  <cid>
12807

>  <dipole>
5.24

>  <excitation_energy_1>
3.604

>  <excitation_energy_2>
3.867

>  <excitation_energy_3>
4.145

>  <excitation_energy_4>
4.198

>  <homo_energy>
-6.765

>  <homo_lumo_gap>
4.332

>  <logP>
2.847

>  <lumo_energy>
-2.433

>  <melting_point>
60.35

>  <molecular_refractivity>
49.45

>  <oscillator_strength_1>
0.0002

>  <oscillator_strength_2>
0.4274

>  <oscillator_strength_3>
0.0071

>  <oscillator_strength_4>
0.0142

>  <open_babel_can_smiles>
C/C(=C\c1ccccc1)/N(=O)=O

>  <mulliken_charges>
21
1   -0.523415
2   -0.121782
3   -0.133795
4   -0.13129
5   -0.177265
6   -0.175269
7   -0.241028
8   0.273048
9   0.161535
10   0.417941
11   -0.394229
12   -0.406718
13   0.168014
14   0.179692
15   0.192847
16   0.141257
17   0.141194
18   0.142144
19   0.147718
20   0.144619
21   0.194781

>  <lowdin_charges>
21
1   -0.448214
2   -0.143408
3   -0.151541
4   -0.152446
5   -0.154697
6   -0.145711
7   -0.125923
8   0.002277
9   -0.007067
10   0.30026
11   -0.251481
12   -0.257269
13   0.170256
14   0.172398
15   0.179981
16   0.16396
17   0.1628
18   0.165246
19   0.167365
20   0.163827
21   0.189389

$$$$

