PCCDB-ID:  34900
public computational chemistry database (PCCDB) project, http://pccdb.org

 26 26  0  0  1  0  0  0  0  0999 V2000
    1.1223    0.4020    0.3472 C   0  0  0  0  0  0  0  0  0  0  0  0
    1.3736   -4.6943    2.3333 C   0  0  0  0  0  0  0  0  0  0  0  0
    4.6934   -1.0184    5.9136 C   0  0  0  0  0  0  0  0  0  0  0  0
    2.6029   -0.0173    0.2830 C   0  0  0  0  0  0  0  0  0  0  0  0
    2.8677   -4.3611    2.4825 C   0  0  0  0  0  0  0  0  0  0  0  0
    2.9864   -0.8863    1.4528 C   0  0  2  0  0  0  0  0  0  0  0  0
    3.1207   -2.8766    2.5516 C   0  0  0  0  0  0  0  0  0  0  0  0
    3.8465   -1.0110    3.7209 C   0  0  0  0  0  0  0  0  0  0  0  0
    4.3200   -0.3308    4.6903 N   0  0  0  0  0  0  0  0  0  0  0  0
    2.7780   -2.1780    1.4032 N   0  0  0  0  0  0  0  0  0  0  0  0
    3.5011   -0.2874    2.5474 N   0  0  0  0  0  0  0  0  0  0  0  0
    3.6188   -2.3814    3.6507 N   0  0  0  0  0  0  0  0  0  0  0  0
    0.8620    1.0070   -0.5272 H   0  0  0  0  0  0  0  0  0  0  0  0
    0.9121    0.9940    1.2448 H   0  0  0  0  0  0  0  0  0  0  0  0
    0.4769   -0.4813    0.3608 H   0  0  0  0  0  0  0  0  0  0  0  0
    1.2298   -5.7776    2.2603 H   0  0  0  0  0  0  0  0  0  0  0  0
    0.9627   -4.2291    1.4324 H   0  0  0  0  0  0  0  0  0  0  0  0
    0.8033   -4.3350    3.1973 H   0  0  0  0  0  0  0  0  0  0  0  0
    5.7554   -0.8326    6.1214 H   0  0  0  0  0  0  0  0  0  0  0  0
    4.5231   -2.1010    5.8872 H   0  0  0  0  0  0  0  0  0  0  0  0
    4.1289   -0.5916    6.7532 H   0  0  0  0  0  0  0  0  0  0  0  0
    3.2475    0.8698    0.2486 H   0  0  0  0  0  0  0  0  0  0  0  0
    2.7827   -0.5983   -0.6257 H   0  0  0  0  0  0  0  0  0  0  0  0
    3.4102   -4.7561    1.6134 H   0  0  0  0  0  0  0  0  0  0  0  0
    3.2820   -4.8219    3.3830 H   0  0  0  0  0  0  0  0  0  0  0  0
    3.6693    0.7116    2.5832 H   0  0  0  0  0  0  0  0  0  0  0  0
  1 15  1  0  0  0  0
  1 14  1  0  0  0  0
  2  5  1  0  0  0  0
  2 18  1  0  0  0  0
  3 19  1  0  0  0  0
  3 21  1  0  0  0  0
  4  1  1  0  0  0  0
  5  7  1  0  0  0  0
  5 25  1  0  0  0  0
  6  4  1  1  0  0  0
  6 11  1  0  0  0  0
  7 12  1  0  0  0  0
  8  9  1  0  0  0  0
  9  3  1  0  0  0  0
 10  6  1  0  0  0  0
 10  7  2  0  0  0  0
 11 26  1  0  0  0  0
 11  8  1  0  0  0  0
 12  8  2  0  0  0  0
 13  1  1  0  0  0  0
 16  2  1  0  0  0  0
 17  2  1  0  0  0  0
 20  3  1  0  0  0  0
 22  4  1  0  0  0  0
 23  4  1  0  0  0  0
 24  5  1  0  0  0  0
M  RAD  2   6   2   9   2
M  END
>  <HBA>
4

>  <HBD>
1

>  <TPSA>
50.7

>  <cid>
34900

>  <dipole>
3.07

>  <excitation_energy_1>
3.8

>  <excitation_energy_2>
4.198

>  <excitation_energy_3>
4.689

>  <excitation_energy_4>
5.19

>  <homo_energy>
-5.793

>  <homo_lumo_gap>
4.65

>  <logP>
1.111

>  <lumo_energy>
-1.143

>  <melting_point>
92.74

>  <molecular_refractivity>
48.68

>  <oscillator_strength_1>
0.0242

>  <oscillator_strength_2>
0.003

>  <oscillator_strength_3>
0.0

>  <oscillator_strength_4>
0.0077

>  <open_babel_can_smiles>
CC[C]1NC(=NC(=N1)CC)[N]C

>  <mulliken_charges>
26
1   -0.447318
2   -0.451253
3   -0.321084
4   -0.334036
5   -0.307863
6   0.539925
7   0.42551
8   0.646309
9   -0.505195
10   -0.511203
11   -0.638423
12   -0.496303
13   0.160438
14   0.154446
15   0.17609
16   0.147904
17   0.166144
18   0.151508
19   0.145041
20   0.161554
21   0.144688
22   0.148119
23   0.183783
24   0.156647
25   0.16126
26   0.343315

>  <lowdin_charges>
26
1   -0.43776
2   -0.439233
3   -0.355095
4   -0.28036
5   -0.277107
6   0.135342
7   0.118971
8   0.107431
9   -0.253515
10   -0.242869
11   -0.1968
12   -0.20897
13   0.159929
14   0.153474
15   0.165084
16   0.151022
17   0.159166
18   0.152026
19   0.145576
20   0.146114
21   0.147753
22   0.152783
23   0.175685
24   0.161611
25   0.161331
26   0.298411

$$$$

