PCCDB-ID:  48893
public computational chemistry database (PCCDB) project, http://pccdb.org

 25 25  0  0  1  0  0  0  0  0999 V2000
    2.6007    0.4519   -1.7477 C   0  0  0  0  0  0  0  0  0  0  0  0
    6.8594    1.5487   -0.2233 C   0  0  0  0  0  0  0  0  0  0  0  0
    7.6479    0.4033   -0.1305 C   0  0  0  0  0  0  0  0  0  0  0  0
    5.4895    1.4650    0.0374 C   0  0  0  0  0  0  0  0  0  0  0  0
    7.0662   -0.8161    0.2197 C   0  0  0  0  0  0  0  0  0  0  0  0
    2.5494   -0.4225   -0.4916 C   0  0  1  0  0  0  0  0  0  0  0  0
    4.8819    0.2563    0.3889 C   0  0  0  0  0  0  0  0  0  0  0  0
    5.6953   -0.8883    0.4752 C   0  0  0  0  0  0  0  0  0  0  0  0
    3.3931    0.1587    0.6793 C   0  0  1  0  0  0  0  0  0  0  0  0
    1.1457   -0.6363   -0.1172 N   0  0  0  0  0  0  0  0  0  0  0  0
    5.0816   -2.0674    0.8234 O   0  0  0  0  0  0  0  0  0  0  0  0
    2.8210    1.4309    0.9967 O   0  0  0  0  0  0  0  0  0  0  0  0
    3.6253    0.5693   -2.1138 H   0  0  0  0  0  0  0  0  0  0  0  0
    2.1975    1.4493   -1.5415 H   0  0  0  0  0  0  0  0  0  0  0  0
    1.9944   -0.0071   -2.5339 H   0  0  0  0  0  0  0  0  0  0  0  0
    7.3041    2.5020   -0.4940 H   0  0  0  0  0  0  0  0  0  0  0  0
    8.7153    0.4500   -0.3282 H   0  0  0  0  0  0  0  0  0  0  0  0
    4.8645    2.3504   -0.0270 H   0  0  0  0  0  0  0  0  0  0  0  0
    7.6764   -1.7151    0.2955 H   0  0  0  0  0  0  0  0  0  0  0  0
    2.9774   -1.4052   -0.7220 H   0  0  0  0  0  0  0  0  0  0  0  0
    3.2575   -0.5293    1.5286 H   0  0  0  0  0  0  0  0  0  0  0  0
    0.7760    0.2478    0.2339 H   0  0  0  0  0  0  0  0  0  0  0  0
    1.0991   -1.2860    0.6684 H   0  0  0  0  0  0  0  0  0  0  0  0
    5.7492   -2.7700    0.8571 H   0  0  0  0  0  0  0  0  0  0  0  0
    3.2600    1.7591    1.7966 H   0  0  0  0  0  0  0  0  0  0  0  0
  1 14  1  0  0  0  0
  1  6  1  0  0  0  0
  2  3  2  0  0  0  0
  2  4  1  0  0  0  0
  3  5  1  0  0  0  0
  4  7  2  0  0  0  0
  5 19  1  0  0  0  0
  5  8  2  0  0  0  0
  6 20  1  6  0  0  0
  6 10  1  0  0  0  0
  6  9  1  0  0  0  0
  7  8  1  0  0  0  0
  7  9  1  0  0  0  0
  8 11  1  0  0  0  0
  9 12  1  0  0  0  0
  9 21  1  1  0  0  0
 10 22  1  0  0  0  0
 10 23  1  0  0  0  0
 11 24  1  0  0  0  0
 12 25  1  0  0  0  0
 13  1  1  0  0  0  0
 15  1  1  0  0  0  0
 16  2  1  0  0  0  0
 17  3  1  0  0  0  0
 18  4  1  0  0  0  0
M  END
>  <HBA>
3

>  <HBD>
3

>  <TPSA>
66.48

>  <cid>
48893

>  <dipole>
3.59

>  <excitation_energy_1>
4.921

>  <excitation_energy_2>
5.076

>  <excitation_energy_3>
5.261

>  <excitation_energy_4>
5.373

>  <homo_energy>
-5.81

>  <homo_lumo_gap>
5.725

>  <logP>
1.473

>  <lumo_energy>
-0.084

>  <melting_point>
119.66

>  <molecular_refractivity>
46.91

>  <oscillator_strength_1>
0.0649

>  <oscillator_strength_2>
0.0078

>  <oscillator_strength_3>
0.0426

>  <oscillator_strength_4>
0.0135

>  <open_babel_can_smiles>
C[C@@H]([C@@H](c1ccccc1O)O)N

>  <mulliken_charges>
25
1   -0.446093
2   -0.131442
3   -0.135398
4   -0.199783
5   -0.188454
6   0.015852
7   0.078856
8   0.297395
9   0.074902
10   -0.709023
11   -0.650666
12   -0.636965
13   0.145285
14   0.152517
15   0.154341
16   0.127228
17   0.130632
18   0.141627
19   0.116965
20   0.14539
21   0.122742
22   0.303434
23   0.287421
24   0.409555
25   0.393683

>  <lowdin_charges>
25
1   -0.451137
2   -0.177364
3   -0.146354
4   -0.159022
5   -0.213511
6   -0.069786
7   -0.056002
8   0.094515
9   -0.018282
10   -0.547323
11   -0.386482
12   -0.462541
13   0.151707
14   0.152655
15   0.158855
16   0.157781
17   0.157051
18   0.165497
19   0.152966
20   0.14804
21   0.136104
22   0.256621
23   0.249559
24   0.359803
25   0.34665

$$$$

