PCCDB-ID:  69240
public computational chemistry database (PCCDB) project, http://pccdb.org

 21 20  0  0  0  0  0  0  0  0999 V2000
    0.5686    0.1457    0.2021 C   0  0  0  0  0  0  0  0  0  0  0  0
    5.0685   -0.9743   -3.4199 C   0  0  0  0  0  0  0  0  0  0  0  0
    2.8480    3.2657    1.7991 C   0  0  0  0  0  0  0  0  0  0  0  0
    2.6680   -0.9630   -0.6093 C   0  0  0  0  0  0  0  0  0  0  0  0
    1.9004    0.1302    0.0878 C   0  0  0  0  0  0  0  0  0  0  0  0
    3.3850   -0.4617   -1.8568 C   0  0  0  0  0  0  0  0  0  0  0  0
    2.7595    1.1971    0.6835 C   0  0  0  0  0  0  0  0  0  0  0  0
    3.1243    0.5556   -2.4583 O   0  0  0  0  0  0  0  0  0  0  0  0
    3.9746    1.1407    0.6994 O   0  0  0  0  0  0  0  0  0  0  0  0
    4.3425   -1.3356   -2.2335 O   0  0  0  0  0  0  0  0  0  0  0  0
    2.0570    2.2204    1.2133 O   0  0  0  0  0  0  0  0  0  0  0  0
   -0.0430   -0.6439   -0.2262 H   0  0  0  0  0  0  0  0  0  0  0  0
    0.0539    0.9459    0.7218 H   0  0  0  0  0  0  0  0  0  0  0  0
    5.7856   -1.7799   -3.5805 H   0  0  0  0  0  0  0  0  0  0  0  0
    5.5857   -0.0223   -3.2753 H   0  0  0  0  0  0  0  0  0  0  0  0
    4.3916   -0.8851   -4.2740 H   0  0  0  0  0  0  0  0  0  0  0  0
    2.1324    4.0017    2.1666 H   0  0  0  0  0  0  0  0  0  0  0  0
    3.5085    3.7107    1.0503 H   0  0  0  0  0  0  0  0  0  0  0  0
    3.4548    2.8752    2.6206 H   0  0  0  0  0  0  0  0  0  0  0  0
    1.9898   -1.7691   -0.9139 H   0  0  0  0  0  0  0  0  0  0  0  0
    3.4166   -1.4038    0.0564 H   0  0  0  0  0  0  0  0  0  0  0  0
  1 13  1  0  0  0  0
  2 15  1  0  0  0  0
  2 10  1  0  0  0  0
  3 17  1  0  0  0  0
  3 19  1  0  0  0  0
  4 21  1  0  0  0  0
  4  5  1  0  0  0  0
  5  1  2  0  0  0  0
  5  7  1  0  0  0  0
  6  4  1  0  0  0  0
  7  9  2  0  0  0  0
  7 11  1  0  0  0  0
  8  6  2  0  0  0  0
 10  6  1  0  0  0  0
 11  3  1  0  0  0  0
 12  1  1  0  0  0  0
 14  2  1  0  0  0  0
 16  2  1  0  0  0  0
 18  3  1  0  0  0  0
 20  4  1  0  0  0  0
M  END
>  <HBA>
4

>  <HBD>
0

>  <TPSA>
52.6

>  <cid>
69240

>  <dipole>
1.3

>  <excitation_energy_1>
4.831

>  <excitation_energy_2>
5.282

>  <excitation_energy_3>
5.889

>  <excitation_energy_4>
6.006

>  <homo_energy>
-7.257

>  <homo_lumo_gap>
6.125

>  <logP>
0.279

>  <lumo_energy>
-1.132

>  <melting_point>
-19.52

>  <molecular_refractivity>
37.86

>  <oscillator_strength_1>
0.0001

>  <oscillator_strength_2>
0.0083

>  <oscillator_strength_3>
0.0005

>  <oscillator_strength_4>
0.1733

>  <open_babel_can_smiles>
COC(=O)CC(=C)C(=O)OC

>  <mulliken_charges>
21
1   -0.375943
2   -0.217703
3   -0.217694
4   -0.440091
5   0.162416
6   0.638485
7   0.612906
8   -0.474845
9   -0.492832
10   -0.450064
11   -0.465029
12   0.152388
13   0.177411
14   0.163582
15   0.175505
16   0.167838
17   0.164182
18   0.176036
19   0.169673
20   0.177399
21   0.19638

>  <lowdin_charges>
21
1   -0.290541
2   -0.278859
3   -0.279832
4   -0.296229
5   -0.020653
6   0.20013
7   0.194298
8   -0.260618
9   -0.266234
10   -0.190713
11   -0.184825
12   0.166183
13   0.17916
14   0.16088
15   0.161992
16   0.158547
17   0.161667
18   0.16388
19   0.159888
20   0.175918
21   0.185961

$$$$

