PCCDB-ID:  8160
public computational chemistry database (PCCDB) project, http://pccdb.org

 27 26  0  0  0  0  0  0  0  0999 V2000
    0.8879    1.9286   -1.5071 C   0  0  0  0  0  0  0  0  0  0  0  0
   10.5372    4.4778   -0.2430 C   0  0  0  0  0  0  0  0  0  0  0  0
    2.4160    1.8400   -1.5586 C   0  0  0  0  0  0  0  0  0  0  0  0
    3.0333    1.3895   -0.2287 C   0  0  0  0  0  0  0  0  0  0  0  0
    4.5552    1.3157   -0.2527 C   0  0  0  0  0  0  0  0  0  0  0  0
    6.4857    2.6562   -0.5381 C   0  0  0  0  0  0  0  0  0  0  0  0
    6.8795    4.1185   -0.7129 C   0  0  0  0  0  0  0  0  0  0  0  0
    9.0895    4.3154    0.1576 C   0  0  0  0  0  0  0  0  0  0  0  0
    8.6760    4.2580    1.2942 O   0  0  0  0  0  0  0  0  0  0  0  0
    5.0752    2.6182   -0.4769 O   0  0  0  0  0  0  0  0  0  0  0  0
    8.2977    4.2420   -0.9423 O   0  0  0  0  0  0  0  0  0  0  0  0
    0.4738    2.2506   -2.4693 H   0  0  0  0  0  0  0  0  0  0  0  0
    0.5586    2.6469   -0.7462 H   0  0  0  0  0  0  0  0  0  0  0  0
    0.4400    0.9577   -1.2601 H   0  0  0  0  0  0  0  0  0  0  0  0
   11.1542    4.5603    0.6523 H   0  0  0  0  0  0  0  0  0  0  0  0
   10.6591    5.3700   -0.8655 H   0  0  0  0  0  0  0  0  0  0  0  0
   10.8606    3.6177   -0.8386 H   0  0  0  0  0  0  0  0  0  0  0  0
    2.8385    2.8135   -1.8334 H   0  0  0  0  0  0  0  0  0  0  0  0
    2.7177    1.1386   -2.3501 H   0  0  0  0  0  0  0  0  0  0  0  0
    2.6489    0.3968    0.0454 H   0  0  0  0  0  0  0  0  0  0  0  0
    2.7315    2.0759    0.5739 H   0  0  0  0  0  0  0  0  0  0  0  0
    4.8954    0.6325   -1.0510 H   0  0  0  0  0  0  0  0  0  0  0  0
    4.9377    0.9189    0.7026 H   0  0  0  0  0  0  0  0  0  0  0  0
    6.9346    2.2553    0.3836 H   0  0  0  0  0  0  0  0  0  0  0  0
    6.8636    2.0637   -1.3881 H   0  0  0  0  0  0  0  0  0  0  0  0
    6.5923    4.6988    0.1662 H   0  0  0  0  0  0  0  0  0  0  0  0
    6.4027    4.5329   -1.6035 H   0  0  0  0  0  0  0  0  0  0  0  0
  1 14  1  0  0  0  0
  1 13  1  0  0  0  0
  2  8  1  0  0  0  0
  2 15  1  0  0  0  0
  3  1  1  0  0  0  0
  3  4  1  0  0  0  0
  4 20  1  0  0  0  0
  4 21  1  0  0  0  0
  5  4  1  0  0  0  0
  5 23  1  0  0  0  0
  6 10  1  0  0  0  0
  6 24  1  0  0  0  0
  7  6  1  0  0  0  0
  7 26  1  0  0  0  0
  8  9  2  0  0  0  0
 10  5  1  0  0  0  0
 11  7  1  0  0  0  0
 11  8  1  0  0  0  0
 12  1  1  0  0  0  0
 16  2  1  0  0  0  0
 17  2  1  0  0  0  0
 18  3  1  0  0  0  0
 19  3  1  0  0  0  0
 22  5  1  0  0  0  0
 25  6  1  0  0  0  0
 27  7  1  0  0  0  0
M  END
>  <HBA>
3

>  <HBD>
0

>  <TPSA>
35.53

>  <cid>
8160

>  <dipole>
1.89

>  <excitation_energy_1>
5.811

>  <excitation_energy_2>
6.492

>  <excitation_energy_3>
6.705

>  <excitation_energy_4>
6.895

>  <homo_energy>
-6.983

>  <homo_lumo_gap>
7.298

>  <logP>
1.366

>  <lumo_energy>
0.316

>  <melting_point>
-24.4

>  <molecular_refractivity>
42.94

>  <oscillator_strength_1>
0.0012

>  <oscillator_strength_2>
0.0017

>  <oscillator_strength_3>
0.0211

>  <oscillator_strength_4>
0.0016

>  <open_babel_can_smiles>
CCCCOCCOC(=O)C

>  <mulliken_charges>
27
1   -0.442514
2   -0.522828
3   -0.246431
4   -0.26802
5   -0.010273
6   -0.021794
7   -0.064021
8   0.59819
9   -0.463868
10   -0.481798
11   -0.456304
12   0.142515
13   0.143415
14   0.139085
15   0.183287
16   0.183032
17   0.181888
18   0.152736
19   0.125614
20   0.13037
21   0.144769
22   0.116236
23   0.123477
24   0.144575
25   0.126414
26   0.179285
27   0.162962

>  <lowdin_charges>
27
1   -0.445116
2   -0.465486
3   -0.274548
4   -0.281625
5   -0.127596
6   -0.14054
7   -0.136487
8   0.198857
9   -0.262887
10   -0.275034
11   -0.198405
12   0.149706
13   0.148222
14   0.144684
15   0.176402
16   0.178653
17   0.17867
18   0.149651
19   0.137999
20   0.144506
21   0.14919
22   0.125527
23   0.130019
24   0.140638
25   0.130618
26   0.164697
27   0.159685

$$$$

