PCCDB-ID:  56054
public computational chemistry database (PCCDB) project, http://pccdb.org

 19 19  0  0  0  0  0  0  0  0999 V2000
   -0.1528   -0.9919   -3.2265 C   0  0  0  0  0  0  0  0  0  0  0  0
   -0.1700   -1.1998   -1.8985 C   0  0  0  0  0  0  0  0  0  0  0  0
    2.5740   -0.8057    2.1647 C   0  0  0  0  0  0  0  0  0  0  0  0
    0.6782   -1.7949   -4.1580 C   0  0  0  0  0  0  0  0  0  0  0  0
   -0.9109   -0.3639   -0.9407 C   0  0  0  0  0  0  0  0  0  0  0  0
    0.6925   -0.3956    0.7446 C   0  0  0  0  0  0  0  0  0  0  0  0
    0.4290   -1.9891   -5.3923 N   0  0  0  0  0  0  0  0  0  0  0  0
    2.8469   -0.9983    0.9058 N   0  0  0  0  0  0  0  0  0  0  0  0
   -0.5360   -0.0513    0.2503 N   0  0  0  0  0  0  0  0  0  0  0  0
    1.7786   -0.7578    0.0915 N   0  0  0  0  0  0  0  0  0  0  0  0
    1.7692   -2.4023   -3.6228 O   0  0  0  0  0  0  0  0  0  0  0  0
   -2.0937    0.1526   -1.3377 O   0  0  0  0  0  0  0  0  0  0  0  0
    0.9448   -0.2939    2.4886 S   0  0  0  0  0  0  0  0  0  0  0  0
   -0.7355   -0.1912   -3.6799 H   0  0  0  0  0  0  0  0  0  0  0  0
    0.4474   -1.9728   -1.4565 H   0  0  0  0  0  0  0  0  0  0  0  0
    3.3050   -0.9545    2.9500 H   0  0  0  0  0  0  0  0  0  0  0  0
   -0.4387   -1.5179   -5.6554 H   0  0  0  0  0  0  0  0  0  0  0  0
    2.0352   -1.9445   -2.8072 H   0  0  0  0  0  0  0  0  0  0  0  0
   -2.3711   -0.2875   -2.1577 H   0  0  0  0  0  0  0  0  0  0  0  0
  1  2  2  0  0  0  0
  2 15  1  0  0  0  0
  2  5  1  0  0  0  0
  3 13  1  0  0  0  0
  3 16  1  0  0  0  0
  4 11  1  0  0  0  0
  4  1  1  0  0  0  0
  5  9  2  0  0  0  0
  6 13  1  0  0  0  0
  7  4  2  0  0  0  0
  8  3  2  0  0  0  0
  9  6  1  0  0  0  0
 10  6  2  0  0  0  0
 10  8  1  0  0  0  0
 11 18  1  0  0  0  0
 12  5  1  0  0  0  0
 14  1  1  0  0  0  0
 17  7  1  0  0  0  0
 19 12  1  0  0  0  0
M  END
>  <HBA>
7

>  <HBD>
2

>  <TPSA>
126.21

>  <cid>
56054

>  <dipole>
3.44

>  <excitation_energy_1>
3.606

>  <excitation_energy_2>
3.97

>  <excitation_energy_3>
4.165

>  <excitation_energy_4>
4.526

>  <homo_energy>
-6.953

>  <homo_lumo_gap>
4.299

>  <logP>
0.291

>  <lumo_energy>
-2.653

>  <melting_point>
172.94

>  <molecular_refractivity>
46.27

>  <oscillator_strength_1>
0.0514

>  <oscillator_strength_2>
0.3045

>  <oscillator_strength_3>
0.016

>  <oscillator_strength_4>
0.0722

>  <open_babel_can_smiles>
O/C(=N/c1nncs1)/C=C/C(=N)O

>  <mulliken_charges>
19
1   -0.202162
2   -0.162109
3   -0.12223
4   0.481135
5   0.480083
6   0.259548
7   -0.56816
8   -0.199413
9   -0.46234
10   -0.323499
11   -0.578436
12   -0.555782
13   0.262711
14   0.162294
15   0.198097
16   0.196668
17   0.287333
18   0.427173
19   0.419087

>  <lowdin_charges>
19
1   -0.182061
2   -0.18056
3   -0.251216
4   0.122841
5   0.169905
6   -0.05031
7   -0.365547
8   -0.102688
9   -0.170494
10   -0.163116
11   -0.355752
12   -0.325161
13   0.305469
14   0.169616
15   0.192379
16   0.194146
17   0.258199
18   0.369051
19   0.365297

$$$$

