PCCDB-ID:  7902
public computational chemistry database (PCCDB) project, http://pccdb.org

 17 16  0  0  0  0  0  0  0  0999 V2000
    0.8937    0.7069   -0.3870 C   0  0  0  0  0  0  0  0  0  0  0  0
    2.8473    0.8186    1.0107 C   0  0  0  0  0  0  0  0  0  0  0  0
    1.9316   -1.3528    0.3968 C   0  0  0  0  0  0  0  0  0  0  0  0
    1.7921   -2.2425   -0.8425 C   0  0  0  0  0  0  0  0  0  0  0  0
    2.1384    0.0456   -0.0037 N   0  0  0  0  0  0  0  0  0  0  0  0
    2.8869   -2.0432   -1.7156 O   0  0  0  0  0  0  0  0  0  0  0  0
    1.1137    1.7066   -0.7763 H   0  0  0  0  0  0  0  0  0  0  0  0
    0.1906    0.8135    0.4611 H   0  0  0  0  0  0  0  0  0  0  0  0
    0.3897    0.1435   -1.1773 H   0  0  0  0  0  0  0  0  0  0  0  0
    3.0467    1.8264    0.6301 H   0  0  0  0  0  0  0  0  0  0  0  0
    3.8072    0.3432    1.2356 H   0  0  0  0  0  0  0  0  0  0  0  0
    2.2800    0.9182    1.9557 H   0  0  0  0  0  0  0  0  0  0  0  0
    2.8233   -1.6747    0.9458 H   0  0  0  0  0  0  0  0  0  0  0  0
    1.0634   -1.4743    1.0721 H   0  0  0  0  0  0  0  0  0  0  0  0
    0.8322   -2.0486   -1.3521 H   0  0  0  0  0  0  0  0  0  0  0  0
    1.7884   -3.2966   -0.5427 H   0  0  0  0  0  0  0  0  0  0  0  0
    3.0545   -1.0825   -1.6660 H   0  0  0  0  0  0  0  0  0  0  0  0
  1  5  1  0  0  0  0
  1  8  1  0  0  0  0
  2 11  1  0  0  0  0
  2 12  1  0  0  0  0
  3 13  1  0  0  0  0
  3 14  1  0  0  0  0
  4 16  1  0  0  0  0
  4  3  1  0  0  0  0
  5  3  1  0  0  0  0
  5  2  1  0  0  0  0
  6 17  1  0  0  0  0
  6  4  1  0  0  0  0
  7  1  1  0  0  0  0
  9  1  1  0  0  0  0
 10  2  1  0  0  0  0
 15  4  1  0  0  0  0
M  END
>  <HBA>
2

>  <HBD>
1

>  <TPSA>
23.47

>  <cid>
7902

>  <dipole>
2.65

>  <excitation_energy_1>
5.675

>  <excitation_energy_2>
6.154

>  <excitation_energy_3>
6.216

>  <excitation_energy_4>
6.325

>  <homo_energy>
-6.161

>  <homo_lumo_gap>
8.24

>  <logP>
-0.46

>  <lumo_energy>
2.079

>  <melting_point>
-3.98

>  <molecular_refractivity>
25.4

>  <oscillator_strength_1>
0.0271

>  <oscillator_strength_2>
0.0494

>  <oscillator_strength_3>
0.036

>  <oscillator_strength_4>
0.0302

>  <open_babel_can_smiles>
OCCN(C)C

>  <mulliken_charges>
17
1   -0.304228
2   -0.295563
3   -0.14917
4   -0.017919
5   -0.392389
6   -0.628885
7   0.153624
8   0.125378
9   0.159712
10   0.151199
11   0.156464
12   0.124693
13   0.148151
14   0.116759
15   0.116011
16   0.139566
17   0.396597

>  <lowdin_charges>
17
1   -0.361675
2   -0.355285
3   -0.222378
4   -0.136919
5   -0.188204
6   -0.474928
7   0.15193
8   0.126254
9   0.155683
10   0.15026
11   0.15322
12   0.124979
13   0.15147
14   0.12681
15   0.12062
16   0.144237
17   0.333927

$$$$

