PCCDB-ID:  30232
public computational chemistry database (PCCDB) project, http://pccdb.org

 31 31  0  0  0  0  0  0  0  0999 V2000
    1.4747   -2.4323    2.7091 C   0  0  0  0  0  0  0  0  0  0  0  0
    1.7726   -2.3465    1.2066 C   0  0  0  0  0  0  0  0  0  0  0  0
    2.9555   -3.2116    0.7370 C   0  0  0  0  0  0  0  0  0  0  0  0
    9.0667   -4.5134   -4.0798 C   0  0  0  0  0  0  0  0  0  0  0  0
    8.9578   -3.2931   -3.4094 C   0  0  0  0  0  0  0  0  0  0  0  0
    8.4296   -5.6395   -3.5712 C   0  0  0  0  0  0  0  0  0  0  0  0
    8.2121   -3.2006   -2.2360 C   0  0  0  0  0  0  0  0  0  0  0  0
    4.2931   -2.7487    1.3029 C   0  0  0  0  0  0  0  0  0  0  0  0
    7.6701   -5.5803   -2.3925 C   0  0  0  0  0  0  0  0  0  0  0  0
    7.5743   -4.3372   -1.7468 C   0  0  0  0  0  0  0  0  0  0  0  0
    7.0295   -6.8768   -1.9479 C   0  0  0  0  0  0  0  0  0  0  0  0
    5.9095   -3.3396   -0.3188 C   0  0  0  0  0  0  0  0  0  0  0  0
    7.0614   -7.8654   -2.6460 O   0  0  0  0  0  0  0  0  0  0  0  0
    6.4268   -6.9152   -0.7435 O   0  0  0  0  0  0  0  0  0  0  0  0
    5.6296   -2.4391   -1.0672 O   0  0  0  0  0  0  0  0  0  0  0  0
    5.3754   -3.6199    0.8675 O   0  0  0  0  0  0  0  0  0  0  0  0
    6.8758   -4.2917   -0.5297 O   0  0  0  0  0  0  0  0  0  0  0  0
    0.5790   -1.8542    2.9613 H   0  0  0  0  0  0  0  0  0  0  0  0
    2.2962   -2.0390    3.3192 H   0  0  0  0  0  0  0  0  0  0  0  0
    1.2985   -3.4699    3.0180 H   0  0  0  0  0  0  0  0  0  0  0  0
    1.9516   -1.3000    0.9230 H   0  0  0  0  0  0  0  0  0  0  0  0
    0.8828   -2.6610    0.6475 H   0  0  0  0  0  0  0  0  0  0  0  0
    3.0164   -3.1796   -0.3570 H   0  0  0  0  0  0  0  0  0  0  0  0
    2.7912   -4.2582    1.0247 H   0  0  0  0  0  0  0  0  0  0  0  0
    9.6489   -4.5859   -4.9934 H   0  0  0  0  0  0  0  0  0  0  0  0
    9.4529   -2.4073   -3.7967 H   0  0  0  0  0  0  0  0  0  0  0  0
    8.4954   -6.6004   -4.0694 H   0  0  0  0  0  0  0  0  0  0  0  0
    8.1160   -2.2606   -1.7077 H   0  0  0  0  0  0  0  0  0  0  0  0
    4.3301   -2.8198    2.3910 H   0  0  0  0  0  0  0  0  0  0  0  0
    4.5247   -1.7253    0.9961 H   0  0  0  0  0  0  0  0  0  0  0  0
    6.4970   -6.0484   -0.2996 H   0  0  0  0  0  0  0  0  0  0  0  0
  1 18  1  0  0  0  0
  1 20  1  0  0  0  0
  1 19  1  0  0  0  0
  2  1  1  0  0  0  0
  3 24  1  0  0  0  0
  3  2  1  0  0  0  0
  3  8  1  0  0  0  0
  4  6  2  0  0  0  0
  4  5  1  0  0  0  0
  5  7  2  0  0  0  0
  6  9  1  0  0  0  0
  7 10  1  0  0  0  0
  7 28  1  0  0  0  0
  8 29  1  0  0  0  0
  9 11  1  0  0  0  0
  9 10  2  0  0  0  0
 10 17  1  0  0  0  0
 11 14  1  0  0  0  0
 12 16  1  0  0  0  0
 13 11  2  0  0  0  0
 14 31  1  0  0  0  0
 15 12  2  0  0  0  0
 16  8  1  0  0  0  0
 17 12  1  0  0  0  0
 21  2  1  0  0  0  0
 22  2  1  0  0  0  0
 23  3  1  0  0  0  0
 25  4  1  0  0  0  0
 26  5  1  0  0  0  0
 27  6  1  0  0  0  0
 30  8  1  0  0  0  0
M  END
>  <HBA>
5

>  <HBD>
1

>  <TPSA>
72.83

>  <cid>
30232

>  <dipole>
5.34

>  <excitation_energy_1>
4.659

>  <excitation_energy_2>
4.894

>  <excitation_energy_3>
5.453

>  <excitation_energy_4>
5.949

>  <homo_energy>
-7.17

>  <homo_lumo_gap>
5.782

>  <logP>
2.7

>  <lumo_energy>
-1.388

>  <melting_point>
120.87

>  <molecular_refractivity>
60.8

>  <oscillator_strength_1>
0.0014

>  <oscillator_strength_2>
0.0345

>  <oscillator_strength_3>
0.1413

>  <oscillator_strength_4>
0.0084

>  <open_babel_can_smiles>
CCCCOC(=O)Oc1ccccc1C(=O)O

>  <mulliken_charges>
31
1   -0.449344
2   -0.26392
3   -0.280213
4   -0.119939
5   -0.138016
6   -0.178156
7   -0.12849
8   -0.053427
9   0.010422
10   0.296094
11   0.572695
12   0.806258
13   -0.454575
14   -0.597598
15   -0.46076
16   -0.458816
17   -0.575425
18   0.152966
19   0.144338
20   0.150071
21   0.141906
22   0.148781
23   0.163497
24   0.152996
25   0.145405
26   0.148192
27   0.180107
28   0.161618
29   0.168384
30   0.173904
31   0.441046

>  <lowdin_charges>
31
1   -0.448915
2   -0.271617
3   -0.28598
4   -0.154382
5   -0.133175
6   -0.120163
7   -0.164192
8   -0.122038
9   -0.075062
10   0.105024
11   0.19771
12   0.244147
13   -0.251233
14   -0.358025
15   -0.256
16   -0.168335
17   -0.170232
18   0.156195
19   0.146899
20   0.149662
21   0.143287
22   0.152654
23   0.157235
24   0.15037
25   0.166389
26   0.167911
27   0.185952
28   0.178876
29   0.158048
30   0.159468
31   0.359524

$$$$

