PCCDB-ID:  71023
public computational chemistry database (PCCDB) project, http://pccdb.org

 25 26  0  0  0  0  0  0  0  0999 V2000
    1.0026   -2.2077    4.0828 C   0  0  0  0  0  0  0  0  0  0  0  0
    2.2930   -1.6845    4.1900 C   0  0  0  0  0  0  0  0  0  0  0  0
    0.4654   -2.4898    2.8252 C   0  0  0  0  0  0  0  0  0  0  0  0
    3.0486   -1.4431    3.0419 C   0  0  0  0  0  0  0  0  0  0  0  0
    1.2163   -2.2517    1.6730 C   0  0  0  0  0  0  0  0  0  0  0  0
    6.0306   -3.8933   -1.4602 C   0  0  0  0  0  0  0  0  0  0  0  0
    5.1020   -5.1017    0.4173 C   0  0  0  0  0  0  0  0  0  0  0  0
    5.2593   -2.7903   -1.1320 C   0  0  0  0  0  0  0  0  0  0  0  0
    4.3216   -3.9992    0.7558 C   0  0  0  0  0  0  0  0  0  0  0  0
    6.7797   -6.2421   -1.0324 C   0  0  0  0  0  0  0  0  0  0  0  0
    5.9612   -5.0649   -0.6874 C   0  0  0  0  0  0  0  0  0  0  0  0
    2.5127   -1.7315    1.7799 C   0  0  0  0  0  0  0  0  0  0  0  0
    4.3965   -2.8343   -0.0188 C   0  0  0  0  0  0  0  0  0  0  0  0
    7.5551   -6.3015   -1.9696 O   0  0  0  0  0  0  0  0  0  0  0  0
    3.4512   -1.3515    0.2977 S   0  0  0  0  0  0  0  0  0  0  0  0
    0.4152   -2.3917    4.9781 H   0  0  0  0  0  0  0  0  0  0  0  0
    2.7113   -1.4598    5.1673 H   0  0  0  0  0  0  0  0  0  0  0  0
   -0.5398   -2.8931    2.7389 H   0  0  0  0  0  0  0  0  0  0  0  0
    4.0498   -1.0303    3.1176 H   0  0  0  0  0  0  0  0  0  0  0  0
    0.8025   -2.4635    0.6920 H   0  0  0  0  0  0  0  0  0  0  0  0
    6.6998   -3.8734   -2.3151 H   0  0  0  0  0  0  0  0  0  0  0  0
    5.0424   -6.0060    1.0199 H   0  0  0  0  0  0  0  0  0  0  0  0
    5.3184   -1.8866   -1.7329 H   0  0  0  0  0  0  0  0  0  0  0  0
    3.6609   -4.0446    1.6142 H   0  0  0  0  0  0  0  0  0  0  0  0
    6.6414   -7.1153   -0.3553 H   0  0  0  0  0  0  0  0  0  0  0  0
  1  2  1  0  0  0  0
  1 16  1  0  0  0  0
  2 17  1  0  0  0  0
  3  1  2  0  0  0  0
  4 19  1  0  0  0  0
  4  2  2  0  0  0  0
  5 12  2  0  0  0  0
  5  3  1  0  0  0  0
  6  8  2  0  0  0  0
  6 11  1  0  0  0  0
  7  9  1  0  0  0  0
  7 22  1  0  0  0  0
  8 13  1  0  0  0  0
  9 24  1  0  0  0  0
 10 11  1  0  0  0  0
 10 25  1  0  0  0  0
 11  7  2  0  0  0  0
 12  4  1  0  0  0  0
 13 15  1  0  0  0  0
 13  9  2  0  0  0  0
 14 10  2  0  0  0  0
 15 12  1  0  0  0  0
 18  3  1  0  0  0  0
 20  5  1  0  0  0  0
 21  6  1  0  0  0  0
 23  8  1  0  0  0  0
M  END
>  <HBA>
2

>  <HBD>
0

>  <TPSA>
42.37

>  <cid>
71023

>  <dipole>
5.17

>  <excitation_energy_1>
3.715

>  <excitation_energy_2>
4.136

>  <excitation_energy_3>
4.201

>  <excitation_energy_4>
4.504

>  <homo_energy>
-6.106

>  <homo_lumo_gap>
4.525

>  <logP>
3.65

>  <lumo_energy>
-1.581

>  <melting_point>
81.97

>  <molecular_refractivity>
62.39

>  <oscillator_strength_1>
0.0001

>  <oscillator_strength_2>
0.4799

>  <oscillator_strength_3>
0.0042

>  <oscillator_strength_4>
0.0017

>  <open_babel_can_smiles>
O=Cc1ccc(cc1)Sc1ccccc1

>  <mulliken_charges>
25
1   -0.125822
2   -0.121919
3   -0.12177
4   -0.132563
5   -0.133514
6   -0.146753
7   -0.168637
8   -0.163096
9   -0.162762
10   0.190213
11   0.090167
12   -0.126779
13   -0.063336
14   -0.413722
15   0.146062
16   0.14211
17   0.142999
18   0.142938
19   0.158344
20   0.15827
21   0.165472
22   0.14117
23   0.150977
24   0.153886
25   0.098066

>  <lowdin_charges>
25
1   -0.144817
2   -0.152789
3   -0.151134
4   -0.146442
5   -0.14839
6   -0.118341
7   -0.13399
8   -0.166739
9   -0.17739
10   0.040376
11   -0.065792
12   -0.135463
13   -0.098193
14   -0.23436
15   0.201453
16   0.16415
17   0.16416
18   0.163405
19   0.1713
20   0.171942
21   0.177701
22   0.162943
23   0.169288
24   0.171145
25   0.115978

$$$$

