PCCDB-ID:  54050
public computational chemistry database (PCCDB) project, http://pccdb.org

 22 22  0  0  0  0  0  0  0  0999 V2000
    2.7004   -0.1421   -1.7729 C   0  0  0  0  0  0  0  0  0  0  0  0
    3.2837   -0.4044    0.5280 C   0  0  0  0  0  0  0  0  0  0  0  0
    3.5871   -1.1773   -2.0585 C   0  0  0  0  0  0  0  0  0  0  0  0
    4.1441   -1.4334    0.1367 C   0  0  0  0  0  0  0  0  0  0  0  0
   -0.5797    0.0927    2.2924 C   0  0  0  0  0  0  0  0  0  0  0  0
   -0.4613   -0.3718    0.8388 C   0  0  0  0  0  0  0  0  0  0  0  0
    1.6006    1.3904   -0.0703 C   0  0  0  0  0  0  0  0  0  0  0  0
    2.5376    0.2692   -0.4439 C   0  0  0  0  0  0  0  0  0  0  0  0
    4.3064   -1.8260   -1.1306 N   0  0  0  0  0  0  0  0  0  0  0  0
   -1.6476    0.9963    2.4918 O   0  0  0  0  0  0  0  0  0  0  0  0
   -0.1896    1.0115   -0.3449 S   0  0  0  0  0  0  0  0  0  0  0  0
    2.1392    0.3338   -2.5722 H   0  0  0  0  0  0  0  0  0  0  0  0
    3.2076   -0.1282    1.5768 H   0  0  0  0  0  0  0  0  0  0  0  0
    3.7301   -1.5051   -3.0869 H   0  0  0  0  0  0  0  0  0  0  0  0
    4.7318   -1.9662    0.8829 H   0  0  0  0  0  0  0  0  0  0  0  0
    0.3803    0.5181    2.6319 H   0  0  0  0  0  0  0  0  0  0  0  0
   -0.7890   -0.7758    2.9276 H   0  0  0  0  0  0  0  0  0  0  0  0
   -1.4050   -0.8259    0.5208 H   0  0  0  0  0  0  0  0  0  0  0  0
    0.3348   -1.1141    0.7155 H   0  0  0  0  0  0  0  0  0  0  0  0
    1.7751    2.2694   -0.6997 H   0  0  0  0  0  0  0  0  0  0  0  0
    1.7570    1.6963    0.9681 H   0  0  0  0  0  0  0  0  0  0  0  0
   -1.5142    1.7253    1.8609 H   0  0  0  0  0  0  0  0  0  0  0  0
  1  8  1  0  0  0  0
  2 13  1  0  0  0  0
  3  1  2  0  0  0  0
  3  9  1  0  0  0  0
  4  2  1  0  0  0  0
  4 15  1  0  0  0  0
  5 10  1  0  0  0  0
  5 16  1  0  0  0  0
  5 17  1  0  0  0  0
  6  5  1  0  0  0  0
  7 21  1  0  0  0  0
  8  7  1  0  0  0  0
  8  2  2  0  0  0  0
  9  4  2  0  0  0  0
 11  7  1  0  0  0  0
 11  6  1  0  0  0  0
 12  1  1  0  0  0  0
 14  3  1  0  0  0  0
 18  6  1  0  0  0  0
 19  6  1  0  0  0  0
 20  7  1  0  0  0  0
 22 10  1  0  0  0  0
M  END
>  <HBA>
3

>  <HBD>
1

>  <TPSA>
58.42

>  <cid>
54050

>  <dipole>
1.29

>  <excitation_energy_1>
4.523

>  <excitation_energy_2>
4.753

>  <excitation_energy_3>
5.096

>  <excitation_energy_4>
5.201

>  <homo_energy>
-6.531

>  <homo_lumo_gap>
5.505

>  <logP>
1.307

>  <lumo_energy>
-1.026

>  <melting_point>
48.92

>  <molecular_refractivity>
47.57

>  <oscillator_strength_1>
0.0097

>  <oscillator_strength_2>
0.004

>  <oscillator_strength_3>
0.0063

>  <oscillator_strength_4>
0.0107

>  <open_babel_can_smiles>
OCCSCc1ccncc1

>  <mulliken_charges>
22
1   -0.166892
2   -0.193171
3   0.035849
4   0.042569
5   -0.016612
6   -0.441573
7   -0.515282
8   0.193109
9   -0.405555
10   -0.615311
11   0.078447
12   0.145957
13   0.134556
14   0.145936
15   0.144525
16   0.119352
17   0.155931
18   0.192017
19   0.180096
20   0.197351
21   0.184741
22   0.403961

>  <lowdin_charges>
22
1   -0.175737
2   -0.189864
3   -0.084983
4   -0.088042
5   -0.138743
6   -0.398586
7   -0.376126
8   0.012002
9   -0.148502
10   -0.465537
11   0.094622
12   0.170432
13   0.160088
14   0.157838
15   0.15986
16   0.122458
17   0.153898
18   0.177216
19   0.168213
20   0.182581
21   0.163264
22   0.343649

$$$$

