PCCDB-ID:  56009
public computational chemistry database (PCCDB) project, http://pccdb.org

 30 32  0  0  0  0  0  0  0  0999 V2000
   -1.1795    1.5565    0.1147 C   0  0  0  0  0  0  0  0  0  0  0  0
   -2.4039    0.9010   -0.0305 C   0  0  0  0  0  0  0  0  0  0  0  0
    1.3470    1.5098    0.4240 C   0  0  0  0  0  0  0  0  0  0  0  0
    2.5168    0.7567   -0.2284 C   0  0  0  0  0  0  0  0  0  0  0  0
    5.1624   -3.0074    0.4168 C   0  0  0  0  0  0  0  0  0  0  0  0
    3.8558   -2.6995    0.6777 C   0  0  0  0  0  0  0  0  0  0  0  0
   -1.2533   -1.2230    0.0014 C   0  0  0  0  0  0  0  0  0  0  0  0
    1.2281   -1.3291    0.1926 C   0  0  0  0  0  0  0  0  0  0  0  0
    4.8390   -1.0981   -0.4852 C   0  0  0  0  0  0  0  0  0  0  0  0
    0.0120    0.8393    0.1898 C   0  0  0  0  0  0  0  0  0  0  0  0
   -2.4464   -0.4980   -0.0939 C   0  0  0  0  0  0  0  0  0  0  0  0
   -0.0213   -0.5735    0.1279 C   0  0  0  0  0  0  0  0  0  0  0  0
    2.4275   -0.7299    0.0488 C   0  0  0  0  0  0  0  0  0  0  0  0
   -3.7213   -1.2755   -0.2274 C   0  0  0  0  0  0  0  0  0  0  0  0
    5.7688   -2.0053   -0.3150 N   0  0  0  0  0  0  0  0  0  0  0  0
    3.6371   -1.4544    0.0973 N   0  0  0  0  0  0  0  0  0  0  0  0
   -3.8293   -2.4363    0.0903 O   0  0  0  0  0  0  0  0  0  0  0  0
   -4.7946   -0.6091   -0.7360 O   0  0  0  0  0  0  0  0  0  0  0  0
   -1.1561    2.6416    0.1811 H   0  0  0  0  0  0  0  0  0  0  0  0
   -3.3169    1.4918   -0.0459 H   0  0  0  0  0  0  0  0  0  0  0  0
    1.3269    2.5459    0.0692 H   0  0  0  0  0  0  0  0  0  0  0  0
    1.5237    1.5545    1.5098 H   0  0  0  0  0  0  0  0  0  0  0  0
    3.4601    1.1599    0.1524 H   0  0  0  0  0  0  0  0  0  0  0  0
    2.5150    0.9234   -1.3164 H   0  0  0  0  0  0  0  0  0  0  0  0
    5.7102   -3.8886    0.7224 H   0  0  0  0  0  0  0  0  0  0  0  0
    3.0897   -3.2042    1.2442 H   0  0  0  0  0  0  0  0  0  0  0  0
   -1.3049   -2.3071   -0.0323 H   0  0  0  0  0  0  0  0  0  0  0  0
    1.1566   -2.4069    0.3024 H   0  0  0  0  0  0  0  0  0  0  0  0
    4.9569   -0.1759   -1.0357 H   0  0  0  0  0  0  0  0  0  0  0  0
   -4.5139    0.2496   -1.0915 H   0  0  0  0  0  0  0  0  0  0  0  0
  1 19  1  0  0  0  0
  1 10  2  0  0  0  0
  2  1  1  0  0  0  0
  3 22  1  0  0  0  0
  4 13  1  0  0  0  0
  4 23  1  0  0  0  0
  4  3  1  0  0  0  0
  5  6  2  0  0  0  0
  5 25  1  0  0  0  0
  6 26  1  0  0  0  0
  7 12  2  0  0  0  0
  8 28  1  0  0  0  0
  9 15  2  0  0  0  0
  9 16  1  0  0  0  0
 10  3  1  0  0  0  0
 11  2  2  0  0  0  0
 11  7  1  0  0  0  0
 12 10  1  0  0  0  0
 12  8  1  0  0  0  0
 13 16  1  0  0  0  0
 13  8  2  0  0  0  0
 14 11  1  0  0  0  0
 14 17  2  0  0  0  0
 15  5  1  0  0  0  0
 16  6  1  0  0  0  0
 18 14  1  0  0  0  0
 20  2  1  0  0  0  0
 21  3  1  0  0  0  0
 24  4  1  0  0  0  0
 27  7  1  0  0  0  0
 29  9  1  0  0  0  0
 30 18  1  0  0  0  0
M  END
>  <HBA>
4

>  <HBD>
1

>  <TPSA>
55.12

>  <cid>
56009

>  <dipole>
5.03

>  <excitation_energy_1>
3.787

>  <excitation_energy_2>
4.152

>  <excitation_energy_3>
4.257

>  <excitation_energy_4>
4.671

>  <homo_energy>
-6.065

>  <homo_lumo_gap>
4.318

>  <logP>
2.526

>  <lumo_energy>
-1.747

>  <melting_point>
193.22

>  <molecular_refractivity>
68.51

>  <oscillator_strength_1>
0.2055

>  <oscillator_strength_2>
0.0276

>  <oscillator_strength_3>
0.2871

>  <oscillator_strength_4>
0.0846

>  <open_babel_can_smiles>
OC(=O)c1ccc2c(c1)C=C(CC2)n1cncc1

>  <mulliken_charges>
30
1   -0.198398
2   -0.199717
3   -0.355867
4   -0.352585
5   -0.040161
6   0.017283
7   -0.236047
8   -0.223503
9   0.202369
10   0.124121
11   0.054892
12   0.135274
13   0.326645
14   0.5533
15   -0.435083
16   -0.485204
17   -0.445901
18   -0.576082
19   0.135037
20   0.133694
21   0.155909
22   0.173832
23   0.16763
24   0.172737
25   0.144195
26   0.164798
27   0.166961
28   0.147022
29   0.162229
30   0.41062

>  <lowdin_charges>
30
1   -0.157911
2   -0.168413
3   -0.265055
4   -0.276283
5   -0.143025
6   -0.170695
7   -0.13159
8   -0.192553
9   -0.097102
10   0.004975
11   -0.057089
12   -0.002808
13   0.049856
14   0.190839
15   -0.176531
16   0.01285
17   -0.238702
18   -0.354763
19   0.159041
20   0.157961
21   0.158208
22   0.161874
23   0.164305
24   0.159923
25   0.166311
26   0.17635
27   0.17653
28   0.166611
29   0.170033
30   0.356854

$$$$

