PCCDB-ID:  12328
public computational chemistry database (PCCDB) project, http://pccdb.org

 23 22  0  0  0  0  0  0  0  0999 V2000
    4.3167    0.3610    2.2318 C   0  0  0  0  0  0  0  0  0  0  0  0
    0.9720    3.1128   -2.2200 C   0  0  0  0  0  0  0  0  0  0  0  0
    1.1327    2.4340   -0.8555 C   0  0  0  0  0  0  0  0  0  0  0  0
   -0.4752    3.5194   -2.5042 C   0  0  0  0  0  0  0  0  0  0  0  0
    2.5823    2.0383   -0.5691 C   0  0  0  0  0  0  0  0  0  0  0  0
   -0.6497    4.1936   -3.8602 C   0  0  0  0  0  0  0  0  0  0  0  0
    2.7536    1.3638    0.7784 C   0  0  0  0  0  0  0  0  0  0  0  0
    0.2380    4.3934   -4.6496 O   0  0  0  0  0  0  0  0  0  0  0  0
   -1.9230    4.5813   -4.1566 O   0  0  0  0  0  0  0  0  0  0  0  0
    1.8707    1.1577    1.5832 O   0  0  0  0  0  0  0  0  0  0  0  0
    4.0439    1.0119    0.9801 O   0  0  0  0  0  0  0  0  0  0  0  0
    5.3870    0.1523    2.2259 H   0  0  0  0  0  0  0  0  0  0  0  0
    3.7450   -0.5672    2.3155 H   0  0  0  0  0  0  0  0  0  0  0  0
    4.0571    1.0132    3.0699 H   0  0  0  0  0  0  0  0  0  0  0  0
    1.3156    2.4461   -3.0202 H   0  0  0  0  0  0  0  0  0  0  0  0
    1.6086    4.0040   -2.2797 H   0  0  0  0  0  0  0  0  0  0  0  0
    0.4999    1.5390   -0.8013 H   0  0  0  0  0  0  0  0  0  0  0  0
    0.7783    3.0984   -0.0574 H   0  0  0  0  0  0  0  0  0  0  0  0
   -0.8428    4.2055   -1.7264 H   0  0  0  0  0  0  0  0  0  0  0  0
   -1.1371    2.6411   -2.4669 H   0  0  0  0  0  0  0  0  0  0  0  0
    3.2451    2.9138   -0.5946 H   0  0  0  0  0  0  0  0  0  0  0  0
    2.9691    1.3585   -1.3398 H   0  0  0  0  0  0  0  0  0  0  0  0
   -2.5195    4.3512   -3.4249 H   0  0  0  0  0  0  0  0  0  0  0  0
  1 13  1  0  0  0  0
  1 14  1  0  0  0  0
  2  3  1  0  0  0  0
  3 17  1  0  0  0  0
  3  5  1  0  0  0  0
  3 18  1  0  0  0  0
  4 20  1  0  0  0  0
  4  2  1  0  0  0  0
  4 19  1  0  0  0  0
  5  7  1  0  0  0  0
  6  4  1  0  0  0  0
  7 11  1  0  0  0  0
  7 10  2  0  0  0  0
  8  6  2  0  0  0  0
  9  6  1  0  0  0  0
  9 23  1  0  0  0  0
 11  1  1  0  0  0  0
 12  1  1  0  0  0  0
 15  2  1  0  0  0  0
 16  2  1  0  0  0  0
 21  5  1  0  0  0  0
 22  5  1  0  0  0  0
M  END
>  <HBA>
4

>  <HBD>
1

>  <TPSA>
63.6

>  <cid>
12328

>  <dipole>
3.17

>  <excitation_energy_1>
5.75

>  <excitation_energy_2>
5.859

>  <excitation_energy_3>
6.465

>  <excitation_energy_4>
6.912

>  <homo_energy>
-7.41

>  <homo_lumo_gap>
7.682

>  <logP>
0.804

>  <lumo_energy>
0.272

>  <melting_point>
62.37

>  <molecular_refractivity>
38.82

>  <oscillator_strength_1>
0.0003

>  <oscillator_strength_2>
0.0006

>  <oscillator_strength_3>
0.0163

>  <oscillator_strength_4>
0.0004

>  <open_babel_can_smiles>
COC(=O)CCCCC(=O)O

>  <mulliken_charges>
23
1   -0.21794
2   -0.251147
3   -0.255576
4   -0.408997
5   -0.364353
6   0.610252
7   0.622462
8   -0.437242
9   -0.569106
10   -0.479605
11   -0.453279
12   0.165237
13   0.169722
14   0.16983
15   0.156063
16   0.155578
17   0.148438
18   0.148985
19   0.165936
20   0.166418
21   0.174963
22   0.174702
23   0.40866

>  <lowdin_charges>
23
1   -0.27723
2   -0.270379
3   -0.272753
4   -0.325297
5   -0.30324
6   0.199486
7   0.198866
8   -0.237008
9   -0.363375
10   -0.266274
11   -0.196637
12   0.1591
13   0.158838
14   0.159726
15   0.155279
16   0.15436
17   0.150224
18   0.151199
19   0.162781
20   0.162465
21   0.170478
22   0.170899
23   0.358493

$$$$

