PCCDB-ID:  69501
public computational chemistry database (PCCDB) project, http://pccdb.org

 27 28  0  0  0  0  0  0  0  0999 V2000
    0.8900    0.0438    0.1089 C   0  0  0  0  0  0  0  0  0  0  0  0
    7.4515    1.3384    0.3209 C   0  0  0  0  0  0  0  0  0  0  0  0
    2.3720   -2.5471    0.2756 C   0  0  0  0  0  0  0  0  0  0  0  0
    6.6586   -2.3938    0.4347 C   0  0  0  0  0  0  0  0  0  0  0  0
    7.3545   -1.1644    0.4145 C   0  0  0  0  0  0  0  0  0  0  0  0
    5.2848   -2.4185    0.3835 C   0  0  0  0  0  0  0  0  0  0  0  0
    3.1263    1.2013    0.1547 C   0  0  0  0  0  0  0  0  0  0  0  0
    4.4983    1.2344    0.2094 C   0  0  0  0  0  0  0  0  0  0  0  0
    2.4026   -0.0189    0.1742 C   0  0  0  0  0  0  0  0  0  0  0  0
    6.6821    0.0385    0.3422 C   0  0  0  0  0  0  0  0  0  0  0  0
    3.0995   -1.2201    0.2514 C   0  0  0  0  0  0  0  0  0  0  0  0
    5.2492    0.0332    0.2862 C   0  0  0  0  0  0  0  0  0  0  0  0
    4.5338   -1.2112    0.3070 C   0  0  0  0  0  0  0  0  0  0  0  0
    0.5502    1.0826    0.0537 H   0  0  0  0  0  0  0  0  0  0  0  0
    0.4181   -0.4073    0.9905 H   0  0  0  0  0  0  0  0  0  0  0  0
    0.4921   -0.4768   -0.7710 H   0  0  0  0  0  0  0  0  0  0  0  0
    8.5281    1.1512    0.3763 H   0  0  0  0  0  0  0  0  0  0  0  0
    7.1830    1.9863    1.1650 H   0  0  0  0  0  0  0  0  0  0  0  0
    7.2605    1.9116   -0.5953 H   0  0  0  0  0  0  0  0  0  0  0  0
    1.2889   -2.4217    0.2399 H   0  0  0  0  0  0  0  0  0  0  0  0
    2.6048   -3.1176    1.1837 H   0  0  0  0  0  0  0  0  0  0  0  0
    2.6561   -3.1774   -0.5769 H   0  0  0  0  0  0  0  0  0  0  0  0
    7.2179   -3.3240    0.4929 H   0  0  0  0  0  0  0  0  0  0  0  0
    8.4412   -1.1669    0.4558 H   0  0  0  0  0  0  0  0  0  0  0  0
    4.7682   -3.3717    0.4005 H   0  0  0  0  0  0  0  0  0  0  0  0
    2.5704    2.1343    0.0968 H   0  0  0  0  0  0  0  0  0  0  0  0
    5.0116    2.1901    0.1930 H   0  0  0  0  0  0  0  0  0  0  0  0
  1  9  1  0  0  0  0
  1 15  1  0  0  0  0
  2 10  1  0  0  0  0
  2 17  1  0  0  0  0
  2 18  1  0  0  0  0
  3 21  1  0  0  0  0
  4 23  1  0  0  0  0
  5  4  1  0  0  0  0
  5 24  1  0  0  0  0
  6 25  1  0  0  0  0
  6  4  2  0  0  0  0
  7  9  2  0  0  0  0
  7  8  1  0  0  0  0
  8 12  2  0  0  0  0
  9 11  1  0  0  0  0
 10  5  2  0  0  0  0
 11  3  1  0  0  0  0
 11 13  2  0  0  0  0
 12 13  1  0  0  0  0
 12 10  1  0  0  0  0
 13  6  1  0  0  0  0
 14  1  1  0  0  0  0
 16  1  1  0  0  0  0
 19  2  1  0  0  0  0
 20  3  1  0  0  0  0
 22  3  1  0  0  0  0
 26  7  1  0  0  0  0
 27  8  1  0  0  0  0
M  END
>  <HBA>
0

>  <HBD>
0

>  <TPSA>
0.0

>  <cid>
69501

>  <dipole>
0.4

>  <excitation_energy_1>
4.126

>  <excitation_energy_2>
4.331

>  <excitation_energy_3>
5.243

>  <excitation_energy_4>
5.36

>  <homo_energy>
-5.475

>  <homo_lumo_gap>
4.596

>  <logP>
3.765

>  <lumo_energy>
-0.879

>  <melting_point>
62.17

>  <molecular_refractivity>
58.85

>  <oscillator_strength_1>
0.1

>  <oscillator_strength_2>
0.005

>  <oscillator_strength_3>
0.0088

>  <oscillator_strength_4>
0.0279

>  <open_babel_can_smiles>
Cc1ccc2c(c1C)cccc2C

>  <mulliken_charges>
27
1   -0.542214
2   -0.534759
3   -0.540883
4   -0.125576
5   -0.204303
6   -0.203693
7   -0.182273
8   -0.200341
9   0.121893
10   0.134488
11   0.061819
12   0.080513
13   0.086792
14   0.154041
15   0.162441
16   0.162437
17   0.154657
18   0.161467
19   0.161584
20   0.156325
21   0.162654
22   0.162771
23   0.124502
24   0.118388
25   0.124185
26   0.118362
27   0.124724

>  <lowdin_charges>
27
1   -0.445697
2   -0.442297
3   -0.447405
4   -0.158208
5   -0.17181
6   -0.169868
7   -0.166511
8   -0.166836
9   -0.012543
10   0.001099
11   -0.011348
12   -0.010206
13   -0.005669
14   0.155088
15   0.159928
16   0.159958
17   0.155665
18   0.159659
19   0.159329
20   0.158531
21   0.160302
22   0.160691
23   0.156438
24   0.15102
25   0.158629
26   0.153437
27   0.158625

$$$$

