PCCDB-ID:  27057
public computational chemistry database (PCCDB) project, http://pccdb.org

 14 14  0  0  0  0  0  0  0  0999 V2000
   -1.1769   -0.6950    0.0394 C   0  0  0  0  0  0  0  0  0  0  0  0
    0.0008   -1.4153    0.2092 C   0  0  0  0  0  0  0  0  0  0  0  0
   -1.0976    0.6780   -0.2025 C   0  0  0  0  0  0  0  0  0  0  0  0
    1.2327   -0.7520    0.1500 C   0  0  0  0  0  0  0  0  0  0  0  0
    1.1790    0.6316   -0.0986 C   0  0  0  0  0  0  0  0  0  0  0  0
    0.0693    1.3209   -0.2802 N   0  0  0  0  0  0  0  0  0  0  0  0
    2.4307    1.4284   -0.1751 N   0  0  0  0  0  0  0  0  0  0  0  0
    2.4231   -1.3787    0.2815 O   0  0  0  0  0  0  0  0  0  0  0  0
    3.2847    1.1945    0.6770 O   0  0  0  0  0  0  0  0  0  0  0  0
    2.5093    2.2631   -1.0670 O   0  0  0  0  0  0  0  0  0  0  0  0
   -2.1401   -1.1933    0.0870 H   0  0  0  0  0  0  0  0  0  0  0  0
   -0.0233   -2.4882    0.3887 H   0  0  0  0  0  0  0  0  0  0  0  0
   -1.9916    1.2795   -0.3431 H   0  0  0  0  0  0  0  0  0  0  0  0
    2.2729   -2.3324    0.3863 H   0  0  0  0  0  0  0  0  0  0  0  0
  1 11  1  0  0  0  0
  1  2  2  0  0  0  0
  2 12  1  0  0  0  0
  3  1  1  0  0  0  0
  4  2  1  0  0  0  0
  4  8  1  0  0  0  0
  5  4  2  0  0  0  0
  6  3  2  0  0  0  0
  6  5  1  0  0  0  0
  7  5  1  0  0  0  0
  7  9  2  0  0  0  0
  8 14  1  0  0  0  0
 10  7  2  0  0  0  0
 13  3  1  0  0  0  0
M  END
>  <HBA>
2

>  <HBD>
1

>  <TPSA>
78.94

>  <cid>
27057

>  <dipole>
7.01

>  <excitation_energy_1>
3.758

>  <excitation_energy_2>
4.11

>  <excitation_energy_3>
4.297

>  <excitation_energy_4>
4.689

>  <homo_energy>
-7.113

>  <homo_lumo_gap>
4.942

>  <logP>
1.219

>  <lumo_energy>
-2.171

>  <melting_point>
98.59

>  <molecular_refractivity>
35.08

>  <oscillator_strength_1>
0.0252

>  <oscillator_strength_2>
0.0021

>  <oscillator_strength_3>
0.0547

>  <oscillator_strength_4>
0.0032

>  <open_babel_can_smiles>
O=N(=O)c1ncccc1O

>  <mulliken_charges>
14
1   -0.130502
2   -0.162683
3   0.028564
4   0.362191
5   0.391709
6   -0.430768
7   0.396063
8   -0.609815
9   -0.369872
10   -0.360371
11   0.156876
12   0.149093
13   0.16079
14   0.418725

>  <lowdin_charges>
14
1   -0.147587
2   -0.175068
3   -0.098115
4   0.098236
5   0.033198
6   -0.101331
7   0.299948
8   -0.33617
9   -0.230424
10   -0.216768
11   0.174299
12   0.16596
13   0.168792
14   0.365031

$$$$

