PCCDB-ID:  8651
public computational chemistry database (PCCDB) project, http://pccdb.org

 26 27  0  0  0  0  0  0  0  0999 V2000
   -0.3898    3.6632   -2.1123 C   0  0  0  0  0  0  0  0  0  0  0  0
    5.9981   -2.5676   -1.1127 C   0  0  0  0  0  0  0  0  0  0  0  0
   -0.8982    2.7367   -1.1957 C   0  0  0  0  0  0  0  0  0  0  0  0
    0.9820    3.7158   -2.3668 C   0  0  0  0  0  0  0  0  0  0  0  0
    6.6336   -1.3368   -0.9176 C   0  0  0  0  0  0  0  0  0  0  0  0
    4.6083   -2.6608   -1.0180 C   0  0  0  0  0  0  0  0  0  0  0  0
   -0.0356    1.8668   -0.5390 C   0  0  0  0  0  0  0  0  0  0  0  0
    1.8514    2.8471   -1.7088 C   0  0  0  0  0  0  0  0  0  0  0  0
    5.8790   -0.2051   -0.6307 C   0  0  0  0  0  0  0  0  0  0  0  0
    3.8475   -1.5292   -0.7278 C   0  0  0  0  0  0  0  0  0  0  0  0
    1.3473    1.9141   -0.7875 C   0  0  0  0  0  0  0  0  0  0  0  0
    4.4792   -0.2899   -0.5316 C   0  0  0  0  0  0  0  0  0  0  0  0
    2.2047    0.9275   -0.0757 C   0  0  0  0  0  0  0  0  0  0  0  0
    3.7345    0.9699   -0.2614 C   0  0  0  0  0  0  0  0  0  0  0  0
    1.7492    0.1086    0.7122 O   0  0  0  0  0  0  0  0  0  0  0  0
    4.2968    2.0476   -0.1158 O   0  0  0  0  0  0  0  0  0  0  0  0
   -1.0636    4.3431   -2.6270 H   0  0  0  0  0  0  0  0  0  0  0  0
    6.5871   -3.4526   -1.3385 H   0  0  0  0  0  0  0  0  0  0  0  0
   -1.9657    2.6958   -0.9977 H   0  0  0  0  0  0  0  0  0  0  0  0
    1.3774    4.4380   -3.0755 H   0  0  0  0  0  0  0  0  0  0  0  0
    7.7152   -1.2642   -0.9911 H   0  0  0  0  0  0  0  0  0  0  0  0
    4.1151   -3.6174   -1.1651 H   0  0  0  0  0  0  0  0  0  0  0  0
   -0.4069    1.1382    0.1743 H   0  0  0  0  0  0  0  0  0  0  0  0
    2.9167    2.9049   -1.8968 H   0  0  0  0  0  0  0  0  0  0  0  0
    6.3493    0.7608   -0.4780 H   0  0  0  0  0  0  0  0  0  0  0  0
    2.7710   -1.6116   -0.6378 H   0  0  0  0  0  0  0  0  0  0  0  0
  1  3  1  0  0  0  0
  2  6  2  0  0  0  0
  2  5  1  0  0  0  0
  3 19  1  0  0  0  0
  3  7  2  0  0  0  0
  4  1  2  0  0  0  0
  4  8  1  0  0  0  0
  5  9  2  0  0  0  0
  6 10  1  0  0  0  0
  7 23  1  0  0  0  0
  8 11  2  0  0  0  0
  9 12  1  0  0  0  0
  9 25  1  0  0  0  0
 10 26  1  0  0  0  0
 10 12  2  0  0  0  0
 11  7  1  0  0  0  0
 11 13  1  0  0  0  0
 12 14  1  0  0  0  0
 13 15  2  0  0  0  0
 14 16  2  0  0  0  0
 14 13  1  0  0  0  0
 17  1  1  0  0  0  0
 18  2  1  0  0  0  0
 20  4  1  0  0  0  0
 21  5  1  0  0  0  0
 22  6  1  0  0  0  0
 24  8  1  0  0  0  0
M  END
>  <HBA>
2

>  <HBD>
0

>  <TPSA>
34.14

>  <cid>
8651

>  <dipole>
2.77

>  <excitation_energy_1>
2.792

>  <excitation_energy_2>
3.766

>  <excitation_energy_3>
4.081

>  <excitation_energy_4>
4.087

>  <homo_energy>
-6.43

>  <homo_lumo_gap>
4.147

>  <logP>
2.752

>  <lumo_energy>
-2.283

>  <melting_point>
100.33

>  <molecular_refractivity>
61.55

>  <oscillator_strength_1>
0.0004

>  <oscillator_strength_2>
0.0005

>  <oscillator_strength_3>
0.0249

>  <oscillator_strength_4>
0.0005

>  <open_babel_can_smiles>
O=C(C(=O)c1ccccc1)c1ccccc1

>  <mulliken_charges>
26
1   -0.114745
2   -0.114798
3   -0.134109
4   -0.1392
5   -0.134089
6   -0.139206
7   -0.153446
8   -0.162763
9   -0.153367
10   -0.162516
11   0.077102
12   0.077287
13   0.338412
14   0.338516
15   -0.460937
16   -0.460985
17   0.140473
18   0.14052
19   0.140426
20   0.140728
21   0.140425
22   0.140711
23   0.164375
24   0.163571
25   0.164378
26   0.163236

>  <lowdin_charges>
26
1   -0.13474
2   -0.134232
3   -0.153507
4   -0.157163
5   -0.152388
6   -0.156743
7   -0.126166
8   -0.132516
9   -0.125789
10   -0.131922
11   -0.047605
12   -0.047347
13   0.139607
14   0.141685
15   -0.22888
16   -0.230063
17   0.164207
18   0.163485
19   0.161043
20   0.163987
21   0.160762
22   0.163048
23   0.177222
24   0.174052
25   0.176305
26   0.173659

$$$$

