PCCDB-ID:  21992
public computational chemistry database (PCCDB) project, http://pccdb.org

 24 25  0  0  0  0  0  0  0  0999 V2000
    0.6521   -0.2626    0.2664 C   0  0  0  0  0  0  0  0  0  0  0  0
    4.0942    1.3333    3.6150 C   0  0  0  0  0  0  0  0  0  0  0  0
    3.5278    0.0585    3.5427 C   0  0  0  0  0  0  0  0  0  0  0  0
    4.0479    2.1619    2.4964 C   0  0  0  0  0  0  0  0  0  0  0  0
    2.9241   -0.3741    2.3648 C   0  0  0  0  0  0  0  0  0  0  0  0
    3.4411    1.7263    1.3148 C   0  0  0  0  0  0  0  0  0  0  0  0
    3.3803   -1.3043   -2.2479 C   0  0  0  0  0  0  0  0  0  0  0  0
    3.6780    0.1891   -2.3060 C   0  0  0  0  0  0  0  0  0  0  0  0
    2.8712    0.4518    1.2281 C   0  0  0  0  0  0  0  0  0  0  0  0
    2.1531   -0.0695   -0.0251 C   0  0  0  0  0  0  0  0  0  0  0  0
    2.9361   -1.7236   -0.5185 S   0  0  0  0  0  0  0  0  0  0  0  0
    2.2690    1.0418   -1.5127 S   0  0  0  0  0  0  0  0  0  0  0  0
    0.5093   -0.9158    1.1325 H   0  0  0  0  0  0  0  0  0  0  0  0
    0.1435   -0.7028   -0.5942 H   0  0  0  0  0  0  0  0  0  0  0  0
    0.1882    0.7035    0.5000 H   0  0  0  0  0  0  0  0  0  0  0  0
    4.5671    1.6726    4.5326 H   0  0  0  0  0  0  0  0  0  0  0  0
    3.5577   -0.6029    4.4046 H   0  0  0  0  0  0  0  0  0  0  0  0
    4.4842    3.1568    2.5357 H   0  0  0  0  0  0  0  0  0  0  0  0
    2.4972   -1.3732    2.3288 H   0  0  0  0  0  0  0  0  0  0  0  0
    3.4095    2.3846    0.4537 H   0  0  0  0  0  0  0  0  0  0  0  0
    4.2614   -1.9015   -2.5074 H   0  0  0  0  0  0  0  0  0  0  0  0
    2.5629   -1.5621   -2.9271 H   0  0  0  0  0  0  0  0  0  0  0  0
    3.7346    0.5512   -3.3382 H   0  0  0  0  0  0  0  0  0  0  0  0
    4.6133    0.4296   -1.7919 H   0  0  0  0  0  0  0  0  0  0  0  0
  1 15  1  0  0  0  0
  1 13  1  0  0  0  0
  2 16  1  0  0  0  0
  3  2  1  0  0  0  0
  3 17  1  0  0  0  0
  4 18  1  0  0  0  0
  4  2  2  0  0  0  0
  5  3  2  0  0  0  0
  6  4  1  0  0  0  0
  7 11  1  0  0  0  0
  8  7  1  0  0  0  0
  8 24  1  0  0  0  0
  8 12  1  0  0  0  0
  9  6  2  0  0  0  0
  9  5  1  0  0  0  0
 10  1  1  0  0  0  0
 10  9  1  0  0  0  0
 11 10  1  0  0  0  0
 12 10  1  0  0  0  0
 14  1  1  0  0  0  0
 19  5  1  0  0  0  0
 20  6  1  0  0  0  0
 21  7  1  0  0  0  0
 22  7  1  0  0  0  0
 23  8  1  0  0  0  0
M  END
>  <HBA>
2

>  <HBD>
0

>  <TPSA>
50.6

>  <cid>
21992

>  <dipole>
0.99

>  <excitation_energy_1>
4.488

>  <excitation_energy_2>
4.796

>  <excitation_energy_3>
4.97

>  <excitation_energy_4>
5.166

>  <homo_energy>
-6.006

>  <homo_lumo_gap>
5.641

>  <logP>
3.339

>  <lumo_energy>
-0.365

>  <melting_point>
52.62

>  <molecular_refractivity>
58.78

>  <oscillator_strength_1>
0.0035

>  <oscillator_strength_2>
0.004

>  <oscillator_strength_3>
0.0159

>  <oscillator_strength_4>
0.0033

>  <open_babel_can_smiles>
CC1(SCCS1)c1ccccc1

>  <mulliken_charges>
24
1   -0.426459
2   -0.127606
3   -0.131046
4   -0.130333
5   -0.170023
6   -0.188076
7   -0.411667
8   -0.417365
9   0.197577
10   -0.357322
11   0.109993
12   0.12047
13   0.162809
14   0.172501
15   0.163174
16   0.12902
17   0.130546
18   0.129399
19   0.139293
20   0.157765
21   0.18314
22   0.187794
23   0.183233
24   0.193182

>  <lowdin_charges>
24
1   -0.44056
2   -0.158467
3   -0.155215
4   -0.153538
5   -0.157712
6   -0.170859
7   -0.376898
8   -0.373856
9   -0.012325
10   -0.16612
11   0.085126
12   0.112775
13   0.159753
14   0.166125
15   0.159818
16   0.157834
17   0.158904
18   0.156745
19   0.160422
20   0.170591
21   0.172631
22   0.165141
23   0.172716
24   0.166968

$$$$

