PCCDB-ID:  50316
public computational chemistry database (PCCDB) project, http://pccdb.org

 26 26  0  0  0  0  0  0  0  0999 V2000
    0.8314   -0.1730   -0.4889 C   0  0  0  0  0  0  0  0  0  0  0  0
    2.3382   -2.6170    0.6591 C   0  0  0  0  0  0  0  0  0  0  0  0
    2.9904    1.1045   -0.4463 C   0  0  0  0  0  0  0  0  0  0  0  0
    4.4507   -1.2630    0.6122 C   0  0  0  0  0  0  0  0  0  0  0  0
    4.2403    1.4401    1.6767 C   0  0  0  0  0  0  0  0  0  0  0  0
    5.0843    2.4304   -0.3390 C   0  0  0  0  0  0  0  0  0  0  0  0
    5.3154   -0.2916   -1.5069 C   0  0  0  0  0  0  0  0  0  0  0  0
    6.5739    0.0143    0.5128 C   0  0  0  0  0  0  0  0  0  0  0  0
    2.3031   -0.2155   -0.1570 C   0  0  0  0  0  0  0  0  0  0  0  0
    2.9626   -1.2850    0.3227 C   0  0  0  0  0  0  0  0  0  0  0  0
    4.3887    1.2556    0.2189 C   0  0  0  0  0  0  0  0  0  0  0  0
    5.2134   -0.0790   -0.0488 C   0  0  0  0  0  0  0  0  0  0  0  0
    4.0975    1.5767    2.8194 N   0  0  0  0  0  0  0  0  0  0  0  0
    5.6039    3.3585   -0.8010 N   0  0  0  0  0  0  0  0  0  0  0  0
    5.3761   -0.4784   -2.6498 N   0  0  0  0  0  0  0  0  0  0  0  0
    7.6349    0.0594    0.9785 N   0  0  0  0  0  0  0  0  0  0  0  0
    0.6808    0.2234   -1.5020 H   0  0  0  0  0  0  0  0  0  0  0  0
    0.2980    0.5010    0.1951 H   0  0  0  0  0  0  0  0  0  0  0  0
    0.3489   -1.1499   -0.4450 H   0  0  0  0  0  0  0  0  0  0  0  0
    2.6167   -2.9218    1.6768 H   0  0  0  0  0  0  0  0  0  0  0  0
    2.7068   -3.4011   -0.0161 H   0  0  0  0  0  0  0  0  0  0  0  0
    1.2492   -2.6097    0.6060 H   0  0  0  0  0  0  0  0  0  0  0  0
    2.3670    1.9364   -0.0988 H   0  0  0  0  0  0  0  0  0  0  0  0
    3.1131    1.2448   -1.5281 H   0  0  0  0  0  0  0  0  0  0  0  0
    4.9156   -2.1922    0.2630 H   0  0  0  0  0  0  0  0  0  0  0  0
    4.6298   -1.2188    1.6943 H   0  0  0  0  0  0  0  0  0  0  0  0
  1 19  1  0  0  0  0
  1  9  1  0  0  0  0
  1 18  1  0  0  0  0
  2 20  1  0  0  0  0
  3  9  1  0  0  0  0
  3 23  1  0  0  0  0
  3 11  1  0  0  0  0
  4 26  1  0  0  0  0
  5 13  3  0  0  0  0
  6 11  1  0  0  0  0
  7 12  1  0  0  0  0
  8 16  3  0  0  0  0
  9 10  2  0  0  0  0
 10  4  1  0  0  0  0
 10  2  1  0  0  0  0
 11  5  1  0  0  0  0
 12 11  1  0  0  0  0
 12  8  1  0  0  0  0
 12  4  1  0  0  0  0
 14  6  3  0  0  0  0
 15  7  3  0  0  0  0
 17  1  1  0  0  0  0
 21  2  1  0  0  0  0
 22  2  1  0  0  0  0
 24  3  1  0  0  0  0
 25  4  1  0  0  0  0
M  END
>  <HBA>
4

>  <HBD>
0

>  <TPSA>
95.16

>  <cid>
50316

>  <dipole>
6.87

>  <excitation_energy_1>
5.167

>  <excitation_energy_2>
5.526

>  <excitation_energy_3>
5.74

>  <excitation_energy_4>
5.923

>  <homo_energy>
-7.423

>  <homo_lumo_gap>
6.055

>  <logP>
2.184

>  <lumo_energy>
-1.369

>  <melting_point>
181.64

>  <molecular_refractivity>
55.69

>  <oscillator_strength_1>
0.022

>  <oscillator_strength_2>
0.0006

>  <oscillator_strength_3>
0.017

>  <oscillator_strength_4>
0.0225

>  <open_babel_can_smiles>
N#CC1(C#N)CC(=C(CC1(C#N)C#N)C)C

>  <mulliken_charges>
26
1   -0.526427
2   -0.526179
3   -0.345073
4   -0.345065
5   0.394267
6   0.379337
7   0.394259
8   0.379441
9   0.125993
10   0.126045
11   -0.065815
12   -0.065828
13   -0.443244
14   -0.432125
15   -0.443255
16   -0.432091
17   0.16941
18   0.17219
19   0.170005
20   0.16957
21   0.17191
22   0.169929
23   0.194233
24   0.20718
25   0.194223
26   0.207111

>  <lowdin_charges>
26
1   -0.440464
2   -0.438422
3   -0.258732
4   -0.259321
5   -0.010981
6   -0.013416
7   -0.010978
8   -0.014245
9   -0.027971
10   -0.027106
11   0.027623
12   0.029291
13   -0.07219
14   -0.062452
15   -0.07219
16   -0.062551
17   0.164181
18   0.167109
19   0.16524
20   0.164264
21   0.166615
22   0.16362
23   0.180666
24   0.181136
25   0.180188
26   0.181086

$$$$

