PCCDB-ID:  30725
public computational chemistry database (PCCDB) project, http://pccdb.org

 33 33  0  0  0  0  0  0  0  0999 V2000
    0.5297    0.7367   -4.6923 C   0  0  0  0  0  0  0  0  0  0  0  0
    2.0373    0.6275   -4.9415 C   0  0  0  0  0  0  0  0  0  0  0  0
    2.8835    1.1718   -3.7833 C   0  0  0  0  0  0  0  0  0  0  0  0
    4.3943    1.0682   -4.0290 C   0  0  0  0  0  0  0  0  0  0  0  0
    5.2337    1.6120   -2.8665 C   0  0  0  0  0  0  0  0  0  0  0  0
    6.7610    1.5073   -3.0792 C   0  0  0  0  0  0  0  0  0  0  0  0
    7.6566    1.8083   -5.4414 C   0  0  0  0  0  0  0  0  0  0  0  0
    7.4084    3.7565   -4.0483 C   0  0  0  0  0  0  0  0  0  0  0  0
    8.1240    2.6068   -6.4808 C   0  0  0  0  0  0  0  0  0  0  0  0
    7.8747    4.5642   -5.0806 C   0  0  0  0  0  0  0  0  0  0  0  0
    7.2881    2.3668   -4.2087 C   0  0  0  0  0  0  0  0  0  0  0  0
    8.2359    3.9921   -6.3092 C   0  0  0  0  0  0  0  0  0  0  0  0
    8.7416    4.8001   -7.4463 C   0  0  0  0  0  0  0  0  0  0  0  0
    8.8159    6.1289   -7.1659 O   0  0  0  0  0  0  0  0  0  0  0  0
    9.0652    4.3564   -8.5308 O   0  0  0  0  0  0  0  0  0  0  0  0
   -0.0454    0.3414   -5.5374 H   0  0  0  0  0  0  0  0  0  0  0  0
    0.2271    1.7806   -4.5429 H   0  0  0  0  0  0  0  0  0  0  0  0
    0.2336    0.1761   -3.7969 H   0  0  0  0  0  0  0  0  0  0  0  0
    2.2964    1.1677   -5.8631 H   0  0  0  0  0  0  0  0  0  0  0  0
    2.3037   -0.4239   -5.1211 H   0  0  0  0  0  0  0  0  0  0  0  0
    2.6246    0.6314   -2.8603 H   0  0  0  0  0  0  0  0  0  0  0  0
    2.6163    2.2238   -3.6033 H   0  0  0  0  0  0  0  0  0  0  0  0
    4.6494    1.6078   -4.9512 H   0  0  0  0  0  0  0  0  0  0  0  0
    4.6620    0.0156   -4.2070 H   0  0  0  0  0  0  0  0  0  0  0  0
    4.9776    1.0657   -1.9481 H   0  0  0  0  0  0  0  0  0  0  0  0
    4.9673    2.6625   -2.6833 H   0  0  0  0  0  0  0  0  0  0  0  0
    7.0264    0.4584   -3.2630 H   0  0  0  0  0  0  0  0  0  0  0  0
    7.2613    1.7967   -2.1457 H   0  0  0  0  0  0  0  0  0  0  0  0
    7.5779    0.7333   -5.5844 H   0  0  0  0  0  0  0  0  0  0  0  0
    7.1366    4.2094   -3.0974 H   0  0  0  0  0  0  0  0  0  0  0  0
    8.4098    2.1748   -7.4344 H   0  0  0  0  0  0  0  0  0  0  0  0
    7.9656    5.6357   -4.9396 H   0  0  0  0  0  0  0  0  0  0  0  0
    9.1560    6.5466   -7.9785 H   0  0  0  0  0  0  0  0  0  0  0  0
  1 17  1  0  0  0  0
  1 18  1  0  0  0  0
  2  1  1  0  0  0  0
  2  3  1  0  0  0  0
  3 22  1  0  0  0  0
  3 21  1  0  0  0  0
  4  3  1  0  0  0  0
  4  5  1  0  0  0  0
  5 26  1  0  0  0  0
  5 25  1  0  0  0  0
  6  5  1  0  0  0  0
  6 28  1  0  0  0  0
  7 11  2  0  0  0  0
  8 30  1  0  0  0  0
  9 12  2  0  0  0  0
  9  7  1  0  0  0  0
 10 32  1  0  0  0  0
 10  8  2  0  0  0  0
 11  8  1  0  0  0  0
 11  6  1  0  0  0  0
 12 10  1  0  0  0  0
 13 14  1  0  0  0  0
 13 12  1  0  0  0  0
 15 13  2  0  0  0  0
 16  1  1  0  0  0  0
 19  2  1  0  0  0  0
 20  2  1  0  0  0  0
 23  4  1  0  0  0  0
 24  4  1  0  0  0  0
 27  6  1  0  0  0  0
 29  7  1  0  0  0  0
 31  9  1  0  0  0  0
 33 14  1  0  0  0  0
M  END
>  <HBA>
2

>  <HBD>
1

>  <TPSA>
37.3

>  <cid>
30725

>  <dipole>
2.31

>  <excitation_energy_1>
4.853

>  <excitation_energy_2>
4.904

>  <excitation_energy_3>
5.133

>  <excitation_energy_4>
6.162

>  <homo_energy>
-6.797

>  <homo_lumo_gap>
5.587

>  <logP>
3.508

>  <lumo_energy>
-1.211

>  <melting_point>
96.16

>  <molecular_refractivity>
62.4

>  <oscillator_strength_1>
0.0155

>  <oscillator_strength_2>
0.0001

>  <oscillator_strength_3>
0.3707

>  <oscillator_strength_4>
0.1379

>  <open_babel_can_smiles>
CCCCCCc1ccc(cc1)C(=O)O

>  <mulliken_charges>
33
1   -0.441679
2   -0.247706
3   -0.246329
4   -0.255085
5   -0.253829
6   -0.353461
7   -0.193473
8   -0.187537
9   -0.154509
10   -0.159944
11   0.188322
12   0.068778
13   0.53446
14   -0.584837
15   -0.477364
16   0.142462
17   0.141636
18   0.140799
19   0.132899
20   0.129914
21   0.125988
22   0.128018
23   0.142321
24   0.12486
25   0.133789
26   0.13567
27   0.142677
28   0.147612
29   0.132188
30   0.130565
31   0.163329
32   0.158951
33   0.410517

>  <lowdin_charges>
33
1   -0.444766
2   -0.270771
3   -0.272779
4   -0.277536
5   -0.269207
6   -0.274695
7   -0.166543
8   -0.167347
9   -0.126896
10   -0.133868
11   0.017847
12   -0.054202
13   0.19657
14   -0.365827
15   -0.275786
16   0.15053
17   0.145289
18   0.146372
19   0.140274
20   0.137332
21   0.136792
22   0.136666
23   0.145719
24   0.135344
25   0.143019
26   0.140177
27   0.147738
28   0.154735
29   0.157093
30   0.157903
31   0.176887
32   0.171228
33   0.362712

$$$$

