PCCDB-ID:  45009
public computational chemistry database (PCCDB) project, http://pccdb.org

 30 30  0  0  0  0  0  0  0  0999 V2000
    2.5247   -1.8645   -1.0193 C   0  0  0  0  0  0  0  0  0  0  0  0
    0.7508   -0.1756   -1.2862 C   0  0  0  0  0  0  0  0  0  0  0  0
    2.3817    3.7431   -3.0056 C   0  0  0  0  0  0  0  0  0  0  0  0
    1.8804    3.7860   -4.3077 C   0  0  0  0  0  0  0  0  0  0  0  0
    2.6624    2.5104   -2.4155 C   0  0  0  0  0  0  0  0  0  0  0  0
    1.6584    2.6049   -5.0160 C   0  0  0  0  0  0  0  0  0  0  0  0
    3.7405   -0.5242   -6.1798 C   0  0  0  0  0  0  0  0  0  0  0  0
    2.2977   -0.0545   -6.3324 C   0  0  0  0  0  0  0  0  0  0  0  0
    2.4589    1.3177   -3.1185 C   0  0  0  0  0  0  0  0  0  0  0  0
    1.9550    1.3716   -4.4271 C   0  0  0  0  0  0  0  0  0  0  0  0
    2.9063   -0.0083   -2.5459 C   0  0  0  0  0  0  0  0  0  0  0  0
    2.1030   -0.6014   -1.6071 N   0  0  0  0  0  0  0  0  0  0  0  0
    4.2222   -0.7445   -7.5029 O   0  0  0  0  0  0  0  0  0  0  0  0
    3.9822   -0.4884   -2.8980 O   0  0  0  0  0  0  0  0  0  0  0  0
    1.6873    0.1785   -5.0565 O   0  0  0  0  0  0  0  0  0  0  0  0
    2.4354   -1.8179    0.0730 H   0  0  0  0  0  0  0  0  0  0  0  0
    3.5614   -2.0474   -1.2988 H   0  0  0  0  0  0  0  0  0  0  0  0
    1.9009   -2.6925   -1.3833 H   0  0  0  0  0  0  0  0  0  0  0  0
    0.5192    0.7649   -1.7841 H   0  0  0  0  0  0  0  0  0  0  0  0
    0.6416   -0.0367   -0.2026 H   0  0  0  0  0  0  0  0  0  0  0  0
    0.0215   -0.9319   -1.6083 H   0  0  0  0  0  0  0  0  0  0  0  0
    2.5539    4.6623   -2.4533 H   0  0  0  0  0  0  0  0  0  0  0  0
    1.6505    4.7406   -4.7732 H   0  0  0  0  0  0  0  0  0  0  0  0
    3.0609    2.4684   -1.4050 H   0  0  0  0  0  0  0  0  0  0  0  0
    1.2434    2.6344   -6.0188 H   0  0  0  0  0  0  0  0  0  0  0  0
    3.7651   -1.4372   -5.5695 H   0  0  0  0  0  0  0  0  0  0  0  0
    4.3269    0.2378   -5.6477 H   0  0  0  0  0  0  0  0  0  0  0  0
    1.6979   -0.8314   -6.8137 H   0  0  0  0  0  0  0  0  0  0  0  0
    2.2628    0.8430   -6.9612 H   0  0  0  0  0  0  0  0  0  0  0  0
    5.1449   -1.0304   -7.4352 H   0  0  0  0  0  0  0  0  0  0  0  0
  1 16  1  0  0  0  0
  2 20  1  0  0  0  0
  3 22  1  0  0  0  0
  3  5  1  0  0  0  0
  4  3  2  0  0  0  0
  5 24  1  0  0  0  0
  6 10  2  0  0  0  0
  6  4  1  0  0  0  0
  7 27  1  0  0  0  0
  7 26  1  0  0  0  0
  8  7  1  0  0  0  0
  8 15  1  0  0  0  0
  9 11  1  0  0  0  0
  9  5  2  0  0  0  0
 10  9  1  0  0  0  0
 11 12  1  0  0  0  0
 12  2  1  0  0  0  0
 12  1  1  0  0  0  0
 13 30  1  0  0  0  0
 13  7  1  0  0  0  0
 14 11  2  0  0  0  0
 15 10  1  0  0  0  0
 17  1  1  0  0  0  0
 18  1  1  0  0  0  0
 19  2  1  0  0  0  0
 21  2  1  0  0  0  0
 23  4  1  0  0  0  0
 25  6  1  0  0  0  0
 28  8  1  0  0  0  0
 29  8  1  0  0  0  0
M  END
>  <HBA>
4

>  <HBD>
1

>  <TPSA>
49.77

>  <cid>
45009

>  <dipole>
2.4

>  <excitation_energy_1>
4.972

>  <excitation_energy_2>
5.264

>  <excitation_energy_3>
5.351

>  <excitation_energy_4>
5.574

>  <homo_energy>
-6.166

>  <homo_lumo_gap>
5.916

>  <logP>
0.759

>  <lumo_energy>
-0.25

>  <melting_point>
64.25

>  <molecular_refractivity>
56.8

>  <oscillator_strength_1>
0.0299

>  <oscillator_strength_2>
0.0108

>  <oscillator_strength_3>
0.0155

>  <oscillator_strength_4>
0.0102

>  <open_babel_can_smiles>
OCCOc1ccccc1C(=O)N(C)C

>  <mulliken_charges>
30
1   -0.319713
2   -0.313477
3   -0.12913
4   -0.135115
5   -0.167532
6   -0.170309
7   -0.050816
8   -0.051947
9   -0.011298
10   0.340392
11   0.534217
12   -0.393593
13   -0.628311
14   -0.514983
15   -0.536612
16   0.150179
17   0.202826
18   0.154728
19   0.184959
20   0.153649
21   0.158937
22   0.131383
23   0.134618
24   0.138802
25   0.139972
26   0.147085
27   0.147595
28   0.159539
29   0.146131
30   0.397824

>  <lowdin_charges>
30
1   -0.353618
2   -0.351053
3   -0.168953
4   -0.148049
5   -0.149512
6   -0.18395
7   -0.151901
8   -0.129841
9   -0.054818
10   0.09817
11   0.164675
12   -0.096467
13   -0.475622
14   -0.311149
15   -0.219713
16   0.147345
17   0.182429
18   0.150202
19   0.174903
20   0.147336
21   0.151687
22   0.160239
23   0.160444
24   0.161258
25   0.164416
26   0.141437
27   0.142935
28   0.157049
29   0.142879
30   0.347241

$$$$

