PCCDB-ID:  68158
public computational chemistry database (PCCDB) project, http://pccdb.org

 18 17  0  0  0  0  0  0  0  0999 V2000
    0.7421   -0.0423   -0.0325 C   0  0  0  0  0  0  0  0  0  0  0  0
    2.6112    1.3667    0.9549 C   0  0  0  0  0  0  0  0  0  0  0  0
    3.1043   -0.6400   -0.5094 C   0  0  0  0  0  0  0  0  0  0  0  0
    4.6090   -0.5756   -0.4817 C   0  0  0  0  0  0  0  0  0  0  0  0
    2.2297    0.1763    0.1089 C   0  0  0  0  0  0  0  0  0  0  0  0
    5.2847   -1.6278    0.4173 C   0  0  0  0  0  0  0  0  0  0  0  0
    6.4277   -1.9823    0.2750 O   0  0  0  0  0  0  0  0  0  0  0  0
    4.5201   -2.1112    1.4252 O   0  0  0  0  0  0  0  0  0  0  0  0
    0.2671   -0.1804    0.9483 H   0  0  0  0  0  0  0  0  0  0  0  0
    0.5117   -0.9150   -0.6508 H   0  0  0  0  0  0  0  0  0  0  0  0
    0.2628    0.8349   -0.4882 H   0  0  0  0  0  0  0  0  0  0  0  0
    2.1795    1.2795    1.9609 H   0  0  0  0  0  0  0  0  0  0  0  0
    2.2003    2.2884    0.5216 H   0  0  0  0  0  0  0  0  0  0  0  0
    3.6898    1.4985    1.0652 H   0  0  0  0  0  0  0  0  0  0  0  0
    2.6937   -1.4605   -1.0994 H   0  0  0  0  0  0  0  0  0  0  0  0
    4.9709    0.3995   -0.1351 H   0  0  0  0  0  0  0  0  0  0  0  0
    5.0270   -0.7173   -1.4834 H   0  0  0  0  0  0  0  0  0  0  0  0
    3.6266   -1.7252    1.3413 H   0  0  0  0  0  0  0  0  0  0  0  0
  1  5  1  0  0  0  0
  1  9  1  0  0  0  0
  2 14  1  0  0  0  0
  2 12  1  0  0  0  0
  3  4  1  0  0  0  0
  3  5  2  0  0  0  0
  4 16  1  0  0  0  0
  4  6  1  0  0  0  0
  5  2  1  0  0  0  0
  6  8  1  0  0  0  0
  7  6  2  0  0  0  0
 10  1  1  0  0  0  0
 11  1  1  0  0  0  0
 13  2  1  0  0  0  0
 15  3  1  0  0  0  0
 17  4  1  0  0  0  0
 18  8  1  0  0  0  0
M  END
>  <HBA>
2

>  <HBD>
1

>  <TPSA>
37.3

>  <cid>
68158

>  <dipole>
5.3

>  <excitation_energy_1>
5.533

>  <excitation_energy_2>
5.981

>  <excitation_energy_3>
6.221

>  <excitation_energy_4>
6.669

>  <homo_energy>
-6.762

>  <homo_lumo_gap>
6.637

>  <logP>
1.427

>  <lumo_energy>
-0.125

>  <melting_point>
63.81

>  <molecular_refractivity>
32.25

>  <oscillator_strength_1>
0.0115

>  <oscillator_strength_2>
0.007

>  <oscillator_strength_3>
0.1872

>  <oscillator_strength_4>
0.0155

>  <open_babel_can_smiles>
OC(=O)CC=C(C)C

>  <mulliken_charges>
18
1   -0.506945
2   -0.514328
3   -0.229833
4   -0.407367
5   0.189308
6   0.584459
7   -0.444186
8   -0.564761
9   0.158792
10   0.160659
11   0.162466
12   0.163674
13   0.166826
14   0.161134
15   0.139661
16   0.18584
17   0.18811
18   0.406491

>  <lowdin_charges>
18
1   -0.441474
2   -0.445836
3   -0.217571
4   -0.317238
5   0.00309
6   0.186899
7   -0.244267
8   -0.356329
9   0.158273
10   0.159886
11   0.161657
12   0.161797
13   0.164792
14   0.157604
15   0.157506
16   0.176174
17   0.180513
18   0.354523

$$$$

