PCCDB-ID:  16034
public computational chemistry database (PCCDB) project, http://pccdb.org

 20 20  0  0  0  0  0  0  0  0999 V2000
    6.5705    2.0887    0.2731 C   0  0  0  0  0  0  0  0  0  0  0  0
    6.9015   -2.0406    5.1473 C   0  0  0  0  0  0  0  0  0  0  0  0
    6.6192   -2.9184    4.1001 C   0  0  0  0  0  0  0  0  0  0  0  0
    6.5243   -0.6990    5.0468 C   0  0  0  0  0  0  0  0  0  0  0  0
    5.9671   -2.4587    2.9548 C   0  0  0  0  0  0  0  0  0  0  0  0
    5.8692   -0.2276    3.9095 C   0  0  0  0  0  0  0  0  0  0  0  0
    5.6020   -1.1178    2.8704 C   0  0  0  0  0  0  0  0  0  0  0  0
    5.2400    0.3032    0.9863 C   0  0  0  0  0  0  0  0  0  0  0  0
    6.2834    0.9930    1.1836 N   0  0  0  0  0  0  0  0  0  0  0  0
    4.2996    0.4293    0.0162 O   0  0  0  0  0  0  0  0  0  0  0  0
    4.8631   -0.7494    1.7458 O   0  0  0  0  0  0  0  0  0  0  0  0
    7.4634    2.6158    0.6195 H   0  0  0  0  0  0  0  0  0  0  0  0
    5.7574    2.8334    0.2218 H   0  0  0  0  0  0  0  0  0  0  0  0
    6.7786    1.7427   -0.7530 H   0  0  0  0  0  0  0  0  0  0  0  0
    7.4100   -2.3985    6.0381 H   0  0  0  0  0  0  0  0  0  0  0  0
    6.9042   -3.9646    4.1704 H   0  0  0  0  0  0  0  0  0  0  0  0
    6.7388   -0.0111    5.8602 H   0  0  0  0  0  0  0  0  0  0  0  0
    5.7335   -3.1228    2.1288 H   0  0  0  0  0  0  0  0  0  0  0  0
    5.5795    0.8122    3.8211 H   0  0  0  0  0  0  0  0  0  0  0  0
    4.5543    1.1688   -0.5579 H   0  0  0  0  0  0  0  0  0  0  0  0
  1 12  1  0  0  0  0
  1  9  1  0  0  0  0
  2 15  1  0  0  0  0
  3 16  1  0  0  0  0
  3  2  2  0  0  0  0
  4  2  1  0  0  0  0
  4 17  1  0  0  0  0
  5  3  1  0  0  0  0
  6  4  2  0  0  0  0
  7  5  2  0  0  0  0
  7  6  1  0  0  0  0
  8  9  2  0  0  0  0
  8 11  1  0  0  0  0
 10  8  1  0  0  0  0
 11  7  1  0  0  0  0
 13  1  1  0  0  0  0
 14  1  1  0  0  0  0
 18  5  1  0  0  0  0
 19  6  1  0  0  0  0
 20 10  1  0  0  0  0
M  END
>  <HBA>
3

>  <HBD>
1

>  <TPSA>
38.33

>  <cid>
16034

>  <dipole>
1.74

>  <excitation_energy_1>
5.233

>  <excitation_energy_2>
5.603

>  <excitation_energy_3>
5.652

>  <excitation_energy_4>
6.063

>  <homo_energy>
-6.286

>  <homo_lumo_gap>
6.34

>  <logP>
1.796

>  <lumo_energy>
0.054

>  <melting_point>
66.66

>  <molecular_refractivity>
41.13

>  <oscillator_strength_1>
0.0054

>  <oscillator_strength_2>
0.0095

>  <oscillator_strength_3>
0.0697

>  <oscillator_strength_4>
0.007

>  <open_babel_can_smiles>
C/N=C(/Oc1ccccc1)\O

>  <mulliken_charges>
20
1   -0.359693
2   -0.123309
3   -0.140127
4   -0.145766
5   -0.159974
6   -0.122913
7   0.350843
8   0.664174
9   -0.427542
10   -0.58755
11   -0.516507
12   0.175987
13   0.137753
14   0.146379
15   0.129109
16   0.13306
17   0.132947
18   0.141832
19   0.14585
20   0.425446

>  <lowdin_charges>
20
1   -0.365981
2   -0.163839
3   -0.149305
4   -0.151781
5   -0.172351
6   -0.16052
7   0.111081
8   0.190995
9   -0.26306
10   -0.357737
11   -0.142398
12   0.165209
13   0.135282
14   0.138956
15   0.158739
16   0.158293
17   0.160412
18   0.169203
19   0.170223
20   0.368581

$$$$

