PCCDB-ID:  35482
public computational chemistry database (PCCDB) project, http://pccdb.org

 22 21  0  0  0  0  0  0  0  0999 V2000
    3.4697    2.9731    0.4953 C   0  0  0  0  0  0  0  0  0  0  0  0
    5.1662   -0.4617   -0.3839 C   0  0  0  0  0  0  0  0  0  0  0  0
    2.8352    1.5806    0.4337 C   0  0  0  0  0  0  0  0  0  0  0  0
    3.5428    0.5333    1.3231 C   0  0  0  0  0  0  0  0  0  0  0  0
    5.9840    0.5671    1.7763 C   0  0  0  0  0  0  0  0  0  0  0  0
    7.4639    0.3766    1.5937 C   0  0  0  0  0  0  0  0  0  0  0  0
    4.9822    0.2369    0.9432 C   0  0  0  0  0  0  0  0  0  0  0  0
    8.1785    1.6031    1.7764 O   0  0  0  0  0  0  0  0  0  0  0  0
    2.9259    3.6841   -0.1370 H   0  0  0  0  0  0  0  0  0  0  0  0
    4.5126    2.9534    0.1598 H   0  0  0  0  0  0  0  0  0  0  0  0
    3.4630    3.3640    1.5205 H   0  0  0  0  0  0  0  0  0  0  0  0
    4.6539   -1.4339   -0.3777 H   0  0  0  0  0  0  0  0  0  0  0  0
    6.2134   -0.6419   -0.6358 H   0  0  0  0  0  0  0  0  0  0  0  0
    4.7201    0.1174   -1.2025 H   0  0  0  0  0  0  0  0  0  0  0  0
    2.8111    1.2313   -0.6069 H   0  0  0  0  0  0  0  0  0  0  0  0
    1.7866    1.6431    0.7530 H   0  0  0  0  0  0  0  0  0  0  0  0
    2.9635   -0.4017    1.2797 H   0  0  0  0  0  0  0  0  0  0  0  0
    3.5059    0.8749    2.3654 H   0  0  0  0  0  0  0  0  0  0  0  0
    5.7279    1.0554    2.7175 H   0  0  0  0  0  0  0  0  0  0  0  0
    7.7074   -0.0774    0.6229 H   0  0  0  0  0  0  0  0  0  0  0  0
    7.8597   -0.2919    2.3681 H   0  0  0  0  0  0  0  0  0  0  0  0
    7.7883    2.2461    1.1634 H   0  0  0  0  0  0  0  0  0  0  0  0
  1 11  1  0  0  0  0
  2 12  1  0  0  0  0
  2  7  1  0  0  0  0
  3  1  1  0  0  0  0
  3 16  1  0  0  0  0
  3  4  1  0  0  0  0
  4 18  1  0  0  0  0
  5 19  1  0  0  0  0
  6  5  1  0  0  0  0
  6  8  1  0  0  0  0
  6 21  1  0  0  0  0
  7  4  1  0  0  0  0
  7  5  2  0  0  0  0
  9  1  1  0  0  0  0
 10  1  1  0  0  0  0
 13  2  1  0  0  0  0
 14  2  1  0  0  0  0
 15  3  1  0  0  0  0
 17  4  1  0  0  0  0
 20  6  1  0  0  0  0
 22  8  1  0  0  0  0
M  END
>  <HBA>
1

>  <HBD>
1

>  <TPSA>
20.23

>  <cid>
35482

>  <dipole>
2.23

>  <excitation_energy_1>
5.883

>  <excitation_energy_2>
5.96

>  <excitation_energy_3>
6.378

>  <excitation_energy_4>
6.479

>  <homo_energy>
-6.452

>  <homo_lumo_gap>
6.865

>  <logP>
1.725

>  <lumo_energy>
0.414

>  <melting_point>
4.6

>  <molecular_refractivity>
36.45

>  <oscillator_strength_1>
0.0693

>  <oscillator_strength_2>
0.1157

>  <oscillator_strength_3>
0.0292

>  <oscillator_strength_4>
0.004

>  <open_babel_can_smiles>
CCC/C(=C/CO)/C

>  <mulliken_charges>
22
1   -0.437493
2   -0.525265
3   -0.254409
4   -0.322754
5   -0.215613
6   -0.064105
7   0.201438
8   -0.615355
9   0.142702
10   0.142281
11   0.142905
12   0.157514
13   0.156125
14   0.158466
15   0.134251
16   0.13637
17   0.135758
18   0.139527
19   0.126584
20   0.125533
21   0.152124
22   0.383418

>  <lowdin_charges>
22
1   -0.446015
2   -0.448067
3   -0.27038
4   -0.272448
5   -0.2178
6   -0.134265
7   -0.002854
8   -0.472601
9   0.151223
10   0.145811
11   0.146623
12   0.158504
13   0.155027
14   0.158083
15   0.138391
16   0.143016
17   0.146668
18   0.145734
19   0.152366
20   0.130007
21   0.153176
22   0.339801

$$$$

