PCCDB-ID:  32479
public computational chemistry database (PCCDB) project, http://pccdb.org

 34 34  0  0  1  0  0  0  0  0999 V2000
    0.9070    2.4269   -0.9067 C   0  0  0  0  0  0  0  0  0  0  0  0
    9.8585    1.2082   -5.2440 C   0  0  0  0  0  0  0  0  0  0  0  0
    9.3363   -0.4026   -7.1739 C   0  0  0  0  0  0  0  0  0  0  0  0
    2.3599    2.3320   -1.3843 C   0  0  0  0  0  0  0  0  0  0  0  0
    2.8708    0.8862   -1.4611 C   0  0  0  0  0  0  0  0  0  0  0  0
    4.3451    0.7413   -1.8725 C   0  0  0  0  0  0  0  0  0  0  0  0
    4.6570    1.1626   -3.3158 C   0  0  0  0  0  0  0  0  0  0  0  0
    6.1250    0.9329   -3.7026 C   0  0  0  0  0  0  0  0  0  0  0  0
    6.1415    0.3826   -6.3016 C   0  0  0  0  0  0  0  0  0  0  0  0
    8.8200    0.5156   -6.0930 C   0  0  0  0  0  0  0  0  0  0  0  0
    6.4429    1.3470   -5.1326 C   0  0  2  0  0  0  0  0  0  0  0  0
    7.5190    0.7070   -5.9022 C   0  0  0  0  0  0  0  0  0  0  0  0
    0.5671    3.4679   -0.8605 H   0  0  0  0  0  0  0  0  0  0  0  0
    0.7884    1.9926    0.0937 H   0  0  0  0  0  0  0  0  0  0  0  0
    0.2322    1.8863   -1.5821 H   0  0  0  0  0  0  0  0  0  0  0  0
   10.5362    1.8123   -5.8639 H   0  0  0  0  0  0  0  0  0  0  0  0
   10.4881    0.4790   -4.7145 H   0  0  0  0  0  0  0  0  0  0  0  0
    9.3979    1.8654   -4.5008 H   0  0  0  0  0  0  0  0  0  0  0  0
    9.9539   -1.2066   -6.7486 H   0  0  0  0  0  0  0  0  0  0  0  0
    9.9778    0.1412   -7.8818 H   0  0  0  0  0  0  0  0  0  0  0  0
    8.5173   -0.8605   -7.7358 H   0  0  0  0  0  0  0  0  0  0  0  0
    3.0071    2.9066   -0.7058 H   0  0  0  0  0  0  0  0  0  0  0  0
    2.4465    2.8127   -2.3677 H   0  0  0  0  0  0  0  0  0  0  0  0
    2.2408    0.3166   -2.1609 H   0  0  0  0  0  0  0  0  0  0  0  0
    2.7316    0.4138   -0.4778 H   0  0  0  0  0  0  0  0  0  0  0  0
    4.6446   -0.3086   -1.7417 H   0  0  0  0  0  0  0  0  0  0  0  0
    4.9735    1.3219   -1.1803 H   0  0  0  0  0  0  0  0  0  0  0  0
    4.4110    2.2239   -3.4600 H   0  0  0  0  0  0  0  0  0  0  0  0
    4.0113    0.6027   -4.0076 H   0  0  0  0  0  0  0  0  0  0  0  0
    6.3816   -0.1280   -3.5735 H   0  0  0  0  0  0  0  0  0  0  0  0
    6.7759    1.4883   -3.0113 H   0  0  0  0  0  0  0  0  0  0  0  0
    5.7353    0.8026   -7.2219 H   0  0  0  0  0  0  0  0  0  0  0  0
    5.7325   -0.5976   -6.0518 H   0  0  0  0  0  0  0  0  0  0  0  0
    6.2441    2.4011   -5.3433 H   0  0  0  0  0  0  0  0  0  0  0  0
  1 13  1  0  0  0  0
  1 14  1  0  0  0  0
  2 17  1  0  0  0  0
  2 18  1  0  0  0  0
  3 19  1  0  0  0  0
  3 10  1  0  0  0  0
  4  1  1  0  0  0  0
  4 22  1  0  0  0  0
  5  4  1  0  0  0  0
  5 25  1  0  0  0  0
  6 26  1  0  0  0  0
  6  5  1  0  0  0  0
  6 27  1  0  0  0  0
  7  6  1  0  0  0  0
  8 30  1  0  0  0  0
  8  7  1  0  0  0  0
  8 31  1  0  0  0  0
  9 33  1  0  0  0  0
  9 12  1  0  0  0  0
  9 11  1  0  0  0  0
 10 12  2  0  0  0  0
 10  2  1  0  0  0  0
 11 34  1  6  0  0  0
 11  8  1  0  0  0  0
 12 11  1  0  0  0  0
 15  1  1  0  0  0  0
 16  2  1  0  0  0  0
 20  3  1  0  0  0  0
 21  3  1  0  0  0  0
 23  4  1  0  0  0  0
 24  5  1  0  0  0  0
 28  7  1  0  0  0  0
 29  7  1  0  0  0  0
 32  9  1  0  0  0  0
M  END
>  <HBA>
0

>  <HBD>
0

>  <TPSA>
0.0

>  <cid>
32479

>  <dipole>
0.14

>  <excitation_energy_1>
5.739

>  <excitation_energy_2>
6.085

>  <excitation_energy_3>
6.16

>  <excitation_energy_4>
6.248

>  <homo_energy>
-6.144

>  <homo_lumo_gap>
6.863

>  <logP>
4.313

>  <lumo_energy>
0.718

>  <melting_point>
8.66

>  <molecular_refractivity>
57.21

>  <oscillator_strength_1>
0.0163

>  <oscillator_strength_2>
0.0432

>  <oscillator_strength_3>
0.026

>  <oscillator_strength_4>
0.027

>  <open_babel_can_smiles>
CCCCCC[C@@H]1CC1=C(C)C

>  <mulliken_charges>
34
1   -0.441356
2   -0.507421
3   -0.507034
4   -0.248321
5   -0.247106
6   -0.255604
7   -0.251057
8   -0.26003
9   -0.373108
10   0.085732
11   -0.154158
12   0.096285
13   0.14073
14   0.140687
15   0.141153
16   0.147761
17   0.148344
18   0.156625
19   0.147682
20   0.147846
21   0.157645
22   0.128491
23   0.135366
24   0.125523
25   0.125727
26   0.12638
27   0.125582
28   0.131322
29   0.13165
30   0.130323
31   0.131949
32   0.152002
33   0.151042
34   0.139348

>  <lowdin_charges>
34
1   -0.443989
2   -0.441089
3   -0.440953
4   -0.275642
5   -0.276217
6   -0.275677
7   -0.276745
8   -0.265089
9   -0.321559
10   -0.008299
11   -0.148651
12   -0.0651
13   0.1476
14   0.145038
15   0.147451
16   0.153675
17   0.153964
18   0.15918
19   0.153264
20   0.153694
21   0.159931
22   0.139309
23   0.139695
24   0.138376
25   0.139091
26   0.138541
27   0.138266
28   0.137277
29   0.141401
30   0.141103
31   0.143247
32   0.160316
33   0.157625
34   0.150968

$$$$

