PCCDB-ID:  12577
public computational chemistry database (PCCDB) project, http://pccdb.org

 14 14  0  0  0  0  0  0  0  0999 V2000
   -1.1218    0.0492   -0.0001 C   0  0  0  0  0  0  0  0  0  0  0  0
   -0.3107   -1.1148    0.0096 C   0  0  0  0  0  0  0  0  0  0  0  0
   -0.2624    1.1209   -0.0236 C   0  0  0  0  0  0  0  0  0  0  0  0
    0.9764   -0.6481   -0.0096 C   0  0  0  0  0  0  0  0  0  0  0  0
   -0.5640    2.5601   -0.0401 C   0  0  0  0  0  0  0  0  0  0  0  0
    2.2205   -1.3643   -0.0122 N   0  0  0  0  0  0  0  0  0  0  0  0
    0.5422    3.3283   -0.0606 O   0  0  0  0  0  0  0  0  0  0  0  0
   -1.6995    2.9875   -0.0355 O   0  0  0  0  0  0  0  0  0  0  0  0
    2.1244   -2.5940    0.0070 O   0  0  0  0  0  0  0  0  0  0  0  0
    3.2607   -0.7131   -0.0329 O   0  0  0  0  0  0  0  0  0  0  0  0
    1.0338    0.6967   -0.0296 O   0  0  0  0  0  0  0  0  0  0  0  0
   -2.2002    0.1118    0.0096 H   0  0  0  0  0  0  0  0  0  0  0  0
   -0.6114   -2.1509    0.0268 H   0  0  0  0  0  0  0  0  0  0  0  0
    0.2321    4.2535   -0.0698 H   0  0  0  0  0  0  0  0  0  0  0  0
  1  2  1  0  0  0  0
  1 12  1  0  0  0  0
  2 13  1  0  0  0  0
  3  1  2  0  0  0  0
  4  2  2  0  0  0  0
  5  8  2  0  0  0  0
  5  3  1  0  0  0  0
  6  4  1  0  0  0  0
  6  9  2  0  0  0  0
  7  5  1  0  0  0  0
 10  6  2  0  0  0  0
 11  3  1  0  0  0  0
 11  4  1  0  0  0  0
 14  7  1  0  0  0  0
M  END
>  <HBA>
3

>  <HBD>
1

>  <TPSA>
96.26

>  <cid>
12577

>  <dipole>
3.09

>  <excitation_energy_1>
3.677

>  <excitation_energy_2>
4.131

>  <excitation_energy_3>
4.282

>  <excitation_energy_4>
4.423

>  <homo_energy>
-7.693

>  <homo_lumo_gap>
4.64

>  <logP>
1.409

>  <lumo_energy>
-3.053

>  <melting_point>
133.67

>  <molecular_refractivity>
34.49

>  <oscillator_strength_1>
0.0

>  <oscillator_strength_2>
0.0003

>  <oscillator_strength_3>
0.3772

>  <oscillator_strength_4>
0.0

>  <open_babel_can_smiles>
OC(=O)c1ccc(o1)N(=O)=O

>  <mulliken_charges>
14
1   -0.170866
2   -0.146375
3   0.324741
4   0.535853
5   0.518017
6   0.338229
7   -0.556465
8   -0.45802
9   -0.392077
10   -0.374421
11   -0.433518
12   0.192546
13   0.197657
14   0.424701

>  <lowdin_charges>
14
1   -0.147652
2   -0.152308
3   0.057206
4   0.085152
5   0.183204
6   0.301018
7   -0.330886
8   -0.253022
9   -0.241224
10   -0.221549
11   -0.044307
12   0.194461
13   0.19875
14   0.371157

$$$$

