PCCDB-ID:  3806
public computational chemistry database (PCCDB) project, http://pccdb.org

 19 20  0  0  0  0  0  0  0  0999 V2000
    2.4316    0.7326    0.0259 C   0  0  0  0  0  0  0  0  0  0  0  0
    1.2129    1.4066   -0.0337 C   0  0  0  0  0  0  0  0  0  0  0  0
    2.4614   -0.6567    0.0147 C   0  0  0  0  0  0  0  0  0  0  0  0
   -2.5138    0.6754   -0.2476 C   0  0  0  0  0  0  0  0  0  0  0  0
   -2.5093   -0.6661   -0.2603 C   0  0  0  0  0  0  0  0  0  0  0  0
    0.0267    0.6778   -0.1046 C   0  0  0  0  0  0  0  0  0  0  0  0
   -1.2568    1.4478   -0.1682 C   0  0  0  0  0  0  0  0  0  0  0  0
    1.2743   -1.4038   -0.0557 C   0  0  0  0  0  0  0  0  0  0  0  0
   -1.2622   -1.4784   -0.2003 C   0  0  0  0  0  0  0  0  0  0  0  0
    0.0279   -0.7386   -0.1183 C   0  0  0  0  0  0  0  0  0  0  0  0
   -1.2752    2.6739   -0.1563 O   0  0  0  0  0  0  0  0  0  0  0  0
    1.3101   -2.7574   -0.0642 O   0  0  0  0  0  0  0  0  0  0  0  0
   -1.3522   -2.7000   -0.2229 O   0  0  0  0  0  0  0  0  0  0  0  0
    3.3632    1.2886    0.0806 H   0  0  0  0  0  0  0  0  0  0  0  0
    1.1570    2.4892   -0.0256 H   0  0  0  0  0  0  0  0  0  0  0  0
    3.4130   -1.1837    0.0607 H   0  0  0  0  0  0  0  0  0  0  0  0
   -3.4282    1.2604   -0.2935 H   0  0  0  0  0  0  0  0  0  0  0  0
   -3.4232   -1.2511   -0.3177 H   0  0  0  0  0  0  0  0  0  0  0  0
    2.2369   -3.0430   -0.0138 H   0  0  0  0  0  0  0  0  0  0  0  0
  1 14  1  0  0  0  0
  2 15  1  0  0  0  0
  2  1  2  0  0  0  0
  3  1  1  0  0  0  0
  3 16  1  0  0  0  0
  4  7  1  0  0  0  0
  5  4  2  0  0  0  0
  5  9  1  0  0  0  0
  6  2  1  0  0  0  0
  7 11  2  0  0  0  0
  7  6  1  0  0  0  0
  8  3  2  0  0  0  0
  9 10  1  0  0  0  0
 10  6  2  0  0  0  0
 10  8  1  0  0  0  0
 12  8  1  0  0  0  0
 12 19  1  0  0  0  0
 13  9  2  0  0  0  0
 17  4  1  0  0  0  0
 18  5  1  0  0  0  0
M  END
>  <HBA>
3

>  <HBD>
1

>  <TPSA>
54.37

>  <cid>
3806

>  <dipole>
3.08

>  <excitation_energy_1>
2.612

>  <excitation_energy_2>
2.931

>  <excitation_energy_3>
3.094

>  <excitation_energy_4>
3.745

>  <homo_energy>
-6.637

>  <homo_lumo_gap>
3.646

>  <logP>
1.327

>  <lumo_energy>
-2.991

>  <melting_point>
147.45

>  <molecular_refractivity>
46.27

>  <oscillator_strength_1>
0.0

>  <oscillator_strength_2>
0.0

>  <oscillator_strength_3>
0.072

>  <oscillator_strength_4>
0.0099

>  <open_babel_can_smiles>
O=C1C=CC(=O)c2c1c(O)ccc2

>  <mulliken_charges>
19
1   -0.127663
2   -0.174556
3   -0.18139
4   -0.159178
5   -0.157423
6   0.016107
7   0.393739
8   0.303319
9   0.398752
10   0.018511
11   -0.47053
12   -0.596917
13   -0.453205
14   0.149229
15   0.168894
16   0.131725
17   0.163704
18   0.165336
19   0.411545

>  <lowdin_charges>
19
1   -0.127937
2   -0.145739
3   -0.197894
4   -0.156068
5   -0.142339
6   -0.026702
7   0.147217
8   0.127492
9   0.142509
10   -0.070894
11   -0.228281
12   -0.333389
13   -0.212957
14   0.168133
15   0.179002
16   0.160166
17   0.179191
18   0.180052
19   0.358439

$$$$

