PCCDB-ID:  50541
public computational chemistry database (PCCDB) project, http://pccdb.org

 18 17  0  0  0  0  0  0  0  0999 V2000
    1.0933    0.2336    0.5128 C   0  0  0  0  0  0  0  0  0  0  0  0
    5.3150    0.0760    0.9781 C   0  0  0  0  0  0  0  0  0  0  0  0
    5.0217   -2.3275    1.7368 C   0  0  0  0  0  0  0  0  0  0  0  0
    2.4008   -0.1348   -0.2111 C   0  0  0  0  0  0  0  0  0  0  0  0
    3.1797   -1.1996    0.5147 C   0  0  0  0  0  0  0  0  0  0  0  0
    4.4157   -1.1353    1.0335 C   0  0  0  0  0  0  0  0  0  0  0  0
    1.2993    0.6568    1.5024 H   0  0  0  0  0  0  0  0  0  0  0  0
    0.5176    0.9695   -0.0606 H   0  0  0  0  0  0  0  0  0  0  0  0
    0.4590   -0.6496    0.6561 H   0  0  0  0  0  0  0  0  0  0  0  0
    5.6048    0.3889    1.9910 H   0  0  0  0  0  0  0  0  0  0  0  0
    4.8559    0.9343    0.4823 H   0  0  0  0  0  0  0  0  0  0  0  0
    6.2493   -0.1573    0.4482 H   0  0  0  0  0  0  0  0  0  0  0  0
    5.9510   -2.6480    1.2445 H   0  0  0  0  0  0  0  0  0  0  0  0
    4.3377   -3.1819    1.7573 H   0  0  0  0  0  0  0  0  0  0  0  0
    5.2902   -2.0821    2.7743 H   0  0  0  0  0  0  0  0  0  0  0  0
    3.0017    0.7691   -0.3581 H   0  0  0  0  0  0  0  0  0  0  0  0
    2.1505   -0.5006   -1.2187 H   0  0  0  0  0  0  0  0  0  0  0  0
    2.6395   -2.1418    0.6331 H   0  0  0  0  0  0  0  0  0  0  0  0
  1  9  1  0  0  0  0
  1  7  1  0  0  0  0
  2  6  1  0  0  0  0
  2 10  1  0  0  0  0
  3 14  1  0  0  0  0
  3 15  1  0  0  0  0
  4  1  1  0  0  0  0
  4  5  1  0  0  0  0
  5 18  1  0  0  0  0
  5  6  2  0  0  0  0
  6  3  1  0  0  0  0
  8  1  1  0  0  0  0
 11  2  1  0  0  0  0
 12  2  1  0  0  0  0
 13  3  1  0  0  0  0
 16  4  1  0  0  0  0
 17  4  1  0  0  0  0
M  END
>  <HBA>
0

>  <HBD>
0

>  <TPSA>
0.0

>  <cid>
50541

>  <dipole>
0.23

>  <excitation_energy_1>
5.744

>  <excitation_energy_2>
6.169

>  <excitation_energy_3>
6.292

>  <excitation_energy_4>
6.426

>  <homo_energy>
-6.153

>  <homo_lumo_gap>
7.105

>  <logP>
2.363

>  <lumo_energy>
0.952

>  <melting_point>
-13.35

>  <molecular_refractivity>
30.48

>  <oscillator_strength_1>
0.0147

>  <oscillator_strength_2>
0.1342

>  <oscillator_strength_3>
0.0345

>  <oscillator_strength_4>
0.0696

>  <open_babel_can_smiles>
CCC=C(C)C

>  <mulliken_charges>
18
1   -0.437004
2   -0.512215
3   -0.505115
4   -0.293913
5   -0.153574
6   0.186071
7   0.147911
8   0.14017
9   0.142465
10   0.150309
11   0.153565
12   0.15097
13   0.147873
14   0.150045
15   0.147597
16   0.137433
17   0.140134
18   0.107278

>  <lowdin_charges>
18
1   -0.443177
2   -0.444316
3   -0.438417
4   -0.271142
5   -0.190495
6   -0.012421
7   0.148948
8   0.14903
9   0.147238
10   0.15358
11   0.155645
12   0.154532
13   0.151824
14   0.154117
15   0.150398
16   0.145136
17   0.146069
18   0.143453

$$$$

