PCCDB-ID:  36657
public computational chemistry database (PCCDB) project, http://pccdb.org

 43 42  0  0  0  0  0  0  0  0999 V2000
    9.6089   -6.4086    6.0220 C   0  0  0  0  0  0  0  0  0  0  0  0
    8.1903   -5.9908    6.4449 C   0  0  0  0  0  0  0  0  0  0  0  0
    7.6749   -4.8014    5.6772 C   0  0  0  0  0  0  0  0  0  0  0  0
    6.5726   -4.8043    4.9212 C   0  0  0  0  0  0  0  0  0  0  0  0
    5.9725   -3.6422    4.1576 C   0  0  0  0  0  0  0  0  0  0  0  0
    6.8997   -2.4855    3.7252 C   0  0  0  0  0  0  0  0  0  0  0  0
    7.5662   -2.5989    2.3382 C   0  0  0  0  0  0  0  0  0  0  0  0
    8.6609   -3.6691    2.1392 C   0  0  0  0  0  0  0  0  0  0  0  0
    8.2017   -5.1112    1.8534 C   0  0  0  0  0  0  0  0  0  0  0  0
    7.4200   -5.2899    0.5432 C   0  0  0  0  0  0  0  0  0  0  0  0
    7.1507   -6.7597    0.1681 C   0  0  0  0  0  0  0  0  0  0  0  0
    6.3427   -7.5782    1.1909 C   0  0  0  0  0  0  0  0  0  0  0  0
    4.9153   -7.0669    1.4274 C   0  0  0  0  0  0  0  0  0  0  0  0
    4.1370   -7.8898    2.4472 C   0  0  0  0  0  0  0  0  0  0  0  0
    4.7899   -7.7767    3.7126 O   0  0  0  0  0  0  0  0  0  0  0  0
    9.9677   -7.2546    6.6199 H   0  0  0  0  0  0  0  0  0  0  0  0
   10.3198   -5.5832    6.1515 H   0  0  0  0  0  0  0  0  0  0  0  0
    9.6303   -6.7027    4.9667 H   0  0  0  0  0  0  0  0  0  0  0  0
    8.2013   -5.7556    7.5205 H   0  0  0  0  0  0  0  0  0  0  0  0
    7.5020   -6.8360    6.3176 H   0  0  0  0  0  0  0  0  0  0  0  0
    8.2769   -3.8950    5.7643 H   0  0  0  0  0  0  0  0  0  0  0  0
    5.9967   -5.7295    4.8546 H   0  0  0  0  0  0  0  0  0  0  0  0
    5.1629   -3.2281    4.7798 H   0  0  0  0  0  0  0  0  0  0  0  0
    5.4605   -4.0371    3.2684 H   0  0  0  0  0  0  0  0  0  0  0  0
    7.6713   -2.3126    4.4866 H   0  0  0  0  0  0  0  0  0  0  0  0
    6.2976   -1.5671    3.7094 H   0  0  0  0  0  0  0  0  0  0  0  0
    8.0218   -1.6209    2.1296 H   0  0  0  0  0  0  0  0  0  0  0  0
    6.7829   -2.7219    1.5768 H   0  0  0  0  0  0  0  0  0  0  0  0
    9.3119   -3.6763    3.0244 H   0  0  0  0  0  0  0  0  0  0  0  0
    9.2971   -3.3479    1.3013 H   0  0  0  0  0  0  0  0  0  0  0  0
    7.6142   -5.4845    2.6977 H   0  0  0  0  0  0  0  0  0  0  0  0
    9.0997   -5.7465    1.8105 H   0  0  0  0  0  0  0  0  0  0  0  0
    7.9835   -4.8238   -0.2785 H   0  0  0  0  0  0  0  0  0  0  0  0
    6.4680   -4.7452    0.5953 H   0  0  0  0  0  0  0  0  0  0  0  0
    8.1152   -7.2625    0.0085 H   0  0  0  0  0  0  0  0  0  0  0  0
    6.6316   -6.7863   -0.8015 H   0  0  0  0  0  0  0  0  0  0  0  0
    6.8703   -7.6120    2.1502 H   0  0  0  0  0  0  0  0  0  0  0  0
    6.2873   -8.6185    0.8380 H   0  0  0  0  0  0  0  0  0  0  0  0
    4.3537   -7.0728    0.4820 H   0  0  0  0  0  0  0  0  0  0  0  0
    4.9331   -6.0264    1.7756 H   0  0  0  0  0  0  0  0  0  0  0  0
    4.0965   -8.9437    2.1249 H   0  0  0  0  0  0  0  0  0  0  0  0
    3.1000   -7.5222    2.5096 H   0  0  0  0  0  0  0  0  0  0  0  0
    4.3035   -8.3182    4.3518 H   0  0  0  0  0  0  0  0  0  0  0  0
  1 17  1  0  0  0  0
  1  2  1  0  0  0  0
  1 16  1  0  0  0  0
  2 19  1  0  0  0  0
  3 21  1  0  0  0  0
  3  2  1  0  0  0  0
  4  3  2  0  0  0  0
  5 23  1  0  0  0  0
  5  4  1  0  0  0  0
  6  5  1  0  0  0  0
  6 25  1  0  0  0  0
  7  6  1  0  0  0  0
  8  7  1  0  0  0  0
  8 29  1  0  0  0  0
  9  8  1  0  0  0  0
  9 31  1  0  0  0  0
 10 34  1  0  0  0  0
 10  9  1  0  0  0  0
 11 10  1  0  0  0  0
 11 12  1  0  0  0  0
 12 13  1  0  0  0  0
 12 37  1  0  0  0  0
 13 40  1  0  0  0  0
 13 14  1  0  0  0  0
 14 42  1  0  0  0  0
 14 15  1  0  0  0  0
 15 43  1  0  0  0  0
 18  1  1  0  0  0  0
 20  2  1  0  0  0  0
 22  4  1  0  0  0  0
 24  5  1  0  0  0  0
 26  6  1  0  0  0  0
 27  7  1  0  0  0  0
 28  7  1  0  0  0  0
 30  8  1  0  0  0  0
 32  9  1  0  0  0  0
 33 10  1  0  0  0  0
 35 11  1  0  0  0  0
 36 11  1  0  0  0  0
 38 12  1  0  0  0  0
 39 13  1  0  0  0  0
 41 14  1  0  0  0  0
M  END
>  <HBA>
1

>  <HBD>
1

>  <TPSA>
20.23

>  <cid>
36657

>  <dipole>
1.92

>  <excitation_energy_1>
5.625

>  <excitation_energy_2>
5.892

>  <excitation_energy_3>
5.939

>  <excitation_energy_4>
6.144

>  <homo_energy>
-6.117

>  <homo_lumo_gap>
7.121

>  <logP>
4.456

>  <lumo_energy>
1.004

>  <melting_point>
-3.47

>  <molecular_refractivity>
70.1

>  <oscillator_strength_1>
0.0016

>  <oscillator_strength_2>
0.0025

>  <oscillator_strength_3>
0.0362

>  <oscillator_strength_4>
0.028

>  <open_babel_can_smiles>
OCCCCCCCCCC/C=C/CC

>  <mulliken_charges>
43
1   -0.440126
2   -0.294389
3   -0.082774
4   -0.138807
5   -0.307479
6   -0.256054
7   -0.259619
8   -0.252785
9   -0.267579
10   -0.257618
11   -0.258561
12   -0.257006
13   -0.27264
14   -0.034556
15   -0.610498
16   0.138181
17   0.139617
18   0.152202
19   0.13454
20   0.139323
21   0.111576
22   0.148301
23   0.14342
24   0.141876
25   0.134882
26   0.125169
27   0.125318
28   0.129817
29   0.127572
30   0.121049
31   0.163595
32   0.120134
33   0.12252
34   0.130542
35   0.126317
36   0.120758
37   0.162208
38   0.119557
39   0.127686
40   0.154392
41   0.117247
42   0.119125
43   0.393566

>  <lowdin_charges>
43
1   -0.443902
2   -0.265445
3   -0.178396
4   -0.178157
5   -0.279944
6   -0.276921
7   -0.278451
8   -0.277571
9   -0.287252
10   -0.281851
11   -0.274762
12   -0.278699
13   -0.283638
14   -0.127789
15   -0.476466
16   0.14768
17   0.145911
18   0.149566
19   0.141472
20   0.146482
21   0.141403
22   0.158958
23   0.152221
24   0.145634
25   0.141468
26   0.142041
27   0.141308
28   0.138095
29   0.141706
30   0.137371
31   0.15537
32   0.137495
33   0.138837
34   0.135834
35   0.139449
36   0.13597
37   0.153289
38   0.136303
39   0.14332
40   0.146856
41   0.122862
42   0.125309
43   0.347037

$$$$

