PCCDB-ID:  33493
public computational chemistry database (PCCDB) project, http://pccdb.org

 25 25  0  0  0  0  0  0  0  0999 V2000
    3.7491   -3.7721    4.9469 C   0  0  0  0  0  0  0  0  0  0  0  0
   10.0692   -5.6454    3.7033 C   0  0  0  0  0  0  0  0  0  0  0  0
    9.9498   -5.4557    2.3257 C   0  0  0  0  0  0  0  0  0  0  0  0
    9.2777   -4.9008    4.5812 C   0  0  0  0  0  0  0  0  0  0  0  0
    9.0477   -4.5166    1.8292 C   0  0  0  0  0  0  0  0  0  0  0  0
    8.3639   -3.9706    4.0912 C   0  0  0  0  0  0  0  0  0  0  0  0
    4.3848   -2.9224    3.8850 C   0  0  0  0  0  0  0  0  0  0  0  0
    8.2432   -3.7688    2.7072 C   0  0  0  0  0  0  0  0  0  0  0  0
    7.3216   -2.7545    2.1383 C   0  0  0  0  0  0  0  0  0  0  0  0
    3.5246   -1.7468    3.4103 C   0  0  0  0  0  0  0  0  0  0  0  0
    5.5655   -3.2600    3.4841 N   0  0  0  0  0  0  0  0  0  0  0  0
    6.1152   -2.4595    2.4873 N   0  0  0  0  0  0  0  0  0  0  0  0
    7.7830   -2.0440    1.0840 O   0  0  0  0  0  0  0  0  0  0  0  0
    3.9988   -0.9724    2.4341 O   0  0  0  0  0  0  0  0  0  0  0  0
    2.4432   -1.5586    3.9277 O   0  0  0  0  0  0  0  0  0  0  0  0
    2.7976   -4.1806    4.5891 H   0  0  0  0  0  0  0  0  0  0  0  0
    3.5085   -3.1670    5.8278 H   0  0  0  0  0  0  0  0  0  0  0  0
    4.4208   -4.5868    5.2249 H   0  0  0  0  0  0  0  0  0  0  0  0
   10.7756   -6.3733    4.0925 H   0  0  0  0  0  0  0  0  0  0  0  0
   10.5537   -6.0398    1.6374 H   0  0  0  0  0  0  0  0  0  0  0  0
    9.3713   -5.0456    5.6536 H   0  0  0  0  0  0  0  0  0  0  0  0
    8.9379   -4.3929    0.7546 H   0  0  0  0  0  0  0  0  0  0  0  0
    7.7463   -3.3975    4.7708 H   0  0  0  0  0  0  0  0  0  0  0  0
    8.7421   -2.1783    1.0129 H   0  0  0  0  0  0  0  0  0  0  0  0
    4.9006   -1.3166    2.1768 H   0  0  0  0  0  0  0  0  0  0  0  0
  1 18  1  0  0  0  0
  1 17  1  0  0  0  0
  2 19  1  0  0  0  0
  2  4  2  0  0  0  0
  3  2  1  0  0  0  0
  4 21  1  0  0  0  0
  5  3  2  0  0  0  0
  5  8  1  0  0  0  0
  6  4  1  0  0  0  0
  6 23  1  0  0  0  0
  7  1  1  0  0  0  0
  8  6  2  0  0  0  0
  9 12  2  0  0  0  0
  9  8  1  0  0  0  0
 10  7  1  0  0  0  0
 10 15  2  0  0  0  0
 11  7  2  0  0  0  0
 12 11  1  0  0  0  0
 13  9  1  0  0  0  0
 14 10  1  0  0  0  0
 16  1  1  0  0  0  0
 20  3  1  0  0  0  0
 22  5  1  0  0  0  0
 24 13  1  0  0  0  0
 25 14  1  0  0  0  0
M  END
>  <HBA>
5

>  <HBD>
2

>  <TPSA>
78.76

>  <cid>
33493

>  <dipole>
8.7

>  <excitation_energy_1>
3.351

>  <excitation_energy_2>
4.226

>  <excitation_energy_3>
4.429

>  <excitation_energy_4>
4.534

>  <homo_energy>
-6.512

>  <homo_lumo_gap>
4.46

>  <logP>
1.268

>  <lumo_energy>
-2.052

>  <melting_point>
159.08

>  <molecular_refractivity>
54.51

>  <oscillator_strength_1>
0.0008

>  <oscillator_strength_2>
0.0024

>  <oscillator_strength_3>
0.2742

>  <oscillator_strength_4>
0.2528

>  <open_babel_can_smiles>
O/C(=N/N=C(\C(=O)O)/C)/c1ccccc1

>  <mulliken_charges>
25
1   -0.493951
2   -0.116269
3   -0.131378
4   -0.140219
5   -0.193502
6   -0.121911
7   0.240563
8   0.074081
9   0.48904
10   0.583163
11   -0.317124
12   -0.397453
13   -0.565349
14   -0.588335
15   -0.460945
16   0.182401
17   0.180705
18   0.162421
19   0.147182
20   0.147033
21   0.148438
22   0.151751
23   0.165279
24   0.42038
25   0.434

>  <lowdin_charges>
25
1   -0.440861
2   -0.136478
3   -0.152582
4   -0.147927
5   -0.160958
6   -0.12759
7   0.013922
8   -0.04285
9   0.154856
10   0.166355
11   -0.103745
12   -0.16002
13   -0.330276
14   -0.354924
15   -0.251683
16   0.176762
17   0.176233
18   0.164229
19   0.16731
20   0.167909
21   0.165419
22   0.163524
23   0.179491
24   0.363648
25   0.350238

$$$$

