PCCDB-ID:  33201
public computational chemistry database (PCCDB) project, http://pccdb.org

 41 41  0  0  0  0  0  0  0  0999 V2000
    3.1863    0.6023   -2.2330 C   0  0  0  0  0  0  0  0  0  0  0  0
    3.2135   -1.6357    1.4059 C   0  0  0  0  0  0  0  0  0  0  0  0
    3.9463   -0.4540   -1.4291 C   0  0  0  0  0  0  0  0  0  0  0  0
    4.5309   -1.0889    0.8527 C   0  0  0  0  0  0  0  0  0  0  0  0
    8.6337    6.5960    4.8009 C   0  0  0  0  0  0  0  0  0  0  0  0
    8.5609    5.5352    3.8979 C   0  0  0  0  0  0  0  0  0  0  0  0
    8.2136    7.8735    4.4388 C   0  0  0  0  0  0  0  0  0  0  0  0
    7.9323    4.6035    1.6268 C   0  0  0  0  0  0  0  0  0  0  0  0
    5.5035    0.9093   -0.1364 C   0  0  0  0  0  0  0  0  0  0  0  0
    6.6325    3.8182    1.8208 C   0  0  0  0  0  0  0  0  0  0  0  0
    5.4256    1.9796    0.9506 C   0  0  0  0  0  0  0  0  0  0  0  0
    7.6392    7.0341    2.2470 C   0  0  0  0  0  0  0  0  0  0  0  0
    8.0596    5.7507    2.6065 C   0  0  0  0  0  0  0  0  0  0  0  0
    7.7108    8.1086    3.1487 C   0  0  0  0  0  0  0  0  0  0  0  0
    7.3458    9.3992    2.7477 N   0  0  0  0  0  0  0  0  0  0  0  0
    4.3418    0.0166   -0.0960 N   0  0  0  0  0  0  0  0  0  0  0  0
    6.5935    2.7754    0.8649 O   0  0  0  0  0  0  0  0  0  0  0  0
    2.8816    0.1960   -3.2047 H   0  0  0  0  0  0  0  0  0  0  0  0
    3.7956    1.4923   -2.4251 H   0  0  0  0  0  0  0  0  0  0  0  0
    2.2902    0.9194   -1.6896 H   0  0  0  0  0  0  0  0  0  0  0  0
    3.4072   -2.4336    2.1323 H   0  0  0  0  0  0  0  0  0  0  0  0
    2.5763   -2.0550    0.6194 H   0  0  0  0  0  0  0  0  0  0  0  0
    2.6511   -0.8386    1.9033 H   0  0  0  0  0  0  0  0  0  0  0  0
    4.8209   -0.8147   -2.0054 H   0  0  0  0  0  0  0  0  0  0  0  0
    3.2911   -1.3211   -1.2963 H   0  0  0  0  0  0  0  0  0  0  0  0
    5.1241   -1.9085    0.4015 H   0  0  0  0  0  0  0  0  0  0  0  0
    5.1255   -0.7110    1.6914 H   0  0  0  0  0  0  0  0  0  0  0  0
    9.0263    6.4289    5.8009 H   0  0  0  0  0  0  0  0  0  0  0  0
    8.8976    4.5436    4.1899 H   0  0  0  0  0  0  0  0  0  0  0  0
    8.2834    8.6960    5.1474 H   0  0  0  0  0  0  0  0  0  0  0  0
    7.9593    4.9723    0.5949 H   0  0  0  0  0  0  0  0  0  0  0  0
    8.7723    3.9076    1.7390 H   0  0  0  0  0  0  0  0  0  0  0  0
    6.4571    0.3598   -0.0400 H   0  0  0  0  0  0  0  0  0  0  0  0
    5.5379    1.4203   -1.1031 H   0  0  0  0  0  0  0  0  0  0  0  0
    5.7630    4.4870    1.7009 H   0  0  0  0  0  0  0  0  0  0  0  0
    6.5851    3.4080    2.8440 H   0  0  0  0  0  0  0  0  0  0  0  0
    5.3454    1.5220    1.9515 H   0  0  0  0  0  0  0  0  0  0  0  0
    4.5190    2.5880    0.8000 H   0  0  0  0  0  0  0  0  0  0  0  0
    7.2578    7.2104    1.2422 H   0  0  0  0  0  0  0  0  0  0  0  0
    7.0702   10.0142    3.5036 H   0  0  0  0  0  0  0  0  0  0  0  0
    6.6766    9.4322    1.9882 H   0  0  0  0  0  0  0  0  0  0  0  0
  1 20  1  0  0  0  0
  1  3  1  0  0  0  0
  2 23  1  0  0  0  0
  2 21  1  0  0  0  0
  3 25  1  0  0  0  0
  3 16  1  0  0  0  0
  4  2  1  0  0  0  0
  4 27  1  0  0  0  0
  5 28  1  0  0  0  0
  6 29  1  0  0  0  0
  6  5  2  0  0  0  0
  7  5  1  0  0  0  0
  7 30  1  0  0  0  0
  8 32  1  0  0  0  0
  8 10  1  0  0  0  0
  8 13  1  0  0  0  0
  9 16  1  0  0  0  0
  9 33  1  0  0  0  0
  9 11  1  0  0  0  0
 10 36  1  0  0  0  0
 11 37  1  0  0  0  0
 12 13  2  0  0  0  0
 12 14  1  0  0  0  0
 13  6  1  0  0  0  0
 14  7  2  0  0  0  0
 15 14  1  0  0  0  0
 15 40  1  0  0  0  0
 16  4  1  0  0  0  0
 17 11  1  0  0  0  0
 17 10  1  0  0  0  0
 18  1  1  0  0  0  0
 19  1  1  0  0  0  0
 22  2  1  0  0  0  0
 24  3  1  0  0  0  0
 26  4  1  0  0  0  0
 31  8  1  0  0  0  0
 34  9  1  0  0  0  0
 35 10  1  0  0  0  0
 38 11  1  0  0  0  0
 39 12  1  0  0  0  0
 41 15  1  0  0  0  0
M  END
>  <HBA>
3

>  <HBD>
1

>  <TPSA>
38.49

>  <cid>
33201

>  <dipole>
1.94

>  <excitation_energy_1>
4.687

>  <excitation_energy_2>
4.729

>  <excitation_energy_3>
5.281

>  <excitation_energy_4>
5.38

>  <homo_energy>
-5.388

>  <homo_lumo_gap>
5.6

>  <logP>
2.751

>  <lumo_energy>
0.212

>  <melting_point>
46.35

>  <molecular_refractivity>
73.44

>  <oscillator_strength_1>
0.0415

>  <oscillator_strength_2>
0.0054

>  <oscillator_strength_3>
0.0037

>  <oscillator_strength_4>
0.0014

>  <open_babel_can_smiles>
CCN(CCOCCc1cccc(c1)N)CC

>  <mulliken_charges>
41
1   -0.440946
2   -0.439551
3   -0.121413
4   -0.122916
5   -0.133874
6   -0.190366
7   -0.175368
8   -0.364783
9   -0.153728
10   0.004982
11   0.001339
12   -0.231518
13   0.158513
14   0.313948
15   -0.787792
16   -0.382267
17   -0.485002
18   0.138788
19   0.147074
20   0.152976
21   0.139006
22   0.145954
23   0.152819
24   0.114614
25   0.13774
26   0.114576
27   0.13901
28   0.124336
29   0.116114
30   0.113851
31   0.15141
32   0.154355
33   0.129258
34   0.148519
35   0.119603
36   0.12153
37   0.117222
38   0.125146
39   0.110559
40   0.318088
41   0.318194

>  <lowdin_charges>
41
1   -0.450256
2   -0.452479
3   -0.198184
4   -0.199651
5   -0.143524
6   -0.198165
7   -0.206648
8   -0.27609
9   -0.206438
10   -0.125099
11   -0.1337
12   -0.210777
13   0.008144
14   0.061931
15   -0.491869
16   -0.192772
17   -0.276323
18   0.149667
19   0.148461
20   0.153924
21   0.150593
22   0.148582
23   0.154524
24   0.120342
25   0.145103
26   0.120814
27   0.145295
28   0.154857
29   0.15205
30   0.152217
31   0.153369
32   0.156825
33   0.13014
34   0.150941
35   0.126681
36   0.125841
37   0.123412
38   0.129832
39   0.148669
40   0.275181
41   0.274577

$$$$

