PCCDB-ID:  72880
public computational chemistry database (PCCDB) project, http://pccdb.org

 13 13  0  0  0  0  0  0  0  0999 V2000
   -1.3020    0.3562    0.2052 C   0  0  0  0  0  0  0  0  0  0  0  0
   -0.5090   -0.8318    0.1986 C   0  0  0  0  0  0  0  0  0  0  0  0
    1.9438   -1.6044   -0.0082 C   0  0  0  0  0  0  0  0  0  0  0  0
    2.5769   -1.7383   -1.3303 C   0  0  0  0  0  0  0  0  0  0  0  0
   -0.5546    1.4880    0.0407 C   0  0  0  0  0  0  0  0  0  0  0  0
    0.8281   -0.5886    0.0332 C   0  0  0  0  0  0  0  0  0  0  0  0
    3.0807   -1.8402   -2.3707 N   0  0  0  0  0  0  0  0  0  0  0  0
    1.1340    1.1232   -0.1245 S   0  0  0  0  0  0  0  0  0  0  0  0
   -2.3801    0.3624    0.3221 H   0  0  0  0  0  0  0  0  0  0  0  0
   -0.9168   -1.8311    0.3134 H   0  0  0  0  0  0  0  0  0  0  0  0
    2.7286   -1.3662    0.7219 H   0  0  0  0  0  0  0  0  0  0  0  0
    1.5391   -2.5821    0.2788 H   0  0  0  0  0  0  0  0  0  0  0  0
   -0.8897    2.5157    0.0023 H   0  0  0  0  0  0  0  0  0  0  0  0
  1  9  1  0  0  0  0
  2  1  1  0  0  0  0
  2 10  1  0  0  0  0
  3  6  1  0  0  0  0
  3 12  1  0  0  0  0
  3 11  1  0  0  0  0
  4  3  1  0  0  0  0
  5  1  2  0  0  0  0
  6  2  2  0  0  0  0
  7  4  3  0  0  0  0
  8  6  1  0  0  0  0
  8  5  1  0  0  0  0
 13  5  1  0  0  0  0
M  END
>  <HBA>
2

>  <HBD>
0

>  <TPSA>
52.03

>  <cid>
72880

>  <dipole>
4.15

>  <excitation_energy_1>
5.412

>  <excitation_energy_2>
5.674

>  <excitation_energy_3>
5.684

>  <excitation_energy_4>
5.881

>  <homo_energy>
-6.661

>  <homo_lumo_gap>
5.913

>  <logP>
1.814

>  <lumo_energy>
-0.748

>  <melting_point>
39.62

>  <molecular_refractivity>
33.84

>  <oscillator_strength_1>
0.1111

>  <oscillator_strength_2>
0.0444

>  <oscillator_strength_3>
0.0654

>  <oscillator_strength_4>
0.0069

>  <open_babel_can_smiles>
N#CCc1cccs1

>  <mulliken_charges>
13
1   -0.09417
2   -0.117478
3   -0.406256
4   0.36446
5   -0.342635
6   -0.114772
7   -0.458892
8   0.272042
9   0.148332
10   0.144495
11   0.213335
12   0.211343
13   0.180196

>  <lowdin_charges>
13
1   -0.176184
2   -0.183614
3   -0.261834
4   -0.017241
5   -0.310613
6   -0.164509
7   -0.117789
8   0.327333
9   0.167655
10   0.166164
11   0.192273
12   0.193449
13   0.184911

$$$$

