PCCDB-ID:  19043
public computational chemistry database (PCCDB) project, http://pccdb.org

 14 14  0  0  0  0  0  0  0  0999 V2000
    1.0650   -0.1077    0.0291 C   0  0  0  0  0  0  0  0  0  0  0  0
    3.2329    1.1982   -0.1244 C   0  0  0  0  0  0  0  0  0  0  0  0
    4.5672   -1.0971   -0.1215 C   0  0  0  0  0  0  0  0  0  0  0  0
    2.5656   -0.0212   -0.0462 C   0  0  0  0  0  0  0  0  0  0  0  0
    4.6331    1.1540   -0.2034 C   0  0  0  0  0  0  0  0  0  0  0  0
    3.2402   -1.1893   -0.0433 N   0  0  0  0  0  0  0  0  0  0  0  0
    5.3113    0.0103   -0.2024 N   0  0  0  0  0  0  0  0  0  0  0  0
    5.3946    2.2679   -0.2858 O   0  0  0  0  0  0  0  0  0  0  0  0
    0.6020    0.8779    0.1331 H   0  0  0  0  0  0  0  0  0  0  0  0
    0.7675   -0.7347    0.8759 H   0  0  0  0  0  0  0  0  0  0  0  0
    0.6714   -0.5856   -0.8756 H   0  0  0  0  0  0  0  0  0  0  0  0
    2.6892    2.1396   -0.1236 H   0  0  0  0  0  0  0  0  0  0  0  0
    5.1166   -2.0370   -0.1187 H   0  0  0  0  0  0  0  0  0  0  0  0
    4.8171    3.0482   -0.2794 H   0  0  0  0  0  0  0  0  0  0  0  0
  1  9  1  0  0  0  0
  1 10  1  0  0  0  0
  2 12  1  0  0  0  0
  2  4  2  0  0  0  0
  3 13  1  0  0  0  0
  3  6  2  0  0  0  0
  4  6  1  0  0  0  0
  4  1  1  0  0  0  0
  5  7  2  0  0  0  0
  5  2  1  0  0  0  0
  7  3  1  0  0  0  0
  8 14  1  0  0  0  0
  8  5  1  0  0  0  0
 11  1  1  0  0  0  0
M  END
>  <HBA>
2

>  <HBD>
1

>  <TPSA>
45.75

>  <cid>
19043

>  <dipole>
3.79

>  <excitation_energy_1>
4.801

>  <excitation_energy_2>
5.063

>  <excitation_energy_3>
5.541

>  <excitation_energy_4>
6.01

>  <homo_energy>
-6.939

>  <homo_lumo_gap>
6.212

>  <logP>
0.078

>  <lumo_energy>
-0.727

>  <melting_point>
105.37

>  <molecular_refractivity>
29.82

>  <oscillator_strength_1>
0.0016

>  <oscillator_strength_2>
0.0033

>  <oscillator_strength_3>
0.027

>  <oscillator_strength_4>
0.0044

>  <open_babel_can_smiles>
Cc1ncnc(c1)O

>  <mulliken_charges>
14
1   -0.508785
2   -0.238012
3   0.168731
4   0.315749
5   0.516942
6   -0.448155
7   -0.429866
8   -0.589538
9   0.151349
10   0.181985
11   0.181007
12   0.130105
13   0.155682
14   0.412806

>  <lowdin_charges>
14
1   -0.44458
2   -0.259195
3   -0.027095
4   0.087097
5   0.152679
6   -0.188182
7   -0.173306
8   -0.339926
9   0.155177
10   0.176286
11   0.175523
12   0.161575
13   0.162025
14   0.361921

$$$$

