PCCDB-ID:  68086
public computational chemistry database (PCCDB) project, http://pccdb.org

 29 30  0  0  0  0  0  0  0  0999 V2000
    2.4369    1.0360    0.9322 C   0  0  0  0  0  0  0  0  0  0  0  0
    1.0388   -3.3902   -0.4962 C   0  0  0  0  0  0  0  0  0  0  0  0
    7.9291   -2.6141    0.5599 C   0  0  0  0  0  0  0  0  0  0  0  0
    3.5562   -5.0213    1.6294 C   0  0  0  0  0  0  0  0  0  0  0  0
    4.7890   -5.4742    1.9531 C   0  0  0  0  0  0  0  0  0  0  0  0
    2.4606   -0.2323    0.1041 C   0  0  0  0  0  0  0  0  0  0  0  0
    3.7243   -3.6416    1.2362 C   0  0  0  0  0  0  0  0  0  0  0  0
    3.3838   -1.3430    0.5504 C   0  0  0  0  0  0  0  0  0  0  0  0
    4.7734   -1.1215    0.7001 C   0  0  0  0  0  0  0  0  0  0  0  0
    2.8608   -2.6198    0.8109 C   0  0  0  0  0  0  0  0  0  0  0  0
    5.0976   -3.3793    1.3752 C   0  0  0  0  0  0  0  0  0  0  0  0
    5.6561   -2.1340    1.1010 C   0  0  0  0  0  0  0  0  0  0  0  0
    1.7262   -0.3784   -0.8575 O   0  0  0  0  0  0  0  0  0  0  0  0
    5.2912    0.1109    0.4229 O   0  0  0  0  0  0  0  0  0  0  0  0
    1.5122   -2.8635    0.7527 O   0  0  0  0  0  0  0  0  0  0  0  0
    6.9811   -1.7815    1.2448 O   0  0  0  0  0  0  0  0  0  0  0  0
    5.7560   -4.4955    1.8085 O   0  0  0  0  0  0  0  0  0  0  0  0
    2.0943    0.7964    1.9475 H   0  0  0  0  0  0  0  0  0  0  0  0
    1.7513    1.7533    0.4757 H   0  0  0  0  0  0  0  0  0  0  0  0
    3.4389    1.4647    1.0201 H   0  0  0  0  0  0  0  0  0  0  0  0
    1.5448   -4.3333   -0.7412 H   0  0  0  0  0  0  0  0  0  0  0  0
    1.1922   -2.6605   -1.2955 H   0  0  0  0  0  0  0  0  0  0  0  0
   -0.0284   -3.5755   -0.3566 H   0  0  0  0  0  0  0  0  0  0  0  0
    8.9068   -2.1591    0.7299 H   0  0  0  0  0  0  0  0  0  0  0  0
    7.7144   -2.6453   -0.5155 H   0  0  0  0  0  0  0  0  0  0  0  0
    7.9184   -3.6302    0.9639 H   0  0  0  0  0  0  0  0  0  0  0  0
    2.6325   -5.5797    1.6711 H   0  0  0  0  0  0  0  0  0  0  0  0
    5.1593   -6.4279    2.2968 H   0  0  0  0  0  0  0  0  0  0  0  0
    6.2477    0.0440    0.6057 H   0  0  0  0  0  0  0  0  0  0  0  0
  1 20  1  0  0  0  0
  1 18  1  0  0  0  0
  2 23  1  0  0  0  0
  2 15  1  0  0  0  0
  3 24  1  0  0  0  0
  3 26  1  0  0  0  0
  3 16  1  0  0  0  0
  4 27  1  0  0  0  0
  4  5  2  0  0  0  0
  5 28  1  0  0  0  0
  6  8  1  0  0  0  0
  6  1  1  0  0  0  0
  7 11  1  0  0  0  0
  7  4  1  0  0  0  0
  8  9  2  0  0  0  0
  8 10  1  0  0  0  0
  9 12  1  0  0  0  0
 10  7  2  0  0  0  0
 11 17  1  0  0  0  0
 12 16  1  0  0  0  0
 12 11  2  0  0  0  0
 13  6  2  0  0  0  0
 14 29  1  0  0  0  0
 14  9  1  0  0  0  0
 15 10  1  0  0  0  0
 17  5  1  0  0  0  0
 19  1  1  0  0  0  0
 21  2  1  0  0  0  0
 22  2  1  0  0  0  0
 25  3  1  0  0  0  0
M  END
>  <HBA>
5

>  <HBD>
1

>  <TPSA>
68.9

>  <cid>
68086

>  <dipole>
3.91

>  <excitation_energy_1>
4.024

>  <excitation_energy_2>
4.126

>  <excitation_energy_3>
4.701

>  <excitation_energy_4>
4.864

>  <homo_energy>
-5.559

>  <homo_lumo_gap>
4.778

>  <logP>
2.358

>  <lumo_energy>
-0.781

>  <melting_point>
135.97

>  <molecular_refractivity>
61.42

>  <oscillator_strength_1>
0.0276

>  <oscillator_strength_2>
0.003

>  <oscillator_strength_3>
0.0455

>  <oscillator_strength_4>
0.0069

>  <open_babel_can_smiles>
COc1c(O)c(C(=O)C)c(c2c1occ2)OC

>  <mulliken_charges>
29
1   -0.536774
2   -0.218309
3   -0.225778
4   -0.213494
5   0.076779
6   0.419778
7   0.124961
8   -0.012631
9   0.244235
10   0.21165
11   0.28456
12   0.260083
13   -0.435526
14   -0.65651
15   -0.532115
16   -0.55966
17   -0.495442
18   0.172455
19   0.171112
20   0.195867
21   0.134106
22   0.184764
23   0.158542
24   0.167604
25   0.154807
26   0.179359
27   0.158029
28   0.162843
29   0.424703

>  <lowdin_charges>
29
1   -0.474466
2   -0.274984
3   -0.273193
4   -0.197397
5   -0.062907
6   0.18306
7   -0.058263
8   -0.095801
9   0.086449
10   0.103608
11   0.071019
12   0.018432
13   -0.228661
14   -0.376463
15   -0.229133
16   -0.229477
17   -0.118456
18   0.171869
19   0.169681
20   0.181426
21   0.136147
22   0.16244
23   0.15504
24   0.160565
25   0.145757
26   0.157629
27   0.180146
28   0.174846
29   0.361087

$$$$

