PCCDB-ID:  61176
public computational chemistry database (PCCDB) project, http://pccdb.org

 12 11  0  0  0  0  0  0  0  0999 V2000
    1.0903    0.2646    0.0414 C   0  0  0  0  0  0  0  0  0  0  0  0
    0.5106    1.0029   -1.1623 C   0  0  0  0  0  0  0  0  0  0  0  0
    3.8450   -1.2733    1.1760 N   0  0  0  0  0  0  0  0  0  0  0  0
    2.7129    0.5430   -3.6628 N   0  0  0  0  0  0  0  0  0  0  0  0
    2.5643    0.2949   -0.0617 N   0  0  0  0  0  0  0  0  0  0  0  0
    0.7069    0.2672   -2.4251 N   0  0  0  0  0  0  0  0  0  0  0  0
    3.1718   -0.5468    0.6080 N   0  0  0  0  0  0  0  0  0  0  0  0
    1.7835    0.4552   -3.0069 N   0  0  0  0  0  0  0  0  0  0  0  0
    0.7155   -0.7662    0.0596 H   0  0  0  0  0  0  0  0  0  0  0  0
    0.7661    0.7683    0.9633 H   0  0  0  0  0  0  0  0  0  0  0  0
    0.9333    2.0137   -1.2180 H   0  0  0  0  0  0  0  0  0  0  0  0
   -0.5715    1.0899   -1.0346 H   0  0  0  0  0  0  0  0  0  0  0  0
  1  9  1  0  0  0  0
  1 10  1  0  0  0  0
  2 12  1  0  0  0  0
  2  1  1  0  0  0  0
  4  8  2  0  0  0  0
  5  1  1  0  0  0  0
  5  7  2  0  0  0  0
  6  2  1  0  0  0  0
  7  3  2  0  0  0  0
  8  6  2  0  0  0  0
 11  2  1  0  0  0  0
M  RAD  2   3   2   4   2
M  END
>  <HBA>
2

>  <HBD>
0

>  <TPSA>
99.5

>  <cid>
61176

>  <dipole>
3.37

>  <excitation_energy_1>
4.331

>  <excitation_energy_2>
4.375

>  <excitation_energy_3>
5.207

>  <excitation_energy_4>
5.526

>  <homo_energy>
-7.045

>  <homo_lumo_gap>
5.957

>  <logP>
0.513

>  <lumo_energy>
-1.088

>  <melting_point>
69.95

>  <molecular_refractivity>
21.37

>  <oscillator_strength_1>
0.0002

>  <oscillator_strength_2>
0.0003

>  <oscillator_strength_3>
0.0044

>  <oscillator_strength_4>
0.004

>  <open_babel_can_smiles>
[N]=[N]=NCCN=[N]=[N]

>  <mulliken_charges>
12
1   -0.122286
2   -0.160259
3   -0.256061
4   -0.25491
5   -0.386416
6   -0.361047
7   0.42645
8   0.417862
9   0.175328
10   0.167795
11   0.175173
12   0.17837

>  <lowdin_charges>
12
1   -0.194343
2   -0.188185
3   -0.103892
4   -0.101938
5   -0.225826
6   -0.2172
7   0.198686
8   0.193839
9   0.157053
10   0.15699
11   0.15764
12   0.167174

$$$$

