PCCDB-ID:  18045
public computational chemistry database (PCCDB) project, http://pccdb.org

 29 29  0  0  1  0  0  0  0  0999 V2000
    0.4009   -1.5311   -0.5317 C   0  0  0  0  0  0  0  0  0  0  0  0
    7.1923   -2.2280   -3.5167 C   0  0  0  0  0  0  0  0  0  0  0  0
    1.7294   -1.0153   -0.9990 C   0  0  0  0  0  0  0  0  0  0  0  0
    6.3568   -1.3593   -2.5715 C   0  0  0  0  0  0  0  0  0  0  0  0
    2.9162   -1.5296   -0.6650 C   0  0  0  0  0  0  0  0  0  0  0  0
    4.2351   -1.0073   -1.1666 C   0  0  0  0  0  0  0  0  0  0  0  0
    4.1297   -2.2686   -3.3589 C   0  0  0  0  0  0  0  0  0  0  0  0
    5.2325   -3.3198   -1.4348 C   0  0  0  0  0  0  0  0  0  0  0  0
    3.9802   -4.5506   -2.9562 C   0  0  0  0  0  0  0  0  0  0  0  0
    4.9941   -1.9851   -2.1342 C   0  0  1  0  0  0  0  0  0  0  0  0
    3.6840   -3.3995   -3.7315 N   0  0  0  0  0  0  0  0  0  0  0  0
    4.7883   -4.4565   -1.7910 N   0  0  0  0  0  0  0  0  0  0  0  0
    3.8141   -1.2050   -4.1344 O   0  0  0  0  0  0  0  0  0  0  0  0
    5.9925   -3.2865   -0.3142 O   0  0  0  0  0  0  0  0  0  0  0  0
    3.5419   -5.6272   -3.2916 O   0  0  0  0  0  0  0  0  0  0  0  0
   -0.1590   -0.7531    0.0041 H   0  0  0  0  0  0  0  0  0  0  0  0
    0.5125   -2.3938    0.1325 H   0  0  0  0  0  0  0  0  0  0  0  0
   -0.2193   -1.8350   -1.3849 H   0  0  0  0  0  0  0  0  0  0  0  0
    8.1234   -1.7140   -3.7759 H   0  0  0  0  0  0  0  0  0  0  0  0
    6.6550   -2.4392   -4.4470 H   0  0  0  0  0  0  0  0  0  0  0  0
    7.4548   -3.1853   -3.0547 H   0  0  0  0  0  0  0  0  0  0  0  0
    1.6996   -0.1560   -1.6721 H   0  0  0  0  0  0  0  0  0  0  0  0
    6.1618   -0.3846   -3.0391 H   0  0  0  0  0  0  0  0  0  0  0  0
    6.9404   -1.1240   -1.6709 H   0  0  0  0  0  0  0  0  0  0  0  0
    2.9586   -2.3929   -0.0005 H   0  0  0  0  0  0  0  0  0  0  0  0
    4.9022   -0.7804   -0.3217 H   0  0  0  0  0  0  0  0  0  0  0  0
    4.0850   -0.0489   -1.6802 H   0  0  0  0  0  0  0  0  0  0  0  0
    4.2006   -0.3948   -3.7680 H   0  0  0  0  0  0  0  0  0  0  0  0
    6.2847   -2.3799   -0.1321 H   0  0  0  0  0  0  0  0  0  0  0  0
  1 16  1  0  0  0  0
  1 17  1  0  0  0  0
  2 21  1  0  0  0  0
  2  4  1  0  0  0  0
  3  5  2  0  0  0  0
  3  1  1  0  0  0  0
  4 24  1  0  0  0  0
  5 25  1  0  0  0  0
  6  5  1  0  0  0  0
  6 26  1  0  0  0  0
  7 10  1  0  0  0  0
  8 14  1  0  0  0  0
  9 12  1  0  0  0  0
 10  4  1  6  0  0  0
 10  8  1  0  0  0  0
 10  6  1  0  0  0  0
 11  7  2  0  0  0  0
 11  9  2  0  0  0  0
 12  8  2  0  0  0  0
 13 28  1  0  0  0  0
 13  7  1  0  0  0  0
 14 29  1  0  0  0  0
 15  9  2  0  0  0  0
 18  1  1  0  0  0  0
 19  2  1  0  0  0  0
 20  2  1  0  0  0  0
 22  3  1  0  0  0  0
 23  4  1  0  0  0  0
 27  6  1  0  0  0  0
M  END
>  <HBA>
5

>  <HBD>
2

>  <TPSA>
75.27

>  <cid>
18045

>  <dipole>
9.6

>  <excitation_energy_1>
3.995

>  <excitation_energy_2>
4.164

>  <excitation_energy_3>
4.86

>  <excitation_energy_4>
5.251

>  <homo_energy>
-6.846

>  <homo_lumo_gap>
5.385

>  <logP>
1.373

>  <lumo_energy>
-1.461

>  <melting_point>
150.7

>  <molecular_refractivity>
61.76

>  <oscillator_strength_1>
0.0

>  <oscillator_strength_2>
0.0

>  <oscillator_strength_3>
0.0032

>  <oscillator_strength_4>
0.0004

>  <open_babel_can_smiles>
C/C=C/C[C@@]1(CC)C(=N[C](=[N]=C1O)=O)O

>  <mulliken_charges>
29
1   -0.491934
2   -0.46654
3   -0.077528
4   -0.273864
5   -0.097823
6   -0.329897
7   0.563989
8   0.552256
9   0.622423
10   -0.149246
11   -0.472234
12   -0.471484
13   -0.580332
14   -0.581365
15   -0.432765
16   0.159894
17   0.164519
18   0.174477
19   0.161673
20   0.181523
21   0.180859
22   0.125461
23   0.137549
24   0.137135
25   0.151126
26   0.142602
27   0.138859
28   0.414835
29   0.415836

>  <lowdin_charges>
29
1   -0.44057
2   -0.452803
3   -0.137812
4   -0.270161
5   -0.191587
6   -0.267591
7   0.152172
8   0.146567
9   0.174145
10   -0.065707
11   -0.182791
12   -0.18372
13   -0.332037
14   -0.33273
15   -0.209531
16   0.16194
17   0.161894
18   0.169087
19   0.162605
20   0.167274
21   0.166779
22   0.148489
23   0.143177
24   0.143746
25   0.162345
26   0.148159
27   0.147048
28   0.356474
29   0.355136

$$$$

