PCCDB-ID:  62328
public computational chemistry database (PCCDB) project, http://pccdb.org

 37 37  0  0  1  0  0  0  0  0999 V2000
    3.8233   -1.8484    0.6802 C   0  0  0  0  0  0  0  0  0  0  0  0
    7.9420   -0.3087   -0.7192 C   0  0  0  0  0  0  0  0  0  0  0  0
    4.5224    2.8666    3.0276 C   0  0  0  0  0  0  0  0  0  0  0  0
    4.4662    0.8217    4.4918 C   0  0  0  0  0  0  0  0  0  0  0  0
    3.1868   -0.4622    0.4955 C   0  0  0  0  0  0  0  0  0  0  0  0
    7.5487   -0.5402    1.7349 C   0  0  0  0  0  0  0  0  0  0  0  0
    7.2149    1.6951    0.7176 C   0  0  0  0  0  0  0  0  0  0  0  0
    7.1640   -0.0806    3.1205 C   0  0  0  0  0  0  0  0  0  0  0  0
    7.3113    2.2353    2.1506 C   0  0  0  0  0  0  0  0  0  0  0  0
    7.5711    0.2278    0.6387 C   0  0  0  0  0  0  0  0  0  0  0  0
    6.5903    1.3593    3.1984 C   0  0  1  0  0  0  0  0  0  0  0  0
    3.3110    0.4288    1.7209 C   0  0  0  0  0  0  0  0  0  0  0  0
    5.0297    1.4268    3.1952 C   0  0  0  0  0  0  0  0  0  0  0  0
    2.3646    0.9043    2.3144 O   0  0  0  0  0  0  0  0  0  0  0  0
    4.6102    0.6120    2.0435 O   0  0  0  0  0  0  0  0  0  0  0  0
    3.6729   -2.4566   -0.2182 H   0  0  0  0  0  0  0  0  0  0  0  0
    3.3705   -2.3808    1.5242 H   0  0  0  0  0  0  0  0  0  0  0  0
    4.8975   -1.7600    0.8630 H   0  0  0  0  0  0  0  0  0  0  0  0
    8.1560   -1.3823   -0.6895 H   0  0  0  0  0  0  0  0  0  0  0  0
    8.8263    0.2044   -1.1233 H   0  0  0  0  0  0  0  0  0  0  0  0
    7.1322   -0.1453   -1.4448 H   0  0  0  0  0  0  0  0  0  0  0  0
    5.0067    3.5186    3.7636 H   0  0  0  0  0  0  0  0  0  0  0  0
    3.4428    2.9118    3.1757 H   0  0  0  0  0  0  0  0  0  0  0  0
    4.7484    3.2534    2.0298 H   0  0  0  0  0  0  0  0  0  0  0  0
    4.8247    1.4002    5.3506 H   0  0  0  0  0  0  0  0  0  0  0  0
    4.7841   -0.2161    4.6265 H   0  0  0  0  0  0  0  0  0  0  0  0
    3.3760    0.8514    4.4843 H   0  0  0  0  0  0  0  0  0  0  0  0
    2.1194   -0.5436    0.2743 H   0  0  0  0  0  0  0  0  0  0  0  0
    3.6674    0.0502   -0.3479 H   0  0  0  0  0  0  0  0  0  0  0  0
    7.8308   -1.5906    1.6506 H   0  0  0  0  0  0  0  0  0  0  0  0
    7.8873    2.2723    0.0662 H   0  0  0  0  0  0  0  0  0  0  0  0
    6.2034    1.8480    0.3137 H   0  0  0  0  0  0  0  0  0  0  0  0
    8.0527   -0.1403    3.7682 H   0  0  0  0  0  0  0  0  0  0  0  0
    6.4570   -0.8034    3.5450 H   0  0  0  0  0  0  0  0  0  0  0  0
    6.9598    3.2710    2.1935 H   0  0  0  0  0  0  0  0  0  0  0  0
    8.3725    2.2634    2.4335 H   0  0  0  0  0  0  0  0  0  0  0  0
    6.8592    1.7673    4.1824 H   0  0  0  0  0  0  0  0  0  0  0  0
  1 18  1  0  0  0  0
  1 17  1  0  0  0  0
  2 19  1  0  0  0  0
  2 10  1  0  0  0  0
  3 23  1  0  0  0  0
  3 13  1  0  0  0  0
  3 22  1  0  0  0  0
  4 26  1  0  0  0  0
  4 25  1  0  0  0  0
  5  1  1  0  0  0  0
  5 12  1  0  0  0  0
  6  8  1  0  0  0  0
  7  9  1  0  0  0  0
  8 11  1  0  0  0  0
  8 34  1  0  0  0  0
  8 33  1  0  0  0  0
  9 35  1  0  0  0  0
  9 36  1  0  0  0  0
  9 11  1  0  0  0  0
 10  7  1  0  0  0  0
 10  6  2  0  0  0  0
 11 37  1  1  0  0  0
 12 15  1  0  0  0  0
 12 14  2  0  0  0  0
 13 11  1  0  0  0  0
 13  4  1  0  0  0  0
 15 13  1  0  0  0  0
 16  1  1  0  0  0  0
 20  2  1  0  0  0  0
 21  2  1  0  0  0  0
 24  3  1  0  0  0  0
 27  4  1  0  0  0  0
 28  5  1  0  0  0  0
 29  5  1  0  0  0  0
 30  6  1  0  0  0  0
 31  7  1  0  0  0  0
 32  7  1  0  0  0  0
M  END
>  <HBA>
2

>  <HBD>
0

>  <TPSA>
26.3

>  <cid>
62328

>  <dipole>
1.97

>  <excitation_energy_1>
5.372

>  <excitation_energy_2>
5.524

>  <excitation_energy_3>
5.664

>  <excitation_energy_4>
5.95

>  <homo_energy>
-6.128

>  <homo_lumo_gap>
6.569

>  <logP>
3.465

>  <lumo_energy>
0.441

>  <melting_point>
28.04

>  <molecular_refractivity>
63.34

>  <oscillator_strength_1>
0.0013

>  <oscillator_strength_2>
0.0019

>  <oscillator_strength_3>
0.001

>  <oscillator_strength_4>
0.002

>  <open_babel_can_smiles>
CCC(=O)OC([C@@H]1CCC(=CC1)C)(C)C

>  <mulliken_charges>
37
1   -0.460315
2   -0.515899
3   -0.481981
4   -0.480791
5   -0.329574
6   -0.16047
7   -0.321196
8   -0.310254
9   -0.28696
10   0.194775
11   -0.102665
12   0.620594
13   0.319539
14   -0.483418
15   -0.491379
16   0.148476
17   0.151918
18   0.178349
19   0.149887
20   0.148794
21   0.148478
22   0.142681
23   0.185774
24   0.153291
25   0.14268
26   0.150517
27   0.187719
28   0.165732
29   0.162004
30   0.108071
31   0.132063
32   0.149272
33   0.140971
34   0.147103
35   0.134766
36   0.137168
37   0.12428

>  <lowdin_charges>
37
1   -0.442981
2   -0.438915
3   -0.457438
4   -0.458278
5   -0.292986
6   -0.192264
7   -0.280047
8   -0.279071
9   -0.274136
10   -0.015066
11   -0.131514
12   0.202685
13   0.139119
14   -0.27378
15   -0.193816
16   0.153492
17   0.15272
18   0.162807
19   0.152287
20   0.152788
21   0.152691
22   0.155018
23   0.170796
24   0.15477
25   0.154736
26   0.151757
27   0.171221
28   0.162035
29   0.164424
30   0.14407
31   0.146369
32   0.148368
33   0.149607
34   0.153683
35   0.144613
36   0.144658
37   0.145577

$$$$

