PCCDB-ID:  27999
public computational chemistry database (PCCDB) project, http://pccdb.org

 30 31  0  0  0  0  0  0  0  0999 V2000
    0.9235    0.2970    0.1189 C   0  0  0  0  0  0  0  0  0  0  0  0
    2.9473    0.1364   -1.4230 C   0  0  0  0  0  0  0  0  0  0  0  0
    3.2362   -5.1849    2.3692 C   0  0  0  0  0  0  0  0  0  0  0  0
    5.3580    0.7806    3.6831 C   0  0  0  0  0  0  0  0  0  0  0  0
    4.6969    1.5845    2.7624 C   0  0  0  0  0  0  0  0  0  0  0  0
    5.2248   -0.6199    3.6304 C   0  0  0  0  0  0  0  0  0  0  0  0
    3.8978    0.9614    1.7970 C   0  0  0  0  0  0  0  0  0  0  0  0
    4.4332   -1.2381    2.6706 C   0  0  0  0  0  0  0  0  0  0  0  0
    3.7557   -0.4282    1.7518 C   0  0  0  0  0  0  0  0  0  0  0  0
    3.0774    1.4982    0.7073 C   0  0  0  0  0  0  0  0  0  0  0  0
    4.5634   -3.3846    1.6263 C   0  0  0  0  0  0  0  0  0  0  0  0
    2.4456    0.2653    0.0135 C   0  0  0  0  0  0  0  0  0  0  0  0
    4.1615   -4.5638    1.4372 N   0  0  0  0  0  0  0  0  0  0  0  0
    2.8917    2.6520    0.3646 O   0  0  0  0  0  0  0  0  0  0  0  0
    5.4083   -2.7611    0.7753 O   0  0  0  0  0  0  0  0  0  0  0  0
    4.2559   -2.6132    2.7127 O   0  0  0  0  0  0  0  0  0  0  0  0
    2.9389   -0.8880    0.7767 O   0  0  0  0  0  0  0  0  0  0  0  0
    0.5478    1.1978   -0.3761 H   0  0  0  0  0  0  0  0  0  0  0  0
    0.6066    0.3195    1.1663 H   0  0  0  0  0  0  0  0  0  0  0  0
    0.4875   -0.5855   -0.3596 H   0  0  0  0  0  0  0  0  0  0  0  0
    2.6680    1.0330   -1.9850 H   0  0  0  0  0  0  0  0  0  0  0  0
    2.5069   -0.7423   -1.9047 H   0  0  0  0  0  0  0  0  0  0  0  0
    4.0372    0.0377   -1.4445 H   0  0  0  0  0  0  0  0  0  0  0  0
    2.4465   -5.6893    1.8013 H   0  0  0  0  0  0  0  0  0  0  0  0
    2.7708   -4.4819    3.0711 H   0  0  0  0  0  0  0  0  0  0  0  0
    3.7587   -5.9555    2.9503 H   0  0  0  0  0  0  0  0  0  0  0  0
    5.9867    1.2235    4.4490 H   0  0  0  0  0  0  0  0  0  0  0  0
    4.7832    2.6665    2.7788 H   0  0  0  0  0  0  0  0  0  0  0  0
    5.7415   -1.2509    4.3471 H   0  0  0  0  0  0  0  0  0  0  0  0
    5.5367   -3.3906    0.0442 H   0  0  0  0  0  0  0  0  0  0  0  0
  1 19  1  0  0  0  0
  2 12  1  0  0  0  0
  3 26  1  0  0  0  0
  3 25  1  0  0  0  0
  4 27  1  0  0  0  0
  5 28  1  0  0  0  0
  5  4  2  0  0  0  0
  6  4  1  0  0  0  0
  6 29  1  0  0  0  0
  7  5  1  0  0  0  0
  8 16  1  0  0  0  0
  8  6  2  0  0  0  0
  9  7  2  0  0  0  0
  9  8  1  0  0  0  0
 10  7  1  0  0  0  0
 11 16  1  0  0  0  0
 12  1  1  0  0  0  0
 12 10  1  0  0  0  0
 12 17  1  0  0  0  0
 13 11  2  0  0  0  0
 13  3  1  0  0  0  0
 14 10  2  0  0  0  0
 15 11  1  0  0  0  0
 17  9  1  0  0  0  0
 18  1  1  0  0  0  0
 20  1  1  0  0  0  0
 21  2  1  0  0  0  0
 22  2  1  0  0  0  0
 23  2  1  0  0  0  0
 24  3  1  0  0  0  0
 30 15  1  0  0  0  0
M  END
>  <HBA>
5

>  <HBD>
1

>  <TPSA>
64.63

>  <cid>
27999

>  <dipole>
1.06

>  <excitation_energy_1>
3.694

>  <excitation_energy_2>
3.953

>  <excitation_energy_3>
4.5

>  <excitation_energy_4>
4.88

>  <homo_energy>
-6.327

>  <homo_lumo_gap>
4.621

>  <logP>
2.149

>  <lumo_energy>
-1.706

>  <melting_point>
141.61

>  <molecular_refractivity>
60.55

>  <oscillator_strength_1>
0.0006

>  <oscillator_strength_2>
0.0893

>  <oscillator_strength_3>
0.0108

>  <oscillator_strength_4>
0.0447

>  <open_babel_can_smiles>
C/N=C(\Oc1cccc2c1OC(C2=O)(C)C)/O

>  <mulliken_charges>
30
1   -0.446027
2   -0.445324
3   -0.324193
4   -0.154363
5   -0.164512
6   -0.16403
7   0.068541
8   0.304153
9   0.337678
10   0.357403
11   0.716602
12   0.218634
13   -0.476707
14   -0.484939
15   -0.592112
16   -0.539304
17   -0.554515
18   0.174216
19   0.162195
20   0.161921
21   0.173645
22   0.160934
23   0.163876
24   0.155814
25   0.154046
26   0.155516
27   0.14271
28   0.159364
29   0.153732
30   0.425048

>  <lowdin_charges>
30
1   -0.437756
2   -0.437216
3   -0.356132
4   -0.1679
5   -0.122772
6   -0.142935
7   -0.086571
8   0.072397
9   0.102338
10   0.137945
11   0.190932
12   0.109167
13   -0.252896
14   -0.241025
15   -0.35956
16   -0.155806
17   -0.185088
18   0.170944
19   0.161295
20   0.162476
21   0.170397
22   0.16192
23   0.16134
24   0.154166
25   0.145954
26   0.153476
27   0.1665
28   0.173382
29   0.176473
30   0.374556

$$$$

