PCCDB-ID:  55759
public computational chemistry database (PCCDB) project, http://pccdb.org

 23 23  0  0  0  0  0  0  0  0999 V2000
    0.8635    0.1751   -0.1688 C   0  0  0  0  0  0  0  0  0  0  0  0
    2.3903    0.1786   -0.0473 C   0  0  0  0  0  0  0  0  0  0  0  0
    8.6412    2.3792    1.9220 C   0  0  0  0  0  0  0  0  0  0  0  0
    7.3900    2.2032    2.6024 C   0  0  0  0  0  0  0  0  0  0  0  0
    2.9161    1.3227    0.8212 C   0  0  0  0  0  0  0  0  0  0  0  0
    8.3294    2.6833    0.6340 C   0  0  0  0  0  0  0  0  0  0  0  0
    4.9179    2.3866    1.7201 C   0  0  0  0  0  0  0  0  0  0  0  0
    6.4084    2.4160    1.6813 C   0  0  0  0  0  0  0  0  0  0  0  0
    4.3729    1.2796    0.9277 N   0  0  0  0  0  0  0  0  0  0  0  0
    6.9744    2.7144    0.4667 O   0  0  0  0  0  0  0  0  0  0  0  0
    0.5184   -0.6520   -0.7989 H   0  0  0  0  0  0  0  0  0  0  0  0
    0.4954    1.1080   -0.6130 H   0  0  0  0  0  0  0  0  0  0  0  0
    0.3873    0.0656    0.8133 H   0  0  0  0  0  0  0  0  0  0  0  0
    2.8369    0.2540   -1.0498 H   0  0  0  0  0  0  0  0  0  0  0  0
    2.7413   -0.7706    0.3756 H   0  0  0  0  0  0  0  0  0  0  0  0
    9.6341    2.2907    2.3408 H   0  0  0  0  0  0  0  0  0  0  0  0
    7.2411    1.9435    3.6415 H   0  0  0  0  0  0  0  0  0  0  0  0
    2.5030    1.2294    1.8359 H   0  0  0  0  0  0  0  0  0  0  0  0
    2.5450    2.2905    0.4252 H   0  0  0  0  0  0  0  0  0  0  0  0
    8.9146    2.8994   -0.2469 H   0  0  0  0  0  0  0  0  0  0  0  0
    4.5246    3.3707    1.3942 H   0  0  0  0  0  0  0  0  0  0  0  0
    4.6062    2.2563    2.7635 H   0  0  0  0  0  0  0  0  0  0  0  0
    4.7760    1.3305   -0.0076 H   0  0  0  0  0  0  0  0  0  0  0  0
  1  2  1  0  0  0  0
  1 13  1  0  0  0  0
  2 15  1  0  0  0  0
  2  5  1  0  0  0  0
  3 16  1  0  0  0  0
  3  4  1  0  0  0  0
  4 17  1  0  0  0  0
  5  9  1  0  0  0  0
  5 18  1  0  0  0  0
  6  3  2  0  0  0  0
  7 22  1  0  0  0  0
  8  7  1  0  0  0  0
  8  4  2  0  0  0  0
  9  7  1  0  0  0  0
 10  6  1  0  0  0  0
 10  8  1  0  0  0  0
 11  1  1  0  0  0  0
 12  1  1  0  0  0  0
 14  2  1  0  0  0  0
 19  5  1  0  0  0  0
 20  6  1  0  0  0  0
 21  7  1  0  0  0  0
 23  9  1  0  0  0  0
M  END
>  <HBA>
2

>  <HBD>
1

>  <TPSA>
25.17

>  <cid>
55759

>  <dipole>
0.51

>  <excitation_energy_1>
5.348

>  <excitation_energy_2>
5.576

>  <excitation_energy_3>
5.737

>  <excitation_energy_4>
5.873

>  <homo_energy>
-5.878

>  <homo_lumo_gap>
6.357

>  <logP>
2.17

>  <lumo_energy>
0.479

>  <melting_point>
31.57

>  <molecular_refractivity>
40.9

>  <oscillator_strength_1>
0.0121

>  <oscillator_strength_2>
0.0106

>  <oscillator_strength_3>
0.0042

>  <oscillator_strength_4>
0.1934

>  <open_babel_can_smiles>
CCCNCc1ccco1

>  <mulliken_charges>
23
1   -0.445663
2   -0.258951
3   -0.182592
4   -0.201231
5   -0.100583
6   0.082393
7   -0.189324
8   0.333823
9   -0.558109
10   -0.443998
11   0.145999
12   0.142773
13   0.143749
14   0.127972
15   0.150062
16   0.139323
17   0.137295
18   0.134373
19   0.106986
20   0.150984
21   0.129438
22   0.15405
23   0.301233

>  <lowdin_charges>
23
1   -0.445211
2   -0.275057
3   -0.203689
4   -0.211469
5   -0.200298
6   -0.083905
7   -0.197318
8   0.064044
9   -0.362403
10   -0.1125
11   0.152822
12   0.147079
13   0.147212
14   0.137103
15   0.149676
16   0.167768
17   0.166682
18   0.137788
19   0.113406
20   0.169991
21   0.129769
22   0.154754
23   0.253757

$$$$

