PCCDB-ID:  67244
public computational chemistry database (PCCDB) project, http://pccdb.org

 35 34  0  0  0  0  0  0  0  0999 V2000
    0.4700   -1.2016    0.2475 C   0  0  0  0  0  0  0  0  0  0  0  0
    3.2852   -0.1120   -5.1277 C   0  0  0  0  0  0  0  0  0  0  0  0
    9.2398   -0.7559   -3.0778 C   0  0  0  0  0  0  0  0  0  0  0  0
    1.9228   -0.7158    0.2321 C   0  0  0  0  0  0  0  0  0  0  0  0
    4.7376   -0.5328   -4.9645 C   0  0  0  0  0  0  0  0  0  0  0  0
    8.8971   -1.9168   -2.1569 C   0  0  0  0  0  0  0  0  0  0  0  0
    2.8311   -1.5626   -0.6692 C   0  0  0  0  0  0  0  0  0  0  0  0
    4.2820   -1.0664   -0.6796 C   0  0  0  0  0  0  0  0  0  0  0  0
    5.2240   -1.9271   -1.5448 C   0  0  0  0  0  0  0  0  0  0  0  0
    4.8209   -1.9092   -3.0174 C   0  0  0  0  0  0  0  0  0  0  0  0
    6.6819   -1.4959   -1.3782 C   0  0  0  0  0  0  0  0  0  0  0  0
    4.3023   -2.8310   -3.6063 O   0  0  0  0  0  0  0  0  0  0  0  0
    7.0772   -0.6532   -0.6041 O   0  0  0  0  0  0  0  0  0  0  0  0
    5.0857   -0.7028   -3.5681 O   0  0  0  0  0  0  0  0  0  0  0  0
    7.4796   -2.2169   -2.1950 O   0  0  0  0  0  0  0  0  0  0  0  0
   -0.1542   -0.5735    0.8931 H   0  0  0  0  0  0  0  0  0  0  0  0
    0.4002   -2.2321    0.6168 H   0  0  0  0  0  0  0  0  0  0  0  0
    0.0341   -1.1821   -0.7590 H   0  0  0  0  0  0  0  0  0  0  0  0
    3.0726    0.0838   -6.1851 H   0  0  0  0  0  0  0  0  0  0  0  0
    3.0779    0.8018   -4.5613 H   0  0  0  0  0  0  0  0  0  0  0  0
    2.6134   -0.9039   -4.7847 H   0  0  0  0  0  0  0  0  0  0  0  0
   10.3244   -0.5980   -3.0878 H   0  0  0  0  0  0  0  0  0  0  0  0
    8.7618    0.1647   -2.7316 H   0  0  0  0  0  0  0  0  0  0  0  0
    8.9117   -0.9621   -4.1017 H   0  0  0  0  0  0  0  0  0  0  0  0
    2.3223   -0.7223    1.2561 H   0  0  0  0  0  0  0  0  0  0  0  0
    1.9565    0.3314   -0.1001 H   0  0  0  0  0  0  0  0  0  0  0  0
    5.4217    0.2421   -5.3188 H   0  0  0  0  0  0  0  0  0  0  0  0
    4.9419   -1.4679   -5.4915 H   0  0  0  0  0  0  0  0  0  0  0  0
    9.1822   -1.7031   -1.1239 H   0  0  0  0  0  0  0  0  0  0  0  0
    9.3758   -2.8434   -2.4825 H   0  0  0  0  0  0  0  0  0  0  0  0
    2.4247   -1.5662   -1.6903 H   0  0  0  0  0  0  0  0  0  0  0  0
    2.8035   -2.6092   -0.3320 H   0  0  0  0  0  0  0  0  0  0  0  0
    4.6829   -1.0593    0.3402 H   0  0  0  0  0  0  0  0  0  0  0  0
    4.3297   -0.0298   -1.0327 H   0  0  0  0  0  0  0  0  0  0  0  0
    5.1567   -2.9780   -1.2404 H   0  0  0  0  0  0  0  0  0  0  0  0
  1 17  1  0  0  0  0
  1 16  1  0  0  0  0
  2  5  1  0  0  0  0
  2 21  1  0  0  0  0
  2 20  1  0  0  0  0
  3 23  1  0  0  0  0
  3  6  1  0  0  0  0
  4  1  1  0  0  0  0
  4 25  1  0  0  0  0
  5 14  1  0  0  0  0
  6 29  1  0  0  0  0
  7 32  1  0  0  0  0
  7  4  1  0  0  0  0
  8  7  1  0  0  0  0
  8 33  1  0  0  0  0
  9 11  1  0  0  0  0
  9 35  1  0  0  0  0
  9  8  1  0  0  0  0
 10  9  1  0  0  0  0
 11 13  2  0  0  0  0
 12 10  2  0  0  0  0
 14 10  1  0  0  0  0
 15  6  1  0  0  0  0
 15 11  1  0  0  0  0
 18  1  1  0  0  0  0
 19  2  1  0  0  0  0
 22  3  1  0  0  0  0
 24  3  1  0  0  0  0
 26  4  1  0  0  0  0
 27  5  1  0  0  0  0
 28  5  1  0  0  0  0
 30  6  1  0  0  0  0
 31  7  1  0  0  0  0
 34  8  1  0  0  0  0
M  END
>  <HBA>
4

>  <HBD>
0

>  <TPSA>
52.6

>  <cid>
67244

>  <dipole>
1.55

>  <excitation_energy_1>
5.615

>  <excitation_energy_2>
5.785

>  <excitation_energy_3>
6.657

>  <excitation_energy_4>
6.898

>  <homo_energy>
-7.165

>  <homo_lumo_gap>
7.227

>  <logP>
1.919

>  <lumo_energy>
0.063

>  <melting_point>
-5.0

>  <molecular_refractivity>
57.56

>  <oscillator_strength_1>
0.0081

>  <oscillator_strength_2>
0.0037

>  <oscillator_strength_3>
0.0009

>  <oscillator_strength_4>
0.0398

>  <open_babel_can_smiles>
CCCCC(C(=O)OCC)C(=O)OCC

>  <mulliken_charges>
35
1   -0.442259
2   -0.464032
3   -0.461217
4   -0.248625
5   -0.046064
6   -0.047325
7   -0.261135
8   -0.265673
9   -0.265164
10   0.639459
11   0.645366
12   -0.48213
13   -0.48019
14   -0.460352
15   -0.464244
16   0.142978
17   0.143305
18   0.142754
19   0.152112
20   0.15887
21   0.17708
22   0.150833
23   0.178426
24   0.158025
25   0.13371
26   0.132845
27   0.154614
28   0.172638
29   0.171424
30   0.156033
31   0.141372
32   0.133798
33   0.158686
34   0.158983
35   0.185099

>  <lowdin_charges>
35
1   -0.444035
2   -0.455086
3   -0.451704
4   -0.26892
5   -0.127031
6   -0.124582
7   -0.275819
8   -0.266543
9   -0.168203
10   0.200874
11   0.19857
12   -0.259308
13   -0.257028
14   -0.195177
15   -0.191878
16   0.151424
17   0.146314
18   0.146362
19   0.158608
20   0.157098
21   0.166221
22   0.157381
23   0.166796
24   0.155702
25   0.139558
26   0.138844
27   0.154645
28   0.160259
29   0.158154
30   0.154646
31   0.142551
32   0.14012
33   0.157317
34   0.154444
35   0.179424

$$$$

