PCCDB-ID:  30800
public computational chemistry database (PCCDB) project, http://pccdb.org

 36 35  0  0  0  0  0  0  0  0999 V2000
    2.7853    2.7349   -2.0158 C   0  0  0  0  0  0  0  0  0  0  0  0
    3.1746   -0.0802    1.6261 C   0  0  0  0  0  0  0  0  0  0  0  0
    6.1502    8.0664   -2.6691 C   0  0  0  0  0  0  0  0  0  0  0  0
    9.0247    4.2575   -1.7347 C   0  0  0  0  0  0  0  0  0  0  0  0
    2.7613    1.6590   -0.9267 C   0  0  0  0  0  0  0  0  0  0  0  0
    2.9017    1.4316    1.5275 C   0  0  0  0  0  0  0  0  0  0  0  0
    6.6606    6.6562   -2.8995 C   0  0  0  0  0  0  0  0  0  0  0  0
    4.8267    2.3093    0.2659 C   0  0  0  0  0  0  0  0  0  0  0  0
    5.1601    3.7693    0.6032 C   0  0  0  0  0  0  0  0  0  0  0  0
    3.3808    2.1046    0.3219 N   0  0  0  0  0  0  0  0  0  0  0  0
    6.3579    3.6676   -2.3869 O   0  0  0  0  0  0  0  0  0  0  0  0
    6.9967    6.0875   -1.6079 O   0  0  0  0  0  0  0  0  0  0  0  0
    7.2323    4.4764   -1.4829 P   0  0  2  0  0  0  0  0  0  0  0  0
    6.9820    4.1368    0.5821 S   0  0  0  0  0  0  0  0  0  0  0  0
    2.2804    2.3696   -2.9183 H   0  0  0  0  0  0  0  0  0  0  0  0
    3.8074    3.0133   -2.2946 H   0  0  0  0  0  0  0  0  0  0  0  0
    2.2660    3.6357   -1.6692 H   0  0  0  0  0  0  0  0  0  0  0  0
    2.8000   -0.4744    2.5784 H   0  0  0  0  0  0  0  0  0  0  0  0
    4.2469   -0.3010    1.5719 H   0  0  0  0  0  0  0  0  0  0  0  0
    2.6780   -0.6297    0.8187 H   0  0  0  0  0  0  0  0  0  0  0  0
    5.9017    8.5330   -3.6292 H   0  0  0  0  0  0  0  0  0  0  0  0
    6.9077    8.6795   -2.1708 H   0  0  0  0  0  0  0  0  0  0  0  0
    5.2509    8.0537   -2.0457 H   0  0  0  0  0  0  0  0  0  0  0  0
    9.5929    4.8737   -1.0318 H   0  0  0  0  0  0  0  0  0  0  0  0
    9.2738    4.5590   -2.7572 H   0  0  0  0  0  0  0  0  0  0  0  0
    9.2905    3.2058   -1.6005 H   0  0  0  0  0  0  0  0  0  0  0  0
    3.2238    0.7336   -1.3198 H   0  0  0  0  0  0  0  0  0  0  0  0
    1.7176    1.4086   -0.6973 H   0  0  0  0  0  0  0  0  0  0  0  0
    3.3534    1.9366    2.3913 H   0  0  0  0  0  0  0  0  0  0  0  0
    1.8203    1.6080    1.6035 H   0  0  0  0  0  0  0  0  0  0  0  0
    7.5607    6.6631   -3.5287 H   0  0  0  0  0  0  0  0  0  0  0  0
    5.9088    6.0260   -3.3831 H   0  0  0  0  0  0  0  0  0  0  0  0
    5.3579    1.6481    0.9656 H   0  0  0  0  0  0  0  0  0  0  0  0
    5.2090    2.0832   -0.7335 H   0  0  0  0  0  0  0  0  0  0  0  0
    4.8402    4.0233    1.6182 H   0  0  0  0  0  0  0  0  0  0  0  0
    4.6498    4.4494   -0.0816 H   0  0  0  0  0  0  0  0  0  0  0  0
  1 17  1  0  0  0  0
  1  5  1  0  0  0  0
  2 18  1  0  0  0  0
  3 22  1  0  0  0  0
  3 23  1  0  0  0  0
  4 26  1  0  0  0  0
  4 13  1  0  0  0  0
  4 24  1  0  0  0  0
  5 28  1  0  0  0  0
  5 10  1  0  0  0  0
  6 30  1  0  0  0  0
  6  2  1  0  0  0  0
  6 29  1  0  0  0  0
  7  3  1  0  0  0  0
  7 12  1  0  0  0  0
  8 10  1  0  0  0  0
  8  9  1  0  0  0  0
  8 33  1  0  0  0  0
  9 35  1  0  0  0  0
 10  6  1  0  0  0  0
 12 13  1  0  0  0  0
 13 11  2  6  0  0  0
 13 14  1  0  0  0  0
 14  9  1  0  0  0  0
 15  1  1  0  0  0  0
 16  1  1  0  0  0  0
 19  2  1  0  0  0  0
 20  2  1  0  0  0  0
 21  3  1  0  0  0  0
 25  4  1  0  0  0  0
 27  5  1  0  0  0  0
 31  7  1  0  0  0  0
 32  7  1  0  0  0  0
 34  8  1  0  0  0  0
 36  9  1  0  0  0  0
M  END
>  <HBA>
4

>  <HBD>
0

>  <TPSA>
64.65

>  <cid>
30800

>  <dipole>
1.37

>  <excitation_energy_1>
4.659

>  <excitation_energy_2>
4.994

>  <excitation_energy_3>
5.066

>  <excitation_energy_4>
5.311

>  <homo_energy>
-5.328

>  <homo_lumo_gap>
5.701

>  <logP>
2.921

>  <lumo_energy>
0.373

>  <melting_point>
-12.81

>  <molecular_refractivity>
65.61

>  <oscillator_strength_1>
0.035

>  <oscillator_strength_2>
0.0139

>  <oscillator_strength_3>
0.0099

>  <oscillator_strength_4>
0.009

>  <open_babel_can_smiles>
CCO[P@](=O)(SCCN(CC)CC)C

>  <mulliken_charges>
36
1   -0.466534
2   -0.451741
3   -0.45209
4   -0.662095
5   -0.118495
6   -0.134895
7   -0.039303
8   -0.144028
9   -0.414644
10   -0.372692
11   -0.567632
12   -0.53535
13   0.939619
14   -0.095312
15   0.133499
16   0.191003
17   0.139933
18   0.14023
19   0.148028
20   0.149621
21   0.149444
22   0.162279
23   0.165969
24   0.196045
25   0.192576
26   0.200678
27   0.118296
28   0.130373
29   0.13334
30   0.138033
31   0.139293
32   0.17649
33   0.137762
34   0.18804
35   0.180068
36   0.204192

>  <lowdin_charges>
36
1   -0.460407
2   -0.465232
3   -0.447969
4   -0.631065
5   -0.192418
6   -0.198105
7   -0.121174
8   -0.20954
9   -0.365651
10   -0.188891
11   -0.610113
12   -0.419483
13   0.909843
14   -0.055588
15   0.148416
16   0.16717
17   0.147147
18   0.151231
19   0.147318
20   0.151336
21   0.157948
22   0.160391
23   0.161438
24   0.19071
25   0.186638
26   0.191437
27   0.120182
28   0.139178
29   0.140426
30   0.139363
31   0.139508
32   0.162807
33   0.141461
34   0.166957
35   0.167944
36   0.176787

$$$$

