PCCDB-ID:  53726
public computational chemistry database (PCCDB) project, http://pccdb.org

 24 23  0  0  0  0  0  0  0  0999 V2000
    4.2094    0.5061    5.0490 C   0  0  0  0  0  0  0  0  0  0  0  0
    4.4636   -0.7226   -2.2197 C   0  0  0  0  0  0  0  0  0  0  0  0
    3.1964   -0.2465    4.1883 C   0  0  0  0  0  0  0  0  0  0  0  0
    4.3301   -1.9867    0.0169 C   0  0  0  0  0  0  0  0  0  0  0  0
    2.8386   -1.6453    2.0496 C   0  0  0  0  0  0  0  0  0  0  0  0
    3.6258   -1.1019   -1.0147 C   0  0  0  0  0  0  0  0  0  0  0  0
    3.8277   -0.9995    3.0264 C   0  0  0  0  0  0  0  0  0  0  0  0
    3.1099   -3.7997    1.1225 N   0  0  0  0  0  0  0  0  0  0  0  0
    3.4530   -2.4953    1.0532 N   0  0  0  0  0  0  0  0  0  0  0  0
    2.4782   -0.7272   -0.8722 O   0  0  0  0  0  0  0  0  0  0  0  0
    5.0310   -1.0746    2.8686 O   0  0  0  0  0  0  0  0  0  0  0  0
    3.5912   -4.5233    0.2613 O   0  0  0  0  0  0  0  0  0  0  0  0
    3.7063    1.0110    5.8797 H   0  0  0  0  0  0  0  0  0  0  0  0
    4.7423    1.2590    4.4603 H   0  0  0  0  0  0  0  0  0  0  0  0
    4.9570   -0.1780    5.4602 H   0  0  0  0  0  0  0  0  0  0  0  0
    3.9728    0.0798   -2.7739 H   0  0  0  0  0  0  0  0  0  0  0  0
    4.5705   -1.5961   -2.8763 H   0  0  0  0  0  0  0  0  0  0  0  0
    5.4742   -0.4162   -1.9258 H   0  0  0  0  0  0  0  0  0  0  0  0
    2.4325    0.4336    3.7837 H   0  0  0  0  0  0  0  0  0  0  0  0
    2.6369   -0.9788    4.7899 H   0  0  0  0  0  0  0  0  0  0  0  0
    5.1504   -1.4271    0.4813 H   0  0  0  0  0  0  0  0  0  0  0  0
    4.7593   -2.8643   -0.4784 H   0  0  0  0  0  0  0  0  0  0  0  0
    2.2542   -0.8594    1.5538 H   0  0  0  0  0  0  0  0  0  0  0  0
    2.1326   -2.2747    2.6027 H   0  0  0  0  0  0  0  0  0  0  0  0
  1 15  1  0  0  0  0
  1 13  1  0  0  0  0
  2 18  1  0  0  0  0
  2  6  1  0  0  0  0
  3 20  1  0  0  0  0
  3  1  1  0  0  0  0
  4 21  1  0  0  0  0
  4  9  1  0  0  0  0
  5 24  1  0  0  0  0
  5  7  1  0  0  0  0
  6 10  2  0  0  0  0
  6  4  1  0  0  0  0
  7  3  1  0  0  0  0
  9  8  1  0  0  0  0
  9  5  1  0  0  0  0
 11  7  2  0  0  0  0
 12  8  2  0  0  0  0
 14  1  1  0  0  0  0
 16  2  1  0  0  0  0
 17  2  1  0  0  0  0
 19  3  1  0  0  0  0
 22  4  1  0  0  0  0
 23  5  1  0  0  0  0
M  END
>  <HBA>
5

>  <HBD>
0

>  <TPSA>
66.81

>  <cid>
53726

>  <dipole>
3.42

>  <excitation_energy_1>
3.423

>  <excitation_energy_2>
4.328

>  <excitation_energy_3>
4.406

>  <excitation_energy_4>
4.689

>  <homo_energy>
-6.319

>  <homo_lumo_gap>
5.246

>  <logP>
0.538

>  <lumo_energy>
-1.072

>  <melting_point>
37.24

>  <molecular_refractivity>
43.8

>  <oscillator_strength_1>
0.0009

>  <oscillator_strength_2>
0.0035

>  <oscillator_strength_3>
0.0013

>  <oscillator_strength_4>
0.0003

>  <open_babel_can_smiles>
O=NN(CC(=O)C)CC(=O)CC

>  <mulliken_charges>
24
1   -0.435778
2   -0.533987
3   -0.356677
4   -0.266188
5   -0.237659
6   0.459304
7   0.455724
8   0.166171
9   -0.200979
10   -0.432196
11   -0.438794
12   -0.37344
13   0.14764
14   0.160492
15   0.168608
16   0.18676
17   0.188684
18   0.172062
19   0.166415
20   0.172172
21   0.213566
22   0.213118
23   0.209413
24   0.195571

>  <lowdin_charges>
24
1   -0.442182
2   -0.473965
3   -0.3101
4   -0.266426
5   -0.245161
6   0.164265
7   0.156468
8   0.063517
9   -0.023107
10   -0.231699
11   -0.229939
12   -0.260927
13   0.15554
14   0.15994
15   0.16397
16   0.178696
17   0.182039
18   0.170269
19   0.165562
20   0.169469
21   0.190273
22   0.193293
23   0.184986
24   0.185219

$$$$

