PCCDB-ID:  15417
public computational chemistry database (PCCDB) project, http://pccdb.org

 28 29  0  0  0  0  0  0  0  0999 V2000
   -1.0820   -0.8698    1.0483 C   0  0  0  0  0  0  0  0  0  0  0  0
    0.3583   -1.3678    0.8242 C   0  0  0  0  0  0  0  0  0  0  0  0
    1.7421    2.3170   -3.3914 C   0  0  0  0  0  0  0  0  0  0  0  0
    1.4924    0.8581   -3.8176 C   0  0  0  0  0  0  0  0  0  0  0  0
   -1.3334    0.0207   -0.1766 C   0  0  0  0  0  0  0  0  0  0  0  0
    1.0980   -0.1760    0.1582 C   0  0  0  0  0  0  0  0  0  0  0  0
    1.4652    2.2863   -1.8824 C   0  0  0  0  0  0  0  0  0  0  0  0
    0.3167    0.3746   -2.9253 C   0  0  0  0  0  0  0  0  0  0  0  0
   -0.0102    0.8038   -0.3476 C   0  0  0  0  0  0  0  0  0  0  0  0
    0.2042    1.4005   -1.7504 C   0  0  0  0  0  0  0  0  0  0  0  0
   -1.1372   -0.2669    1.9652 H   0  0  0  0  0  0  0  0  0  0  0  0
   -1.8067   -1.6856    1.1513 H   0  0  0  0  0  0  0  0  0  0  0  0
    0.3417   -2.2271    0.1414 H   0  0  0  0  0  0  0  0  0  0  0  0
    0.8428   -1.7053    1.7469 H   0  0  0  0  0  0  0  0  0  0  0  0
    1.0251    2.9850   -3.8883 H   0  0  0  0  0  0  0  0  0  0  0  0
    2.7477    2.6723   -3.6439 H   0  0  0  0  0  0  0  0  0  0  0  0
    2.3905    0.2618   -3.6103 H   0  0  0  0  0  0  0  0  0  0  0  0
    1.2829    0.7544   -4.8879 H   0  0  0  0  0  0  0  0  0  0  0  0
   -2.1999    0.6835   -0.0658 H   0  0  0  0  0  0  0  0  0  0  0  0
   -1.5177   -0.6107   -1.0568 H   0  0  0  0  0  0  0  0  0  0  0  0
    1.7412   -0.5224   -0.6588 H   0  0  0  0  0  0  0  0  0  0  0  0
    1.7559    0.3288    0.8740 H   0  0  0  0  0  0  0  0  0  0  0  0
    1.3254    3.2807   -1.4422 H   0  0  0  0  0  0  0  0  0  0  0  0
    2.3133    1.8179   -1.3639 H   0  0  0  0  0  0  0  0  0  0  0  0
    0.4928   -0.6447   -2.5635 H   0  0  0  0  0  0  0  0  0  0  0  0
   -0.6196    0.3414   -3.4931 H   0  0  0  0  0  0  0  0  0  0  0  0
   -0.0467    1.6513    0.3529 H   0  0  0  0  0  0  0  0  0  0  0  0
   -0.6639    2.0441   -1.9558 H   0  0  0  0  0  0  0  0  0  0  0  0
  1 12  1  0  0  0  0
  1 11  1  0  0  0  0
  2  1  1  0  0  0  0
  2 14  1  0  0  0  0
  3  7  1  0  0  0  0
  4 17  1  0  0  0  0
  4  3  1  0  0  0  0
  4  8  1  0  0  0  0
  5 19  1  0  0  0  0
  5  1  1  0  0  0  0
  6  2  1  0  0  0  0
  6 22  1  0  0  0  0
  7 10  1  0  0  0  0
  7 23  1  0  0  0  0
  7 24  1  0  0  0  0
  8 25  1  0  0  0  0
  8 10  1  0  0  0  0
  9  5  1  0  0  0  0
  9  6  1  0  0  0  0
  9 27  1  0  0  0  0
 10  9  1  0  0  0  0
 13  2  1  0  0  0  0
 15  3  1  0  0  0  0
 16  3  1  0  0  0  0
 18  4  1  0  0  0  0
 20  5  1  0  0  0  0
 21  6  1  0  0  0  0
 26  8  1  0  0  0  0
 28 10  1  0  0  0  0
M  END
>  <HBA>
0

>  <HBD>
0

>  <TPSA>
0.0

>  <cid>
15417

>  <dipole>
0.08

>  <excitation_energy_1>
7.409

>  <excitation_energy_2>
7.461

>  <excitation_energy_3>
7.623

>  <excitation_energy_4>
7.738

>  <homo_energy>
-7.908

>  <homo_lumo_gap>
9.998

>  <logP>
3.367

>  <lumo_energy>
2.09

>  <melting_point>
15.94

>  <molecular_refractivity>
45.96

>  <oscillator_strength_1>
0.0102

>  <oscillator_strength_2>
0.0078

>  <oscillator_strength_3>
0.0

>  <oscillator_strength_4>
0.0004

>  <open_babel_can_smiles>
C1CCC(C1)C1CCCC1

>  <mulliken_charges>
28
1   -0.26463
2   -0.272738
3   -0.264346
4   -0.272757
5   -0.276417
6   -0.280949
7   -0.276243
8   -0.281183
9   -0.08103
10   -0.080715
11   0.13009
12   0.130433
13   0.133185
14   0.132039
15   0.130017
16   0.130364
17   0.133133
18   0.131993
19   0.12913
20   0.13459
21   0.134958
22   0.134162
23   0.128994
24   0.134691
25   0.13497
26   0.134161
27   0.117046
28   0.117051

>  <lowdin_charges>
28
1   -0.281584
2   -0.283886
3   -0.281457
4   -0.281613
5   -0.285458
6   -0.294677
7   -0.284945
8   -0.291761
9   -0.13051
10   -0.130483
11   0.138603
12   0.143577
13   0.140525
14   0.14399
15   0.139793
16   0.142406
17   0.140392
18   0.141935
19   0.142783
20   0.140894
21   0.143721
22   0.144954
23   0.141787
24   0.141387
25   0.141937
26   0.143623
27   0.136986
28   0.137081

$$$$

