PCCDB-ID:  69149
public computational chemistry database (PCCDB) project, http://pccdb.org

 28 29  0  0  0  0  0  0  0  0999 V2000
    0.4098   -0.6038   -0.3830 C   0  0  0  0  0  0  0  0  0  0  0  0
    1.9480   -0.6147   -2.2348 C   0  0  0  0  0  0  0  0  0  0  0  0
    4.5790    0.5409   -0.9395 C   0  0  0  0  0  0  0  0  0  0  0  0
    3.9931    2.8379   -0.5192 C   0  0  0  0  0  0  0  0  0  0  0  0
   -0.2500   -1.7004   -0.9133 C   0  0  0  0  0  0  0  0  0  0  0  0
    1.2807   -1.7023   -2.7865 C   0  0  0  0  0  0  0  0  0  0  0  0
    5.9113    0.9061   -1.0944 C   0  0  0  0  0  0  0  0  0  0  0  0
    5.3148    3.2157   -0.6901 C   0  0  0  0  0  0  0  0  0  0  0  0
    1.5342   -0.0473   -1.0183 C   0  0  0  0  0  0  0  0  0  0  0  0
    3.5894    1.4981   -0.6601 C   0  0  0  0  0  0  0  0  0  0  0  0
    0.1760   -2.2720   -2.1289 C   0  0  0  0  0  0  0  0  0  0  0  0
    6.3014    2.2525   -0.9824 C   0  0  0  0  0  0  0  0  0  0  0  0
    2.1542    1.1686   -0.4108 C   0  0  0  0  0  0  0  0  0  0  0  0
   -0.4530   -3.4018   -2.6401 N   0  0  0  0  0  0  0  0  0  0  0  0
    7.6375    2.6183   -1.0953 N   0  0  0  0  0  0  0  0  0  0  0  0
    1.4741    1.9064    0.3029 O   0  0  0  0  0  0  0  0  0  0  0  0
    0.0655   -0.1483    0.5400 H   0  0  0  0  0  0  0  0  0  0  0  0
    2.7817   -0.1808   -2.7775 H   0  0  0  0  0  0  0  0  0  0  0  0
    4.3121   -0.5088   -1.0086 H   0  0  0  0  0  0  0  0  0  0  0  0
    3.2375    3.5772   -0.2733 H   0  0  0  0  0  0  0  0  0  0  0  0
   -1.1055   -2.1267   -0.3936 H   0  0  0  0  0  0  0  0  0  0  0  0
    1.6113   -2.1174   -3.7362 H   0  0  0  0  0  0  0  0  0  0  0  0
    6.6637    0.1452   -1.2903 H   0  0  0  0  0  0  0  0  0  0  0  0
    5.6022    4.2601   -0.5883 H   0  0  0  0  0  0  0  0  0  0  0  0
   -1.4060   -3.5506   -2.3342 H   0  0  0  0  0  0  0  0  0  0  0  0
   -0.3408   -3.5566   -3.6338 H   0  0  0  0  0  0  0  0  0  0  0  0
    8.2280    1.9854   -1.6189 H   0  0  0  0  0  0  0  0  0  0  0  0
    7.8127    3.5882   -1.3235 H   0  0  0  0  0  0  0  0  0  0  0  0
  1 17  1  0  0  0  0
  2  9  1  0  0  0  0
  3 10  2  0  0  0  0
  4 20  1  0  0  0  0
  5 21  1  0  0  0  0
  5  1  1  0  0  0  0
  6  2  2  0  0  0  0
  6 11  1  0  0  0  0
  7 12  2  0  0  0  0
  7  3  1  0  0  0  0
  8 24  1  0  0  0  0
  8  4  2  0  0  0  0
  9 13  1  0  0  0  0
  9  1  2  0  0  0  0
 10  4  1  0  0  0  0
 10 13  1  0  0  0  0
 11  5  2  0  0  0  0
 12  8  1  0  0  0  0
 13 16  2  0  0  0  0
 14 25  1  0  0  0  0
 14 11  1  0  0  0  0
 15 12  1  0  0  0  0
 18  2  1  0  0  0  0
 19  3  1  0  0  0  0
 22  6  1  0  0  0  0
 23  7  1  0  0  0  0
 26 14  1  0  0  0  0
 27 15  1  0  0  0  0
 28 15  1  0  0  0  0
M  END
>  <HBA>
3

>  <HBD>
2

>  <TPSA>
69.11

>  <cid>
69149

>  <dipole>
4.92

>  <excitation_energy_1>
3.675

>  <excitation_energy_2>
3.952

>  <excitation_energy_3>
4.28

>  <excitation_energy_4>
4.588

>  <homo_energy>
-5.548

>  <homo_lumo_gap>
4.495

>  <logP>
3.244

>  <lumo_energy>
-1.053

>  <melting_point>
164.07

>  <molecular_refractivity>
65.13

>  <oscillator_strength_1>
0.0057

>  <oscillator_strength_2>
0.5111

>  <oscillator_strength_3>
0.0462

>  <oscillator_strength_4>
0.0121

>  <open_babel_can_smiles>
O=C(c1ccc(cc1)N)c1ccc(cc1)N

>  <mulliken_charges>
28
1   -0.160438
2   -0.18733
3   -0.187923
4   -0.160745
5   -0.178869
6   -0.183122
7   -0.183798
8   -0.178643
9   0.070228
10   0.069394
11   0.328399
12   0.329
13   0.311223
14   -0.789312
15   -0.789326
16   -0.490636
17   0.156027
18   0.143291
19   0.145881
20   0.155672
21   0.121608
22   0.11792
23   0.119355
24   0.121295
25   0.325659
26   0.324595
27   0.324862
28   0.325733

>  <lowdin_charges>
28
1   -0.11887
2   -0.14219
3   -0.139597
4   -0.120451
5   -0.201393
6   -0.207282
7   -0.208123
8   -0.199683
9   -0.070183
10   -0.070582
11   0.073257
12   0.073591
13   0.151191
14   -0.474697
15   -0.478527
16   -0.274557
17   0.174069
18   0.165657
19   0.164581
20   0.175001
21   0.155214
22   0.152824
23   0.154696
24   0.153189
25   0.277771
26   0.276467
27   0.280468
28   0.27816

$$$$

