PCCDB-ID:  69422
public computational chemistry database (PCCDB) project, http://pccdb.org

 45 44  0  0  0  0  0  0  0  0999 V2000
    6.5931   -1.0001    0.5611 C   0  0  0  0  0  0  0  0  0  0  0  0
   14.8649    4.3735    2.1080 C   0  0  0  0  0  0  0  0  0  0  0  0
    5.6999    0.0675    1.2044 C   0  0  0  0  0  0  0  0  0  0  0  0
   13.7180    4.6191    1.1220 C   0  0  0  0  0  0  0  0  0  0  0  0
    6.0516    1.5129    0.8131 C   0  0  0  0  0  0  0  0  0  0  0  0
   13.9782    4.0053   -0.2610 C   0  0  0  0  0  0  0  0  0  0  0  0
    5.8233    1.8404   -0.6707 C   0  0  0  0  0  0  0  0  0  0  0  0
   12.8225    4.1587   -1.2638 C   0  0  0  0  0  0  0  0  0  0  0  0
    6.0049    3.3243   -1.0320 C   0  0  0  0  0  0  0  0  0  0  0  0
   12.5133    5.6111   -1.6572 C   0  0  0  0  0  0  0  0  0  0  0  0
    7.4459    3.8437   -0.8986 C   0  0  0  0  0  0  0  0  0  0  0  0
   11.5175    5.7524   -2.8213 C   0  0  0  0  0  0  0  0  0  0  0  0
    7.5749    5.3010   -1.3533 C   0  0  0  0  0  0  0  0  0  0  0  0
   10.1201    5.1652   -2.5820 C   0  0  0  0  0  0  0  0  0  0  0  0
    9.2544    6.0306   -1.2043 S   0  0  0  0  0  0  0  0  0  0  0  0
    6.3297   -2.0019    0.9194 H   0  0  0  0  0  0  0  0  0  0  0  0
    7.6495   -0.8279    0.8030 H   0  0  0  0  0  0  0  0  0  0  0  0
    6.5001   -1.0074   -0.5307 H   0  0  0  0  0  0  0  0  0  0  0  0
   14.6553    4.8217    3.0860 H   0  0  0  0  0  0  0  0  0  0  0  0
   15.8041    4.8043    1.7391 H   0  0  0  0  0  0  0  0  0  0  0  0
   15.0331    3.3004    2.2623 H   0  0  0  0  0  0  0  0  0  0  0  0
    5.7664   -0.0252    2.2968 H   0  0  0  0  0  0  0  0  0  0  0  0
    4.6496   -0.1306    0.9462 H   0  0  0  0  0  0  0  0  0  0  0  0
   13.5509    5.6998    1.0255 H   0  0  0  0  0  0  0  0  0  0  0  0
   12.7860    4.2034    1.5312 H   0  0  0  0  0  0  0  0  0  0  0  0
    7.0980    1.7094    1.0856 H   0  0  0  0  0  0  0  0  0  0  0  0
    5.4441    2.1995    1.4206 H   0  0  0  0  0  0  0  0  0  0  0  0
   14.1944    2.9344   -0.1354 H   0  0  0  0  0  0  0  0  0  0  0  0
   14.8901    4.4497   -0.6880 H   0  0  0  0  0  0  0  0  0  0  0  0
    4.8011    1.5389   -0.9421 H   0  0  0  0  0  0  0  0  0  0  0  0
    6.4943    1.2365   -1.2973 H   0  0  0  0  0  0  0  0  0  0  0  0
   11.9222    3.6898   -0.8428 H   0  0  0  0  0  0  0  0  0  0  0  0
   13.0696    3.5904   -2.1728 H   0  0  0  0  0  0  0  0  0  0  0  0
    5.3394    3.9342   -0.4029 H   0  0  0  0  0  0  0  0  0  0  0  0
    5.6686    3.4779   -2.0674 H   0  0  0  0  0  0  0  0  0  0  0  0
   13.4495    6.1074   -1.9513 H   0  0  0  0  0  0  0  0  0  0  0  0
   12.1364    6.1617   -0.7867 H   0  0  0  0  0  0  0  0  0  0  0  0
    8.1135    3.2079   -1.4962 H   0  0  0  0  0  0  0  0  0  0  0  0
    7.7896    3.7659    0.1394 H   0  0  0  0  0  0  0  0  0  0  0  0
   11.9329    5.2528   -3.7088 H   0  0  0  0  0  0  0  0  0  0  0  0
   11.4147    6.8134   -3.0820 H   0  0  0  0  0  0  0  0  0  0  0  0
    6.9380    5.9467   -0.7376 H   0  0  0  0  0  0  0  0  0  0  0  0
    7.2363    5.4172   -2.3909 H   0  0  0  0  0  0  0  0  0  0  0  0
   10.1858    4.0955   -2.3587 H   0  0  0  0  0  0  0  0  0  0  0  0
    9.5130    5.2824   -3.4875 H   0  0  0  0  0  0  0  0  0  0  0  0
  1 17  1  0  0  0  0
  1 16  1  0  0  0  0
  1  3  1  0  0  0  0
  2 21  1  0  0  0  0
  2 19  1  0  0  0  0
  3 22  1  0  0  0  0
  4 25  1  0  0  0  0
  4  2  1  0  0  0  0
  5 26  1  0  0  0  0
  5  3  1  0  0  0  0
  5 27  1  0  0  0  0
  6 28  1  0  0  0  0
  6  4  1  0  0  0  0
  7  5  1  0  0  0  0
  8 32  1  0  0  0  0
  8  6  1  0  0  0  0
  9 11  1  0  0  0  0
  9  7  1  0  0  0  0
  9 34  1  0  0  0  0
 10  8  1  0  0  0  0
 10 37  1  0  0  0  0
 11 39  1  0  0  0  0
 12 14  1  0  0  0  0
 12 10  1  0  0  0  0
 13 15  1  0  0  0  0
 13 11  1  0  0  0  0
 13 42  1  0  0  0  0
 14 44  1  0  0  0  0
 14 15  1  0  0  0  0
 18  1  1  0  0  0  0
 20  2  1  0  0  0  0
 23  3  1  0  0  0  0
 24  4  1  0  0  0  0
 29  6  1  0  0  0  0
 30  7  1  0  0  0  0
 31  7  1  0  0  0  0
 33  8  1  0  0  0  0
 35  9  1  0  0  0  0
 36 10  1  0  0  0  0
 38 11  1  0  0  0  0
 40 12  1  0  0  0  0
 41 12  1  0  0  0  0
 43 13  1  0  0  0  0
 45 14  1  0  0  0  0
M  END
>  <HBA>
1

>  <HBD>
0

>  <TPSA>
25.3

>  <cid>
69422

>  <dipole>
1.68

>  <excitation_energy_1>
5.142

>  <excitation_energy_2>
5.284

>  <excitation_energy_3>
5.587

>  <excitation_energy_4>
5.63

>  <homo_energy>
-5.766

>  <homo_lumo_gap>
7.012

>  <logP>
5.66

>  <lumo_energy>
1.246

>  <melting_point>
-22.91

>  <molecular_refractivity>
77.0

>  <oscillator_strength_1>
0.0006

>  <oscillator_strength_2>
0.0093

>  <oscillator_strength_3>
0.0068

>  <oscillator_strength_4>
0.0224

>  <open_babel_can_smiles>
CCCCCCCSCCCCCCC

>  <mulliken_charges>
45
1   -0.443317
2   -0.441837
3   -0.249411
4   -0.248163
5   -0.251024
6   -0.249169
7   -0.25445
8   -0.257576
9   -0.259013
10   -0.261558
11   -0.251011
12   -0.271948
13   -0.421469
14   -0.403702
15   0.074253
16   0.142349
17   0.140817
18   0.145613
19   0.141436
20   0.140139
21   0.139574
22   0.131157
23   0.129353
24   0.137951
25   0.133034
26   0.132962
27   0.126825
28   0.124825
29   0.124592
30   0.12795
31   0.131681
32   0.137821
33   0.121919
34   0.129441
35   0.127608
36   0.128033
37   0.160874
38   0.135457
39   0.153102
40   0.136061
41   0.148752
42   0.169702
43   0.160443
44   0.169701
45   0.160226

>  <lowdin_charges>
45
1   -0.443227
2   -0.442287
3   -0.269092
4   -0.272943
5   -0.278422
6   -0.273087
7   -0.277236
8   -0.279213
9   -0.276253
10   -0.281343
11   -0.282705
12   -0.274966
13   -0.374627
14   -0.372247
15   0.071104
16   0.149211
17   0.144452
18   0.144898
19   0.148617
20   0.145648
21   0.143472
22   0.139758
23   0.136745
24   0.139956
25   0.140496
26   0.138178
27   0.14113
28   0.137232
29   0.136302
30   0.139788
31   0.140714
32   0.14259
33   0.137544
34   0.139793
35   0.139067
36   0.141275
37   0.152974
38   0.142389
39   0.149425
40   0.145507
41   0.149484
42   0.166381
43   0.150471
44   0.149774
45   0.153275

$$$$

