PCCDB-ID:  3429
public computational chemistry database (PCCDB) project, http://pccdb.org

 25 24  0  0  1  0  0  0  0  0999 V2000
    1.7463    1.3181    1.5866 C   0  0  0  0  0  0  0  0  0  0  0  0
    5.1506   -1.1062    4.7618 C   0  0  0  0  0  0  0  0  0  0  0  0
    1.9243   -0.1940    1.4789 C   0  0  1  0  0  0  0  0  0  0  0  0
    5.4090   -0.8401    3.2723 C   0  0  2  0  0  0  0  0  0  0  0  0
    2.9181   -0.7943    2.4896 C   0  0  1  0  0  0  0  0  0  0  0  0
    4.2987   -0.1206    2.4710 C   0  0  2  0  0  0  0  0  0  0  0  0
    4.2823   -2.2212    4.9294 O   0  0  0  0  0  0  0  0  0  0  0  0
    0.6965   -0.8868    1.7845 O   0  0  0  0  0  0  0  0  0  0  0  0
    5.7051   -2.0798    2.6262 O   0  0  0  0  0  0  0  0  0  0  0  0
    2.3543   -0.6846    3.8063 O   0  0  0  0  0  0  0  0  0  0  0  0
    4.7437   -0.0237    1.1203 O   0  0  0  0  0  0  0  0  0  0  0  0
    2.6541    1.8368    1.2646 H   0  0  0  0  0  0  0  0  0  0  0  0
    1.5112    1.6122    2.6147 H   0  0  0  0  0  0  0  0  0  0  0  0
    0.9298    1.6538    0.9341 H   0  0  0  0  0  0  0  0  0  0  0  0
    4.7633   -0.2073    5.2605 H   0  0  0  0  0  0  0  0  0  0  0  0
    6.0989   -1.3806    5.2348 H   0  0  0  0  0  0  0  0  0  0  0  0
    2.2601   -0.4575    0.4696 H   0  0  0  0  0  0  0  0  0  0  0  0
    6.3017   -0.2098    3.1695 H   0  0  0  0  0  0  0  0  0  0  0  0
    3.0372   -1.8574    2.2300 H   0  0  0  0  0  0  0  0  0  0  0  0
    4.1927    0.9023    2.8511 H   0  0  0  0  0  0  0  0  0  0  0  0
    3.3861   -1.8762    4.7273 H   0  0  0  0  0  0  0  0  0  0  0  0
   -0.0288   -0.4363    1.3263 H   0  0  0  0  0  0  0  0  0  0  0  0
    5.1869   -2.7397    3.1286 H   0  0  0  0  0  0  0  0  0  0  0  0
    1.4089   -0.8966    3.6814 H   0  0  0  0  0  0  0  0  0  0  0  0
    5.1524   -0.8907    0.9365 H   0  0  0  0  0  0  0  0  0  0  0  0
  1 13  1  0  0  0  0
  2  7  1  0  0  0  0
  2 16  1  0  0  0  0
  2 15  1  0  0  0  0
  3 17  1  6  0  0  0
  3  1  1  0  0  0  0
  3  8  1  0  0  0  0
  3  5  1  0  0  0  0
  4 18  1  6  0  0  0
  4  2  1  0  0  0  0
  5 19  1  6  0  0  0
  5 10  1  0  0  0  0
  6  5  1  0  0  0  0
  6 20  1  1  0  0  0
  6  4  1  0  0  0  0
  9 23  1  0  0  0  0
  9  4  1  0  0  0  0
 11  6  1  0  0  0  0
 12  1  1  0  0  0  0
 14  1  1  0  0  0  0
 21  7  1  0  0  0  0
 22  8  1  0  0  0  0
 24 10  1  0  0  0  0
 25 11  1  0  0  0  0
M  END
>  <HBA>
5

>  <HBD>
5

>  <TPSA>
101.15

>  <cid>
3429

>  <dipole>
3.23

>  <excitation_energy_1>
6.331

>  <excitation_energy_2>
6.704

>  <excitation_energy_3>
6.788

>  <excitation_energy_4>
6.854

>  <homo_energy>
-6.901

>  <homo_lumo_gap>
8.27

>  <logP>
-2.558

>  <lumo_energy>
1.369

>  <melting_point>
66.53

>  <molecular_refractivity>
36.77

>  <oscillator_strength_1>
0.0031

>  <oscillator_strength_2>
0.0012

>  <oscillator_strength_3>
0.0057

>  <oscillator_strength_4>
0.0046

>  <open_babel_can_smiles>
OC[C@H]([C@H]([C@H]([C@@H](O)C)O)O)O

>  <mulliken_charges>
25
1   -0.486606
2   -0.067906
3   0.134681
4   0.087092
5   0.100009
6   0.126345
7   -0.655596
8   -0.656867
9   -0.658606
10   -0.672683
11   -0.645703
12   0.179998
13   0.160218
14   0.135244
15   0.139011
16   0.154768
17   0.144613
18   0.142364
19   0.127105
20   0.137875
21   0.428104
22   0.400881
23   0.41286
24   0.422908
25   0.409889

>  <lowdin_charges>
25
1   -0.466651
2   -0.154985
3   -0.011207
4   -0.038639
5   -0.028283
6   -0.027435
7   -0.48655
8   -0.477896
9   -0.475442
10   -0.466765
11   -0.463499
12   0.171357
13   0.15654
14   0.148771
15   0.142401
16   0.153147
17   0.145449
18   0.151109
19   0.13378
20   0.146277
21   0.347424
22   0.35102
23   0.348835
24   0.353153
25   0.348089

$$$$

