PCCDB-ID:  20859
public computational chemistry database (PCCDB) project, http://pccdb.org

 19 18  0  0  0  0  0  0  0  0999 V2000
    3.0945   -0.0945    2.2580 C   0  0  0  0  0  0  0  0  0  0  0  0
    6.1731    1.5798    0.0121 C   0  0  0  0  0  0  0  0  0  0  0  0
    5.0176   -1.4405   -1.5190 C   0  0  0  0  0  0  0  0  0  0  0  0
    3.4546   -0.7207    0.9073 C   0  0  0  0  0  0  0  0  0  0  0  0
    4.2119    0.2446   -0.0045 C   0  0  0  0  0  0  0  0  0  0  0  0
    5.4616    0.4992    0.5978 O   0  0  0  0  0  0  0  0  0  0  0  0
    4.3416   -0.2013   -1.3425 O   0  0  0  0  0  0  0  0  0  0  0  0
    2.5536   -0.8083    2.8887 H   0  0  0  0  0  0  0  0  0  0  0  0
    2.4540    0.7869    2.1292 H   0  0  0  0  0  0  0  0  0  0  0  0
    3.9968    0.2192    2.7910 H   0  0  0  0  0  0  0  0  0  0  0  0
    7.1080    1.6804    0.5690 H   0  0  0  0  0  0  0  0  0  0  0  0
    5.6045    2.5190    0.0918 H   0  0  0  0  0  0  0  0  0  0  0  0
    6.3948    1.3939   -1.0456 H   0  0  0  0  0  0  0  0  0  0  0  0
    5.2361   -1.5210   -2.5871 H   0  0  0  0  0  0  0  0  0  0  0  0
    4.3945   -2.2957   -1.2235 H   0  0  0  0  0  0  0  0  0  0  0  0
    5.9573   -1.4716   -0.9548 H   0  0  0  0  0  0  0  0  0  0  0  0
    2.5488   -1.0369    0.3758 H   0  0  0  0  0  0  0  0  0  0  0  0
    4.0697   -1.6139    1.0680 H   0  0  0  0  0  0  0  0  0  0  0  0
    3.6509    1.1865   -0.1091 H   0  0  0  0  0  0  0  0  0  0  0  0
  1 10  1  0  0  0  0
  1  8  1  0  0  0  0
  2 12  1  0  0  0  0
  2 11  1  0  0  0  0
  2  6  1  0  0  0  0
  3  7  1  0  0  0  0
  3 15  1  0  0  0  0
  3 16  1  0  0  0  0
  4 18  1  0  0  0  0
  4  1  1  0  0  0  0
  5  6  1  0  0  0  0
  5  4  1  0  0  0  0
  7  5  1  0  0  0  0
  9  1  1  0  0  0  0
 13  2  1  0  0  0  0
 14  3  1  0  0  0  0
 17  4  1  0  0  0  0
 19  5  1  0  0  0  0
M  END
>  <HBA>
2

>  <HBD>
0

>  <TPSA>
18.46

>  <cid>
20859

>  <dipole>
0.32

>  <excitation_energy_1>
6.769

>  <excitation_energy_2>
6.995

>  <excitation_energy_3>
7.076

>  <excitation_energy_4>
7.214

>  <homo_energy>
-7.031

>  <homo_lumo_gap>
9.63

>  <logP>
1.015

>  <lumo_energy>
2.599

>  <melting_point>
-43.8

>  <molecular_refractivity>
28.32

>  <oscillator_strength_1>
0.0053

>  <oscillator_strength_2>
0.0126

>  <oscillator_strength_3>
0.0037

>  <oscillator_strength_4>
0.006

>  <open_babel_can_smiles>
CCC(OC)OC

>  <mulliken_charges>
19
1   -0.449367
2   -0.203804
3   -0.214112
4   -0.287856
5   0.365012
6   -0.468728
7   -0.47899
8   0.143537
9   0.139682
10   0.165253
11   0.155532
12   0.132887
13   0.152073
14   0.154351
15   0.137082
16   0.151448
17   0.144761
18   0.1468
19   0.114437

>  <lowdin_charges>
19
1   -0.44617
2   -0.281558
3   -0.286218
4   -0.292288
5   0.095136
6   -0.267805
7   -0.273948
8   0.152373
9   0.146193
10   0.158829
11   0.154222
12   0.134644
13   0.142093
14   0.152534
15   0.136343
16   0.143549
17   0.151973
18   0.151796
19   0.128303

$$$$

