PCCDB-ID:  61136
public computational chemistry database (PCCDB) project, http://pccdb.org

 18 17  0  0  1  0  0  0  0  0999 V2000
    0.4999   -1.0700   -0.1862 C   0  0  0  0  0  0  0  0  0  0  0  0
    2.4569    0.1655   -1.2926 C   0  0  0  0  0  0  0  0  0  0  0  0
    2.3257   -0.4189   -2.7025 C   0  0  0  0  0  0  0  0  0  0  0  0
    1.9995   -0.7592   -0.1441 C   0  0  1  0  0  0  0  0  0  0  0  0
    2.9618    0.4718   -3.6839 N   0  0  0  0  0  0  0  0  0  0  0  0
    2.3226   -0.2330    1.1935 N   0  0  0  0  0  0  0  0  0  0  0  0
    0.2145   -1.5809   -1.1115 H   0  0  0  0  0  0  0  0  0  0  0  0
   -0.0895   -0.1446   -0.1214 H   0  0  0  0  0  0  0  0  0  0  0  0
    0.2255   -1.7045    0.6618 H   0  0  0  0  0  0  0  0  0  0  0  0
    1.8906    1.1095   -1.2326 H   0  0  0  0  0  0  0  0  0  0  0  0
    3.5128    0.4276   -1.1419 H   0  0  0  0  0  0  0  0  0  0  0  0
    1.2650   -0.6325   -2.9231 H   0  0  0  0  0  0  0  0  0  0  0  0
    2.8531   -1.3815   -2.7418 H   0  0  0  0  0  0  0  0  0  0  0  0
    2.5469   -1.7089   -0.2370 H   0  0  0  0  0  0  0  0  0  0  0  0
    2.4387    1.3461   -3.7333 H   0  0  0  0  0  0  0  0  0  0  0  0
    2.8973    0.0586   -4.6134 H   0  0  0  0  0  0  0  0  0  0  0  0
    1.8467    0.6617    1.3224 H   0  0  0  0  0  0  0  0  0  0  0  0
    3.3195   -0.0207    1.2414 H   0  0  0  0  0  0  0  0  0  0  0  0
  1  4  1  0  0  0  0
  1  8  1  0  0  0  0
  1  9  1  0  0  0  0
  2 10  1  0  0  0  0
  2 11  1  0  0  0  0
  2  4  1  0  0  0  0
  3  2  1  0  0  0  0
  4 14  1  6  0  0  0
  4  6  1  0  0  0  0
  5  3  1  0  0  0  0
  6 18  1  0  0  0  0
  6 17  1  0  0  0  0
  7  1  1  0  0  0  0
 12  3  1  0  0  0  0
 13  3  1  0  0  0  0
 15  5  1  0  0  0  0
 16  5  1  0  0  0  0
M  END
>  <HBA>
2

>  <HBD>
2

>  <TPSA>
52.04

>  <cid>
61136

>  <dipole>
1.81

>  <excitation_energy_1>
5.58

>  <excitation_energy_2>
5.696

>  <excitation_energy_3>
6.08

>  <excitation_energy_4>
6.272

>  <homo_energy>
-6.142

>  <homo_lumo_gap>
8.338

>  <logP>
1.083

>  <lumo_energy>
2.196

>  <melting_point>
83.26

>  <molecular_refractivity>
26.76

>  <oscillator_strength_1>
0.017

>  <oscillator_strength_2>
0.0304

>  <oscillator_strength_3>
0.003

>  <oscillator_strength_4>
0.0029

>  <open_babel_can_smiles>
NCC[C@@H](N)C

>  <mulliken_charges>
18
1   -0.442043
2   -0.253111
3   -0.140951
4   0.025894
5   -0.715787
6   -0.705753
7   0.143095
8   0.130623
9   0.161116
10   0.111869
11   0.139602
12   0.116884
13   0.137878
14   0.129082
15   0.290623
16   0.294516
17   0.285017
18   0.291444

>  <lowdin_charges>
18
1   -0.451329
2   -0.296202
3   -0.205498
4   -0.06333
5   -0.557875
6   -0.547856
7   0.149351
8   0.142296
9   0.160709
10   0.130673
11   0.145017
12   0.116935
13   0.140362
14   0.136703
15   0.250488
16   0.252965
17   0.247331
18   0.249261

$$$$

