PCCDB-ID:  69452
public computational chemistry database (PCCDB) project, http://pccdb.org

 20 20  0  0  0  0  0  0  0  0999 V2000
    0.8928   -0.0154    0.0820 C   0  0  0  0  0  0  0  0  0  0  0  0
    5.2768   -2.5352    0.1812 C   0  0  0  0  0  0  0  0  0  0  0  0
    3.1181    1.2063    0.2063 C   0  0  0  0  0  0  0  0  0  0  0  0
    4.5093    1.2209    0.2629 C   0  0  0  0  0  0  0  0  0  0  0  0
    2.4024    0.0094    0.1421 C   0  0  0  0  0  0  0  0  0  0  0  0
    4.5428   -1.2183    0.1914 C   0  0  0  0  0  0  0  0  0  0  0  0
    5.2125    0.0120    0.2556 C   0  0  0  0  0  0  0  0  0  0  0  0
    3.1423   -1.1875    0.1366 C   0  0  0  0  0  0  0  0  0  0  0  0
    6.5840   -0.0200    0.3106 O   0  0  0  0  0  0  0  0  0  0  0  0
    2.5235   -2.4113    0.0771 O   0  0  0  0  0  0  0  0  0  0  0  0
    0.4895    1.0013    0.0938 H   0  0  0  0  0  0  0  0  0  0  0  0
    0.4469   -0.5442    0.9377 H   0  0  0  0  0  0  0  0  0  0  0  0
    0.5161   -0.4958   -0.8335 H   0  0  0  0  0  0  0  0  0  0  0  0
    6.3559   -2.3802    0.2209 H   0  0  0  0  0  0  0  0  0  0  0  0
    5.0384   -3.1108   -0.7211 H   0  0  0  0  0  0  0  0  0  0  0  0
    4.9811   -3.1568    1.0349 H   0  0  0  0  0  0  0  0  0  0  0  0
    2.5738    2.1476    0.2131 H   0  0  0  0  0  0  0  0  0  0  0  0
    5.0483    2.1649    0.3135 H   0  0  0  0  0  0  0  0  0  0  0  0
    6.9100    0.8919    0.3489 H   0  0  0  0  0  0  0  0  0  0  0  0
    1.5650   -2.2788    0.0320 H   0  0  0  0  0  0  0  0  0  0  0  0
  1 11  1  0  0  0  0
  1  5  1  0  0  0  0
  1 12  1  0  0  0  0
  2  6  1  0  0  0  0
  2 14  1  0  0  0  0
  2 16  1  0  0  0  0
  3 17  1  0  0  0  0
  3  4  2  0  0  0  0
  4 18  1  0  0  0  0
  5  3  1  0  0  0  0
  6  7  2  0  0  0  0
  7  4  1  0  0  0  0
  7  9  1  0  0  0  0
  8  5  2  0  0  0  0
  8  6  1  0  0  0  0
  9 19  1  0  0  0  0
 10  8  1  0  0  0  0
 13  1  1  0  0  0  0
 15  2  1  0  0  0  0
 20 10  1  0  0  0  0
M  END
>  <HBA>
2

>  <HBD>
2

>  <TPSA>
40.46

>  <cid>
69452

>  <dipole>
2.18

>  <excitation_energy_1>
4.905

>  <excitation_energy_2>
4.966

>  <excitation_energy_3>
5.067

>  <excitation_energy_4>
5.253

>  <homo_energy>
-5.573

>  <homo_lumo_gap>
5.962

>  <logP>
1.715

>  <lumo_energy>
0.389

>  <melting_point>
93.94

>  <molecular_refractivity>
40.42

>  <oscillator_strength_1>
0.0019

>  <oscillator_strength_2>
0.0161

>  <oscillator_strength_3>
0.0005

>  <oscillator_strength_4>
0.0032

>  <open_babel_can_smiles>
Oc1ccc(c(c1C)O)C

>  <mulliken_charges>
20
1   -0.580498
2   -0.514315
3   -0.208527
4   -0.191059
5   0.170787
6   0.10777
7   0.28396
8   0.197753
9   -0.650511
10   -0.645799
11   0.168303
12   0.158462
13   0.157635
14   0.172619
15   0.161423
16   0.161473
17   0.119586
18   0.109589
19   0.406744
20   0.414606

>  <lowdin_charges>
20
1   -0.453443
2   -0.437985
3   -0.154598
4   -0.236516
5   -0.069964
6   -0.057072
7   0.100366
8   0.094017
9   -0.384609
10   -0.379525
11   0.165782
12   0.153939
13   0.153097
14   0.165604
15   0.161839
16   0.16211
17   0.15454
18   0.150695
19   0.355545
20   0.356178

$$$$

