PCCDB-ID:  24991
public computational chemistry database (PCCDB) project, http://pccdb.org

 15 14  0  0  1  0  0  0  0  0999 V2000
    0.7216    0.1327    0.0159 C   0  0  0  0  0  0  0  0  0  0  0  0
    5.5693   -1.9534   -2.2658 C   0  0  0  0  0  0  0  0  0  0  0  0
    2.2210    0.1923   -0.0031 C   0  0  0  0  0  0  0  0  0  0  0  0
    5.0875   -0.9918   -1.7155 C   0  0  0  0  0  0  0  0  0  0  0  0
    2.9809    0.1192   -1.0977 C   0  0  0  0  0  0  0  0  0  0  0  0
    4.4906    0.2006   -1.0869 C   0  0  2  0  0  0  0  0  0  0  0  0
    4.9711    1.4027   -1.7055 O   0  0  0  0  0  0  0  0  0  0  0  0
    0.3669   -0.7174    0.6140 H   0  0  0  0  0  0  0  0  0  0  0  0
    0.3086    0.0352   -0.9934 H   0  0  0  0  0  0  0  0  0  0  0  0
    0.2971    1.0365    0.4731 H   0  0  0  0  0  0  0  0  0  0  0  0
    5.9995   -2.8010   -2.7496 H   0  0  0  0  0  0  0  0  0  0  0  0
    2.7102    0.3018    0.9666 H   0  0  0  0  0  0  0  0  0  0  0  0
    2.5210   -0.0001   -2.0799 H   0  0  0  0  0  0  0  0  0  0  0  0
    4.8365    0.2710   -0.0491 H   0  0  0  0  0  0  0  0  0  0  0  0
    4.7902    1.3271   -2.6566 H   0  0  0  0  0  0  0  0  0  0  0  0
  1 10  1  0  0  0  0
  1  8  1  0  0  0  0
  2  4  3  0  0  0  0
  3  1  1  0  0  0  0
  3 12  1  0  0  0  0
  4  6  1  0  0  0  0
  5  6  1  0  0  0  0
  5  3  2  0  0  0  0
  6 14  1  1  0  0  0
  7  6  1  0  0  0  0
  9  1  1  0  0  0  0
 11  2  1  0  0  0  0
 13  5  1  0  0  0  0
 15  7  1  0  0  0  0
M  END
>  <HBA>
1

>  <HBD>
1

>  <TPSA>
20.23

>  <cid>
24991

>  <dipole>
1.73

>  <excitation_energy_1>
5.968

>  <excitation_energy_2>
6.01

>  <excitation_energy_3>
6.341

>  <excitation_energy_4>
6.495

>  <homo_energy>
-6.765

>  <homo_lumo_gap>
6.841

>  <logP>
0.557

>  <lumo_energy>
0.076

>  <melting_point>
19.19

>  <molecular_refractivity>
29.81

>  <oscillator_strength_1>
0.0395

>  <oscillator_strength_2>
0.0755

>  <oscillator_strength_3>
0.0594

>  <oscillator_strength_4>
0.0372

>  <open_babel_can_smiles>
C/C=C/[C@@H](C#C)O

>  <mulliken_charges>
15
1   -0.489852
2   -0.477881
3   -0.087764
4   0.307015
5   -0.080463
6   -0.051694
7   -0.601926
8   0.160583
9   0.156003
10   0.161172
11   0.191883
12   0.129236
13   0.122556
14   0.17233
15   0.3888

>  <lowdin_charges>
15
1   -0.439137
2   -0.245662
3   -0.145563
4   -0.055554
5   -0.180104
6   0.016643
7   -0.444929
8   0.161061
9   0.156098
10   0.16116
11   0.2069
12   0.151073
13   0.150204
14   0.166079
15   0.341731

$$$$

