PCCDB-ID:  22412
public computational chemistry database (PCCDB) project, http://pccdb.org

 28 29  0  0  0  0  0  0  0  0999 V2000
   -2.8865    0.3604    0.3340 C   0  0  0  0  0  0  0  0  0  0  0  0
   -2.4231   -0.5058   -0.8454 C   0  0  0  0  0  0  0  0  0  0  0  0
   -1.7565    1.2798    0.8182 C   0  0  0  0  0  0  0  0  0  0  0  0
   -1.1606   -1.3021   -0.4823 C   0  0  0  0  0  0  0  0  0  0  0  0
   -0.4796    0.4910    1.1572 C   0  0  0  0  0  0  0  0  0  0  0  0
    1.1670   -1.3331    0.4758 C   0  0  0  0  0  0  0  0  0  0  0  0
    2.3894   -0.5379    0.9131 C   0  0  0  0  0  0  0  0  0  0  0  0
    0.6001    0.4071   -1.1588 C   0  0  0  0  0  0  0  0  0  0  0  0
    1.9552    1.0587   -0.9057 C   0  0  0  0  0  0  0  0  0  0  0  0
    0.0164   -0.4233    0.0043 C   0  0  0  0  0  0  0  0  0  0  0  0
    2.3267    2.0317   -1.5177 O   0  0  0  0  0  0  0  0  0  0  0  0
    2.8098    0.4733   -0.0264 O   0  0  0  0  0  0  0  0  0  0  0  0
   -3.2014   -0.2943    1.1604 H   0  0  0  0  0  0  0  0  0  0  0  0
   -3.7653    0.9538    0.0526 H   0  0  0  0  0  0  0  0  0  0  0  0
   -2.2269    0.1353   -1.7160 H   0  0  0  0  0  0  0  0  0  0  0  0
   -3.2184   -1.1986   -1.1481 H   0  0  0  0  0  0  0  0  0  0  0  0
   -2.0764    1.8438    1.7033 H   0  0  0  0  0  0  0  0  0  0  0  0
   -1.5397    2.0286    0.0440 H   0  0  0  0  0  0  0  0  0  0  0  0
   -0.8332   -1.9102   -1.3367 H   0  0  0  0  0  0  0  0  0  0  0  0
   -1.4132   -2.0100    0.3221 H   0  0  0  0  0  0  0  0  0  0  0  0
   -0.6794   -0.1425    2.0346 H   0  0  0  0  0  0  0  0  0  0  0  0
    0.3093    1.1935    1.4566 H   0  0  0  0  0  0  0  0  0  0  0  0
    0.8471   -1.9605    1.3183 H   0  0  0  0  0  0  0  0  0  0  0  0
    1.4433   -2.0131   -0.3419 H   0  0  0  0  0  0  0  0  0  0  0  0
    3.2593   -1.1882    1.0412 H   0  0  0  0  0  0  0  0  0  0  0  0
    2.2079   -0.0345    1.8698 H   0  0  0  0  0  0  0  0  0  0  0  0
    0.7466   -0.2484   -2.0302 H   0  0  0  0  0  0  0  0  0  0  0  0
   -0.0650    1.2068   -1.4920 H   0  0  0  0  0  0  0  0  0  0  0  0
  1  3  1  0  0  0  0
  1 13  1  0  0  0  0
  2  4  1  0  0  0  0
  2  1  1  0  0  0  0
  3  5  1  0  0  0  0
  3 17  1  0  0  0  0
  4 10  1  0  0  0  0
  4 20  1  0  0  0  0
  5 22  1  0  0  0  0
  5 21  1  0  0  0  0
  6  7  1  0  0  0  0
  6 23  1  0  0  0  0
  7 25  1  0  0  0  0
  7 26  1  0  0  0  0
  8  9  1  0  0  0  0
  8 10  1  0  0  0  0
  9 12  1  0  0  0  0
 10  6  1  0  0  0  0
 10  5  1  0  0  0  0
 11  9  2  0  0  0  0
 12  7  1  0  0  0  0
 14  1  1  0  0  0  0
 15  2  1  0  0  0  0
 16  2  1  0  0  0  0
 18  3  1  0  0  0  0
 19  4  1  0  0  0  0
 24  6  1  0  0  0  0
 27  8  1  0  0  0  0
 28  8  1  0  0  0  0
M  END
>  <HBA>
2

>  <HBD>
0

>  <TPSA>
26.3

>  <cid>
22412

>  <dipole>
4.77

>  <excitation_energy_1>
5.502

>  <excitation_energy_2>
6.483

>  <excitation_energy_3>
6.866

>  <excitation_energy_4>
6.943

>  <homo_energy>
-6.925

>  <homo_lumo_gap>
7.32

>  <logP>
2.274

>  <lumo_energy>
0.395

>  <melting_point>
47.06

>  <molecular_refractivity>
46.98

>  <oscillator_strength_1>
0.0008

>  <oscillator_strength_2>
0.0057

>  <oscillator_strength_3>
0.0141

>  <oscillator_strength_4>
0.0007

>  <open_babel_can_smiles>
O=C1OCCC2(C1)CCCCC2

>  <mulliken_charges>
28
1   -0.25582
2   -0.26679
3   -0.26873
4   -0.271038
5   -0.281383
6   -0.307246
7   -0.039734
8   -0.382958
9   0.594494
10   0.086284
11   -0.454755
12   -0.452216
13   0.128412
14   0.135714
15   0.137212
16   0.135988
17   0.137684
18   0.14101
19   0.128595
20   0.128331
21   0.129075
22   0.143053
23   0.143718
24   0.144517
25   0.160013
26   0.155654
27   0.171477
28   0.179438

>  <lowdin_charges>
28
1   -0.278969
2   -0.281385
3   -0.280344
4   -0.278012
5   -0.284097
6   -0.292609
7   -0.128304
8   -0.314736
9   0.189435
10   -0.002725
11   -0.248748
12   -0.194144
13   0.138586
14   0.146943
15   0.141782
16   0.148139
17   0.148791
18   0.143718
19   0.143079
20   0.141034
21   0.141164
22   0.148256
23   0.155448
24   0.149142
25   0.157749
26   0.146328
27   0.171493
28   0.172985

$$$$

