PCCDB-ID:  38327
public computational chemistry database (PCCDB) project, http://pccdb.org

 26 26  0  0  0  0  0  0  0  0999 V2000
   -1.0266    0.9659   -0.6235 C   0  0  0  0  0  0  0  0  0  0  0  0
    0.4458    0.0896    1.0889 C   0  0  0  0  0  0  0  0  0  0  0  0
   -1.8005   -0.1903   -0.5613 C   0  0  0  0  0  0  0  0  0  0  0  0
   -0.3121   -1.0736    1.1574 C   0  0  0  0  0  0  0  0  0  0  0  0
    1.8008    4.2596   -1.0959 C   0  0  0  0  0  0  0  0  0  0  0  0
    0.1065    1.1108    0.1906 C   0  0  0  0  0  0  0  0  0  0  0  0
   -1.4246   -1.1962    0.3258 C   0  0  0  0  0  0  0  0  0  0  0  0
    2.2461    4.4543   -2.5206 C   0  0  0  0  0  0  0  0  0  0  0  0
    0.9838    2.3372    0.1847 C   0  0  0  0  0  0  0  0  0  0  0  0
    0.9433    3.0974   -0.9496 N   0  0  0  0  0  0  0  0  0  0  0  0
    3.1653    5.2385   -2.9340 N   0  0  0  0  0  0  0  0  0  0  0  0
   -2.2325   -2.4259    0.3967 N   0  0  0  0  0  0  0  0  0  0  0  0
    1.5559    3.7311   -3.4422 O   0  0  0  0  0  0  0  0  0  0  0  0
    1.6874    2.6222    1.1488 O   0  0  0  0  0  0  0  0  0  0  0  0
    3.7635    5.9268   -1.8506 O   0  0  0  0  0  0  0  0  0  0  0  0
   -3.2142   -2.5094   -0.3408 O   0  0  0  0  0  0  0  0  0  0  0  0
   -1.8746   -3.2956    1.1893 O   0  0  0  0  0  0  0  0  0  0  0  0
   -1.3355    1.7661   -1.2894 H   0  0  0  0  0  0  0  0  0  0  0  0
    1.3082    0.2326    1.7307 H   0  0  0  0  0  0  0  0  0  0  0  0
   -2.6836   -0.3198   -1.1748 H   0  0  0  0  0  0  0  0  0  0  0  0
   -0.0618   -1.8776    1.8383 H   0  0  0  0  0  0  0  0  0  0  0  0
    1.2941    5.1760   -0.7597 H   0  0  0  0  0  0  0  0  0  0  0  0
    2.6756    4.1453   -0.4494 H   0  0  0  0  0  0  0  0  0  0  0  0
    0.5069    2.7366   -1.7855 H   0  0  0  0  0  0  0  0  0  0  0  0
    1.9279    3.9485   -4.3166 H   0  0  0  0  0  0  0  0  0  0  0  0
    4.4617    6.4320   -2.2945 H   0  0  0  0  0  0  0  0  0  0  0  0
  1  3  2  0  0  0  0
  1  6  1  0  0  0  0
  2  4  1  0  0  0  0
  2 19  1  0  0  0  0
  3  7  1  0  0  0  0
  4 21  1  0  0  0  0
  5 10  1  0  0  0  0
  5 22  1  0  0  0  0
  5 23  1  0  0  0  0
  6  2  2  0  0  0  0
  7 12  1  0  0  0  0
  7  4  2  0  0  0  0
  8  5  1  0  0  0  0
  9  6  1  0  0  0  0
  9 14  2  0  0  0  0
 10  9  1  0  0  0  0
 11  8  2  0  0  0  0
 11 15  1  0  0  0  0
 12 17  2  0  0  0  0
 13  8  1  0  0  0  0
 16 12  2  0  0  0  0
 18  1  1  0  0  0  0
 20  3  1  0  0  0  0
 24 10  1  0  0  0  0
 25 13  1  0  0  0  0
 26 15  1  0  0  0  0
M  END
>  <HBA>
5

>  <HBD>
3

>  <TPSA>
124.25

>  <cid>
38327

>  <dipole>
5.84

>  <excitation_energy_1>
3.651

>  <excitation_energy_2>
3.688

>  <excitation_energy_3>
3.832

>  <excitation_energy_4>
4.136

>  <homo_energy>
-6.719

>  <homo_lumo_gap>
4.03

>  <logP>
1.135

>  <lumo_energy>
-2.689

>  <melting_point>
207.0

>  <molecular_refractivity>
56.8

>  <oscillator_strength_1>
0.0175

>  <oscillator_strength_2>
0.0

>  <oscillator_strength_3>
0.0122

>  <oscillator_strength_4>
0.0089

>  <open_babel_can_smiles>
O/N=C(\CNC(=O)c1ccc(cc1)N(=O)=O)/O

>  <mulliken_charges>
26
1   -0.195647
2   -0.169475
3   -0.154446
4   -0.154397
5   -0.169337
6   0.089896
7   0.281329
8   0.532967
9   0.568514
10   -0.637964
11   -0.287047
12   0.382074
13   -0.61213
14   -0.512395
15   -0.515282
16   -0.393127
17   -0.389073
18   0.149923
19   0.181173
20   0.186881
21   0.18935
22   0.197873
23   0.227207
24   0.355261
25   0.423627
26   0.424243

>  <lowdin_charges>
26
1   -0.155327
2   -0.125816
3   -0.13617
4   -0.135058
5   -0.203124
6   -0.017968
7   0.008807
8   0.102464
9   0.160227
10   -0.272443
11   -0.129237
12   0.309159
13   -0.369076
14   -0.299896
15   -0.383838
16   -0.244154
17   -0.2416
18   0.167651
19   0.186919
20   0.189688
21   0.191522
22   0.176465
23   0.196339
24   0.292426
25   0.369721
26   0.362318

$$$$

