PCCDB-ID:  23654
public computational chemistry database (PCCDB) project, http://pccdb.org

 22 22  0  0  0  0  0  0  0  0999 V2000
    3.4756    0.1340   -0.8952 C   0  0  0  0  0  0  0  0  0  0  0  0
    5.6437   -1.1427   -0.9195 C   0  0  0  0  0  0  0  0  0  0  0  0
    6.6398    5.0410    2.6467 C   0  0  0  0  0  0  0  0  0  0  0  0
    7.3091    3.8186    2.5236 C   0  0  0  0  0  0  0  0  0  0  0  0
    5.3856    5.2006    2.0551 C   0  0  0  0  0  0  0  0  0  0  0  0
    6.7379    2.7646    1.8167 C   0  0  0  0  0  0  0  0  0  0  0  0
    4.8077    4.1489    1.3459 C   0  0  0  0  0  0  0  0  0  0  0  0
    5.4774    2.9243    1.2147 C   0  0  0  0  0  0  0  0  0  0  0  0
    4.7915    1.9289    0.4736 N   0  0  0  0  0  0  0  0  0  0  0  0
    5.4766    0.8824    0.2655 N   0  0  0  0  0  0  0  0  0  0  0  0
    4.8121   -0.0908   -0.3658 N   0  0  0  0  0  0  0  0  0  0  0  0
    3.0943   -0.8164   -1.2756 H   0  0  0  0  0  0  0  0  0  0  0  0
    3.4836    0.8790   -1.7034 H   0  0  0  0  0  0  0  0  0  0  0  0
    2.8251    0.5098   -0.1025 H   0  0  0  0  0  0  0  0  0  0  0  0
    5.1403   -2.1103   -0.8196 H   0  0  0  0  0  0  0  0  0  0  0  0
    6.5795   -1.1612   -0.3587 H   0  0  0  0  0  0  0  0  0  0  0  0
    5.8712   -0.9742   -1.9831 H   0  0  0  0  0  0  0  0  0  0  0  0
    7.0912    5.8574    3.2040 H   0  0  0  0  0  0  0  0  0  0  0  0
    8.2843    3.6862    2.9860 H   0  0  0  0  0  0  0  0  0  0  0  0
    4.8551    6.1450    2.1456 H   0  0  0  0  0  0  0  0  0  0  0  0
    7.2522    1.8146    1.7230 H   0  0  0  0  0  0  0  0  0  0  0  0
    3.8323    4.2526    0.8798 H   0  0  0  0  0  0  0  0  0  0  0  0
  1 11  1  0  0  0  0
  1 14  1  0  0  0  0
  2 15  1  0  0  0  0
  2 11  1  0  0  0  0
  2 16  1  0  0  0  0
  3 18  1  0  0  0  0
  4  3  1  0  0  0  0
  4 19  1  0  0  0  0
  5 20  1  0  0  0  0
  5  3  2  0  0  0  0
  6  4  2  0  0  0  0
  7  5  1  0  0  0  0
  8  7  2  0  0  0  0
  8  6  1  0  0  0  0
  9  8  1  0  0  0  0
 10  9  1  0  0  0  0
 11 10  1  0  0  0  0
 12  1  1  0  0  0  0
 13  1  1  0  0  0  0
 17  2  1  0  0  0  0
 21  6  1  0  0  0  0
 22  7  1  0  0  0  0
M  RAD  2   9   2  10   2
M  END
>  <HBA>
3

>  <HBD>
0

>  <TPSA>
27.96

>  <cid>
23654

>  <dipole>
2.44

>  <excitation_energy_1>
3.933

>  <excitation_energy_2>
4.206

>  <excitation_energy_3>
4.6

>  <excitation_energy_4>
5.109

>  <homo_energy>
-5.494

>  <homo_lumo_gap>
4.555

>  <logP>
2.247

>  <lumo_energy>
-0.939

>  <melting_point>
28.19

>  <molecular_refractivity>
44.52

>  <oscillator_strength_1>
0.0277

>  <oscillator_strength_2>
0.4989

>  <oscillator_strength_3>
0.0076

>  <oscillator_strength_4>
0.0081

>  <open_babel_can_smiles>
CN([N][N]c1ccccc1)C

>  <mulliken_charges>
22
1   -0.301753
2   -0.299091
3   -0.126233
4   -0.145703
5   -0.137768
6   -0.13928
7   -0.152095
8   0.284894
9   -0.389319
10   -0.050012
11   -0.198409
12   0.153449
13   0.165802
14   0.18986
15   0.159801
16   0.184245
17   0.156331
18   0.124288
19   0.126315
20   0.126135
21   0.139415
22   0.129128

>  <lowdin_charges>
22
1   -0.367314
2   -0.350477
3   -0.166031
4   -0.153226
5   -0.157133
6   -0.171864
7   -0.162689
8   0.023495
9   -0.170744
10   -0.037336
11   -0.042728
12   0.158185
13   0.156914
14   0.175245
15   0.154374
16   0.172941
17   0.145078
18   0.156563
19   0.154829
20   0.156197
21   0.16473
22   0.160992

$$$$

