PCCDB-ID:  8817
public computational chemistry database (PCCDB) project, http://pccdb.org

 18 18  0  0  0  0  0  0  0  0999 V2000
    0.8908   -0.0584   -0.3404 C   0  0  0  0  0  0  0  0  0  0  0  0
    4.9789   -3.8715    3.2503 C   0  0  0  0  0  0  0  0  0  0  0  0
    2.0905    0.0899    0.2357 C   0  0  0  0  0  0  0  0  0  0  0  0
    4.7656   -1.5068    2.3487 C   0  0  0  0  0  0  0  0  0  0  0  0
    4.0591   -0.5610    1.6172 C   0  0  0  0  0  0  0  0  0  0  0  0
    2.4267   -2.2397    1.1830 C   0  0  0  0  0  0  0  0  0  0  0  0
    4.2533   -2.8063    2.4658 C   0  0  0  0  0  0  0  0  0  0  0  0
    2.8441   -0.9095    1.0064 C   0  0  0  0  0  0  0  0  0  0  0  0
    3.0940   -3.1592    1.8826 N   0  0  0  0  0  0  0  0  0  0  0  0
    0.4333    0.7588   -0.8894 H   0  0  0  0  0  0  0  0  0  0  0  0
    0.3206   -0.9818   -0.2900 H   0  0  0  0  0  0  0  0  0  0  0  0
    5.1237   -3.5687    4.2949 H   0  0  0  0  0  0  0  0  0  0  0  0
    5.9740   -4.0675    2.8315 H   0  0  0  0  0  0  0  0  0  0  0  0
    4.4026   -4.7988    3.2309 H   0  0  0  0  0  0  0  0  0  0  0  0
    2.5880    1.0559    0.1429 H   0  0  0  0  0  0  0  0  0  0  0  0
    5.7069   -1.2465    2.8256 H   0  0  0  0  0  0  0  0  0  0  0  0
    4.4422    0.4522    1.5156 H   0  0  0  0  0  0  0  0  0  0  0  0
    1.4997   -2.5849    0.7285 H   0  0  0  0  0  0  0  0  0  0  0  0
  1 11  1  0  0  0  0
  1  3  2  0  0  0  0
  2 12  1  0  0  0  0
  3  8  1  0  0  0  0
  4  7  1  0  0  0  0
  4 16  1  0  0  0  0
  5  4  2  0  0  0  0
  6  9  1  0  0  0  0
  7  2  1  0  0  0  0
  8  6  2  0  0  0  0
  8  5  1  0  0  0  0
  9  7  2  0  0  0  0
 10  1  1  0  0  0  0
 13  2  1  0  0  0  0
 14  2  1  0  0  0  0
 15  3  1  0  0  0  0
 17  5  1  0  0  0  0
 18  6  1  0  0  0  0
M  END
>  <HBA>
1

>  <HBD>
0

>  <TPSA>
12.89

>  <cid>
8817

>  <dipole>
1.83

>  <excitation_energy_1>
4.531

>  <excitation_energy_2>
4.747

>  <excitation_energy_3>
4.86

>  <excitation_energy_4>
4.914

>  <homo_energy>
-6.163

>  <homo_lumo_gap>
5.14

>  <logP>
2.033

>  <lumo_energy>
-1.023

>  <melting_point>
16.79

>  <molecular_refractivity>
39.29

>  <oscillator_strength_1>
0.0001

>  <oscillator_strength_2>
0.1396

>  <oscillator_strength_3>
0.3244

>  <oscillator_strength_4>
0.0045

>  <open_babel_can_smiles>
C=Cc1ccc(nc1)C

>  <mulliken_charges>
18
1   -0.347101
2   -0.520447
3   -0.12218
4   -0.162393
5   -0.163455
6   -0.014914
7   0.305174
8   0.155225
9   -0.461279
10   0.147211
11   0.148003
12   0.160698
13   0.161404
14   0.177942
15   0.128939
16   0.130944
17   0.138734
18   0.137493

>  <lowdin_charges>
18
1   -0.328715
2   -0.447485
3   -0.146875
4   -0.181004
5   -0.13252
6   -0.08525
7   0.055967
8   -0.027723
9   -0.155689
10   0.16574
11   0.159745
12   0.160479
13   0.161482
14   0.171353
15   0.154595
16   0.161166
17   0.159404
18   0.155329

$$$$

