PCCDB-ID:  6915
public computational chemistry database (PCCDB) project, http://pccdb.org

 20 19  0  0  0  0  0  0  0  0999 V2000
    3.0006   -0.4650   -1.4119 C   0  0  0  0  0  0  0  0  0  0  0  0
    3.0664    2.9953    2.4058 C   0  0  0  0  0  0  0  0  0  0  0  0
    2.6628   -0.1311    0.0449 C   0  0  0  0  0  0  0  0  0  0  0  0
    2.6961    1.5842    1.9380 C   0  0  0  0  0  0  0  0  0  0  0  0
    3.1672    1.2518    0.5053 C   0  0  0  0  0  0  0  0  0  0  0  0
    4.6987    1.2724    0.4662 C   0  0  0  0  0  0  0  0  0  0  0  0
    5.3845    0.5084    1.1004 O   0  0  0  0  0  0  0  0  0  0  0  0
    5.2867    2.2133   -0.3227 O   0  0  0  0  0  0  0  0  0  0  0  0
    2.6066   -1.4493   -1.6868 H   0  0  0  0  0  0  0  0  0  0  0  0
    4.0839   -0.4871   -1.5785 H   0  0  0  0  0  0  0  0  0  0  0  0
    2.5668    0.2691   -2.1030 H   0  0  0  0  0  0  0  0  0  0  0  0
    2.7010    3.1766    3.4223 H   0  0  0  0  0  0  0  0  0  0  0  0
    2.6258    3.7619    1.7555 H   0  0  0  0  0  0  0  0  0  0  0  0
    4.1523    3.1448    2.4157 H   0  0  0  0  0  0  0  0  0  0  0  0
    3.0964   -0.8874    0.7096 H   0  0  0  0  0  0  0  0  0  0  0  0
    1.5752   -0.1620    0.1885 H   0  0  0  0  0  0  0  0  0  0  0  0
    1.6068    1.4558    1.9766 H   0  0  0  0  0  0  0  0  0  0  0  0
    3.1310    0.8414    2.6171 H   0  0  0  0  0  0  0  0  0  0  0  0
    2.7633    2.0150   -0.1792 H   0  0  0  0  0  0  0  0  0  0  0  0
    4.6036    2.7432   -0.7640 H   0  0  0  0  0  0  0  0  0  0  0  0
  1  3  1  0  0  0  0
  2 14  1  0  0  0  0
  2 12  1  0  0  0  0
  3 16  1  0  0  0  0
  3  5  1  0  0  0  0
  3 15  1  0  0  0  0
  4 17  1  0  0  0  0
  4  2  1  0  0  0  0
  4 18  1  0  0  0  0
  5  4  1  0  0  0  0
  6  5  1  0  0  0  0
  6  7  2  0  0  0  0
  8  6  1  0  0  0  0
  9  1  1  0  0  0  0
 10  1  1  0  0  0  0
 11  1  1  0  0  0  0
 13  2  1  0  0  0  0
 19  5  1  0  0  0  0
 20  8  1  0  0  0  0
M  END
>  <HBA>
2

>  <HBD>
1

>  <TPSA>
37.3

>  <cid>
6915

>  <dipole>
3.99

>  <excitation_energy_1>
5.659

>  <excitation_energy_2>
6.454

>  <excitation_energy_3>
7.219

>  <excitation_energy_4>
7.439

>  <homo_energy>
-7.257

>  <homo_lumo_gap>
7.546

>  <logP>
1.507

>  <lumo_energy>
0.288

>  <melting_point>
50.6

>  <molecular_refractivity>
32.73

>  <oscillator_strength_1>
0.0017

>  <oscillator_strength_2>
0.0075

>  <oscillator_strength_3>
0.0073

>  <oscillator_strength_4>
0.0026

>  <open_babel_can_smiles>
CCC(C(=O)O)CC

>  <mulliken_charges>
20
1   -0.461719
2   -0.46257
3   -0.255219
4   -0.256067
5   -0.17415
6   0.602517
7   -0.454804
8   -0.568987
9   0.154
10   0.164489
11   0.136716
12   0.154612
13   0.136656
14   0.164537
15   0.166472
16   0.136474
17   0.137724
18   0.166272
19   0.106726
20   0.406321

>  <lowdin_charges>
20
1   -0.449159
2   -0.449047
3   -0.267296
4   -0.266948
5   -0.165756
6   0.195766
7   -0.24825
8   -0.357362
9   0.156527
10   0.154886
11   0.14486
12   0.156381
13   0.144763
14   0.154752
15   0.160327
16   0.143121
17   0.143519
18   0.16002
19   0.132258
20   0.356636

$$$$

