PCCDB-ID:  30233
public computational chemistry database (PCCDB) project, http://pccdb.org

 24 23  0  0  0  0  0  0  0  0999 V2000
    1.0802   -0.2028    0.0506 C   0  0  0  0  0  0  0  0  0  0  0  0
    7.7066    3.8133   -5.0696 C   0  0  0  0  0  0  0  0  0  0  0  0
    2.5969   -0.0773   -0.1214 C   0  0  0  0  0  0  0  0  0  0  0  0
    2.9810    0.9733   -1.1553 C   0  0  0  0  0  0  0  0  0  0  0  0
    4.8607    1.9701   -2.1890 C   0  0  0  0  0  0  0  0  0  0  0  0
    6.3799    1.8474   -2.2228 C   0  0  0  0  0  0  0  0  0  0  0  0
    7.0536    2.6473   -4.3648 C   0  0  0  0  0  0  0  0  0  0  0  0
    6.6657    1.6312   -4.8968 O   0  0  0  0  0  0  0  0  0  0  0  0
    4.3955    1.0212   -1.2517 O   0  0  0  0  0  0  0  0  0  0  0  0
    6.9591    2.8902   -3.0328 O   0  0  0  0  0  0  0  0  0  0  0  0
    0.8319   -0.9638    0.7978 H   0  0  0  0  0  0  0  0  0  0  0  0
    0.5931   -0.4895   -0.8894 H   0  0  0  0  0  0  0  0  0  0  0  0
    0.6345    0.7437    0.3804 H   0  0  0  0  0  0  0  0  0  0  0  0
    7.7895    3.5933   -6.1344 H   0  0  0  0  0  0  0  0  0  0  0  0
    8.6992    4.0012   -4.6478 H   0  0  0  0  0  0  0  0  0  0  0  0
    7.1127    4.7215   -4.9227 H   0  0  0  0  0  0  0  0  0  0  0  0
    3.0266   -1.0390   -0.4279 H   0  0  0  0  0  0  0  0  0  0  0  0
    3.0683    0.1859    0.8337 H   0  0  0  0  0  0  0  0  0  0  0  0
    2.5864    1.9628   -0.8640 H   0  0  0  0  0  0  0  0  0  0  0  0
    2.5425    0.7263   -2.1378 H   0  0  0  0  0  0  0  0  0  0  0  0
    4.4471    1.7765   -3.1906 H   0  0  0  0  0  0  0  0  0  0  0  0
    4.5756    2.9940   -1.8938 H   0  0  0  0  0  0  0  0  0  0  0  0
    6.6751    0.8692   -2.6072 H   0  0  0  0  0  0  0  0  0  0  0  0
    6.7916    1.9929   -1.2219 H   0  0  0  0  0  0  0  0  0  0  0  0
  1 13  1  0  0  0  0
  1 11  1  0  0  0  0
  2 16  1  0  0  0  0
  2 15  1  0  0  0  0
  2  7  1  0  0  0  0
  3  1  1  0  0  0  0
  3 18  1  0  0  0  0
  4 19  1  0  0  0  0
  4  3  1  0  0  0  0
  5 22  1  0  0  0  0
  5  9  1  0  0  0  0
  6  5  1  0  0  0  0
  6 24  1  0  0  0  0
  7 10  1  0  0  0  0
  8  7  2  0  0  0  0
  9  4  1  0  0  0  0
 10  6  1  0  0  0  0
 12  1  1  0  0  0  0
 14  2  1  0  0  0  0
 17  3  1  0  0  0  0
 20  4  1  0  0  0  0
 21  5  1  0  0  0  0
 23  6  1  0  0  0  0
M  END
>  <HBA>
3

>  <HBD>
0

>  <TPSA>
35.53

>  <cid>
30233

>  <dipole>
1.87

>  <excitation_energy_1>
5.81

>  <excitation_energy_2>
6.513

>  <excitation_energy_3>
6.76

>  <excitation_energy_4>
6.952

>  <homo_energy>
-6.98

>  <homo_lumo_gap>
7.304

>  <logP>
0.976

>  <lumo_energy>
0.324

>  <melting_point>
-23.74

>  <molecular_refractivity>
38.13

>  <oscillator_strength_1>
0.0011

>  <oscillator_strength_2>
0.001

>  <oscillator_strength_3>
0.0164

>  <oscillator_strength_4>
0.0029

>  <open_babel_can_smiles>
CCCOCCOC(=O)C

>  <mulliken_charges>
24
1   -0.452408
2   -0.522679
3   -0.266873
4   0.002468
5   -0.023382
6   -0.063648
7   0.598259
8   -0.464087
9   -0.48555
10   -0.456313
11   0.150863
12   0.145991
13   0.144537
14   0.183102
15   0.18304
16   0.181694
17   0.149073
18   0.14656
19   0.116002
20   0.120589
21   0.144731
22   0.125695
23   0.179026
24   0.163309

>  <lowdin_charges>
24
1   -0.445967
2   -0.462762
3   -0.277977
4   -0.125373
5   -0.138108
6   -0.136537
7   0.202627
8   -0.263635
9   -0.273872
10   -0.198762
11   0.155572
12   0.148622
13   0.147843
14   0.174489
15   0.177999
16   0.178123
17   0.149908
18   0.148697
19   0.12378
20   0.126285
21   0.139081
22   0.127982
23   0.163531
24   0.158455

$$$$

