PCCDB-ID:  33381
public computational chemistry database (PCCDB) project, http://pccdb.org

 40 40  0  0  1  0  0  0  0  0999 V2000
    1.0202    1.3539   -1.1467 C   0  0  0  0  0  0  0  0  0  0  0  0
    3.2186    7.7985   -0.5836 C   0  0  0  0  0  0  0  0  0  0  0  0
    2.6632   -0.2912    0.9573 C   0  0  0  0  0  0  0  0  0  0  0  0
    2.5249    5.8256    2.7301 C   0  0  0  0  0  0  0  0  0  0  0  0
    8.6039    3.5079    0.9467 C   0  0  0  0  0  0  0  0  0  0  0  0
    2.5444    1.3738   -0.9881 C   0  0  0  0  0  0  0  0  0  0  0  0
    2.7685    7.5149    0.8511 C   0  0  0  0  0  0  0  0  0  0  0  0
    3.0511    1.1030    0.4483 C   0  0  2  0  0  0  0  0  0  0  0  0
    3.0942    6.0882    1.3252 C   0  0  1  0  0  0  0  0  0  0  0  0
    7.1018    3.4505    0.9171 C   0  0  1  0  0  0  0  0  0  0  0  0
    5.1011    2.3078    0.6763 C   0  0  0  0  0  0  0  0  0  0  0  0
    5.0622    4.7634    1.1322 C   0  0  0  0  0  0  0  0  0  0  0  0
    4.5044    1.1967    0.4762 N   0  0  0  0  0  0  0  0  0  0  0  0
    4.5435    5.9136    1.3250 N   0  0  0  0  0  0  0  0  0  0  0  0
    6.4984    2.3322    0.6932 N   0  0  0  0  0  0  0  0  0  0  0  0
    6.4533    4.6428    1.1443 N   0  0  0  0  0  0  0  0  0  0  0  0
    4.4424    3.5474    0.8944 N   0  0  0  0  0  0  0  0  0  0  0  0
    0.7340    1.6333   -2.1670 H   0  0  0  0  0  0  0  0  0  0  0  0
    0.5355    2.0620   -0.4620 H   0  0  0  0  0  0  0  0  0  0  0  0
    0.6003    0.3622   -0.9486 H   0  0  0  0  0  0  0  0  0  0  0  0
    2.9776    8.8259   -0.8790 H   0  0  0  0  0  0  0  0  0  0  0  0
    2.7261    7.1238   -1.2959 H   0  0  0  0  0  0  0  0  0  0  0  0
    4.2999    7.6590   -0.6813 H   0  0  0  0  0  0  0  0  0  0  0  0
    1.5764   -0.4150    1.0124 H   0  0  0  0  0  0  0  0  0  0  0  0
    3.0784   -0.4548    1.9568 H   0  0  0  0  0  0  0  0  0  0  0  0
    3.0750   -1.0601    0.2943 H   0  0  0  0  0  0  0  0  0  0  0  0
    1.4392    5.9766    2.7479 H   0  0  0  0  0  0  0  0  0  0  0  0
    2.9816    6.5100    3.4535 H   0  0  0  0  0  0  0  0  0  0  0  0
    2.7331    4.8019    3.0621 H   0  0  0  0  0  0  0  0  0  0  0  0
    9.0003    2.5151    0.7341 H   0  0  0  0  0  0  0  0  0  0  0  0
    8.9623    3.8361    1.9302 H   0  0  0  0  0  0  0  0  0  0  0  0
    8.9835    4.2165    0.2004 H   0  0  0  0  0  0  0  0  0  0  0  0
    2.9287    2.3501   -1.3141 H   0  0  0  0  0  0  0  0  0  0  0  0
    3.0050    0.6315   -1.6523 H   0  0  0  0  0  0  0  0  0  0  0  0
    1.6855    7.6744    0.9422 H   0  0  0  0  0  0  0  0  0  0  0  0
    3.2545    8.2190    1.5393 H   0  0  0  0  0  0  0  0  0  0  0  0
    2.5661    1.8368    1.1245 H   0  0  0  0  0  0  0  0  0  0  0  0
    2.6010    5.3962    0.6144 H   0  0  0  0  0  0  0  0  0  0  0  0
    6.9570    5.5048    1.3033 H   0  0  0  0  0  0  0  0  0  0  0  0
    3.4339    3.5512    0.8757 H   0  0  0  0  0  0  0  0  0  0  0  0
  1  6  1  0  0  0  0
  1 20  1  0  0  0  0
  1 19  1  0  0  0  0
  2  7  1  0  0  0  0
  3 24  1  0  0  0  0
  3 25  1  0  0  0  0
  4 27  1  0  0  0  0
  4 29  1  0  0  0  0
  4 28  1  0  0  0  0
  5 31  1  0  0  0  0
  6  8  1  0  0  0  0
  7 35  1  0  0  0  0
  7  9  1  0  0  0  0
  7 36  1  0  0  0  0
  8 13  1  0  0  0  0
  8  3  1  0  0  0  0
  8 37  1  1  0  0  0
  9 38  1  6  0  0  0
  9  4  1  0  0  0  0
 10  5  1  1  0  0  0
 10 16  1  0  0  0  0
 11 15  2  0  0  0  0
 11 17  1  0  0  0  0
 12 16  1  0  0  0  0
 12 14  2  0  0  0  0
 13 11  1  0  0  0  0
 14  9  1  0  0  0  0
 15 10  1  0  0  0  0
 16 39  1  0  0  0  0
 17 12  1  0  0  0  0
 18  1  1  0  0  0  0
 21  2  1  0  0  0  0
 22  2  1  0  0  0  0
 23  2  1  0  0  0  0
 26  3  1  0  0  0  0
 30  5  1  0  0  0  0
 32  5  1  0  0  0  0
 33  6  1  0  0  0  0
 34  6  1  0  0  0  0
 40 17  1  0  0  0  0
M  RAD  2  10   2  13   2
M  END
>  <HBA>
5

>  <HBD>
2

>  <TPSA>
62.73

>  <cid>
33381

>  <dipole>
2.69

>  <excitation_energy_1>
4.826

>  <excitation_energy_2>
4.947

>  <excitation_energy_3>
5.066

>  <excitation_energy_4>
5.361

>  <homo_energy>
-6.112

>  <homo_lumo_gap>
5.562

>  <logP>
2.747

>  <lumo_energy>
-0.55

>  <melting_point>
120.8

>  <molecular_refractivity>
72.25

>  <oscillator_strength_1>
0.0045

>  <oscillator_strength_2>
0.1068

>  <oscillator_strength_3>
0.0912

>  <oscillator_strength_4>
0.0179

>  <open_babel_can_smiles>
CC[C@H]([N]C1=N[C](N/C(=N/[C@H](CC)C)/N1)C)C

>  <mulliken_charges>
40
1   -0.448939
2   -0.446304
3   -0.43542
4   -0.44157
5   -0.534886
6   -0.245556
7   -0.238044
8   0.007592
9   0.013693
10   0.517926
11   0.634292
12   0.75164
13   -0.449914
14   -0.503047
15   -0.488533
16   -0.67317
17   -0.738302
18   0.146148
19   0.134704
20   0.152294
21   0.140089
22   0.134001
23   0.157288
24   0.133716
25   0.150036
26   0.15365
27   0.141967
28   0.156794
29   0.138747
30   0.204612
31   0.174414
32   0.17212
33   0.126587
34   0.150807
35   0.124335
36   0.138249
37   0.088012
38   0.098128
39   0.345621
40   0.356223

>  <lowdin_charges>
40
1   -0.448113
2   -0.445585
3   -0.443029
4   -0.448674
5   -0.450367
6   -0.280446
7   -0.272389
8   -0.064914
9   -0.059651
10   0.117816
11   0.12181
12   0.136935
13   -0.211871
14   -0.265913
15   -0.197116
16   -0.233347
17   -0.272987
18   0.151769
19   0.143864
20   0.15059
21   0.14821
22   0.14399
23   0.152397
24   0.142917
25   0.154971
26   0.156601
27   0.148381
28   0.157593
29   0.145618
30   0.187627
31   0.169569
32   0.169507
33   0.138148
34   0.15284
35   0.137218
36   0.147333
37   0.109061
38   0.114489
39   0.30348
40   0.291667

$$$$

