PCCDB-ID:  14248
public computational chemistry database (PCCDB) project, http://pccdb.org

 14 13  0  0  0  0  0  0  0  0999 V2000
    1.1638    0.1000    0.0234 C   0  0  0  0  0  0  0  0  0  0  0  0
    0.2759    1.0264    0.3807 C   0  0  0  0  0  0  0  0  0  0  0  0
    2.6616    0.3079    0.0787 C   0  0  0  0  0  0  0  0  0  0  0  0
   -1.2219    0.8197    0.3223 C   0  0  0  0  0  0  0  0  0  0  0  0
    3.3278   -0.6873    0.9311 C   0  0  0  0  0  0  0  0  0  0  0  0
   -1.8848    1.8155   -0.5320 C   0  0  0  0  0  0  0  0  0  0  0  0
    3.8372   -1.4849    1.6025 N   0  0  0  0  0  0  0  0  0  0  0  0
   -2.3915    2.6135   -1.2051 N   0  0  0  0  0  0  0  0  0  0  0  0
    0.8306   -0.8717   -0.3381 H   0  0  0  0  0  0  0  0  0  0  0  0
    0.6092    1.9988    0.7407 H   0  0  0  0  0  0  0  0  0  0  0  0
    2.8995    1.3107    0.4521 H   0  0  0  0  0  0  0  0  0  0  0  0
    3.0933    0.2321   -0.9293 H   0  0  0  0  0  0  0  0  0  0  0  0
   -1.6562    0.8962    1.3291 H   0  0  0  0  0  0  0  0  0  0  0  0
   -1.4598   -0.1829   -0.0515 H   0  0  0  0  0  0  0  0  0  0  0  0
  1  3  1  0  0  0  0
  1  2  2  0  0  0  0
  2 10  1  0  0  0  0
  3 11  1  0  0  0  0
  3  5  1  0  0  0  0
  4  2  1  0  0  0  0
  4 13  1  0  0  0  0
  5  7  3  0  0  0  0
  6  4  1  0  0  0  0
  8  6  3  0  0  0  0
  9  1  1  0  0  0  0
 12  3  1  0  0  0  0
 14  4  1  0  0  0  0
M  END
>  <HBA>
2

>  <HBD>
0

>  <TPSA>
47.58

>  <cid>
14248

>  <dipole>
0.01

>  <excitation_energy_1>
6.784

>  <excitation_energy_2>
7.098

>  <excitation_energy_3>
7.177

>  <excitation_energy_4>
7.269

>  <homo_energy>
-8.027

>  <homo_lumo_gap>
7.268

>  <logP>
1.37

>  <lumo_energy>
-0.759

>  <melting_point>
51.03

>  <molecular_refractivity>
29.98

>  <oscillator_strength_1>
0.1271

>  <oscillator_strength_2>
0.2573

>  <oscillator_strength_3>
0.0

>  <oscillator_strength_4>
0.0

>  <open_babel_can_smiles>
N#CC/C=C/CC#N

>  <mulliken_charges>
14
1   -0.07938
2   -0.079672
3   -0.393307
4   -0.393225
5   0.354169
6   0.354145
7   -0.456635
8   -0.45662
9   0.15769
10   0.157714
11   0.205115
12   0.212474
13   0.212427
14   0.205105

>  <lowdin_charges>
14
1   -0.146427
2   -0.146471
3   -0.264668
4   -0.264683
5   -0.015921
6   -0.015901
7   -0.117426
8   -0.117413
9   0.165721
10   0.165726
11   0.187363
12   0.191384
13   0.191357
14   0.187359

$$$$

