PCCDB-ID:  978
public computational chemistry database (PCCDB) project, http://pccdb.org

 17 17  0  0  0  0  0  0  0  0999 V2000
   -0.7758    1.1494    0.0418 C   0  0  0  0  0  0  0  0  0  0  0  0
    1.3814    0.0659   -0.0597 C   0  0  0  0  0  0  0  0  0  0  0  0
   -1.3994   -0.0896    0.0483 C   0  0  0  0  0  0  0  0  0  0  0  0
    0.7659   -1.1754   -0.0535 C   0  0  0  0  0  0  0  0  0  0  0  0
    0.6238    1.2467   -0.0128 C   0  0  0  0  0  0  0  0  0  0  0  0
   -0.6391   -1.2748    0.0007 C   0  0  0  0  0  0  0  0  0  0  0  0
    1.3351    2.5391   -0.0252 C   0  0  0  0  0  0  0  0  0  0  0  0
   -1.2578   -2.5143    0.0589 N   0  0  0  0  0  0  0  0  0  0  0  0
    0.4975    3.6141    0.0179 O   0  0  0  0  0  0  0  0  0  0  0  0
    2.5439    2.6790   -0.0693 O   0  0  0  0  0  0  0  0  0  0  0  0
   -1.3735    2.0537    0.0765 H   0  0  0  0  0  0  0  0  0  0  0  0
    2.4628    0.1456   -0.1034 H   0  0  0  0  0  0  0  0  0  0  0  0
   -2.4843   -0.1523    0.0937 H   0  0  0  0  0  0  0  0  0  0  0  0
    1.3655   -2.0821   -0.0875 H   0  0  0  0  0  0  0  0  0  0  0  0
   -2.2294   -2.5451   -0.2204 H   0  0  0  0  0  0  0  0  0  0  0  0
   -0.7242   -3.2994   -0.2902 H   0  0  0  0  0  0  0  0  0  0  0  0
    1.0829    4.3932    0.0062 H   0  0  0  0  0  0  0  0  0  0  0  0
  1  3  1  0  0  0  0
  1 11  1  0  0  0  0
  2  4  2  0  0  0  0
  2  5  1  0  0  0  0
  3 13  1  0  0  0  0
  4  6  1  0  0  0  0
  5  1  2  0  0  0  0
  6  3  2  0  0  0  0
  6  8  1  0  0  0  0
  7  5  1  0  0  0  0
  7  9  1  0  0  0  0
 10  7  2  0  0  0  0
 12  2  1  0  0  0  0
 14  4  1  0  0  0  0
 15  8  1  0  0  0  0
 16  8  1  0  0  0  0
 17  9  1  0  0  0  0
M  END
>  <HBA>
3

>  <HBD>
2

>  <TPSA>
63.32

>  <cid>
978

>  <dipole>
3.92

>  <excitation_energy_1>
4.669

>  <excitation_energy_2>
4.721

>  <excitation_energy_3>
5.004

>  <excitation_energy_4>
5.028

>  <homo_energy>
-5.815

>  <homo_lumo_gap>
5.01

>  <logP>
1.548

>  <lumo_energy>
-0.805

>  <melting_point>
144.8

>  <molecular_refractivity>
37.81

>  <oscillator_strength_1>
0.4078

>  <oscillator_strength_2>
0.0087

>  <oscillator_strength_3>
0.008

>  <oscillator_strength_4>
0.0001

>  <open_babel_can_smiles>
OC(=O)c1ccc(cc1)N

>  <mulliken_charges>
17
1   -0.169016
2   -0.164469
3   -0.180095
4   -0.181194
5   0.068132
6   0.335725
7   0.527069
8   -0.790151
9   -0.590568
10   -0.487964
11   0.157944
12   0.162
13   0.123378
14   0.124939
15   0.328293
16   0.328665
17   0.407312

>  <lowdin_charges>
17
1   -0.126255
2   -0.114266
3   -0.200305
4   -0.201969
5   -0.076485
6   0.077323
7   0.189521
8   -0.472682
9   -0.370372
10   -0.286177
11   0.173642
12   0.174826
13   0.15361
14   0.156736
15   0.279831
16   0.282265
17   0.360758

$$$$

