PCCDB-ID:  21476
public computational chemistry database (PCCDB) project, http://pccdb.org

 22 22  0  0  0  0  0  0  0  0999 V2000
    1.9937   -0.8224    1.0618 C   0  0  0  0  0  0  0  0  0  0  0  0
    4.7842    1.6670   -3.9760 C   0  0  0  0  0  0  0  0  0  0  0  0
    4.0624   -3.2984   -3.3112 C   0  0  0  0  0  0  0  0  0  0  0  0
    2.5081    0.0288    0.1653 C   0  0  0  0  0  0  0  0  0  0  0  0
    4.3911   -0.8026   -3.5791 C   0  0  0  0  0  0  0  0  0  0  0  0
    3.6248    0.7552   -1.9200 C   0  0  0  0  0  0  0  0  0  0  0  0
    3.3162   -1.6115   -1.5834 C   0  0  0  0  0  0  0  0  0  0  0  0
    4.2498    0.5199   -3.1489 C   0  0  0  0  0  0  0  0  0  0  0  0
    3.9273   -1.8788   -2.8085 C   0  0  0  0  0  0  0  0  0  0  0  0
    3.1517   -0.2952   -1.1190 C   0  0  0  0  0  0  0  0  0  0  0  0
    1.5417   -0.4588    1.9796 H   0  0  0  0  0  0  0  0  0  0  0  0
    1.9998   -1.9004    0.9248 H   0  0  0  0  0  0  0  0  0  0  0  0
    4.8243    1.4096   -5.0397 H   0  0  0  0  0  0  0  0  0  0  0  0
    5.8025    1.9398   -3.6680 H   0  0  0  0  0  0  0  0  0  0  0  0
    4.1629    2.5627   -3.8677 H   0  0  0  0  0  0  0  0  0  0  0  0
    4.9495   -3.4177   -3.9425 H   0  0  0  0  0  0  0  0  0  0  0  0
    3.1925   -3.5919   -3.9141 H   0  0  0  0  0  0  0  0  0  0  0  0
    4.1390   -4.0109   -2.4830 H   0  0  0  0  0  0  0  0  0  0  0  0
    2.4575    1.0952    0.3867 H   0  0  0  0  0  0  0  0  0  0  0  0
    4.8727   -1.0026   -4.5348 H   0  0  0  0  0  0  0  0  0  0  0  0
    3.5037    1.7795   -1.5718 H   0  0  0  0  0  0  0  0  0  0  0  0
    2.9594   -2.4433   -0.9815 H   0  0  0  0  0  0  0  0  0  0  0  0
  1 11  1  0  0  0  0
  2 15  1  0  0  0  0
  2 14  1  0  0  0  0
  2  8  1  0  0  0  0
  3  9  1  0  0  0  0
  3 18  1  0  0  0  0
  4 19  1  0  0  0  0
  4  1  2  0  0  0  0
  5  8  2  0  0  0  0
  5  9  1  0  0  0  0
  6 21  1  0  0  0  0
  6 10  2  0  0  0  0
  7 10  1  0  0  0  0
  7 22  1  0  0  0  0
  8  6  1  0  0  0  0
  9  7  2  0  0  0  0
 10  4  1  0  0  0  0
 12  1  1  0  0  0  0
 13  2  1  0  0  0  0
 16  3  1  0  0  0  0
 17  3  1  0  0  0  0
 20  5  1  0  0  0  0
M  END
>  <HBA>
0

>  <HBD>
0

>  <TPSA>
0.0

>  <cid>
21476

>  <dipole>
0.56

>  <excitation_energy_1>
4.592

>  <excitation_energy_2>
4.758

>  <excitation_energy_3>
5.577

>  <excitation_energy_4>
5.65

>  <homo_energy>
-5.88

>  <homo_lumo_gap>
5.162

>  <logP>
2.946

>  <lumo_energy>
-0.718

>  <melting_point>
6.13

>  <molecular_refractivity>
46.47

>  <oscillator_strength_1>
0.0224

>  <oscillator_strength_2>
0.3154

>  <oscillator_strength_3>
0.2568

>  <oscillator_strength_4>
0.0135

>  <open_babel_can_smiles>
C=Cc1cc(C)cc(c1)C

>  <mulliken_charges>
22
1   -0.352027
2   -0.529717
3   -0.529558
4   -0.116283
5   -0.237579
6   -0.260123
7   -0.246421
8   0.188644
9   0.186931
10   0.185586
11   0.142204
12   0.141116
13   0.155366
14   0.165196
15   0.15681
16   0.155672
17   0.165279
18   0.156312
19   0.125188
20   0.112842
21   0.117613
22   0.11695

>  <lowdin_charges>
22
1   -0.332969
2   -0.43968
3   -0.443398
4   -0.143297
5   -0.177451
6   -0.175372
7   -0.172572
8   0.003312
9   0.004798
10   0.000238
11   0.162091
12   0.154086
13   0.155652
14   0.160837
15   0.158238
16   0.157607
17   0.162252
18   0.158217
19   0.151588
20   0.150531
21   0.150956
22   0.154334

$$$$

