PCCDB-ID:  2358
public computational chemistry database (PCCDB) project, http://pccdb.org

 24 25  0  0  1  0  0  0  0  0999 V2000
    2.6274    1.3000   -0.6926 C   0  0  0  0  0  0  0  0  0  0  0  0
    2.5730   -2.2745    0.0474 C   0  0  0  0  0  0  0  0  0  0  0  0
    3.2444   -3.4505   -0.2583 C   0  0  0  0  0  0  0  0  0  0  0  0
    4.0949   -1.0153   -1.3707 C   0  0  0  0  0  0  0  0  0  0  0  0
    2.9918   -1.0545   -0.5090 C   0  0  0  0  0  0  0  0  0  0  0  0
    4.3317   -3.4185   -1.1337 C   0  0  0  0  0  0  0  0  0  0  0  0
    4.7571   -2.2007   -1.6863 C   0  0  0  0  0  0  0  0  0  0  0  0
    6.1538   -4.5316   -2.2722 C   0  0  0  0  0  0  0  0  0  0  0  0
    6.8282   -3.1538   -2.2842 C   0  0  1  0  0  0  0  0  0  0  0  0
    5.0209   -4.5762   -1.5492 N   0  0  0  0  0  0  0  0  0  0  0  0
    6.5865   -5.5016   -2.9055 O   0  0  0  0  0  0  0  0  0  0  0  0
    7.7972   -3.1109   -3.2487 O   0  0  0  0  0  0  0  0  0  0  0  0
    4.3088   -5.7803   -1.5538 O   0  0  0  0  0  0  0  0  0  0  0  0
    2.2706    0.0406   -0.1415 O   0  0  0  0  0  0  0  0  0  0  0  0
    5.8081   -2.1645   -2.5664 O   0  0  0  0  0  0  0  0  0  0  0  0
    1.9147    2.0173   -0.2822 H   0  0  0  0  0  0  0  0  0  0  0  0
    2.5502    1.2960   -1.7875 H   0  0  0  0  0  0  0  0  0  0  0  0
    3.6448    1.5929   -0.4020 H   0  0  0  0  0  0  0  0  0  0  0  0
    1.7186   -2.2757    0.7152 H   0  0  0  0  0  0  0  0  0  0  0  0
    2.9182   -4.3995    0.1517 H   0  0  0  0  0  0  0  0  0  0  0  0
    4.4582   -0.0963   -1.8126 H   0  0  0  0  0  0  0  0  0  0  0  0
    7.2609   -2.9049   -1.3041 H   0  0  0  0  0  0  0  0  0  0  0  0
    7.6931   -3.9175   -3.7908 H   0  0  0  0  0  0  0  0  0  0  0  0
    4.8717   -6.3307   -2.1455 H   0  0  0  0  0  0  0  0  0  0  0  0
  1 18  1  0  0  0  0
  1 16  1  0  0  0  0
  1 14  1  0  0  0  0
  2 19  1  0  0  0  0
  3  2  1  0  0  0  0
  3 20  1  0  0  0  0
  4  5  1  0  0  0  0
  5 14  1  0  0  0  0
  5  2  2  0  0  0  0
  6  3  2  0  0  0  0
  7  4  2  0  0  0  0
  7  6  1  0  0  0  0
  8 10  1  0  0  0  0
  9  8  1  0  0  0  0
  9 22  1  1  0  0  0
 10  6  1  0  0  0  0
 11  8  2  0  0  0  0
 12  9  1  0  0  0  0
 13 10  1  0  0  0  0
 15  9  1  0  0  0  0
 15  7  1  0  0  0  0
 17  1  1  0  0  0  0
 21  4  1  0  0  0  0
 23 12  1  0  0  0  0
 24 13  1  0  0  0  0
M  END
>  <HBA>
6

>  <HBD>
2

>  <TPSA>
79.23

>  <cid>
2358

>  <dipole>
2.48

>  <excitation_energy_1>
4.358

>  <excitation_energy_2>
4.558

>  <excitation_energy_3>
4.92

>  <excitation_energy_4>
5.374

>  <homo_energy>
-5.706

>  <homo_lumo_gap>
4.942

>  <logP>
0.193

>  <lumo_energy>
-0.765

>  <melting_point>
142.04

>  <molecular_refractivity>
51.74

>  <oscillator_strength_1>
0.2147

>  <oscillator_strength_2>
0.0138

>  <oscillator_strength_3>
0.0167

>  <oscillator_strength_4>
0.1439

>  <open_babel_can_smiles>
COc1ccc2c(c1)O[C@@H](C(=O)N2O)O

>  <mulliken_charges>
24
1   -0.218253
2   -0.186107
3   -0.161806
4   -0.273316
5   0.391178
6   0.314598
7   0.324561
8   0.525685
9   0.298872
10   -0.286357
11   -0.552052
12   -0.600969
13   -0.515103
14   -0.50743
15   -0.529883
16   0.174923
17   0.157955
18   0.156301
19   0.147266
20   0.167697
21   0.153349
22   0.162217
23   0.42202
24   0.434654

>  <lowdin_charges>
24
1   -0.274926
2   -0.186124
3   -0.148244
4   -0.230423
5   0.10912
6   -0.013647
7   0.093927
8   0.102156
9   0.088402
10   0.069397
11   -0.321703
12   -0.395249
13   -0.362319
14   -0.192947
15   -0.208
16   0.167033
17   0.146399
18   0.146821
19   0.172918
20   0.179946
21   0.178635
22   0.148758
23   0.362153
24   0.367917

$$$$

