PCCDB-ID:  15288
public computational chemistry database (PCCDB) project, http://pccdb.org

 22 21  0  0  1  0  0  0  0  0999 V2000
    1.9621    0.3699    2.4156 C   0  0  0  0  0  0  0  0  0  0  0  0
    5.1282    1.9535    0.3981 C   0  0  0  0  0  0  0  0  0  0  0  0
    4.9297   -0.6335   -1.3966 C   0  0  0  0  0  0  0  0  0  0  0  0
    2.7471   -0.5331    1.8256 C   0  0  0  0  0  0  0  0  0  0  0  0
    5.4435    0.5156    0.8260 C   0  0  0  0  0  0  0  0  0  0  0  0
    3.1321   -0.5214    0.3715 C   0  0  0  0  0  0  0  0  0  0  0  0
    4.6547   -0.6054    0.1141 C   0  0  1  0  0  0  0  0  0  0  0  0
    5.0458   -1.8696    0.6842 O   0  0  0  0  0  0  0  0  0  0  0  0
    1.7031    0.3029    3.4691 H   0  0  0  0  0  0  0  0  0  0  0  0
    1.5372    1.2084    1.8660 H   0  0  0  0  0  0  0  0  0  0  0  0
    5.7504    2.6611    0.9574 H   0  0  0  0  0  0  0  0  0  0  0  0
    4.0825    2.2111    0.5970 H   0  0  0  0  0  0  0  0  0  0  0  0
    5.3218    2.1185   -0.6677 H   0  0  0  0  0  0  0  0  0  0  0  0
    4.5676    0.2702   -1.8986 H   0  0  0  0  0  0  0  0  0  0  0  0
    4.4359   -1.4999   -1.8484 H   0  0  0  0  0  0  0  0  0  0  0  0
    6.0070   -0.7156   -1.5929 H   0  0  0  0  0  0  0  0  0  0  0  0
    3.1520   -1.3594    2.4079 H   0  0  0  0  0  0  0  0  0  0  0  0
    5.2695    0.4092    1.9028 H   0  0  0  0  0  0  0  0  0  0  0  0
    6.5152    0.3218    0.6622 H   0  0  0  0  0  0  0  0  0  0  0  0
    2.7258    0.3702   -0.1202 H   0  0  0  0  0  0  0  0  0  0  0  0
    2.6850   -1.3936   -0.1271 H   0  0  0  0  0  0  0  0  0  0  0  0
    6.0104   -1.9381    0.6013 H   0  0  0  0  0  0  0  0  0  0  0  0
  1  9  1  0  0  0  0
  2 12  1  0  0  0  0
  2  5  1  0  0  0  0
  2 11  1  0  0  0  0
  3  7  1  0  0  0  0
  4 17  1  0  0  0  0
  4  1  2  0  0  0  0
  5 18  1  0  0  0  0
  6  4  1  0  0  0  0
  7  6  1  0  0  0  0
  7  8  1  1  0  0  0
  7  5  1  0  0  0  0
 10  1  1  0  0  0  0
 13  2  1  0  0  0  0
 14  3  1  0  0  0  0
 15  3  1  0  0  0  0
 16  3  1  0  0  0  0
 19  5  1  0  0  0  0
 20  6  1  0  0  0  0
 21  6  1  0  0  0  0
 22  8  1  0  0  0  0
M  END
>  <HBA>
1

>  <HBD>
1

>  <TPSA>
20.23

>  <cid>
15288

>  <dipole>
1.59

>  <excitation_energy_1>
6.313

>  <excitation_energy_2>
6.473

>  <excitation_energy_3>
6.621

>  <excitation_energy_4>
6.754

>  <homo_energy>
-6.708

>  <homo_lumo_gap>
7.448

>  <logP>
1.724

>  <lumo_energy>
0.74

>  <melting_point>
-18.18

>  <molecular_refractivity>
36.49

>  <oscillator_strength_1>
0.0038

>  <oscillator_strength_2>
0.0234

>  <oscillator_strength_3>
0.025

>  <oscillator_strength_4>
0.0607

>  <open_babel_can_smiles>
C[C@@](CC)(CC=C)O

>  <mulliken_charges>
22
1   -0.349354
2   -0.455979
3   -0.460538
4   -0.041844
5   -0.265898
6   -0.310457
7   0.303691
8   -0.6433
9   0.136941
10   0.130059
11   0.146251
12   0.153382
13   0.144412
14   0.144623
15   0.154463
16   0.129419
17   0.146683
18   0.153232
19   0.111847
20   0.135521
21   0.153093
22   0.383754

>  <lowdin_charges>
22
1   -0.348255
2   -0.44733
3   -0.458082
4   -0.142297
5   -0.28556
6   -0.279301
7   0.121921
8   -0.463388
9   0.155373
10   0.150994
11   0.154864
12   0.151015
13   0.145623
14   0.152749
15   0.157739
16   0.14262
17   0.161699
18   0.152671
19   0.131383
20   0.149465
21   0.159943
22   0.336155

$$$$

