PCCDB-ID:  48752
public computational chemistry database (PCCDB) project, http://pccdb.org

 29 29  0  0  1  0  0  0  0  0999 V2000
    2.2102    0.6839   -2.0911 C   0  0  0  0  0  0  0  0  0  0  0  0
    4.0676    2.9331    2.8644 C   0  0  0  0  0  0  0  0  0  0  0  0
    3.2480    0.9406    4.2187 C   0  0  0  0  0  0  0  0  0  0  0  0
    2.2757    0.3873   -0.5923 C   0  0  0  0  0  0  0  0  0  0  0  0
    2.9007    0.9766    1.7618 C   0  0  0  0  0  0  0  0  0  0  0  0
    3.3788    1.5922    2.8638 C   0  0  0  0  0  0  0  0  0  0  0  0
    2.2116    2.8069    0.1374 C   0  0  0  0  0  0  0  0  0  0  0  0
    4.3830    1.7160   -0.1685 C   0  0  0  0  0  0  0  0  0  0  0  0
    3.7533    3.5616   -1.4117 C   0  0  0  0  0  0  0  0  0  0  0  0
    2.9519    1.4801    0.3184 C   0  0  2  0  0  0  0  0  0  0  0  0
    2.5651    3.7413   -0.6519 N   0  0  0  0  0  0  0  0  0  0  0  0
    4.7431    2.6463   -0.9598 N   0  0  0  0  0  0  0  0  0  0  0  0
    1.0661    2.9561    0.8314 O   0  0  0  0  0  0  0  0  0  0  0  0
    5.3103    0.8246    0.2332 O   0  0  0  0  0  0  0  0  0  0  0  0
    3.9444    4.2212   -2.4074 O   0  0  0  0  0  0  0  0  0  0  0  0
    1.7225   -0.1517   -2.6039 H   0  0  0  0  0  0  0  0  0  0  0  0
    3.2058    0.8072   -2.5283 H   0  0  0  0  0  0  0  0  0  0  0  0
    1.6325    1.5883   -2.3049 H   0  0  0  0  0  0  0  0  0  0  0  0
    5.0747    2.8400    3.2910 H   0  0  0  0  0  0  0  0  0  0  0  0
    3.5212    3.6368    3.5058 H   0  0  0  0  0  0  0  0  0  0  0  0
    4.1616    3.3837    1.8753 H   0  0  0  0  0  0  0  0  0  0  0  0
    2.7040    1.5946    4.9126 H   0  0  0  0  0  0  0  0  0  0  0  0
    4.2377    0.7726    4.6634 H   0  0  0  0  0  0  0  0  0  0  0  0
    2.7263   -0.0197    4.1693 H   0  0  0  0  0  0  0  0  0  0  0  0
    2.8232   -0.5488   -0.4232 H   0  0  0  0  0  0  0  0  0  0  0  0
    1.2623    0.2319   -0.2006 H   0  0  0  0  0  0  0  0  0  0  0  0
    2.4204    0.0068    1.8936 H   0  0  0  0  0  0  0  0  0  0  0  0
    1.0237    2.2537    1.5052 H   0  0  0  0  0  0  0  0  0  0  0  0
    4.9255    0.2845    0.9468 H   0  0  0  0  0  0  0  0  0  0  0  0
  1  4  1  0  0  0  0
  2 19  1  0  0  0  0
  2 20  1  0  0  0  0
  3 23  1  0  0  0  0
  3 22  1  0  0  0  0
  4 25  1  0  0  0  0
  4 26  1  0  0  0  0
  4 10  1  0  0  0  0
  5 27  1  0  0  0  0
  5  6  2  0  0  0  0
  6  2  1  0  0  0  0
  6  3  1  0  0  0  0
  7 10  1  0  0  0  0
  7 13  1  0  0  0  0
  8 14  1  0  0  0  0
  8 10  1  0  0  0  0
  9 12  1  0  0  0  0
  9 11  2  0  0  0  0
 10  5  1  1  0  0  0
 11  7  2  0  0  0  0
 12  8  2  0  0  0  0
 13 28  1  0  0  0  0
 14 29  1  0  0  0  0
 15  9  2  0  0  0  0
 16  1  1  0  0  0  0
 17  1  1  0  0  0  0
 18  1  1  0  0  0  0
 21  2  1  0  0  0  0
 24  3  1  0  0  0  0
M  END
>  <HBA>
5

>  <HBD>
2

>  <TPSA>
75.27

>  <cid>
48752

>  <dipole>
10.13

>  <excitation_energy_1>
4.0

>  <excitation_energy_2>
4.272

>  <excitation_energy_3>
5.013

>  <excitation_energy_4>
5.282

>  <homo_energy>
-6.716

>  <homo_lumo_gap>
5.347

>  <logP>
1.373

>  <lumo_energy>
-1.369

>  <melting_point>
154.12

>  <molecular_refractivity>
61.76

>  <oscillator_strength_1>
0.0005

>  <oscillator_strength_2>
0.0009

>  <oscillator_strength_3>
0.0584

>  <oscillator_strength_4>
0.0055

>  <open_babel_can_smiles>
CC[C@@]1(C=C(C)C)C(=N[C](=[N]=C1O)=O)O

>  <mulliken_charges>
29
1   -0.47977
2   -0.526677
3   -0.512705
4   -0.260482
5   -0.349169
6   0.218488
7   0.527029
8   0.526426
9   0.61589
10   -0.094987
11   -0.464657
12   -0.46502
13   -0.576008
14   -0.575867
15   -0.434787
16   0.158795
17   0.183919
18   0.183798
19   0.177877
20   0.178162
21   0.188061
22   0.172029
23   0.172477
24   0.164331
25   0.151132
26   0.151304
27   0.139609
28   0.415452
29   0.415347

>  <lowdin_charges>
29
1   -0.456972
2   -0.45205
3   -0.441681
4   -0.258797
5   -0.257319
6   0.031035
7   0.143741
8   0.142601
9   0.170816
10   -0.062641
11   -0.188315
12   -0.189164
13   -0.331547
14   -0.33071
15   -0.214692
16   0.163243
17   0.167803
18   0.16849
19   0.172397
20   0.174479
21   0.17405
22   0.1684
23   0.167048
24   0.160483
25   0.150843
26   0.150256
27   0.15822
28   0.359657
29   0.360328

$$$$

