PCCDB-ID:  9039
public computational chemistry database (PCCDB) project, http://pccdb.org

 17 16  0  0  0  0  0  0  0  0999 V2000
    0.9195    0.1126    1.0739 C   0  0  0  0  0  0  0  0  0  0  0  0
    4.1565    2.4659   -0.6810 C   0  0  0  0  0  0  0  0  0  0  0  0
    4.9180    1.1478    3.6862 C   0  0  0  0  0  0  0  0  0  0  0  0
    3.9016   -0.8240    1.4247 O   0  0  0  0  0  0  0  0  0  0  0  0
    2.0353    0.8081    0.4821 O   0  0  0  0  0  0  0  0  0  0  0  0
    4.4247    1.1803   -0.0967 O   0  0  0  0  0  0  0  0  0  0  0  0
    3.5186    0.5626    1.0776 P   0  0  0  0  0  0  0  0  0  0  0  0
    3.5431    1.8980    2.7170 S   0  0  0  0  0  0  0  0  0  0  0  0
    1.1186   -0.9613    1.1113 H   0  0  0  0  0  0  0  0  0  0  0  0
    0.0611    0.3144    0.4314 H   0  0  0  0  0  0  0  0  0  0  0  0
    0.7248    0.4914    2.0823 H   0  0  0  0  0  0  0  0  0  0  0  0
    4.1776    3.2482    0.0854 H   0  0  0  0  0  0  0  0  0  0  0  0
    3.1863    2.4608   -1.1844 H   0  0  0  0  0  0  0  0  0  0  0  0
    4.9533    2.6406   -1.4056 H   0  0  0  0  0  0  0  0  0  0  0  0
    4.8824    1.6119    4.6742 H   0  0  0  0  0  0  0  0  0  0  0  0
    5.8822    1.3548    3.2187 H   0  0  0  0  0  0  0  0  0  0  0  0
    4.7638    0.0715    3.7691 H   0  0  0  0  0  0  0  0  0  0  0  0
  1  9  1  0  0  0  0
  1 11  1  0  0  0  0
  2  6  1  0  0  0  0
  2 12  1  0  0  0  0
  3 17  1  0  0  0  0
  3 15  1  0  0  0  0
  5  1  1  0  0  0  0
  5  7  1  0  0  0  0
  6  7  1  0  0  0  0
  7  4  2  0  0  0  0
  7  8  1  0  0  0  0
  8  3  1  0  0  0  0
 10  1  1  0  0  0  0
 13  2  1  0  0  0  0
 14  2  1  0  0  0  0
 16  3  1  0  0  0  0
M  END
>  <HBA>
4

>  <HBD>
0

>  <TPSA>
70.64

>  <cid>
9039

>  <dipole>
2.68

>  <excitation_energy_1>
5.431

>  <excitation_energy_2>
6.175

>  <excitation_energy_3>
6.589

>  <excitation_energy_4>
6.765

>  <homo_energy>
-6.882

>  <homo_lumo_gap>
7.127

>  <logP>
1.75

>  <lumo_energy>
0.245

>  <melting_point>
-18.07

>  <molecular_refractivity>
34.96

>  <oscillator_strength_1>
0.0026

>  <oscillator_strength_2>
0.0204

>  <oscillator_strength_3>
0.0051

>  <oscillator_strength_4>
0.0323

>  <open_babel_can_smiles>
COP(=O)(SC)OC

>  <mulliken_charges>
17
1   -0.225075
2   -0.227533
3   -0.596727
4   -0.541014
5   -0.541227
6   -0.491747
7   1.061748
8   -0.109899
9   0.187487
10   0.173273
11   0.173314
12   0.173412
13   0.176598
14   0.175562
15   0.189372
16   0.196829
17   0.225627

>  <lowdin_charges>
17
1   -0.268064
2   -0.272344
3   -0.530452
4   -0.571277
5   -0.402706
6   -0.380588
7   0.963431
8   -0.0549
9   0.167176
10   0.164913
11   0.158615
12   0.160077
13   0.161084
14   0.166316
15   0.177276
16   0.173374
17   0.188068

$$$$

