PCCDB-ID:  11359
public computational chemistry database (PCCDB) project, http://pccdb.org

 19 20  0  0  0  0  0  0  0  0999 V2000
    2.4091    0.7224    0.0205 C   0  0  0  0  0  0  0  0  0  0  0  0
   -2.4203    0.6217   -0.0359 C   0  0  0  0  0  0  0  0  0  0  0  0
    1.2290    1.4349    0.0275 C   0  0  0  0  0  0  0  0  0  0  0  0
   -1.2700    1.3757   -0.0043 C   0  0  0  0  0  0  0  0  0  0  0  0
    2.4218   -0.6867   -0.0493 C   0  0  0  0  0  0  0  0  0  0  0  0
   -2.3085   -0.7887   -0.0767 C   0  0  0  0  0  0  0  0  0  0  0  0
   -0.0039    0.7355   -0.0211 C   0  0  0  0  0  0  0  0  0  0  0  0
    1.2374   -1.4099   -0.1120 C   0  0  0  0  0  0  0  0  0  0  0  0
   -0.0099   -0.6927   -0.0814 C   0  0  0  0  0  0  0  0  0  0  0  0
    1.1929   -2.7830   -0.2444 N   0  0  0  0  0  0  0  0  0  0  0  0
   -1.1552   -1.4286   -0.0991 N   0  0  0  0  0  0  0  0  0  0  0  0
    3.3587    1.2496    0.0645 H   0  0  0  0  0  0  0  0  0  0  0  0
   -3.4016    1.0867   -0.0241 H   0  0  0  0  0  0  0  0  0  0  0  0
    1.2277    2.5205    0.0742 H   0  0  0  0  0  0  0  0  0  0  0  0
   -1.3140    2.4618    0.0355 H   0  0  0  0  0  0  0  0  0  0  0  0
    3.3717   -1.2158   -0.0661 H   0  0  0  0  0  0  0  0  0  0  0  0
   -3.2068   -1.4051   -0.0879 H   0  0  0  0  0  0  0  0  0  0  0  0
    1.9735   -3.3056    0.1277 H   0  0  0  0  0  0  0  0  0  0  0  0
    0.2791   -3.1796   -0.0586 H   0  0  0  0  0  0  0  0  0  0  0  0
  1  3  1  0  0  0  0
  1 12  1  0  0  0  0
  2 13  1  0  0  0  0
  2  4  2  0  0  0  0
  3 14  1  0  0  0  0
  4 15  1  0  0  0  0
  5  1  2  0  0  0  0
  6  2  1  0  0  0  0
  7  4  1  0  0  0  0
  7  3  2  0  0  0  0
  8  9  2  0  0  0  0
  8  5  1  0  0  0  0
  9  7  1  0  0  0  0
 10  8  1  0  0  0  0
 10 19  1  0  0  0  0
 10 18  1  0  0  0  0
 11  9  1  0  0  0  0
 11  6  2  0  0  0  0
 16  5  1  0  0  0  0
 17  6  1  0  0  0  0
M  END
>  <HBA>
2

>  <HBD>
1

>  <TPSA>
38.91

>  <cid>
11359

>  <dipole>
0.98

>  <excitation_energy_1>
3.414

>  <excitation_energy_2>
4.134

>  <excitation_energy_3>
4.564

>  <excitation_energy_4>
4.766

>  <homo_energy>
-5.173

>  <homo_lumo_gap>
4.044

>  <logP>
2.398

>  <lumo_energy>
-1.129

>  <melting_point>
113.31

>  <molecular_refractivity>
46.15

>  <oscillator_strength_1>
0.0492

>  <oscillator_strength_2>
0.0245

>  <oscillator_strength_3>
0.0021

>  <oscillator_strength_4>
0.0043

>  <open_babel_can_smiles>
Nc1cccc2c1nccc2

>  <mulliken_charges>
19
1   -0.13267
2   -0.155264
3   -0.212785
4   -0.153826
5   -0.198311
6   0.044008
7   0.167535
8   0.315997
9   0.211981
10   -0.797855
11   -0.534549
12   0.127617
13   0.135476
14   0.121508
15   0.139915
16   0.117219
17   0.137079
18   0.319826
19   0.3471

>  <lowdin_charges>
19
1   -0.141423
2   -0.181833
3   -0.195263
4   -0.124071
5   -0.212561
6   -0.091895
7   -0.006871
8   0.063374
9   0.014005
10   -0.475607
11   -0.159921
12   0.15809
13   0.163247
14   0.153261
15   0.159908
16   0.154421
17   0.15511
18   0.279053
19   0.288976

$$$$

