PCCDB-ID:  22170
public computational chemistry database (PCCDB) project, http://pccdb.org

 34 33  0  0  0  0  0  0  0  0999 V2000
    2.8854    3.4848    5.9435 C   0  0  0  0  0  0  0  0  0  0  0  0
   11.1593    6.5691    3.5334 C   0  0  0  0  0  0  0  0  0  0  0  0
    3.8182    2.5309    5.9555 C   0  0  0  0  0  0  0  0  0  0  0  0
   10.2297    5.8012    2.9627 C   0  0  0  0  0  0  0  0  0  0  0  0
    3.5694    1.0778    5.6493 C   0  0  0  0  0  0  0  0  0  0  0  0
   10.5058    4.5159    2.2282 C   0  0  0  0  0  0  0  0  0  0  0  0
    4.1808    0.5490    4.3296 C   0  0  0  0  0  0  0  0  0  0  0  0
    9.9045    3.2600    2.8977 C   0  0  0  0  0  0  0  0  0  0  0  0
    5.7189    0.6116    4.2186 C   0  0  0  0  0  0  0  0  0  0  0  0
    8.3711    3.2355    2.9525 C   0  0  0  0  0  0  0  0  0  0  0  0
    6.2764    1.9176    3.6304 C   0  0  0  0  0  0  0  0  0  0  0  0
    7.8085    1.9430    3.5591 C   0  0  0  0  0  0  0  0  0  0  0  0
    3.1198    4.5209    6.1735 H   0  0  0  0  0  0  0  0  0  0  0  0
    1.8464    3.2638    5.7051 H   0  0  0  0  0  0  0  0  0  0  0  0
   10.9042    7.4863    4.0579 H   0  0  0  0  0  0  0  0  0  0  0  0
   12.2161    6.3103    3.4947 H   0  0  0  0  0  0  0  0  0  0  0  0
    4.8421    2.8039    6.2125 H   0  0  0  0  0  0  0  0  0  0  0  0
    9.1853    6.1090    3.0263 H   0  0  0  0  0  0  0  0  0  0  0  0
    2.4862    0.9013    5.6210 H   0  0  0  0  0  0  0  0  0  0  0  0
    3.9637    0.4662    6.4753 H   0  0  0  0  0  0  0  0  0  0  0  0
   11.5911    4.3842    2.1318 H   0  0  0  0  0  0  0  0  0  0  0  0
   10.1063    4.5887    1.2047 H   0  0  0  0  0  0  0  0  0  0  0  0
    3.7314    1.0883    3.4846 H   0  0  0  0  0  0  0  0  0  0  0  0
    3.8609   -0.4965    4.2296 H   0  0  0  0  0  0  0  0  0  0  0  0
   10.3086    3.1710    3.9156 H   0  0  0  0  0  0  0  0  0  0  0  0
   10.2549    2.3756    2.3468 H   0  0  0  0  0  0  0  0  0  0  0  0
    6.0613   -0.2177    3.5841 H   0  0  0  0  0  0  0  0  0  0  0  0
    6.1666    0.4305    5.2076 H   0  0  0  0  0  0  0  0  0  0  0  0
    7.9691    3.3642    1.9361 H   0  0  0  0  0  0  0  0  0  0  0  0
    8.0046    4.0918    3.5355 H   0  0  0  0  0  0  0  0  0  0  0  0
    5.9243    2.7776    4.2142 H   0  0  0  0  0  0  0  0  0  0  0  0
    5.8638    2.0538    2.6198 H   0  0  0  0  0  0  0  0  0  0  0  0
    8.2226    1.8071    4.5694 H   0  0  0  0  0  0  0  0  0  0  0  0
    8.1601    1.0821    2.9707 H   0  0  0  0  0  0  0  0  0  0  0  0
  1  3  2  0  0  0  0
  1 13  1  0  0  0  0
  2 15  1  0  0  0  0
  3 17  1  0  0  0  0
  4 18  1  0  0  0  0
  4  2  2  0  0  0  0
  5  3  1  0  0  0  0
  5 20  1  0  0  0  0
  6  8  1  0  0  0  0
  6  4  1  0  0  0  0
  7  5  1  0  0  0  0
  8 10  1  0  0  0  0
  8 25  1  0  0  0  0
  9  7  1  0  0  0  0
  9 28  1  0  0  0  0
 10 30  1  0  0  0  0
 10 12  1  0  0  0  0
 11 31  1  0  0  0  0
 11  9  1  0  0  0  0
 12 11  1  0  0  0  0
 12 33  1  0  0  0  0
 14  1  1  0  0  0  0
 16  2  1  0  0  0  0
 19  5  1  0  0  0  0
 21  6  1  0  0  0  0
 22  6  1  0  0  0  0
 23  7  1  0  0  0  0
 24  7  1  0  0  0  0
 26  8  1  0  0  0  0
 27  9  1  0  0  0  0
 29 10  1  0  0  0  0
 32 11  1  0  0  0  0
 34 12  1  0  0  0  0
M  END
>  <HBA>
0

>  <HBD>
0

>  <TPSA>
0.0

>  <cid>
22170

>  <dipole>
0.63

>  <excitation_energy_1>
6.402

>  <excitation_energy_2>
6.497

>  <excitation_energy_3>
6.55

>  <excitation_energy_4>
6.633

>  <homo_energy>
-6.754

>  <homo_lumo_gap>
7.383

>  <logP>
4.479

>  <lumo_energy>
0.629

>  <melting_point>
-71.74

>  <molecular_refractivity>
58.85

>  <oscillator_strength_1>
0.0518

>  <oscillator_strength_2>
0.0635

>  <oscillator_strength_3>
0.0628

>  <oscillator_strength_4>
0.0167

>  <open_babel_can_smiles>
C=CCCCCCCCCC=C

>  <mulliken_charges>
34
1   -0.343098
2   -0.341898
3   -0.037393
4   -0.040895
5   -0.307604
6   -0.30588
7   -0.253586
8   -0.251764
9   -0.258667
10   -0.255937
11   -0.257686
12   -0.253482
13   0.136694
14   0.133523
15   0.136318
16   0.133019
17   0.127334
18   0.126447
19   0.13629
20   0.138413
21   0.135505
22   0.138371
23   0.13658
24   0.13052
25   0.135694
26   0.12887
27   0.130182
28   0.1266
29   0.12628
30   0.132923
31   0.13658
32   0.128087
33   0.127398
34   0.126259

>  <lowdin_charges>
34
1   -0.342479
2   -0.342583
3   -0.146304
4   -0.144805
5   -0.272153
6   -0.270246
7   -0.273962
8   -0.272656
9   -0.27848
10   -0.277201
11   -0.278556
12   -0.274071
13   0.15563
14   0.151415
15   0.156553
16   0.150864
17   0.148337
18   0.147765
19   0.145548
20   0.147054
21   0.145477
22   0.145582
23   0.143918
24   0.142457
25   0.141289
26   0.141171
27   0.142483
28   0.136784
29   0.136231
30   0.14031
31   0.143105
32   0.137172
33   0.136887
34   0.137464

$$$$

