PCCDB-ID:  72690
public computational chemistry database (PCCDB) project, http://pccdb.org

 18 18  0  0  0  0  0  0  0  0999 V2000
   -0.6626    0.5676    0.7061 C   0  0  0  0  0  0  0  0  0  0  0  0
   -1.1938   -0.3419   -0.2025 C   0  0  0  0  0  0  0  0  0  0  0  0
    0.7246    0.7968    0.6121 C   0  0  0  0  0  0  0  0  0  0  0  0
   -2.6441   -0.6803   -0.3267 C   0  0  0  0  0  0  0  0  0  0  0  0
    0.8915   -0.6653   -1.0823 C   0  0  0  0  0  0  0  0  0  0  0  0
   -3.3385    0.0774    1.7520 N   0  0  0  0  0  0  0  0  0  0  0  0
   -0.4115   -0.9559   -1.1196 N   0  0  0  0  0  0  0  0  0  0  0  0
    1.5105    0.1764   -0.2573 N   0  0  0  0  0  0  0  0  0  0  0  0
   -3.6021   -0.4971    0.5041 N   0  0  0  0  0  0  0  0  0  0  0  0
    1.3574    1.6736    1.4142 O   0  0  0  0  0  0  0  0  0  0  0  0
   -2.9735   -1.2533   -1.5130 O   0  0  0  0  0  0  0  0  0  0  0  0
    1.6848   -1.2828   -1.9700 O   0  0  0  0  0  0  0  0  0  0  0  0
   -1.2941    1.1111    1.3973 H   0  0  0  0  0  0  0  0  0  0  0  0
   -4.1752   -0.0726    2.3088 H   0  0  0  0  0  0  0  0  0  0  0  0
   -2.5619   -0.3829    2.2335 H   0  0  0  0  0  0  0  0  0  0  0  0
    0.7120    2.0875    2.0097 H   0  0  0  0  0  0  0  0  0  0  0  0
   -2.1249   -1.4180   -1.9713 H   0  0  0  0  0  0  0  0  0  0  0  0
    1.1139   -1.8697   -2.4957 H   0  0  0  0  0  0  0  0  0  0  0  0
  1 13  1  0  0  0  0
  2  1  2  0  0  0  0
  3  1  1  0  0  0  0
  3 10  1  0  0  0  0
  4  2  1  0  0  0  0
  4  9  2  0  0  0  0
  5  8  2  0  0  0  0
  6 15  1  0  0  0  0
  6 14  1  0  0  0  0
  7  5  2  0  0  0  0
  7  2  1  0  0  0  0
  8  3  2  0  0  0  0
  9  6  1  0  0  0  0
 10 16  1  0  0  0  0
 11  4  1  0  0  0  0
 12  5  1  0  0  0  0
 17 11  1  0  0  0  0
 18 12  1  0  0  0  0
M  END
>  <HBA>
5

>  <HBD>
4

>  <TPSA>
120.84

>  <cid>
72690

>  <dipole>
2.57

>  <excitation_energy_1>
3.529

>  <excitation_energy_2>
4.486

>  <excitation_energy_3>
4.539

>  <excitation_energy_4>
4.874

>  <homo_energy>
-5.935

>  <homo_lumo_gap>
4.087

>  <logP>
-1.242

>  <lumo_energy>
-1.848

>  <melting_point>
285.74

>  <molecular_refractivity>
38.58

>  <oscillator_strength_1>
0.1045

>  <oscillator_strength_2>
0.0232

>  <oscillator_strength_3>
0.0035

>  <oscillator_strength_4>
0.0382

>  <open_babel_can_smiles>
N/N=C(\C1=CC(=[N]=[C](=N1)O)O)/O

>  <mulliken_charges>
18
1   -0.271787
2   0.284649
3   0.532805
4   0.479507
5   0.650562
6   -0.578806
7   -0.618456
8   -0.468368
9   -0.334148
10   -0.582844
11   -0.610221
12   -0.575431
13   0.185284
14   0.338132
15   0.306341
16   0.420674
17   0.422571
18   0.419537

>  <lowdin_charges>
18
1   -0.273239
2   0.056592
3   0.164964
4   0.087228
5   0.171199
6   -0.44666
7   -0.244551
8   -0.169946
9   -0.132657
10   -0.327278
11   -0.369258
12   -0.325919
13   0.18737
14   0.275683
15   0.254309
16   0.368072
17   0.355399
18   0.368692

$$$$

