PCCDB-ID:  23628
public computational chemistry database (PCCDB) project, http://pccdb.org

 30 31  0  0  0  0  0  0  0  0999 V2000
    2.9208    1.1212   -0.1434 C   0  0  0  0  0  0  0  0  0  0  0  0
    1.0682   -0.5627    0.2105 C   0  0  0  0  0  0  0  0  0  0  0  0
    6.2319   -5.1009   -3.2706 C   0  0  0  0  0  0  0  0  0  0  0  0
    6.8782   -3.9208   -2.9009 C   0  0  0  0  0  0  0  0  0  0  0  0
    5.1215   -5.5294   -2.5421 C   0  0  0  0  0  0  0  0  0  0  0  0
    6.4133   -3.1751   -1.8168 C   0  0  0  0  0  0  0  0  0  0  0  0
    4.6602   -4.7799   -1.4593 C   0  0  0  0  0  0  0  0  0  0  0  0
    3.2925   -2.6607    0.3377 C   0  0  0  0  0  0  0  0  0  0  0  0
    4.8313   -1.2591    0.0357 C   0  0  0  0  0  0  0  0  0  0  0  0
    2.5511   -0.2491    0.4330 C   0  0  0  0  0  0  0  0  0  0  0  0
    5.2924   -3.5867   -1.0825 C   0  0  0  0  0  0  0  0  0  0  0  0
    4.8264   -2.8106    0.1331 C   0  0  0  0  0  0  0  0  0  0  0  0
    3.3720   -1.2829   -0.1875 N   0  0  0  0  0  0  0  0  0  0  0  0
    2.3216    1.9099    0.3250 H   0  0  0  0  0  0  0  0  0  0  0  0
    2.7398    1.1403   -1.2241 H   0  0  0  0  0  0  0  0  0  0  0  0
    3.9768    1.3586    0.0280 H   0  0  0  0  0  0  0  0  0  0  0  0
    0.4387    0.2025    0.6781 H   0  0  0  0  0  0  0  0  0  0  0  0
    0.7919   -1.5311    0.6426 H   0  0  0  0  0  0  0  0  0  0  0  0
    0.8434   -0.5919   -0.8617 H   0  0  0  0  0  0  0  0  0  0  0  0
    6.5909   -5.6816   -4.1162 H   0  0  0  0  0  0  0  0  0  0  0  0
    7.7469   -3.5774   -3.4570 H   0  0  0  0  0  0  0  0  0  0  0  0
    4.6109   -6.4491   -2.8165 H   0  0  0  0  0  0  0  0  0  0  0  0
    6.9329   -2.2620   -1.5386 H   0  0  0  0  0  0  0  0  0  0  0  0
    3.7978   -5.1318   -0.8991 H   0  0  0  0  0  0  0  0  0  0  0  0
    3.0185   -2.7063    1.4066 H   0  0  0  0  0  0  0  0  0  0  0  0
    2.6296   -3.3277   -0.2248 H   0  0  0  0  0  0  0  0  0  0  0  0
    5.4120   -0.7946   -0.7691 H   0  0  0  0  0  0  0  0  0  0  0  0
    5.1190   -0.7931    0.9948 H   0  0  0  0  0  0  0  0  0  0  0  0
    2.7388   -0.2247    1.5292 H   0  0  0  0  0  0  0  0  0  0  0  0
    5.3475   -3.1893    1.0201 H   0  0  0  0  0  0  0  0  0  0  0  0
  1 16  1  0  0  0  0
  1 14  1  0  0  0  0
  1 10  1  0  0  0  0
  2 10  1  0  0  0  0
  2 18  1  0  0  0  0
  2 17  1  0  0  0  0
  3  4  2  0  0  0  0
  3  5  1  0  0  0  0
  4  6  1  0  0  0  0
  5  7  2  0  0  0  0
  6 23  1  0  0  0  0
  6 11  2  0  0  0  0
  7 11  1  0  0  0  0
  7 24  1  0  0  0  0
  8 25  1  0  0  0  0
  9 12  1  0  0  0  0
  9 28  1  0  0  0  0
 10 29  1  0  0  0  0
 11 12  1  0  0  0  0
 12  8  1  0  0  0  0
 12 30  1  0  0  0  0
 13  9  1  0  0  0  0
 13  8  1  0  0  0  0
 13 10  1  0  0  0  0
 15  1  1  0  0  0  0
 19  2  1  0  0  0  0
 20  3  1  0  0  0  0
 21  4  1  0  0  0  0
 22  5  1  0  0  0  0
 26  8  1  0  0  0  0
 27  9  1  0  0  0  0
M  END
>  <HBA>
1

>  <HBD>
0

>  <TPSA>
3.24

>  <cid>
23628

>  <dipole>
0.89

>  <excitation_energy_1>
4.96

>  <excitation_energy_2>
5.0

>  <excitation_energy_3>
5.325

>  <excitation_energy_4>
5.355

>  <homo_energy>
-5.701

>  <homo_lumo_gap>
5.826

>  <logP>
2.432

>  <lumo_energy>
0.125

>  <melting_point>
29.04

>  <molecular_refractivity>
60.14

>  <oscillator_strength_1>
0.0274

>  <oscillator_strength_2>
0.0016

>  <oscillator_strength_3>
0.0

>  <oscillator_strength_4>
0.0487

>  <open_babel_can_smiles>
CC(N1CC(C1)c1ccccc1)C

>  <mulliken_charges>
30
1   -0.447729
2   -0.447515
3   -0.129999
4   -0.129863
5   -0.129578
6   -0.18005
7   -0.180038
8   -0.116245
9   -0.116411
10   0.061446
11   0.174342
12   -0.240044
13   -0.385388
14   0.140616
15   0.153084
16   0.144895
17   0.140509
18   0.144779
19   0.153175
20   0.126359
21   0.126884
22   0.126836
23   0.122944
24   0.12295
25   0.114593
26   0.144559
27   0.144437
28   0.114567
29   0.092438
30   0.153447

>  <lowdin_charges>
30
1   -0.445891
2   -0.447426
3   -0.162646
4   -0.155083
5   -0.15478
6   -0.167291
7   -0.167519
8   -0.199416
9   -0.201158
10   -0.053911
11   0.000532
12   -0.134778
13   -0.192968
14   0.151858
15   0.152296
16   0.148792
17   0.151896
18   0.149902
19   0.152584
20   0.157008
21   0.156703
22   0.156299
23   0.154593
24   0.154943
25   0.123126
26   0.144368
27   0.144075
28   0.124774
29   0.104802
30   0.154313

$$$$

