PCCDB-ID:  69305
public computational chemistry database (PCCDB) project, http://pccdb.org

 22 22  0  0  0  0  0  0  0  0999 V2000
    2.3143    0.5259    0.0923 C   0  0  0  0  0  0  0  0  0  0  0  0
    8.3377    3.8795   -2.0062 C   0  0  0  0  0  0  0  0  0  0  0  0
    3.6285    0.1588   -0.5754 C   0  0  0  0  0  0  0  0  0  0  0  0
    7.4997    0.1707   -2.3162 C   0  0  0  0  0  0  0  0  0  0  0  0
    8.1932    1.3756   -2.3927 C   0  0  0  0  0  0  0  0  0  0  0  0
    6.2207    0.1073   -1.7570 C   0  0  0  0  0  0  0  0  0  0  0  0
    6.3357    2.4945   -1.3457 C   0  0  0  0  0  0  0  0  0  0  0  0
    7.6116    2.5568   -1.9070 C   0  0  0  0  0  0  0  0  0  0  0  0
    5.6368    1.2823   -1.2681 C   0  0  0  0  0  0  0  0  0  0  0  0
    4.3969    1.3535   -0.6969 O   0  0  0  0  0  0  0  0  0  0  0  0
    1.6906   -0.3662    0.2145 H   0  0  0  0  0  0  0  0  0  0  0  0
    1.7654    1.2548   -0.5121 H   0  0  0  0  0  0  0  0  0  0  0  0
    2.4937    0.9635    1.0794 H   0  0  0  0  0  0  0  0  0  0  0  0
    9.4085    3.7348   -2.1825 H   0  0  0  0  0  0  0  0  0  0  0  0
    8.2220    4.4706   -1.0908 H   0  0  0  0  0  0  0  0  0  0  0  0
    7.9473    4.4862   -2.8339 H   0  0  0  0  0  0  0  0  0  0  0  0
    3.4541   -0.2772   -1.5698 H   0  0  0  0  0  0  0  0  0  0  0  0
    4.1791   -0.5811    0.0236 H   0  0  0  0  0  0  0  0  0  0  0  0
    7.9570   -0.7406   -2.6934 H   0  0  0  0  0  0  0  0  0  0  0  0
    9.1880    1.4046   -2.8299 H   0  0  0  0  0  0  0  0  0  0  0  0
    5.7017   -0.8426   -1.7052 H   0  0  0  0  0  0  0  0  0  0  0  0
    5.8542    3.3870   -0.9552 H   0  0  0  0  0  0  0  0  0  0  0  0
  1 11  1  0  0  0  0
  1 13  1  0  0  0  0
  2  8  1  0  0  0  0
  2 15  1  0  0  0  0
  3 18  1  0  0  0  0
  3  1  1  0  0  0  0
  4  6  1  0  0  0  0
  5  4  2  0  0  0  0
  5  8  1  0  0  0  0
  6 21  1  0  0  0  0
  6  9  2  0  0  0  0
  7  9  1  0  0  0  0
  7 22  1  0  0  0  0
  8  7  2  0  0  0  0
  9 10  1  0  0  0  0
 10  3  1  0  0  0  0
 12  1  1  0  0  0  0
 14  2  1  0  0  0  0
 16  2  1  0  0  0  0
 17  3  1  0  0  0  0
 19  4  1  0  0  0  0
 20  5  1  0  0  0  0
M  END
>  <HBA>
1

>  <HBD>
0

>  <TPSA>
9.23

>  <cid>
69305

>  <dipole>
1.0

>  <excitation_energy_1>
4.975

>  <excitation_energy_2>
5.464

>  <excitation_energy_3>
5.676

>  <excitation_energy_4>
5.814

>  <homo_energy>
-5.747

>  <homo_lumo_gap>
5.91

>  <logP>
2.394

>  <lumo_energy>
0.163

>  <melting_point>
12.6

>  <molecular_refractivity>
42.71

>  <oscillator_strength_1>
0.037

>  <oscillator_strength_2>
0.0022

>  <oscillator_strength_3>
0.0424

>  <oscillator_strength_4>
0.0091

>  <open_babel_can_smiles>
CCOc1cccc(c1)C

>  <mulliken_charges>
22
1   -0.456448
2   -0.528638
3   -0.026867
4   -0.135259
5   -0.184048
6   -0.200267
7   -0.231943
8   0.175462
9   0.384046
10   -0.520341
11   0.14697
12   0.162757
13   0.162932
14   0.153589
15   0.158728
16   0.16446
17   0.139282
18   0.139331
19   0.125886
20   0.115763
21   0.128655
22   0.125948

>  <lowdin_charges>
22
1   -0.448682
2   -0.440902
3   -0.124805
4   -0.146493
5   -0.189957
6   -0.222119
7   -0.196854
8   0.009893
9   0.106378
10   -0.205737
11   0.156688
12   0.160789
13   0.159154
14   0.154568
15   0.159239
16   0.162305
17   0.136865
18   0.1387
19   0.156492
20   0.151704
21   0.160592
22   0.162184

$$$$

