PCCDB-ID:  70393
public computational chemistry database (PCCDB) project, http://pccdb.org

 32 34  0  0  0  0  0  0  0  0999 V2000
   -1.4115   -0.3996    0.7731 C   0  0  0  0  0  0  0  0  0  0  0  0
    3.1369    1.3118   -4.3447 C   0  0  0  0  0  0  0  0  0  0  0  0
   -0.8032   -1.2112   -0.1879 C   0  0  0  0  0  0  0  0  0  0  0  0
   -0.6558    0.5738    1.4224 C   0  0  0  0  0  0  0  0  0  0  0  0
    3.5237    0.0240   -3.9805 C   0  0  0  0  0  0  0  0  0  0  0  0
    2.6576    2.1852   -3.3656 C   0  0  0  0  0  0  0  0  0  0  0  0
    0.5478   -1.0513   -0.4853 C   0  0  0  0  0  0  0  0  0  0  0  0
    0.7005    0.7351    1.1226 C   0  0  0  0  0  0  0  0  0  0  0  0
    3.4397   -0.3844   -2.6466 C   0  0  0  0  0  0  0  0  0  0  0  0
    2.5657    1.7756   -2.0373 C   0  0  0  0  0  0  0  0  0  0  0  0
    3.5715   -1.2667    0.1668 C   0  0  0  0  0  0  0  0  0  0  0  0
    3.8356   -1.0896    1.6602 C   0  0  0  0  0  0  0  0  0  0  0  0
    1.3227   -0.0814    0.1704 C   0  0  0  0  0  0  0  0  0  0  0  0
    2.9662    0.4851   -1.6560 C   0  0  0  0  0  0  0  0  0  0  0  0
    3.5074    1.0209    0.7925 C   0  0  0  0  0  0  0  0  0  0  0  0
    2.8224    0.0395   -0.1969 C   0  0  0  0  0  0  0  0  0  0  0  0
    3.5573    2.2232    0.7450 O   0  0  0  0  0  0  0  0  0  0  0  0
    4.0572    0.3264    1.8240 O   0  0  0  0  0  0  0  0  0  0  0  0
   -2.4656   -0.5227    1.0064 H   0  0  0  0  0  0  0  0  0  0  0  0
    3.2044    1.6325   -5.3808 H   0  0  0  0  0  0  0  0  0  0  0  0
   -1.3829   -1.9674   -0.7107 H   0  0  0  0  0  0  0  0  0  0  0  0
   -1.1170    1.2178    2.1663 H   0  0  0  0  0  0  0  0  0  0  0  0
    3.8929   -0.6701   -4.7310 H   0  0  0  0  0  0  0  0  0  0  0  0
    2.3515    3.1921   -3.6367 H   0  0  0  0  0  0  0  0  0  0  0  0
    1.0032   -1.6749   -1.2503 H   0  0  0  0  0  0  0  0  0  0  0  0
    1.2617    1.5138    1.6290 H   0  0  0  0  0  0  0  0  0  0  0  0
    3.7440   -1.3950   -2.3918 H   0  0  0  0  0  0  0  0  0  0  0  0
    2.1969    2.4631   -1.2855 H   0  0  0  0  0  0  0  0  0  0  0  0
    3.0095   -2.1766   -0.0554 H   0  0  0  0  0  0  0  0  0  0  0  0
    4.5269   -1.3070   -0.3666 H   0  0  0  0  0  0  0  0  0  0  0  0
    4.7287   -1.6062    2.0181 H   0  0  0  0  0  0  0  0  0  0  0  0
    2.9776   -1.3815    2.2758 H   0  0  0  0  0  0  0  0  0  0  0  0
  1 19  1  0  0  0  0
  1  4  2  0  0  0  0
  2  5  2  0  0  0  0
  2  6  1  0  0  0  0
  3  1  1  0  0  0  0
  4 22  1  0  0  0  0
  5  9  1  0  0  0  0
  6 10  2  0  0  0  0
  7  3  2  0  0  0  0
  7 13  1  0  0  0  0
  8  4  1  0  0  0  0
  8 26  1  0  0  0  0
  9 27  1  0  0  0  0
  9 14  2  0  0  0  0
 10 14  1  0  0  0  0
 10 28  1  0  0  0  0
 11 12  1  0  0  0  0
 12 18  1  0  0  0  0
 12 31  1  0  0  0  0
 12 32  1  0  0  0  0
 13  8  2  0  0  0  0
 14 16  1  0  0  0  0
 15 18  1  0  0  0  0
 16 11  1  0  0  0  0
 16 13  1  0  0  0  0
 16 15  1  0  0  0  0
 17 15  2  0  0  0  0
 20  2  1  0  0  0  0
 21  3  1  0  0  0  0
 23  5  1  0  0  0  0
 24  6  1  0  0  0  0
 25  7  1  0  0  0  0
 29 11  1  0  0  0  0
 30 11  1  0  0  0  0
M  END
>  <HBA>
2

>  <HBD>
0

>  <TPSA>
26.3

>  <cid>
70393

>  <dipole>
4.01

>  <excitation_energy_1>
5.171

>  <excitation_energy_2>
5.181

>  <excitation_energy_3>
5.422

>  <excitation_energy_4>
5.436

>  <homo_energy>
-6.441

>  <homo_lumo_gap>
6.055

>  <logP>
2.92

>  <lumo_energy>
-0.386

>  <melting_point>
77.52

>  <molecular_refractivity>
69.37

>  <oscillator_strength_1>
0.0206

>  <oscillator_strength_2>
0.0094

>  <oscillator_strength_3>
0.0952

>  <oscillator_strength_4>
0.0065

>  <open_babel_can_smiles>
O=C1OCCC1(c1ccccc1)c1ccccc1

>  <mulliken_charges>
32
1   -0.124273
2   -0.124582
3   -0.132824
4   -0.136028
5   -0.133698
6   -0.136189
7   -0.170999
8   -0.190145
9   -0.188582
10   -0.15386
11   -0.330281
12   -0.040836
13   0.154292
14   0.155681
15   0.636281
16   -0.198568
17   -0.468699
18   -0.446334
19   0.132466
20   0.12951
21   0.13301
22   0.136278
23   0.128174
24   0.133256
25   0.133467
26   0.161416
27   0.124066
28   0.159127
29   0.161483
30   0.166049
31   0.165687
32   0.165653

>  <lowdin_charges>
32
1   -0.1541
2   -0.154625
3   -0.154045
4   -0.152458
5   -0.159452
6   -0.151331
7   -0.161522
8   -0.174013
9   -0.175061
10   -0.149358
11   -0.290977
12   -0.127864
13   -0.00215
14   -0.002369
15   0.192395
16   -0.022551
17   -0.231442
18   -0.181214
19   0.157927
20   0.156751
21   0.160557
22   0.162008
23   0.158328
24   0.158709
25   0.160233
26   0.173326
27   0.15423
28   0.175195
29   0.161943
30   0.158827
31   0.160282
32   0.15382

$$$$

