PCCDB-ID:  1045
public computational chemistry database (PCCDB) project, http://pccdb.org

 18 17  0  0  0  0  0  0  0  0999 V2000
    1.2495   -0.0712    0.0295 C   0  0  0  0  0  0  0  0  0  0  0  0
    0.9800   -0.0424    1.5423 C   0  0  0  0  0  0  0  0  0  0  0  0
    2.7021    0.2091   -0.3696 C   0  0  0  0  0  0  0  0  0  0  0  0
    1.7614   -1.0803    2.3554 C   0  0  0  0  0  0  0  0  0  0  0  0
    3.1647    1.4992    0.1625 N   0  0  0  0  0  0  0  0  0  0  0  0
    1.5239   -2.4428    1.8563 N   0  0  0  0  0  0  0  0  0  0  0  0
    0.5974    0.6702   -0.4572 H   0  0  0  0  0  0  0  0  0  0  0  0
    0.9702   -1.0505   -0.3748 H   0  0  0  0  0  0  0  0  0  0  0  0
   -0.0968   -0.1969    1.7103 H   0  0  0  0  0  0  0  0  0  0  0  0
    1.2216    0.9502    1.9387 H   0  0  0  0  0  0  0  0  0  0  0  0
    2.7828    0.1280   -1.4691 H   0  0  0  0  0  0  0  0  0  0  0  0
    3.3501   -0.5721    0.0446 H   0  0  0  0  0  0  0  0  0  0  0  0
    1.5067   -0.9488    3.4231 H   0  0  0  0  0  0  0  0  0  0  0  0
    2.8353   -0.8781    2.2688 H   0  0  0  0  0  0  0  0  0  0  0  0
    2.6402    2.2543   -0.2796 H   0  0  0  0  0  0  0  0  0  0  0  0
    4.1391    1.6491   -0.0950 H   0  0  0  0  0  0  0  0  0  0  0  0
    0.5486   -2.6962    2.0157 H   0  0  0  0  0  0  0  0  0  0  0  0
    2.0763   -3.1086    2.3946 H   0  0  0  0  0  0  0  0  0  0  0  0
  1  2  1  0  0  0  0
  2  9  1  0  0  0  0
  2 10  1  0  0  0  0
  2  4  1  0  0  0  0
  3  1  1  0  0  0  0
  3 12  1  0  0  0  0
  3  5  1  0  0  0  0
  4 13  1  0  0  0  0
  6 17  1  0  0  0  0
  6  4  1  0  0  0  0
  6 18  1  0  0  0  0
  7  1  1  0  0  0  0
  8  1  1  0  0  0  0
 11  3  1  0  0  0  0
 14  4  1  0  0  0  0
 15  5  1  0  0  0  0
 16  5  1  0  0  0  0
M  END
>  <HBA>
2

>  <HBD>
2

>  <TPSA>
52.04

>  <cid>
1045

>  <dipole>
0.01

>  <excitation_energy_1>
5.506

>  <excitation_energy_2>
5.566

>  <excitation_energy_3>
6.151

>  <excitation_energy_4>
6.199

>  <homo_energy>
-6.079

>  <homo_lumo_gap>
8.161

>  <logP>
1.085

>  <lumo_energy>
2.082

>  <melting_point>
83.26

>  <molecular_refractivity>
26.76

>  <oscillator_strength_1>
0.0

>  <oscillator_strength_2>
0.0179

>  <oscillator_strength_3>
0.0037

>  <oscillator_strength_4>
0.0

>  <open_babel_can_smiles>
NCCCCN

>  <mulliken_charges>
18
1   -0.247268
2   -0.247959
3   -0.141424
4   -0.141466
5   -0.715569
6   -0.715613
7   0.11395
8   0.150044
9   0.114094
10   0.150338
11   0.108988
12   0.148925
13   0.109087
14   0.148711
15   0.288834
16   0.293668
17   0.288911
18   0.293749

>  <lowdin_charges>
18
1   -0.283125
2   -0.280067
3   -0.205229
4   -0.202243
5   -0.563372
6   -0.564044
7   0.134492
8   0.153507
9   0.131421
10   0.153367
11   0.115182
12   0.145815
13   0.115821
14   0.142675
15   0.250575
16   0.252147
17   0.248224
18   0.254856

$$$$

