PCCDB-ID:  7393
public computational chemistry database (PCCDB) project, http://pccdb.org

 25 25  0  0  0  0  0  0  0  0999 V2000
    0.9139   -0.0235   -0.1041 C   0  0  0  0  0  0  0  0  0  0  0  0
    2.9601   -0.5713   -1.4579 C   0  0  0  0  0  0  0  0  0  0  0  0
    2.9809    1.3960    0.0713 C   0  0  0  0  0  0  0  0  0  0  0  0
    3.1160   -2.3333    0.8920 C   0  0  0  0  0  0  0  0  0  0  0  0
    3.1387   -0.4488    2.3593 C   0  0  0  0  0  0  0  0  0  0  0  0
    3.4927   -3.1665    1.9459 C   0  0  0  0  0  0  0  0  0  0  0  0
    3.5150   -1.2640    3.4232 C   0  0  0  0  0  0  0  0  0  0  0  0
    2.9324   -0.9535    1.0635 C   0  0  0  0  0  0  0  0  0  0  0  0
    3.6953   -2.6342    3.2206 C   0  0  0  0  0  0  0  0  0  0  0  0
    2.4617   -0.0495   -0.0922 C   0  0  0  0  0  0  0  0  0  0  0  0
    4.0682   -3.3951    4.2965 O   0  0  0  0  0  0  0  0  0  0  0  0
    0.5406    0.6149   -0.9152 H   0  0  0  0  0  0  0  0  0  0  0  0
    0.5199    0.3637    0.8424 H   0  0  0  0  0  0  0  0  0  0  0  0
    0.5049   -1.0301   -0.2483 H   0  0  0  0  0  0  0  0  0  0  0  0
    2.6704    0.1272   -2.2515 H   0  0  0  0  0  0  0  0  0  0  0  0
    2.5278   -1.5438   -1.7148 H   0  0  0  0  0  0  0  0  0  0  0  0
    4.0517   -0.6691   -1.4740 H   0  0  0  0  0  0  0  0  0  0  0  0
    2.6902    1.9959   -0.7989 H   0  0  0  0  0  0  0  0  0  0  0  0
    4.0736    1.4223    0.1512 H   0  0  0  0  0  0  0  0  0  0  0  0
    2.5640    1.8911    0.9544 H   0  0  0  0  0  0  0  0  0  0  0  0
    2.9680   -2.7862   -0.0827 H   0  0  0  0  0  0  0  0  0  0  0  0
    3.0080    0.6101    2.5559 H   0  0  0  0  0  0  0  0  0  0  0  0
    3.6308   -4.2327    1.7715 H   0  0  0  0  0  0  0  0  0  0  0  0
    3.6742   -0.8527    4.4153 H   0  0  0  0  0  0  0  0  0  0  0  0
    4.1555   -4.3178    4.0111 H   0  0  0  0  0  0  0  0  0  0  0  0
  1 10  1  0  0  0  0
  1 13  1  0  0  0  0
  2 10  1  0  0  0  0
  3 19  1  0  0  0  0
  3 20  1  0  0  0  0
  4  8  2  0  0  0  0
  4  6  1  0  0  0  0
  5 22  1  0  0  0  0
  5  7  2  0  0  0  0
  6  9  2  0  0  0  0
  7 24  1  0  0  0  0
  8  5  1  0  0  0  0
  9  7  1  0  0  0  0
  9 11  1  0  0  0  0
 10  3  1  0  0  0  0
 10  8  1  0  0  0  0
 12  1  1  0  0  0  0
 14  1  1  0  0  0  0
 15  2  1  0  0  0  0
 16  2  1  0  0  0  0
 17  2  1  0  0  0  0
 18  3  1  0  0  0  0
 21  4  1  0  0  0  0
 23  6  1  0  0  0  0
 25 11  1  0  0  0  0
M  END
>  <HBA>
1

>  <HBD>
1

>  <TPSA>
20.23

>  <cid>
7393

>  <dipole>
1.36

>  <excitation_energy_1>
4.966

>  <excitation_energy_2>
5.075

>  <excitation_energy_3>
5.482

>  <excitation_energy_4>
5.714

>  <homo_energy>
-5.753

>  <homo_lumo_gap>
5.84

>  <logP>
2.69

>  <lumo_energy>
0.087

>  <melting_point>
53.08

>  <molecular_refractivity>
47.73

>  <oscillator_strength_1>
0.0312

>  <oscillator_strength_2>
0.0001

>  <oscillator_strength_3>
0.0107

>  <oscillator_strength_4>
0.0801

>  <open_babel_can_smiles>
CC(c1ccc(cc1)O)(C)C

>  <mulliken_charges>
25
1   -0.429658
2   -0.451457
3   -0.451773
4   -0.194495
5   -0.194884
6   -0.196792
7   -0.16119
8   0.170429
9   0.35091
10   0.022038
11   -0.646119
12   0.13579
13   0.143689
14   0.142222
15   0.138717
16   0.14175
17   0.147556
18   0.138468
19   0.147998
20   0.143168
21   0.123147
22   0.124249
23   0.114356
24   0.136188
25   0.405694

>  <lowdin_charges>
25
1   -0.439182
2   -0.441083
3   -0.441916
4   -0.1585
5   -0.155287
6   -0.212732
7   -0.185618
8   -0.019864
9   0.097137
10   0.018482
11   -0.379777
12   0.145795
13   0.149936
14   0.148478
15   0.149207
16   0.145991
17   0.149527
18   0.148924
19   0.149734
20   0.147671
21   0.157041
22   0.156303
23   0.149301
24   0.164987
25   0.355446

$$$$

