PCCDB-ID:  69951
public computational chemistry database (PCCDB) project, http://pccdb.org

 23 22  0  0  0  0  0  0  0  0999 V2000
    2.7540    0.4745    1.4051 C   0  0  0  0  0  0  0  0  0  0  0  0
    2.9889   -2.6549   -2.6880 C   0  0  0  0  0  0  0  0  0  0  0  0
    6.4071   -2.1400    0.4115 C   0  0  0  0  0  0  0  0  0  0  0  0
    2.4575    0.2456   -0.0807 C   0  0  0  0  0  0  0  0  0  0  0  0
    2.5757   -1.2995   -2.1051 C   0  0  0  0  0  0  0  0  0  0  0  0
    3.0022   -1.0880   -0.6367 C   0  0  0  0  0  0  0  0  0  0  0  0
    4.5208   -1.0948   -0.5420 C   0  0  0  0  0  0  0  0  0  0  0  0
    5.2517   -0.3177   -1.1213 O   0  0  0  0  0  0  0  0  0  0  0  0
    4.9780   -2.0748    0.2713 O   0  0  0  0  0  0  0  0  0  0  0  0
    2.3230    1.4222    1.7465 H   0  0  0  0  0  0  0  0  0  0  0  0
    3.8321    0.5152    1.5996 H   0  0  0  0  0  0  0  0  0  0  0  0
    2.3333   -0.3269    2.0244 H   0  0  0  0  0  0  0  0  0  0  0  0
    2.6431   -2.7557   -3.7228 H   0  0  0  0  0  0  0  0  0  0  0  0
    2.5634   -3.4849   -2.1110 H   0  0  0  0  0  0  0  0  0  0  0  0
    4.0785   -2.7751   -2.6928 H   0  0  0  0  0  0  0  0  0  0  0  0
    6.5976   -2.9732    1.0886 H   0  0  0  0  0  0  0  0  0  0  0  0
    6.7956   -1.2073    0.8293 H   0  0  0  0  0  0  0  0  0  0  0  0
    6.8810   -2.3153   -0.5581 H   0  0  0  0  0  0  0  0  0  0  0  0
    2.8800    1.0655   -0.6746 H   0  0  0  0  0  0  0  0  0  0  0  0
    1.3722    0.2616   -0.2444 H   0  0  0  0  0  0  0  0  0  0  0  0
    1.4844   -1.1939   -2.1599 H   0  0  0  0  0  0  0  0  0  0  0  0
    3.0041   -0.4896   -2.7081 H   0  0  0  0  0  0  0  0  0  0  0  0
    2.6198   -1.9154   -0.0267 H   0  0  0  0  0  0  0  0  0  0  0  0
  1 11  1  0  0  0  0
  1 10  1  0  0  0  0
  1 12  1  0  0  0  0
  2 14  1  0  0  0  0
  2  5  1  0  0  0  0
  3 17  1  0  0  0  0
  3 16  1  0  0  0  0
  4  1  1  0  0  0  0
  5  6  1  0  0  0  0
  6  7  1  0  0  0  0
  6  4  1  0  0  0  0
  6 23  1  0  0  0  0
  7  9  1  0  0  0  0
  8  7  2  0  0  0  0
  9  3  1  0  0  0  0
 13  2  1  0  0  0  0
 15  2  1  0  0  0  0
 18  3  1  0  0  0  0
 19  4  1  0  0  0  0
 20  4  1  0  0  0  0
 21  5  1  0  0  0  0
 22  5  1  0  0  0  0
M  END
>  <HBA>
2

>  <HBD>
0

>  <TPSA>
26.3

>  <cid>
69951

>  <dipole>
1.51

>  <excitation_energy_1>
5.761

>  <excitation_energy_2>
6.903

>  <excitation_energy_3>
7.281

>  <excitation_energy_4>
7.481

>  <homo_energy>
-7.222

>  <homo_lumo_gap>
7.611

>  <logP>
1.596

>  <lumo_energy>
0.389

>  <melting_point>
-14.79

>  <molecular_refractivity>
37.05

>  <oscillator_strength_1>
0.0022

>  <oscillator_strength_2>
0.0038

>  <oscillator_strength_3>
0.0032

>  <oscillator_strength_4>
0.0014

>  <open_babel_can_smiles>
CCC(C(=O)OC)CC

>  <mulliken_charges>
23
1   -0.452875
2   -0.453226
3   -0.219892
4   -0.260835
5   -0.26025
6   -0.148494
7   0.621784
8   -0.492539
9   -0.451622
10   0.147327
11   0.152677
12   0.145129
13   0.147335
14   0.144598
15   0.153
16   0.163334
17   0.169328
18   0.169494
19   0.156669
20   0.135332
21   0.13465
22   0.157231
23   0.141846

>  <lowdin_charges>
23
1   -0.446749
2   -0.445172
3   -0.280115
4   -0.266865
5   -0.267018
6   -0.151335
7   0.19711
8   -0.273611
9   -0.193111
10   0.153174
11   0.149478
12   0.14933
13   0.15207
14   0.148845
15   0.14941
16   0.160534
17   0.159208
18   0.158925
19   0.154387
20   0.142524
21   0.142135
22   0.154789
23   0.152057

$$$$

