PCCDB-ID:  16867
public computational chemistry database (PCCDB) project, http://pccdb.org

 13 13  0  0  0  0  0  0  0  0999 V2000
    1.0487   -0.1119    0.0359 C   0  0  0  0  0  0  0  0  0  0  0  0
    4.7165   -0.7627   -0.1608 C   0  0  0  0  0  0  0  0  0  0  0  0
    4.9709    0.7703   -0.3485 C   0  0  0  0  0  0  0  0  0  0  0  0
    2.5432   -0.0538   -0.0803 C   0  0  0  0  0  0  0  0  0  0  0  0
    3.3000   -1.0705   -0.0227 N   0  0  0  0  0  0  0  0  0  0  0  0
    3.3121    1.5649   -0.3165 S   0  0  0  0  0  0  0  0  0  0  0  0
    0.7369   -1.1500    0.1686 H   0  0  0  0  0  0  0  0  0  0  0  0
    0.5742    0.2975   -0.8632 H   0  0  0  0  0  0  0  0  0  0  0  0
    0.7035    0.4824    0.8898 H   0  0  0  0  0  0  0  0  0  0  0  0
    5.2400   -1.1338    0.7287 H   0  0  0  0  0  0  0  0  0  0  0  0
    5.1115   -1.3260   -1.0150 H   0  0  0  0  0  0  0  0  0  0  0  0
    5.4560    0.9915   -1.3019 H   0  0  0  0  0  0  0  0  0  0  0  0
    5.5831    1.1857    0.4551 H   0  0  0  0  0  0  0  0  0  0  0  0
  1  7  1  0  0  0  0
  1  9  1  0  0  0  0
  2  5  1  0  0  0  0
  2 10  1  0  0  0  0
  3  6  1  0  0  0  0
  3  2  1  0  0  0  0
  3 13  1  0  0  0  0
  4  5  2  0  0  0  0
  4  1  1  0  0  0  0
  6  4  1  0  0  0  0
  8  1  1  0  0  0  0
 11  2  1  0  0  0  0
 12  3  1  0  0  0  0
M  END
>  <HBA>
2

>  <HBD>
0

>  <TPSA>
37.66

>  <cid>
16867

>  <dipole>
0.77

>  <excitation_energy_1>
4.966

>  <excitation_energy_2>
5.451

>  <excitation_energy_3>
5.541

>  <excitation_energy_4>
5.761

>  <homo_energy>
-6.104

>  <homo_lumo_gap>
6.351

>  <logP>
0.587

>  <lumo_energy>
0.248

>  <melting_point>
24.18

>  <molecular_refractivity>
33.83

>  <oscillator_strength_1>
0.0007

>  <oscillator_strength_2>
0.0594

>  <oscillator_strength_3>
0.0186

>  <oscillator_strength_4>
0.0022

>  <open_babel_can_smiles>
CC1=NCCS1

>  <mulliken_charges>
13
1   -0.501138
2   -0.139253
3   -0.455755
4   0.135059
5   -0.374755
6   0.099577
7   0.186566
8   0.176696
9   0.176876
10   0.1633
11   0.163307
12   0.184752
13   0.184765

>  <lowdin_charges>
13
1   -0.443962
2   -0.207391
3   -0.391187
4   -0.045776
5   -0.187986
6   0.104653
7   0.176104
8   0.17254
9   0.17283
10   0.157806
11   0.15803
12   0.166643
13   0.167695

$$$$

