PCCDB-ID:  20315
public computational chemistry database (PCCDB) project, http://pccdb.org

 17 17  0  0  0  0  0  0  0  0999 V2000
    0.6449    1.2459   -0.2386 C   0  0  0  0  0  0  0  0  0  0  0  0
   -1.4060    0.0285   -0.2406 C   0  0  0  0  0  0  0  0  0  0  0  0
    1.3614   -0.0078    0.2588 C   0  0  0  0  0  0  0  0  0  0  0  0
   -0.6487   -1.2013    0.2566 C   0  0  0  0  0  0  0  0  0  0  0  0
   -1.4216    2.3919   -0.3475 N   0  0  0  0  0  0  0  0  0  0  0  0
   -0.7358    1.2349    0.2534 N   0  0  0  0  0  0  0  0  0  0  0  0
    0.7028   -1.1871   -0.1808 O   0  0  0  0  0  0  0  0  0  0  0  0
    0.6772    1.2916   -1.3414 H   0  0  0  0  0  0  0  0  0  0  0  0
    1.1529    2.1380    0.1529 H   0  0  0  0  0  0  0  0  0  0  0  0
   -2.4327    0.0092    0.1502 H   0  0  0  0  0  0  0  0  0  0  0  0
   -1.4607    0.0229   -1.3434 H   0  0  0  0  0  0  0  0  0  0  0  0
    1.4154    0.0096    1.3598 H   0  0  0  0  0  0  0  0  0  0  0  0
    2.3790   -0.0519   -0.1405 H   0  0  0  0  0  0  0  0  0  0  0  0
   -1.0963   -2.1154   -0.1443 H   0  0  0  0  0  0  0  0  0  0  0  0
   -0.6913   -1.2413    1.3575 H   0  0  0  0  0  0  0  0  0  0  0  0
   -0.9695    3.2000    0.0910 H   0  0  0  0  0  0  0  0  0  0  0  0
   -2.3490    2.3810    0.0880 H   0  0  0  0  0  0  0  0  0  0  0  0
  1  9  1  0  0  0  0
  1  6  1  0  0  0  0
  1  3  1  0  0  0  0
  2 10  1  0  0  0  0
  2  6  1  0  0  0  0
  2  4  1  0  0  0  0
  3 12  1  0  0  0  0
  4 15  1  0  0  0  0
  5 17  1  0  0  0  0
  5 16  1  0  0  0  0
  5  6  1  0  0  0  0
  7  4  1  0  0  0  0
  7  3  1  0  0  0  0
  8  1  1  0  0  0  0
 11  2  1  0  0  0  0
 13  3  1  0  0  0  0
 14  4  1  0  0  0  0
M  END
>  <HBA>
3

>  <HBD>
1

>  <TPSA>
38.49

>  <cid>
20315

>  <dipole>
1.76

>  <excitation_energy_1>
4.848

>  <excitation_energy_2>
5.453

>  <excitation_energy_3>
5.528

>  <excitation_energy_4>
5.779

>  <homo_energy>
-5.339

>  <homo_lumo_gap>
7.54

>  <logP>
-0.17

>  <lumo_energy>
2.201

>  <melting_point>
45.28

>  <molecular_refractivity>
29.83

>  <oscillator_strength_1>
0.0076

>  <oscillator_strength_2>
0.0099

>  <oscillator_strength_3>
0.0011

>  <oscillator_strength_4>
0.0684

>  <open_babel_can_smiles>
NN1CCOCC1

>  <mulliken_charges>
17
1   -0.11936
2   -0.119589
3   -0.037295
4   -0.037176
5   -0.571456
6   -0.342808
7   -0.465163
8   0.137467
9   0.130578
10   0.130644
11   0.137476
12   0.12927
13   0.147651
14   0.147637
15   0.129279
16   0.301442
17   0.301402

>  <lowdin_charges>
17
1   -0.219638
2   -0.2183
3   -0.133068
4   -0.133976
5   -0.481399
6   -0.16077
7   -0.272065
8   0.130589
9   0.144703
10   0.143063
11   0.130581
12   0.129363
13   0.152108
14   0.153701
15   0.12938
16   0.253547
17   0.252179

$$$$

