PCCDB-ID:  35074
public computational chemistry database (PCCDB) project, http://pccdb.org

 28 29  0  0  1  0  0  0  0  0999 V2000
    1.3782   -1.1491   -0.4228 C   0  0  0  0  0  0  0  0  0  0  0  0
    4.0873    2.1867   -3.1176 C   0  0  0  0  0  0  0  0  0  0  0  0
    4.7688    1.0097   -2.8035 C   0  0  0  0  0  0  0  0  0  0  0  0
    2.9182    2.5172   -2.4285 C   0  0  0  0  0  0  0  0  0  0  0  0
    4.2801    0.1580   -1.8115 C   0  0  0  0  0  0  0  0  0  0  0  0
    2.4355    1.6797   -1.4236 C   0  0  0  0  0  0  0  0  0  0  0  0
    3.1133    0.4940   -1.1115 C   0  0  0  0  0  0  0  0  0  0  0  0
    3.5577   -1.9763    2.9457 C   0  0  0  0  0  0  0  0  0  0  0  0
    5.1746   -0.1350    2.4483 C   0  0  0  0  0  0  0  0  0  0  0  0
    3.2894   -0.7068    1.0270 C   0  0  2  0  0  0  0  0  0  0  0  0
    3.1531   -2.9192    3.7129 N   0  0  0  0  0  0  0  0  0  0  0  0
    6.1827    0.6296    2.6412 N   0  0  0  0  0  0  0  0  0  0  0  0
    4.7097   -1.1833    3.2220 N   0  0  0  0  0  0  0  0  0  0  0  0
    2.8826   -1.6880    1.7760 N   0  0  0  0  0  0  0  0  0  0  0  0
    4.3937    0.0701    1.3140 N   0  0  0  0  0  0  0  0  0  0  0  0
    2.5841   -0.3759   -0.1041 N   0  0  0  0  0  0  0  0  0  0  0  0
    0.7346   -0.5384   -1.0592 H   0  0  0  0  0  0  0  0  0  0  0  0
    0.8630   -1.4077    0.5015 H   0  0  0  0  0  0  0  0  0  0  0  0
    1.6277   -2.0776   -0.9516 H   0  0  0  0  0  0  0  0  0  0  0  0
    4.4658    2.8445   -3.8947 H   0  0  0  0  0  0  0  0  0  0  0  0
    5.6773    0.7453   -3.3372 H   0  0  0  0  0  0  0  0  0  0  0  0
    2.3866    3.4346   -2.6651 H   0  0  0  0  0  0  0  0  0  0  0  0
    4.7953   -0.7691   -1.5776 H   0  0  0  0  0  0  0  0  0  0  0  0
    1.5385    1.9394   -0.8688 H   0  0  0  0  0  0  0  0  0  0  0  0
    3.7604   -3.0114    4.5314 H   0  0  0  0  0  0  0  0  0  0  0  0
    6.6737    0.3918    3.5035 H   0  0  0  0  0  0  0  0  0  0  0  0
    5.2244   -1.3847    4.0682 H   0  0  0  0  0  0  0  0  0  0  0  0
    4.6741    0.8450    0.7288 H   0  0  0  0  0  0  0  0  0  0  0  0
  1 16  1  0  0  0  0
  1 18  1  0  0  0  0
  2  3  2  0  0  0  0
  2  4  1  0  0  0  0
  3  5  1  0  0  0  0
  4  6  2  0  0  0  0
  5 23  1  0  0  0  0
  5  7  2  0  0  0  0
  6  7  1  0  0  0  0
  6 24  1  0  0  0  0
  7 16  1  0  0  0  0
  8 13  1  0  0  0  0
  8 11  1  0  0  0  0
  9 12  2  0  0  0  0
  9 13  1  0  0  0  0
 10 16  1  1  0  0  0
 10 15  1  0  0  0  0
 10 14  1  0  0  0  0
 11 25  1  0  0  0  0
 12 26  1  0  0  0  0
 13 27  1  0  0  0  0
 14  8  2  0  0  0  0
 15  9  1  0  0  0  0
 17  1  1  0  0  0  0
 19  1  1  0  0  0  0
 20  2  1  0  0  0  0
 21  3  1  0  0  0  0
 22  4  1  0  0  0  0
 28 15  1  0  0  0  0
M  RAD  2  10   2  11   2
M  END
>  <HBA>
5

>  <HBD>
2

>  <TPSA>
93.95

>  <cid>
35074

>  <dipole>
4.08

>  <excitation_energy_1>
4.45

>  <excitation_energy_2>
4.602

>  <excitation_energy_3>
5.021

>  <excitation_energy_4>
5.094

>  <homo_energy>
-5.875

>  <homo_lumo_gap>
5.113

>  <logP>
1.966

>  <lumo_energy>
-0.762

>  <melting_point>
194.09

>  <molecular_refractivity>
63.08

>  <oscillator_strength_1>
0.1301

>  <oscillator_strength_2>
0.0091

>  <oscillator_strength_3>
0.0038

>  <oscillator_strength_4>
0.0065

>  <open_babel_can_smiles>
N=C1NC(=N[C](N1)N(c1ccccc1)C)[NH]

>  <mulliken_charges>
28
1   -0.302659
2   -0.118997
3   -0.138949
4   -0.139669
5   -0.140769
6   -0.137669
7   0.201292
8   0.612867
9   0.691458
10   0.769407
11   -0.626376
12   -0.661603
13   -0.696925
14   -0.546096
15   -0.691625
16   -0.554104
17   0.15552
18   0.208067
19   0.166997
20   0.141503
21   0.145575
22   0.143557
23   0.153776
24   0.147644
25   0.257212
26   0.276153
27   0.324755
28   0.359657

>  <lowdin_charges>
28
1   -0.343552
2   -0.151121
3   -0.148241
4   -0.148824
5   -0.168444
6   -0.16221
7   0.028208
8   0.128733
9   0.139015
10   0.156994
11   -0.428918
12   -0.469486
13   -0.285334
14   -0.245126
15   -0.243732
16   -0.087273
17   0.158618
18   0.185106
19   0.156169
20   0.165139
21   0.165778
22   0.164816
23   0.170796
24   0.168664
25   0.240538
26   0.25469
27   0.288315
28   0.31068

$$$$

