PCCDB-ID:  16719
public computational chemistry database (PCCDB) project, http://pccdb.org

 22 23  0  0  0  0  0  0  0  0999 V2000
   -2.4217   -0.7496   -0.0322 C   0  0  0  0  0  0  0  0  0  0  0  0
   -2.4428    0.6618   -0.0220 C   0  0  0  0  0  0  0  0  0  0  0  0
   -1.2183   -1.4211   -0.0591 C   0  0  0  0  0  0  0  0  0  0  0  0
   -1.2600    1.3694   -0.0388 C   0  0  0  0  0  0  0  0  0  0  0  0
    2.4386   -0.6758   -0.1450 C   0  0  0  0  0  0  0  0  0  0  0  0
    2.4176    0.7354   -0.1344 C   0  0  0  0  0  0  0  0  0  0  0  0
    0.0190   -0.7247   -0.0573 C   0  0  0  0  0  0  0  0  0  0  0  0
   -0.0024    0.7104   -0.0468 C   0  0  0  0  0  0  0  0  0  0  0  0
    1.2751   -1.4169   -0.0848 C   0  0  0  0  0  0  0  0  0  0  0  0
    1.2324    1.4404   -0.0636 C   0  0  0  0  0  0  0  0  0  0  0  0
    1.2932   -2.8290   -0.1133 N   0  0  0  0  0  0  0  0  0  0  0  0
    1.2078    2.8525   -0.0709 N   0  0  0  0  0  0  0  0  0  0  0  0
   -3.3550   -1.3063   -0.0415 H   0  0  0  0  0  0  0  0  0  0  0  0
   -3.3923    1.1904   -0.0235 H   0  0  0  0  0  0  0  0  0  0  0  0
   -1.2137   -2.5048   -0.1219 H   0  0  0  0  0  0  0  0  0  0  0  0
   -1.2881    2.4535   -0.0860 H   0  0  0  0  0  0  0  0  0  0  0  0
    3.3991   -1.1868   -0.1709 H   0  0  0  0  0  0  0  0  0  0  0  0
    3.3623    1.2752   -0.1523 H   0  0  0  0  0  0  0  0  0  0  0  0
    2.2306   -3.2002    0.0005 H   0  0  0  0  0  0  0  0  0  0  0  0
    0.6842   -3.2523    0.5801 H   0  0  0  0  0  0  0  0  0  0  0  0
    2.1335    3.2503    0.0495 H   0  0  0  0  0  0  0  0  0  0  0  0
    0.5858    3.2468    0.6281 H   0  0  0  0  0  0  0  0  0  0  0  0
  1  2  1  0  0  0  0
  3  7  1  0  0  0  0
  3  1  2  0  0  0  0
  4  2  2  0  0  0  0
  5  6  2  0  0  0  0
  5  9  1  0  0  0  0
  6 10  1  0  0  0  0
  7  8  1  0  0  0  0
  8  4  1  0  0  0  0
  9  7  2  0  0  0  0
 10  8  2  0  0  0  0
 11  9  1  0  0  0  0
 11 19  1  0  0  0  0
 11 20  1  0  0  0  0
 12 10  1  0  0  0  0
 12 21  1  0  0  0  0
 12 22  1  0  0  0  0
 13  1  1  0  0  0  0
 14  2  1  0  0  0  0
 15  3  1  0  0  0  0
 16  4  1  0  0  0  0
 17  5  1  0  0  0  0
 18  6  1  0  0  0  0
M  END
>  <HBA>
2

>  <HBD>
2

>  <TPSA>
52.04

>  <cid>
16719

>  <dipole>
2.52

>  <excitation_energy_1>
3.371

>  <excitation_energy_2>
3.883

>  <excitation_energy_3>
4.132

>  <excitation_energy_4>
4.288

>  <homo_energy>
-4.61

>  <homo_lumo_gap>
4.008

>  <logP>
3.167

>  <lumo_energy>
-0.601

>  <melting_point>
147.97

>  <molecular_refractivity>
52.76

>  <oscillator_strength_1>
0.0907

>  <oscillator_strength_2>
0.0695

>  <oscillator_strength_3>
0.0

>  <oscillator_strength_4>
0.0081

>  <open_babel_can_smiles>
Nc1ccc(c2c1cccc2)N

>  <mulliken_charges>
22
1   -0.132162
2   -0.13222
3   -0.202129
4   -0.202078
5   -0.193033
6   -0.193109
7   0.095457
8   0.095428
9   0.227111
10   0.227203
11   -0.78745
12   -0.787511
13   0.125237
14   0.125208
15   0.129462
16   0.12945
17   0.110572
18   0.110589
19   0.313011
20   0.313955
21   0.313027
22   0.313983

>  <lowdin_charges>
22
1   -0.161103
2   -0.160889
3   -0.158925
4   -0.158932
5   -0.19975
6   -0.199971
7   -0.017027
8   -0.017052
9   0.034278
10   0.034296
11   -0.500557
12   -0.500619
13   0.156612
14   0.156439
15   0.156121
16   0.156101
17   0.150565
18   0.150739
19   0.268645
20   0.271118
21   0.268843
22   0.271066

$$$$

