PCCDB-ID:  27823
public computational chemistry database (PCCDB) project, http://pccdb.org

 30 31  0  0  0  0  0  0  0  0999 V2000
    2.9265   -1.3239   -1.0903 C   0  0  0  0  0  0  0  0  0  0  0  0
    7.0313    4.2267    8.0223 C   0  0  0  0  0  0  0  0  0  0  0  0
    5.8129    4.7931    7.6439 C   0  0  0  0  0  0  0  0  0  0  0  0
    7.5475    3.1350    7.3118 C   0  0  0  0  0  0  0  0  0  0  0  0
    5.1125    4.2701    6.5583 C   0  0  0  0  0  0  0  0  0  0  0  0
    6.8540    2.6081    6.2288 C   0  0  0  0  0  0  0  0  0  0  0  0
    3.2750    1.8702    2.6612 C   0  0  0  0  0  0  0  0  0  0  0  0
    5.0066    0.2183    2.3242 C   0  0  0  0  0  0  0  0  0  0  0  0
    2.5734    1.3636    1.5824 C   0  0  0  0  0  0  0  0  0  0  0  0
    4.3081   -0.3015    1.2381 C   0  0  0  0  0  0  0  0  0  0  0  0
    5.6267    3.1779    5.8461 C   0  0  0  0  0  0  0  0  0  0  0  0
    4.5052    1.3042    3.0479 C   0  0  0  0  0  0  0  0  0  0  0  0
    3.0835    0.2651    0.8561 C   0  0  0  0  0  0  0  0  0  0  0  0
    4.8307    2.7321    4.7618 N   0  0  0  0  0  0  0  0  0  0  0  0
    5.3007    1.7461    4.1289 N   0  0  0  0  0  0  0  0  0  0  0  0
    1.1427    0.2550   -0.4938 N   0  0  0  0  0  0  0  0  0  0  0  0
    2.3787   -0.2640   -0.2504 N   0  0  0  0  0  0  0  0  0  0  0  0
    0.5494   -0.2201   -1.4488 O   0  0  0  0  0  0  0  0  0  0  0  0
    3.8965   -1.0209   -1.4946 H   0  0  0  0  0  0  0  0  0  0  0  0
    2.2157   -1.4791   -1.9011 H   0  0  0  0  0  0  0  0  0  0  0  0
    3.0397   -2.2507   -0.5187 H   0  0  0  0  0  0  0  0  0  0  0  0
    7.5804    4.6316    8.8681 H   0  0  0  0  0  0  0  0  0  0  0  0
    5.4096    5.6396    8.1925 H   0  0  0  0  0  0  0  0  0  0  0  0
    8.4965    2.6964    7.6089 H   0  0  0  0  0  0  0  0  0  0  0  0
    4.1632    4.6900    6.2397 H   0  0  0  0  0  0  0  0  0  0  0  0
    7.2369    1.7640    5.6664 H   0  0  0  0  0  0  0  0  0  0  0  0
    2.8900    2.7143    3.2221 H   0  0  0  0  0  0  0  0  0  0  0  0
    5.9550   -0.2125    2.6297 H   0  0  0  0  0  0  0  0  0  0  0  0
    1.6306    1.8048    1.2871 H   0  0  0  0  0  0  0  0  0  0  0  0
    4.7191   -1.1474    0.7005 H   0  0  0  0  0  0  0  0  0  0  0  0
  1 21  1  0  0  0  0
  1 17  1  0  0  0  0
  2 22  1  0  0  0  0
  3  2  1  0  0  0  0
  3 23  1  0  0  0  0
  4 24  1  0  0  0  0
  4  2  2  0  0  0  0
  5  3  2  0  0  0  0
  6  4  1  0  0  0  0
  7 12  1  0  0  0  0
  7 27  1  0  0  0  0
  8 28  1  0  0  0  0
  8 12  2  0  0  0  0
  9  7  2  0  0  0  0
 10  8  1  0  0  0  0
 11  6  2  0  0  0  0
 11  5  1  0  0  0  0
 12 15  1  0  0  0  0
 13 10  2  0  0  0  0
 13  9  1  0  0  0  0
 14 11  1  0  0  0  0
 15 14  1  0  0  0  0
 16 17  1  0  0  0  0
 17 13  1  0  0  0  0
 18 16  2  0  0  0  0
 19  1  1  0  0  0  0
 20  1  1  0  0  0  0
 25  5  1  0  0  0  0
 26  6  1  0  0  0  0
 29  9  1  0  0  0  0
 30 10  1  0  0  0  0
M  RAD  2  14   2  15   2
M  END
>  <HBA>
5

>  <HBD>
0

>  <TPSA>
57.39

>  <cid>
27823

>  <dipole>
3.11

>  <excitation_energy_1>
2.589

>  <excitation_energy_2>
3.016

>  <excitation_energy_3>
3.326

>  <excitation_energy_4>
3.927

>  <homo_energy>
-5.981

>  <homo_lumo_gap>
3.608

>  <logP>
4.22

>  <lumo_energy>
-2.373

>  <melting_point>
90.87

>  <molecular_refractivity>
71.2

>  <oscillator_strength_1>
0.0

>  <oscillator_strength_2>
0.0019

>  <oscillator_strength_3>
1.069

>  <oscillator_strength_4>
0.0177

>  <open_babel_can_smiles>
O=NN(c1ccc(cc1)[N][N]c1ccccc1)C

>  <mulliken_charges>
30
1   -0.352382
2   -0.117674
3   -0.138365
4   -0.145541
5   -0.139983
6   -0.123321
7   -0.137595
8   -0.151638
9   -0.173655
10   -0.193886
11   0.269888
12   0.285365
13   0.367051
14   -0.309767
15   -0.315385
16   0.184583
17   -0.358902
18   -0.359458
19   0.180852
20   0.217683
21   0.180767
22   0.135337
23   0.136383
24   0.136288
25   0.142265
26   0.154294
27   0.163092
28   0.147009
29   0.174662
30   0.142036

>  <lowdin_charges>
30
1   -0.380122
2   -0.146193
3   -0.156841
4   -0.152426
5   -0.145445
6   -0.151121
7   -0.139562
8   -0.136981
9   -0.167981
10   -0.191317
11   0.010929
12   0.003889
13   0.055562
14   -0.083636
15   -0.082649
16   0.068871
17   -0.017221
18   -0.234725
19   0.168077
20   0.190803
21   0.16703
22   0.161297
23   0.161869
24   0.160046
25   0.167404
26   0.173475
27   0.17838
28   0.170435
29   0.180491
30   0.167661

$$$$

