PCCDB-ID:  29580
public computational chemistry database (PCCDB) project, http://pccdb.org

 11 10  0  0  0  0  0  0  0  0999 V2000
    1.3218   -0.1604   -0.1105 C   0  0  0  0  0  0  0  0  0  0  0  0
    0.6951   -1.4524    0.3968 C   0  0  0  0  0  0  0  0  0  0  0  0
    1.3450   -2.4345    0.9038 N   0  0  0  0  0  0  0  0  0  0  0  0
   -0.6844   -1.4718    0.3638 N   0  0  0  0  0  0  0  0  0  0  0  0
    0.8146    0.3400   -1.8163 S   0  0  0  0  0  0  0  0  0  0  0  0
    2.4105   -0.2277   -0.0600 H   0  0  0  0  0  0  0  0  0  0  0  0
    1.0013    0.6774    0.5179 H   0  0  0  0  0  0  0  0  0  0  0  0
    2.3459   -2.2311    0.9229 H   0  0  0  0  0  0  0  0  0  0  0  0
   -1.1209   -0.9724   -0.4015 H   0  0  0  0  0  0  0  0  0  0  0  0
   -1.0835   -2.3828    0.5547 H   0  0  0  0  0  0  0  0  0  0  0  0
    1.3020   -0.7505   -2.4475 H   0  0  0  0  0  0  0  0  0  0  0  0
  1  6  1  0  0  0  0
  1  2  1  0  0  0  0
  1  7  1  0  0  0  0
  2  3  1  0  0  0  0
  3  8  1  0  0  0  0
  4  2  2  0  0  0  0
  4 10  1  0  0  0  0
  5  1  1  0  0  0  0
  9  4  1  0  0  0  0
 11  5  1  0  0  0  0
M  RAD  1   3   2
M  END
>  <HBA>
3

>  <HBD>
3

>  <TPSA>
88.67

>  <cid>
29580

>  <dipole>
1.22

>  <excitation_energy_1>
5.329

>  <excitation_energy_2>
5.547

>  <excitation_energy_3>
5.622

>  <excitation_energy_4>
5.968

>  <homo_energy>
-6.501

>  <homo_lumo_gap>
6.563

>  <logP>
0.652

>  <lumo_energy>
0.063

>  <melting_point>
81.9

>  <molecular_refractivity>
25.96

>  <oscillator_strength_1>
0.0001

>  <oscillator_strength_2>
0.0106

>  <oscillator_strength_3>
0.0092

>  <oscillator_strength_4>
0.0498

>  <open_babel_can_smiles>
[NH]C(=[NH2])CS

>  <mulliken_charges>
11
1   -0.483212
2   0.443719
3   -0.614233
4   -0.723833
5   -0.081668
6   0.186903
7   0.210368
8   0.275858
9   0.341401
10   0.33446
11   0.110238

>  <lowdin_charges>
11
1   -0.393416
2   0.083421
3   -0.432095
4   -0.479289
5   -0.075058
6   0.167924
7   0.187951
8   0.248235
9   0.285301
10   0.285302
11   0.121724

$$$$

