PCCDB-ID:  62511
public computational chemistry database (PCCDB) project, http://pccdb.org

 18 17  0  0  0  0  0  0  0  0999 V2000
    1.1211   -0.0554   -0.0631 C   0  0  0  0  0  0  0  0  0  0  0  0
    0.5739   -0.3024    1.3339 C   0  0  0  0  0  0  0  0  0  0  0  0
    3.1711    0.0840   -1.2294 C   0  0  0  0  0  0  0  0  0  0  0  0
   -1.5062   -0.4979    2.4568 C   0  0  0  0  0  0  0  0  0  0  0  0
    4.5417   -0.0898   -1.0763 O   0  0  0  0  0  0  0  0  0  0  0  0
   -1.2739    0.4657    3.4543 O   0  0  0  0  0  0  0  0  0  0  0  0
    2.5340   -0.1114    0.0174 O   0  0  0  0  0  0  0  0  0  0  0  0
   -0.8457   -0.2289    1.2467 O   0  0  0  0  0  0  0  0  0  0  0  0
    0.7815    0.9288   -0.4237 H   0  0  0  0  0  0  0  0  0  0  0  0
    0.7308   -0.8161   -0.7589 H   0  0  0  0  0  0  0  0  0  0  0  0
    0.9674    0.4458    2.0319 H   0  0  0  0  0  0  0  0  0  0  0  0
    0.8871   -1.2961    1.6901 H   0  0  0  0  0  0  0  0  0  0  0  0
    2.7380   -0.6162   -1.9700 H   0  0  0  0  0  0  0  0  0  0  0  0
    3.0279    1.1130   -1.5891 H   0  0  0  0  0  0  0  0  0  0  0  0
   -2.5683   -0.5659    2.1884 H   0  0  0  0  0  0  0  0  0  0  0  0
   -1.1675   -1.4480    2.8913 H   0  0  0  0  0  0  0  0  0  0  0  0
    4.6812   -0.9869   -0.7321 H   0  0  0  0  0  0  0  0  0  0  0  0
   -1.6232    1.3102    3.1254 H   0  0  0  0  0  0  0  0  0  0  0  0
  1  7  1  0  0  0  0
  1  2  1  0  0  0  0
  2 12  1  0  0  0  0
  2 11  1  0  0  0  0
  3  5  1  0  0  0  0
  3  7  1  0  0  0  0
  4 16  1  0  0  0  0
  4  6  1  0  0  0  0
  5 17  1  0  0  0  0
  8  2  1  0  0  0  0
  8  4  1  0  0  0  0
  9  1  1  0  0  0  0
 10  1  1  0  0  0  0
 13  3  1  0  0  0  0
 14  3  1  0  0  0  0
 15  4  1  0  0  0  0
 18  6  1  0  0  0  0
M  END
>  <HBA>
4

>  <HBD>
2

>  <TPSA>
58.92

>  <cid>
62511

>  <dipole>
1.98

>  <excitation_energy_1>
6.575

>  <excitation_energy_2>
6.9

>  <excitation_energy_3>
7.018

>  <excitation_energy_4>
7.127

>  <homo_energy>
-7.108

>  <homo_lumo_gap>
9.176

>  <logP>
-1.081

>  <lumo_energy>
2.068

>  <melting_point>
-5.9

>  <molecular_refractivity>
25.84

>  <oscillator_strength_1>
0.0071

>  <oscillator_strength_2>
0.0138

>  <oscillator_strength_3>
0.0392

>  <oscillator_strength_4>
0.0158

>  <open_babel_can_smiles>
OCOCCOCO

>  <mulliken_charges>
18
1   -0.032306
2   -0.036872
3   0.195379
4   0.16184
5   -0.593475
6   -0.596759
7   -0.482361
8   -0.477803
9   0.134839
10   0.132208
11   0.157609
12   0.133186
13   0.105629
14   0.136063
15   0.137023
16   0.136879
17   0.396262
18   0.392659

>  <lowdin_charges>
18
1   -0.134616
2   -0.135951
3   -0.016305
4   -0.027886
5   -0.43027
6   -0.451896
7   -0.28299
8   -0.27472
9   0.134134
10   0.133635
11   0.148237
12   0.135157
13   0.111109
14   0.132481
15   0.133107
16   0.134004
17   0.347317
18   0.345456

$$$$

