PCCDB-ID:  31626
public computational chemistry database (PCCDB) project, http://pccdb.org

 28 30  0  0  0  0  0  0  0  0999 V2000
    0.9344   -0.1133   -0.1466 C   0  0  0  0  0  0  0  0  0  0  0  0
    3.5192    6.1795   -0.2497 C   0  0  0  0  0  0  0  0  0  0  0  0
    4.9133    6.0544   -0.1723 C   0  0  0  0  0  0  0  0  0  0  0  0
    4.5770   -1.1727   -0.0602 C   0  0  0  0  0  0  0  0  0  0  0  0
    3.1817   -1.1752   -0.1269 C   0  0  0  0  0  0  0  0  0  0  0  0
    2.7247    5.0463   -0.1385 C   0  0  0  0  0  0  0  0  0  0  0  0
    5.4937    4.8062   -0.0104 C   0  0  0  0  0  0  0  0  0  0  0  0
    5.2602    0.0241    0.0582 C   0  0  0  0  0  0  0  0  0  0  0  0
    2.4376    0.0051   -0.0561 C   0  0  0  0  0  0  0  0  0  0  0  0
    3.2773    3.7680    0.0478 C   0  0  0  0  0  0  0  0  0  0  0  0
    4.6835    3.6596    0.0842 C   0  0  0  0  0  0  0  0  0  0  0  0
    4.5397    1.2275    0.1162 C   0  0  0  0  0  0  0  0  0  0  0  0
    3.1222    1.2471    0.0824 C   0  0  0  0  0  0  0  0  0  0  0  0
    2.4309    2.5546    0.2289 C   0  0  0  0  0  0  0  0  0  0  0  0
    1.1720    2.5863    0.5128 N   0  0  0  0  0  0  0  0  0  0  0  0
    5.2544    2.4126    0.2145 N   0  0  0  0  0  0  0  0  0  0  0  0
    0.6607   -1.1414   -0.4076 H   0  0  0  0  0  0  0  0  0  0  0  0
    0.5174    0.5677   -0.8935 H   0  0  0  0  0  0  0  0  0  0  0  0
    0.4529    0.1592    0.7961 H   0  0  0  0  0  0  0  0  0  0  0  0
    3.0628    7.1531   -0.3993 H   0  0  0  0  0  0  0  0  0  0  0  0
    5.5466    6.9338   -0.2515 H   0  0  0  0  0  0  0  0  0  0  0  0
    5.1270   -2.1085   -0.1110 H   0  0  0  0  0  0  0  0  0  0  0  0
    2.6542   -2.1187   -0.2354 H   0  0  0  0  0  0  0  0  0  0  0  0
    1.6458    5.1502   -0.2159 H   0  0  0  0  0  0  0  0  0  0  0  0
    6.5756    4.7010    0.0338 H   0  0  0  0  0  0  0  0  0  0  0  0
    6.3471    0.0472    0.0965 H   0  0  0  0  0  0  0  0  0  0  0  0
    0.8509    3.5521    0.6200 H   0  0  0  0  0  0  0  0  0  0  0  0
    6.2626    2.3501    0.2078 H   0  0  0  0  0  0  0  0  0  0  0  0
  1  9  1  0  0  0  0
  1 19  1  0  0  0  0
  2  3  1  0  0  0  0
  2  6  2  0  0  0  0
  3  7  2  0  0  0  0
  4  8  2  0  0  0  0
  5  4  1  0  0  0  0
  5  9  2  0  0  0  0
  6 10  1  0  0  0  0
  7 25  1  0  0  0  0
  7 11  1  0  0  0  0
  8 26  1  0  0  0  0
  8 12  1  0  0  0  0
  9 13  1  0  0  0  0
 10 11  2  0  0  0  0
 10 14  1  0  0  0  0
 11 16  1  0  0  0  0
 12 16  1  0  0  0  0
 13 12  2  0  0  0  0
 13 14  1  0  0  0  0
 14 15  2  0  0  0  0
 15 27  1  0  0  0  0
 17  1  1  0  0  0  0
 18  1  1  0  0  0  0
 20  2  1  0  0  0  0
 21  3  1  0  0  0  0
 22  4  1  0  0  0  0
 23  5  1  0  0  0  0
 24  6  1  0  0  0  0
 28 16  1  0  0  0  0
M  END
>  <HBA>
2

>  <HBD>
1

>  <TPSA>
38.91

>  <cid>
31626

>  <dipole>
3.48

>  <excitation_energy_1>
3.497

>  <excitation_energy_2>
4.218

>  <excitation_energy_3>
4.324

>  <excitation_energy_4>
4.465

>  <homo_energy>
-5.236

>  <homo_lumo_gap>
4.071

>  <logP>
3.86

>  <lumo_energy>
-1.165

>  <melting_point>
163.49

>  <molecular_refractivity>
68.62

>  <oscillator_strength_1>
0.0867

>  <oscillator_strength_2>
0.0971

>  <oscillator_strength_3>
0.0021

>  <oscillator_strength_4>
0.0232

>  <open_babel_can_smiles>
Cc1cccc2c1c(=N)c1c([nH]2)cccc1

>  <mulliken_charges>
28
1   -0.486289
2   -0.135962
3   -0.133143
4   -0.124498
5   -0.191531
6   -0.21741
7   -0.180939
8   -0.194694
9   0.097416
10   0.104443
11   0.344053
12   0.336823
13   0.06629
14   0.217507
15   -0.658507
16   -0.829475
17   0.13045
18   0.168905
19   0.184264
20   0.131274
21   0.134955
22   0.131017
23   0.12187
24   0.136012
25   0.125418
26   0.119823
27   0.279016
28   0.32291

>  <lowdin_charges>
28
1   -0.43778
2   -0.176661
3   -0.139437
4   -0.138975
5   -0.189113
6   -0.14003
7   -0.191025
8   -0.200294
9   0.036191
10   -0.058884
11   0.062071
12   0.061115
13   -0.052504
14   0.054777
15   -0.392214
16   -0.21307
17   0.142361
18   0.169673
19   0.175693
20   0.160017
21   0.162062
22   0.159897
23   0.156069
24   0.157213
25   0.153916
26   0.150772
27   0.24287
28   0.28529

$$$$

