PCCDB-ID:  32474
public computational chemistry database (PCCDB) project, http://pccdb.org

 23 24  0  0  0  0  0  0  0  0999 V2000
    0.9620   -0.1676    0.0861 C   0  0  0  0  0  0  0  0  0  0  0  0
    0.3943   -0.2540   -1.3357 C   0  0  0  0  0  0  0  0  0  0  0  0
    7.3079    0.6450    0.4165 C   0  0  0  0  0  0  0  0  0  0  0  0
    7.3342   -0.7639   -0.1854 C   0  0  0  0  0  0  0  0  0  0  0  0
    4.6194    0.5535   -0.0036 C   0  0  0  0  0  0  0  0  0  0  0  0
    4.6452   -0.7785    0.2348 C   0  0  0  0  0  0  0  0  0  0  0  0
    3.1889    0.9854   -0.1059 C   0  0  0  0  0  0  0  0  0  0  0  0
    3.2310   -1.2725    0.3248 C   0  0  0  0  0  0  0  0  0  0  0  0
    2.4167   -0.1541    0.1149 N   0  0  0  0  0  0  0  0  0  0  0  0
    0.9540    0.6966   -2.2212 O   0  0  0  0  0  0  0  0  0  0  0  0
    2.7579    2.1038   -0.3198 O   0  0  0  0  0  0  0  0  0  0  0  0
    2.8448   -2.4017    0.5424 O   0  0  0  0  0  0  0  0  0  0  0  0
    5.9210    1.7033   -0.1714 S   0  0  0  0  0  0  0  0  0  0  0  0
    5.9907   -1.8747    0.4061 S   0  0  0  0  0  0  0  0  0  0  0  0
    0.6284   -1.0223    0.6816 H   0  0  0  0  0  0  0  0  0  0  0  0
    0.6196    0.7508    0.5758 H   0  0  0  0  0  0  0  0  0  0  0  0
   -0.7029   -0.1593   -1.2651 H   0  0  0  0  0  0  0  0  0  0  0  0
    0.6135   -1.2378   -1.7643 H   0  0  0  0  0  0  0  0  0  0  0  0
    8.2096    1.1876    0.1152 H   0  0  0  0  0  0  0  0  0  0  0  0
    7.2853    0.5995    1.5080 H   0  0  0  0  0  0  0  0  0  0  0  0
    8.2571   -1.2712    0.1128 H   0  0  0  0  0  0  0  0  0  0  0  0
    7.3055   -0.7196   -1.2768 H   0  0  0  0  0  0  0  0  0  0  0  0
    1.0660    1.5365   -1.7450 H   0  0  0  0  0  0  0  0  0  0  0  0
  1  9  1  0  0  0  0
  1 16  1  0  0  0  0
  1 15  1  0  0  0  0
  2 17  1  0  0  0  0
  2  1  1  0  0  0  0
  3 20  1  0  0  0  0
  4 21  1  0  0  0  0
  4 14  1  0  0  0  0
  4  3  1  0  0  0  0
  5  6  2  0  0  0  0
  6  8  1  0  0  0  0
  6 14  1  0  0  0  0
  7  5  1  0  0  0  0
  7  9  1  0  0  0  0
  8 12  2  0  0  0  0
  9  8  1  0  0  0  0
 10 23  1  0  0  0  0
 10  2  1  0  0  0  0
 11  7  2  0  0  0  0
 13  5  1  0  0  0  0
 13  3  1  0  0  0  0
 18  2  1  0  0  0  0
 19  3  1  0  0  0  0
 22  4  1  0  0  0  0
M  END
>  <HBA>
6

>  <HBD>
1

>  <TPSA>
108.21

>  <cid>
32474

>  <dipole>
3.54

>  <excitation_energy_1>
2.829

>  <excitation_energy_2>
3.747

>  <excitation_energy_3>
4.136

>  <excitation_energy_4>
4.345

>  <homo_energy>
-6.038

>  <homo_lumo_gap>
3.54

>  <logP>
-0.023

>  <lumo_energy>
-2.498

>  <melting_point>
115.87

>  <molecular_refractivity>
59.42

>  <oscillator_strength_1>
0.0425

>  <oscillator_strength_2>
0.0003

>  <oscillator_strength_3>
0.0179

>  <oscillator_strength_4>
0.02

>  <open_babel_can_smiles>
OCCN1C(=O)C2=C(C1=O)SCCS2

>  <mulliken_charges>
23
1   -0.210878
2   -0.005777
3   -0.439237
4   -0.439658
5   -0.176646
6   -0.182712
7   0.630899
8   0.617057
9   -0.502161
10   -0.621835
11   -0.500578
12   -0.471414
13   0.219177
14   0.219226
15   0.184071
16   0.173293
17   0.127154
18   0.158924
19   0.196167
20   0.210459
21   0.195937
22   0.212677
23   0.405854

>  <lowdin_charges>
23
1   -0.216202
2   -0.132917
3   -0.376009
4   -0.375835
5   -0.189488
6   -0.189992
7   0.181223
8   0.177179
9   -0.084862
10   -0.467216
11   -0.251835
12   -0.23338
13   0.237916
14   0.238868
15   0.177495
16   0.162975
17   0.129649
18   0.151742
19   0.181756
20   0.1751
21   0.181513
22   0.176284
23   0.346035

$$$$

