PCCDB-ID:  43070
public computational chemistry database (PCCDB) project, http://pccdb.org

 35 35  0  0  0  0  0  0  0  0999 V2000
    3.4477   -0.3669   -0.9884 C   0  0  0  0  0  0  0  0  0  0  0  0
    1.4574    1.1588   -0.9821 C   0  0  0  0  0  0  0  0  0  0  0  0
    1.4313   -0.9916    0.3631 C   0  0  0  0  0  0  0  0  0  0  0  0
    1.9753    1.5454    2.0360 C   0  0  0  0  0  0  0  0  0  0  0  0
    8.2422    1.3258    1.6595 C   0  0  0  0  0  0  0  0  0  0  0  0
    7.7836    2.5844    3.6670 C   0  0  0  0  0  0  0  0  0  0  0  0
    6.8826    1.1747    1.4299 C   0  0  0  0  0  0  0  0  0  0  0  0
    6.4190    2.4434    3.4378 C   0  0  0  0  0  0  0  0  0  0  0  0
    8.7159    2.0197    2.7845 C   0  0  0  0  0  0  0  0  0  0  0  0
    5.9472    1.7329    2.3230 C   0  0  0  0  0  0  0  0  0  0  0  0
   10.1983    2.1266    2.9629 C   0  0  0  0  0  0  0  0  0  0  0  0
    2.2992    0.1848   -0.1309 C   0  0  0  0  0  0  0  0  0  0  0  0
   10.6386    2.5109    4.2138 N   0  0  0  0  0  0  0  0  0  0  0  0
    4.5415    1.6528    2.2033 N   0  0  0  0  0  0  0  0  0  0  0  0
    4.1564    1.0026    1.1757 N   0  0  0  0  0  0  0  0  0  0  0  0
    2.8431    0.9152    1.0471 N   0  0  0  0  0  0  0  0  0  0  0  0
   10.9866    1.9125    2.0487 O   0  0  0  0  0  0  0  0  0  0  0  0
    3.0134   -0.9016   -1.8401 H   0  0  0  0  0  0  0  0  0  0  0  0
    4.0738   -1.0629   -0.4248 H   0  0  0  0  0  0  0  0  0  0  0  0
    4.0879    0.4321   -1.3697 H   0  0  0  0  0  0  0  0  0  0  0  0
    1.0607    0.6396   -1.8612 H   0  0  0  0  0  0  0  0  0  0  0  0
    2.0720    1.9971   -1.3265 H   0  0  0  0  0  0  0  0  0  0  0  0
    0.6054    1.5636   -0.4261 H   0  0  0  0  0  0  0  0  0  0  0  0
    1.0251   -1.5403   -0.4936 H   0  0  0  0  0  0  0  0  0  0  0  0
    0.5845   -0.6554    0.9700 H   0  0  0  0  0  0  0  0  0  0  0  0
    2.0299   -1.6849    0.9632 H   0  0  0  0  0  0  0  0  0  0  0  0
    0.9344    1.3738    1.7660 H   0  0  0  0  0  0  0  0  0  0  0  0
    2.1759    2.6211    2.0843 H   0  0  0  0  0  0  0  0  0  0  0  0
    2.1745    1.1324    3.0306 H   0  0  0  0  0  0  0  0  0  0  0  0
    8.9717    0.9079    0.9731 H   0  0  0  0  0  0  0  0  0  0  0  0
    8.1174    3.1693    4.5200 H   0  0  0  0  0  0  0  0  0  0  0  0
    6.5284    0.6299    0.5623 H   0  0  0  0  0  0  0  0  0  0  0  0
    5.6902    2.8838    4.1114 H   0  0  0  0  0  0  0  0  0  0  0  0
   10.0676    2.3184    5.0245 H   0  0  0  0  0  0  0  0  0  0  0  0
   11.6383    2.4319    4.3488 H   0  0  0  0  0  0  0  0  0  0  0  0
  1 19  1  0  0  0  0
  1 12  1  0  0  0  0
  2 23  1  0  0  0  0
  2 12  1  0  0  0  0
  3 26  1  0  0  0  0
  3 25  1  0  0  0  0
  4 28  1  0  0  0  0
  4 29  1  0  0  0  0
  5  9  1  0  0  0  0
  6 31  1  0  0  0  0
  7  5  2  0  0  0  0
  7 10  1  0  0  0  0
  8  6  1  0  0  0  0
  8 33  1  0  0  0  0
  9 11  1  0  0  0  0
  9  6  2  0  0  0  0
 10  8  2  0  0  0  0
 11 13  1  0  0  0  0
 12  3  1  0  0  0  0
 12 16  1  0  0  0  0
 13 35  1  0  0  0  0
 13 34  1  0  0  0  0
 14 10  1  0  0  0  0
 15 14  1  0  0  0  0
 16 15  1  0  0  0  0
 16  4  1  0  0  0  0
 17 11  2  0  0  0  0
 18  1  1  0  0  0  0
 20  1  1  0  0  0  0
 21  2  1  0  0  0  0
 22  2  1  0  0  0  0
 24  3  1  0  0  0  0
 27  4  1  0  0  0  0
 30  5  1  0  0  0  0
 32  7  1  0  0  0  0
M  RAD  2  14   2  15   2
M  END
>  <HBA>
5

>  <HBD>
1

>  <TPSA>
71.05

>  <cid>
43070

>  <dipole>
5.62

>  <excitation_energy_1>
3.82

>  <excitation_energy_2>
3.968

>  <excitation_energy_3>
4.351

>  <excitation_energy_4>
4.493

>  <homo_energy>
-5.57

>  <homo_lumo_gap>
4.297

>  <logP>
3.215

>  <lumo_energy>
-1.274

>  <melting_point>
128.03

>  <molecular_refractivity>
67.08

>  <oscillator_strength_1>
0.0002

>  <oscillator_strength_2>
0.805

>  <oscillator_strength_3>
0.0125

>  <oscillator_strength_4>
0.0057

>  <open_babel_can_smiles>
CN(C(C)(C)C)[N][N]c1ccc(cc1)C(=O)N

>  <mulliken_charges>
35
1   -0.441221
2   -0.442445
3   -0.4428
4   -0.309751
5   -0.181684
6   -0.194487
7   -0.148868
8   -0.15966
9   0.083979
10   0.302925
11   0.522844
12   0.195299
13   -0.753024
14   -0.410061
15   -0.038206
16   -0.208702
17   -0.507414
18   0.142187
19   0.163449
20   0.164748
21   0.15169
22   0.160428
23   0.146038
24   0.151719
25   0.146119
26   0.159598
27   0.158671
28   0.180441
29   0.179882
30   0.160337
31   0.127743
32   0.144738
33   0.131498
34   0.328269
35   0.335721

>  <lowdin_charges>
35
1   -0.445654
2   -0.450719
3   -0.451243
4   -0.364526
5   -0.13122
6   -0.158791
7   -0.174693
8   -0.16866
9   -0.056144
10   0.036503
11   0.16848
12   0.078562
13   -0.476797
14   -0.184795
15   -0.027906
16   -0.026687
17   -0.307327
18   0.153104
19   0.16242
20   0.162622
21   0.157378
22   0.159964
23   0.151674
24   0.157546
25   0.151582
26   0.160093
27   0.157558
28   0.166179
29   0.167341
30   0.176491
31   0.15688
32   0.167403
33   0.164408
34   0.282962
35   0.286013

$$$$

