PCCDB-ID:  19494
public computational chemistry database (PCCDB) project, http://pccdb.org

 15 15  0  0  0  0  0  0  0  0999 V2000
    0.2901    1.0282    0.4653 C   0  0  0  0  0  0  0  0  0  0  0  0
   -0.9576    0.4961   -0.2888 C   0  0  0  0  0  0  0  0  0  0  0  0
    1.0621   -0.2457    0.0286 C   0  0  0  0  0  0  0  0  0  0  0  0
   -0.2908   -0.9236   -0.2893 C   0  0  0  0  0  0  0  0  0  0  0  0
   -0.3959   -1.7294   -1.5683 C   0  0  0  0  0  0  0  0  0  0  0  0
    0.4924   -1.8758   -2.3700 O   0  0  0  0  0  0  0  0  0  0  0  0
   -1.6226   -2.2795   -1.8050 O   0  0  0  0  0  0  0  0  0  0  0  0
    0.1259    1.0602    1.5473 H   0  0  0  0  0  0  0  0  0  0  0  0
    0.6904    1.9946    0.1455 H   0  0  0  0  0  0  0  0  0  0  0  0
   -1.0285    0.9023   -1.3029 H   0  0  0  0  0  0  0  0  0  0  0  0
   -1.9324    0.5956    0.1994 H   0  0  0  0  0  0  0  0  0  0  0  0
    1.7032   -0.7347    0.7674 H   0  0  0  0  0  0  0  0  0  0  0  0
    1.6329   -0.0991   -0.8922 H   0  0  0  0  0  0  0  0  0  0  0  0
   -0.6571   -1.5217    0.5556 H   0  0  0  0  0  0  0  0  0  0  0  0
   -2.2265   -2.0595   -1.0762 H   0  0  0  0  0  0  0  0  0  0  0  0
  1  8  1  0  0  0  0
  2 11  1  0  0  0  0
  2  1  1  0  0  0  0
  3  1  1  0  0  0  0
  3 12  1  0  0  0  0
  4  2  1  0  0  0  0
  4  3  1  0  0  0  0
  4 14  1  0  0  0  0
  5  4  1  0  0  0  0
  6  5  2  0  0  0  0
  7  5  1  0  0  0  0
  7 15  1  0  0  0  0
  9  1  1  0  0  0  0
 10  2  1  0  0  0  0
 13  3  1  0  0  0  0
M  END
>  <HBA>
2

>  <HBD>
1

>  <TPSA>
37.3

>  <cid>
19494

>  <dipole>
4.29

>  <excitation_energy_1>
5.6

>  <excitation_energy_2>
6.376

>  <excitation_energy_3>
7.169

>  <excitation_energy_4>
7.344

>  <homo_energy>
-7.252

>  <homo_lumo_gap>
7.486

>  <logP>
0.871

>  <lumo_energy>
0.234

>  <melting_point>
73.84

>  <molecular_refractivity>
25.81

>  <oscillator_strength_1>
0.0017

>  <oscillator_strength_2>
0.0113

>  <oscillator_strength_3>
0.0082

>  <oscillator_strength_4>
0.0044

>  <open_babel_can_smiles>
OC(=O)C1CCC1

>  <mulliken_charges>
15
1   -0.277403
2   -0.285028
3   -0.272259
4   -0.227966
5   0.597492
6   -0.439815
7   -0.569062
8   0.14353
9   0.148287
10   0.161919
11   0.141526
12   0.147337
13   0.174329
14   0.148641
15   0.408473

>  <lowdin_charges>
15
1   -0.277831
2   -0.280585
3   -0.278569
4   -0.180947
5   0.194166
6   -0.238066
7   -0.363774
8   0.146134
9   0.148645
10   0.156185
11   0.14419
12   0.150558
13   0.166049
14   0.155509
15   0.358337

$$$$

