PCCDB-ID:  18922
public computational chemistry database (PCCDB) project, http://pccdb.org

 13 13  0  0  0  0  0  0  0  0999 V2000
    0.9235    0.0976    0.0718 C   0  0  0  0  0  0  0  0  0  0  0  0
    3.1187   -1.1898   -0.0387 C   0  0  0  0  0  0  0  0  0  0  0  0
    4.5083   -1.1307   -0.1015 C   0  0  0  0  0  0  0  0  0  0  0  0
    4.4221    1.1260   -0.0649 C   0  0  0  0  0  0  0  0  0  0  0  0
    2.4258    0.0241    0.0102 C   0  0  0  0  0  0  0  0  0  0  0  0
    5.1820    0.0258   -0.1155 N   0  0  0  0  0  0  0  0  0  0  0  0
    3.0906    1.1938   -0.0026 N   0  0  0  0  0  0  0  0  0  0  0  0
    0.4712   -0.8923    0.1805 H   0  0  0  0  0  0  0  0  0  0  0  0
    0.5318    0.5632   -0.8401 H   0  0  0  0  0  0  0  0  0  0  0  0
    0.6115    0.7282    0.9109 H   0  0  0  0  0  0  0  0  0  0  0  0
    2.5952   -2.1408   -0.0278 H   0  0  0  0  0  0  0  0  0  0  0  0
    5.1058   -2.0405   -0.1408 H   0  0  0  0  0  0  0  0  0  0  0  0
    4.9516    2.0773   -0.0748 H   0  0  0  0  0  0  0  0  0  0  0  0
  1  8  1  0  0  0  0
  1 10  1  0  0  0  0
  2 11  1  0  0  0  0
  2  5  1  0  0  0  0
  3  2  2  0  0  0  0
  4  7  1  0  0  0  0
  5  1  1  0  0  0  0
  6  3  1  0  0  0  0
  6  4  2  0  0  0  0
  7  5  2  0  0  0  0
  9  1  1  0  0  0  0
 12  3  1  0  0  0  0
 13  4  1  0  0  0  0
M  END
>  <HBA>
2

>  <HBD>
0

>  <TPSA>
25.78

>  <cid>
18922

>  <dipole>
2.49

>  <excitation_energy_1>
4.395

>  <excitation_energy_2>
4.709

>  <excitation_energy_3>
5.686

>  <excitation_energy_4>
5.743

>  <homo_energy>
-6.806

>  <homo_lumo_gap>
5.788

>  <logP>
0.785

>  <lumo_energy>
-1.018

>  <melting_point>
38.16

>  <molecular_refractivity>
27.0

>  <oscillator_strength_1>
0.0054

>  <oscillator_strength_2>
0.0002

>  <oscillator_strength_3>
0.0511

>  <oscillator_strength_4>
0.0002

>  <open_babel_can_smiles>
Cc1ccncn1

>  <mulliken_charges>
13
1   -0.506032
2   -0.167616
3   0.053895
4   0.16648
5   0.307838
6   -0.386929
7   -0.431181
8   0.154138
9   0.180671
10   0.181367
11   0.141554
12   0.151989
13   0.153827

>  <lowdin_charges>
13
1   -0.445888
2   -0.204831
3   -0.061265
4   -0.037518
5   0.081896
6   -0.163328
7   -0.16775
8   0.156888
9   0.175306
10   0.176005
11   0.167636
12   0.162114
13   0.160735

$$$$

