PCCDB-ID:  70736
public computational chemistry database (PCCDB) project, http://pccdb.org

 18 18  0  0  0  0  0  0  0  0999 V2000
    1.0493   -0.1588    0.4257 C   0  0  0  0  0  0  0  0  0  0  0  0
    4.4889    1.3236   -0.2759 C   0  0  0  0  0  0  0  0  0  0  0  0
    3.1004    1.2286   -0.1541 C   0  0  0  0  0  0  0  0  0  0  0  0
    5.2744    0.2178    0.0266 C   0  0  0  0  0  0  0  0  0  0  0  0
    5.3988   -2.2208    0.8004 C   0  0  0  0  0  0  0  0  0  0  0  0
    2.5375    0.0227    0.2688 C   0  0  0  0  0  0  0  0  0  0  0  0
    4.6329   -0.9541    0.4440 C   0  0  0  0  0  0  0  0  0  0  0  0
    3.3059   -1.0437    0.5606 N   0  0  0  0  0  0  0  0  0  0  0  0
    4.5467   -3.2678    1.1867 O   0  0  0  0  0  0  0  0  0  0  0  0
    0.5019    0.7533    0.1713 H   0  0  0  0  0  0  0  0  0  0  0  0
    0.8041   -0.4361    1.4573 H   0  0  0  0  0  0  0  0  0  0  0  0
    0.6924   -0.9712   -0.2175 H   0  0  0  0  0  0  0  0  0  0  0  0
    4.9481    2.2533   -0.6017 H   0  0  0  0  0  0  0  0  0  0  0  0
    2.4623    2.0766   -0.3835 H   0  0  0  0  0  0  0  0  0  0  0  0
    6.3571    0.2535   -0.0581 H   0  0  0  0  0  0  0  0  0  0  0  0
    6.1103   -1.9883    1.6106 H   0  0  0  0  0  0  0  0  0  0  0  0
    6.0066   -2.5239   -0.0685 H   0  0  0  0  0  0  0  0  0  0  0  0
    3.6450   -2.8901    1.1279 H   0  0  0  0  0  0  0  0  0  0  0  0
  1 11  1  0  0  0  0
  2  3  2  0  0  0  0
  2  4  1  0  0  0  0
  3  6  1  0  0  0  0
  4  7  2  0  0  0  0
  5  9  1  0  0  0  0
  5 16  1  0  0  0  0
  6  1  1  0  0  0  0
  6  8  2  0  0  0  0
  7  8  1  0  0  0  0
  7  5  1  0  0  0  0
 10  1  1  0  0  0  0
 12  1  1  0  0  0  0
 13  2  1  0  0  0  0
 14  3  1  0  0  0  0
 15  4  1  0  0  0  0
 17  5  1  0  0  0  0
 18  9  1  0  0  0  0
M  END
>  <HBA>
2

>  <HBD>
1

>  <TPSA>
33.12

>  <cid>
70736

>  <dipole>
3.72

>  <excitation_energy_1>
5.078

>  <excitation_energy_2>
5.219

>  <excitation_energy_3>
5.523

>  <excitation_energy_4>
5.538

>  <homo_energy>
-6.558

>  <homo_lumo_gap>
5.766

>  <logP>
0.882

>  <lumo_energy>
-0.792

>  <melting_point>
46.11

>  <molecular_refractivity>
35.33

>  <oscillator_strength_1>
0.0874

>  <oscillator_strength_2>
0.0032

>  <oscillator_strength_3>
0.0289

>  <oscillator_strength_4>
0.0004

>  <open_babel_can_smiles>
OCc1cccc(n1)C

>  <mulliken_charges>
18
1   -0.507143
2   -0.096184
3   -0.182211
4   -0.170429
5   -0.048843
6   0.316289
7   0.283212
8   -0.565071
9   -0.640462
10   0.152593
11   0.174782
12   0.174808
13   0.144898
14   0.135136
15   0.137701
16   0.141172
17   0.141238
18   0.408513

>  <lowdin_charges>
18
1   -0.445089
2   -0.120331
3   -0.191023
4   -0.182211
5   -0.13744
6   0.065977
7   0.042594
8   -0.176977
9   -0.473533
10   0.156819
11   0.169451
12   0.171225
13   0.16484
14   0.164112
15   0.162779
16   0.143617
17   0.143288
18   0.341902

$$$$

