PCCDB-ID:  47649
public computational chemistry database (PCCDB) project, http://pccdb.org

 17 17  0  0  0  0  0  0  0  0999 V2000
    0.9099    1.9126   -0.3881 C   0  0  0  0  0  0  0  0  0  0  0  0
    2.5038   -0.5062    2.8782 C   0  0  0  0  0  0  0  0  0  0  0  0
    4.6452    1.9328   -0.4933 C   0  0  0  0  0  0  0  0  0  0  0  0
    4.2503    3.2123   -0.6980 C   0  0  0  0  0  0  0  0  0  0  0  0
    2.3898    2.0536   -0.4367 C   0  0  0  0  0  0  0  0  0  0  0  0
    3.4350    1.1688   -0.3187 C   0  0  0  0  0  0  0  0  0  0  0  0
    2.8821    3.3028   -0.6756 O   0  0  0  0  0  0  0  0  0  0  0  0
    3.9594   -0.9444    1.8543 S   0  0  0  0  0  0  0  0  0  0  0  0
    3.2808   -0.5803   -0.1046 S   0  0  0  0  0  0  0  0  0  0  0  0
    0.6466    0.8840   -0.1311 H   0  0  0  0  0  0  0  0  0  0  0  0
    0.4538    2.1538   -1.3563 H   0  0  0  0  0  0  0  0  0  0  0  0
    0.4733    2.5873    0.3579 H   0  0  0  0  0  0  0  0  0  0  0  0
    2.7946   -0.6882    3.9180 H   0  0  0  0  0  0  0  0  0  0  0  0
    1.6445   -1.1324    2.6275 H   0  0  0  0  0  0  0  0  0  0  0  0
    2.2520    0.5503    2.7577 H   0  0  0  0  0  0  0  0  0  0  0  0
    5.6565    1.5543   -0.4580 H   0  0  0  0  0  0  0  0  0  0  0  0
    4.7738    4.1396   -0.8736 H   0  0  0  0  0  0  0  0  0  0  0  0
  1 10  1  0  0  0  0
  1 12  1  0  0  0  0
  2 13  1  0  0  0  0
  3 16  1  0  0  0  0
  3  6  1  0  0  0  0
  4  7  1  0  0  0  0
  4  3  2  0  0  0  0
  5  1  1  0  0  0  0
  5  6  2  0  0  0  0
  6  9  1  0  0  0  0
  7  5  1  0  0  0  0
  8  2  1  0  0  0  0
  9  8  1  0  0  0  0
 11  1  1  0  0  0  0
 14  2  1  0  0  0  0
 15  2  1  0  0  0  0
 17  4  1  0  0  0  0
M  END
>  <HBA>
3

>  <HBD>
0

>  <TPSA>
63.74

>  <cid>
47649

>  <dipole>
2.24

>  <excitation_energy_1>
4.099

>  <excitation_energy_2>
4.477

>  <excitation_energy_3>
4.726

>  <excitation_energy_4>
5.465

>  <homo_energy>
-6.125

>  <homo_lumo_gap>
5.146

>  <logP>
2.958

>  <lumo_energy>
-0.98

>  <melting_point>
29.17

>  <molecular_refractivity>
42.99

>  <oscillator_strength_1>
0.0088

>  <oscillator_strength_2>
0.0285

>  <oscillator_strength_3>
0.0456

>  <oscillator_strength_4>
0.0075

>  <open_babel_can_smiles>
CSSc1ccoc1C

>  <mulliken_charges>
17
1   -0.530504
2   -0.586666
3   -0.166407
4   0.083174
5   0.347153
6   -0.17377
7   -0.427181
8   0.02475
9   0.010272
10   0.186168
11   0.17715
12   0.172493
13   0.187491
14   0.190431
15   0.187943
16   0.158042
17   0.15946

>  <lowdin_charges>
17
1   -0.443826
2   -0.55062
3   -0.192702
4   -0.077418
5   0.078645
6   -0.209805
7   -0.102201
8   0.033838
9   0.079899
10   0.17761
11   0.170658
12   0.170145
13   0.176922
14   0.170358
15   0.16644
16   0.178226
17   0.173831

$$$$

