PCCDB-ID:  67584
public computational chemistry database (PCCDB) project, http://pccdb.org

 26 27  0  0  0  0  0  0  0  0999 V2000
   -1.4342   -0.0239    0.5210 C   0  0  0  0  0  0  0  0  0  0  0  0
   -0.6023   -1.0576    0.9551 C   0  0  0  0  0  0  0  0  0  0  0  0
   -0.8796    1.0715   -0.1431 C   0  0  0  0  0  0  0  0  0  0  0  0
    0.7719   -0.9955    0.7302 C   0  0  0  0  0  0  0  0  0  0  0  0
    0.4945    1.1319   -0.3709 C   0  0  0  0  0  0  0  0  0  0  0  0
    3.5058    1.3842   -0.0989 C   0  0  0  0  0  0  0  0  0  0  0  0
    4.8762    1.4434   -0.3259 C   0  0  0  0  0  0  0  0  0  0  0  0
    3.5461   -0.9809   -0.4893 C   0  0  0  0  0  0  0  0  0  0  0  0
    1.3442    0.1005    0.0629 C   0  0  0  0  0  0  0  0  0  0  0  0
    2.8085    0.1664   -0.1767 C   0  0  0  0  0  0  0  0  0  0  0  0
    4.9271   -0.9560   -0.7198 C   0  0  0  0  0  0  0  0  0  0  0  0
    5.5875    0.2829   -0.6337 C   0  0  0  0  0  0  0  0  0  0  0  0
    5.5744   -2.2772   -1.0578 C   0  0  0  0  0  0  0  0  0  0  0  0
    6.9469    0.3230   -0.8523 O   0  0  0  0  0  0  0  0  0  0  0  0
    4.9334   -3.3037   -1.1093 O   0  0  0  0  0  0  0  0  0  0  0  0
    6.8998   -2.2916   -1.3048 O   0  0  0  0  0  0  0  0  0  0  0  0
   -2.5053   -0.0725    0.6969 H   0  0  0  0  0  0  0  0  0  0  0  0
   -1.0225   -1.9130    1.4774 H   0  0  0  0  0  0  0  0  0  0  0  0
   -1.5186    1.8774   -0.4941 H   0  0  0  0  0  0  0  0  0  0  0  0
    1.4121   -1.7942    1.0941 H   0  0  0  0  0  0  0  0  0  0  0  0
    0.9099    1.9750   -0.9165 H   0  0  0  0  0  0  0  0  0  0  0  0
    2.9752    2.2940    0.1653 H   0  0  0  0  0  0  0  0  0  0  0  0
    5.4024    2.3933   -0.2501 H   0  0  0  0  0  0  0  0  0  0  0  0
    3.0580   -1.9445   -0.5859 H   0  0  0  0  0  0  0  0  0  0  0  0
    7.2702    1.2355   -0.7990 H   0  0  0  0  0  0  0  0  0  0  0  0
    7.2750   -1.3937   -1.2235 H   0  0  0  0  0  0  0  0  0  0  0  0
  1 17  1  0  0  0  0
  1  2  2  0  0  0  0
  2 18  1  0  0  0  0
  3  1  1  0  0  0  0
  4  2  1  0  0  0  0
  4 20  1  0  0  0  0
  5  3  2  0  0  0  0
  5  9  1  0  0  0  0
  6 22  1  0  0  0  0
  7 23  1  0  0  0  0
  7  6  2  0  0  0  0
  8 10  2  0  0  0  0
  9  4  2  0  0  0  0
 10  6  1  0  0  0  0
 10  9  1  0  0  0  0
 11 12  2  0  0  0  0
 11  8  1  0  0  0  0
 12  7  1  0  0  0  0
 13 11  1  0  0  0  0
 14 25  1  0  0  0  0
 14 12  1  0  0  0  0
 15 13  2  0  0  0  0
 16 26  1  0  0  0  0
 16 13  1  0  0  0  0
 19  3  1  0  0  0  0
 21  5  1  0  0  0  0
 24  8  1  0  0  0  0
M  END
>  <HBA>
3

>  <HBD>
2

>  <TPSA>
57.53

>  <cid>
67584

>  <dipole>
6.36

>  <excitation_energy_1>
4.154

>  <excitation_energy_2>
4.659

>  <excitation_energy_3>
4.801

>  <excitation_energy_4>
4.839

>  <homo_energy>
-6.177

>  <homo_lumo_gap>
4.855

>  <logP>
2.757

>  <lumo_energy>
-1.322

>  <melting_point>
173.89

>  <molecular_refractivity>
60.86

>  <oscillator_strength_1>
0.0416

>  <oscillator_strength_2>
0.0001

>  <oscillator_strength_3>
0.2617

>  <oscillator_strength_4>
0.1499

>  <open_babel_can_smiles>
OC(=O)c1cc(ccc1O)c1ccccc1

>  <mulliken_charges>
26
1   -0.125431
2   -0.134131
3   -0.133486
4   -0.171862
5   -0.175434
6   -0.173245
7   -0.187338
8   -0.237742
9   0.091576
10   0.095913
11   0.017329
12   0.306802
13   0.579238
14   -0.68643
15   -0.460394
16   -0.600589
17   0.13244
18   0.135525
19   0.13199
20   0.14222
21   0.128841
22   0.145629
23   0.1293
24   0.180198
25   0.42782
26   0.44126

>  <lowdin_charges>
26
1   -0.153411
2   -0.151936
3   -0.154816
4   -0.15975
5   -0.164207
6   -0.134496
7   -0.206448
8   -0.119606
9   -0.002701
10   -0.01292
11   -0.086136
12   0.106569
13   0.199103
14   -0.385683
15   -0.256751
16   -0.3604
17   0.157633
18   0.161361
19   0.159955
20   0.164864
21   0.158009
22   0.167292
23   0.159053
24   0.186329
25   0.369695
26   0.359399

$$$$

