PCCDB-ID:  10917
public computational chemistry database (PCCDB) project, http://pccdb.org

 26 25  0  0  1  0  0  0  0  0999 V2000
    1.5984   -0.6902   -1.3732 C   0  0  0  0  0  0  0  0  0  0  0  0
    1.4383    1.2260    0.1302 C   0  0  0  0  0  0  0  0  0  0  0  0
    2.4331   -0.8369    0.9583 C   0  0  0  0  0  0  0  0  0  0  0  0
    5.2484   -1.4709   -0.8925 C   0  0  0  0  0  0  0  0  0  0  0  0
    3.6599    0.6332   -0.6907 C   0  0  0  0  0  0  0  0  0  0  0  0
    4.6703   -0.1905   -1.5318 C   0  0  2  0  0  0  0  0  0  0  0  0
    4.2795   -2.6851   -0.9695 C   0  0  0  0  0  0  0  0  0  0  0  0
    2.2988    0.0551   -0.2554 N   0  0  0  0  0  0  0  0  0  0  0  0
    4.1730   -0.4114   -2.8249 O   0  0  0  0  0  0  0  0  0  0  0  0
    3.7329   -2.8486   -2.1138 O   0  0  0  0  0  0  0  0  0  0  0  0
    4.0718   -3.3349    0.0712 O   0  0  0  0  0  0  0  0  0  0  0  0
    2.1380   -1.6132   -1.6011 H   0  0  0  0  0  0  0  0  0  0  0  0
    0.5827   -0.9030   -1.0321 H   0  0  0  0  0  0  0  0  0  0  0  0
    1.5884   -0.0503   -2.2549 H   0  0  0  0  0  0  0  0  0  0  0  0
    0.4893    0.8529    0.5192 H   0  0  0  0  0  0  0  0  0  0  0  0
    1.2606    1.8434   -0.7515 H   0  0  0  0  0  0  0  0  0  0  0  0
    1.9503    1.8098    0.8973 H   0  0  0  0  0  0  0  0  0  0  0  0
    2.8742   -0.2457    1.7637 H   0  0  0  0  0  0  0  0  0  0  0  0
    3.0495   -1.7154    0.7352 H   0  0  0  0  0  0  0  0  0  0  0  0
    1.4300   -1.1597    1.2456 H   0  0  0  0  0  0  0  0  0  0  0  0
    5.5548   -1.2922    0.1438 H   0  0  0  0  0  0  0  0  0  0  0  0
    6.1497   -1.7230   -1.4645 H   0  0  0  0  0  0  0  0  0  0  0  0
    3.4026    1.5023   -1.3015 H   0  0  0  0  0  0  0  0  0  0  0  0
    4.1267    0.9799    0.2370 H   0  0  0  0  0  0  0  0  0  0  0  0
    5.4940    0.5436   -1.5999 H   0  0  0  0  0  0  0  0  0  0  0  0
    3.9858   -1.4045   -2.8420 H   0  0  0  0  0  0  0  0  0  0  0  0
  1 13  1  0  0  0  0
  1  8  1  0  0  0  0
  2 15  1  0  0  0  0
  2 17  1  0  0  0  0
  3 20  1  0  0  0  0
  3 18  1  0  0  0  0
  4 21  1  0  0  0  0
  5  8  1  0  0  0  0
  5 24  1  0  0  0  0
  6 25  1  6  0  0  0
  6  4  1  0  0  0  0
  6  5  1  0  0  0  0
  7  4  1  0  0  0  0
  7 11  1  0  0  0  0
  8  2  1  0  0  0  0
  8  3  1  0  0  0  0
  9  6  1  0  0  0  0
 10  7  2  0  0  0  0
 12  1  1  0  0  0  0
 14  1  1  0  0  0  0
 16  2  1  0  0  0  0
 19  3  1  0  0  0  0
 22  4  1  0  0  0  0
 23  5  1  0  0  0  0
 26  9  1  0  0  0  0
M  RAD  1  11   2
M  END
>  <HBA>
3

>  <HBD>
1

>  <TPSA>
60.36

>  <cid>
10917

>  <dipole>
11.27

>  <excitation_energy_1>
4.347

>  <excitation_energy_2>
4.576

>  <excitation_energy_3>
4.917

>  <excitation_energy_4>
4.926

>  <homo_energy>
-5.214

>  <homo_lumo_gap>
5.614

>  <logP>
-1.806

>  <lumo_energy>
0.4

>  <melting_point>
98.18

>  <molecular_refractivity>
39.13

>  <oscillator_strength_1>
0.0006

>  <oscillator_strength_2>
0.0007

>  <oscillator_strength_3>
0.0012

>  <oscillator_strength_4>
0.0007

>  <open_babel_can_smiles>
O[C@@H](C[N](C)(C)C)CC(=O)[O]

>  <mulliken_charges>
26
1   -0.351508
2   -0.313212
3   -0.364224
4   -0.381792
5   -0.159273
6   0.141246
7   0.558328
8   -0.362085
9   -0.668834
10   -0.597884
11   -0.555433
12   0.275409
13   0.164892
14   0.199966
15   0.193076
16   0.200066
17   0.192805
18   0.172156
19   0.284719
20   0.179049
21   0.126925
22   0.168644
23   0.177318
24   0.163547
25   0.126557
26   0.429544

>  <lowdin_charges>
26
1   -0.367604
2   -0.353464
3   -0.371614
4   -0.350678
5   -0.218149
6   -0.004792
7   0.128723
8   0.076561
9   -0.500187
10   -0.439322
11   -0.388082
12   0.217145
13   0.160862
14   0.181147
15   0.174568
16   0.178077
17   0.175616
18   0.166267
19   0.222689
20   0.16927
21   0.144801
22   0.170008
23   0.168631
24   0.160634
25   0.14268
26   0.356213

$$$$

