PCCDB-ID:  15160
public computational chemistry database (PCCDB) project, http://pccdb.org

 24 24  0  0  1  0  0  0  0  0999 V2000
   -1.0585   -1.2863    4.1339 C   0  0  0  0  0  0  0  0  0  0  0  0
   -1.6235   -0.7126    2.9931 C   0  0  0  0  0  0  0  0  0  0  0  0
    0.3022   -1.5989    4.1553 C   0  0  0  0  0  0  0  0  0  0  0  0
   -0.8319   -0.4442    1.8773 C   0  0  0  0  0  0  0  0  0  0  0  0
    1.0938   -1.3455    3.0364 C   0  0  0  0  0  0  0  0  0  0  0  0
    0.7610    1.7710    0.2771 C   0  0  0  0  0  0  0  0  0  0  0  0
    0.5347   -0.7589    1.8880 C   0  0  0  0  0  0  0  0  0  0  0  0
    1.5809    2.9390   -0.2604 C   0  0  2  0  0  0  0  0  0  0  0  0
    1.4024   -0.4994    0.7002 C   0  0  0  0  0  0  0  0  0  0  0  0
    1.4782    0.5455   -0.0183 N   0  0  0  0  0  0  0  0  0  0  0  0
    1.2744    4.1749   -0.1229 N   0  0  0  0  0  0  0  0  0  0  0  0
    2.7018    2.6269   -0.9342 O   0  0  0  0  0  0  0  0  0  0  0  0
    2.2506   -1.5170    0.3721 O   0  0  0  0  0  0  0  0  0  0  0  0
    0.0452    4.2674    0.6091 O   0  0  0  0  0  0  0  0  0  0  0  0
   -1.6764   -1.4877    5.0044 H   0  0  0  0  0  0  0  0  0  0  0  0
   -2.6830   -0.4745    2.9705 H   0  0  0  0  0  0  0  0  0  0  0  0
    0.7482   -2.0367    5.0437 H   0  0  0  0  0  0  0  0  0  0  0  0
   -1.2781   -0.0090    0.9890 H   0  0  0  0  0  0  0  0  0  0  0  0
    2.1564   -1.5735    3.0617 H   0  0  0  0  0  0  0  0  0  0  0  0
   -0.2137    1.7887   -0.2294 H   0  0  0  0  0  0  0  0  0  0  0  0
    0.5586    1.9328    1.3433 H   0  0  0  0  0  0  0  0  0  0  0  0
    2.7266    1.6416   -0.9277 H   0  0  0  0  0  0  0  0  0  0  0  0
    1.9743   -2.3170    0.8469 H   0  0  0  0  0  0  0  0  0  0  0  0
   -0.0651    5.2278    0.6616 H   0  0  0  0  0  0  0  0  0  0  0  0
  1  3  1  0  0  0  0
  1 15  1  0  0  0  0
  2  1  2  0  0  0  0
  3 17  1  0  0  0  0
  4  7  2  0  0  0  0
  4  2  1  0  0  0  0
  5 19  1  0  0  0  0
  5  3  2  0  0  0  0
  6 21  1  0  0  0  0
  7  5  1  0  0  0  0
  8 12  1  6  0  0  0
  8 11  1  0  0  0  0
  8  6  1  0  0  0  0
  9  7  1  0  0  0  0
 10  6  1  0  0  0  0
 10  9  2  0  0  0  0
 11 14  1  0  0  0  0
 12 22  1  0  0  0  0
 13  9  1  0  0  0  0
 13 23  1  0  0  0  0
 14 24  1  0  0  0  0
 16  2  1  0  0  0  0
 18  4  1  0  0  0  0
 20  6  1  0  0  0  0
M  RAD  2   8   2  11   2
M  END
>  <HBA>
5

>  <HBD>
3

>  <TPSA>
78.43

>  <cid>
15160

>  <dipole>
7.26

>  <excitation_energy_1>
3.714

>  <excitation_energy_2>
4.35

>  <excitation_energy_3>
4.81

>  <excitation_energy_4>
5.096

>  <homo_energy>
-5.595

>  <homo_lumo_gap>
4.169

>  <logP>
0.704

>  <lumo_energy>
-1.426

>  <melting_point>
167.2

>  <molecular_refractivity>
47.98

>  <oscillator_strength_1>
0.0028

>  <oscillator_strength_2>
0.0004

>  <oscillator_strength_3>
0.0078

>  <oscillator_strength_4>
0.0032

>  <open_babel_can_smiles>
O[N][C](C/N=C(\c1ccccc1)/O)O

>  <mulliken_charges>
24
1   -0.119188
2   -0.133618
3   -0.128728
4   -0.149226
5   -0.184005
6   -0.20375
7   0.046073
8   0.52498
9   0.441651
10   -0.481212
11   -0.276971
12   -0.60063
13   -0.574104
14   -0.542994
15   0.146475
16   0.148596
17   0.146858
18   0.156576
19   0.153456
20   0.185855
21   0.185816
22   0.43205
23   0.411456
24   0.414582

>  <lowdin_charges>
24
1   -0.141157
2   -0.14451
3   -0.148708
4   -0.143754
5   -0.159648
6   -0.226628
7   -0.050629
8   0.091137
9   0.14382
10   -0.216588
11   -0.1187
12   -0.359063
13   -0.355966
14   -0.409919
15   0.166764
16   0.16551
17   0.166798
18   0.171854
19   0.165273
20   0.169459
21   0.166061
22   0.357279
23   0.360267
24   0.351047

$$$$

