PCCDB-ID:  8052
public computational chemistry database (PCCDB) project, http://pccdb.org

 20 19  0  0  0  0  0  0  0  0999 V2000
    1.1287   -0.0597   -0.1799 C   0  0  0  0  0  0  0  0  0  0  0  0
    3.1667    0.4617   -1.5771 C   0  0  0  0  0  0  0  0  0  0  0  0
    3.1259    1.0124    0.9260 C   0  0  0  0  0  0  0  0  0  0  0  0
    4.6386    1.0424    1.1250 C   0  0  0  0  0  0  0  0  0  0  0  0
    4.9831    1.5285    3.4279 C   0  0  0  0  0  0  0  0  0  0  0  0
    2.6609    0.0489   -0.1852 C   0  0  0  0  0  0  0  0  0  0  0  0
    4.6919    0.4122    3.7845 O   0  0  0  0  0  0  0  0  0  0  0  0
    5.0088    1.9851    2.1664 O   0  0  0  0  0  0  0  0  0  0  0  0
    0.7807   -0.7719   -0.9371 H   0  0  0  0  0  0  0  0  0  0  0  0
    0.6668    0.9116   -0.3996 H   0  0  0  0  0  0  0  0  0  0  0  0
    0.7550   -0.3947    0.7946 H   0  0  0  0  0  0  0  0  0  0  0  0
    2.7969   -0.2277   -2.3448 H   0  0  0  0  0  0  0  0  0  0  0  0
    4.2606    0.4641   -1.6415 H   0  0  0  0  0  0  0  0  0  0  0  0
    2.8141    1.4683   -1.8375 H   0  0  0  0  0  0  0  0  0  0  0  0
    2.7754    2.0300    0.7043 H   0  0  0  0  0  0  0  0  0  0  0  0
    2.6659    0.7124    1.8749 H   0  0  0  0  0  0  0  0  0  0  0  0
    5.1638    1.4073    0.2404 H   0  0  0  0  0  0  0  0  0  0  0  0
    5.0216    0.0539    1.3938 H   0  0  0  0  0  0  0  0  0  0  0  0
    5.2810    2.3441    4.1052 H   0  0  0  0  0  0  0  0  0  0  0  0
    3.0682   -0.9478    0.0435 H   0  0  0  0  0  0  0  0  0  0  0  0
  1 11  1  0  0  0  0
  2  6  1  0  0  0  0
  3  4  1  0  0  0  0
  3 16  1  0  0  0  0
  4 18  1  0  0  0  0
  4  8  1  0  0  0  0
  5  7  2  0  0  0  0
  5 19  1  0  0  0  0
  6  1  1  0  0  0  0
  6 20  1  0  0  0  0
  6  3  1  0  0  0  0
  8  5  1  0  0  0  0
  9  1  1  0  0  0  0
 10  1  1  0  0  0  0
 12  2  1  0  0  0  0
 13  2  1  0  0  0  0
 14  2  1  0  0  0  0
 15  3  1  0  0  0  0
 17  4  1  0  0  0  0
M  END
>  <HBA>
2

>  <HBD>
0

>  <TPSA>
26.3

>  <cid>
8052

>  <dipole>
1.92

>  <excitation_energy_1>
5.808

>  <excitation_energy_2>
7.392

>  <excitation_energy_3>
7.545

>  <excitation_energy_4>
7.74

>  <homo_energy>
-7.614

>  <homo_lumo_gap>
7.856

>  <logP>
1.841

>  <lumo_energy>
0.242

>  <melting_point>
-41.79

>  <molecular_refractivity>
32.63

>  <oscillator_strength_1>
0.0013

>  <oscillator_strength_2>
0.0377

>  <oscillator_strength_3>
0.0691

>  <oscillator_strength_4>
0.0245

>  <open_babel_can_smiles>
O=COCCC(C)C

>  <mulliken_charges>
20
1   -0.442729
2   -0.448599
3   -0.271982
4   -0.059417
5   0.389036
6   -0.077205
7   -0.423029
8   -0.418496
9   0.143016
10   0.141049
11   0.146728
12   0.146239
13   0.142618
14   0.142575
15   0.139819
16   0.158587
17   0.157057
18   0.168822
19   0.135919
20   0.129992

>  <lowdin_charges>
20
1   -0.443633
2   -0.446222
3   -0.28678
4   -0.135489
5   0.086613
6   -0.118927
7   -0.256437
8   -0.18544
9   0.150693
10   0.146655
11   0.150824
12   0.152813
13   0.144972
14   0.146792
15   0.145031
16   0.156925
17   0.155133
18   0.157223
19   0.140908
20   0.138346

$$$$

