PCCDB-ID:  12307
public computational chemistry database (PCCDB) project, http://pccdb.org

 14 13  0  0  0  0  0  0  0  0999 V2000
    0.7105   -0.0975   -0.0342 C   0  0  0  0  0  0  0  0  0  0  0  0
    2.2428   -0.1159   -0.0784 C   0  0  0  0  0  0  0  0  0  0  0  0
    2.8407    0.3512    1.2422 C   0  0  0  0  0  0  0  0  0  0  0  0
    5.0093    0.6838    2.2152 N   0  0  0  0  0  0  0  0  0  0  0  0
    6.2041    0.6216    2.0510 O   0  0  0  0  0  0  0  0  0  0  0  0
    4.3790    1.0322    3.1947 O   0  0  0  0  0  0  0  0  0  0  0  0
    4.2782    0.2831    1.0754 O   0  0  0  0  0  0  0  0  0  0  0  0
    0.2944   -0.4345   -0.9888 H   0  0  0  0  0  0  0  0  0  0  0  0
    0.3267    0.9112    0.1589 H   0  0  0  0  0  0  0  0  0  0  0  0
    0.3238   -0.7590    0.7499 H   0  0  0  0  0  0  0  0  0  0  0  0
    2.6068    0.5321   -0.8842 H   0  0  0  0  0  0  0  0  0  0  0  0
    2.6040   -1.1280   -0.2953 H   0  0  0  0  0  0  0  0  0  0  0  0
    2.5429   -0.2921    2.0765 H   0  0  0  0  0  0  0  0  0  0  0  0
    2.5533    1.3803    1.4806 H   0  0  0  0  0  0  0  0  0  0  0  0
  1  9  1  0  0  0  0
  1 10  1  0  0  0  0
  2  1  1  0  0  0  0
  2  3  1  0  0  0  0
  3 14  1  0  0  0  0
  3 13  1  0  0  0  0
  4  6  2  0  0  0  0
  5  4  2  0  0  0  0
  7  3  1  0  0  0  0
  7  4  1  0  0  0  0
  8  1  1  0  0  0  0
 11  2  1  0  0  0  0
 12  2  1  0  0  0  0
M  END
>  <HBA>
0

>  <HBD>
0

>  <TPSA>
55.05

>  <cid>
12307

>  <dipole>
3.58

>  <excitation_energy_1>
4.706

>  <excitation_energy_2>
5.621

>  <excitation_energy_3>
6.177

>  <excitation_energy_4>
7.122

>  <homo_energy>
-8.449

>  <homo_lumo_gap>
6.778

>  <logP>
1.128

>  <lumo_energy>
-1.671

>  <melting_point>
-0.42

>  <molecular_refractivity>
25.73

>  <oscillator_strength_1>
0.0

>  <oscillator_strength_2>
0.0004

>  <oscillator_strength_3>
0.0706

>  <oscillator_strength_4>
0.0095

>  <open_babel_can_smiles>
CCCON(=O)=O

>  <mulliken_charges>
14
1   -0.454465
2   -0.280762
3   -0.026664
4   0.750967
5   -0.357613
6   -0.372107
7   -0.384383
8   0.160949
9   0.153079
10   0.153115
11   0.161612
12   0.161719
13   0.167319
14   0.167233

>  <lowdin_charges>
14
1   -0.443345
2   -0.278213
3   -0.134891
4   0.37025
5   -0.19499
6   -0.223076
7   -0.184343
8   0.16061
9   0.151899
10   0.1535
11   0.157228
12   0.155624
13   0.155793
14   0.153954

$$$$

