PCCDB-ID:  7447
public computational chemistry database (PCCDB) project, http://pccdb.org

 20 20  0  0  0  0  0  0  0  0999 V2000
    2.1207   -1.1082    0.3908 C   0  0  0  0  0  0  0  0  0  0  0  0
    4.0815   -0.8150   -3.3599 C   0  0  0  0  0  0  0  0  0  0  0  0
    3.4446   -0.9516   -2.1252 C   0  0  0  0  0  0  0  0  0  0  0  0
    3.9254    1.6107   -3.1428 C   0  0  0  0  0  0  0  0  0  0  0  0
    4.3085    0.4662   -3.8466 C   0  0  0  0  0  0  0  0  0  0  0  0
    3.2947    1.4832   -1.9074 C   0  0  0  0  0  0  0  0  0  0  0  0
    3.0522    0.1758   -1.4042 C   0  0  0  0  0  0  0  0  0  0  0  0
    2.9459    2.5804   -1.1304 N   0  0  0  0  0  0  0  0  0  0  0  0
    4.9675    0.6287   -5.1437 N   0  0  0  0  0  0  0  0  0  0  0  0
    5.3108   -0.3892   -5.7487 O   0  0  0  0  0  0  0  0  0  0  0  0
    5.1422    1.7758   -5.5621 O   0  0  0  0  0  0  0  0  0  0  0  0
    2.4135    0.1521   -0.1989 O   0  0  0  0  0  0  0  0  0  0  0  0
    1.6177   -0.8874    1.3334 H   0  0  0  0  0  0  0  0  0  0  0  0
    3.0383   -1.6751    0.5903 H   0  0  0  0  0  0  0  0  0  0  0  0
    1.4562   -1.7028   -0.2486 H   0  0  0  0  0  0  0  0  0  0  0  0
    4.3933   -1.6766   -3.9353 H   0  0  0  0  0  0  0  0  0  0  0  0
    3.2548   -1.9445   -1.7347 H   0  0  0  0  0  0  0  0  0  0  0  0
    4.1316    2.5871   -3.5648 H   0  0  0  0  0  0  0  0  0  0  0  0
    2.7892    3.4412   -1.6377 H   0  0  0  0  0  0  0  0  0  0  0  0
    2.2389    2.3932   -0.4316 H   0  0  0  0  0  0  0  0  0  0  0  0
  1 14  1  0  0  0  0
  1 13  1  0  0  0  0
  2  3  1  0  0  0  0
  3 17  1  0  0  0  0
  3  7  2  0  0  0  0
  4  6  2  0  0  0  0
  5  2  2  0  0  0  0
  5  4  1  0  0  0  0
  6  7  1  0  0  0  0
  6  8  1  0  0  0  0
  7 12  1  0  0  0  0
  8 20  1  0  0  0  0
  9  5  1  0  0  0  0
 10  9  2  0  0  0  0
 11  9  2  0  0  0  0
 12  1  1  0  0  0  0
 15  1  1  0  0  0  0
 16  2  1  0  0  0  0
 18  4  1  0  0  0  0
 19  8  1  0  0  0  0
M  END
>  <HBA>
2

>  <HBD>
1

>  <TPSA>
81.07

>  <cid>
7447

>  <dipole>
6.76

>  <excitation_energy_1>
3.164

>  <excitation_energy_2>
3.763

>  <excitation_energy_3>
4.232

>  <excitation_energy_4>
4.328

>  <homo_energy>
-5.788

>  <homo_lumo_gap>
3.799

>  <logP>
2.29

>  <lumo_energy>
-1.989

>  <melting_point>
98.38

>  <molecular_refractivity>
46.16

>  <oscillator_strength_1>
0.0692

>  <oscillator_strength_2>
0.0

>  <oscillator_strength_3>
0.1541

>  <oscillator_strength_4>
0.0004

>  <open_babel_can_smiles>
COc1ccc(cc1N)N(=O)=O

>  <mulliken_charges>
20
1   -0.220222
2   -0.172
3   -0.210452
4   -0.223666
5   0.277445
6   0.274503
7   0.373918
8   -0.793227
9   0.37084
10   -0.40524
11   -0.405727
12   -0.527093
13   0.176582
14   0.164067
15   0.161287
16   0.1751
17   0.144705
18   0.170005
19   0.328166
20   0.341006

>  <lowdin_charges>
20
1   -0.277705
2   -0.157873
3   -0.201105
4   -0.185259
5   -0.005565
6   0.043374
7   0.088747
8   -0.478624
9   0.310431
10   -0.258041
11   -0.258749
12   -0.199042
13   0.166662
14   0.152978
15   0.15221
16   0.186345
17   0.168776
18   0.183156
19   0.282163
20   0.287121

$$$$

