PCCDB-ID:  11818
public computational chemistry database (PCCDB) project, http://pccdb.org

 22 23  0  0  0  0  0  0  0  0999 V2000
   -2.4921    0.7773    0.0448 C   0  0  0  0  0  0  0  0  0  0  0  0
   -2.5248   -0.6355    0.0392 C   0  0  0  0  0  0  0  0  0  0  0  0
   -1.2821    1.4283    0.0267 C   0  0  0  0  0  0  0  0  0  0  0  0
   -1.3652   -1.3819    0.0295 C   0  0  0  0  0  0  0  0  0  0  0  0
    1.1721    1.3842   -0.0305 C   0  0  0  0  0  0  0  0  0  0  0  0
    2.3677   -0.7296   -0.0879 C   0  0  0  0  0  0  0  0  0  0  0  0
   -0.0638    0.6967    0.0059 C   0  0  0  0  0  0  0  0  0  0  0  0
    2.3478    0.6750   -0.0780 C   0  0  0  0  0  0  0  0  0  0  0  0
   -0.0963   -0.7441    0.0162 C   0  0  0  0  0  0  0  0  0  0  0  0
    1.1739   -1.4090   -0.0268 C   0  0  0  0  0  0  0  0  0  0  0  0
    3.6271    1.4009   -0.1194 N   0  0  0  0  0  0  0  0  0  0  0  0
    1.2924   -2.8819   -0.0002 N   0  0  0  0  0  0  0  0  0  0  0  0
    3.5838    2.6303   -0.1116 O   0  0  0  0  0  0  0  0  0  0  0  0
    4.6569    0.7306   -0.1594 O   0  0  0  0  0  0  0  0  0  0  0  0
    2.2952   -3.3756   -0.5112 O   0  0  0  0  0  0  0  0  0  0  0  0
    0.4024   -3.5292    0.5522 O   0  0  0  0  0  0  0  0  0  0  0  0
   -3.4195    1.3419    0.0578 H   0  0  0  0  0  0  0  0  0  0  0  0
   -3.4826   -1.1480    0.0466 H   0  0  0  0  0  0  0  0  0  0  0  0
   -1.2335    2.5136    0.0217 H   0  0  0  0  0  0  0  0  0  0  0  0
   -1.4167   -2.4606    0.0363 H   0  0  0  0  0  0  0  0  0  0  0  0
    1.1997    2.4678   -0.0256 H   0  0  0  0  0  0  0  0  0  0  0  0
    3.3065   -1.2636   -0.1372 H   0  0  0  0  0  0  0  0  0  0  0  0
  1 17  1  0  0  0  0
  2  1  1  0  0  0  0
  2 18  1  0  0  0  0
  3  1  2  0  0  0  0
  4 20  1  0  0  0  0
  4  2  2  0  0  0  0
  5 21  1  0  0  0  0
  5  7  2  0  0  0  0
  6  8  2  0  0  0  0
  6 10  1  0  0  0  0
  7  9  1  0  0  0  0
  7  3  1  0  0  0  0
  8  5  1  0  0  0  0
  9  4  1  0  0  0  0
 10 12  1  0  0  0  0
 10  9  2  0  0  0  0
 11 13  2  0  0  0  0
 11  8  1  0  0  0  0
 12 16  2  0  0  0  0
 14 11  2  0  0  0  0
 15 12  2  0  0  0  0
 19  3  1  0  0  0  0
 22  6  1  0  0  0  0
M  END
>  <HBA>
0

>  <HBD>
0

>  <TPSA>
91.64

>  <cid>
11818

>  <dipole>
5.85

>  <excitation_energy_1>
3.357

>  <excitation_energy_2>
3.603

>  <excitation_energy_3>
3.704

>  <excitation_energy_4>
3.724

>  <homo_energy>
-7.097

>  <homo_lumo_gap>
3.965

>  <logP>
3.703

>  <lumo_energy>
-3.132

>  <melting_point>
127.25

>  <molecular_refractivity>
61.59

>  <oscillator_strength_1>
0.0758

>  <oscillator_strength_2>
0.0244

>  <oscillator_strength_3>
0.004

>  <oscillator_strength_4>
0.0

>  <open_babel_can_smiles>
O=N(=O)c1cc(cc2c1cccc2)N(=O)=O

>  <mulliken_charges>
22
1   -0.128578
2   -0.128454
3   -0.181424
4   -0.176083
5   -0.20051
6   -0.177288
7   0.105826
8   0.270024
9   0.138532
10   0.194147
11   0.383807
12   0.360449
13   -0.392204
14   -0.382653
15   -0.371255
16   -0.384298
17   0.152189
18   0.15442
19   0.154044
20   0.188766
21   0.195501
22   0.22504

>  <lowdin_charges>
22
1   -0.144814
2   -0.130753
3   -0.139111
4   -0.150377
5   -0.105552
6   -0.124102
7   0.004464
8   -0.002244
9   0.012896
10   0.011052
11   0.306644
12   0.310142
13   -0.239381
14   -0.23403
15   -0.232683
16   -0.240136
17   0.170017
18   0.170632
19   0.167649
20   0.185598
21   0.192036
22   0.212053

$$$$

