PCCDB-ID:  37246
public computational chemistry database (PCCDB) project, http://pccdb.org

 24 24  0  0  0  0  0  0  0  0999 V2000
    0.9824    0.1144    0.0968 C   0  0  0  0  0  0  0  0  0  0  0  0
    4.9104   -1.6424   -1.4149 C   0  0  0  0  0  0  0  0  0  0  0  0
    5.3409   -2.2885    0.9812 C   0  0  0  0  0  0  0  0  0  0  0  0
    5.3805    0.1467    0.3186 C   0  0  0  0  0  0  0  0  0  0  0  0
    2.4888    0.1255    0.0277 C   0  0  0  0  0  0  0  0  0  0  0  0
    4.6734    1.3121   -0.3402 C   0  0  0  0  0  0  0  0  0  0  0  0
    3.1766    1.2489   -0.3168 C   0  0  0  0  0  0  0  0  0  0  0  0
    3.2005   -1.1429    0.3205 C   0  0  0  0  0  0  0  0  0  0  0  0
    4.7173   -1.2245    0.0648 C   0  0  0  0  0  0  0  0  0  0  0  0
    5.2549    2.2677   -0.8176 O   0  0  0  0  0  0  0  0  0  0  0  0
    2.5966    2.4159   -0.6632 O   0  0  0  0  0  0  0  0  0  0  0  0
    2.5776   -2.1295    0.6953 O   0  0  0  0  0  0  0  0  0  0  0  0
    0.5966    0.8976    0.7639 H   0  0  0  0  0  0  0  0  0  0  0  0
    0.6502   -0.8519    0.4805 H   0  0  0  0  0  0  0  0  0  0  0  0
    0.5232    0.2578   -0.8920 H   0  0  0  0  0  0  0  0  0  0  0  0
    5.9783   -1.7574   -1.6333 H   0  0  0  0  0  0  0  0  0  0  0  0
    4.5009   -0.9010   -2.1097 H   0  0  0  0  0  0  0  0  0  0  0  0
    4.4159   -2.6000   -1.6077 H   0  0  0  0  0  0  0  0  0  0  0  0
    6.4153   -2.3745    0.7825 H   0  0  0  0  0  0  0  0  0  0  0  0
    4.8727   -3.2615    0.8160 H   0  0  0  0  0  0  0  0  0  0  0  0
    5.2074   -2.0307    2.0377 H   0  0  0  0  0  0  0  0  0  0  0  0
    5.3862    0.3492    1.4003 H   0  0  0  0  0  0  0  0  0  0  0  0
    6.4232    0.1502   -0.0141 H   0  0  0  0  0  0  0  0  0  0  0  0
    1.6314    2.3050   -0.6657 H   0  0  0  0  0  0  0  0  0  0  0  0
  1 14  1  0  0  0  0
  1 13  1  0  0  0  0
  2  9  1  0  0  0  0
  3 21  1  0  0  0  0
  4 22  1  0  0  0  0
  5  1  1  0  0  0  0
  5  8  1  0  0  0  0
  6  7  1  0  0  0  0
  6  4  1  0  0  0  0
  7  5  2  0  0  0  0
  8 12  2  0  0  0  0
  9  4  1  0  0  0  0
  9  8  1  0  0  0  0
  9  3  1  0  0  0  0
 10  6  2  0  0  0  0
 11  7  1  0  0  0  0
 15  1  1  0  0  0  0
 16  2  1  0  0  0  0
 17  2  1  0  0  0  0
 18  2  1  0  0  0  0
 19  3  1  0  0  0  0
 20  3  1  0  0  0  0
 23  4  1  0  0  0  0
 24 11  1  0  0  0  0
M  END
>  <HBA>
3

>  <HBD>
1

>  <TPSA>
54.37

>  <cid>
37246

>  <dipole>
1.39

>  <excitation_energy_1>
3.312

>  <excitation_energy_2>
3.456

>  <excitation_energy_3>
4.488

>  <excitation_energy_4>
5.415

>  <homo_energy>
-6.833

>  <homo_lumo_gap>
4.599

>  <logP>
1.387

>  <lumo_energy>
-2.234

>  <melting_point>
83.41

>  <molecular_refractivity>
44.5

>  <oscillator_strength_1>
0.0001

>  <oscillator_strength_2>
0.0001

>  <oscillator_strength_3>
0.2277

>  <oscillator_strength_4>
0.0011

>  <open_babel_can_smiles>
O=C1CC(C)(C)C(=O)C(=C1O)C

>  <mulliken_charges>
24
1   -0.578382
2   -0.45144
3   -0.443871
4   -0.369779
5   0.054218
6   0.423387
7   0.235411
8   0.418754
9   -0.013368
10   -0.436411
11   -0.592141
12   -0.488828
13   0.162258
14   0.212084
15   0.165591
16   0.156412
17   0.151594
18   0.166848
19   0.140366
20   0.172311
21   0.146268
22   0.17432
23   0.170274
24   0.424123

>  <lowdin_charges>
24
1   -0.460136
2   -0.438277
3   -0.434271
4   -0.297537
5   -0.088946
6   0.144077
7   0.07324
8   0.149126
9   -0.013451
10   -0.206357
11   -0.324833
12   -0.25188
13   0.159621
14   0.190506
15   0.160461
16   0.15549
17   0.154295
18   0.161948
19   0.148083
20   0.165915
21   0.151139
22   0.170224
23   0.167696
24   0.363868

$$$$

