PCCDB-ID:  66038
public computational chemistry database (PCCDB) project, http://pccdb.org

 18 18  0  0  0  0  0  0  0  0999 V2000
    1.2509   -0.4205   -0.6698 C   0  0  0  0  0  0  0  0  0  0  0  0
    3.2916    3.9234   -0.7690 C   0  0  0  0  0  0  0  0  0  0  0  0
    4.2223    2.7589   -2.6707 C   0  0  0  0  0  0  0  0  0  0  0  0
    2.9923    2.7024   -0.1733 C   0  0  0  0  0  0  0  0  0  0  0  0
    3.9205    1.5421   -2.0681 C   0  0  0  0  0  0  0  0  0  0  0  0
    3.9115    3.9716   -2.0302 C   0  0  0  0  0  0  0  0  0  0  0  0
    3.2945    1.4929   -0.8146 C   0  0  0  0  0  0  0  0  0  0  0  0
    4.2671    5.1920   -2.6035 N   0  0  0  0  0  0  0  0  0  0  0  0
    2.9371   -0.0777   -0.0277 S   0  0  0  0  0  0  0  0  0  0  0  0
    0.9380   -1.3768   -0.2403 H   0  0  0  0  0  0  0  0  0  0  0  0
    1.2549   -0.5024   -1.7600 H   0  0  0  0  0  0  0  0  0  0  0  0
    0.5475    0.3575   -0.3613 H   0  0  0  0  0  0  0  0  0  0  0  0
    3.0529    4.8511   -0.2533 H   0  0  0  0  0  0  0  0  0  0  0  0
    4.7117    2.7763   -3.6423 H   0  0  0  0  0  0  0  0  0  0  0  0
    2.5192    2.6837    0.8043 H   0  0  0  0  0  0  0  0  0  0  0  0
    4.1746    0.6150   -2.5738 H   0  0  0  0  0  0  0  0  0  0  0  0
    3.7300    5.9908   -2.2907 H   0  0  0  0  0  0  0  0  0  0  0  0
    4.3752    5.1830   -3.6098 H   0  0  0  0  0  0  0  0  0  0  0  0
  1 12  1  0  0  0  0
  1 10  1  0  0  0  0
  1  9  1  0  0  0  0
  2 13  1  0  0  0  0
  2  4  1  0  0  0  0
  3  5  2  0  0  0  0
  3  6  1  0  0  0  0
  4 15  1  0  0  0  0
  5  7  1  0  0  0  0
  6  2  2  0  0  0  0
  7  4  2  0  0  0  0
  7  9  1  0  0  0  0
  8 17  1  0  0  0  0
  8  6  1  0  0  0  0
 11  1  1  0  0  0  0
 14  3  1  0  0  0  0
 16  5  1  0  0  0  0
 18  8  1  0  0  0  0
M  END
>  <HBA>
2

>  <HBD>
1

>  <TPSA>
51.32

>  <cid>
66038

>  <dipole>
3.78

>  <excitation_energy_1>
4.666

>  <excitation_energy_2>
4.7

>  <excitation_energy_3>
4.8

>  <excitation_energy_4>
4.809

>  <homo_energy>
-5.578

>  <homo_lumo_gap>
5.603

>  <logP>
2.572

>  <lumo_energy>
0.024

>  <melting_point>
66.29

>  <molecular_refractivity>
42.57

>  <oscillator_strength_1>
0.0191

>  <oscillator_strength_2>
0.0031

>  <oscillator_strength_3>
0.016

>  <oscillator_strength_4>
0.0029

>  <open_babel_can_smiles>
CSc1ccc(cc1)N

>  <mulliken_charges>
18
1   -0.57247
2   -0.162414
3   -0.162475
4   -0.147579
5   -0.147464
6   0.311529
7   -0.101101
8   -0.786612
9   0.065694
10   0.176164
11   0.177287
12   0.177403
13   0.119969
14   0.119977
15   0.143567
16   0.143416
17   0.322559
18   0.32255

>  <lowdin_charges>
18
1   -0.542756
2   -0.202288
3   -0.199771
4   -0.14047
5   -0.142285
6   0.066425
7   -0.160103
8   -0.481978
9   0.117137
10   0.17121
11   0.159886
12   0.16274
13   0.154608
14   0.153687
15   0.165147
16   0.166127
17   0.277796
18   0.274887

$$$$

