PCCDB-ID:  20078
public computational chemistry database (PCCDB) project, http://pccdb.org

 17 17  0  0  0  0  0  0  0  0999 V2000
    2.1685    1.5092   -0.0885 C   0  0  0  0  0  0  0  0  0  0  0  0
    2.8805    0.1761    0.1616 C   0  0  0  0  0  0  0  0  0  0  0  0
    6.0089   -1.6082   -2.9820 C   0  0  0  0  0  0  0  0  0  0  0  0
    6.7493   -0.7953   -1.0257 C   0  0  0  0  0  0  0  0  0  0  0  0
    4.4630   -0.6982   -1.3556 C   0  0  0  0  0  0  0  0  0  0  0  0
    7.0571   -1.3825   -2.2392 N   0  0  0  0  0  0  0  0  0  0  0  0
    3.2401   -0.4517   -1.1035 N   0  0  0  0  0  0  0  0  0  0  0  0
    4.7524   -1.3029   -2.6127 N   0  0  0  0  0  0  0  0  0  0  0  0
    5.5860   -0.4578   -0.5596 N   0  0  0  0  0  0  0  0  0  0  0  0
    1.8212    1.9442    0.8559 H   0  0  0  0  0  0  0  0  0  0  0  0
    1.3040    1.3690   -0.7462 H   0  0  0  0  0  0  0  0  0  0  0  0
    2.8443    2.2270   -0.5670 H   0  0  0  0  0  0  0  0  0  0  0  0
    2.1900   -0.5036    0.6804 H   0  0  0  0  0  0  0  0  0  0  0  0
    3.7485    0.3267    0.8154 H   0  0  0  0  0  0  0  0  0  0  0  0
    6.1281   -2.0694   -3.9613 H   0  0  0  0  0  0  0  0  0  0  0  0
    7.6117   -0.5971   -0.3898 H   0  0  0  0  0  0  0  0  0  0  0  0
    3.9550   -1.4884   -3.2108 H   0  0  0  0  0  0  0  0  0  0  0  0
  1  2  1  0  0  0  0
  1 10  1  0  0  0  0
  2 13  1  0  0  0  0
  2 14  1  0  0  0  0
  3  8  1  0  0  0  0
  3  6  1  0  0  0  0
  4  9  1  0  0  0  0
  4 16  1  0  0  0  0
  5  7  1  0  0  0  0
  5  9  2  0  0  0  0
  6  4  2  0  0  0  0
  7  2  1  0  0  0  0
  8  5  1  0  0  0  0
 11  1  1  0  0  0  0
 12  1  1  0  0  0  0
 15  3  1  0  0  0  0
 17  8  1  0  0  0  0
M  RAD  1   7   2
M  END
>  <HBA>
4

>  <HBD>
1

>  <TPSA>
50.7

>  <cid>
20078

>  <dipole>
2.39

>  <excitation_energy_1>
3.67

>  <excitation_energy_2>
4.038

>  <excitation_energy_3>
4.508

>  <excitation_energy_4>
5.306

>  <homo_energy>
-6.136

>  <homo_lumo_gap>
4.542

>  <logP>
0.376

>  <lumo_energy>
-1.595

>  <melting_point>
83.72

>  <molecular_refractivity>
33.94

>  <oscillator_strength_1>
0.0192

>  <oscillator_strength_2>
0.0024

>  <oscillator_strength_3>
0.0003

>  <oscillator_strength_4>
0.0004

>  <open_babel_can_smiles>
CC[N]C1=NC=NCN1

>  <mulliken_charges>
17
1   -0.433853
2   -0.143098
3   0.26856
4   0.170658
5   0.642897
6   -0.423199
7   -0.495439
8   -0.579171
9   -0.425266
10   0.136849
11   0.149261
12   0.144336
13   0.137888
14   0.155777
15   0.178332
16   0.162899
17   0.352569

>  <lowdin_charges>
17
1   -0.4474
2   -0.199001
3   0.012568
4   -0.009441
5   0.107212
6   -0.223349
7   -0.241193
8   -0.193703
9   -0.189088
10   0.148327
11   0.151474
12   0.149594
13   0.144323
14   0.144926
15   0.172062
16   0.165937
17   0.306751

$$$$

