PCCDB-ID:  51132
public computational chemistry database (PCCDB) project, http://pccdb.org

 21 20  0  0  1  0  0  0  0  0999 V2000
    0.6756    0.1522    0.0668 C   0  0  0  0  0  0  0  0  0  0  0  0
    3.5313    2.5719    3.0764 C   0  0  0  0  0  0  0  0  0  0  0  0
    2.1190   -0.9582   -2.4649 C   0  0  0  0  0  0  0  0  0  0  0  0
    2.9611   -0.4568    1.0171 C   0  0  0  0  0  0  0  0  0  0  0  0
    2.1532   -0.1007   -0.2348 C   0  0  1  0  0  0  0  0  0  0  0  0
    3.7393    1.5997    1.9385 C   0  0  0  0  0  0  0  0  0  0  0  0
    4.5622    1.7151    1.0577 O   0  0  0  0  0  0  0  0  0  0  0  0
    2.3389   -1.2229   -1.0940 O   0  0  0  0  0  0  0  0  0  0  0  0
    2.8656    0.5652    2.0306 O   0  0  0  0  0  0  0  0  0  0  0  0
    0.5634    0.9635    0.7930 H   0  0  0  0  0  0  0  0  0  0  0  0
    0.2173   -0.7526    0.4819 H   0  0  0  0  0  0  0  0  0  0  0  0
    0.1257    0.4313   -0.8381 H   0  0  0  0  0  0  0  0  0  0  0  0
    4.2994    3.3449    3.0377 H   0  0  0  0  0  0  0  0  0  0  0  0
    3.5695    2.0487    4.0368 H   0  0  0  0  0  0  0  0  0  0  0  0
    2.5412    3.0336    2.9954 H   0  0  0  0  0  0  0  0  0  0  0  0
    2.3669   -1.8747   -3.0070 H   0  0  0  0  0  0  0  0  0  0  0  0
    2.7647   -0.1433   -2.8280 H   0  0  0  0  0  0  0  0  0  0  0  0
    1.0726   -0.6962   -2.6811 H   0  0  0  0  0  0  0  0  0  0  0  0
    4.0068   -0.6145    0.7470 H   0  0  0  0  0  0  0  0  0  0  0  0
    2.5563   -1.3604    1.4797 H   0  0  0  0  0  0  0  0  0  0  0  0
    2.6045    0.7932   -0.6922 H   0  0  0  0  0  0  0  0  0  0  0  0
  1 11  1  0  0  0  0
  1 10  1  0  0  0  0
  2 14  1  0  0  0  0
  3  8  1  0  0  0  0
  4 20  1  0  0  0  0
  4  9  1  0  0  0  0
  5 21  1  6  0  0  0
  5  1  1  0  0  0  0
  5  4  1  0  0  0  0
  6  9  1  0  0  0  0
  6  2  1  0  0  0  0
  7  6  2  0  0  0  0
  8  5  1  0  0  0  0
 12  1  1  0  0  0  0
 13  2  1  0  0  0  0
 15  2  1  0  0  0  0
 16  3  1  0  0  0  0
 17  3  1  0  0  0  0
 18  3  1  0  0  0  0
 19  4  1  0  0  0  0
M  END
>  <HBA>
3

>  <HBD>
0

>  <TPSA>
35.53

>  <cid>
51132

>  <dipole>
1.81

>  <excitation_energy_1>
5.796

>  <excitation_energy_2>
6.442

>  <excitation_energy_3>
6.615

>  <excitation_energy_4>
6.943

>  <homo_energy>
-6.939

>  <homo_lumo_gap>
7.252

>  <logP>
0.584

>  <lumo_energy>
0.313

>  <melting_point>
-23.07

>  <molecular_refractivity>
33.33

>  <oscillator_strength_1>
0.0011

>  <oscillator_strength_2>
0.0099

>  <oscillator_strength_3>
0.0027

>  <oscillator_strength_4>
0.0181

>  <open_babel_can_smiles>
CO[C@H](COC(=O)C)C

>  <mulliken_charges>
21
1   -0.457785
2   -0.523741
3   -0.197362
4   -0.057125
5   0.131586
6   0.599371
7   -0.464327
8   -0.477101
9   -0.455914
10   0.153367
11   0.152347
12   0.147891
13   0.183351
14   0.182445
15   0.181591
16   0.159606
17   0.136983
18   0.133123
19   0.177729
20   0.157887
21   0.136079

>  <lowdin_charges>
21
1   -0.462453
2   -0.464529
3   -0.278228
4   -0.138543
5   -0.007834
6   0.200325
7   -0.263175
8   -0.272187
9   -0.19772
10   0.158942
11   0.155444
12   0.153489
13   0.176664
14   0.177595
15   0.177485
16   0.156693
17   0.136367
18   0.131142
19   0.164134
20   0.15798
21   0.13841

$$$$

