PCCDB-ID:  69288
public computational chemistry database (PCCDB) project, http://pccdb.org

 30 31  0  0  0  0  0  0  0  0999 V2000
    1.2112    3.7551   -1.8161 C   0  0  0  0  0  0  0  0  0  0  0  0
    5.6792   -6.8795    0.4088 C   0  0  0  0  0  0  0  0  0  0  0  0
    2.5079    3.4673   -1.3880 C   0  0  0  0  0  0  0  0  0  0  0  0
    0.3090    2.7086   -2.0188 C   0  0  0  0  0  0  0  0  0  0  0  0
    4.3841   -6.5917   -0.0244 C   0  0  0  0  0  0  0  0  0  0  0  0
    6.5805   -5.8329    0.6152 C   0  0  0  0  0  0  0  0  0  0  0  0
    2.9176    2.1537   -1.1600 C   0  0  0  0  0  0  0  0  0  0  0  0
    0.7008    1.3918   -1.7960 C   0  0  0  0  0  0  0  0  0  0  0  0
    3.9756   -5.2782   -0.2550 C   0  0  0  0  0  0  0  0  0  0  0  0
    6.1897   -4.5162    0.3903 C   0  0  0  0  0  0  0  0  0  0  0  0
    2.0059    1.1077   -1.3660 C   0  0  0  0  0  0  0  0  0  0  0  0
    4.8867   -4.2322   -0.0459 C   0  0  0  0  0  0  0  0  0  0  0  0
    3.5065   -0.7930   -0.7489 C   0  0  0  0  0  0  0  0  0  0  0  0
    3.3886   -2.3320   -0.6705 C   0  0  0  0  0  0  0  0  0  0  0  0
    2.3387   -0.2456   -1.1591 N   0  0  0  0  0  0  0  0  0  0  0  0
    4.5544   -2.8789   -0.2540 N   0  0  0  0  0  0  0  0  0  0  0  0
    4.5539   -0.2157   -0.4612 O   0  0  0  0  0  0  0  0  0  0  0  0
    2.3427   -2.9098   -0.9630 O   0  0  0  0  0  0  0  0  0  0  0  0
    0.9057    4.7828   -1.9903 H   0  0  0  0  0  0  0  0  0  0  0  0
    5.9840   -7.9072    0.5841 H   0  0  0  0  0  0  0  0  0  0  0  0
    3.2180    4.2740   -1.2273 H   0  0  0  0  0  0  0  0  0  0  0  0
   -0.7045    2.9150   -2.3515 H   0  0  0  0  0  0  0  0  0  0  0  0
    3.6749   -7.3985   -0.1883 H   0  0  0  0  0  0  0  0  0  0  0  0
    7.5923   -6.0392    0.9528 H   0  0  0  0  0  0  0  0  0  0  0  0
    3.9222    1.9297   -0.8279 H   0  0  0  0  0  0  0  0  0  0  0  0
   -0.0031    0.5777   -1.9538 H   0  0  0  0  0  0  0  0  0  0  0  0
    2.9723   -5.0542   -0.5909 H   0  0  0  0  0  0  0  0  0  0  0  0
    6.8925   -3.7019    0.5523 H   0  0  0  0  0  0  0  0  0  0  0  0
    1.6202   -0.9443   -1.3346 H   0  0  0  0  0  0  0  0  0  0  0  0
    5.2728   -2.1802   -0.0781 H   0  0  0  0  0  0  0  0  0  0  0  0
  1  3  1  0  0  0  0
  2 20  1  0  0  0  0
  2  6  1  0  0  0  0
  3 21  1  0  0  0  0
  3  7  2  0  0  0  0
  4  1  2  0  0  0  0
  4  8  1  0  0  0  0
  5  2  2  0  0  0  0
  6 24  1  0  0  0  0
  7 25  1  0  0  0  0
  8 11  2  0  0  0  0
  9 12  2  0  0  0  0
  9  5  1  0  0  0  0
 10 28  1  0  0  0  0
 10  6  2  0  0  0  0
 11  7  1  0  0  0  0
 11 15  1  0  0  0  0
 12 10  1  0  0  0  0
 13 14  1  0  0  0  0
 13 17  2  0  0  0  0
 14 16  1  0  0  0  0
 15 13  1  0  0  0  0
 16 30  1  0  0  0  0
 16 12  1  0  0  0  0
 18 14  2  0  0  0  0
 19  1  1  0  0  0  0
 22  4  1  0  0  0  0
 23  5  1  0  0  0  0
 26  8  1  0  0  0  0
 27  9  1  0  0  0  0
 29 15  1  0  0  0  0
M  END
>  <HBA>
4

>  <HBD>
2

>  <TPSA>
58.2

>  <cid>
69288

>  <dipole>
0.01

>  <excitation_energy_1>
3.906

>  <excitation_energy_2>
4.072

>  <excitation_energy_3>
4.226

>  <excitation_energy_4>
4.622

>  <homo_energy>
-6.212

>  <homo_lumo_gap>
4.601

>  <logP>
2.41

>  <lumo_energy>
-1.611

>  <melting_point>
141.1

>  <molecular_refractivity>
69.78

>  <oscillator_strength_1>
0.0001

>  <oscillator_strength_2>
0.6462

>  <oscillator_strength_3>
0.0

>  <oscillator_strength_4>
0.0

>  <open_babel_can_smiles>
O=C(C(=O)Nc1ccccc1)Nc1ccccc1

>  <mulliken_charges>
30
1   -0.124147
2   -0.124146
3   -0.145218
4   -0.134279
5   -0.145222
6   -0.134284
7   -0.160459
8   -0.190426
9   -0.160466
10   -0.190416
11   0.358442
12   0.358419
13   0.568033
14   0.567955
15   -0.724401
16   -0.724366
17   -0.535022
18   -0.535021
19   0.131877
20   0.131873
21   0.136753
22   0.135356
23   0.136751
24   0.135354
25   0.183484
26   0.134439
27   0.183513
28   0.134435
29   0.365594
30   0.365593

>  <lowdin_charges>
30
1   -0.163514
2   -0.163517
3   -0.146551
4   -0.146241
5   -0.146556
6   -0.146259
7   -0.176495
8   -0.182774
9   -0.176511
10   -0.182779
11   0.058085
12   0.058079
13   0.130567
14   0.130574
15   -0.203288
16   -0.203288
17   -0.303073
18   -0.303083
19   0.15878
20   0.158777
21   0.162316
22   0.160208
23   0.162317
24   0.160227
25   0.184968
26   0.160146
27   0.184995
28   0.160146
29   0.30687
30   0.306874

$$$$

