PCCDB-ID:  25813
public computational chemistry database (PCCDB) project, http://pccdb.org

 25 26  0  0  0  0  0  0  0  0999 V2000
   -1.9224   -3.6489   -0.0178 C   0  0  0  0  0  0  0  0  0  0  0  0
   -2.3670   -2.5931    0.8156 C   0  0  0  0  0  0  0  0  0  0  0  0
   -0.6891   -3.6006   -0.6473 C   0  0  0  0  0  0  0  0  0  0  0  0
   -1.5965   -1.4624    1.0445 C   0  0  0  0  0  0  0  0  0  0  0  0
    0.8234    0.7582    1.0511 C   0  0  0  0  0  0  0  0  0  0  0  0
    1.4546    0.5694    2.4312 C   0  0  0  0  0  0  0  0  0  0  0  0
    0.1048   -2.4635   -0.4273 C   0  0  0  0  0  0  0  0  0  0  0  0
   -0.3491   -1.4184    0.4030 C   0  0  0  0  0  0  0  0  0  0  0  0
    2.0606    1.9607    4.2307 C   0  0  0  0  0  0  0  0  0  0  0  0
    2.4695    0.9412    4.8713 N   0  0  0  0  0  0  0  0  0  0  0  0
    1.3538   -2.1314   -0.9111 N   0  0  0  0  0  0  0  0  0  0  0  0
    1.6814   -0.9747   -0.4388 N   0  0  0  0  0  0  0  0  0  0  0  0
    0.6706   -0.5070    0.3581 N   0  0  0  0  0  0  0  0  0  0  0  0
    2.0537    3.2730    4.5808 O   0  0  0  0  0  0  0  0  0  0  0  0
    1.5248    1.8812    3.0038 O   0  0  0  0  0  0  0  0  0  0  0  0
   -2.5669   -4.5113   -0.1609 H   0  0  0  0  0  0  0  0  0  0  0  0
   -3.3409   -2.6734    1.2904 H   0  0  0  0  0  0  0  0  0  0  0  0
   -0.3373   -4.4024   -1.2884 H   0  0  0  0  0  0  0  0  0  0  0  0
   -1.9460   -0.6601    1.6873 H   0  0  0  0  0  0  0  0  0  0  0  0
    1.4543    1.3990    0.4311 H   0  0  0  0  0  0  0  0  0  0  0  0
   -0.1593    1.2307    1.1430 H   0  0  0  0  0  0  0  0  0  0  0  0
    2.4561    0.1371    2.3515 H   0  0  0  0  0  0  0  0  0  0  0  0
    0.8513   -0.0849    3.0686 H   0  0  0  0  0  0  0  0  0  0  0  0
    2.8500    1.1766    5.7870 H   0  0  0  0  0  0  0  0  0  0  0  0
    2.4391    3.3553    5.4665 H   0  0  0  0  0  0  0  0  0  0  0  0
  1  2  2  0  0  0  0
  2  4  1  0  0  0  0
  2 17  1  0  0  0  0
  3  7  2  0  0  0  0
  3  1  1  0  0  0  0
  4 19  1  0  0  0  0
  5 21  1  0  0  0  0
  5  6  1  0  0  0  0
  6 15  1  0  0  0  0
  6 23  1  0  0  0  0
  7  8  1  0  0  0  0
  8  4  2  0  0  0  0
  9 14  1  0  0  0  0
  9 10  2  0  0  0  0
 10 24  1  0  0  0  0
 11 12  2  0  0  0  0
 11  7  1  0  0  0  0
 12 13  1  0  0  0  0
 13  8  1  0  0  0  0
 13  5  1  0  0  0  0
 14 25  1  0  0  0  0
 15  9  1  0  0  0  0
 16  1  1  0  0  0  0
 18  3  1  0  0  0  0
 20  5  1  0  0  0  0
 22  6  1  0  0  0  0
M  END
>  <HBA>
6

>  <HBD>
1

>  <TPSA>
83.03

>  <cid>
25813

>  <dipole>
4.78

>  <excitation_energy_1>
4.696

>  <excitation_energy_2>
4.91

>  <excitation_energy_3>
5.12

>  <excitation_energy_4>
5.607

>  <homo_energy>
-6.446

>  <homo_lumo_gap>
5.282

>  <logP>
1.227

>  <lumo_energy>
-1.165

>  <melting_point>
157.52

>  <molecular_refractivity>
52.79

>  <oscillator_strength_1>
0.08

>  <oscillator_strength_2>
0.0036

>  <oscillator_strength_3>
0.1

>  <oscillator_strength_4>
0.0003

>  <open_babel_can_smiles>
OC(=N)OCCn1nnc2c1cccc2

>  <mulliken_charges>
25
1   -0.146118
2   -0.143289
3   -0.148838
4   -0.15768
5   -0.175725
6   -0.019171
7   0.235249
8   0.371225
9   0.648063
10   -0.622741
11   -0.362283
12   -0.048105
13   -0.406239
14   -0.567582
15   -0.451932
16   0.136189
17   0.137646
18   0.152506
19   0.141683
20   0.199889
21   0.176673
22   0.186668
23   0.170697
24   0.281526
25   0.411688

>  <lowdin_charges>
25
1   -0.166931
2   -0.144346
3   -0.142294
4   -0.182647
5   -0.201054
6   -0.126755
7   -0.014518
8   0.011127
9   0.189687
10   -0.462102
11   -0.124382
12   -0.067388
13   0.013173
14   -0.360162
15   -0.181811
16   0.16285
17   0.162043
18   0.173835
19   0.164922
20   0.181727
21   0.165774
22   0.166251
23   0.160037
24   0.259736
25   0.363225

$$$$

