PCCDB-ID:  12662
public computational chemistry database (PCCDB) project, http://pccdb.org

 17 17  0  0  0  0  0  0  0  0999 V2000
    1.0154    0.0233   -0.0326 C   0  0  0  0  0  0  0  0  0  0  0  0
    5.4654    2.5035   -0.0400 C   0  0  0  0  0  0  0  0  0  0  0  0
    3.2307    1.2853   -0.0334 C   0  0  0  0  0  0  0  0  0  0  0  0
    3.2449   -1.1258   -0.0378 C   0  0  0  0  0  0  0  0  0  0  0  0
    2.5258    0.0353   -0.0343 C   0  0  0  0  0  0  0  0  0  0  0  0
    4.5888    1.2918   -0.0383 C   0  0  0  0  0  0  0  0  0  0  0  0
    4.6884   -1.1403   -0.0404 C   0  0  0  0  0  0  0  0  0  0  0  0
    5.4261   -2.0970   -0.0416 O   0  0  0  0  0  0  0  0  0  0  0  0
    5.2982    0.1434   -0.0427 O   0  0  0  0  0  0  0  0  0  0  0  0
    0.6035    1.0364   -0.0383 H   0  0  0  0  0  0  0  0  0  0  0  0
    0.6300   -0.4945    0.8532 H   0  0  0  0  0  0  0  0  0  0  0  0
    0.6282   -0.5055   -0.9110 H   0  0  0  0  0  0  0  0  0  0  0  0
    4.8666    3.4175   -0.0397 H   0  0  0  0  0  0  0  0  0  0  0  0
    6.1150    2.5037   -0.9231 H   0  0  0  0  0  0  0  0  0  0  0  0
    6.1175    2.5048    0.8412 H   0  0  0  0  0  0  0  0  0  0  0  0
    2.6897    2.2245   -0.0286 H   0  0  0  0  0  0  0  0  0  0  0  0
    2.7666   -2.0996   -0.0392 H   0  0  0  0  0  0  0  0  0  0  0  0
  1 11  1  0  0  0  0
  2 13  1  0  0  0  0
  2  6  1  0  0  0  0
  2 15  1  0  0  0  0
  3 16  1  0  0  0  0
  4  5  2  0  0  0  0
  5  3  1  0  0  0  0
  5  1  1  0  0  0  0
  6  3  2  0  0  0  0
  7  4  1  0  0  0  0
  8  7  2  0  0  0  0
  9  7  1  0  0  0  0
  9  6  1  0  0  0  0
 10  1  1  0  0  0  0
 12  1  1  0  0  0  0
 14  2  1  0  0  0  0
 17  4  1  0  0  0  0
M  END
>  <HBA>
2

>  <HBD>
0

>  <TPSA>
30.21

>  <cid>
12662

>  <dipole>
5.05

>  <excitation_energy_1>
4.322

>  <excitation_energy_2>
4.649

>  <excitation_energy_3>
5.512

>  <excitation_energy_4>
5.832

>  <homo_energy>
-6.131

>  <homo_lumo_gap>
4.727

>  <logP>
1.257

>  <lumo_energy>
-1.404

>  <melting_point>
46.66

>  <molecular_refractivity>
34.91

>  <oscillator_strength_1>
0.1535

>  <oscillator_strength_2>
0.0

>  <oscillator_strength_3>
0.0011

>  <oscillator_strength_4>
0.0529

>  <open_babel_can_smiles>
Cc1cc(C)oc(=O)c1

>  <mulliken_charges>
17
1   -0.533388
2   -0.517479
3   -0.262404
4   -0.274963
5   0.213574
6   0.397743
7   0.590105
8   -0.478237
9   -0.482891
10   0.162313
11   0.179953
12   0.179841
13   0.16701
14   0.185466
15   0.185438
16   0.138575
17   0.149345

>  <lowdin_charges>
17
1   -0.443212
2   -0.442398
3   -0.243683
4   -0.229675
5   0.049355
6   0.135021
7   0.196009
8   -0.255974
9   -0.135826
10   0.159911
11   0.173159
12   0.17314
13   0.167108
14   0.176914
15   0.176885
16   0.168112
17   0.175154

$$$$

