PCCDB-ID:  38296
public computational chemistry database (PCCDB) project, http://pccdb.org

 22 23  0  0  0  0  0  0  0  0999 V2000
    1.0100   -0.1338    0.0650 C   0  0  0  0  0  0  0  0  0  0  0  0
    5.5519   -2.4231    0.0323 C   0  0  0  0  0  0  0  0  0  0  0  0
    3.3222   -1.1800    0.0494 C   0  0  0  0  0  0  0  0  0  0  0  0
    3.1514    1.2213    0.0540 C   0  0  0  0  0  0  0  0  0  0  0  0
    2.5183   -0.0288    0.0560 C   0  0  0  0  0  0  0  0  0  0  0  0
    4.7276   -1.1594    0.0400 C   0  0  0  0  0  0  0  0  0  0  0  0
    4.5405    1.2776    0.0455 C   0  0  0  0  0  0  0  0  0  0  0  0
    5.3156    0.1035    0.0385 C   0  0  0  0  0  0  0  0  0  0  0  0
    5.4615    2.4258    0.0419 C   0  0  0  0  0  0  0  0  0  0  0  0
    6.9006    1.7939    0.0348 C   0  0  0  0  0  0  0  0  0  0  0  0
    6.6848    0.4251    0.0293 N   0  0  0  0  0  0  0  0  0  0  0  0
    5.2361    3.6162    0.0446 O   0  0  0  0  0  0  0  0  0  0  0  0
    7.9659    2.3678    0.0342 O   0  0  0  0  0  0  0  0  0  0  0  0
    0.6826   -1.1781    0.0674 H   0  0  0  0  0  0  0  0  0  0  0  0
    0.5693    0.3508   -0.8147 H   0  0  0  0  0  0  0  0  0  0  0  0
    0.5797    0.3516    0.9494 H   0  0  0  0  0  0  0  0  0  0  0  0
    4.9106   -3.3090    0.0317 H   0  0  0  0  0  0  0  0  0  0  0  0
    6.2032   -2.4892    0.9140 H   0  0  0  0  0  0  0  0  0  0  0  0
    6.1961   -2.4826   -0.8550 H   0  0  0  0  0  0  0  0  0  0  0  0
    2.8316   -2.1515    0.0519 H   0  0  0  0  0  0  0  0  0  0  0  0
    2.5772    2.1443    0.0600 H   0  0  0  0  0  0  0  0  0  0  0  0
    7.4404   -0.2451    0.0357 H   0  0  0  0  0  0  0  0  0  0  0  0
  1 14  1  0  0  0  0
  1 16  1  0  0  0  0
  2  6  1  0  0  0  0
  2 18  1  0  0  0  0
  3 20  1  0  0  0  0
  3  5  2  0  0  0  0
  4  5  1  0  0  0  0
  4 21  1  0  0  0  0
  5  1  1  0  0  0  0
  6  3  1  0  0  0  0
  7  4  2  0  0  0  0
  8  6  2  0  0  0  0
  8  7  1  0  0  0  0
  9 12  2  0  0  0  0
  9  7  1  0  0  0  0
 10  9  1  0  0  0  0
 11 10  1  0  0  0  0
 11 22  1  0  0  0  0
 11  8  1  0  0  0  0
 13 10  2  0  0  0  0
 15  1  1  0  0  0  0
 17  2  1  0  0  0  0
 19  2  1  0  0  0  0
M  END
>  <HBA>
3

>  <HBD>
1

>  <TPSA>
46.17

>  <cid>
38296

>  <dipole>
6.4

>  <excitation_energy_1>
2.687

>  <excitation_energy_2>
2.881

>  <excitation_energy_3>
4.175

>  <excitation_energy_4>
4.362

>  <homo_energy>
-6.223

>  <homo_lumo_gap>
3.709

>  <logP>
1.576

>  <lumo_energy>
-2.514

>  <melting_point>
128.08

>  <molecular_refractivity>
52.09

>  <oscillator_strength_1>
0.0

>  <oscillator_strength_2>
0.0234

>  <oscillator_strength_3>
0.0748

>  <oscillator_strength_4>
0.0

>  <open_babel_can_smiles>
Cc1cc(C)c2c(c1)C(=O)C(=O)N2

>  <mulliken_charges>
22
1   -0.532018
2   -0.547279
3   -0.255021
4   -0.23495
5   0.183012
6   0.176472
7   0.085116
8   0.25789
9   0.315155
10   0.576885
11   -0.755204
12   -0.432457
13   -0.456677
14   0.157184
15   0.168703
16   0.168633
17   0.169802
18   0.167283
19   0.167564
20   0.127646
21   0.154565
22   0.337699

>  <lowdin_charges>
22
1   -0.441847
2   -0.445334
3   -0.145027
4   -0.12499
5   -0.011387
6   -0.030598
7   -0.077722
8   0.060944
9   0.122757
10   0.14186
11   -0.252394
12   -0.180679
13   -0.223015
14   0.156877
15   0.164481
16   0.164417
17   0.166751
18   0.16208
19   0.16222
20   0.15847
21   0.173293
22   0.298843

$$$$

