PCCDB-ID:  12827
public computational chemistry database (PCCDB) project, http://pccdb.org

 25 25  0  0  0  0  0  0  0  0999 V2000
   -2.5179    0.3187    1.5291 C   0  0  0  0  0  0  0  0  0  0  0  0
   -2.3999   -0.7940    0.6926 C   0  0  0  0  0  0  0  0  0  0  0  0
   -1.4215    1.1610    1.7140 C   0  0  0  0  0  0  0  0  0  0  0  0
   -1.1925   -1.0607    0.0482 C   0  0  0  0  0  0  0  0  0  0  0  0
   -0.2143    0.8923    1.0642 C   0  0  0  0  0  0  0  0  0  0  0  0
    1.2400   -0.5393   -0.4471 C   0  0  0  0  0  0  0  0  0  0  0  0
    2.0565   -1.6131    0.2927 C   0  0  0  0  0  0  0  0  0  0  0  0
   -0.0815   -0.2224    0.2243 C   0  0  0  0  0  0  0  0  0  0  0  0
    4.8763   -1.7952    1.8393 N   0  0  0  0  0  0  0  0  0  0  0  0
    2.4244   -1.1228    1.6321 N   0  0  0  0  0  0  0  0  0  0  0  0
    3.3032   -1.5481    3.9272 O   0  0  0  0  0  0  0  0  0  0  0  0
    3.1605   -3.5388    2.3521 O   0  0  0  0  0  0  0  0  0  0  0  0
    3.3906   -2.1117    2.5797 S   0  0  0  0  0  0  0  0  0  0  0  0
   -3.4591    0.5281    2.0299 H   0  0  0  0  0  0  0  0  0  0  0  0
   -3.2505   -1.4528    0.5395 H   0  0  0  0  0  0  0  0  0  0  0  0
   -1.5044    2.0316    2.3591 H   0  0  0  0  0  0  0  0  0  0  0  0
   -1.1106   -1.9269   -0.6052 H   0  0  0  0  0  0  0  0  0  0  0  0
    0.6339    1.5590    1.2033 H   0  0  0  0  0  0  0  0  0  0  0  0
    1.0647   -0.9048   -1.4665 H   0  0  0  0  0  0  0  0  0  0  0  0
    1.8487    0.3683   -0.5285 H   0  0  0  0  0  0  0  0  0  0  0  0
    2.9874   -1.8078   -0.2471 H   0  0  0  0  0  0  0  0  0  0  0  0
    1.4935   -2.5541    0.3486 H   0  0  0  0  0  0  0  0  0  0  0  0
    5.2528   -0.9055    2.1624 H   0  0  0  0  0  0  0  0  0  0  0  0
    5.5145   -2.5594    2.0536 H   0  0  0  0  0  0  0  0  0  0  0  0
    1.6189   -0.8461    2.1937 H   0  0  0  0  0  0  0  0  0  0  0  0
  1  3  1  0  0  0  0
  1 14  1  0  0  0  0
  2  1  2  0  0  0  0
  3 16  1  0  0  0  0
  4  8  2  0  0  0  0
  4  2  1  0  0  0  0
  5 18  1  0  0  0  0
  5  3  2  0  0  0  0
  6  8  1  0  0  0  0
  6  7  1  0  0  0  0
  7 22  1  0  0  0  0
  7 10  1  0  0  0  0
  8  5  1  0  0  0  0
  9 24  1  0  0  0  0
  9 23  1  0  0  0  0
  9 13  1  0  0  0  0
 10 25  1  0  0  0  0
 10 13  1  0  0  0  0
 12 13  2  0  0  0  0
 13 11  2  0  0  0  0
 15  2  1  0  0  0  0
 17  4  1  0  0  0  0
 19  6  1  0  0  0  0
 20  6  1  0  0  0  0
 21  7  1  0  0  0  0
M  END
>  <HBA>
4

>  <HBD>
2

>  <TPSA>
80.57

>  <cid>
12827

>  <dipole>
3.28

>  <excitation_energy_1>
5.303

>  <excitation_energy_2>
5.87

>  <excitation_energy_3>
6.115

>  <excitation_energy_4>
6.227

>  <homo_energy>
-6.797

>  <homo_lumo_gap>
6.528

>  <logP>
2.194

>  <lumo_energy>
-0.269

>  <melting_point>
117.55

>  <molecular_refractivity>
50.69

>  <oscillator_strength_1>
0.0005

>  <oscillator_strength_2>
0.0391

>  <oscillator_strength_3>
0.0043

>  <oscillator_strength_4>
0.0016

>  <open_babel_can_smiles>
NS(=O)(=O)NCCc1ccccc1

>  <mulliken_charges>
25
1   -0.129401
2   -0.125826
3   -0.124634
4   -0.177554
5   -0.194957
6   -0.358004
7   -0.134906
8   0.147144
9   -0.811094
10   -0.681523
11   -0.515019
12   -0.532501
13   1.236277
14   0.134111
15   0.134881
16   0.135433
17   0.128653
18   0.13494
19   0.1565
20   0.159684
21   0.179063
22   0.168311
23   0.352855
24   0.35705
25   0.360519

>  <lowdin_charges>
25
1   -0.156553
2   -0.151723
3   -0.152065
4   -0.164703
5   -0.176376
6   -0.275999
7   -0.197028
8   -0.013224
9   -0.686637
10   -0.510212
11   -0.589257
12   -0.590104
13   1.336382
14   0.160023
15   0.160796
16   0.160551
17   0.156662
18   0.159584
19   0.159419
20   0.158542
21   0.166208
22   0.149279
23   0.297701
24   0.3007
25   0.298036

$$$$

