PCCDB-ID:  6056
public computational chemistry database (PCCDB) project, http://pccdb.org

 23 23  0  0  0  0  0  0  0  0999 V2000
    1.2123   -1.1351    1.8912 C   0  0  0  0  0  0  0  0  0  0  0  0
    2.7404   -1.2125    1.8239 C   0  0  0  0  0  0  0  0  0  0  0  0
    6.9529   -0.2137    0.2607 C   0  0  0  0  0  0  0  0  0  0  0  0
    3.2764   -1.2226    0.3780 C   0  0  0  0  0  0  0  0  0  0  0  0
    5.5607   -0.1274    0.2890 C   0  0  0  0  0  0  0  0  0  0  0  0
    7.5923   -1.4507    0.2456 C   0  0  0  0  0  0  0  0  0  0  0  0
    5.4333   -2.5356    0.2862 C   0  0  0  0  0  0  0  0  0  0  0  0
    4.7872   -1.2961    0.3044 C   0  0  0  0  0  0  0  0  0  0  0  0
    6.8338   -2.6328    0.2583 C   0  0  0  0  0  0  0  0  0  0  0  0
    7.4616   -3.8843    0.2976 N   0  0  0  0  0  0  0  0  0  0  0  0
    0.8590   -1.1285    2.9286 H   0  0  0  0  0  0  0  0  0  0  0  0
    0.7479   -1.9914    1.3864 H   0  0  0  0  0  0  0  0  0  0  0  0
    0.8391   -0.2244    1.4061 H   0  0  0  0  0  0  0  0  0  0  0  0
    3.0918   -2.1147    2.3418 H   0  0  0  0  0  0  0  0  0  0  0  0
    3.1807   -0.3625    2.3617 H   0  0  0  0  0  0  0  0  0  0  0  0
    7.5509    0.6942    0.2428 H   0  0  0  0  0  0  0  0  0  0  0  0
    2.9270   -0.3171   -0.1360 H   0  0  0  0  0  0  0  0  0  0  0  0
    2.8358   -2.0743   -0.1582 H   0  0  0  0  0  0  0  0  0  0  0  0
    5.0728    0.8441    0.2945 H   0  0  0  0  0  0  0  0  0  0  0  0
    8.6784   -1.5081    0.2220 H   0  0  0  0  0  0  0  0  0  0  0  0
    4.8396   -3.4489    0.2944 H   0  0  0  0  0  0  0  0  0  0  0  0
    8.3950   -3.8990   -0.0956 H   0  0  0  0  0  0  0  0  0  0  0  0
    6.9026   -4.6471   -0.0651 H   0  0  0  0  0  0  0  0  0  0  0  0
  1 11  1  0  0  0  0
  2  1  1  0  0  0  0
  2 14  1  0  0  0  0
  2 15  1  0  0  0  0
  3  5  2  0  0  0  0
  4  2  1  0  0  0  0
  5 19  1  0  0  0  0
  5  8  1  0  0  0  0
  6  9  2  0  0  0  0
  6  3  1  0  0  0  0
  7 21  1  0  0  0  0
  7  8  2  0  0  0  0
  8  4  1  0  0  0  0
  9  7  1  0  0  0  0
  9 10  1  0  0  0  0
 12  1  1  0  0  0  0
 13  1  1  0  0  0  0
 16  3  1  0  0  0  0
 17  4  1  0  0  0  0
 18  4  1  0  0  0  0
 20  6  1  0  0  0  0
 22 10  1  0  0  0  0
 23 10  1  0  0  0  0
M  END
>  <HBA>
1

>  <HBD>
1

>  <TPSA>
26.02

>  <cid>
6056

>  <dipole>
1.54

>  <excitation_energy_1>
4.67

>  <excitation_energy_2>
4.728

>  <excitation_energy_3>
5.295

>  <excitation_energy_4>
5.434

>  <homo_energy>
-5.323

>  <homo_lumo_gap>
5.614

>  <logP>
2.803

>  <lumo_energy>
0.291

>  <melting_point>
55.98

>  <molecular_refractivity>
45.43

>  <oscillator_strength_1>
0.0319

>  <oscillator_strength_2>
0.012

>  <oscillator_strength_3>
0.0306

>  <oscillator_strength_4>
0.0097

>  <open_babel_can_smiles>
CCCc1cccc(c1)N

>  <mulliken_charges>
23
1   -0.44115
2   -0.241315
3   -0.134077
4   -0.34193
5   -0.192125
6   -0.175959
7   -0.231031
8   0.171907
9   0.312825
10   -0.788313
11   0.143693
12   0.140313
13   0.141279
14   0.138165
15   0.138936
16   0.122667
17   0.136891
18   0.134254
19   0.112546
20   0.112153
21   0.106003
22   0.317171
23   0.317098

>  <lowdin_charges>
23
1   -0.445921
2   -0.270476
3   -0.146377
4   -0.273912
5   -0.199183
6   -0.203994
7   -0.213339
8   0.011123
9   0.060589
10   -0.491721
11   0.149494
12   0.146477
13   0.146561
14   0.143731
15   0.14465
16   0.155331
17   0.146608
18   0.145381
19   0.150966
20   0.148619
21   0.147962
22   0.272899
23   0.27453

$$$$

