PCCDB-ID:  68082
public computational chemistry database (PCCDB) project, http://pccdb.org

 24 26  0  0  0  0  0  0  0  0999 V2000
    2.2592    0.1987   -0.9804 C   0  0  0  0  0  0  0  0  0  0  0  0
    4.1043    2.0911    2.2854 C   0  0  0  0  0  0  0  0  0  0  0  0
    4.7006    2.6921    3.3439 C   0  0  0  0  0  0  0  0  0  0  0  0
    4.6138   -2.5256    4.2882 C   0  0  0  0  0  0  0  0  0  0  0  0
    4.1908   -3.6656    3.6923 C   0  0  0  0  0  0  0  0  0  0  0  0
    3.1598   -1.4010    1.1566 C   0  0  0  0  0  0  0  0  0  0  0  0
    3.9310    0.6649    2.2476 C   0  0  0  0  0  0  0  0  0  0  0  0
    4.2711   -1.4628    3.3776 C   0  0  0  0  0  0  0  0  0  0  0  0
    3.3075   -0.0189    1.1554 C   0  0  0  0  0  0  0  0  0  0  0  0
    3.6523   -2.0736    2.2795 C   0  0  0  0  0  0  0  0  0  0  0  0
    5.1882    1.9321    4.4829 C   0  0  0  0  0  0  0  0  0  0  0  0
    4.4055   -0.0675    3.3476 C   0  0  0  0  0  0  0  0  0  0  0  0
    5.7280    2.3651    5.4723 O   0  0  0  0  0  0  0  0  0  0  0  0
    2.8873    0.7932    0.1470 O   0  0  0  0  0  0  0  0  0  0  0  0
    3.6010   -3.4213    2.4672 O   0  0  0  0  0  0  0  0  0  0  0  0
    5.0035    0.5390    4.4044 O   0  0  0  0  0  0  0  0  0  0  0  0
    1.3407   -0.3285   -0.6932 H   0  0  0  0  0  0  0  0  0  0  0  0
    2.9352   -0.4984   -1.4915 H   0  0  0  0  0  0  0  0  0  0  0  0
    2.0108    1.0223   -1.6516 H   0  0  0  0  0  0  0  0  0  0  0  0
    3.7463    2.6774    1.4457 H   0  0  0  0  0  0  0  0  0  0  0  0
    4.8438    3.7649    3.3982 H   0  0  0  0  0  0  0  0  0  0  0  0
    5.1053   -2.4344    5.2455 H   0  0  0  0  0  0  0  0  0  0  0  0
    4.2235   -4.7050    3.9810 H   0  0  0  0  0  0  0  0  0  0  0  0
    2.6934   -1.9466    0.3475 H   0  0  0  0  0  0  0  0  0  0  0  0
  1 17  1  0  0  0  0
  1 14  1  0  0  0  0
  2  3  2  0  0  0  0
  3 21  1  0  0  0  0
  3 11  1  0  0  0  0
  4 22  1  0  0  0  0
  5 23  1  0  0  0  0
  5  4  2  0  0  0  0
  6 10  1  0  0  0  0
  7  2  1  0  0  0  0
  7 12  2  0  0  0  0
  8  4  1  0  0  0  0
  9  6  2  0  0  0  0
  9  7  1  0  0  0  0
 10 15  1  0  0  0  0
 10  8  2  0  0  0  0
 11 13  2  0  0  0  0
 12  8  1  0  0  0  0
 12 16  1  0  0  0  0
 14  9  1  0  0  0  0
 15  5  1  0  0  0  0
 16 11  1  0  0  0  0
 18  1  1  0  0  0  0
 19  1  1  0  0  0  0
 20  2  1  0  0  0  0
 24  6  1  0  0  0  0
M  END
>  <HBA>
4

>  <HBD>
0

>  <TPSA>
52.58

>  <cid>
68082

>  <dipole>
5.72

>  <excitation_energy_1>
3.611

>  <excitation_energy_2>
4.186

>  <excitation_energy_3>
4.608

>  <excitation_energy_4>
4.842

>  <homo_energy>
-5.872

>  <homo_lumo_gap>
4.332

>  <logP>
2.548

>  <lumo_energy>
-1.54

>  <melting_point>
133.0

>  <molecular_refractivity>
58.75

>  <oscillator_strength_1>
0.022

>  <oscillator_strength_2>
0.2115

>  <oscillator_strength_3>
0.0

>  <oscillator_strength_4>
0.1881

>  <open_babel_can_smiles>
COc1cc2occc2c2c1ccc(=O)o2

>  <mulliken_charges>
24
1   -0.217892
2   -0.104596
3   -0.224511
4   -0.195926
5   0.071435
6   -0.267847
7   0.062343
8   0.08466
9   0.323438
10   0.322473
11   0.596178
12   0.220789
13   -0.469191
14   -0.5123
15   -0.481505
16   -0.523845
17   0.16033
18   0.160339
19   0.177328
20   0.169664
21   0.160539
22   0.168507
23   0.166492
24   0.153098

>  <lowdin_charges>
24
1   -0.278516
2   -0.099871
3   -0.210304
4   -0.191801
5   -0.058575
6   -0.246133
7   -0.077671
8   -0.064475
9   0.111749
10   0.10464
11   0.199341
12   0.121252
13   -0.242548
14   -0.191145
15   -0.110826
16   -0.133657
17   0.150452
18   0.151842
19   0.168112
20   0.180076
21   0.17891
22   0.184654
23   0.17535
24   0.179145

$$$$

