PCCDB-ID:  7702
public computational chemistry database (PCCDB) project, http://pccdb.org

 25 25  0  0  0  0  0  0  0  0999 V2000
    0.4901    1.1877   -2.2548 C   0  0  0  0  0  0  0  0  0  0  0  0
    8.9829   -0.7837   -1.2490 C   0  0  0  0  0  0  0  0  0  0  0  0
    2.0115    1.0218   -2.3166 C   0  0  0  0  0  0  0  0  0  0  0  0
    2.6666    0.9590   -0.9223 C   0  0  0  0  0  0  0  0  0  0  0  0
    4.7715   -0.4595   -0.9784 C   0  0  0  0  0  0  0  0  0  0  0  0
    5.0157    1.9214   -1.0557 C   0  0  0  0  0  0  0  0  0  0  0  0
    6.1580   -0.6192   -1.0652 C   0  0  0  0  0  0  0  0  0  0  0  0
    6.3956    1.7862   -1.1429 C   0  0  0  0  0  0  0  0  0  0  0  0
    4.1712    0.8022   -0.9730 C   0  0  0  0  0  0  0  0  0  0  0  0
    6.9780    0.5107   -1.1500 C   0  0  0  0  0  0  0  0  0  0  0  0
    8.3428    0.4805   -1.2359 O   0  0  0  0  0  0  0  0  0  0  0  0
    0.0517    1.2217   -3.2587 H   0  0  0  0  0  0  0  0  0  0  0  0
    0.2119    2.1148   -1.7383 H   0  0  0  0  0  0  0  0  0  0  0  0
    0.0214    0.3558   -1.7145 H   0  0  0  0  0  0  0  0  0  0  0  0
   10.0521   -0.5785   -1.3301 H   0  0  0  0  0  0  0  0  0  0  0  0
    8.6649   -1.3906   -2.1076 H   0  0  0  0  0  0  0  0  0  0  0  0
    8.7915   -1.3449   -0.3242 H   0  0  0  0  0  0  0  0  0  0  0  0
    2.4543    1.8523   -2.8827 H   0  0  0  0  0  0  0  0  0  0  0  0
    2.2647    0.1083   -2.8713 H   0  0  0  0  0  0  0  0  0  0  0  0
    2.2259    0.1239   -0.3609 H   0  0  0  0  0  0  0  0  0  0  0  0
    2.4083    1.8721   -0.3683 H   0  0  0  0  0  0  0  0  0  0  0  0
    4.1467   -1.3478   -0.9085 H   0  0  0  0  0  0  0  0  0  0  0  0
    4.5821    2.9194   -1.0470 H   0  0  0  0  0  0  0  0  0  0  0  0
    6.5797   -1.6181   -1.0613 H   0  0  0  0  0  0  0  0  0  0  0  0
    7.0457    2.6538   -1.2021 H   0  0  0  0  0  0  0  0  0  0  0  0
  1 13  1  0  0  0  0
  1 14  1  0  0  0  0
  2 11  1  0  0  0  0
  2 17  1  0  0  0  0
  3  1  1  0  0  0  0
  3  4  1  0  0  0  0
  4 21  1  0  0  0  0
  4 20  1  0  0  0  0
  5  9  1  0  0  0  0
  5 22  1  0  0  0  0
  6 23  1  0  0  0  0
  6  9  2  0  0  0  0
  7 24  1  0  0  0  0
  7  5  2  0  0  0  0
  8  6  1  0  0  0  0
  9  4  1  0  0  0  0
 10  8  2  0  0  0  0
 10  7  1  0  0  0  0
 11 10  1  0  0  0  0
 12  1  1  0  0  0  0
 15  2  1  0  0  0  0
 16  2  1  0  0  0  0
 18  3  1  0  0  0  0
 19  3  1  0  0  0  0
 25  8  1  0  0  0  0
M  END
>  <HBA>
1

>  <HBD>
0

>  <TPSA>
9.23

>  <cid>
7702

>  <dipole>
1.21

>  <excitation_energy_1>
4.926

>  <excitation_energy_2>
5.273

>  <excitation_energy_3>
5.548

>  <excitation_energy_4>
5.692

>  <homo_energy>
-5.66

>  <homo_lumo_gap>
5.799

>  <logP>
2.648

>  <lumo_energy>
0.139

>  <melting_point>
11.93

>  <molecular_refractivity>
47.51

>  <oscillator_strength_1>
0.0328

>  <oscillator_strength_2>
0.0107

>  <oscillator_strength_3>
0.1201

>  <oscillator_strength_4>
0.0179

>  <open_babel_can_smiles>
CCCc1ccc(cc1)OC

>  <mulliken_charges>
25
1   -0.441389
2   -0.212905
3   -0.24068
4   -0.341479
5   -0.193665
6   -0.186033
7   -0.194004
8   -0.170964
9   0.174152
10   0.371255
11   -0.508363
12   0.143719
13   0.141531
14   0.141113
15   0.167699
16   0.149953
17   0.149954
18   0.13675
19   0.135889
20   0.135707
21   0.136499
22   0.120707
23   0.121934
24   0.1279
25   0.134719

>  <lowdin_charges>
25
1   -0.446551
2   -0.277173
3   -0.27149
4   -0.273705
5   -0.159195
6   -0.156994
7   -0.21409
8   -0.182755
9   -0.018963
10   0.099714
11   -0.202826
12   0.149997
13   0.146518
14   0.147048
15   0.159775
16   0.144637
17   0.144088
18   0.143451
19   0.14244
20   0.1462
21   0.145923
22   0.154012
23   0.154064
24   0.160112
25   0.165765

$$$$

