PCCDB-ID:  58057
public computational chemistry database (PCCDB) project, http://pccdb.org

 39 40  0  0  1  0  0  0  0  0999 V2000
    3.6174   -6.7254   -0.3760 C   0  0  0  0  0  0  0  0  0  0  0  0
    1.7235   -3.9594    2.1974 C   0  0  0  0  0  0  0  0  0  0  0  0
    3.5509   -6.3069    1.0939 C   0  0  0  0  0  0  0  0  0  0  0  0
    3.1976   -4.2723    2.4559 C   0  0  0  0  0  0  0  0  0  0  0  0
    4.8088    1.9992   -0.8705 C   0  0  0  0  0  0  0  0  0  0  0  0
    4.8289    1.6487    0.4228 C   0  0  0  0  0  0  0  0  0  0  0  0
    7.0445    1.4492   -0.3591 C   0  0  0  0  0  0  0  0  0  0  0  0
    5.7757   -0.1615   -1.5824 C   0  0  0  0  0  0  0  0  0  0  0  0
    5.2587   -4.5897    1.2326 C   0  0  0  0  0  0  0  0  0  0  0  0
    6.0357    1.3802   -1.5307 C   0  0  1  0  0  0  0  0  0  0  0  0
    6.0686    0.7947    0.6454 C   0  0  2  0  0  0  0  0  0  0  0  0
    5.7895   -0.5810   -0.0706 C   0  0  2  0  0  0  0  0  0  0  0  0
    6.6143   -2.7086    0.5516 C   0  0  0  0  0  0  0  0  0  0  0  0
    6.8708   -1.5158    0.2095 N   0  0  0  0  0  0  0  0  0  0  0  0
    3.8621   -4.8868    1.2992 N   0  0  0  0  0  0  0  0  0  0  0  0
    7.6208   -3.5798    0.8364 O   0  0  0  0  0  0  0  0  0  0  0  0
    5.3922   -3.2618    0.6556 O   0  0  0  0  0  0  0  0  0  0  0  0
    3.3529   -7.7839   -0.4817 H   0  0  0  0  0  0  0  0  0  0  0  0
    4.6200   -6.5934   -0.7975 H   0  0  0  0  0  0  0  0  0  0  0  0
    2.9224   -6.1269   -0.9730 H   0  0  0  0  0  0  0  0  0  0  0  0
    1.2866   -3.4528    3.0657 H   0  0  0  0  0  0  0  0  0  0  0  0
    1.1330   -4.8640    2.0142 H   0  0  0  0  0  0  0  0  0  0  0  0
    1.6242   -3.3072    1.3241 H   0  0  0  0  0  0  0  0  0  0  0  0
    4.1986   -6.9616    1.7071 H   0  0  0  0  0  0  0  0  0  0  0  0
    2.5324   -6.4700    1.4578 H   0  0  0  0  0  0  0  0  0  0  0  0
    3.3020   -4.9015    3.3602 H   0  0  0  0  0  0  0  0  0  0  0  0
    3.7198   -3.3328    2.6623 H   0  0  0  0  0  0  0  0  0  0  0  0
    4.0167    2.5215   -1.3990 H   0  0  0  0  0  0  0  0  0  0  0  0
    4.0555    1.8251    1.1643 H   0  0  0  0  0  0  0  0  0  0  0  0
    7.3121    2.4749   -0.0859 H   0  0  0  0  0  0  0  0  0  0  0  0
    7.9483    0.8535   -0.5246 H   0  0  0  0  0  0  0  0  0  0  0  0
    6.5853   -0.6762   -2.1098 H   0  0  0  0  0  0  0  0  0  0  0  0
    4.8323   -0.4113   -2.0768 H   0  0  0  0  0  0  0  0  0  0  0  0
    5.7693   -5.3090    0.5895 H   0  0  0  0  0  0  0  0  0  0  0  0
    5.7590   -4.5798    2.2140 H   0  0  0  0  0  0  0  0  0  0  0  0
    6.3440    1.8173   -2.4841 H   0  0  0  0  0  0  0  0  0  0  0  0
    6.4062    0.6785    1.6778 H   0  0  0  0  0  0  0  0  0  0  0  0
    4.8189   -0.9836    0.2378 H   0  0  0  0  0  0  0  0  0  0  0  0
    8.4345   -3.0583    0.7178 H   0  0  0  0  0  0  0  0  0  0  0  0
  1  3  1  0  0  0  0
  2  4  1  0  0  0  0
  2 21  1  0  0  0  0
  3 15  1  0  0  0  0
  3 25  1  0  0  0  0
  3 24  1  0  0  0  0
  4 27  1  0  0  0  0
  4 26  1  0  0  0  0
  5  6  2  0  0  0  0
  6 11  1  0  0  0  0
  6 29  1  0  0  0  0
  7 30  1  0  0  0  0
  7 11  1  0  0  0  0
  8 10  1  0  0  0  0
  8 12  1  0  0  0  0
  9 15  1  0  0  0  0
  9 35  1  0  0  0  0
 10 36  1  6  0  0  0
 10  5  1  0  0  0  0
 10  7  1  0  0  0  0
 11 37  1  1  0  0  0
 12 14  1  0  0  0  0
 12 38  1  1  0  0  0
 12 11  1  0  0  0  0
 13 17  1  0  0  0  0
 13 16  1  0  0  0  0
 14 13  2  0  0  0  0
 15  4  1  0  0  0  0
 17  9  1  0  0  0  0
 18  1  1  0  0  0  0
 19  1  1  0  0  0  0
 20  1  1  0  0  0  0
 22  2  1  0  0  0  0
 23  2  1  0  0  0  0
 28  5  1  0  0  0  0
 31  7  1  0  0  0  0
 32  8  1  0  0  0  0
 33  8  1  0  0  0  0
 34  9  1  0  0  0  0
 39 16  1  0  0  0  0
M  END
>  <HBA>
4

>  <HBD>
1

>  <TPSA>
41.57

>  <cid>
58057

>  <dipole>
2.63

>  <excitation_energy_1>
5.436

>  <excitation_energy_2>
5.573

>  <excitation_energy_3>
5.698

>  <excitation_energy_4>
5.743

>  <homo_energy>
-5.826

>  <homo_lumo_gap>
6.642

>  <logP>
2.367

>  <lumo_energy>
0.816

>  <melting_point>
76.33

>  <molecular_refractivity>
67.27

>  <oscillator_strength_1>
0.0043

>  <oscillator_strength_2>
0.0556

>  <oscillator_strength_3>
0.035

>  <oscillator_strength_4>
0.0202

>  <open_babel_can_smiles>
CCN(CO/C(=N\[C@@H]1C[C@@H]2C[C@H]1C=C2)/O)CC

>  <mulliken_charges>
39
1   -0.439387
2   -0.442667
3   -0.138033
4   -0.132173
5   -0.108761
6   -0.106334
7   -0.260625
8   -0.266603
9   0.096584
10   -0.150786
11   -0.139416
12   0.016881
13   0.72073
14   -0.508035
15   -0.373207
16   -0.613719
17   -0.476863
18   0.142252
19   0.149801
20   0.161305
21   0.143019
22   0.145186
23   0.163457
24   0.122257
25   0.147627
26   0.118089
27   0.155678
28   0.121003
29   0.119791
30   0.132392
31   0.142456
32   0.142857
33   0.134592
34   0.159328
35   0.138885
36   0.113216
37   0.113546
38   0.137037
39   0.418639

>  <lowdin_charges>
39
1   -0.448163
2   -0.450554
3   -0.196484
4   -0.197781
5   -0.174758
6   -0.177794
7   -0.27174
8   -0.287077
9   -0.061785
10   -0.133489
11   -0.135025
12   -0.060892
13   0.182756
14   -0.269412
15   -0.176997
16   -0.37751
17   -0.202043
18   0.150431
19   0.149075
20   0.15936
21   0.153156
22   0.147392
23   0.159298
24   0.124605
25   0.149738
26   0.122362
27   0.153573
28   0.15415
29   0.153682
30   0.143804
31   0.147106
32   0.150796
33   0.145414
34   0.154575
35   0.130542
36   0.140689
37   0.1418
38   0.138187
39   0.36901

$$$$

