PCCDB-ID:  5752
public computational chemistry database (PCCDB) project, http://pccdb.org

 30 30  0  0  1  0  0  0  0  0999 V2000
    2.6385   -0.3147    1.8760 C   0  0  0  0  0  0  0  0  0  0  0  0
    2.2301   -0.2557    0.4019 C   0  0  0  0  0  0  0  0  0  0  0  0
    1.3822    4.7428    1.2892 C   0  0  0  0  0  0  0  0  0  0  0  0
    0.4708    3.7672    0.8817 C   0  0  0  0  0  0  0  0  0  0  0  0
    2.7500    4.4941    1.1735 C   0  0  0  0  0  0  0  0  0  0  0  0
    0.9265    2.5541    0.3655 C   0  0  0  0  0  0  0  0  0  0  0  0
    3.2069    3.2816    0.6532 C   0  0  0  0  0  0  0  0  0  0  0  0
    2.3840    0.9575   -1.8385 C   0  0  0  0  0  0  0  0  0  0  0  0
    2.3004    2.2952    0.2465 C   0  0  0  0  0  0  0  0  0  0  0  0
    2.2488   -1.1292   -3.0157 C   0  0  0  0  0  0  0  0  0  0  0  0
    2.7904    0.9768   -0.3506 C   0  0  1  0  0  0  0  0  0  0  0  0
    0.9774   -1.1031   -3.0051 N   0  0  0  0  0  0  0  0  0  0  0  0
    3.0921   -2.0624   -3.5313 O   0  0  0  0  0  0  0  0  0  0  0  0
    4.2195    0.9670   -0.2836 O   0  0  0  0  0  0  0  0  0  0  0  0
    3.0220   -0.1703   -2.4848 O   0  0  0  0  0  0  0  0  0  0  0  0
    2.2782   -1.2403    2.3387 H   0  0  0  0  0  0  0  0  0  0  0  0
    2.2239    0.5279    2.4392 H   0  0  0  0  0  0  0  0  0  0  0  0
    3.7275   -0.2812    1.9753 H   0  0  0  0  0  0  0  0  0  0  0  0
    1.1378   -0.2758    0.3061 H   0  0  0  0  0  0  0  0  0  0  0  0
    2.5964   -1.1522   -0.1152 H   0  0  0  0  0  0  0  0  0  0  0  0
    1.0282    5.6874    1.6936 H   0  0  0  0  0  0  0  0  0  0  0  0
   -0.5977    3.9478    0.9662 H   0  0  0  0  0  0  0  0  0  0  0  0
    3.4686    5.2463    1.4888 H   0  0  0  0  0  0  0  0  0  0  0  0
    0.2014    1.8057    0.0564 H   0  0  0  0  0  0  0  0  0  0  0  0
    4.2687    3.0881    0.5603 H   0  0  0  0  0  0  0  0  0  0  0  0
    2.7804    1.8477   -2.3330 H   0  0  0  0  0  0  0  0  0  0  0  0
    1.3054    0.8942   -1.9792 H   0  0  0  0  0  0  0  0  0  0  0  0
    0.5624   -1.9123   -3.4640 H   0  0  0  0  0  0  0  0  0  0  0  0
    2.5609   -2.7710   -3.9259 H   0  0  0  0  0  0  0  0  0  0  0  0
    4.5083    0.2415   -0.8620 H   0  0  0  0  0  0  0  0  0  0  0  0
  1 18  1  0  0  0  0
  1 16  1  0  0  0  0
  1 17  1  0  0  0  0
  2  1  1  0  0  0  0
  3 21  1  0  0  0  0
  4 22  1  0  0  0  0
  4  3  2  0  0  0  0
  5  3  1  0  0  0  0
  5 23  1  0  0  0  0
  6  4  1  0  0  0  0
  7  5  2  0  0  0  0
  8 11  1  0  0  0  0
  9  6  2  0  0  0  0
  9  7  1  0  0  0  0
 10 12  2  0  0  0  0
 10 15  1  0  0  0  0
 11 14  1  1  0  0  0
 11  9  1  0  0  0  0
 11  2  1  0  0  0  0
 13 10  1  0  0  0  0
 15  8  1  0  0  0  0
 19  2  1  0  0  0  0
 20  2  1  0  0  0  0
 24  6  1  0  0  0  0
 25  7  1  0  0  0  0
 26  8  1  0  0  0  0
 27  8  1  0  0  0  0
 28 12  1  0  0  0  0
 29 13  1  0  0  0  0
 30 14  1  0  0  0  0
M  END
>  <HBA>
4

>  <HBD>
2

>  <TPSA>
72.55

>  <cid>
5752

>  <dipole>
2.93

>  <excitation_energy_1>
5.313

>  <excitation_energy_2>
5.567

>  <excitation_energy_3>
5.803

>  <excitation_energy_4>
5.91

>  <homo_energy>
-6.457

>  <homo_lumo_gap>
6.506

>  <logP>
2.08

>  <lumo_energy>
0.049

>  <melting_point>
107.08

>  <molecular_refractivity>
56.06

>  <oscillator_strength_1>
0.0

>  <oscillator_strength_2>
0.026

>  <oscillator_strength_3>
0.0013

>  <oscillator_strength_4>
0.0361

>  <open_babel_can_smiles>
CC[C@](c1ccccc1)(COC(=N)O)O

>  <mulliken_charges>
30
1   -0.447211
2   -0.268626
3   -0.125626
4   -0.136368
5   -0.13175
6   -0.185792
7   -0.170004
8   -0.063021
9   0.107448
10   0.655959
11   0.241721
12   -0.625183
13   -0.569508
14   -0.664884
15   -0.475218
16   0.136849
17   0.154748
18   0.158773
19   0.140228
20   0.131716
21   0.127238
22   0.128353
23   0.128697
24   0.133094
25   0.159462
26   0.164062
27   0.195408
28   0.281174
29   0.410702
30   0.407556

>  <lowdin_charges>
30
1   -0.447215
2   -0.283835
3   -0.158562
4   -0.154829
5   -0.15664
6   -0.171051
7   -0.157239
8   -0.143099
9   -0.010012
10   0.186682
11   0.111385
12   -0.46738
13   -0.362618
14   -0.45598
15   -0.188788
16   0.148434
17   0.154791
18   0.15421
19   0.146072
20   0.1439
21   0.156598
22   0.155231
23   0.158212
24   0.158413
25   0.172392
26   0.162205
27   0.174095
28   0.260867
29   0.364266
30   0.349497

$$$$

