PCCDB-ID:  8357
public computational chemistry database (PCCDB) project, http://pccdb.org

 27 27  0  0  0  0  0  0  0  0999 V2000
    3.1764    1.0969    1.2310 C   0  0  0  0  0  0  0  0  0  0  0  0
    5.3335    2.9263   -4.7097 C   0  0  0  0  0  0  0  0  0  0  0  0
    2.2091    3.6942   -1.7462 C   0  0  0  0  0  0  0  0  0  0  0  0
    3.5316   -0.6722   -1.6665 C   0  0  0  0  0  0  0  0  0  0  0  0
    4.5869    0.4713   -3.5272 C   0  0  0  0  0  0  0  0  0  0  0  0
    4.2001   -0.7171   -2.8923 C   0  0  0  0  0  0  0  0  0  0  0  0
    3.2131    0.5601   -1.0873 C   0  0  0  0  0  0  0  0  0  0  0  0
    4.2728    1.7033   -2.9559 C   0  0  0  0  0  0  0  0  0  0  0  0
    3.5667    1.7548   -1.7309 C   0  0  0  0  0  0  0  0  0  0  0  0
    4.5748   -2.0012   -3.5678 C   0  0  0  0  0  0  0  0  0  0  0  0
    5.4353   -2.0841   -4.4134 O   0  0  0  0  0  0  0  0  0  0  0  0
    3.8873   -3.1134   -3.1902 O   0  0  0  0  0  0  0  0  0  0  0  0
    2.5027    0.5608    0.0846 O   0  0  0  0  0  0  0  0  0  0  0  0
    4.5914    2.9115   -3.4958 O   0  0  0  0  0  0  0  0  0  0  0  0
    3.2754    2.9543   -1.1376 O   0  0  0  0  0  0  0  0  0  0  0  0
    3.4329    2.1492    1.0849 H   0  0  0  0  0  0  0  0  0  0  0  0
    4.0839    0.5195    1.4502 H   0  0  0  0  0  0  0  0  0  0  0  0
    2.4748    0.9965    2.0619 H   0  0  0  0  0  0  0  0  0  0  0  0
    4.7766    2.4508   -5.5270 H   0  0  0  0  0  0  0  0  0  0  0  0
    6.3016    2.4244   -4.5914 H   0  0  0  0  0  0  0  0  0  0  0  0
    5.4956    3.9795   -4.9439 H   0  0  0  0  0  0  0  0  0  0  0  0
    2.0943    4.6010   -1.1486 H   0  0  0  0  0  0  0  0  0  0  0  0
    1.2758    3.1186   -1.7212 H   0  0  0  0  0  0  0  0  0  0  0  0
    2.4560    3.9630   -2.7778 H   0  0  0  0  0  0  0  0  0  0  0  0
    3.2667   -1.5653   -1.1078 H   0  0  0  0  0  0  0  0  0  0  0  0
    5.1306    0.3939   -4.4600 H   0  0  0  0  0  0  0  0  0  0  0  0
    3.1374   -2.8618   -2.6269 H   0  0  0  0  0  0  0  0  0  0  0  0
  1 17  1  0  0  0  0
  1 18  1  0  0  0  0
  2 20  1  0  0  0  0
  2 14  1  0  0  0  0
  3 23  1  0  0  0  0
  3 22  1  0  0  0  0
  3 15  1  0  0  0  0
  4 25  1  0  0  0  0
  4  7  1  0  0  0  0
  5  8  2  0  0  0  0
  5  6  1  0  0  0  0
  6  4  2  0  0  0  0
  7 13  1  0  0  0  0
  8  9  1  0  0  0  0
  9 15  1  0  0  0  0
  9  7  2  0  0  0  0
 10 12  1  0  0  0  0
 10  6  1  0  0  0  0
 11 10  2  0  0  0  0
 12 27  1  0  0  0  0
 13  1  1  0  0  0  0
 14  8  1  0  0  0  0
 16  1  1  0  0  0  0
 19  2  1  0  0  0  0
 21  2  1  0  0  0  0
 24  3  1  0  0  0  0
 26  5  1  0  0  0  0
M  END
>  <HBA>
5

>  <HBD>
1

>  <TPSA>
64.99

>  <cid>
8357

>  <dipole>
4.3

>  <excitation_energy_1>
4.44

>  <excitation_energy_2>
4.719

>  <excitation_energy_3>
4.766

>  <excitation_energy_4>
5.428

>  <homo_energy>
-6.354

>  <homo_lumo_gap>
5.124

>  <logP>
1.411

>  <lumo_energy>
-1.23

>  <melting_point>
112.97

>  <molecular_refractivity>
52.88

>  <oscillator_strength_1>
0.0394

>  <oscillator_strength_2>
0.158

>  <oscillator_strength_3>
0.0001

>  <oscillator_strength_4>
0.0191

>  <open_babel_can_smiles>
COc1cc(cc(c1OC)OC)C(=O)O

>  <mulliken_charges>
27
1   -0.220289
2   -0.221673
3   -0.213281
4   -0.26791
5   -0.24682
6   0.056117
7   0.331694
8   0.357729
9   0.273527
10   0.5534
11   -0.453995
12   -0.577246
13   -0.526347
14   -0.510096
15   -0.519648
16   0.177601
17   0.144782
18   0.161697
19   0.15992
20   0.165936
21   0.174312
22   0.163718
23   0.152559
24   0.164364
25   0.135517
26   0.170298
27   0.414136

>  <lowdin_charges>
27
1   -0.275834
2   -0.275533
3   -0.270721
4   -0.204285
5   -0.194586
6   -0.05142
7   0.082958
8   0.085158
9   0.054515
10   0.192396
11   -0.245416
12   -0.355847
13   -0.223661
14   -0.189949
15   -0.216671
16   0.156221
17   0.142289
18   0.158626
19   0.150854
20   0.152878
21   0.164226
22   0.159439
23   0.146055
24   0.150413
25   0.165149
26   0.183596
27   0.359151

$$$$

