PCCDB-ID:  42091
public computational chemistry database (PCCDB) project, http://pccdb.org

 29 30  0  0  1  0  0  0  0  0999 V2000
    0.9290   -0.0801   -0.0408 C   0  0  0  0  0  0  0  0  0  0  0  0
    2.4585   -0.1133    0.0267 C   0  0  0  0  0  0  0  0  0  0  0  0
    4.9636    5.1542    0.2799 C   0  0  0  0  0  0  0  0  0  0  0  0
    3.7500    4.4568    0.2489 C   0  0  0  0  0  0  0  0  0  0  0  0
    6.1859    3.1737   -0.3884 C   0  0  0  0  0  0  0  0  0  0  0  0
    7.4755    5.3303   -0.0395 C   0  0  0  0  0  0  0  0  0  0  0  0
    4.6801    1.0182   -0.7010 C   0  0  0  0  0  0  0  0  0  0  0  0
    6.1858    4.5389   -0.0381 C   0  0  0  0  0  0  0  0  0  0  0  0
    4.9929    2.4692   -0.4210 C   0  0  0  0  0  0  0  0  0  0  0  0
    3.1278    1.0172   -0.7433 C   0  0  2  0  0  0  0  0  0  0  0  0
    3.7910    3.1136   -0.1064 C   0  0  0  0  0  0  0  0  0  0  0  0
    7.8694    5.9699   -1.3835 C   0  0  0  0  0  0  0  0  0  0  0  0
    9.0014    6.2929   -1.6443 O   0  0  0  0  0  0  0  0  0  0  0  0
    6.8607    6.1974   -2.2572 O   0  0  0  0  0  0  0  0  0  0  0  0
    2.7042    2.2992   -0.1759 O   0  0  0  0  0  0  0  0  0  0  0  0
    0.4951   -0.9146    0.5202 H   0  0  0  0  0  0  0  0  0  0  0  0
    0.5766   -0.1541   -1.0768 H   0  0  0  0  0  0  0  0  0  0  0  0
    0.5414    0.8525    0.3801 H   0  0  0  0  0  0  0  0  0  0  0  0
    2.8343   -1.0618   -0.3815 H   0  0  0  0  0  0  0  0  0  0  0  0
    2.7941   -0.0644    1.0711 H   0  0  0  0  0  0  0  0  0  0  0  0
    4.9580    6.2028    0.5705 H   0  0  0  0  0  0  0  0  0  0  0  0
    2.8107    4.9393    0.4973 H   0  0  0  0  0  0  0  0  0  0  0  0
    7.1256    2.6804   -0.6279 H   0  0  0  0  0  0  0  0  0  0  0  0
    8.3274    4.7151    0.2639 H   0  0  0  0  0  0  0  0  0  0  0  0
    7.4191    6.1552    0.6830 H   0  0  0  0  0  0  0  0  0  0  0  0
    5.0552    0.3670    0.1009 H   0  0  0  0  0  0  0  0  0  0  0  0
    5.1079    0.6544   -1.6411 H   0  0  0  0  0  0  0  0  0  0  0  0
    2.7780    1.0182   -1.7847 H   0  0  0  0  0  0  0  0  0  0  0  0
    6.0362    5.8236   -1.8936 H   0  0  0  0  0  0  0  0  0  0  0  0
  1  2  1  0  0  0  0
  1 18  1  0  0  0  0
  1 16  1  0  0  0  0
  2 20  1  0  0  0  0
  3 21  1  0  0  0  0
  4  3  1  0  0  0  0
  4 22  1  0  0  0  0
  5  8  1  0  0  0  0
  6  8  1  0  0  0  0
  6 24  1  0  0  0  0
  6 25  1  0  0  0  0
  7  9  1  0  0  0  0
  7 26  1  0  0  0  0
  8  3  2  0  0  0  0
  9  5  2  0  0  0  0
  9 11  1  0  0  0  0
 10 28  1  6  0  0  0
 10  7  1  0  0  0  0
 10 15  1  0  0  0  0
 10  2  1  0  0  0  0
 11  4  2  0  0  0  0
 12  6  1  0  0  0  0
 13 12  2  0  0  0  0
 14 29  1  0  0  0  0
 14 12  1  0  0  0  0
 15 11  1  0  0  0  0
 17  1  1  0  0  0  0
 19  2  1  0  0  0  0
 23  5  1  0  0  0  0
 27  7  1  0  0  0  0
M  END
>  <HBA>
3

>  <HBD>
1

>  <TPSA>
46.53

>  <cid>
42091

>  <dipole>
5.59

>  <excitation_energy_1>
4.593

>  <excitation_energy_2>
5.223

>  <excitation_energy_3>
5.384

>  <excitation_energy_4>
5.448

>  <homo_energy>
-6.033

>  <homo_lumo_gap>
5.404

>  <logP>
2.027

>  <lumo_energy>
-0.629

>  <melting_point>
115.84

>  <molecular_refractivity>
56.94

>  <oscillator_strength_1>
0.0485

>  <oscillator_strength_2>
0.1053

>  <oscillator_strength_3>
0.0363

>  <oscillator_strength_4>
0.0039

>  <open_babel_can_smiles>
CC[C@H]1Oc2c(C1)cc(cc2)CC(=O)O

>  <mulliken_charges>
29
1   -0.450278
2   -0.269524
3   -0.209628
4   -0.181728
5   -0.240475
6   -0.455035
7   -0.375197
8   0.095585
9   0.101706
10   0.141599
11   0.366319
12   0.588594
13   -0.444704
14   -0.566972
15   -0.539876
16   0.148341
17   0.144289
18   0.169723
19   0.141232
20   0.146423
21   0.138319
22   0.14681
23   0.13793
24   0.186844
25   0.188721
26   0.166542
27   0.166644
28   0.143034
29   0.414764

>  <lowdin_charges>
29
1   -0.446341
2   -0.278935
3   -0.169785
4   -0.18782
5   -0.160444
6   -0.315629
7   -0.287475
8   -0.048189
9   -0.038582
10   0.020252
11   0.096393
12   0.187498
13   -0.24654
14   -0.355995
15   -0.209626
16   0.154671
17   0.147797
18   0.160855
19   0.149861
20   0.148503
21   0.159264
22   0.171291
23   0.162247
24   0.180123
25   0.179706
26   0.161473
27   0.164863
28   0.140943
29   0.359621

$$$$

