PCCDB-ID:  449
public computational chemistry database (PCCDB) project, http://pccdb.org

 22 21  0  0  1  0  0  0  0  0999 V2000
    1.0102   -0.0205    0.3866 C   0  0  0  0  0  0  0  0  0  0  0  0
    2.4023   -0.5693   -1.6826 C   0  0  0  0  0  0  0  0  0  0  0  0
    1.5559    0.0982   -2.7776 C   0  0  0  0  0  0  0  0  0  0  0  0
    2.8255    1.5789   -0.3352 C   0  0  0  0  0  0  0  0  0  0  0  0
    4.1469    1.8316   -1.0649 C   0  0  0  0  0  0  0  0  0  0  0  0
    2.3770    0.1028   -0.2939 C   0  0  1  0  0  0  0  0  0  0  0  0
    1.5669   -0.6633   -3.9780 O   0  0  0  0  0  0  0  0  0  0  0  0
    4.2874    2.6957   -1.8982 O   0  0  0  0  0  0  0  0  0  0  0  0
    5.1689    1.0268   -0.7044 O   0  0  0  0  0  0  0  0  0  0  0  0
    3.3705   -0.5430    0.5541 O   0  0  0  0  0  0  0  0  0  0  0  0
    0.2333    0.5162   -0.1680 H   0  0  0  0  0  0  0  0  0  0  0  0
    1.0561    0.3888    1.4005 H   0  0  0  0  0  0  0  0  0  0  0  0
    0.7074   -1.0725    0.4549 H   0  0  0  0  0  0  0  0  0  0  0  0
    3.4455   -0.6121   -2.0231 H   0  0  0  0  0  0  0  0  0  0  0  0
    2.0572   -1.6082   -1.5815 H   0  0  0  0  0  0  0  0  0  0  0  0
    1.9038    1.1255   -2.9575 H   0  0  0  0  0  0  0  0  0  0  0  0
    0.5049    0.1506   -2.4763 H   0  0  0  0  0  0  0  0  0  0  0  0
    2.0652    2.2002   -0.8119 H   0  0  0  0  0  0  0  0  0  0  0  0
    2.9325    1.9223    0.7024 H   0  0  0  0  0  0  0  0  0  0  0  0
    2.4492   -0.5774   -4.3717 H   0  0  0  0  0  0  0  0  0  0  0  0
    4.8209    0.3430   -0.0864 H   0  0  0  0  0  0  0  0  0  0  0  0
    3.2734   -1.5046    0.4588 H   0  0  0  0  0  0  0  0  0  0  0  0
  1 13  1  0  0  0  0
  1 12  1  0  0  0  0
  2 15  1  0  0  0  0
  2  6  1  0  0  0  0
  3 17  1  0  0  0  0
  3  2  1  0  0  0  0
  4  6  1  0  0  0  0
  4 19  1  0  0  0  0
  5  9  1  0  0  0  0
  5  4  1  0  0  0  0
  6  1  1  0  0  0  0
  6 10  1  1  0  0  0
  7  3  1  0  0  0  0
  8  5  2  0  0  0  0
  9 21  1  0  0  0  0
 11  1  1  0  0  0  0
 14  2  1  0  0  0  0
 16  3  1  0  0  0  0
 18  4  1  0  0  0  0
 20  7  1  0  0  0  0
 22 10  1  0  0  0  0
M  END
>  <HBA>
4

>  <HBD>
3

>  <TPSA>
77.76

>  <cid>
449

>  <dipole>
4.54

>  <excitation_energy_1>
5.596

>  <excitation_energy_2>
6.418

>  <excitation_energy_3>
6.628

>  <excitation_energy_4>
6.728

>  <homo_energy>
-7.108

>  <homo_lumo_gap>
7.497

>  <logP>
-0.406

>  <lumo_energy>
0.389

>  <melting_point>
98.85

>  <molecular_refractivity>
35.09

>  <oscillator_strength_1>
0.0011

>  <oscillator_strength_2>
0.0111

>  <oscillator_strength_3>
0.018

>  <oscillator_strength_4>
0.0025

>  <open_babel_can_smiles>
OCC[C@](CC(=O)O)(O)C

>  <mulliken_charges>
22
1   -0.453698
2   -0.316153
3   -0.047218
4   -0.3861
5   0.586852
6   0.275283
7   -0.612974
8   -0.45745
9   -0.58823
10   -0.656479
11   0.157525
12   0.16407
13   0.144895
14   0.150015
15   0.140775
16   0.153693
17   0.149759
18   0.178707
19   0.181869
20   0.394979
21   0.434397
22   0.405481

>  <lowdin_charges>
22
1   -0.451483
2   -0.315226
3   -0.136031
4   -0.324639
5   0.183897
6   0.122347
7   -0.461724
8   -0.253617
9   -0.369679
10   -0.458494
11   0.160572
12   0.16181
13   0.15172
14   0.150578
15   0.147541
16   0.141676
17   0.145932
18   0.175961
19   0.175105
20   0.345295
21   0.358307
22   0.350154

$$$$

