PCCDB-ID:  32721
public computational chemistry database (PCCDB) project, http://pccdb.org

 30 31  0  0  1  0  0  0  0  0999 V2000
    1.7401   -0.4099   -1.8906 C   0  0  0  0  0  0  0  0  0  0  0  0
    0.5499    0.3507   -2.4897 C   0  0  0  0  0  0  0  0  0  0  0  0
    2.7903    0.5104   -1.2567 C   0  0  0  0  0  0  0  0  0  0  0  0
   -0.5023   -0.5712   -3.1216 C   0  0  0  0  0  0  0  0  0  0  0  0
    3.9836   -0.2485   -0.6572 C   0  0  0  0  0  0  0  0  0  0  0  0
   -1.7213    0.1627   -3.7064 C   0  0  0  0  0  0  0  0  0  0  0  0
    5.7401    0.3456    1.1875 C   0  0  0  0  0  0  0  0  0  0  0  0
   -1.2431    2.4981   -4.8009 C   0  0  0  0  0  0  0  0  0  0  0  0
    5.0044    0.6787   -0.0403 C   0  0  2  0  0  0  0  0  0  0  0  0
   -1.3933    1.0372   -4.8965 C   0  0  2  0  0  0  0  0  0  0  0  0
    4.6486    1.2739    1.2189 O   0  0  0  0  0  0  0  0  0  0  0  0
   -2.4318    1.9176   -5.3495 O   0  0  0  0  0  0  0  0  0  0  0  0
    2.2140   -1.0199   -2.6745 H   0  0  0  0  0  0  0  0  0  0  0  0
    1.3742   -1.1199   -1.1345 H   0  0  0  0  0  0  0  0  0  0  0  0
    0.9181    1.0626   -3.2411 H   0  0  0  0  0  0  0  0  0  0  0  0
    0.0747    0.9564   -1.7038 H   0  0  0  0  0  0  0  0  0  0  0  0
    2.3256    1.1134   -0.4653 H   0  0  0  0  0  0  0  0  0  0  0  0
    3.1551    1.2211   -2.0129 H   0  0  0  0  0  0  0  0  0  0  0  0
   -0.8559   -1.2857   -2.3663 H   0  0  0  0  0  0  0  0  0  0  0  0
   -0.0295   -1.1768   -3.9094 H   0  0  0  0  0  0  0  0  0  0  0  0
    4.4751   -0.8492   -1.4370 H   0  0  0  0  0  0  0  0  0  0  0  0
    3.6309   -0.9496    0.1102 H   0  0  0  0  0  0  0  0  0  0  0  0
   -2.2021    0.7795   -2.9359 H   0  0  0  0  0  0  0  0  0  0  0  0
   -2.4695   -0.5760   -4.0252 H   0  0  0  0  0  0  0  0  0  0  0  0
    6.7260    0.7759    1.3674 H   0  0  0  0  0  0  0  0  0  0  0  0
    5.5556   -0.6092    1.6820 H   0  0  0  0  0  0  0  0  0  0  0  0
   -0.6103    3.0317   -5.5114 H   0  0  0  0  0  0  0  0  0  0  0  0
   -1.3665    2.9877   -3.8340 H   0  0  0  0  0  0  0  0  0  0  0  0
    5.4756    1.3810   -0.7337 H   0  0  0  0  0  0  0  0  0  0  0  0
   -0.8650    0.5328   -5.7111 H   0  0  0  0  0  0  0  0  0  0  0  0
  1  3  1  0  0  0  0
  1 14  1  0  0  0  0
  2  1  1  0  0  0  0
  2 16  1  0  0  0  0
  3  5  1  0  0  0  0
  3 17  1  0  0  0  0
  4  2  1  0  0  0  0
  4 19  1  0  0  0  0
  5  9  1  0  0  0  0
  5 22  1  0  0  0  0
  6  4  1  0  0  0  0
  6 23  1  0  0  0  0
  7 11  1  0  0  0  0
  7 25  1  0  0  0  0
  7 26  1  0  0  0  0
  8 28  1  0  0  0  0
  9 29  1  6  0  0  0
  9  7  1  0  0  0  0
  9 11  1  0  0  0  0
 10 30  1  6  0  0  0
 10  8  1  0  0  0  0
 10  6  1  0  0  0  0
 12 10  1  0  0  0  0
 12  8  1  0  0  0  0
 13  1  1  0  0  0  0
 15  2  1  0  0  0  0
 18  3  1  0  0  0  0
 20  4  1  0  0  0  0
 21  5  1  0  0  0  0
 24  6  1  0  0  0  0
 27  8  1  0  0  0  0
M  END
>  <HBA>
2

>  <HBD>
0

>  <TPSA>
25.06

>  <cid>
32721

>  <dipole>
3.06

>  <excitation_energy_1>
6.815

>  <excitation_energy_2>
6.879

>  <excitation_energy_3>
7.024

>  <excitation_energy_4>
7.098

>  <homo_energy>
-7.11

>  <homo_lumo_gap>
9.325

>  <logP>
2.125

>  <lumo_energy>
2.215

>  <melting_point>
-1.96

>  <molecular_refractivity>
48.13

>  <oscillator_strength_1>
0.0164

>  <oscillator_strength_2>
0.0259

>  <oscillator_strength_3>
0.0045

>  <oscillator_strength_4>
0.0029

>  <open_babel_can_smiles>
C(CC[C@H]1OC1)CCC[C@H]1OC1

>  <mulliken_charges>
30
1   -0.254965
2   -0.254044
3   -0.25994
4   -0.267216
5   -0.278194
6   -0.281648
7   -0.112969
8   -0.107292
9   0.104297
10   0.11176
11   -0.444139
12   -0.451939
13   0.126815
14   0.131173
15   0.133445
16   0.131535
17   0.152942
18   0.128074
19   0.13592
20   0.130572
21   0.134583
22   0.140562
23   0.141193
24   0.147675
25   0.147657
26   0.146609
27   0.14624
28   0.14762
29   0.137716
30   0.135955

>  <lowdin_charges>
30
1   -0.276314
2   -0.279224
3   -0.276753
4   -0.277301
5   -0.28171
6   -0.28227
7   -0.164784
8   -0.170318
9   -0.024189
10   -0.025939
11   -0.293424
12   -0.288046
13   0.138272
14   0.140519
15   0.141339
16   0.141106
17   0.151538
18   0.13942
19   0.14621
20   0.140331
21   0.148232
22   0.150804
23   0.151197
24   0.154713
25   0.151591
26   0.15028
27   0.152791
28   0.150342
29   0.146494
30   0.145091

$$$$

