PCCDB-ID:  69419
public computational chemistry database (PCCDB) project, http://pccdb.org

 24 23  0  0  0  0  0  0  0  0999 V2000
    0.8892   -0.1167    0.1198 C   0  0  0  0  0  0  0  0  0  0  0  0
    2.4172   -0.0101    0.0898 C   0  0  0  0  0  0  0  0  0  0  0  0
    2.9311    1.0257   -0.9187 C   0  0  0  0  0  0  0  0  0  0  0  0
    4.4604    1.1393   -0.9553 C   0  0  0  0  0  0  0  0  0  0  0  0
    4.9698    2.1655   -1.9751 C   0  0  0  0  0  0  0  0  0  0  0  0
    6.5067    2.2772   -1.9990 C   0  0  0  0  0  0  0  0  0  0  0  0
    7.0003    3.2346   -3.0424 C   0  0  0  0  0  0  0  0  0  0  0  0
    7.6621    4.2713   -2.7021 N   0  0  0  0  0  0  0  0  0  0  0  0
    8.0158    5.0376   -3.8323 O   0  0  0  0  0  0  0  0  0  0  0  0
    0.5537   -0.8645    0.8475 H   0  0  0  0  0  0  0  0  0  0  0  0
    0.4924   -0.4055   -0.8614 H   0  0  0  0  0  0  0  0  0  0  0  0
    0.4302    0.8419    0.3914 H   0  0  0  0  0  0  0  0  0  0  0  0
    2.8485   -0.9926   -0.1491 H   0  0  0  0  0  0  0  0  0  0  0  0
    2.7864    0.2476    1.0926 H   0  0  0  0  0  0  0  0  0  0  0  0
    2.4996    2.0090   -0.6793 H   0  0  0  0  0  0  0  0  0  0  0  0
    2.5607    0.7683   -1.9223 H   0  0  0  0  0  0  0  0  0  0  0  0
    4.8936    0.1541   -1.1838 H   0  0  0  0  0  0  0  0  0  0  0  0
    4.8293    1.4091    0.0451 H   0  0  0  0  0  0  0  0  0  0  0  0
    4.5450    3.1534   -1.7514 H   0  0  0  0  0  0  0  0  0  0  0  0
    4.6076    1.8950   -2.9776 H   0  0  0  0  0  0  0  0  0  0  0  0
    6.9345    1.2827   -2.1974 H   0  0  0  0  0  0  0  0  0  0  0  0
    6.8811    2.6001   -1.0210 H   0  0  0  0  0  0  0  0  0  0  0  0
    6.7744    3.0418   -4.0961 H   0  0  0  0  0  0  0  0  0  0  0  0
    8.5071    5.7733   -3.4349 H   0  0  0  0  0  0  0  0  0  0  0  0
  1 12  1  0  0  0  0
  1 10  1  0  0  0  0
  2  1  1  0  0  0  0
  2 14  1  0  0  0  0
  3 15  1  0  0  0  0
  3  2  1  0  0  0  0
  4  3  1  0  0  0  0
  4 18  1  0  0  0  0
  5 19  1  0  0  0  0
  5  4  1  0  0  0  0
  6  5  1  0  0  0  0
  6 22  1  0  0  0  0
  7  8  2  0  0  0  0
  7  6  1  0  0  0  0
  9 24  1  0  0  0  0
  9  8  1  0  0  0  0
 11  1  1  0  0  0  0
 13  2  1  0  0  0  0
 16  3  1  0  0  0  0
 17  4  1  0  0  0  0
 20  5  1  0  0  0  0
 21  6  1  0  0  0  0
 23  7  1  0  0  0  0
M  END
>  <HBA>
2

>  <HBD>
1

>  <TPSA>
32.59

>  <cid>
69419

>  <dipole>
0.8

>  <excitation_energy_1>
6.056

>  <excitation_energy_2>
6.417

>  <excitation_energy_3>
6.512

>  <excitation_energy_4>
6.778

>  <homo_energy>
-6.702

>  <homo_lumo_gap>
6.961

>  <logP>
2.417

>  <lumo_energy>
0.259

>  <melting_point>
44.54

>  <molecular_refractivity>
40.18

>  <oscillator_strength_1>
0.0017

>  <oscillator_strength_2>
0.256

>  <oscillator_strength_3>
0.0006

>  <oscillator_strength_4>
0.0004

>  <open_babel_can_smiles>
CCCCCC/C=N/O

>  <mulliken_charges>
24
1   -0.441769
2   -0.247236
3   -0.246745
4   -0.253187
5   -0.261756
6   -0.309835
7   0.104908
8   -0.174008
9   -0.510327
10   0.142351
11   0.141543
12   0.14199
13   0.130342
14   0.131106
15   0.129191
16   0.127454
17   0.128664
18   0.131697
19   0.144393
20   0.132691
21   0.146686
22   0.159097
23   0.139259
24   0.413489

>  <lowdin_charges>
24
1   -0.44521
2   -0.270959
3   -0.273292
4   -0.273302
5   -0.271727
6   -0.275187
7   -0.106569
8   -0.062706
9   -0.38758
10   0.150584
11   0.146088
12   0.146561
13   0.138441
14   0.138608
15   0.138303
16   0.137093
17   0.137891
18   0.139388
19   0.145468
20   0.139465
21   0.151766
22   0.158522
23   0.143991
24   0.354364

$$$$

