PCCDB-ID:  30177
public computational chemistry database (PCCDB) project, http://pccdb.org

 15 14  0  0  0  0  0  0  0  0999 V2000
    0.9666   -0.3094   -0.1970 C   0  0  0  0  0  0  0  0  0  0  0  0
    0.9774    2.7415   -1.3631 C   0  0  0  0  0  0  0  0  0  0  0  0
    2.1072    0.2423    0.2382 C   0  0  0  0  0  0  0  0  0  0  0  0
    2.4011    2.3806   -1.0904 C   0  0  0  0  0  0  0  0  0  0  0  0
    4.3593    1.2614   -0.1947 C   0  0  0  0  0  0  0  0  0  0  0  0
    2.8802    1.3218   -0.3962 C   0  0  0  0  0  0  0  0  0  0  0  0
    5.1693    2.0276   -0.6800 O   0  0  0  0  0  0  0  0  0  0  0  0
    0.4868   -1.1099    0.3588 H   0  0  0  0  0  0  0  0  0  0  0  0
    0.4879   -0.0084   -1.1237 H   0  0  0  0  0  0  0  0  0  0  0  0
    0.8430    3.8284   -1.3127 H   0  0  0  0  0  0  0  0  0  0  0  0
    0.2863    2.2611   -0.6641 H   0  0  0  0  0  0  0  0  0  0  0  0
    0.6841    2.4403   -2.3798 H   0  0  0  0  0  0  0  0  0  0  0  0
    2.5538   -0.1647    1.1476 H   0  0  0  0  0  0  0  0  0  0  0  0
    3.1608    3.0617   -1.4727 H   0  0  0  0  0  0  0  0  0  0  0  0
    4.7007    0.4313    0.4635 H   0  0  0  0  0  0  0  0  0  0  0  0
  1  3  2  0  0  0  0
  1  8  1  0  0  0  0
  2 10  1  0  0  0  0
  2  4  1  0  0  0  0
  2 11  1  0  0  0  0
  3 13  1  0  0  0  0
  4  6  2  0  0  0  0
  5 15  1  0  0  0  0
  6  5  1  0  0  0  0
  6  3  1  0  0  0  0
  7  5  2  0  0  0  0
  9  1  1  0  0  0  0
 12  2  1  0  0  0  0
 14  4  1  0  0  0  0
M  END
>  <HBA>
1

>  <HBD>
0

>  <TPSA>
17.07

>  <cid>
30177

>  <dipole>
2.98

>  <excitation_energy_1>
3.583

>  <excitation_energy_2>
4.455

>  <excitation_energy_3>
5.566

>  <excitation_energy_4>
5.669

>  <homo_energy>
-6.539

>  <homo_lumo_gap>
4.808

>  <logP>
1.318

>  <lumo_energy>
-1.731

>  <melting_point>
-2.23

>  <molecular_refractivity>
30.21

>  <oscillator_strength_1>
0.0012

>  <oscillator_strength_2>
0.1065

>  <oscillator_strength_3>
0.0344

>  <oscillator_strength_4>
0.0535

>  <open_babel_can_smiles>
C/C=C(/C=O)\C=C

>  <mulliken_charges>
15
1   -0.337011
2   -0.499541
3   -0.131222
4   -0.12507
5   0.19466
6   0.084292
7   -0.408259
8   0.148733
9   0.150436
10   0.165728
11   0.171769
12   0.173312
13   0.137139
14   0.171554
15   0.103481

>  <lowdin_charges>
15
1   -0.32518
2   -0.444638
3   -0.152273
4   -0.092291
5   0.04695
6   -0.07879
7   -0.231806
8   0.164922
9   0.161968
10   0.162919
11   0.168266
12   0.169443
13   0.157331
14   0.176079
15   0.117099

$$$$

