PCCDB-ID:  6849
public computational chemistry database (PCCDB) project, http://pccdb.org

 20 21  0  0  0  0  0  0  0  0999 V2000
    2.4380    0.8124   -0.1674 C   0  0  0  0  0  0  0  0  0  0  0  0
    2.5020   -0.5982   -0.1083 C   0  0  0  0  0  0  0  0  0  0  0  0
   -2.4155    0.6456    0.1662 C   0  0  0  0  0  0  0  0  0  0  0  0
    1.2155    1.4386   -0.1232 C   0  0  0  0  0  0  0  0  0  0  0  0
   -1.2410    1.3512    0.0412 C   0  0  0  0  0  0  0  0  0  0  0  0
    1.3589   -1.3626   -0.0200 C   0  0  0  0  0  0  0  0  0  0  0  0
   -2.3801   -0.7600    0.2287 C   0  0  0  0  0  0  0  0  0  0  0  0
    0.0127    0.6891   -0.0222 C   0  0  0  0  0  0  0  0  0  0  0  0
    0.0761   -0.7487    0.0217 C   0  0  0  0  0  0  0  0  0  0  0  0
   -1.1777   -1.4313    0.1445 C   0  0  0  0  0  0  0  0  0  0  0  0
   -1.2729   -2.9018    0.1803 N   0  0  0  0  0  0  0  0  0  0  0  0
   -2.2623   -3.3941    0.7245 O   0  0  0  0  0  0  0  0  0  0  0  0
   -0.3820   -3.5657   -0.3535 O   0  0  0  0  0  0  0  0  0  0  0  0
    3.3517    1.3950   -0.2417 H   0  0  0  0  0  0  0  0  0  0  0  0
    3.4691   -1.0925   -0.1359 H   0  0  0  0  0  0  0  0  0  0  0  0
   -3.3700    1.1600    0.2161 H   0  0  0  0  0  0  0  0  0  0  0  0
    1.1466    2.5229   -0.1588 H   0  0  0  0  0  0  0  0  0  0  0  0
   -1.2551    2.4372   -0.0065 H   0  0  0  0  0  0  0  0  0  0  0  0
    1.4312   -2.4396    0.0149 H   0  0  0  0  0  0  0  0  0  0  0  0
   -3.2911   -1.3356    0.3353 H   0  0  0  0  0  0  0  0  0  0  0  0
  1  4  2  0  0  0  0
  1  2  1  0  0  0  0
  2  6  2  0  0  0  0
  3 16  1  0  0  0  0
  3  7  1  0  0  0  0
  4  8  1  0  0  0  0
  5  3  2  0  0  0  0
  6 19  1  0  0  0  0
  6  9  1  0  0  0  0
  7 20  1  0  0  0  0
  8  9  2  0  0  0  0
  8  5  1  0  0  0  0
  9 10  1  0  0  0  0
 10 11  1  0  0  0  0
 10  7  2  0  0  0  0
 11 12  2  0  0  0  0
 13 11  2  0  0  0  0
 14  1  1  0  0  0  0
 15  2  1  0  0  0  0
 17  4  1  0  0  0  0
 18  5  1  0  0  0  0
M  END
>  <HBA>
0

>  <HBD>
0

>  <TPSA>
45.82

>  <cid>
6849

>  <dipole>
4.67

>  <excitation_energy_1>
3.372

>  <excitation_energy_2>
3.671

>  <excitation_energy_3>
3.919

>  <excitation_energy_4>
4.239

>  <homo_energy>
-6.468

>  <homo_lumo_gap>
4.0

>  <logP>
3.271

>  <lumo_energy>
-2.468

>  <melting_point>
87.45

>  <molecular_refractivity>
52.77

>  <oscillator_strength_1>
0.1027

>  <oscillator_strength_2>
0.0002

>  <oscillator_strength_3>
0.0299

>  <oscillator_strength_4>
0.0023

>  <open_babel_can_smiles>
O=N(=O)c1cccc2c1cccc2

>  <mulliken_charges>
20
1   -0.125819
2   -0.135296
3   -0.146991
4   -0.194339
5   -0.164761
6   -0.174534
7   -0.146716
8   0.11531
9   0.115259
10   0.199253
11   0.355482
12   -0.387663
13   -0.392033
14   0.140501
15   0.143084
16   0.149267
17   0.139182
18   0.145809
19   0.181141
20   0.183863

>  <lowdin_charges>
20
1   -0.151422
2   -0.143957
3   -0.158094
4   -0.149342
5   -0.126067
6   -0.153583
7   -0.132207
8   0.003051
9   0.003921
10   0.003628
11   0.309745
12   -0.249133
13   -0.248613
14   0.16427
15   0.164903
16   0.168726
17   0.16007
18   0.163749
19   0.181874
20   0.18848

$$$$

