PCCDB-ID:  18848
public computational chemistry database (PCCDB) project, http://pccdb.org

 21 20  0  0  1  0  0  0  0  0999 V2000
    1.0592    1.4113   -2.3549 C   0  0  0  0  0  0  0  0  0  0  0  0
    5.9973    3.1245   -2.8142 C   0  0  0  0  0  0  0  0  0  0  0  0
    5.7466    0.2336   -0.7637 C   0  0  0  0  0  0  0  0  0  0  0  0
    2.4718    1.9472   -2.1005 C   0  0  0  0  0  0  0  0  0  0  0  0
    5.5429    1.8839   -2.6327 C   0  0  0  0  0  0  0  0  0  0  0  0
    3.4522    0.8569   -1.6510 C   0  0  0  0  0  0  0  0  0  0  0  0
    4.8895    1.3571   -1.3786 C   0  0  1  0  0  0  0  0  0  0  0  0
    0.3790    2.2106   -2.6707 H   0  0  0  0  0  0  0  0  0  0  0  0
    0.6377    0.9528   -1.4515 H   0  0  0  0  0  0  0  0  0  0  0  0
    1.0611    0.6464   -3.1416 H   0  0  0  0  0  0  0  0  0  0  0  0
    6.4712    3.4326   -3.7427 H   0  0  0  0  0  0  0  0  0  0  0  0
    5.9144    3.8826   -2.0376 H   0  0  0  0  0  0  0  0  0  0  0  0
    6.7564    0.5888   -0.5317 H   0  0  0  0  0  0  0  0  0  0  0  0
    5.8409   -0.6124   -1.4566 H   0  0  0  0  0  0  0  0  0  0  0  0
    5.2939   -0.1433    0.1613 H   0  0  0  0  0  0  0  0  0  0  0  0
    2.4324    2.7338   -1.3332 H   0  0  0  0  0  0  0  0  0  0  0  0
    2.8536    2.4301   -3.0088 H   0  0  0  0  0  0  0  0  0  0  0  0
    5.6507    1.1566   -3.4416 H   0  0  0  0  0  0  0  0  0  0  0  0
    3.4889    0.0616   -2.4117 H   0  0  0  0  0  0  0  0  0  0  0  0
    3.0695    0.3824   -0.7357 H   0  0  0  0  0  0  0  0  0  0  0  0
    4.8310    2.1809   -0.6520 H   0  0  0  0  0  0  0  0  0  0  0  0
  1  4  1  0  0  0  0
  1  9  1  0  0  0  0
  2  5  2  0  0  0  0
  2 12  1  0  0  0  0
  3 13  1  0  0  0  0
  3 15  1  0  0  0  0
  4  6  1  0  0  0  0
  4 16  1  0  0  0  0
  5  7  1  0  0  0  0
  6  7  1  0  0  0  0
  6 20  1  0  0  0  0
  7  3  1  0  0  0  0
  7 21  1  1  0  0  0
  8  1  1  0  0  0  0
 10  1  1  0  0  0  0
 11  2  1  0  0  0  0
 14  3  1  0  0  0  0
 17  4  1  0  0  0  0
 18  5  1  0  0  0  0
 19  6  1  0  0  0  0
M  END
>  <HBA>
0

>  <HBD>
0

>  <TPSA>
0.0

>  <cid>
18848

>  <dipole>
0.22

>  <excitation_energy_1>
6.496

>  <excitation_energy_2>
6.821

>  <excitation_energy_3>
6.828

>  <excitation_energy_4>
6.952

>  <homo_energy>
-6.787

>  <homo_lumo_gap>
7.475

>  <logP>
2.609

>  <lumo_energy>
0.688

>  <melting_point>
-47.83

>  <molecular_refractivity>
35.29

>  <oscillator_strength_1>
0.0528

>  <oscillator_strength_2>
0.0119

>  <oscillator_strength_3>
0.0019

>  <oscillator_strength_4>
0.3298

>  <open_babel_can_smiles>
C[C@@H](C=C)CCC

>  <mulliken_charges>
21
1   -0.441816
2   -0.348278
3   -0.446915
4   -0.24887
5   -0.032967
6   -0.249303
7   -0.117328
8   0.141615
9   0.139711
10   0.14034
11   0.136872
12   0.1344
13   0.149033
14   0.139878
15   0.141568
16   0.127789
17   0.142241
18   0.118742
19   0.123936
20   0.126553
21   0.1228

>  <lowdin_charges>
21
1   -0.446114
2   -0.347965
3   -0.441795
4   -0.275905
5   -0.142187
6   -0.274704
7   -0.122176
8   0.150062
9   0.145616
10   0.146119
11   0.157266
12   0.154095
13   0.151871
14   0.146942
15   0.148785
16   0.138759
17   0.146395
18   0.147535
19   0.137266
20   0.139933
21   0.140202

$$$$

