PCCDB-ID:  11731
public computational chemistry database (PCCDB) project, http://pccdb.org

 19 18  0  0  1  0  0  0  0  0999 V2000
    1.0454    0.0055    0.1199 C   0  0  0  0  0  0  0  0  0  0  0  0
    3.0061   -1.3886    0.8893 C   0  0  0  0  0  0  0  0  0  0  0  0
    4.5847   -0.0467   -1.5371 C   0  0  0  0  0  0  0  0  0  0  0  0
    2.5691   -0.1704    0.0588 C   0  0  0  0  0  0  0  0  0  0  0  0
    3.0619   -0.2276   -1.4110 C   0  0  2  0  0  0  0  0  0  0  0  0
    2.5554   -1.4445   -2.0727 N   0  0  0  0  0  0  0  0  0  0  0  0
    0.6950    0.0561    1.1578 H   0  0  0  0  0  0  0  0  0  0  0  0
    0.5459   -0.8326   -0.3764 H   0  0  0  0  0  0  0  0  0  0  0  0
    0.7325    0.9283   -0.3841 H   0  0  0  0  0  0  0  0  0  0  0  0
    2.7041   -1.2659    1.9358 H   0  0  0  0  0  0  0  0  0  0  0  0
    4.0926   -1.5347    0.8781 H   0  0  0  0  0  0  0  0  0  0  0  0
    2.5322   -2.3065    0.5211 H   0  0  0  0  0  0  0  0  0  0  0  0
    4.9241    0.8822   -1.0613 H   0  0  0  0  0  0  0  0  0  0  0  0
    4.8819   -0.0095   -2.5925 H   0  0  0  0  0  0  0  0  0  0  0  0
    5.1285   -0.8782   -1.0714 H   0  0  0  0  0  0  0  0  0  0  0  0
    3.0340    0.7216    0.5054 H   0  0  0  0  0  0  0  0  0  0  0  0
    2.5859    0.6152   -1.9320 H   0  0  0  0  0  0  0  0  0  0  0  0
    3.0999   -2.2496   -1.7628 H   0  0  0  0  0  0  0  0  0  0  0  0
    2.7182   -1.3749   -3.0765 H   0  0  0  0  0  0  0  0  0  0  0  0
  1  7  1  0  0  0  0
  2 10  1  0  0  0  0
  3  5  1  0  0  0  0
  3 15  1  0  0  0  0
  3 13  1  0  0  0  0
  4  1  1  0  0  0  0
  4 16  1  0  0  0  0
  4  2  1  0  0  0  0
  5 17  1  6  0  0  0
  5  4  1  0  0  0  0
  6 18  1  0  0  0  0
  6  5  1  0  0  0  0
  8  1  1  0  0  0  0
  9  1  1  0  0  0  0
 11  2  1  0  0  0  0
 12  2  1  0  0  0  0
 14  3  1  0  0  0  0
 19  6  1  0  0  0  0
M  END
>  <HBA>
1

>  <HBD>
1

>  <TPSA>
26.02

>  <cid>
11731

>  <dipole>
1.36

>  <excitation_energy_1>
5.639

>  <excitation_energy_2>
6.373

>  <excitation_energy_3>
6.476

>  <excitation_energy_4>
6.645

>  <homo_energy>
-6.248

>  <homo_lumo_gap>
8.188

>  <logP>
1.69

>  <lumo_energy>
1.94

>  <melting_point>
28.35

>  <molecular_refractivity>
28.86

>  <oscillator_strength_1>
0.0316

>  <oscillator_strength_2>
0.0055

>  <oscillator_strength_3>
0.005

>  <oscillator_strength_4>
0.0156

>  <open_babel_can_smiles>
C[C@H](C(C)C)N

>  <mulliken_charges>
19
1   -0.443993
2   -0.464718
3   -0.453651
4   -0.047314
5   0.027374
6   -0.712638
7   0.130793
8   0.166915
9   0.131053
10   0.143235
11   0.137448
12   0.14896
13   0.140141
14   0.133734
15   0.138156
16   0.115005
17   0.124692
18   0.291572
19   0.293235

>  <lowdin_charges>
19
1   -0.44626
2   -0.449125
3   -0.464059
4   -0.124575
5   -0.06787
6   -0.550494
7   0.142461
8   0.160306
9   0.143867
10   0.149771
11   0.142696
12   0.149685
13   0.149085
14   0.143778
15   0.145266
16   0.135103
17   0.138661
18   0.250156
19   0.251548

$$$$

