PCCDB-ID:  70772
public computational chemistry database (PCCDB) project, http://pccdb.org

 21 21  0  0  0  0  0  0  0  0999 V2000
    2.6568   -2.0812    1.0779 C   0  0  0  0  0  0  0  0  0  0  0  0
    3.9050   -1.6442    0.9165 C   0  0  0  0  0  0  0  0  0  0  0  0
    7.6457    2.9366    3.3687 C   0  0  0  0  0  0  0  0  0  0  0  0
    6.3753    3.3479    2.9697 C   0  0  0  0  0  0  0  0  0  0  0  0
    8.0883    1.6464    3.0682 C   0  0  0  0  0  0  0  0  0  0  0  0
    5.5488    2.4593    2.2775 C   0  0  0  0  0  0  0  0  0  0  0  0
    4.6414   -0.8060    1.9159 C   0  0  0  0  0  0  0  0  0  0  0  0
    7.2684    0.7612    2.3658 C   0  0  0  0  0  0  0  0  0  0  0  0
    5.9785    1.1690    1.9716 C   0  0  0  0  0  0  0  0  0  0  0  0
    7.6647   -0.5066    2.0265 O   0  0  0  0  0  0  0  0  0  0  0  0
    5.1624    0.3492    1.2289 O   0  0  0  0  0  0  0  0  0  0  0  0
    2.1748   -2.7206    0.3434 H   0  0  0  0  0  0  0  0  0  0  0  0
    2.0678   -1.8198    1.9547 H   0  0  0  0  0  0  0  0  0  0  0  0
    4.4736   -1.9100    0.0262 H   0  0  0  0  0  0  0  0  0  0  0  0
    8.3000    3.6140    3.9099 H   0  0  0  0  0  0  0  0  0  0  0  0
    6.0254    4.3511    3.1946 H   0  0  0  0  0  0  0  0  0  0  0  0
    9.0830    1.3226    3.3720 H   0  0  0  0  0  0  0  0  0  0  0  0
    4.5553    2.7508    1.9498 H   0  0  0  0  0  0  0  0  0  0  0  0
    5.4729   -1.3744    2.3513 H   0  0  0  0  0  0  0  0  0  0  0  0
    3.9756   -0.4857    2.7298 H   0  0  0  0  0  0  0  0  0  0  0  0
    8.5677   -0.6447    2.3522 H   0  0  0  0  0  0  0  0  0  0  0  0
  1 13  1  0  0  0  0
  2  1  2  0  0  0  0
  2  7  1  0  0  0  0
  3 15  1  0  0  0  0
  4 16  1  0  0  0  0
  4  3  2  0  0  0  0
  5  3  1  0  0  0  0
  5 17  1  0  0  0  0
  6  4  1  0  0  0  0
  7 19  1  0  0  0  0
  7 20  1  0  0  0  0
  8  5  2  0  0  0  0
  9  6  2  0  0  0  0
  9  8  1  0  0  0  0
 10 21  1  0  0  0  0
 10  8  1  0  0  0  0
 11  7  1  0  0  0  0
 11  9  1  0  0  0  0
 12  1  1  0  0  0  0
 14  2  1  0  0  0  0
 18  6  1  0  0  0  0
M  END
>  <HBA>
2

>  <HBD>
1

>  <TPSA>
29.46

>  <cid>
70772

>  <dipole>
2.16

>  <excitation_energy_1>
5.015

>  <excitation_energy_2>
5.104

>  <excitation_energy_3>
5.427

>  <excitation_energy_4>
5.679

>  <homo_energy>
-5.856

>  <homo_lumo_gap>
5.962

>  <logP>
1.957

>  <lumo_energy>
0.106

>  <melting_point>
27.47

>  <molecular_refractivity>
44.1

>  <oscillator_strength_1>
0.0475

>  <oscillator_strength_2>
0.0001

>  <oscillator_strength_3>
0.0091

>  <oscillator_strength_4>
0.0317

>  <open_babel_can_smiles>
C=CCOc1ccccc1O

>  <mulliken_charges>
21
1   -0.337496
2   -0.052871
3   -0.132459
4   -0.142621
5   -0.200355
6   -0.175813
7   -0.075218
8   0.313685
9   0.335345
10   -0.642599
11   -0.537505
12   0.144508
13   0.139245
14   0.144502
15   0.128771
16   0.128292
17   0.118372
18   0.13815
19   0.163994
20   0.133026
21   0.409047

>  <lowdin_charges>
21
1   -0.331291
2   -0.147684
3   -0.158353
4   -0.172163
5   -0.209992
6   -0.167154
7   -0.12315
8   0.078485
9   0.066866
10   -0.376976
11   -0.226761
12   0.162345
13   0.156294
14   0.1614
15   0.160127
16   0.157868
17   0.152311
18   0.166648
19   0.154839
20   0.138302
21   0.358037

$$$$

