PCCDB-ID:  70795
public computational chemistry database (PCCDB) project, http://pccdb.org

 21 21  0  0  0  0  0  0  0  0999 V2000
   -1.2195    0.1122   -0.0922 C   0  0  0  0  0  0  0  0  0  0  0  0
   -0.6195    1.3779   -0.1003 C   0  0  0  0  0  0  0  0  0  0  0  0
    0.9619   -0.9022   -0.0381 C   0  0  0  0  0  0  0  0  0  0  0  0
   -1.0651   -2.4224   -0.0825 C   0  0  0  0  0  0  0  0  0  0  0  0
   -0.4369   -1.0432   -0.0571 C   0  0  0  0  0  0  0  0  0  0  0  0
    0.7647    1.5121   -0.0762 C   0  0  0  0  0  0  0  0  0  0  0  0
    1.5677    0.3495   -0.0449 C   0  0  0  0  0  0  0  0  0  0  0  0
   -0.9594   -3.1259   -1.4400 C   0  0  0  0  0  0  0  0  0  0  0  0
   -0.7240   -4.3559   -1.6499 N   0  0  0  0  0  0  0  0  0  0  0  0
    1.4134    2.7112   -0.0785 O   0  0  0  0  0  0  0  0  0  0  0  0
    2.9176    0.5351   -0.0224 O   0  0  0  0  0  0  0  0  0  0  0  0
   -1.2025   -2.3322   -2.5149 O   0  0  0  0  0  0  0  0  0  0  0  0
   -2.3039    0.0358   -0.0911 H   0  0  0  0  0  0  0  0  0  0  0  0
   -1.2393    2.2724   -0.1202 H   0  0  0  0  0  0  0  0  0  0  0  0
    1.5914   -1.7911   -0.0201 H   0  0  0  0  0  0  0  0  0  0  0  0
   -2.1318   -2.3376    0.1656 H   0  0  0  0  0  0  0  0  0  0  0  0
   -0.6142   -3.0704    0.6769 H   0  0  0  0  0  0  0  0  0  0  0  0
   -0.5848   -4.8380   -0.7604 H   0  0  0  0  0  0  0  0  0  0  0  0
    0.7531    3.4214   -0.0998 H   0  0  0  0  0  0  0  0  0  0  0  0
    3.3514   -0.3325   -0.0315 H   0  0  0  0  0  0  0  0  0  0  0  0
   -1.2232   -1.4058   -2.2187 H   0  0  0  0  0  0  0  0  0  0  0  0
  1 13  1  0  0  0  0
  1  5  1  0  0  0  0
  2  1  2  0  0  0  0
  2  6  1  0  0  0  0
  3 15  1  0  0  0  0
  4  5  1  0  0  0  0
  4 16  1  0  0  0  0
  4 17  1  0  0  0  0
  5  3  2  0  0  0  0
  6  7  2  0  0  0  0
  7  3  1  0  0  0  0
  7 11  1  0  0  0  0
  8  4  1  0  0  0  0
  9  8  2  0  0  0  0
  9 18  1  0  0  0  0
 10  6  1  0  0  0  0
 12 21  1  0  0  0  0
 12  8  1  0  0  0  0
 14  2  1  0  0  0  0
 19 10  1  0  0  0  0
 20 11  1  0  0  0  0
M  END
>  <HBA>
4

>  <HBD>
3

>  <TPSA>
83.55

>  <cid>
70795

>  <dipole>
4.41

>  <excitation_energy_1>
4.758

>  <excitation_energy_2>
5.031

>  <excitation_energy_3>
5.293

>  <excitation_energy_4>
5.345

>  <homo_energy>
-6.003

>  <homo_lumo_gap>
5.584

>  <logP>
0.826

>  <lumo_energy>
-0.419

>  <melting_point>
164.08

>  <molecular_refractivity>
43.17

>  <oscillator_strength_1>
0.0731

>  <oscillator_strength_2>
0.001

>  <oscillator_strength_3>
0.0179

>  <oscillator_strength_4>
0.0382

>  <open_babel_can_smiles>
OC(=N)Cc1ccc(c(c1)O)O

>  <mulliken_charges>
21
1   -0.216491
2   -0.192031
3   -0.237032
4   -0.438976
5   0.116576
6   0.323191
7   0.332213
8   0.489277
9   -0.587106
10   -0.625491
11   -0.627482
12   -0.577587
13   0.133996
14   0.127685
15   0.130067
16   0.178341
17   0.159652
18   0.278546
19   0.410749
20   0.412563
21   0.409341

>  <lowdin_charges>
21
1   -0.189668
2   -0.205057
3   -0.210936
4   -0.306888
5   -0.03141
6   0.081869
7   0.087711
8   0.119485
9   -0.399774
10   -0.362629
11   -0.361659
12   -0.361794
13   0.157847
14   0.159052
15   0.159877
16   0.169116
17   0.164702
18   0.252863
19   0.361806
20   0.361341
21   0.354146

$$$$

