PCCDB-ID:  20820
public computational chemistry database (PCCDB) project, http://pccdb.org

 26 27  0  0  0  0  0  0  0  0999 V2000
   -1.1793   -3.8306   -2.0998 C   0  0  0  0  0  0  0  0  0  0  0  0
   -0.1870    0.6624    4.1951 C   0  0  0  0  0  0  0  0  0  0  0  0
   -0.6260    1.9958    4.2507 C   0  0  0  0  0  0  0  0  0  0  0  0
    0.0420    0.0372    2.9748 C   0  0  0  0  0  0  0  0  0  0  0  0
   -0.8425    2.7262    3.0841 C   0  0  0  0  0  0  0  0  0  0  0  0
   -0.2582   -1.4432   -1.8089 C   0  0  0  0  0  0  0  0  0  0  0  0
   -0.6205   -2.5867   -2.7452 C   0  0  0  0  0  0  0  0  0  0  0  0
   -0.1715    0.7536    1.7876 C   0  0  0  0  0  0  0  0  0  0  0  0
   -0.6116    2.1004    1.8576 C   0  0  0  0  0  0  0  0  0  0  0  0
   -0.1353   -0.0470   -2.4109 C   0  0  0  0  0  0  0  0  0  0  0  0
   -0.2644    1.1426   -0.3975 C   0  0  0  0  0  0  0  0  0  0  0  0
    0.0134    0.2468    0.5126 N   0  0  0  0  0  0  0  0  0  0  0  0
   -0.1731    1.0606   -1.7578 N   0  0  0  0  0  0  0  0  0  0  0  0
   -0.4509   -2.5237   -3.9578 O   0  0  0  0  0  0  0  0  0  0  0  0
    0.0411    0.0401   -3.7277 O   0  0  0  0  0  0  0  0  0  0  0  0
   -0.7781    2.7353    0.2337 S   0  0  0  0  0  0  0  0  0  0  0  0
   -2.1874   -3.6211   -1.7188 H   0  0  0  0  0  0  0  0  0  0  0  0
   -0.5705   -4.1318   -1.2394 H   0  0  0  0  0  0  0  0  0  0  0  0
   -1.2299   -4.6405   -2.8297 H   0  0  0  0  0  0  0  0  0  0  0  0
   -0.0245    0.1136    5.1185 H   0  0  0  0  0  0  0  0  0  0  0  0
   -0.7974    2.4665    5.2147 H   0  0  0  0  0  0  0  0  0  0  0  0
    0.3825   -0.9923    2.9200 H   0  0  0  0  0  0  0  0  0  0  0  0
   -1.1787    3.7577    3.1304 H   0  0  0  0  0  0  0  0  0  0  0  0
    0.7082   -1.6978   -1.3469 H   0  0  0  0  0  0  0  0  0  0  0  0
   -0.9386   -1.4116   -0.9535 H   0  0  0  0  0  0  0  0  0  0  0  0
   -0.0284   -0.8672   -4.1180 H   0  0  0  0  0  0  0  0  0  0  0  0
  1 17  1  0  0  0  0
  1 18  1  0  0  0  0
  2  3  1  0  0  0  0
  2 20  1  0  0  0  0
  3 21  1  0  0  0  0
  4  2  2  0  0  0  0
  5 23  1  0  0  0  0
  5  3  2  0  0  0  0
  6 24  1  0  0  0  0
  6 25  1  0  0  0  0
  7  1  1  0  0  0  0
  7  6  1  0  0  0  0
  8  9  2  0  0  0  0
  8  4  1  0  0  0  0
  9  5  1  0  0  0  0
 10  6  1  0  0  0  0
 10 13  2  0  0  0  0
 11 16  1  0  0  0  0
 11 12  2  0  0  0  0
 12  8  1  0  0  0  0
 13 11  1  0  0  0  0
 14  7  2  0  0  0  0
 15 10  1  0  0  0  0
 16  9  1  0  0  0  0
 19  1  1  0  0  0  0
 22  4  1  0  0  0  0
 26 15  1  0  0  0  0
M  END
>  <HBA>
5

>  <HBD>
1

>  <TPSA>
87.3

>  <cid>
20820

>  <dipole>
4.86

>  <excitation_energy_1>
3.772

>  <excitation_energy_2>
4.181

>  <excitation_energy_3>
4.202

>  <excitation_energy_4>
4.327

>  <homo_energy>
-5.902

>  <homo_lumo_gap>
4.367

>  <logP>
2.287

>  <lumo_energy>
-1.535

>  <melting_point>
138.73

>  <molecular_refractivity>
63.75

>  <oscillator_strength_1>
0.0103

>  <oscillator_strength_2>
0.0572

>  <oscillator_strength_3>
0.3144

>  <oscillator_strength_4>
0.1096

>  <open_babel_can_smiles>
CC(=O)C/C(=N\c1nc2c(s1)cccc2)/O

>  <mulliken_charges>
26
1   -0.531175
2   -0.148527
3   -0.119816
4   -0.150867
5   -0.186558
6   -0.453112
7   0.467524
8   0.296026
9   -0.12595
10   0.507053
11   0.269632
12   -0.534777
13   -0.480377
14   -0.460988
15   -0.570363
16   0.222173
17   0.193129
18   0.184782
19   0.194525
20   0.129955
21   0.131047
22   0.130699
23   0.142704
24   0.231799
25   0.21526
26   0.446198

>  <lowdin_charges>
26
1   -0.465995
2   -0.161792
3   -0.160801
4   -0.162066
5   -0.160409
6   -0.3456
7   0.183696
8   0.020558
9   -0.154902
10   0.175906
11   -0.022634
12   -0.209483
13   -0.191421
14   -0.242351
15   -0.330637
16   0.265491
17   0.1845
18   0.179375
19   0.18181
20   0.159084
21   0.159693
22   0.162035
23   0.163771
24   0.20945
25   0.197868
26   0.364853

$$$$

