PCCDB-ID:  1567
public computational chemistry database (PCCDB) project, http://pccdb.org

 10  9  0  0  0  0  0  0  0  0999 V2000
    0.9482   -0.0106    0.0870 C   0  0  0  0  0  0  0  0  0  0  0  0
    0.3926   -1.3111    0.6717 C   0  0  0  0  0  0  0  0  0  0  0  0
    2.3690   -0.0178    0.0457 O   0  0  0  0  0  0  0  0  0  0  0  0
   -1.4447   -1.4123    0.6266 S   0  0  0  0  0  0  0  0  0  0  0  0
    0.5642    0.8532    0.6531 H   0  0  0  0  0  0  0  0  0  0  0  0
    0.6140    0.1012   -0.9479 H   0  0  0  0  0  0  0  0  0  0  0  0
    0.7429   -1.4623    1.6991 H   0  0  0  0  0  0  0  0  0  0  0  0
    0.7433   -2.1595    0.0769 H   0  0  0  0  0  0  0  0  0  0  0  0
    2.6945    0.0241    0.9582 H   0  0  0  0  0  0  0  0  0  0  0  0
   -1.6827   -0.3853    1.4726 H   0  0  0  0  0  0  0  0  0  0  0  0
  1  5  1  0  0  0  0
  1  2  1  0  0  0  0
  2  7  1  0  0  0  0
  3  1  1  0  0  0  0
  3  9  1  0  0  0  0
  4  2  1  0  0  0  0
  4 10  1  0  0  0  0
  6  1  1  0  0  0  0
  8  2  1  0  0  0  0
M  END
>  <HBA>
2

>  <HBD>
2

>  <TPSA>
59.03

>  <cid>
1567

>  <dipole>
2.21

>  <excitation_energy_1>
5.237

>  <excitation_energy_2>
5.816

>  <excitation_energy_3>
6.309

>  <excitation_energy_4>
6.591

>  <homo_energy>
-6.566

>  <homo_lumo_gap>
7.119

>  <logP>
-0.091

>  <lumo_energy>
0.552

>  <melting_point>
14.97

>  <molecular_refractivity>
20.82

>  <oscillator_strength_1>
0.0032

>  <oscillator_strength_2>
0.0472

>  <oscillator_strength_3>
0.0017

>  <oscillator_strength_4>
0.0216

>  <open_babel_can_smiles>
OCCS

>  <mulliken_charges>
10
1   -0.023784
2   -0.428507
3   -0.606516
4   -0.077159
5   0.123969
6   0.169423
7   0.166632
8   0.194255
9   0.389716
10   0.091971

>  <lowdin_charges>
10
1   -0.140269
2   -0.391861
3   -0.460754
4   -0.077953
5   0.129579
6   0.157846
7   0.153427
8   0.176662
9   0.341215
10   0.11211

$$$$

