PCCDB-ID:  39237
public computational chemistry database (PCCDB) project, http://pccdb.org

 25 26  0  0  1  0  0  0  0  0999 V2000
   -1.8053   -0.9329   -1.8747 C   0  0  0  0  0  0  0  0  0  0  0  0
   -1.3381   -1.0204   -0.5612 C   0  0  0  0  0  0  0  0  0  0  0  0
   -0.9925   -0.3664   -2.8558 C   0  0  0  0  0  0  0  0  0  0  0  0
   -0.0676   -0.5488   -0.2400 C   0  0  0  0  0  0  0  0  0  0  0  0
    0.2804    0.1088   -2.5317 C   0  0  0  0  0  0  0  0  0  0  0  0
    3.8083   -0.5083   -2.5225 C   0  0  0  0  0  0  0  0  0  0  0  0
    0.7604    0.0171   -1.2199 C   0  0  0  0  0  0  0  0  0  0  0  0
    3.8119    1.0312   -2.5548 C   0  0  1  0  0  0  0  0  0  0  0  0
    2.1458    0.4785   -0.8080 C   0  0  2  0  0  0  0  0  0  0  0  0
    3.6383    1.5506   -3.9948 C   0  0  0  0  0  0  0  0  0  0  0  0
    2.7347    1.5280   -1.6638 N   0  0  0  0  0  0  0  0  0  0  0  0
    4.4223    1.2849   -4.8731 O   0  0  0  0  0  0  0  0  0  0  0  0
    2.5442    2.3101   -4.1823 O   0  0  0  0  0  0  0  0  0  0  0  0
    3.3862   -0.9325   -0.7973 S   0  0  0  0  0  0  0  0  0  0  0  0
   -2.7962   -1.2990   -2.1287 H   0  0  0  0  0  0  0  0  0  0  0  0
   -1.9649   -1.4524    0.2143 H   0  0  0  0  0  0  0  0  0  0  0  0
   -1.3486   -0.2843   -3.8792 H   0  0  0  0  0  0  0  0  0  0  0  0
    0.2895   -0.6237    0.7852 H   0  0  0  0  0  0  0  0  0  0  0  0
    0.8866    0.5648   -3.3060 H   0  0  0  0  0  0  0  0  0  0  0  0
    4.7868   -0.9119   -2.7851 H   0  0  0  0  0  0  0  0  0  0  0  0
    3.0645   -0.9245   -3.2088 H   0  0  0  0  0  0  0  0  0  0  0  0
    4.7888    1.3835   -2.2054 H   0  0  0  0  0  0  0  0  0  0  0  0
    2.0989    0.8439    0.2213 H   0  0  0  0  0  0  0  0  0  0  0  0
    3.1127    2.2559   -1.0647 H   0  0  0  0  0  0  0  0  0  0  0  0
    2.1059    2.3525   -3.2966 H   0  0  0  0  0  0  0  0  0  0  0  0
  1  2  2  0  0  0  0
  2  4  1  0  0  0  0
  2 16  1  0  0  0  0
  3  5  2  0  0  0  0
  3  1  1  0  0  0  0
  4 18  1  0  0  0  0
  5  7  1  0  0  0  0
  6 14  1  0  0  0  0
  7  9  1  0  0  0  0
  7  4  2  0  0  0  0
  8  6  1  0  0  0  0
  8 22  1  1  0  0  0
  8 11  1  0  0  0  0
  9 14  1  0  0  0  0
  9 23  1  1  0  0  0
 10  8  1  0  0  0  0
 11 24  1  0  0  0  0
 11  9  1  0  0  0  0
 12 10  2  0  0  0  0
 13 10  1  0  0  0  0
 13 25  1  0  0  0  0
 15  1  1  0  0  0  0
 17  3  1  0  0  0  0
 19  5  1  0  0  0  0
 20  6  1  0  0  0  0
 21  6  1  0  0  0  0
M  END
>  <HBA>
4

>  <HBD>
2

>  <TPSA>
74.63

>  <cid>
39237

>  <dipole>
4.24

>  <excitation_energy_1>
4.532

>  <excitation_energy_2>
5.042

>  <excitation_energy_3>
5.183

>  <excitation_energy_4>
5.326

>  <homo_energy>
-6.362

>  <homo_lumo_gap>
5.657

>  <logP>
1.804

>  <lumo_energy>
-0.705

>  <melting_point>
141.04

>  <molecular_refractivity>
59.79

>  <oscillator_strength_1>
0.0287

>  <oscillator_strength_2>
0.0011

>  <oscillator_strength_3>
0.0289

>  <oscillator_strength_4>
0.0059

>  <open_babel_can_smiles>
OC(=O)[C@@H]1CS[C@@H](N1)c1ccccc1

>  <mulliken_charges>
25
1   -0.126752
2   -0.128572
3   -0.133506
4   -0.172653
5   -0.184276
6   -0.431198
7   0.211624
8   -0.069677
9   -0.243102
10   0.600045
11   -0.604394
12   -0.454709
13   -0.57518
14   0.111143
15   0.134713
16   0.134897
17   0.139127
18   0.127172
19   0.127094
20   0.208375
21   0.198646
22   0.185726
23   0.178307
24   0.333137
25   0.434012

>  <lowdin_charges>
25
1   -0.153309
2   -0.151617
3   -0.148302
4   -0.159356
5   -0.172789
6   -0.372572
7   -0.017748
8   -0.113043
9   -0.149819
10   0.176663
11   -0.35965
12   -0.250109
13   -0.353065
14   0.094953
15   0.159851
16   0.16173
17   0.161244
18   0.155405
19   0.159843
20   0.18896
21   0.170762
22   0.170504
23   0.166657
24   0.279048
25   0.35576

$$$$

