PCCDB-ID:  15904
public computational chemistry database (PCCDB) project, http://pccdb.org

 24 24  0  0  0  0  0  0  0  0999 V2000
    1.7416    1.8878   -0.1912 C   0  0  0  0  0  0  0  0  0  0  0  0
    6.1056    1.2487    2.2389 C   0  0  0  0  0  0  0  0  0  0  0  0
    6.1713   -0.1963    1.7244 C   0  0  0  0  0  0  0  0  0  0  0  0
    4.9012    2.0617    1.7470 C   0  0  0  0  0  0  0  0  0  0  0  0
    4.9986   -1.0962    2.1712 C   0  0  0  0  0  0  0  0  0  0  0  0
    3.5466    1.3839    2.0082 C   0  0  0  0  0  0  0  0  0  0  0  0
    2.4747    0.5520   -0.1123 C   0  0  0  0  0  0  0  0  0  0  0  0
    3.7379   -1.0090    1.3103 C   0  0  0  0  0  0  0  0  0  0  0  0
    3.2206    0.2955    1.0679 N   0  0  0  0  0  0  0  0  0  0  0  0
    2.4225   -0.2351   -1.0324 O   0  0  0  0  0  0  0  0  0  0  0  0
    3.2226   -2.0056    0.8553 O   0  0  0  0  0  0  0  0  0  0  0  0
    2.4277    2.7422   -0.1860 H   0  0  0  0  0  0  0  0  0  0  0  0
    1.0346    2.0180    0.6361 H   0  0  0  0  0  0  0  0  0  0  0  0
    1.1922    1.8870   -1.1331 H   0  0  0  0  0  0  0  0  0  0  0  0
    7.0281    1.7732    1.9593 H   0  0  0  0  0  0  0  0  0  0  0  0
    6.0886    1.2259    3.3389 H   0  0  0  0  0  0  0  0  0  0  0  0
    7.0997   -0.6492    2.0932 H   0  0  0  0  0  0  0  0  0  0  0  0
    6.2430   -0.2063    0.6285 H   0  0  0  0  0  0  0  0  0  0  0  0
    4.9902    2.2630    0.6709 H   0  0  0  0  0  0  0  0  0  0  0  0
    4.9025    3.0379    2.2501 H   0  0  0  0  0  0  0  0  0  0  0  0
    4.7533   -0.8928    3.2236 H   0  0  0  0  0  0  0  0  0  0  0  0
    5.2849   -2.1494    2.1196 H   0  0  0  0  0  0  0  0  0  0  0  0
    2.7462    2.1208    1.9545 H   0  0  0  0  0  0  0  0  0  0  0  0
    3.5125    0.9855    3.0278 H   0  0  0  0  0  0  0  0  0  0  0  0
  1 12  1  0  0  0  0
  1  7  1  0  0  0  0
  1 13  1  0  0  0  0
  2 16  1  0  0  0  0
  3 17  1  0  0  0  0
  3  5  1  0  0  0  0
  3  2  1  0  0  0  0
  4  6  1  0  0  0  0
  4  2  1  0  0  0  0
  4 20  1  0  0  0  0
  5 21  1  0  0  0  0
  6 24  1  0  0  0  0
  7  9  1  0  0  0  0
  8  5  1  0  0  0  0
  9  8  1  0  0  0  0
  9  6  1  0  0  0  0
 10  7  2  0  0  0  0
 11  8  2  0  0  0  0
 14  1  1  0  0  0  0
 15  2  1  0  0  0  0
 18  3  1  0  0  0  0
 19  4  1  0  0  0  0
 22  5  1  0  0  0  0
 23  6  1  0  0  0  0
M  END
>  <HBA>
3

>  <HBD>
0

>  <TPSA>
37.38

>  <cid>
15904

>  <dipole>
6.07

>  <excitation_energy_1>
4.269

>  <excitation_energy_2>
5.144

>  <excitation_energy_3>
5.726

>  <excitation_energy_4>
5.772

>  <homo_energy>
-6.359

>  <homo_lumo_gap>
5.875

>  <logP>
0.873

>  <lumo_energy>
-0.484

>  <melting_point>
40.1

>  <molecular_refractivity>
45.67

>  <oscillator_strength_1>
0.0017

>  <oscillator_strength_2>
0.0006

>  <oscillator_strength_3>
0.0901

>  <oscillator_strength_4>
0.0386

>  <open_babel_can_smiles>
CC(=O)N1CCCCCC1=O

>  <mulliken_charges>
24
1   -0.558734
2   -0.264408
3   -0.266601
4   -0.254124
5   -0.368258
6   -0.174522
7   0.580997
8   0.578483
9   -0.477897
10   -0.434065
11   -0.431229
12   0.171681
13   0.174852
14   0.193674
15   0.142975
16   0.133602
17   0.148785
18   0.154453
19   0.146954
20   0.140836
21   0.15561
22   0.180673
23   0.167388
24   0.158877

>  <lowdin_charges>
24
1   -0.479079
2   -0.275853
3   -0.274463
4   -0.284892
5   -0.308236
6   -0.204973
7   0.181375
8   0.179495
9   -0.123501
10   -0.2397
11   -0.225818
12   0.168241
13   0.169263
14   0.182001
15   0.15036
16   0.137329
17   0.15434
18   0.149224
19   0.146192
20   0.150118
21   0.156584
22   0.173935
23   0.165637
24   0.152419

$$$$

