PCCDB-ID:  20591
public computational chemistry database (PCCDB) project, http://pccdb.org

 20 20  0  0  0  0  0  0  0  0999 V2000
    3.1696   -1.5062    0.0069 C   0  0  0  0  0  0  0  0  0  0  0  0
    3.2546    3.5519   -0.1639 C   0  0  0  0  0  0  0  0  0  0  0  0
    2.6579    2.3144   -0.3130 C   0  0  0  0  0  0  0  0  0  0  0  0
    4.6316    3.6233    0.0895 C   0  0  0  0  0  0  0  0  0  0  0  0
    2.5817   -0.1425   -0.3301 C   0  0  0  0  0  0  0  0  0  0  0  0
    3.3937    1.1131   -0.2073 C   0  0  0  0  0  0  0  0  0  0  0  0
    5.3785    2.4616    0.1785 C   0  0  0  0  0  0  0  0  0  0  0  0
    4.7890    1.1799    0.0264 C   0  0  0  0  0  0  0  0  0  0  0  0
    5.6423    0.0876    0.1624 N   0  0  0  0  0  0  0  0  0  0  0  0
    1.4090   -0.0829   -0.6778 O   0  0  0  0  0  0  0  0  0  0  0  0
    6.7387    2.4564    0.4058 O   0  0  0  0  0  0  0  0  0  0  0  0
    3.8016   -1.4832    0.8995 H   0  0  0  0  0  0  0  0  0  0  0  0
    3.7764   -1.8813   -0.8305 H   0  0  0  0  0  0  0  0  0  0  0  0
    2.3396   -2.2020    0.1456 H   0  0  0  0  0  0  0  0  0  0  0  0
    2.6690    4.4631   -0.2376 H   0  0  0  0  0  0  0  0  0  0  0  0
    1.5951    2.2227   -0.5040 H   0  0  0  0  0  0  0  0  0  0  0  0
    5.1236    4.5876    0.2080 H   0  0  0  0  0  0  0  0  0  0  0  0
    5.4353   -0.7224   -0.4024 H   0  0  0  0  0  0  0  0  0  0  0  0
    6.6211    0.3452    0.1271 H   0  0  0  0  0  0  0  0  0  0  0  0
    7.0545    3.3711    0.4537 H   0  0  0  0  0  0  0  0  0  0  0  0
  1 14  1  0  0  0  0
  1 12  1  0  0  0  0
  2  4  2  0  0  0  0
  3  6  2  0  0  0  0
  3  2  1  0  0  0  0
  4  7  1  0  0  0  0
  4 17  1  0  0  0  0
  5  6  1  0  0  0  0
  5  1  1  0  0  0  0
  6  8  1  0  0  0  0
  7 11  1  0  0  0  0
  8  9  1  0  0  0  0
  8  7  2  0  0  0  0
 10  5  2  0  0  0  0
 11 20  1  0  0  0  0
 13  1  1  0  0  0  0
 15  2  1  0  0  0  0
 16  3  1  0  0  0  0
 18  9  1  0  0  0  0
 19  9  1  0  0  0  0
M  END
>  <HBA>
3

>  <HBD>
2

>  <TPSA>
63.32

>  <cid>
20591

>  <dipole>
4.33

>  <excitation_energy_1>
3.755

>  <excitation_energy_2>
3.836

>  <excitation_energy_3>
4.635

>  <excitation_energy_4>
4.807

>  <homo_energy>
-5.532

>  <homo_lumo_gap>
4.376

>  <logP>
1.758

>  <lumo_energy>
-1.156

>  <melting_point>
129.34

>  <molecular_refractivity>
43.06

>  <oscillator_strength_1>
0.0785

>  <oscillator_strength_2>
0.0007

>  <oscillator_strength_3>
0.0023

>  <oscillator_strength_4>
0.1444

>  <open_babel_can_smiles>
CC(=O)c1cccc(c1N)O

>  <mulliken_charges>
20
1   -0.563994
2   -0.141246
3   -0.175379
4   -0.190043
5   0.410017
6   0.03185
7   0.325279
8   0.211909
9   -0.807573
10   -0.461688
11   -0.673663
12   0.189069
13   0.158084
14   0.182108
15   0.130929
16   0.161749
17   0.120907
18   0.326353
19   0.351126
20   0.414206

>  <lowdin_charges>
20
1   -0.480545
2   -0.1746
3   -0.138429
4   -0.192303
5   0.157721
6   -0.085631
7   0.070341
8   0.04379
9   -0.478635
10   -0.255797
11   -0.397831
12   0.174204
13   0.162525
14   0.176193
15   0.160505
16   0.175977
17   0.154899
18   0.278801
19   0.287456
20   0.36136

$$$$

