PCCDB-ID:  14486
public computational chemistry database (PCCDB) project, http://pccdb.org

 18 17  0  0  0  0  0  0  0  0999 V2000
    3.1258    1.5534    0.0950 C   0  0  0  0  0  0  0  0  0  0  0  0
    2.4997    0.1803   -0.1650 C   0  0  0  0  0  0  0  0  0  0  0  0
    2.9371   -0.9032    0.8455 C   0  0  0  0  0  0  0  0  0  0  0  0
    4.3972   -1.2427    0.7595 C   0  0  0  0  0  0  0  0  0  0  0  0
    5.2851   -1.1201    1.7556 C   0  0  0  0  0  0  0  0  0  0  0  0
    6.7456   -1.3929    1.6542 C   0  0  0  0  0  0  0  0  0  0  0  0
    7.5541   -0.8913    2.3991 O   0  0  0  0  0  0  0  0  0  0  0  0
    7.1598   -2.2343    0.6634 O   0  0  0  0  0  0  0  0  0  0  0  0
    2.7792    2.2877   -0.6403 H   0  0  0  0  0  0  0  0  0  0  0  0
    4.2193    1.5140    0.0404 H   0  0  0  0  0  0  0  0  0  0  0  0
    2.8582    1.9266    1.0911 H   0  0  0  0  0  0  0  0  0  0  0  0
    2.7482   -0.1552   -1.1816 H   0  0  0  0  0  0  0  0  0  0  0  0
    1.4058    0.2596   -0.1291 H   0  0  0  0  0  0  0  0  0  0  0  0
    2.3554   -1.8163    0.6487 H   0  0  0  0  0  0  0  0  0  0  0  0
    2.6901   -0.5835    1.8657 H   0  0  0  0  0  0  0  0  0  0  0  0
    4.7325   -1.5867   -0.2230 H   0  0  0  0  0  0  0  0  0  0  0  0
    4.9845   -0.7170    2.7193 H   0  0  0  0  0  0  0  0  0  0  0  0
    6.3911   -2.6731    0.2646 H   0  0  0  0  0  0  0  0  0  0  0  0
  1 11  1  0  0  0  0
  2 13  1  0  0  0  0
  2  1  1  0  0  0  0
  2  3  1  0  0  0  0
  3 15  1  0  0  0  0
  4  3  1  0  0  0  0
  4  5  2  0  0  0  0
  5 17  1  0  0  0  0
  6  5  1  0  0  0  0
  6  7  2  0  0  0  0
  8  6  1  0  0  0  0
  9  1  1  0  0  0  0
 10  1  1  0  0  0  0
 12  2  1  0  0  0  0
 14  3  1  0  0  0  0
 16  4  1  0  0  0  0
 18  8  1  0  0  0  0
M  END
>  <HBA>
2

>  <HBD>
1

>  <TPSA>
37.3

>  <cid>
14486

>  <dipole>
5.24

>  <excitation_energy_1>
4.648

>  <excitation_energy_2>
6.07

>  <excitation_energy_3>
6.488

>  <excitation_energy_4>
6.62

>  <homo_energy>
-7.252

>  <homo_lumo_gap>
5.992

>  <logP>
1.427

>  <lumo_energy>
-1.26

>  <melting_point>
60.39

>  <molecular_refractivity>
32.25

>  <oscillator_strength_1>
0.0055

>  <oscillator_strength_2>
0.3895

>  <oscillator_strength_3>
0.0344

>  <oscillator_strength_4>
0.0391

>  <open_babel_can_smiles>
CCC/C=C/C(=O)O

>  <mulliken_charges>
18
1   -0.442162
2   -0.257887
3   -0.306149
4   -0.091404
5   -0.188248
6   0.572155
7   -0.447882
8   -0.573185
9   0.149778
10   0.156791
11   0.146576
12   0.137223
13   0.144016
14   0.153735
15   0.151769
16   0.12876
17   0.161067
18   0.405046

>  <lowdin_charges>
18
1   -0.445736
2   -0.267163
3   -0.271476
4   -0.129412
5   -0.21024
6   0.193096
7   -0.238589
8   -0.36461
9   0.155037
10   0.15218
11   0.149079
12   0.141203
13   0.146021
14   0.158554
15   0.152049
16   0.147917
17   0.176289
18   0.355802

$$$$

