PCCDB-ID:  25740
public computational chemistry database (PCCDB) project, http://pccdb.org

 31 32  0  0  0  0  0  0  0  0999 V2000
    5.3765    1.9341   -2.6798 C   0  0  0  0  0  0  0  0  0  0  0  0
    4.5284    1.4420   -3.6760 C   0  0  0  0  0  0  0  0  0  0  0  0
    5.5752    1.1813   -1.5217 C   0  0  0  0  0  0  0  0  0  0  0  0
    1.9710   -1.1878    3.1639 C   0  0  0  0  0  0  0  0  0  0  0  0
    1.4861    0.1201    2.5141 C   0  0  0  0  0  0  0  0  0  0  0  0
    3.8813    0.2188   -3.5158 C   0  0  0  0  0  0  0  0  0  0  0  0
    4.9286   -0.0445   -1.3543 C   0  0  0  0  0  0  0  0  0  0  0  0
    2.1675   -2.1633    1.9770 C   0  0  0  0  0  0  0  0  0  0  0  0
    0.5640   -0.3827    1.3907 C   0  0  0  0  0  0  0  0  0  0  0  0
    4.0620   -0.5427   -2.3473 C   0  0  0  0  0  0  0  0  0  0  0  0
    1.2984   -1.6089    0.7968 C   0  0  0  0  0  0  0  0  0  0  0  0
    2.6060   -2.0502   -1.2968 C   0  0  0  0  0  0  0  0  0  0  0  0
    3.4438   -1.7991   -2.2402 N   0  0  0  0  0  0  0  0  0  0  0  0
    2.0863   -1.1985   -0.3690 N   0  0  0  0  0  0  0  0  0  0  0  0
    2.0933   -3.3032   -1.2013 O   0  0  0  0  0  0  0  0  0  0  0  0
    5.8827    2.8865   -2.8099 H   0  0  0  0  0  0  0  0  0  0  0  0
    4.3715    2.0147   -4.5869 H   0  0  0  0  0  0  0  0  0  0  0  0
    6.2441    1.5435   -0.7445 H   0  0  0  0  0  0  0  0  0  0  0  0
    1.1934   -1.5661    3.8398 H   0  0  0  0  0  0  0  0  0  0  0  0
    2.8804   -1.0607    3.7606 H   0  0  0  0  0  0  0  0  0  0  0  0
    2.3367    0.6752    2.0936 H   0  0  0  0  0  0  0  0  0  0  0  0
    0.9796    0.7909    3.2161 H   0  0  0  0  0  0  0  0  0  0  0  0
    3.2267   -0.1713   -4.2897 H   0  0  0  0  0  0  0  0  0  0  0  0
    5.1133   -0.6433   -0.4656 H   0  0  0  0  0  0  0  0  0  0  0  0
    1.8836   -3.1885    2.2352 H   0  0  0  0  0  0  0  0  0  0  0  0
    3.2165   -2.1954    1.6639 H   0  0  0  0  0  0  0  0  0  0  0  0
    0.3287    0.3659    0.6271 H   0  0  0  0  0  0  0  0  0  0  0  0
   -0.3872   -0.7146    1.8250 H   0  0  0  0  0  0  0  0  0  0  0  0
    0.5922   -2.3609    0.4422 H   0  0  0  0  0  0  0  0  0  0  0  0
    2.5353   -0.2921   -0.3370 H   0  0  0  0  0  0  0  0  0  0  0  0
    2.5068   -3.7891   -1.9373 H   0  0  0  0  0  0  0  0  0  0  0  0
  1  3  2  0  0  0  0
  2  6  2  0  0  0  0
  2  1  1  0  0  0  0
  3  7  1  0  0  0  0
  3 18  1  0  0  0  0
  4 20  1  0  0  0  0
  4 19  1  0  0  0  0
  5  4  1  0  0  0  0
  5 22  1  0  0  0  0
  6 10  1  0  0  0  0
  7 24  1  0  0  0  0
  8 25  1  0  0  0  0
  8  4  1  0  0  0  0
  9 28  1  0  0  0  0
  9  5  1  0  0  0  0
 10 13  1  0  0  0  0
 10  7  2  0  0  0  0
 11  9  1  0  0  0  0
 11  8  1  0  0  0  0
 12 15  1  0  0  0  0
 12 14  1  0  0  0  0
 13 12  2  0  0  0  0
 14 30  1  0  0  0  0
 14 11  1  0  0  0  0
 16  1  1  0  0  0  0
 17  2  1  0  0  0  0
 21  5  1  0  0  0  0
 23  6  1  0  0  0  0
 26  8  1  0  0  0  0
 27  9  1  0  0  0  0
 29 11  1  0  0  0  0
 31 15  1  0  0  0  0
M  END
>  <HBA>
3

>  <HBD>
2

>  <TPSA>
41.13

>  <cid>
25740

>  <dipole>
2.57

>  <excitation_energy_1>
4.8

>  <excitation_energy_2>
5.0

>  <excitation_energy_3>
5.095

>  <excitation_energy_4>
5.422

>  <homo_energy>
-5.524

>  <homo_lumo_gap>
5.744

>  <logP>
3.215

>  <lumo_energy>
0.22

>  <melting_point>
116.03

>  <molecular_refractivity>
61.06

>  <oscillator_strength_1>
0.0181

>  <oscillator_strength_2>
0.1914

>  <oscillator_strength_3>
0.0016

>  <oscillator_strength_4>
0.0088

>  <open_babel_can_smiles>
O/C(=N/c1ccccc1)/NC1CCCC1

>  <mulliken_charges>
31
1   -0.13338
2   -0.138222
3   -0.137787
4   -0.273619
5   -0.273289
6   -0.147318
7   -0.178816
8   -0.276911
9   -0.296462
10   0.235152
11   0.056258
12   0.702612
13   -0.576133
14   -0.635347
15   -0.612206
16   0.121855
17   0.12551
18   0.123885
19   0.138798
20   0.140208
21   0.134101
22   0.142546
23   0.126686
24   0.123737
25   0.147227
26   0.147025
27   0.149735
28   0.145848
29   0.164306
30   0.3357
31   0.418299

>  <lowdin_charges>
31
1   -0.176659
2   -0.152933
3   -0.157048
4   -0.284571
5   -0.285899
6   -0.17703
7   -0.202669
8   -0.294649
9   -0.289325
10   0.048821
11   -0.057473
12   0.17696
13   -0.278501
14   -0.281684
15   -0.372218
16   0.154342
17   0.155854
18   0.155451
19   0.144056
20   0.14856
21   0.139444
22   0.150644
23   0.161344
24   0.154345
25   0.152066
26   0.149318
27   0.153303
28   0.150777
29   0.161599
30   0.28626
31   0.367519

$$$$

