PCCDB-ID:  11668
public computational chemistry database (PCCDB) project, http://pccdb.org

 12 11  0  0  0  0  0  0  0  0999 V2000
    1.0462    0.0096   -0.1486 C   0  0  0  0  0  0  0  0  0  0  0  0
    2.5689   -0.0480   -0.0373 C   0  0  0  0  0  0  0  0  0  0  0  0
    4.8314   -1.2224   -0.6661 O   0  0  0  0  0  0  0  0  0  0  0  0
    2.9047   -2.7211   -0.1087 O   0  0  0  0  0  0  0  0  0  0  0  0
    2.9092   -1.4270   -2.2965 O   0  0  0  0  0  0  0  0  0  0  0  0
    3.2188   -1.5128   -0.8750 S   0  0  0  0  0  0  0  0  0  0  0  0
    0.6800    0.9001    0.3716 H   0  0  0  0  0  0  0  0  0  0  0  0
    0.5864   -0.8709    0.3094 H   0  0  0  0  0  0  0  0  0  0  0  0
    0.7332    0.0641   -1.1947 H   0  0  0  0  0  0  0  0  0  0  0  0
    2.9106   -0.1182    0.9987 H   0  0  0  0  0  0  0  0  0  0  0  0
    3.0526    0.8089   -0.5145 H   0  0  0  0  0  0  0  0  0  0  0  0
    5.2121   -2.0494   -0.3145 H   0  0  0  0  0  0  0  0  0  0  0  0
  1  2  1  0  0  0  0
  1  8  1  0  0  0  0
  1  7  1  0  0  0  0
  2 10  1  0  0  0  0
  3 12  1  0  0  0  0
  5  6  1  0  0  0  0
  6  3  1  0  0  0  0
  6  4  1  0  0  0  0
  6  2  1  0  0  0  0
  9  1  1  0  0  0  0
 11  2  1  0  0  0  0
M  RAD  2   4   2   5   2
M  END
>  <HBA>
3

>  <HBD>
1

>  <TPSA>
62.75

>  <cid>
11668

>  <dipole>
3.39

>  <excitation_energy_1>
7.172

>  <excitation_energy_2>
7.648

>  <excitation_energy_3>
7.681

>  <excitation_energy_4>
7.785

>  <homo_energy>
-8.297

>  <homo_lumo_gap>
9.154

>  <logP>
0.975

>  <lumo_energy>
0.857

>  <melting_point>
57.08

>  <molecular_refractivity>
22.26

>  <oscillator_strength_1>
0.0058

>  <oscillator_strength_2>
0.0448

>  <oscillator_strength_3>
0.0417

>  <oscillator_strength_4>
0.0135

>  <open_babel_can_smiles>
CCS([O])(O)[O]

>  <mulliken_charges>
12
1   -0.473067
2   -0.451567
3   -0.649398
4   -0.52599
5   -0.487372
6   1.185989
7   0.171338
8   0.186079
9   0.191335
10   0.202231
11   0.210432
12   0.439991

>  <lowdin_charges>
12
1   -0.445494
2   -0.414499
3   -0.591805
4   -0.59038
5   -0.56177
6   1.334285
7   0.168157
8   0.171608
9   0.172521
10   0.184911
11   0.191028
12   0.381438

$$$$

