PCCDB-ID:  67348
public computational chemistry database (PCCDB) project, http://pccdb.org

 34 35  0  0  0  0  0  0  0  0999 V2000
    2.6697   -0.2246    0.4709 C   0  0  0  0  0  0  0  0  0  0  0  0
    1.7835   -0.1117    1.6924 C   0  0  0  0  0  0  0  0  0  0  0  0
    0.5914    1.2110   -0.2137 C   0  0  0  0  0  0  0  0  0  0  0  0
    0.3658   -1.3053   -0.1438 C   0  0  0  0  0  0  0  0  0  0  0  0
   -3.1218    1.0964   -2.1149 C   0  0  0  0  0  0  0  0  0  0  0  0
   -0.9087    1.3051    0.1311 C   0  0  0  0  0  0  0  0  0  0  0  0
   -1.1222   -1.1026    0.2041 C   0  0  0  0  0  0  0  0  0  0  0  0
   -1.9897    0.1281   -1.7578 C   0  0  0  0  0  0  0  0  0  0  0  0
   -5.4167    1.5756   -1.4160 C   0  0  0  0  0  0  0  0  0  0  0  0
    1.1783   -0.0965    0.3037 C   0  0  0  0  0  0  0  0  0  0  0  0
   -5.5098    2.4620   -2.3421 N   0  0  0  0  0  0  0  0  0  0  0  0
   -6.3642    1.2892   -0.4140 N   0  0  0  0  0  0  0  0  0  0  0  0
   -4.2847    0.7871   -1.2986 N   0  0  0  0  0  0  0  0  0  0  0  0
   -1.6948    0.1451   -0.3178 N   0  0  0  0  0  0  0  0  0  0  0  0
    3.1289   -1.1881    0.2607 H   0  0  0  0  0  0  0  0  0  0  0  0
    3.2920    0.6283    0.2094 H   0  0  0  0  0  0  0  0  0  0  0  0
    1.8070    0.8177    2.2571 H   0  0  0  0  0  0  0  0  0  0  0  0
    1.6478   -0.9974    2.3089 H   0  0  0  0  0  0  0  0  0  0  0  0
    1.1226    2.0711    0.2145 H   0  0  0  0  0  0  0  0  0  0  0  0
    0.7283    1.2694   -1.3032 H   0  0  0  0  0  0  0  0  0  0  0  0
    0.4767   -1.4468   -1.2289 H   0  0  0  0  0  0  0  0  0  0  0  0
    0.7388   -2.2211    0.3337 H   0  0  0  0  0  0  0  0  0  0  0  0
   -3.3825    0.9849   -3.1719 H   0  0  0  0  0  0  0  0  0  0  0  0
   -2.8083    2.1436   -1.9880 H   0  0  0  0  0  0  0  0  0  0  0  0
   -1.3455    2.2148   -0.2932 H   0  0  0  0  0  0  0  0  0  0  0  0
   -1.0202    1.3761    1.2218 H   0  0  0  0  0  0  0  0  0  0  0  0
   -1.2282   -1.0815    1.2981 H   0  0  0  0  0  0  0  0  0  0  0  0
   -1.7257   -1.9408   -0.1627 H   0  0  0  0  0  0  0  0  0  0  0  0
   -1.1168    0.3563   -2.3926 H   0  0  0  0  0  0  0  0  0  0  0  0
   -2.3112   -0.8887   -2.0108 H   0  0  0  0  0  0  0  0  0  0  0  0
   -6.4403    2.8845   -2.3467 H   0  0  0  0  0  0  0  0  0  0  0  0
   -7.2797    1.6774   -0.6077 H   0  0  0  0  0  0  0  0  0  0  0  0
   -6.4301    0.3010   -0.1910 H   0  0  0  0  0  0  0  0  0  0  0  0
   -4.0127    0.5600   -0.3457 H   0  0  0  0  0  0  0  0  0  0  0  0
  1  2  1  0  0  0  0
  2 17  1  0  0  0  0
  2 18  1  0  0  0  0
  3  6  1  0  0  0  0
  3 19  1  0  0  0  0
  3 10  1  0  0  0  0
  4  7  1  0  0  0  0
  4 10  1  0  0  0  0
  4 22  1  0  0  0  0
  5 24  1  0  0  0  0
  5  8  1  0  0  0  0
  5 13  1  0  0  0  0
  6 26  1  0  0  0  0
  7 27  1  0  0  0  0
  8 14  1  0  0  0  0
  9 13  1  0  0  0  0
  9 12  2  0  0  0  0
 10  1  1  0  0  0  0
 10  2  1  0  0  0  0
 11  9  1  0  0  0  0
 12 33  1  0  0  0  0
 13 34  1  0  0  0  0
 14  6  1  0  0  0  0
 14  7  1  0  0  0  0
 15  1  1  0  0  0  0
 16  1  1  0  0  0  0
 20  3  1  0  0  0  0
 21  4  1  0  0  0  0
 23  5  1  0  0  0  0
 25  6  1  0  0  0  0
 28  7  1  0  0  0  0
 29  8  1  0  0  0  0
 30  8  1  0  0  0  0
 31 11  1  0  0  0  0
 32 12  1  0  0  0  0
M  RAD  1  11   2
M  END
>  <HBA>
4

>  <HBD>
2

>  <TPSA>
67.64

>  <cid>
67348

>  <dipole>
2.56

>  <excitation_energy_1>
4.935

>  <excitation_energy_2>
5.126

>  <excitation_energy_3>
5.236

>  <excitation_energy_4>
5.39

>  <homo_energy>
-5.519

>  <homo_lumo_gap>
7.298

>  <logP>
1.474

>  <lumo_energy>
1.78

>  <melting_point>
163.62

>  <molecular_refractivity>
61.61

>  <oscillator_strength_1>
0.003

>  <oscillator_strength_2>
0.0063

>  <oscillator_strength_3>
0.0062

>  <oscillator_strength_4>
0.0017

>  <open_babel_can_smiles>
[NH]C(=[NH2])NCCN1CCC2(CC1)CC2

>  <mulliken_charges>
34
1   -0.338228
2   -0.329637
3   -0.293969
4   -0.290966
5   -0.101883
6   -0.149115
7   -0.142159
8   -0.151278
9   0.582587
10   0.142112
11   -0.650945
12   -0.754519
13   -0.604822
14   -0.395064
15   0.146052
16   0.146765
17   0.146424
18   0.145432
19   0.128914
20   0.138288
21   0.13692
22   0.12667
23   0.16196
24   0.147311
25   0.148192
26   0.140482
27   0.137977
28   0.136893
29   0.126699
30   0.14387
31   0.258777
32   0.31445
33   0.318593
34   0.327214

>  <lowdin_charges>
34
1   -0.319054
2   -0.325221
3   -0.283796
4   -0.283911
5   -0.192846
6   -0.205543
7   -0.203388
8   -0.20936
9   0.123553
10   -0.008956
11   -0.486083
12   -0.512631
13   -0.312032
14   -0.192506
15   0.156453
16   0.157603
17   0.155704
18   0.155568
19   0.147683
20   0.140768
21   0.140708
22   0.145921
23   0.158711
24   0.137572
25   0.150788
26   0.141459
27   0.139141
28   0.145538
29   0.129662
30   0.147699
31   0.241931
32   0.271994
33   0.273681
34   0.27319

$$$$

