PCCDB-ID:  37044
public computational chemistry database (PCCDB) project, http://pccdb.org

 27 27  0  0  1  0  0  0  0  0999 V2000
   -0.0371   -0.5986    0.2937 C   0  0  0  0  0  0  0  0  0  0  0  0
    6.0334    1.2406    2.0305 C   0  0  0  0  0  0  0  0  0  0  0  0
    2.3158   -1.4741   -0.0732 C   0  0  0  0  0  0  0  0  0  0  0  0
    2.0129    0.8903    0.1850 C   0  0  0  0  0  0  0  0  0  0  0  0
    3.6868   -1.2830   -0.2473 C   0  0  0  0  0  0  0  0  0  0  0  0
    3.3831    1.0829    0.0133 C   0  0  0  0  0  0  0  0  0  0  0  0
    1.4528   -0.3933    0.1459 C   0  0  0  0  0  0  0  0  0  0  0  0
    6.5216    0.2128    1.0067 C   0  0  2  0  0  0  0  0  0  0  0  0
    4.2463   -0.0009   -0.1944 C   0  0  0  0  0  0  0  0  0  0  0  0
    5.7501    0.2125   -0.3477 C   0  0  2  0  0  0  0  0  0  0  0  0
    6.5349   -1.1806    1.4896 N   0  0  0  0  0  0  0  0  0  0  0  0
    6.3491   -0.7660   -1.1806 O   0  0  0  0  0  0  0  0  0  0  0  0
   -0.2685   -1.6026    0.6651 H   0  0  0  0  0  0  0  0  0  0  0  0
   -0.5539   -0.4811   -0.6683 H   0  0  0  0  0  0  0  0  0  0  0  0
   -0.4764    0.1277    0.9865 H   0  0  0  0  0  0  0  0  0  0  0  0
    6.0555    2.2575    1.6189 H   0  0  0  0  0  0  0  0  0  0  0  0
    6.6765    1.2285    2.9187 H   0  0  0  0  0  0  0  0  0  0  0  0
    5.0068    1.0306    2.3499 H   0  0  0  0  0  0  0  0  0  0  0  0
    1.9073   -2.4817   -0.1195 H   0  0  0  0  0  0  0  0  0  0  0  0
    1.3668    1.7516    0.3427 H   0  0  0  0  0  0  0  0  0  0  0  0
    4.3294   -2.1331   -0.4527 H   0  0  0  0  0  0  0  0  0  0  0  0
    3.7856    2.0937    0.0353 H   0  0  0  0  0  0  0  0  0  0  0  0
    7.5598    0.4466    0.7385 H   0  0  0  0  0  0  0  0  0  0  0  0
    5.9120    1.1883   -0.8240 H   0  0  0  0  0  0  0  0  0  0  0  0
    5.6323   -1.4118    1.9046 H   0  0  0  0  0  0  0  0  0  0  0  0
    7.2358   -1.3009    2.2175 H   0  0  0  0  0  0  0  0  0  0  0  0
    6.6287   -1.4645   -0.5532 H   0  0  0  0  0  0  0  0  0  0  0  0
  1 13  1  0  0  0  0
  1 15  1  0  0  0  0
  2 18  1  0  0  0  0
  2 17  1  0  0  0  0
  3  7  2  0  0  0  0
  4 20  1  0  0  0  0
  5  9  2  0  0  0  0
  5  3  1  0  0  0  0
  6 22  1  0  0  0  0
  6  4  2  0  0  0  0
  7  4  1  0  0  0  0
  7  1  1  0  0  0  0
  8 23  1  6  0  0  0
  8 11  1  0  0  0  0
  8  2  1  0  0  0  0
  9  6  1  0  0  0  0
 10 24  1  6  0  0  0
 10  9  1  0  0  0  0
 10  8  1  0  0  0  0
 11 25  1  0  0  0  0
 11 26  1  0  0  0  0
 12 27  1  0  0  0  0
 12 10  1  0  0  0  0
 14  1  1  0  0  0  0
 16  2  1  0  0  0  0
 19  3  1  0  0  0  0
 21  5  1  0  0  0  0
M  END
>  <HBA>
2

>  <HBD>
2

>  <TPSA>
46.25

>  <cid>
37044

>  <dipole>
3.17

>  <excitation_energy_1>
5.166

>  <excitation_energy_2>
5.661

>  <excitation_energy_3>
5.709

>  <excitation_energy_4>
5.97

>  <homo_energy>
-6.199

>  <homo_lumo_gap>
6.305

>  <logP>
2.076

>  <lumo_energy>
0.106

>  <melting_point>
83.53

>  <molecular_refractivity>
49.86

>  <oscillator_strength_1>
0.0017

>  <oscillator_strength_2>
0.0781

>  <oscillator_strength_3>
0.0083

>  <oscillator_strength_4>
0.0111

>  <open_babel_can_smiles>
C[C@H]([C@H](c1ccc(cc1)C)O)N

>  <mulliken_charges>
27
1   -0.529111
2   -0.456368
3   -0.183451
4   -0.182017
5   -0.185271
6   -0.182685
7   0.17727
8   -0.003877
9   0.150447
10   0.074481
11   -0.749914
12   -0.645573
13   0.154554
14   0.166121
15   0.15497
16   0.144588
17   0.138557
18   0.157093
19   0.119777
20   0.119148
21   0.131182
22   0.12053
23   0.145651
24   0.131678
25   0.310801
26   0.309215
27   0.412203

>  <lowdin_charges>
27
1   -0.443085
2   -0.461321
3   -0.167829
4   -0.169566
5   -0.164763
6   -0.166196
7   -0.001771
8   -0.080488
9   -0.026098
10   -0.008686
11   -0.552441
12   -0.465923
13   0.156194
14   0.161775
15   0.158166
16   0.151133
17   0.149056
18   0.155026
19   0.152352
20   0.153731
21   0.161545
22   0.151967
23   0.145658
24   0.144144
25   0.260978
26   0.26346
27   0.342982

$$$$

