PCCDB-ID:  31246
public computational chemistry database (PCCDB) project, http://pccdb.org

 22 21  0  0  0  0  0  0  0  0999 V2000
    2.6387   -0.7725   -3.2768 C   0  0  0  0  0  0  0  0  0  0  0  0
    7.5634    0.8849    0.6413 C   0  0  0  0  0  0  0  0  0  0  0  0
    2.4463   -0.0767   -1.9258 C   0  0  0  0  0  0  0  0  0  0  0  0
    6.7770   -0.1487   -0.1702 C   0  0  0  0  0  0  0  0  0  0  0  0
    2.9385   -0.9094   -0.7164 C   0  0  0  0  0  0  0  0  0  0  0  0
    5.2662   -0.0429    0.0414 C   0  0  0  0  0  0  0  0  0  0  0  0
    4.4532   -1.0825   -0.7222 C   0  0  0  0  0  0  0  0  0  0  0  0
    4.9849   -1.9964   -1.3281 O   0  0  0  0  0  0  0  0  0  0  0  0
    2.2843   -0.1353   -4.0950 H   0  0  0  0  0  0  0  0  0  0  0  0
    2.0770   -1.7133   -3.3152 H   0  0  0  0  0  0  0  0  0  0  0  0
    3.6901   -1.0135   -3.4613 H   0  0  0  0  0  0  0  0  0  0  0  0
    8.6409    0.7849    0.4694 H   0  0  0  0  0  0  0  0  0  0  0  0
    7.3867    0.7668    1.7178 H   0  0  0  0  0  0  0  0  0  0  0  0
    7.2780    1.9093    0.3709 H   0  0  0  0  0  0  0  0  0  0  0  0
    1.3816    0.1414   -1.7737 H   0  0  0  0  0  0  0  0  0  0  0  0
    2.9567    0.8966   -1.9303 H   0  0  0  0  0  0  0  0  0  0  0  0
    7.1009   -1.1627    0.0905 H   0  0  0  0  0  0  0  0  0  0  0  0
    6.9965   -0.0339   -1.2388 H   0  0  0  0  0  0  0  0  0  0  0  0
    2.4838   -1.9060   -0.7523 H   0  0  0  0  0  0  0  0  0  0  0  0
    2.6217   -0.4179    0.2121 H   0  0  0  0  0  0  0  0  0  0  0  0
    4.8964    0.9581   -0.2298 H   0  0  0  0  0  0  0  0  0  0  0  0
    5.0148   -0.1545    1.1088 H   0  0  0  0  0  0  0  0  0  0  0  0
  1  3  1  0  0  0  0
  2 13  1  0  0  0  0
  3 15  1  0  0  0  0
  3  5  1  0  0  0  0
  4  6  1  0  0  0  0
  4 17  1  0  0  0  0
  4  2  1  0  0  0  0
  5 20  1  0  0  0  0
  6 22  1  0  0  0  0
  7  5  1  0  0  0  0
  7  6  1  0  0  0  0
  8  7  2  0  0  0  0
  9  1  1  0  0  0  0
 10  1  1  0  0  0  0
 11  1  1  0  0  0  0
 12  2  1  0  0  0  0
 14  2  1  0  0  0  0
 16  3  1  0  0  0  0
 18  4  1  0  0  0  0
 19  5  1  0  0  0  0
 21  6  1  0  0  0  0
M  END
>  <HBA>
1

>  <HBD>
0

>  <TPSA>
17.07

>  <cid>
31246

>  <dipole>
2.52

>  <excitation_energy_1>
4.292

>  <excitation_energy_2>
6.019

>  <excitation_energy_3>
6.572

>  <excitation_energy_4>
6.651

>  <homo_energy>
-6.468

>  <homo_lumo_gap>
6.177

>  <logP>
2.156

>  <lumo_energy>
-0.291

>  <melting_point>
-5.84

>  <molecular_refractivity>
35.96

>  <oscillator_strength_1>
0.0005

>  <oscillator_strength_2>
0.0119

>  <oscillator_strength_3>
0.0142

>  <oscillator_strength_4>
0.0

>  <open_babel_can_smiles>
CCCC(=O)CCC

>  <mulliken_charges>
22
1   -0.441422
2   -0.446646
3   -0.264857
4   -0.240098
5   -0.330877
6   -0.357055
7   0.453522
8   -0.449319
9   0.141401
10   0.147311
11   0.168081
12   0.147365
13   0.140384
14   0.139531
15   0.144656
16   0.137
17   0.154366
18   0.145924
19   0.161312
20   0.13772
21   0.153493
22   0.158207

>  <lowdin_charges>
22
1   -0.447461
2   -0.44039
3   -0.263187
4   -0.2664
5   -0.307327
6   -0.310081
7   0.164627
8   -0.241674
9   0.150542
10   0.150433
11   0.158371
12   0.150403
13   0.143901
14   0.144168
15   0.146341
16   0.139816
17   0.152544
18   0.147331
19   0.16204
20   0.150711
21   0.15582
22   0.159475

$$$$

