PCCDB-ID:  24980
public computational chemistry database (PCCDB) project, http://pccdb.org

 32 31  0  0  1  0  0  0  0  0999 V2000
    1.7611    1.0390    1.3065 C   0  0  0  0  0  0  0  0  0  0  0  0
    5.1105    5.1857   -3.1383 C   0  0  0  0  0  0  0  0  0  0  0  0
    9.7710    2.4853   -2.6827 C   0  0  0  0  0  0  0  0  0  0  0  0
    3.2492    1.1573    0.9618 C   0  0  0  0  0  0  0  0  0  0  0  0
    4.9577    4.4193   -1.8202 C   0  0  0  0  0  0  0  0  0  0  0  0
    3.5140    2.0273   -0.2749 C   0  0  0  0  0  0  0  0  0  0  0  0
    5.0077    2.1469   -0.6102 C   0  0  0  0  0  0  0  0  0  0  0  0
    7.2804    2.1415   -3.3340 C   0  0  0  0  0  0  0  0  0  0  0  0
    6.7885    2.7526   -2.2453 C   0  0  0  0  0  0  0  0  0  0  0  0
    8.7188    1.9549   -3.6472 C   0  0  0  0  0  0  0  0  0  0  0  0
    5.3285    2.9194   -1.9166 C   0  0  2  0  0  0  0  0  0  0  0  0
    9.0455    1.3752   -4.6738 O   0  0  0  0  0  0  0  0  0  0  0  0
    1.6046    0.4109    2.1908 H   0  0  0  0  0  0  0  0  0  0  0  0
    1.1962    0.5943    0.4779 H   0  0  0  0  0  0  0  0  0  0  0  0
    1.3225    2.0227    1.5146 H   0  0  0  0  0  0  0  0  0  0  0  0
    4.8161    6.2342   -3.0174 H   0  0  0  0  0  0  0  0  0  0  0  0
    4.4779    4.7512   -3.9221 H   0  0  0  0  0  0  0  0  0  0  0  0
    6.1435    5.1655   -3.5019 H   0  0  0  0  0  0  0  0  0  0  0  0
    9.6699    2.0196   -1.6952 H   0  0  0  0  0  0  0  0  0  0  0  0
    9.6717    3.5685   -2.5445 H   0  0  0  0  0  0  0  0  0  0  0  0
   10.7598    2.2624   -3.0872 H   0  0  0  0  0  0  0  0  0  0  0  0
    3.6682    0.1549    0.7956 H   0  0  0  0  0  0  0  0  0  0  0  0
    3.7923    1.5752    1.8213 H   0  0  0  0  0  0  0  0  0  0  0  0
    3.9207    4.5068   -1.4753 H   0  0  0  0  0  0  0  0  0  0  0  0
    5.5793    4.8880   -1.0431 H   0  0  0  0  0  0  0  0  0  0  0  0
    3.0790    3.0215   -0.1081 H   0  0  0  0  0  0  0  0  0  0  0  0
    2.9818    1.6001   -1.1378 H   0  0  0  0  0  0  0  0  0  0  0  0
    5.4283    1.1359   -0.6980 H   0  0  0  0  0  0  0  0  0  0  0  0
    5.5360    2.6246    0.2287 H   0  0  0  0  0  0  0  0  0  0  0  0
    6.6113    1.7246   -4.0851 H   0  0  0  0  0  0  0  0  0  0  0  0
    7.4793    3.1639   -1.5063 H   0  0  0  0  0  0  0  0  0  0  0  0
    4.7400    2.4708   -2.7306 H   0  0  0  0  0  0  0  0  0  0  0  0
  1 15  1  0  0  0  0
  1 13  1  0  0  0  0
  2 16  1  0  0  0  0
  2  5  1  0  0  0  0
  3 20  1  0  0  0  0
  3 19  1  0  0  0  0
  4  1  1  0  0  0  0
  4 23  1  0  0  0  0
  5 24  1  0  0  0  0
  5 25  1  0  0  0  0
  6 26  1  0  0  0  0
  6  4  1  0  0  0  0
  7  6  1  0  0  0  0
  7 29  1  0  0  0  0
  8  9  2  0  0  0  0
  9 11  1  0  0  0  0
  9 31  1  0  0  0  0
 10  8  1  0  0  0  0
 10  3  1  0  0  0  0
 11 32  1  6  0  0  0
 11  5  1  0  0  0  0
 11  7  1  0  0  0  0
 12 10  2  0  0  0  0
 14  1  1  0  0  0  0
 17  2  1  0  0  0  0
 18  2  1  0  0  0  0
 21  3  1  0  0  0  0
 22  4  1  0  0  0  0
 27  6  1  0  0  0  0
 28  7  1  0  0  0  0
 30  8  1  0  0  0  0
M  END
>  <HBA>
1

>  <HBD>
0

>  <TPSA>
17.07

>  <cid>
24980

>  <dipole>
3.89

>  <excitation_energy_1>
3.699

>  <excitation_energy_2>
5.648

>  <excitation_energy_3>
6.207

>  <excitation_energy_4>
6.412

>  <homo_energy>
-6.501

>  <homo_lumo_gap>
5.225

>  <logP>
3.348

>  <lumo_energy>
-1.276

>  <melting_point>
1.3

>  <molecular_refractivity>
54.72

>  <oscillator_strength_1>
0.0005

>  <oscillator_strength_2>
0.521

>  <oscillator_strength_3>
0.023

>  <oscillator_strength_4>
0.0086

>  <open_babel_can_smiles>
CCCC[C@H](/C=C/C(=O)C)CC

>  <mulliken_charges>
32
1   -0.442412
2   -0.445022
3   -0.540854
4   -0.248718
5   -0.263428
6   -0.254535
7   -0.263624
8   -0.185865
9   -0.077285
10   0.446789
11   -0.123086
12   -0.461541
13   0.144371
14   0.14319
15   0.142004
16   0.144995
17   0.145418
18   0.151352
19   0.166188
20   0.165122
21   0.179496
22   0.133585
23   0.131708
24   0.14377
25   0.129916
26   0.135013
27   0.131149
28   0.139895
29   0.127932
30   0.140701
31   0.133255
32   0.130521

>  <lowdin_charges>
32
1   -0.445429
2   -0.445382
3   -0.474766
4   -0.27158
5   -0.273223
6   -0.276737
7   -0.274014
8   -0.207353
9   -0.116934
10   0.155321
11   -0.125483
12   -0.244681
13   0.151162
14   0.148216
15   0.146272
16   0.150375
17   0.149935
18   0.150685
19   0.166907
20   0.164976
21   0.173464
22   0.139648
23   0.140339
24   0.145835
25   0.14047
26   0.139682
27   0.140417
28   0.14573
29   0.140146
30   0.166355
31   0.155363
32   0.144283

$$$$

