PCCDB-ID:  69239
public computational chemistry database (PCCDB) project, http://pccdb.org

 14 13  0  0  1  0  0  0  0  0999 V2000
    0.9359    0.3756   -0.5549 C   0  0  0  0  0  0  0  0  0  0  0  0
    0.0208    0.5200    0.6862 C   0  0  1  0  0  0  0  0  0  0  0  0
   -2.0193   -0.5626    0.0686 C   0  0  0  0  0  0  0  0  0  0  0  0
    0.3962   -0.0453   -1.7102 N   0  0  0  0  0  0  0  0  0  0  0  0
   -2.5786   -1.6843    0.2826 N   0  0  0  0  0  0  0  0  0  0  0  0
   -1.1671    0.1212    0.9122 N   0  0  0  0  0  0  0  0  0  0  0  0
    2.1254    0.6489   -0.3904 O   0  0  0  0  0  0  0  0  0  0  0  0
    0.6888    1.1409    1.6569 O   0  0  0  0  0  0  0  0  0  0  0  0
   -2.3506    0.1238   -1.0800 O   0  0  0  0  0  0  0  0  0  0  0  0
   -0.6119   -0.0360   -1.8459 H   0  0  0  0  0  0  0  0  0  0  0  0
    1.0074   -0.0771   -2.5156 H   0  0  0  0  0  0  0  0  0  0  0  0
   -2.2877   -2.0619    1.1843 H   0  0  0  0  0  0  0  0  0  0  0  0
    1.6019    1.2598    1.2994 H   0  0  0  0  0  0  0  0  0  0  0  0
   -3.0536   -0.4142   -1.4915 H   0  0  0  0  0  0  0  0  0  0  0  0
  1  7  2  0  0  0  0
  2  1  1  1  0  0  0
  2  6  1  0  0  0  0
  2  8  1  0  0  0  0
  3  5  1  0  0  0  0
  3  6  2  0  0  0  0
  4  1  1  0  0  0  0
  5 12  1  0  0  0  0
  9  3  1  0  0  0  0
 10  4  1  0  0  0  0
 11  4  1  0  0  0  0
 13  8  1  0  0  0  0
 14  9  1  0  0  0  0
M  RAD  2   2   2   5   2
M  END
>  <HBA>
6

>  <HBD>
3

>  <TPSA>
115.28

>  <cid>
69239

>  <dipole>
3.12

>  <excitation_energy_1>
4.002

>  <excitation_energy_2>
5.044

>  <excitation_energy_3>
5.113

>  <excitation_energy_4>
5.723

>  <homo_energy>
-7.01

>  <homo_lumo_gap>
5.154

>  <logP>
-0.542

>  <lumo_energy>
-1.856

>  <melting_point>
185.61

>  <molecular_refractivity>
25.74

>  <oscillator_strength_1>
0.0124

>  <oscillator_strength_2>
0.0895

>  <oscillator_strength_3>
0.029

>  <oscillator_strength_4>
0.0102

>  <open_babel_can_smiles>
[NH]/C(=N/[C](C(=O)N)O)/O

>  <mulliken_charges>
14
1   0.573236
2   0.477909
3   0.552185
4   -0.768617
5   -0.606537
6   -0.454993
7   -0.528681
8   -0.565251
9   -0.599865
10   0.393168
11   0.356136
12   0.306116
13   0.440344
14   0.424852

>  <lowdin_charges>
14
1   0.135023
2   0.131409
3   0.149975
4   -0.426641
5   -0.430024
6   -0.172073
7   -0.302357
8   -0.316416
9   -0.392484
10   0.306112
11   0.302243
12   0.272365
13   0.371935
14   0.370932

$$$$

