PCCDB-ID:  43512
public computational chemistry database (PCCDB) project, http://pccdb.org

 32 35  0  0  0  0  0  0  0  0999 V2000
    4.7576   -0.0495    0.0001 C   0  0  0  0  0  0  0  0  0  0  0  0
    4.3488   -1.4153   -0.0349 C   0  0  0  0  0  0  0  0  0  0  0  0
   -4.5256   -0.9453    0.5172 C   0  0  0  0  0  0  0  0  0  0  0  0
   -3.5482   -2.0183    0.1082 C   0  0  0  0  0  0  0  0  0  0  0  0
   -4.1652    0.3851   -0.1567 C   0  0  0  0  0  0  0  0  0  0  0  0
    3.8244    0.9533    0.0135 C   0  0  0  0  0  0  0  0  0  0  0  0
    3.0181   -1.7414   -0.0572 C   0  0  0  0  0  0  0  0  0  0  0  0
   -2.2710   -1.7140   -0.1754 C   0  0  0  0  0  0  0  0  0  0  0  0
   -2.2470    2.0530    0.0008 C   0  0  0  0  0  0  0  0  0  0  0  0
   -0.9147    2.3678    0.0190 C   0  0  0  0  0  0  0  0  0  0  0  0
    1.4421    1.6486    0.0109 C   0  0  0  0  0  0  0  0  0  0  0  0
    0.6439   -1.0327   -0.0701 C   0  0  0  0  0  0  0  0  0  0  0  0
   -2.6857    0.7021   -0.0581 C   0  0  0  0  0  0  0  0  0  0  0  0
    2.4263    0.6550   -0.0086 C   0  0  0  0  0  0  0  0  0  0  0  0
    2.0114   -0.7261   -0.0468 C   0  0  0  0  0  0  0  0  0  0  0  0
    0.0757    1.3415   -0.0130 C   0  0  0  0  0  0  0  0  0  0  0  0
   -1.7643   -0.3364   -0.0982 C   0  0  0  0  0  0  0  0  0  0  0  0
   -0.3480   -0.0418   -0.0648 C   0  0  0  0  0  0  0  0  0  0  0  0
    5.8173    0.1906    0.0166 H   0  0  0  0  0  0  0  0  0  0  0  0
    5.1024   -2.1982   -0.0441 H   0  0  0  0  0  0  0  0  0  0  0  0
   -4.5066   -0.8329    1.6142 H   0  0  0  0  0  0  0  0  0  0  0  0
   -5.5514   -1.2307    0.2568 H   0  0  0  0  0  0  0  0  0  0  0  0
   -3.8829   -3.0528    0.0813 H   0  0  0  0  0  0  0  0  0  0  0  0
   -4.7573    1.2049    0.2664 H   0  0  0  0  0  0  0  0  0  0  0  0
   -4.4365    0.3231   -1.2233 H   0  0  0  0  0  0  0  0  0  0  0  0
    4.1323    1.9961    0.0405 H   0  0  0  0  0  0  0  0  0  0  0  0
    2.7047   -2.7826   -0.0847 H   0  0  0  0  0  0  0  0  0  0  0  0
   -1.5848   -2.5076   -0.4536 H   0  0  0  0  0  0  0  0  0  0  0  0
   -2.9940    2.8433    0.0275 H   0  0  0  0  0  0  0  0  0  0  0  0
   -0.5899    3.4045    0.0622 H   0  0  0  0  0  0  0  0  0  0  0  0
    1.7444    2.6936    0.0477 H   0  0  0  0  0  0  0  0  0  0  0  0
    0.3646   -2.0813   -0.0843 H   0  0  0  0  0  0  0  0  0  0  0  0
  1  6  2  0  0  0  0
  1 19  1  0  0  0  0
  2  1  1  0  0  0  0
  3 21  1  0  0  0  0
  4  3  1  0  0  0  0
  5 13  1  0  0  0  0
  5 24  1  0  0  0  0
  5  3  1  0  0  0  0
  6 26  1  0  0  0  0
  7 15  1  0  0  0  0
  7  2  2  0  0  0  0
  8 17  1  0  0  0  0
  8  4  2  0  0  0  0
  9 10  1  0  0  0  0
  9 29  1  0  0  0  0
 10 30  1  0  0  0  0
 11 31  1  0  0  0  0
 12 18  1  0  0  0  0
 12 15  2  0  0  0  0
 13  9  2  0  0  0  0
 14 11  2  0  0  0  0
 14  6  1  0  0  0  0
 15 14  1  0  0  0  0
 16 11  1  0  0  0  0
 16 10  2  0  0  0  0
 17 18  2  0  0  0  0
 17 13  1  0  0  0  0
 18 16  1  0  0  0  0
 20  2  1  0  0  0  0
 22  3  1  0  0  0  0
 23  4  1  0  0  0  0
 25  5  1  0  0  0  0
 27  7  1  0  0  0  0
 28  8  1  0  0  0  0
 32 12  1  0  0  0  0
M  END
>  <HBA>
0

>  <HBD>
0

>  <TPSA>
0.0

>  <cid>
43512

>  <dipole>
0.71

>  <excitation_energy_1>
2.935

>  <excitation_energy_2>
3.727

>  <excitation_energy_3>
3.841

>  <excitation_energy_4>
4.128

>  <homo_energy>
-4.972

>  <homo_lumo_gap>
3.306

>  <logP>
4.952

>  <lumo_energy>
-1.665

>  <melting_point>
144.27

>  <molecular_refractivity>
79.2

>  <oscillator_strength_1>
0.0922

>  <oscillator_strength_2>
0.0003

>  <oscillator_strength_3>
0.0046

>  <oscillator_strength_4>
0.0443

>  <open_babel_can_smiles>
C1=Cc2c(CC1)ccc1c2cc2ccccc2c1

>  <mulliken_charges>
32
1   -0.140761
2   -0.139755
3   -0.298009
4   -0.135994
5   -0.348138
6   -0.184295
7   -0.187556
8   -0.138031
9   -0.194243
10   -0.187608
11   -0.310686
12   -0.303514
13   0.095271
14   0.15375
15   0.152459
16   0.160955
17   0.042367
18   0.084881
19   0.129115
20   0.12904
21   0.153451
22   0.142207
23   0.128718
24   0.142033
25   0.156704
26   0.128712
27   0.128192
28   0.130443
29   0.12259
30   0.128133
31   0.127838
32   0.131731

>  <lowdin_charges>
32
1   -0.158476
2   -0.161697
3   -0.270463
4   -0.159001
5   -0.269989
6   -0.153602
7   -0.154022
8   -0.173191
9   -0.167164
10   -0.15437
11   -0.157904
12   -0.163606
13   -0.006734
14   -0.003094
15   -0.000494
16   -0.001363
17   -0.014743
18   -0.003378
19   0.156757
20   0.159317
21   0.150638
22   0.15124
23   0.154735
24   0.152151
25   0.153113
26   0.156208
27   0.155907
28   0.158603
29   0.156754
30   0.15669
31   0.15506
32   0.156117

$$$$

