PCCDB-ID:  57873
public computational chemistry database (PCCDB) project, http://pccdb.org

 32 34  0  0  0  0  0  0  0  0999 V2000
   -1.7491    0.5566   -0.2243 C   0  0  0  0  0  0  0  0  0  0  0  0
   -1.1214   -0.4031    0.5720 C   0  0  0  0  0  0  0  0  0  0  0  0
   -0.9888    1.3153   -1.1156 C   0  0  0  0  0  0  0  0  0  0  0  0
    4.3085   -1.6799   -0.9546 C   0  0  0  0  0  0  0  0  0  0  0  0
    5.2425   -0.6615   -0.7701 C   0  0  0  0  0  0  0  0  0  0  0  0
    0.2567   -0.5978    0.4824 C   0  0  0  0  0  0  0  0  0  0  0  0
    0.3896    1.1169   -1.2094 C   0  0  0  0  0  0  0  0  0  0  0  0
    2.9525   -1.3854   -0.8266 C   0  0  0  0  0  0  0  0  0  0  0  0
    4.8343    0.6319   -0.4510 C   0  0  0  0  0  0  0  0  0  0  0  0
    5.2178    4.9397    0.5707 C   0  0  0  0  0  0  0  0  0  0  0  0
    3.8004    5.5103    0.8592 C   0  0  0  0  0  0  0  0  0  0  0  0
    1.0368    0.1574   -0.4097 C   0  0  0  0  0  0  0  0  0  0  0  0
    2.5035   -0.0937   -0.5219 C   0  0  0  0  0  0  0  0  0  0  0  0
    3.4688    0.9252   -0.3192 C   0  0  0  0  0  0  0  0  0  0  0  0
    3.7381    3.3401    0.2855 C   0  0  0  0  0  0  0  0  0  0  0  0
    5.0006    3.5361    0.2095 N   0  0  0  0  0  0  0  0  0  0  0  0
    3.0168    2.2060    0.0434 N   0  0  0  0  0  0  0  0  0  0  0  0
    2.9221    4.3813    0.6529 O   0  0  0  0  0  0  0  0  0  0  0  0
   -2.8222    0.7114   -0.1515 H   0  0  0  0  0  0  0  0  0  0  0  0
   -1.7046   -0.9975    1.2705 H   0  0  0  0  0  0  0  0  0  0  0  0
   -1.4690    2.0572   -1.7482 H   0  0  0  0  0  0  0  0  0  0  0  0
    4.6272   -2.6881   -1.2031 H   0  0  0  0  0  0  0  0  0  0  0  0
    6.3047   -0.8683   -0.8717 H   0  0  0  0  0  0  0  0  0  0  0  0
    0.7436   -1.3359    1.1139 H   0  0  0  0  0  0  0  0  0  0  0  0
    0.9693    1.6920   -1.9268 H   0  0  0  0  0  0  0  0  0  0  0  0
    2.2100   -2.1630   -0.9851 H   0  0  0  0  0  0  0  0  0  0  0  0
    5.5547    1.4243   -0.2936 H   0  0  0  0  0  0  0  0  0  0  0  0
    5.8745    5.0105    1.4469 H   0  0  0  0  0  0  0  0  0  0  0  0
    5.7150    5.4725   -0.2494 H   0  0  0  0  0  0  0  0  0  0  0  0
    3.5002    6.3059    0.1704 H   0  0  0  0  0  0  0  0  0  0  0  0
    3.6687    5.8610    1.8871 H   0  0  0  0  0  0  0  0  0  0  0  0
    2.0220    2.3082    0.1921 H   0  0  0  0  0  0  0  0  0  0  0  0
  1 19  1  0  0  0  0
  1  2  2  0  0  0  0
  2 20  1  0  0  0  0
  3  1  1  0  0  0  0
  4  8  2  0  0  0  0
  4  5  1  0  0  0  0
  5  9  2  0  0  0  0
  6  2  1  0  0  0  0
  6 24  1  0  0  0  0
  7  3  2  0  0  0  0
  7 12  1  0  0  0  0
  8 13  1  0  0  0  0
  9 14  1  0  0  0  0
  9 27  1  0  0  0  0
 10 11  1  0  0  0  0
 10 28  1  0  0  0  0
 11 31  1  0  0  0  0
 12  6  2  0  0  0  0
 13 12  1  0  0  0  0
 13 14  2  0  0  0  0
 14 17  1  0  0  0  0
 15 18  1  0  0  0  0
 16 15  2  0  0  0  0
 16 10  1  0  0  0  0
 17 32  1  0  0  0  0
 17 15  1  0  0  0  0
 18 11  1  0  0  0  0
 21  3  1  0  0  0  0
 22  4  1  0  0  0  0
 23  5  1  0  0  0  0
 25  7  1  0  0  0  0
 26  8  1  0  0  0  0
 29 10  1  0  0  0  0
 30 11  1  0  0  0  0
M  END
>  <HBA>
3

>  <HBD>
1

>  <TPSA>
33.62

>  <cid>
57873

>  <dipole>
2.1

>  <excitation_energy_1>
4.186

>  <excitation_energy_2>
4.507

>  <excitation_energy_3>
4.844

>  <excitation_energy_4>
5.098

>  <homo_energy>
-5.464

>  <homo_lumo_gap>
4.925

>  <logP>
2.66

>  <lumo_energy>
-0.539

>  <melting_point>
106.31

>  <molecular_refractivity>
76.78

>  <oscillator_strength_1>
0.0867

>  <oscillator_strength_2>
0.0257

>  <oscillator_strength_3>
0.0634

>  <oscillator_strength_4>
0.0013

>  <open_babel_can_smiles>
c1ccc(cc1)c1ccccc1NC1=NCCO1

>  <mulliken_charges>
32
1   -0.12615
2   -0.132786
3   -0.129404
4   -0.130291
5   -0.142926
6   -0.157656
7   -0.185308
8   -0.184954
9   -0.169989
10   -0.161932
11   -0.057662
12   0.035865
13   0.032783
14   0.317387
15   0.758431
16   -0.49973
17   -0.784375
18   -0.510346
19   0.13264
20   0.133918
21   0.134682
22   0.124372
23   0.129465
24   0.138591
25   0.146089
26   0.131235
27   0.189992
28   0.152131
29   0.151811
30   0.155946
31   0.156875
32   0.351296

>  <lowdin_charges>
32
1   -0.154695
2   -0.154258
3   -0.155379
4   -0.175109
5   -0.144965
6   -0.159448
7   -0.173165
8   -0.156206
9   -0.189836
10   -0.210482
11   -0.138124
12   -0.009894
13   -0.038092
14   0.060799
15   0.160339
16   -0.273114
17   -0.23096
18   -0.227175
19   0.157542
20   0.161089
21   0.161187
22   0.155849
23   0.156556
24   0.164004
25   0.165293
26   0.16046
27   0.190285
28   0.148221
29   0.149221
30   0.151066
31   0.149898
32   0.299091

$$$$

