PCCDB-ID:  8258
public computational chemistry database (PCCDB) project, http://pccdb.org

 14 13  0  0  0  0  0  0  0  0999 V2000
    0.9897   -0.0897   -0.0407 C   0  0  0  0  0  0  0  0  0  0  0  0
    4.1860   -0.7847   -1.3057 C   0  0  0  0  0  0  0  0  0  0  0  0
    4.1845    1.3493    0.0764 C   0  0  0  0  0  0  0  0  0  0  0  0
    2.1958   -0.1082   -0.0167 C   0  0  0  0  0  0  0  0  0  0  0  0
    3.6685   -0.0993   -0.0257 C   0  0  0  0  0  0  0  0  0  0  0  0
    4.0829   -0.8473    1.1300 O   0  0  0  0  0  0  0  0  0  0  0  0
   -0.0763   -0.0711   -0.0584 H   0  0  0  0  0  0  0  0  0  0  0  0
    3.8480   -0.2570   -2.2033 H   0  0  0  0  0  0  0  0  0  0  0  0
    3.8285   -1.8171   -1.3476 H   0  0  0  0  0  0  0  0  0  0  0  0
    5.2837   -0.7912   -1.3066 H   0  0  0  0  0  0  0  0  0  0  0  0
    3.8368    1.9562   -0.7658 H   0  0  0  0  0  0  0  0  0  0  0  0
    5.2821    1.3542    0.0716 H   0  0  0  0  0  0  0  0  0  0  0  0
    3.8362    1.8052    1.0071 H   0  0  0  0  0  0  0  0  0  0  0  0
    5.0541   -0.8596    1.1159 H   0  0  0  0  0  0  0  0  0  0  0  0
  1  4  3  0  0  0  0
  2  5  1  0  0  0  0
  3 13  1  0  0  0  0
  5  4  1  0  0  0  0
  5  3  1  0  0  0  0
  5  6  1  0  0  0  0
  7  1  1  0  0  0  0
  8  2  1  0  0  0  0
  9  2  1  0  0  0  0
 10  2  1  0  0  0  0
 11  3  1  0  0  0  0
 12  3  1  0  0  0  0
 14  6  1  0  0  0  0
M  END
>  <HBA>
1

>  <HBD>
1

>  <TPSA>
20.23

>  <cid>
8258

>  <dipole>
1.9

>  <excitation_energy_1>
6.24

>  <excitation_energy_2>
6.522

>  <excitation_energy_3>
6.642

>  <excitation_energy_4>
6.865

>  <homo_energy>
-7.023

>  <homo_lumo_gap>
8.163

>  <logP>
0.391

>  <lumo_energy>
1.14

>  <melting_point>
21.09

>  <molecular_refractivity>
25.51

>  <oscillator_strength_1>
0.0085

>  <oscillator_strength_2>
0.0258

>  <oscillator_strength_3>
0.0121

>  <oscillator_strength_4>
0.0004

>  <open_babel_can_smiles>
C#CC(O)(C)C

>  <mulliken_charges>
14
1   -0.514436
2   -0.450028
3   -0.448418
4   0.378396
5   0.161819
6   -0.62295
7   0.191203
8   0.155142
9   0.170235
10   0.13306
11   0.154643
12   0.133144
13   0.170159
14   0.388032

>  <lowdin_charges>
14
1   -0.244536
2   -0.445522
3   -0.447035
4   -0.032684
5   0.13848
6   -0.447722
7   0.203699
8   0.16023
9   0.164337
10   0.143293
11   0.160314
12   0.143466
13   0.165622
14   0.338058

$$$$

