PCCDB-ID:  61131
public computational chemistry database (PCCDB) project, http://pccdb.org

 24 23  0  0  1  0  0  0  0  0999 V2000
    2.0195    0.8024   -1.1882 C   0  0  0  0  0  0  0  0  0  0  0  0
    2.7533   -1.3964   -2.0721 C   0  0  0  0  0  0  0  0  0  0  0  0
    5.5559    0.3423   -0.4543 C   0  0  0  0  0  0  0  0  0  0  0  0
    5.5350   -1.1160    1.5956 C   0  0  0  0  0  0  0  0  0  0  0  0
    2.6381   -1.8375    1.0430 C   0  0  0  0  0  0  0  0  0  0  0  0
    2.6763   -0.3455   -0.9879 C   0  0  0  0  0  0  0  0  0  0  0  0
    4.8785   -0.8553    0.2299 C   0  0  0  0  0  0  0  0  0  0  0  0
    3.3399   -0.6481    0.3515 C   0  0  2  0  0  0  0  0  0  0  0  0
    1.5224    1.0223   -2.1304 H   0  0  0  0  0  0  0  0  0  0  0  0
    1.9520    1.5663   -0.4170 H   0  0  0  0  0  0  0  0  0  0  0  0
    2.2244   -1.0725   -2.9736 H   0  0  0  0  0  0  0  0  0  0  0  0
    2.3111   -2.3468   -1.7466 H   0  0  0  0  0  0  0  0  0  0  0  0
    3.7919   -1.6146   -2.3527 H   0  0  0  0  0  0  0  0  0  0  0  0
    6.6353    0.1764   -0.5506 H   0  0  0  0  0  0  0  0  0  0  0  0
    5.4120    1.2582    0.1341 H   0  0  0  0  0  0  0  0  0  0  0  0
    5.1491    0.5291   -1.4530 H   0  0  0  0  0  0  0  0  0  0  0  0
    6.6221   -1.2098    1.4875 H   0  0  0  0  0  0  0  0  0  0  0  0
    5.1721   -2.0353    2.0656 H   0  0  0  0  0  0  0  0  0  0  0  0
    5.3437   -0.2853    2.2880 H   0  0  0  0  0  0  0  0  0  0  0  0
    1.5504   -1.7098    1.0155 H   0  0  0  0  0  0  0  0  0  0  0  0
    2.9354   -1.9211    2.0927 H   0  0  0  0  0  0  0  0  0  0  0  0
    2.8771   -2.7902    0.5545 H   0  0  0  0  0  0  0  0  0  0  0  0
    5.0495   -1.7459   -0.3939 H   0  0  0  0  0  0  0  0  0  0  0  0
    3.1894    0.2364    0.9882 H   0  0  0  0  0  0  0  0  0  0  0  0
  1  6  2  0  0  0  0
  1 10  1  0  0  0  0
  2 12  1  0  0  0  0
  2  6  1  0  0  0  0
  3 15  1  0  0  0  0
  3  7  1  0  0  0  0
  4 18  1  0  0  0  0
  4 19  1  0  0  0  0
  5 21  1  0  0  0  0
  6  8  1  0  0  0  0
  7  8  1  0  0  0  0
  7  4  1  0  0  0  0
  8 24  1  1  0  0  0
  8  5  1  0  0  0  0
  9  1  1  0  0  0  0
 11  2  1  0  0  0  0
 13  2  1  0  0  0  0
 14  3  1  0  0  0  0
 16  3  1  0  0  0  0
 17  4  1  0  0  0  0
 20  5  1  0  0  0  0
 22  5  1  0  0  0  0
 23  7  1  0  0  0  0
M  END
>  <HBA>
0

>  <HBD>
0

>  <TPSA>
0.0

>  <cid>
61131

>  <dipole>
0.49

>  <excitation_energy_1>
6.066

>  <excitation_energy_2>
6.426

>  <excitation_energy_3>
6.521

>  <excitation_energy_4>
6.574

>  <homo_energy>
-6.485

>  <homo_lumo_gap>
7.312

>  <logP>
2.855

>  <lumo_energy>
0.827

>  <melting_point>
-45.07

>  <molecular_refractivity>
40.1

>  <oscillator_strength_1>
0.0098

>  <oscillator_strength_2>
0.1579

>  <oscillator_strength_3>
0.0092

>  <oscillator_strength_4>
0.0087

>  <open_babel_can_smiles>
CC([C@@H](C(=C)C)C)C

>  <mulliken_charges>
24
1   -0.409271
2   -0.523064
3   -0.445549
4   -0.448853
5   -0.461719
6   0.24062
7   -0.072901
8   -0.128632
9   0.128431
10   0.130449
11   0.151961
12   0.156199
13   0.156267
14   0.136108
15   0.13783
16   0.151537
17   0.140561
18   0.144983
19   0.138225
20   0.14921
21   0.1487
22   0.141393
23   0.119191
24   0.118324

>  <lowdin_charges>
24
1   -0.369261
2   -0.443868
3   -0.444395
4   -0.445037
5   -0.444112
6   0.010584
7   -0.122725
8   -0.123091
9   0.151558
10   0.152785
11   0.157169
12   0.15656
13   0.154644
14   0.144504
15   0.145984
16   0.153382
17   0.147077
18   0.149593
19   0.145831
20   0.151558
21   0.150919
22   0.146019
23   0.134168
24   0.140156

$$$$

