PCCDB-ID:  36203
public computational chemistry database (PCCDB) project, http://pccdb.org

 21 20  0  0  1  0  0  0  0  0999 V2000
    4.0825    2.0326   -1.3995 C   0  0  0  0  0  0  0  0  0  0  0  0
    0.3631   -3.3014    1.5512 C   0  0  0  0  0  0  0  0  0  0  0  0
    0.9409   -2.9535    0.1797 C   0  0  0  0  0  0  0  0  0  0  0  0
    3.5665   -0.2517   -1.6058 C   0  0  0  0  0  0  0  0  0  0  0  0
    2.4925   -1.3321   -1.4897 C   0  0  1  0  0  0  0  0  0  0  0  0
   -0.5011   -2.2266    2.0465 N   0  0  0  0  0  0  0  0  0  0  0  0
    4.7154   -0.5219   -1.8906 O   0  0  0  0  0  0  0  0  0  0  0  0
    2.8953   -2.4716   -2.1808 O   0  0  0  0  0  0  0  0  0  0  0  0
    3.1040    0.9748   -1.3503 O   0  0  0  0  0  0  0  0  0  0  0  0
    2.2087   -1.6215    0.3329 S   0  0  0  0  0  0  0  0  0  0  0  0
    4.8690    1.8553   -0.6620 H   0  0  0  0  0  0  0  0  0  0  0  0
    3.5336    2.9447   -1.1672 H   0  0  0  0  0  0  0  0  0  0  0  0
    4.5280    2.0908   -2.3956 H   0  0  0  0  0  0  0  0  0  0  0  0
    1.1888   -3.5802    2.2308 H   0  0  0  0  0  0  0  0  0  0  0  0
   -0.2570   -4.1984    1.4276 H   0  0  0  0  0  0  0  0  0  0  0  0
    0.1358   -2.5998   -0.4725 H   0  0  0  0  0  0  0  0  0  0  0  0
    1.4178   -3.8242   -0.2766 H   0  0  0  0  0  0  0  0  0  0  0  0
    1.5470   -0.9882   -1.9164 H   0  0  0  0  0  0  0  0  0  0  0  0
    0.0499   -1.3804    2.1847 H   0  0  0  0  0  0  0  0  0  0  0  0
   -0.8731   -2.4795    2.9603 H   0  0  0  0  0  0  0  0  0  0  0  0
    3.8673   -2.5082   -2.0943 H   0  0  0  0  0  0  0  0  0  0  0  0
  1  9  1  0  0  0  0
  1 12  1  0  0  0  0
  1 11  1  0  0  0  0
  2  6  1  0  0  0  0
  2 14  1  0  0  0  0
  3 10  1  0  0  0  0
  3  2  1  0  0  0  0
  4  5  1  0  0  0  0
  4  9  1  0  0  0  0
  5 18  1  6  0  0  0
  5 10  1  0  0  0  0
  6 19  1  0  0  0  0
  6 20  1  0  0  0  0
  7  4  2  0  0  0  0
  8 21  1  0  0  0  0
  8  5  1  0  0  0  0
 13  1  1  0  0  0  0
 15  2  1  0  0  0  0
 16  3  1  0  0  0  0
 17  3  1  0  0  0  0
M  END
>  <HBA>
5

>  <HBD>
2

>  <TPSA>
97.85

>  <cid>
36203

>  <dipole>
1.69

>  <excitation_energy_1>
4.634

>  <excitation_energy_2>
5.173

>  <excitation_energy_3>
5.345

>  <excitation_energy_4>
5.715

>  <homo_energy>
-6.18

>  <homo_lumo_gap>
5.731

>  <logP>
-0.13

>  <lumo_energy>
-0.449

>  <melting_point>
68.38

>  <molecular_refractivity>
38.89

>  <oscillator_strength_1>
0.0003

>  <oscillator_strength_2>
0.0005

>  <oscillator_strength_3>
0.0016

>  <oscillator_strength_4>
0.0067

>  <open_babel_can_smiles>
COC(=O)[C@H](SCCN)O

>  <mulliken_charges>
21
1   -0.225109
2   -0.151176
3   -0.393815
4   0.588285
5   -0.077817
6   -0.716859
7   -0.475349
8   -0.590626
9   -0.427223
10   0.064725
11   0.179726
12   0.175369
13   0.178103
14   0.132616
15   0.151977
16   0.181428
17   0.187617
18   0.195818
19   0.311383
20   0.297818
21   0.41311

>  <lowdin_charges>
21
1   -0.275445
2   -0.206655
3   -0.370085
4   0.177239
5   -0.120196
6   -0.559746
7   -0.260678
8   -0.424681
9   -0.166268
10   0.055887
11   0.165589
12   0.167138
13   0.163389
14   0.12785
15   0.15127
16   0.165334
17   0.168305
18   0.173232
19   0.260061
20   0.255321
21   0.353138

$$$$

