PCCDB-ID:  69519
public computational chemistry database (PCCDB) project, http://pccdb.org

 21 21  0  0  0  0  0  0  0  0999 V2000
    1.0333   -1.0451    0.6548 C   0  0  0  0  0  0  0  0  0  0  0  0
    4.7195   -1.5548   -0.2049 C   0  0  0  0  0  0  0  0  0  0  0  0
    5.1444   -0.2533   -0.4614 C   0  0  0  0  0  0  0  0  0  0  0  0
    3.3906   -1.7923    0.1512 C   0  0  0  0  0  0  0  0  0  0  0  0
    4.2302    0.7970   -0.3615 C   0  0  0  0  0  0  0  0  0  0  0  0
    1.9415    1.7405    0.1219 C   0  0  0  0  0  0  0  0  0  0  0  0
    2.4625   -0.7511    0.2611 C   0  0  0  0  0  0  0  0  0  0  0  0
    2.8931    0.5696   -0.0049 C   0  0  0  0  0  0  0  0  0  0  0  0
    1.6494    2.1994    1.5610 C   0  0  0  0  0  0  0  0  0  0  0  0
    0.6289    2.7541    1.8820 O   0  0  0  0  0  0  0  0  0  0  0  0
    2.6393    1.9880    2.4622 O   0  0  0  0  0  0  0  0  0  0  0  0
    0.8890   -2.1152    0.8293 H   0  0  0  0  0  0  0  0  0  0  0  0
    0.3259   -0.7379   -0.1261 H   0  0  0  0  0  0  0  0  0  0  0  0
    0.7420   -0.5162    1.5706 H   0  0  0  0  0  0  0  0  0  0  0  0
    5.4163   -2.3851   -0.2808 H   0  0  0  0  0  0  0  0  0  0  0  0
    6.1742   -0.0533   -0.7434 H   0  0  0  0  0  0  0  0  0  0  0  0
    3.0630   -2.8100    0.3499 H   0  0  0  0  0  0  0  0  0  0  0  0
    4.5542    1.8133   -0.5772 H   0  0  0  0  0  0  0  0  0  0  0  0
    0.9698    1.5400   -0.3371 H   0  0  0  0  0  0  0  0  0  0  0  0
    2.3570    2.6138   -0.3978 H   0  0  0  0  0  0  0  0  0  0  0  0
    3.3613    1.4909    2.0353 H   0  0  0  0  0  0  0  0  0  0  0  0
  1 12  1  0  0  0  0
  1 14  1  0  0  0  0
  2  4  2  0  0  0  0
  3  5  2  0  0  0  0
  3  2  1  0  0  0  0
  4  7  1  0  0  0  0
  4 17  1  0  0  0  0
  5  8  1  0  0  0  0
  6  9  1  0  0  0  0
  7  1  1  0  0  0  0
  8  6  1  0  0  0  0
  8  7  2  0  0  0  0
  9 10  2  0  0  0  0
  9 11  1  0  0  0  0
 13  1  1  0  0  0  0
 15  2  1  0  0  0  0
 16  3  1  0  0  0  0
 18  5  1  0  0  0  0
 19  6  1  0  0  0  0
 20  6  1  0  0  0  0
 21 11  1  0  0  0  0
M  END
>  <HBA>
2

>  <HBD>
1

>  <TPSA>
37.3

>  <cid>
69519

>  <dipole>
4.57

>  <excitation_energy_1>
5.178

>  <excitation_energy_2>
5.495

>  <excitation_energy_3>
5.733

>  <excitation_energy_4>
6.033

>  <homo_energy>
-6.781

>  <homo_lumo_gap>
6.191

>  <logP>
1.622

>  <lumo_energy>
-0.59

>  <melting_point>
88.48

>  <molecular_refractivity>
42.95

>  <oscillator_strength_1>
0.0029

>  <oscillator_strength_2>
0.0196

>  <oscillator_strength_3>
0.0384

>  <oscillator_strength_4>
0.0215

>  <open_babel_can_smiles>
OC(=O)Cc1ccccc1C

>  <mulliken_charges>
21
1   -0.544139
2   -0.122965
3   -0.125575
4   -0.183477
5   -0.196259
6   -0.453016
7   0.151223
8   0.046194
9   0.592176
10   -0.44393
11   -0.566091
12   0.161799
13   0.169539
14   0.18144
15   0.137509
16   0.13767
17   0.132011
18   0.135474
19   0.187676
20   0.18763
21   0.415111

>  <lowdin_charges>
21
1   -0.445317
2   -0.151863
3   -0.15685
4   -0.160403
5   -0.174468
6   -0.315545
7   -0.000389
8   -0.039278
9   0.187514
10   -0.242625
11   -0.356372
12   0.160121
13   0.164944
14   0.169841
15   0.162786
16   0.160896
17   0.158231
18   0.157496
19   0.179881
20   0.179733
21   0.361667

$$$$

