PCCDB-ID:  37171
public computational chemistry database (PCCDB) project, http://pccdb.org

 26 27  0  0  1  0  0  0  0  0999 V2000
   -2.5620   -1.0610   -0.2861 C   0  0  0  0  0  0  0  0  0  0  0  0
    2.2713   -0.9054   -0.7835 C   0  0  0  0  0  0  0  0  0  0  0  0
   -2.7539    0.2919   -0.0200 C   0  0  0  0  0  0  0  0  0  0  0  0
    2.8843    0.4195   -0.3134 C   0  0  0  0  0  0  0  0  0  0  0  0
   -1.2757   -1.5964   -0.2178 C   0  0  0  0  0  0  0  0  0  0  0  0
    1.1995   -1.4879    0.1582 C   0  0  0  0  0  0  0  0  0  0  0  0
   -1.6546    1.0842    0.3099 C   0  0  0  0  0  0  0  0  0  0  0  0
    1.9243    1.6145   -0.2596 C   0  0  0  0  0  0  0  0  0  0  0  0
   -0.1613   -0.8124    0.1092 C   0  0  0  0  0  0  0  0  0  0  0  0
   -0.3568    0.5615    0.3778 C   0  0  0  0  0  0  0  0  0  0  0  0
    0.7701    1.5175    0.7602 C   0  0  1  0  0  0  0  0  0  0  0  0
    1.2576    1.2914    2.0907 O   0  0  0  0  0  0  0  0  0  0  0  0
   -3.4028   -1.6988   -0.5457 H   0  0  0  0  0  0  0  0  0  0  0  0
    3.0771   -1.6449   -0.8819 H   0  0  0  0  0  0  0  0  0  0  0  0
    1.8383   -0.7821   -1.7857 H   0  0  0  0  0  0  0  0  0  0  0  0
   -3.7473    0.7301   -0.0658 H   0  0  0  0  0  0  0  0  0  0  0  0
    3.7178    0.6793   -0.9788 H   0  0  0  0  0  0  0  0  0  0  0  0
    3.3328    0.2780    0.6809 H   0  0  0  0  0  0  0  0  0  0  0  0
   -1.1277   -2.6539   -0.4256 H   0  0  0  0  0  0  0  0  0  0  0  0
    1.5971   -1.4866    1.1868 H   0  0  0  0  0  0  0  0  0  0  0  0
    1.0571   -2.5470   -0.0855 H   0  0  0  0  0  0  0  0  0  0  0  0
   -1.8048    2.1400    0.5237 H   0  0  0  0  0  0  0  0  0  0  0  0
    1.4931    1.7934   -1.2544 H   0  0  0  0  0  0  0  0  0  0  0  0
    2.5056    2.5080    0.0008 H   0  0  0  0  0  0  0  0  0  0  0  0
    0.3259    2.5164    0.8222 H   0  0  0  0  0  0  0  0  0  0  0  0
    1.5444    0.3680    2.1532 H   0  0  0  0  0  0  0  0  0  0  0  0
  1  5  2  0  0  0  0
  1  3  1  0  0  0  0
  2  4  1  0  0  0  0
  2  6  1  0  0  0  0
  3  7  2  0  0  0  0
  4  8  1  0  0  0  0
  4 18  1  0  0  0  0
  5  9  1  0  0  0  0
  6 20  1  0  0  0  0
  7 10  1  0  0  0  0
  7 22  1  0  0  0  0
  8 24  1  0  0  0  0
  8 11  1  0  0  0  0
  9  6  1  0  0  0  0
  9 10  2  0  0  0  0
 10 11  1  0  0  0  0
 11 25  1  1  0  0  0
 11 12  1  0  0  0  0
 12 26  1  0  0  0  0
 13  1  1  0  0  0  0
 14  2  1  0  0  0  0
 15  2  1  0  0  0  0
 16  3  1  0  0  0  0
 17  4  1  0  0  0  0
 19  5  1  0  0  0  0
 21  6  1  0  0  0  0
 23  8  1  0  0  0  0
M  END
>  <HBA>
1

>  <HBD>
1

>  <TPSA>
20.23

>  <cid>
37171

>  <dipole>
1.82

>  <excitation_energy_1>
5.189

>  <excitation_energy_2>
5.615

>  <excitation_energy_3>
5.95

>  <excitation_energy_4>
6.017

>  <homo_energy>
-6.465

>  <homo_lumo_gap>
6.294

>  <logP>
2.446

>  <lumo_energy>
-0.171

>  <melting_point>
51.19

>  <molecular_refractivity>
49.84

>  <oscillator_strength_1>
0.0009

>  <oscillator_strength_2>
0.039

>  <oscillator_strength_3>
0.0096

>  <oscillator_strength_4>
0.0068

>  <open_babel_can_smiles>
O[C@H]1CCCCc2c1cccc2

>  <mulliken_charges>
26
1   -0.123608
2   -0.245626
3   -0.126041
4   -0.278506
5   -0.193998
6   -0.367766
7   -0.19434
8   -0.260695
9   0.128348
10   0.114175
11   0.043621
12   -0.629059
13   0.128567
14   0.134408
15   0.140023
16   0.128913
17   0.138113
18   0.128365
19   0.122609
20   0.129946
21   0.146845
22   0.129184
23   0.132955
24   0.141546
25   0.137439
26   0.394581

>  <lowdin_charges>
26
1   -0.157454
2   -0.275283
3   -0.158579
4   -0.282906
5   -0.16464
6   -0.276228
7   -0.157286
8   -0.291771
9   -0.012415
10   -0.029624
11   -0.000819
12   -0.461487
13   0.158548
14   0.146471
15   0.144201
16   0.157357
17   0.149246
18   0.136834
19   0.151834
20   0.137226
21   0.15186
22   0.154615
23   0.14526
24   0.15156
25   0.14859
26   0.33489

$$$$

