PCCDB-ID:  70748
public computational chemistry database (PCCDB) project, http://pccdb.org

 26 26  0  0  0  0  0  0  0  0999 V2000
    3.4061   -1.0458    0.8365 C   0  0  0  0  0  0  0  0  0  0  0  0
    3.0312   -0.2354   -0.4021 C   0  0  0  0  0  0  0  0  0  0  0  0
   -0.2241    3.8512   -0.3120 C   0  0  0  0  0  0  0  0  0  0  0  0
    1.2665    4.1837   -0.1537 C   0  0  0  0  0  0  0  0  0  0  0  0
   -0.4612    2.3340   -0.2764 C   0  0  0  0  0  0  0  0  0  0  0  0
    2.1282    3.4510   -1.1960 C   0  0  0  0  0  0  0  0  0  0  0  0
    0.3592    1.6202   -1.3602 C   0  0  0  0  0  0  0  0  0  0  0  0
    1.8809    1.9261   -1.2606 C   0  0  0  0  0  0  0  0  0  0  0  0
    2.4907    1.1575   -0.0870 C   0  0  0  0  0  0  0  0  0  0  0  0
    2.5431    1.6122    1.0436 O   0  0  0  0  0  0  0  0  0  0  0  0
    3.8218   -2.0183    0.5529 H   0  0  0  0  0  0  0  0  0  0  0  0
    2.5315   -1.2170    1.4721 H   0  0  0  0  0  0  0  0  0  0  0  0
    4.1457   -0.5123    1.4400 H   0  0  0  0  0  0  0  0  0  0  0  0
    2.2954   -0.7661   -1.0232 H   0  0  0  0  0  0  0  0  0  0  0  0
    3.9057   -0.0965   -1.0571 H   0  0  0  0  0  0  0  0  0  0  0  0
   -0.5925    4.2511   -1.2694 H   0  0  0  0  0  0  0  0  0  0  0  0
   -0.8065    4.3436    0.4769 H   0  0  0  0  0  0  0  0  0  0  0  0
    1.5991    3.8965    0.8486 H   0  0  0  0  0  0  0  0  0  0  0  0
    1.4233    5.2659   -0.2520 H   0  0  0  0  0  0  0  0  0  0  0  0
   -1.5259    2.1087   -0.4190 H   0  0  0  0  0  0  0  0  0  0  0  0
   -0.1841    1.9464    0.7126 H   0  0  0  0  0  0  0  0  0  0  0  0
    3.1913    3.6451   -1.0067 H   0  0  0  0  0  0  0  0  0  0  0  0
    1.9085    3.8594   -2.1933 H   0  0  0  0  0  0  0  0  0  0  0  0
    0.0168    1.9546   -2.3498 H   0  0  0  0  0  0  0  0  0  0  0  0
    0.1858    0.5364   -1.3248 H   0  0  0  0  0  0  0  0  0  0  0  0
    2.3511    1.5350   -2.1740 H   0  0  0  0  0  0  0  0  0  0  0  0
  1 13  1  0  0  0  0
  1 12  1  0  0  0  0
  2  9  1  0  0  0  0
  2  1  1  0  0  0  0
  3  5  1  0  0  0  0
  3  4  1  0  0  0  0
  3 17  1  0  0  0  0
  4 18  1  0  0  0  0
  5 21  1  0  0  0  0
  6 22  1  0  0  0  0
  6  4  1  0  0  0  0
  7 25  1  0  0  0  0
  7  8  1  0  0  0  0
  7  5  1  0  0  0  0
  8  6  1  0  0  0  0
  8  9  1  0  0  0  0
  9 10  2  0  0  0  0
 11  1  1  0  0  0  0
 14  2  1  0  0  0  0
 15  2  1  0  0  0  0
 16  3  1  0  0  0  0
 19  4  1  0  0  0  0
 20  5  1  0  0  0  0
 23  6  1  0  0  0  0
 24  7  1  0  0  0  0
 26  8  1  0  0  0  0
M  END
>  <HBA>
1

>  <HBD>
0

>  <TPSA>
17.07

>  <cid>
70748

>  <dipole>
2.36

>  <excitation_energy_1>
4.267

>  <excitation_energy_2>
5.778

>  <excitation_energy_3>
6.345

>  <excitation_energy_4>
6.476

>  <homo_energy>
-6.4

>  <homo_lumo_gap>
6.133

>  <logP>
2.546

>  <lumo_energy>
-0.267

>  <melting_point>
15.41

>  <molecular_refractivity>
43.46

>  <oscillator_strength_1>
0.0003

>  <oscillator_strength_2>
0.0036

>  <oscillator_strength_3>
0.0192

>  <oscillator_strength_4>
0.0013

>  <open_babel_can_smiles>
CCC(=O)C1CCCCC1

>  <mulliken_charges>
26
1   -0.433265
2   -0.356067
3   -0.257014
4   -0.260631
5   -0.259456
6   -0.261153
7   -0.274796
8   -0.165095
9   0.458649
10   -0.455326
11   0.139184
12   0.155662
13   0.165095
14   0.157161
15   0.162435
16   0.120725
17   0.131456
18   0.167796
19   0.123891
20   0.129607
21   0.15085
22   0.136241
23   0.126744
24   0.138197
25   0.132995
26   0.126116

>  <lowdin_charges>
26
1   -0.442379
2   -0.311414
3   -0.278296
4   -0.28128
5   -0.279617
6   -0.26925
7   -0.269043
8   -0.162338
9   0.163741
10   -0.242388
11   0.149666
12   0.15659
13   0.162279
14   0.159117
15   0.163469
16   0.133036
17   0.145628
18   0.156872
19   0.138936
20   0.142134
21   0.148667
22   0.145595
23   0.139321
24   0.143904
25   0.140227
26   0.146825

$$$$

