PCCDB-ID:  69850
public computational chemistry database (PCCDB) project, http://pccdb.org

 21 21  0  0  0  0  0  0  0  0999 V2000
    3.4478    0.0667   -1.0844 C   0  0  0  0  0  0  0  0  0  0  0  0
    4.4284   -2.5824    4.8071 C   0  0  0  0  0  0  0  0  0  0  0  0
    2.4085    0.0611    0.0508 C   0  0  0  0  0  0  0  0  0  0  0  0
    4.1440   -0.4510    3.4075 C   0  0  0  0  0  0  0  0  0  0  0  0
    3.6508    0.1888    2.2729 C   0  0  0  0  0  0  0  0  0  0  0  0
    2.7498   -1.9106    1.5694 C   0  0  0  0  0  0  0  0  0  0  0  0
    3.9448   -1.8085    3.6250 C   0  0  0  0  0  0  0  0  0  0  0  0
    2.9367   -0.5583    1.3272 C   0  0  0  0  0  0  0  0  0  0  0  0
    3.2369   -2.5365    2.6881 N   0  3  0  0  0  0  0  0  0  0  0  0
    3.0343   -3.7880    2.8664 O   0  5  0  0  0  0  0  0  0  0  0  0
    3.0342    0.5318   -1.9861 H   0  0  0  0  0  0  0  0  0  0  0  0
    3.7576   -0.9530   -1.3381 H   0  0  0  0  0  0  0  0  0  0  0  0
    4.3449    0.6250   -0.7946 H   0  0  0  0  0  0  0  0  0  0  0  0
    4.9831   -1.9323    5.4889 H   0  0  0  0  0  0  0  0  0  0  0  0
    5.0700   -3.4115    4.4882 H   0  0  0  0  0  0  0  0  0  0  0  0
    3.5867   -3.0388    5.3403 H   0  0  0  0  0  0  0  0  0  0  0  0
    1.5138   -0.4812   -0.2777 H   0  0  0  0  0  0  0  0  0  0  0  0
    2.0907    1.0905    0.2574 H   0  0  0  0  0  0  0  0  0  0  0  0
    4.6984    0.1060    4.1571 H   0  0  0  0  0  0  0  0  0  0  0  0
    3.8134    1.2523    2.1244 H   0  0  0  0  0  0  0  0  0  0  0  0
    2.2092   -2.5798    0.9119 H   0  0  0  0  0  0  0  0  0  0  0  0
  1 13  1  0  0  0  0
  1  3  1  0  0  0  0
  2 16  1  0  0  0  0
  2 14  1  0  0  0  0
  3 18  1  0  0  0  0
  3  8  1  0  0  0  0
  4  7  1  0  0  0  0
  4 19  1  0  0  0  0
  5  4  2  0  0  0  0
  6  9  1  0  0  0  0
  7  2  1  0  0  0  0
  8  6  2  0  0  0  0
  8  5  1  0  0  0  0
  9 10  1  0  0  0  0
  9  7  2  0  0  0  0
 11  1  1  0  0  0  0
 12  1  1  0  0  0  0
 15  2  1  0  0  0  0
 17  3  1  0  0  0  0
 20  5  1  0  0  0  0
 21  6  1  0  0  0  0
M  CHG  2   9   1  10  -1
M  END
>  <HBA>
1

>  <HBD>
0

>  <TPSA>
25.46

>  <cid>
69850

>  <dipole>
3.77

>  <excitation_energy_1>
4.171

>  <excitation_energy_2>
4.262

>  <excitation_energy_3>
4.786

>  <excitation_energy_4>
5.037

>  <homo_energy>
-5.581

>  <homo_lumo_gap>
4.77

>  <logP>
1.986

>  <lumo_energy>
-0.811

>  <melting_point>
26.83

>  <molecular_refractivity>
42.34

>  <oscillator_strength_1>
0.0001

>  <oscillator_strength_2>
0.0341

>  <oscillator_strength_3>
0.1594

>  <oscillator_strength_4>
0.0002

>  <open_babel_can_smiles>
CCc1ccc([n+](c1)[O-])C

>  <mulliken_charges>
21
1   -0.435831
2   -0.494062
3   -0.343454
4   -0.214183
5   -0.147136
6   0.019363
7   0.346922
8   0.125401
9   -0.056677
10   -0.527421
11   0.150331
12   0.155937
13   0.151776
14   0.147763
15   0.184722
16   0.184465
17   0.152926
18   0.150632
19   0.144132
20   0.134957
21   0.169438

>  <lowdin_charges>
21
1   -0.43987
2   -0.439587
3   -0.267394
4   -0.162523
5   -0.176897
6   -0.138837
7   0.020959
8   -0.000266
9   0.211045
10   -0.396713
11   0.153743
12   0.15338
13   0.152391
14   0.158104
15   0.177104
16   0.177023
17   0.154688
18   0.152565
19   0.169599
20   0.160675
21   0.180813

$$$$

