PCCDB-ID:  61809
public computational chemistry database (PCCDB) project, http://pccdb.org

 15 15  0  0  0  0  0  0  0  0999 V2000
    1.5109   -0.2877   -0.2329 C   0  0  0  0  0  0  0  0  0  0  0  0
    3.0029   -0.4719   -0.0339 C   0  0  0  0  0  0  0  0  0  0  0  0
    7.0260    0.2791    0.3715 C   0  0  0  0  0  0  0  0  0  0  0  0
    7.2457    1.6156    0.2583 C   0  0  0  0  0  0  0  0  0  0  0  0
    4.9362    0.8699    0.0554 C   0  0  0  0  0  0  0  0  0  0  0  0
    5.7150   -0.1483    0.2566 N   0  0  0  0  0  0  0  0  0  0  0  0
    3.6114    0.8399   -0.1032 O   0  0  0  0  0  0  0  0  0  0  0  0
    5.7291    2.4453   -0.0131 S   0  0  0  0  0  0  0  0  0  0  0  0
    1.0125   -1.2626   -0.1994 H   0  0  0  0  0  0  0  0  0  0  0  0
    1.2996    0.1750   -1.2020 H   0  0  0  0  0  0  0  0  0  0  0  0
    1.0860    0.3450    0.5527 H   0  0  0  0  0  0  0  0  0  0  0  0
    3.4488   -1.1061   -0.8075 H   0  0  0  0  0  0  0  0  0  0  0  0
    3.2394   -0.9159    0.9387 H   0  0  0  0  0  0  0  0  0  0  0  0
    7.7991   -0.4610    0.5449 H   0  0  0  0  0  0  0  0  0  0  0  0
    8.1787    2.1582    0.3143 H   0  0  0  0  0  0  0  0  0  0  0  0
  1  9  1  0  0  0  0
  1  2  1  0  0  0  0
  1 11  1  0  0  0  0
  2 13  1  0  0  0  0
  3 14  1  0  0  0  0
  4 15  1  0  0  0  0
  4  3  2  0  0  0  0
  5  6  2  0  0  0  0
  6  3  1  0  0  0  0
  7  2  1  0  0  0  0
  7  5  1  0  0  0  0
  8  5  1  0  0  0  0
  8  4  1  0  0  0  0
 10  1  1  0  0  0  0
 12  2  1  0  0  0  0
M  END
>  <HBA>
3

>  <HBD>
0

>  <TPSA>
50.36

>  <cid>
61809

>  <dipole>
0.57

>  <excitation_energy_1>
5.105

>  <excitation_energy_2>
5.397

>  <excitation_energy_3>
5.692

>  <excitation_energy_4>
5.99

>  <homo_energy>
-6.011

>  <homo_lumo_gap>
5.897

>  <logP>
1.542

>  <lumo_energy>
-0.114

>  <melting_point>
22.49

>  <molecular_refractivity>
33.41

>  <oscillator_strength_1>
0.0002

>  <oscillator_strength_2>
0.1632

>  <oscillator_strength_3>
0.0

>  <oscillator_strength_4>
0.0126

>  <open_babel_can_smiles>
CCOc1nccs1

>  <mulliken_charges>
15
1   -0.461417
2   -0.030917
3   0.061309
4   -0.357613
5   0.349598
6   -0.449253
7   -0.471505
8   0.224709
9   0.15445
10   0.164976
11   0.164653
12   0.163311
13   0.16327
14   0.150007
15   0.174422

>  <lowdin_charges>
15
1   -0.449299
2   -0.115662
3   -0.121336
4   -0.346163
5   0.005795
6   -0.210012
7   -0.18199
8   0.273343
9   0.16048
10   0.160485
11   0.161523
12   0.155023
13   0.153541
14   0.167951
15   0.186322

$$$$

