PCCDB-ID:  6943
public computational chemistry database (PCCDB) project, http://pccdb.org

 22 22  0  0  0  0  0  0  0  0999 V2000
    2.7905    0.7465    1.4363 C   0  0  0  0  0  0  0  0  0  0  0  0
    3.1172    0.8542   -1.0876 C   0  0  0  0  0  0  0  0  0  0  0  0
    2.4947   -3.7957   -0.0756 C   0  0  0  0  0  0  0  0  0  0  0  0
    3.8398   -4.1210    0.0805 C   0  0  0  0  0  0  0  0  0  0  0  0
    2.1116   -2.4526   -0.0685 C   0  0  0  0  0  0  0  0  0  0  0  0
    4.7808   -3.1044    0.2418 C   0  0  0  0  0  0  0  0  0  0  0  0
    2.5451    0.0387    0.0889 C   0  0  0  0  0  0  0  0  0  0  0  0
    3.0283   -1.4069    0.0901 C   0  0  0  0  0  0  0  0  0  0  0  0
    4.3827   -1.7647    0.2476 C   0  0  0  0  0  0  0  0  0  0  0  0
    5.3037   -0.7564    0.4084 O   0  0  0  0  0  0  0  0  0  0  0  0
    2.3480    1.7500    1.4225 H   0  0  0  0  0  0  0  0  0  0  0  0
    3.8598    0.8477    1.6411 H   0  0  0  0  0  0  0  0  0  0  0  0
    2.3354    0.1877    2.2619 H   0  0  0  0  0  0  0  0  0  0  0  0
    2.6765    1.8586   -1.1015 H   0  0  0  0  0  0  0  0  0  0  0  0
    2.8910    0.3726   -2.0457 H   0  0  0  0  0  0  0  0  0  0  0  0
    4.2026    0.9587   -1.0061 H   0  0  0  0  0  0  0  0  0  0  0  0
    1.7486   -4.5750   -0.2006 H   0  0  0  0  0  0  0  0  0  0  0  0
    4.1639   -5.1582    0.0779 H   0  0  0  0  0  0  0  0  0  0  0  0
    1.0609   -2.1993   -0.1927 H   0  0  0  0  0  0  0  0  0  0  0  0
    5.8355   -3.3482    0.3645 H   0  0  0  0  0  0  0  0  0  0  0  0
    1.4567   -0.0092   -0.0540 H   0  0  0  0  0  0  0  0  0  0  0  0
    6.1839   -1.1534    0.4985 H   0  0  0  0  0  0  0  0  0  0  0  0
  1 12  1  0  0  0  0
  1 13  1  0  0  0  0
  2 16  1  0  0  0  0
  2  7  1  0  0  0  0
  3  5  2  0  0  0  0
  3  4  1  0  0  0  0
  4  6  2  0  0  0  0
  5  8  1  0  0  0  0
  6  9  1  0  0  0  0
  6 20  1  0  0  0  0
  7  8  1  0  0  0  0
  7  1  1  0  0  0  0
  8  9  2  0  0  0  0
  9 10  1  0  0  0  0
 10 22  1  0  0  0  0
 11  1  1  0  0  0  0
 14  2  1  0  0  0  0
 15  2  1  0  0  0  0
 17  3  1  0  0  0  0
 18  4  1  0  0  0  0
 19  5  1  0  0  0  0
 21  7  1  0  0  0  0
M  END
>  <HBA>
1

>  <HBD>
1

>  <TPSA>
20.23

>  <cid>
6943

>  <dipole>
1.32

>  <excitation_energy_1>
5.036

>  <excitation_energy_2>
5.137

>  <excitation_energy_3>
5.718

>  <excitation_energy_4>
5.72

>  <homo_energy>
-5.864

>  <homo_lumo_gap>
5.984

>  <logP>
2.516

>  <lumo_energy>
0.12

>  <melting_point>
46.8

>  <molecular_refractivity>
43.05

>  <oscillator_strength_1>
0.0421

>  <oscillator_strength_2>
0.0

>  <oscillator_strength_3>
0.0171

>  <oscillator_strength_4>
0.0038

>  <open_babel_can_smiles>
CC(c1ccccc1O)C

>  <mulliken_charges>
22
1   -0.446906
2   -0.447329
3   -0.126633
4   -0.138207
5   -0.208808
6   -0.187706
7   -0.143663
8   0.151913
9   0.288385
10   -0.64537
11   0.134832
12   0.166201
13   0.140672
14   0.13488
15   0.140659
16   0.166325
17   0.124019
18   0.127957
19   0.124009
20   0.113466
21   0.124629
22   0.406674

>  <lowdin_charges>
22
1   -0.445585
2   -0.444236
3   -0.180123
4   -0.150002
5   -0.156332
6   -0.210789
7   -0.110164
8   -0.02799
9   0.094807
10   -0.381119
11   0.144794
12   0.156602
13   0.149214
14   0.14481
15   0.148095
16   0.156296
17   0.157566
18   0.156442
19   0.153516
20   0.149166
21   0.138699
22   0.356331

$$$$

