PCCDB-ID:  57542
public computational chemistry database (PCCDB) project, http://pccdb.org

 28 29  0  0  1  0  0  0  0  0999 V2000
    1.1702   -0.0898   -0.2002 C   0  0  0  0  0  0  0  0  0  0  0  0
    2.1960    2.6159    3.7624 C   0  0  0  0  0  0  0  0  0  0  0  0
    1.4860    3.6443    3.1446 C   0  0  0  0  0  0  0  0  0  0  0  0
    2.8305    1.6596    2.9711 C   0  0  0  0  0  0  0  0  0  0  0  0
    1.4413    3.6666    1.7526 C   0  0  0  0  0  0  0  0  0  0  0  0
    3.4719    0.7773    0.6776 C   0  0  0  0  0  0  0  0  0  0  0  0
    2.7464    1.7585    1.5781 C   0  0  0  0  0  0  0  0  0  0  0  0
    2.7864    1.0372   -1.7756 C   0  0  0  0  0  0  0  0  0  0  0  0
    3.3019   -1.2039   -0.8674 C   0  0  0  0  0  0  0  0  0  0  0  0
    3.7818   -0.6294   -3.0681 C   0  0  0  0  0  0  0  0  0  0  0  0
    2.6710    0.1483   -0.5260 C   0  0  2  0  0  0  0  0  0  0  0  0
    2.0545    2.7513    0.9923 N   0  0  0  0  0  0  0  0  0  0  0  0
    3.2671    0.6720   -2.9043 N   0  0  0  0  0  0  0  0  0  0  0  0
    3.7978   -1.5541   -1.9815 N   0  0  0  0  0  0  0  0  0  0  0  0
    2.3288    2.2829   -1.6703 O   0  0  0  0  0  0  0  0  0  0  0  0
    3.3171   -2.1321    0.1255 O   0  0  0  0  0  0  0  0  0  0  0  0
    4.2227   -0.9808   -4.1403 O   0  0  0  0  0  0  0  0  0  0  0  0
    0.6357    0.8553   -0.0920 H   0  0  0  0  0  0  0  0  0  0  0  0
    1.0397   -0.6493    0.7343 H   0  0  0  0  0  0  0  0  0  0  0  0
    0.6989   -0.6592   -1.0066 H   0  0  0  0  0  0  0  0  0  0  0  0
    2.2545    2.5564    4.8455 H   0  0  0  0  0  0  0  0  0  0  0  0
    0.9773    4.4095    3.7215 H   0  0  0  0  0  0  0  0  0  0  0  0
    3.3928    0.8498    3.4263 H   0  0  0  0  0  0  0  0  0  0  0  0
    0.8977    4.4426    1.2196 H   0  0  0  0  0  0  0  0  0  0  0  0
    3.8580   -0.0298    1.3079 H   0  0  0  0  0  0  0  0  0  0  0  0
    4.3619    1.2713    0.2659 H   0  0  0  0  0  0  0  0  0  0  0  0
    2.1165    2.5258   -0.7234 H   0  0  0  0  0  0  0  0  0  0  0  0
    2.8109   -1.8141    0.8890 H   0  0  0  0  0  0  0  0  0  0  0  0
  1 18  1  0  0  0  0
  1 19  1  0  0  0  0
  2 21  1  0  0  0  0
  3 22  1  0  0  0  0
  3  2  1  0  0  0  0
  4 23  1  0  0  0  0
  4  2  2  0  0  0  0
  5  3  2  0  0  0  0
  6 25  1  0  0  0  0
  6  7  1  0  0  0  0
  7  4  1  0  0  0  0
  8 15  1  0  0  0  0
  8 11  1  0  0  0  0
  9 11  1  0  0  0  0
  9 16  1  0  0  0  0
 10 13  2  0  0  0  0
 10 14  1  0  0  0  0
 11  1  1  1  0  0  0
 11  6  1  0  0  0  0
 12  7  2  0  0  0  0
 12  5  1  0  0  0  0
 13  8  2  0  0  0  0
 14  9  2  0  0  0  0
 15 27  1  0  0  0  0
 16 28  1  0  0  0  0
 17 10  2  0  0  0  0
 20  1  1  0  0  0  0
 24  5  1  0  0  0  0
 26  6  1  0  0  0  0
M  END
>  <HBA>
6

>  <HBD>
2

>  <TPSA>
88.16

>  <cid>
57542

>  <dipole>
14.0

>  <excitation_energy_1>
3.914

>  <excitation_energy_2>
4.053

>  <excitation_energy_3>
4.208

>  <excitation_energy_4>
4.428

>  <homo_energy>
-6.523

>  <homo_lumo_gap>
4.525

>  <logP>
0.654

>  <lumo_energy>
-1.997

>  <melting_point>
189.46

>  <molecular_refractivity>
65.29

>  <oscillator_strength_1>
0.0001

>  <oscillator_strength_2>
0.0002

>  <oscillator_strength_3>
0.0004

>  <oscillator_strength_4>
0.0002

>  <open_babel_can_smiles>
O=[C]1=[N]=C([C@](C(=N1)O)(C)Cc1ccccn1)O

>  <mulliken_charges>
28
1   -0.469068
2   -0.087496
3   -0.15382
4   -0.191476
5   0.06507
6   -0.394162
7   0.378811
8   0.532303
9   0.532159
10   0.614136
11   -0.115845
12   -0.543511
13   -0.471927
14   -0.46492
15   -0.60861
16   -0.579206
17   -0.439244
18   0.182331
19   0.141209
20   0.192013
21   0.164807
22   0.161856
23   0.154041
24   0.171519
25   0.16006
26   0.207924
27   0.451534
28   0.409511

>  <lowdin_charges>
28
1   -0.443389
2   -0.107851
3   -0.16675
4   -0.175285
5   -0.071808
6   -0.288385
7   0.058096
8   0.14631
9   0.140249
10   0.168736
11   -0.052181
12   -0.1591
13   -0.198198
14   -0.182181
15   -0.34937
16   -0.340952
17   -0.217733
18   0.17031
19   0.1475
20   0.176961
21   0.17238
22   0.177475
23   0.171532
24   0.172992
25   0.160979
26   0.185994
27   0.349156
28   0.354513

$$$$

