PCCDB-ID:  70983
public computational chemistry database (PCCDB) project, http://pccdb.org

 25 25  0  0  0  0  0  0  0  0999 V2000
    0.9839    0.0988    0.2406 C   0  0  0  0  0  0  0  0  0  0  0  0
    6.7685    2.3267   -0.5750 C   0  0  0  0  0  0  0  0  0  0  0  0
    4.6644    3.6268   -0.1342 C   0  0  0  0  0  0  0  0  0  0  0  0
    4.5152   -1.2424   -0.4353 C   0  0  0  0  0  0  0  0  0  0  0  0
    5.2550   -0.0770   -0.4848 C   0  0  0  0  0  0  0  0  0  0  0  0
    3.2212    1.1758   -0.0639 C   0  0  0  0  0  0  0  0  0  0  0  0
    2.4221   -2.5259   -0.1671 C   0  0  0  0  0  0  0  0  0  0  0  0
    2.4745    0.0024   -0.0140 C   0  0  0  0  0  0  0  0  0  0  0  0
    3.1285   -1.2386   -0.2040 C   0  0  0  0  0  0  0  0  0  0  0  0
    4.6186    1.1767   -0.2994 C   0  0  0  0  0  0  0  0  0  0  0  0
    5.3324    2.3537   -0.3484 N   0  0  0  0  0  0  0  0  0  0  0  0
    2.9525   -3.6163   -0.3253 O   0  0  0  0  0  0  0  0  0  0  0  0
    0.6803    1.1433    0.3586 H   0  0  0  0  0  0  0  0  0  0  0  0
    0.6884   -0.4369    1.1503 H   0  0  0  0  0  0  0  0  0  0  0  0
    0.4001   -0.3244   -0.5852 H   0  0  0  0  0  0  0  0  0  0  0  0
    7.1486    3.3492   -0.5875 H   0  0  0  0  0  0  0  0  0  0  0  0
    7.0184    1.8619   -1.5384 H   0  0  0  0  0  0  0  0  0  0  0  0
    7.2984    1.7769    0.2153 H   0  0  0  0  0  0  0  0  0  0  0  0
    5.3944    4.4332   -0.2193 H   0  0  0  0  0  0  0  0  0  0  0  0
    4.2059    3.6873    0.8629 H   0  0  0  0  0  0  0  0  0  0  0  0
    3.8782    3.8037   -0.8809 H   0  0  0  0  0  0  0  0  0  0  0  0
    4.9973   -2.2051   -0.5772 H   0  0  0  0  0  0  0  0  0  0  0  0
    6.3216   -0.1326   -0.6656 H   0  0  0  0  0  0  0  0  0  0  0  0
    2.7029    2.1159    0.0851 H   0  0  0  0  0  0  0  0  0  0  0  0
    1.3293   -2.4716    0.0215 H   0  0  0  0  0  0  0  0  0  0  0  0
  1 13  1  0  0  0  0
  1 14  1  0  0  0  0
  2 11  1  0  0  0  0
  2 18  1  0  0  0  0
  3 20  1  0  0  0  0
  4  9  1  0  0  0  0
  5  4  2  0  0  0  0
  5 10  1  0  0  0  0
  6  8  1  0  0  0  0
  6 24  1  0  0  0  0
  7 25  1  0  0  0  0
  8  1  1  0  0  0  0
  9  7  1  0  0  0  0
  9  8  2  0  0  0  0
 10  6  2  0  0  0  0
 11 10  1  0  0  0  0
 11  3  1  0  0  0  0
 12  7  2  0  0  0  0
 15  1  1  0  0  0  0
 16  2  1  0  0  0  0
 17  2  1  0  0  0  0
 19  3  1  0  0  0  0
 21  3  1  0  0  0  0
 22  4  1  0  0  0  0
 23  5  1  0  0  0  0
M  END
>  <HBA>
2

>  <HBD>
0

>  <TPSA>
20.31

>  <cid>
70983

>  <dipole>
6.13

>  <excitation_energy_1>
3.716

>  <excitation_energy_2>
4.066

>  <excitation_energy_3>
4.47

>  <excitation_energy_4>
4.703

>  <homo_energy>
-5.412

>  <homo_lumo_gap>
4.332

>  <logP>
1.873

>  <lumo_energy>
-1.08

>  <melting_point>
52.27

>  <molecular_refractivity>
51.0

>  <oscillator_strength_1>
0.0001

>  <oscillator_strength_2>
0.4761

>  <oscillator_strength_3>
0.0082

>  <oscillator_strength_4>
0.0205

>  <open_babel_can_smiles>
O=Cc1ccc(cc1C)N(C)C

>  <mulliken_charges>
25
1   -0.539288
2   -0.314873
3   -0.312503
4   -0.174928
5   -0.194669
6   -0.27399
7   0.178854
8   0.139146
9   0.03762
10   0.394073
11   -0.475988
12   -0.432686
13   0.154963
14   0.169115
15   0.169229
16   0.158986
17   0.166477
18   0.165283
19   0.159353
20   0.163638
21   0.164713
22   0.159171
23   0.128967
24   0.120042
25   0.089295

>  <lowdin_charges>
25
1   -0.446392
2   -0.34935
3   -0.350604
4   -0.112938
5   -0.21196
6   -0.226355
7   0.036207
8   0.026009
9   -0.096914
10   0.073266
11   -0.100683
12   -0.258349
13   0.155767
14   0.163905
15   0.164578
16   0.159209
17   0.152979
18   0.153206
19   0.160939
20   0.150487
21   0.152888
22   0.174117
23   0.159735
24   0.157554
25   0.112699

$$$$

