PCCDB-ID:  20186
public computational chemistry database (PCCDB) project, http://pccdb.org

 32 32  0  0  0  0  0  0  0  0999 V2000
    1.9267    1.7814   -1.5166 C   0  0  0  0  0  0  0  0  0  0  0  0
    2.6979    3.8443   -0.2290 C   0  0  0  0  0  0  0  0  0  0  0  0
    5.7229    0.3099    2.2839 C   0  0  0  0  0  0  0  0  0  0  0  0
    9.2899   -0.9874   -3.2513 C   0  0  0  0  0  0  0  0  0  0  0  0
    8.0645   -0.8103   -3.8950 C   0  0  0  0  0  0  0  0  0  0  0  0
    9.4516   -0.4998   -1.9547 C   0  0  0  0  0  0  0  0  0  0  0  0
    7.0042   -0.1640   -3.2621 C   0  0  0  0  0  0  0  0  0  0  0  0
    8.4078    0.1595   -1.3081 C   0  0  0  0  0  0  0  0  0  0  0  0
    3.0244    2.8173   -1.3035 C   0  0  0  0  0  0  0  0  0  0  0  0
    5.5450    0.0838    0.8052 C   0  0  0  0  0  0  0  0  0  0  0  0
    7.1776    0.3266   -1.9593 C   0  0  0  0  0  0  0  0  0  0  0  0
    5.0216    1.6248   -1.8180 C   0  0  0  0  0  0  0  0  0  0  0  0
    6.1238    0.9878   -1.2721 N   0  0  0  0  0  0  0  0  0  0  0  0
    4.8862   -0.7588    0.2651 O   0  0  0  0  0  0  0  0  0  0  0  0
    4.8115    1.6950   -3.0145 O   0  0  0  0  0  0  0  0  0  0  0  0
    4.2416    2.1466   -0.8528 O   0  0  0  0  0  0  0  0  0  0  0  0
    6.2686    1.0615    0.1207 O   0  0  0  0  0  0  0  0  0  0  0  0
    1.0014    2.2752   -1.8342 H   0  0  0  0  0  0  0  0  0  0  0  0
    1.7274    1.2345   -0.5885 H   0  0  0  0  0  0  0  0  0  0  0  0
    2.2176    1.0670   -2.2914 H   0  0  0  0  0  0  0  0  0  0  0  0
    1.7991    4.4024   -0.5119 H   0  0  0  0  0  0  0  0  0  0  0  0
    3.5218    4.5535   -0.1028 H   0  0  0  0  0  0  0  0  0  0  0  0
    2.5095    3.3561    0.7337 H   0  0  0  0  0  0  0  0  0  0  0  0
    5.3065   -0.5393    2.8266 H   0  0  0  0  0  0  0  0  0  0  0  0
    5.1955    1.2251    2.5743 H   0  0  0  0  0  0  0  0  0  0  0  0
    6.7790    0.4411    2.5365 H   0  0  0  0  0  0  0  0  0  0  0  0
   10.1070   -1.4978   -3.7528 H   0  0  0  0  0  0  0  0  0  0  0  0
    7.9204   -1.1869   -4.9041 H   0  0  0  0  0  0  0  0  0  0  0  0
   10.3990   -0.6257   -1.4375 H   0  0  0  0  0  0  0  0  0  0  0  0
    6.0594   -0.0244   -3.7669 H   0  0  0  0  0  0  0  0  0  0  0  0
    8.5433    0.5457   -0.3055 H   0  0  0  0  0  0  0  0  0  0  0  0
    3.2587    3.3117   -2.2501 H   0  0  0  0  0  0  0  0  0  0  0  0
  1  9  1  0  0  0  0
  1 19  1  0  0  0  0
  2 22  1  0  0  0  0
  2 23  1  0  0  0  0
  3 26  1  0  0  0  0
  3 25  1  0  0  0  0
  3 24  1  0  0  0  0
  4  6  2  0  0  0  0
  5  7  2  0  0  0  0
  5  4  1  0  0  0  0
  6 29  1  0  0  0  0
  6  8  1  0  0  0  0
  7 11  1  0  0  0  0
  8 31  1  0  0  0  0
  9 16  1  0  0  0  0
  9  2  1  0  0  0  0
 10  3  1  0  0  0  0
 11  8  2  0  0  0  0
 11 13  1  0  0  0  0
 12 13  1  0  0  0  0
 12 16  1  0  0  0  0
 13 17  1  0  0  0  0
 14 10  2  0  0  0  0
 15 12  2  0  0  0  0
 17 10  1  0  0  0  0
 18  1  1  0  0  0  0
 20  1  1  0  0  0  0
 21  2  1  0  0  0  0
 27  4  1  0  0  0  0
 28  5  1  0  0  0  0
 30  7  1  0  0  0  0
 32  9  1  0  0  0  0
M  END
>  <HBA>
5

>  <HBD>
0

>  <TPSA>
55.84

>  <cid>
20186

>  <dipole>
3.13

>  <excitation_energy_1>
4.875

>  <excitation_energy_2>
5.007

>  <excitation_energy_3>
5.242

>  <excitation_energy_4>
5.536

>  <homo_energy>
-5.97

>  <homo_lumo_gap>
5.812

>  <logP>
2.516

>  <lumo_energy>
-0.158

>  <melting_point>
47.57

>  <molecular_refractivity>
62.84

>  <oscillator_strength_1>
0.005

>  <oscillator_strength_2>
0.009

>  <oscillator_strength_3>
0.3224

>  <oscillator_strength_4>
0.0074

>  <open_babel_can_smiles>
CC(OC(=O)N(c1ccccc1)OC(=O)C)C

>  <mulliken_charges>
32
1   -0.456479
2   -0.452556
3   -0.53374
4   -0.122892
5   -0.145718
6   -0.136723
7   -0.153777
8   -0.163521
9   0.13116
10   0.627745
11   0.310633
12   0.831292
13   -0.327283
14   -0.425265
15   -0.511189
16   -0.494893
17   -0.382667
18   0.147171
19   0.15545
20   0.178189
21   0.152109
22   0.160122
23   0.15217
24   0.193064
25   0.198174
26   0.188247
27   0.128309
28   0.134343
29   0.13015
30   0.1789
31   0.142059
32   0.167418

>  <lowdin_charges>
32
1   -0.454942
2   -0.448028
3   -0.462924
4   -0.168
5   -0.146243
6   -0.150279
7   -0.168979
8   -0.182089
9   0.017586
10   0.211481
11   0.053955
12   0.212014
13   0.035563
14   -0.216027
15   -0.293178
16   -0.195358
17   -0.136905
18   0.157267
19   0.156597
20   0.169709
21   0.15915
22   0.160487
23   0.154305
24   0.183304
25   0.187578
26   0.179472
27   0.159156
28   0.159574
29   0.158464
30   0.185037
31   0.164623
32   0.15763

$$$$

