PCCDB-ID:  59145
public computational chemistry database (PCCDB) project, http://pccdb.org

 33 34  0  0  0  0  0  0  0  0999 V2000
    2.9264    0.3169    1.1468 C   0  0  0  0  0  0  0  0  0  0  0  0
    3.5686    0.4324   -0.2386 C   0  0  0  0  0  0  0  0  0  0  0  0
    3.2432   -6.7665   -0.3771 C   0  0  0  0  0  0  0  0  0  0  0  0
    2.4474   -5.6103   -0.2277 C   0  0  0  0  0  0  0  0  0  0  0  0
    4.5993   -6.6549   -0.5988 C   0  0  0  0  0  0  0  0  0  0  0  0
    3.0285   -4.3627   -0.2969 C   0  0  0  0  0  0  0  0  0  0  0  0
    7.1844   -3.9759   -0.9432 C   0  0  0  0  0  0  0  0  0  0  0  0
    6.3930   -2.8128   -0.7822 C   0  0  0  0  0  0  0  0  0  0  0  0
    4.7140   -0.5467   -0.4635 C   0  0  0  0  0  0  0  0  0  0  0  0
    7.5297   -6.4665   -1.0974 C   0  0  0  0  0  0  0  0  0  0  0  0
    6.6486   -5.2430   -0.9094 C   0  0  0  0  0  0  0  0  0  0  0  0
    5.2383   -5.3868   -0.6824 C   0  0  0  0  0  0  0  0  0  0  0  0
    4.4216   -4.2199   -0.5183 C   0  0  0  0  0  0  0  0  0  0  0  0
    5.0351   -2.9249   -0.5761 C   0  0  0  0  0  0  0  0  0  0  0  0
    8.8785   -6.1170   -1.5579 N   0  0  0  0  0  0  0  0  0  0  0  0
    4.1839   -1.8698   -0.4123 O   0  0  0  0  0  0  0  0  0  0  0  0
    2.1061    1.0340    1.2601 H   0  0  0  0  0  0  0  0  0  0  0  0
    3.6581    0.5178    1.9391 H   0  0  0  0  0  0  0  0  0  0  0  0
    2.5252   -0.6879    1.3100 H   0  0  0  0  0  0  0  0  0  0  0  0
    3.9659    1.4454   -0.3875 H   0  0  0  0  0  0  0  0  0  0  0  0
    2.8154    0.2728   -1.0205 H   0  0  0  0  0  0  0  0  0  0  0  0
    2.7844   -7.7501   -0.3172 H   0  0  0  0  0  0  0  0  0  0  0  0
    1.3786   -5.7053   -0.0556 H   0  0  0  0  0  0  0  0  0  0  0  0
    5.1914   -7.5578   -0.7065 H   0  0  0  0  0  0  0  0  0  0  0  0
    2.4282   -3.4674   -0.1818 H   0  0  0  0  0  0  0  0  0  0  0  0
    8.2544   -3.8686   -1.0875 H   0  0  0  0  0  0  0  0  0  0  0  0
    6.8750   -1.8431   -0.8240 H   0  0  0  0  0  0  0  0  0  0  0  0
    5.4855   -0.4264    0.3118 H   0  0  0  0  0  0  0  0  0  0  0  0
    5.1868   -0.3768   -1.4415 H   0  0  0  0  0  0  0  0  0  0  0  0
    7.0175   -7.1761   -1.7706 H   0  0  0  0  0  0  0  0  0  0  0  0
    7.6405   -6.9908   -0.1371 H   0  0  0  0  0  0  0  0  0  0  0  0
    8.8300   -5.7787   -2.5185 H   0  0  0  0  0  0  0  0  0  0  0  0
    9.4528   -6.9573   -1.5808 H   0  0  0  0  0  0  0  0  0  0  0  0
  1 17  1  0  0  0  0
  1 19  1  0  0  0  0
  1 18  1  0  0  0  0
  2  1  1  0  0  0  0
  3 22  1  0  0  0  0
  3  4  2  0  0  0  0
  4 23  1  0  0  0  0
  5  3  1  0  0  0  0
  6  4  1  0  0  0  0
  6 25  1  0  0  0  0
  7 11  2  0  0  0  0
  7  8  1  0  0  0  0
  8 14  2  0  0  0  0
  9 16  1  0  0  0  0
  9  2  1  0  0  0  0
  9 28  1  0  0  0  0
 10 11  1  0  0  0  0
 10 31  1  0  0  0  0
 11 12  1  0  0  0  0
 12  5  2  0  0  0  0
 12 13  1  0  0  0  0
 13  6  2  0  0  0  0
 14 13  1  0  0  0  0
 14 16  1  0  0  0  0
 15 10  1  0  0  0  0
 20  2  1  0  0  0  0
 21  2  1  0  0  0  0
 24  5  1  0  0  0  0
 26  7  1  0  0  0  0
 27  8  1  0  0  0  0
 29  9  1  0  0  0  0
 30 10  1  0  0  0  0
 32 15  1  0  0  0  0
 33 15  1  0  0  0  0
M  END
>  <HBA>
2

>  <HBD>
1

>  <TPSA>
35.25

>  <cid>
59145

>  <dipole>
1.07

>  <excitation_energy_1>
3.989

>  <excitation_energy_2>
4.308

>  <excitation_energy_3>
4.798

>  <excitation_energy_4>
4.998

>  <homo_energy>
-5.197

>  <homo_lumo_gap>
4.553

>  <logP>
3.788

>  <lumo_energy>
-0.645

>  <melting_point>
111.52

>  <molecular_refractivity>
67.73

>  <oscillator_strength_1>
0.1137

>  <oscillator_strength_2>
0.0236

>  <oscillator_strength_3>
0.008

>  <oscillator_strength_4>
0.0091

>  <open_babel_can_smiles>
CCCOc1ccc(c2c1cccc2)CN

>  <mulliken_charges>
33
1   -0.44458
2   -0.272651
3   -0.12781
4   -0.137642
5   -0.210906
6   -0.175731
7   -0.210164
8   -0.206939
9   -0.026338
10   -0.208561
11   0.099772
12   0.077352
13   0.054426
14   0.333295
15   -0.721981
16   -0.526759
17   0.144963
18   0.142138
19   0.166819
20   0.13786
21   0.150692
22   0.124569
23   0.1252
24   0.124486
25   0.146628
26   0.151313
27   0.12961
28   0.138019
29   0.139556
30   0.128367
31   0.155979
32   0.297974
33   0.301045

>  <lowdin_charges>
33
1   -0.446898
2   -0.278466
3   -0.156586
4   -0.161503
5   -0.169587
6   -0.151458
7   -0.158585
8   -0.223799
9   -0.124958
10   -0.206045
11   -0.035957
12   -0.002093
13   -0.021789
14   0.098156
15   -0.549842
16   -0.200791
17   0.152005
18   0.148137
19   0.157353
20   0.14788
21   0.151737
22   0.155611
23   0.154399
24   0.157319
25   0.167583
26   0.168122
27   0.160794
28   0.138103
29   0.139633
30   0.128943
31   0.151351
32   0.25313
33   0.258103

$$$$

