PCCDB-ID:  13574
public computational chemistry database (PCCDB) project, http://pccdb.org

 21 20  0  0  0  0  0  0  0  0999 V2000
    4.9304   -1.8051   -1.1938 C   0  0  0  0  0  0  0  0  0  0  0  0
    4.3756   -0.1778   -3.0451 C   0  0  0  0  0  0  0  0  0  0  0  0
    3.3210    0.1421   -0.7784 C   0  0  0  0  0  0  0  0  0  0  0  0
    3.4357    0.1941    0.7371 C   0  0  0  0  0  0  0  0  0  0  0  0
    4.5739   -0.3498   -1.5319 C   0  0  0  0  0  0  0  0  0  0  0  0
    4.7801    1.3747    2.3417 C   0  0  0  0  0  0  0  0  0  0  0  0
    4.4712    1.1634    1.0633 O   0  0  0  0  0  0  0  0  0  0  0  0
    4.1226    0.6536    3.6686 S   0  0  0  0  0  0  0  0  0  0  0  0
    6.0583    2.5968    2.5018 S   0  0  0  0  0  0  0  0  0  0  0  0
    5.8305   -2.1184   -1.7349 H   0  0  0  0  0  0  0  0  0  0  0  0
    4.1179   -2.4858   -1.4808 H   0  0  0  0  0  0  0  0  0  0  0  0
    5.1270   -1.9497   -0.1259 H   0  0  0  0  0  0  0  0  0  0  0  0
    5.2667   -0.4958   -3.5984 H   0  0  0  0  0  0  0  0  0  0  0  0
    4.1725    0.8674   -3.3071 H   0  0  0  0  0  0  0  0  0  0  0  0
    3.5307   -0.7813   -3.4020 H   0  0  0  0  0  0  0  0  0  0  0  0
    3.0464    1.1421   -1.1390 H   0  0  0  0  0  0  0  0  0  0  0  0
    2.4714   -0.5160   -1.0126 H   0  0  0  0  0  0  0  0  0  0  0  0
    3.7136   -0.7645    1.1831 H   0  0  0  0  0  0  0  0  0  0  0  0
    2.5038    0.5246    1.2058 H   0  0  0  0  0  0  0  0  0  0  0  0
    5.4156    0.2872   -1.2268 H   0  0  0  0  0  0  0  0  0  0  0  0
    6.2180    2.8430    1.1808 H   0  0  0  0  0  0  0  0  0  0  0  0
  1 12  1  0  0  0  0
  2  5  1  0  0  0  0
  3  4  1  0  0  0  0
  4  7  1  0  0  0  0
  4 18  1  0  0  0  0
  4 19  1  0  0  0  0
  5 20  1  0  0  0  0
  5  1  1  0  0  0  0
  5  3  1  0  0  0  0
  6  9  1  0  0  0  0
  6  8  2  0  0  0  0
  7  6  1  0  0  0  0
 10  1  1  0  0  0  0
 11  1  1  0  0  0  0
 13  2  1  0  0  0  0
 14  2  1  0  0  0  0
 15  2  1  0  0  0  0
 16  3  1  0  0  0  0
 17  3  1  0  0  0  0
 21  9  1  0  0  0  0
M  END
>  <HBA>
3

>  <HBD>
1

>  <TPSA>
80.12

>  <cid>
13574

>  <dipole>
3.91

>  <excitation_energy_1>
3.535

>  <excitation_energy_2>
4.916

>  <excitation_energy_3>
5.37

>  <excitation_energy_4>
5.521

>  <homo_energy>
-6.327

>  <homo_lumo_gap>
4.969

>  <logP>
2.264

>  <lumo_energy>
-1.358

>  <melting_point>
15.11

>  <molecular_refractivity>
47.76

>  <oscillator_strength_1>
0.0002

>  <oscillator_strength_2>
0.1347

>  <oscillator_strength_3>
0.0104

>  <oscillator_strength_4>
0.0001

>  <open_babel_can_smiles>
CC(CCOC(=S)S)C

>  <mulliken_charges>
21
1   -0.451891
2   -0.443806
3   -0.279163
4   -0.060014
5   -0.069827
6   0.06478
7   -0.403936
8   -0.171136
9   0.04934
10   0.148212
11   0.141011
12   0.149558
13   0.145709
14   0.142668
15   0.141051
16   0.148363
17   0.143723
18   0.18162
19   0.178031
20   0.137007
21   0.108703

>  <lowdin_charges>
21
1   -0.447807
2   -0.443838
3   -0.283911
4   -0.12565
5   -0.123677
6   -0.112364
7   -0.169841
8   -0.140587
9   0.052338
10   0.153679
11   0.147362
12   0.148993
13   0.151746
14   0.147714
15   0.147322
16   0.151717
17   0.153786
18   0.162902
19   0.164814
20   0.142757
21   0.122545

$$$$

