PCCDB-ID:  21429
public computational chemistry database (PCCDB) project, http://pccdb.org

 23 23  0  0  0  0  0  0  0  0999 V2000
    5.0381    0.6235   -0.0942 C   0  0  0  0  0  0  0  0  0  0  0  0
   -0.9376    5.2029    3.1707 C   0  0  0  0  0  0  0  0  0  0  0  0
    4.1500    1.7813    0.3575 C   0  0  0  0  0  0  0  0  0  0  0  0
   -0.1370    2.8268    2.7780 C   0  0  0  0  0  0  0  0  0  0  0  0
    1.2015    4.6412    1.9394 C   0  0  0  0  0  0  0  0  0  0  0  0
    0.7868    1.9129    2.2825 C   0  0  0  0  0  0  0  0  0  0  0  0
    2.1303    3.7310    1.4426 C   0  0  0  0  0  0  0  0  0  0  0  0
    0.0534    4.2068    2.6178 C   0  0  0  0  0  0  0  0  0  0  0  0
    1.9359    2.3504    1.6077 C   0  0  0  0  0  0  0  0  0  0  0  0
    2.8941    1.3188    1.0930 C   0  0  0  0  0  0  0  0  0  0  0  0
    2.6727    0.1276    1.2581 O   0  0  0  0  0  0  0  0  0  0  0  0
    5.9227    1.0010   -0.6179 H   0  0  0  0  0  0  0  0  0  0  0  0
    4.4955   -0.0466   -0.7672 H   0  0  0  0  0  0  0  0  0  0  0  0
    5.3692    0.0267    0.7606 H   0  0  0  0  0  0  0  0  0  0  0  0
   -1.8529    4.7102    3.5127 H   0  0  0  0  0  0  0  0  0  0  0  0
   -1.2162    5.9500    2.4182 H   0  0  0  0  0  0  0  0  0  0  0  0
   -0.5160    5.7491    4.0245 H   0  0  0  0  0  0  0  0  0  0  0  0
    3.8405    2.3914   -0.5032 H   0  0  0  0  0  0  0  0  0  0  0  0
    4.7062    2.4648    1.0148 H   0  0  0  0  0  0  0  0  0  0  0  0
   -1.0225    2.4680    3.2976 H   0  0  0  0  0  0  0  0  0  0  0  0
    1.3674    5.7068    1.7974 H   0  0  0  0  0  0  0  0  0  0  0  0
    0.6390    0.8446    2.4039 H   0  0  0  0  0  0  0  0  0  0  0  0
    3.0072    4.1045    0.9228 H   0  0  0  0  0  0  0  0  0  0  0  0
  1  3  1  0  0  0  0
  1 14  1  0  0  0  0
  2 15  1  0  0  0  0
  2 17  1  0  0  0  0
  3 19  1  0  0  0  0
  3 10  1  0  0  0  0
  4 20  1  0  0  0  0
  5  8  2  0  0  0  0
  6 22  1  0  0  0  0
  6  4  2  0  0  0  0
  7  9  2  0  0  0  0
  7  5  1  0  0  0  0
  8  4  1  0  0  0  0
  8  2  1  0  0  0  0
  9  6  1  0  0  0  0
 10 11  2  0  0  0  0
 10  9  1  0  0  0  0
 12  1  1  0  0  0  0
 13  1  1  0  0  0  0
 16  2  1  0  0  0  0
 18  3  1  0  0  0  0
 21  5  1  0  0  0  0
 23  7  1  0  0  0  0
M  END
>  <HBA>
1

>  <HBD>
0

>  <TPSA>
17.07

>  <cid>
21429

>  <dipole>
3.25

>  <excitation_energy_1>
3.784

>  <excitation_energy_2>
4.733

>  <excitation_energy_3>
4.972

>  <excitation_energy_4>
5.492

>  <homo_energy>
-6.626

>  <homo_lumo_gap>
5.279

>  <logP>
2.588

>  <lumo_energy>
-1.347

>  <melting_point>
42.39

>  <molecular_refractivity>
46.41

>  <oscillator_strength_1>
0.0

>  <oscillator_strength_2>
0.0187

>  <oscillator_strength_3>
0.3225

>  <oscillator_strength_4>
0.0001

>  <open_babel_can_smiles>
CCC(=O)c1ccc(cc1)C

>  <mulliken_charges>
23
1   -0.431481
2   -0.532274
3   -0.362049
4   -0.185023
5   -0.182027
6   -0.15522
7   -0.182597
8   0.18539
9   0.077826
10   0.40669
11   -0.466718
12   0.136783
13   0.161397
14   0.160699
15   0.16008
16   0.16468
17   0.169522
18   0.161334
19   0.160712
20   0.129552
21   0.126629
22   0.161885
23   0.13421

>  <lowdin_charges>
23
1   -0.441544
2   -0.444385
3   -0.310876
4   -0.167365
5   -0.166541
6   -0.124053
7   -0.148969
8   0.016735
9   -0.056732
10   0.157571
11   -0.245335
12   0.149188
13   0.160618
14   0.159684
15   0.159867
16   0.163557
17   0.165821
18   0.161858
19   0.161966
20   0.15807
21   0.154927
22   0.174446
23   0.161491

$$$$

