PCCDB-ID:  68631
public computational chemistry database (PCCDB) project, http://pccdb.org

 23 25  0  0  1  0  0  0  0  0999 V2000
    1.0866    0.5570   -0.3398 C   0  0  0  0  0  0  0  0  0  0  0  0
    0.9923   -0.8545   -0.2796 C   0  0  0  0  0  0  0  0  0  0  0  0
   -4.3719    2.9883   -0.0673 C   0  0  0  0  0  0  0  0  0  0  0  0
   -3.2892    1.8797   -0.2803 C   0  0  0  0  0  0  0  0  0  0  0  0
    0.0224    3.5305    0.0721 C   0  0  0  0  0  0  0  0  0  0  0  0
   -0.7169    2.3883    0.0133 C   0  0  0  0  0  0  0  0  0  0  0  0
   -0.1769    1.0516   -0.0787 C   0  0  0  0  0  0  0  0  0  0  0  0
   -0.3199   -1.1220    0.0053 C   0  0  0  0  0  0  0  0  0  0  0  0
   -2.4346    3.9803    0.1016 C   0  0  1  0  0  0  0  0  0  0  0  0
   -3.6645    4.2896   -0.0205 N   0  0  0  0  0  0  0  0  0  0  0  0
   -2.0835    2.6269    0.1152 N   0  0  0  0  0  0  0  0  0  0  0  0
   -1.0106   -2.3540    0.1705 N   0  0  0  0  0  0  0  0  0  0  0  0
   -0.3259   -3.3769    0.0553 O   0  0  0  0  0  0  0  0  0  0  0  0
   -2.2189   -2.3122    0.4114 O   0  0  0  0  0  0  0  0  0  0  0  0
   -1.0426    0.0181    0.1313 O   0  0  0  0  0  0  0  0  0  0  0  0
   -0.9710    4.9812    0.2030 S   0  0  0  0  0  0  0  0  0  0  0  0
    1.9686    1.1410   -0.5593 H   0  0  0  0  0  0  0  0  0  0  0  0
    1.7689   -1.5882   -0.4322 H   0  0  0  0  0  0  0  0  0  0  0  0
   -4.9046    2.8353    0.8803 H   0  0  0  0  0  0  0  0  0  0  0  0
   -5.1162    2.9921   -0.8687 H   0  0  0  0  0  0  0  0  0  0  0  0
   -3.2159    1.5637   -1.3291 H   0  0  0  0  0  0  0  0  0  0  0  0
   -3.4354    0.9971    0.3432 H   0  0  0  0  0  0  0  0  0  0  0  0
    1.0993    3.6024    0.1121 H   0  0  0  0  0  0  0  0  0  0  0  0
  1  2  1  0  0  0  0
  1  7  2  0  0  0  0
  2  8  2  0  0  0  0
  3 10  1  0  0  0  0
  3 19  1  0  0  0  0
  4  3  1  0  0  0  0
  4 11  1  0  0  0  0
  4 22  1  0  0  0  0
  5 23  1  0  0  0  0
  5 16  1  0  0  0  0
  6  5  2  0  0  0  0
  6 11  1  0  0  0  0
  7  6  1  0  0  0  0
  7 15  1  0  0  0  0
  8 15  1  0  0  0  0
  8 12  1  0  0  0  0
  9 10  1  6  0  0  0
  9 11  1  0  0  0  0
  9 16  1  0  0  0  0
 12 14  2  0  0  0  0
 13 12  2  0  0  0  0
 17  1  1  0  0  0  0
 18  2  1  0  0  0  0
 20  3  1  0  0  0  0
 21  4  1  0  0  0  0
M  RAD  2   9   2  10   2
M  END
>  <HBA>
4

>  <HBD>
0

>  <TPSA>
104.49

>  <cid>
68631

>  <dipole>
4.01

>  <excitation_energy_1>
2.259

>  <excitation_energy_2>
3.669

>  <excitation_energy_3>
3.723

>  <excitation_energy_4>
3.919

>  <homo_energy>
-5.478

>  <homo_lumo_gap>
2.702

>  <logP>
1.591

>  <lumo_energy>
-2.776

>  <melting_point>
143.89

>  <molecular_refractivity>
62.73

>  <oscillator_strength_1>
0.1439

>  <oscillator_strength_2>
0.017

>  <oscillator_strength_3>
0.0003

>  <oscillator_strength_4>
0.3882

>  <open_babel_can_smiles>
O=N(=O)c1ccc(o1)C1=CS[C]2N1CC[N]2

>  <mulliken_charges>
23
1   -0.199084
2   -0.151407
3   -0.175565
4   -0.158293
5   -0.431879
6   0.345182
7   0.349065
8   0.544588
9   0.311853
10   -0.475082
11   -0.523614
12   0.323223
13   -0.405536
14   -0.398328
15   -0.463694
16   0.272367
17   0.168232
18   0.193695
19   0.164996
20   0.164904
21   0.164055
22   0.195134
23   0.185187

>  <lowdin_charges>
23
1   -0.193798
2   -0.148304
3   -0.198741
4   -0.201911
5   -0.3297
6   0.026377
7   0.099437
8   0.065997
9   -0.037523
10   -0.237681
11   -0.083969
12   0.30081
13   -0.257386
14   -0.245168
15   -0.064762
16   0.298823
17   0.182483
18   0.198648
19   0.154127
20   0.15922
21   0.149895
22   0.173225
23   0.189903

$$$$

