PCCDB-ID:  2006
public computational chemistry database (PCCDB) project, http://pccdb.org

 24 25  0  0  0  0  0  0  0  0999 V2000
   -2.5650   -0.2390   -0.6478 C   0  0  0  0  0  0  0  0  0  0  0  0
   -2.2804   -1.5221   -0.1890 C   0  0  0  0  0  0  0  0  0  0  0  0
   -1.5762    0.7422   -0.7246 C   0  0  0  0  0  0  0  0  0  0  0  0
    0.0283   -0.8643    0.1356 C   0  0  0  0  0  0  0  0  0  0  0  0
   -0.9724   -1.8375    0.2064 C   0  0  0  0  0  0  0  0  0  0  0  0
   -0.2680    0.4234   -0.3278 C   0  0  0  0  0  0  0  0  0  0  0  0
   -0.6376   -3.1789    0.6948 C   0  0  0  0  0  0  0  0  0  0  0  0
    0.7695    2.6536   -0.7688 C   0  0  0  0  0  0  0  0  0  0  0  0
    2.1810    3.2622   -0.6356 C   0  0  0  0  0  0  0  0  0  0  0  0
    0.7915    1.3500   -0.3698 N   0  0  0  0  0  0  0  0  0  0  0  0
   -1.5100   -4.1858    0.7968 N   0  0  0  0  0  0  0  0  0  0  0  0
    0.6120   -3.5485    1.1052 N   0  0  0  0  0  0  0  0  0  0  0  0
   -0.7314   -5.1478    1.2767 N   0  0  0  0  0  0  0  0  0  0  0  0
    0.5365   -4.8009    1.4716 N   0  0  0  0  0  0  0  0  0  0  0  0
   -0.1841    3.2949   -1.1757 O   0  0  0  0  0  0  0  0  0  0  0  0
    2.2101    4.5427   -1.0130 O   0  0  0  0  0  0  0  0  0  0  0  0
    3.1436    2.6392   -0.2338 O   0  0  0  0  0  0  0  0  0  0  0  0
   -3.5769    0.0089   -0.9554 H   0  0  0  0  0  0  0  0  0  0  0  0
   -3.0563   -2.2781   -0.1325 H   0  0  0  0  0  0  0  0  0  0  0  0
   -1.8004    1.7378   -1.0814 H   0  0  0  0  0  0  0  0  0  0  0  0
    1.0374   -1.1200    0.4456 H   0  0  0  0  0  0  0  0  0  0  0  0
    1.7044    1.0236   -0.0685 H   0  0  0  0  0  0  0  0  0  0  0  0
   -1.0747   -6.0767    1.4843 H   0  0  0  0  0  0  0  0  0  0  0  0
    3.1306    4.8462   -0.8960 H   0  0  0  0  0  0  0  0  0  0  0  0
  1  2  1  0  0  0  0
  2 19  1  0  0  0  0
  2  5  2  0  0  0  0
  3  1  2  0  0  0  0
  3  6  1  0  0  0  0
  4  5  1  0  0  0  0
  4 21  1  0  0  0  0
  5  7  1  0  0  0  0
  6  4  2  0  0  0  0
  7 11  2  0  0  0  0
  7 12  1  0  0  0  0
  8  9  1  0  0  0  0
  8 10  1  0  0  0  0
  9 17  2  0  0  0  0
 10  6  1  0  0  0  0
 10 22  1  0  0  0  0
 11 13  1  0  0  0  0
 12 14  2  0  0  0  0
 13 14  1  0  0  0  0
 13 23  1  0  0  0  0
 15  8  2  0  0  0  0
 16 24  1  0  0  0  0
 16  9  1  0  0  0  0
 18  1  1  0  0  0  0
 20  3  1  0  0  0  0
M  END
>  <HBA>
7

>  <HBD>
3

>  <TPSA>
120.86

>  <cid>
2006

>  <dipole>
1.89

>  <excitation_energy_1>
3.888

>  <excitation_energy_2>
3.986

>  <excitation_energy_3>
4.229

>  <excitation_energy_4>
4.594

>  <homo_energy>
-6.343

>  <homo_lumo_gap>
4.487

>  <logP>
-0.037

>  <lumo_energy>
-1.856

>  <melting_point>
267.82

>  <molecular_refractivity>
55.7

>  <oscillator_strength_1>
0.0001

>  <oscillator_strength_2>
0.2241

>  <oscillator_strength_3>
0.0342

>  <oscillator_strength_4>
0.0714

>  <open_babel_can_smiles>
OC(=O)C(=O)Nc1cccc(c1)c1n[nH]nn1

>  <mulliken_charges>
24
1   -0.149048
2   -0.172211
3   -0.156581
4   -0.255763
5   0.131119
6   0.368753
7   0.448042
8   0.571243
9   0.535115
10   -0.728176
11   -0.338664
12   -0.365973
13   -0.193099
14   -0.030069
15   -0.484987
16   -0.531489
17   -0.470437
18   0.142724
19   0.156807
20   0.190974
21   0.168651
22   0.366644
23   0.374836
24   0.421589

>  <lowdin_charges>
24
1   -0.141509
2   -0.15684
3   -0.168748
4   -0.17018
5   -0.007872
6   0.057982
7   0.026879
8   0.130043
9   0.172199
10   -0.210436
11   -0.13553
12   -0.140051
13   -0.062064
14   -0.059093
15   -0.256287
16   -0.305396
17   -0.262818
18   0.1642
19   0.173623
20   0.189238
21   0.175421
22   0.305763
23   0.311528
24   0.369948

$$$$

