PCCDB-ID:  8738
public computational chemistry database (PCCDB) project, http://pccdb.org

 24 23  0  0  1  0  0  0  0  0999 V2000
    1.3161    0.1796   -1.5622 C   0  0  0  0  0  0  0  0  0  0  0  0
    0.5124   -2.9239    2.6325 C   0  0  0  0  0  0  0  0  0  0  0  0
    1.3184    0.5779   -0.0815 C   0  0  0  0  0  0  0  0  0  0  0  0
    2.7154    0.6888    0.5498 C   0  0  0  0  0  0  0  0  0  0  0  0
    3.5175   -0.6076    0.6053 C   0  0  0  0  0  0  0  0  0  0  0  0
    1.7223   -3.6038    1.9774 C   0  0  2  0  0  0  0  0  0  0  0  0
    2.3772   -2.6956    0.9374 C   0  0  0  0  0  0  0  0  0  0  0  0
    1.3439   -4.8155    1.3625 O   0  0  0  0  0  0  0  0  0  0  0  0
    2.4316   -2.9958   -0.2416 O   0  0  0  0  0  0  0  0  0  0  0  0
    2.8620   -1.5704    1.4770 O   0  0  0  0  0  0  0  0  0  0  0  0
    0.2982    0.2024   -1.9673 H   0  0  0  0  0  0  0  0  0  0  0  0
    1.7051   -0.8331   -1.7109 H   0  0  0  0  0  0  0  0  0  0  0  0
    1.9250    0.8703   -2.1595 H   0  0  0  0  0  0  0  0  0  0  0  0
    0.8101   -2.0188    3.1703 H   0  0  0  0  0  0  0  0  0  0  0  0
    0.0516   -3.6221    3.3372 H   0  0  0  0  0  0  0  0  0  0  0  0
   -0.2340   -2.6637    1.8742 H   0  0  0  0  0  0  0  0  0  0  0  0
    0.7160   -0.1363    0.4950 H   0  0  0  0  0  0  0  0  0  0  0  0
    0.8207    1.5496    0.0334 H   0  0  0  0  0  0  0  0  0  0  0  0
    2.6274    1.0859    1.5692 H   0  0  0  0  0  0  0  0  0  0  0  0
    3.3185    1.4131   -0.0167 H   0  0  0  0  0  0  0  0  0  0  0  0
    4.4987   -0.4348    1.0567 H   0  0  0  0  0  0  0  0  0  0  0  0
    3.6507   -1.0617   -0.3776 H   0  0  0  0  0  0  0  0  0  0  0  0
    2.4781   -3.8060    2.7519 H   0  0  0  0  0  0  0  0  0  0  0  0
    1.5384   -4.7048    0.4129 H   0  0  0  0  0  0  0  0  0  0  0  0
  1  3  1  0  0  0  0
  2 14  1  0  0  0  0
  2 15  1  0  0  0  0
  3 18  1  0  0  0  0
  3 17  1  0  0  0  0
  3  4  1  0  0  0  0
  4  5  1  0  0  0  0
  4 19  1  0  0  0  0
  5 21  1  0  0  0  0
  5 10  1  0  0  0  0
  6  2  1  0  0  0  0
  6 23  1  1  0  0  0
  7 10  1  0  0  0  0
  7  6  1  0  0  0  0
  8  6  1  0  0  0  0
  9  7  2  0  0  0  0
 11  1  1  0  0  0  0
 12  1  1  0  0  0  0
 13  1  1  0  0  0  0
 16  2  1  0  0  0  0
 20  4  1  0  0  0  0
 22  5  1  0  0  0  0
 24  8  1  0  0  0  0
M  END
>  <HBA>
3

>  <HBD>
1

>  <TPSA>
46.53

>  <cid>
8738

>  <dipole>
3.09

>  <excitation_energy_1>
6.029

>  <excitation_energy_2>
6.178

>  <excitation_energy_3>
6.921

>  <excitation_energy_4>
7.364

>  <homo_energy>
-7.192

>  <homo_lumo_gap>
7.195

>  <logP>
0.711

>  <lumo_energy>
0.003

>  <melting_point>
3.83

>  <molecular_refractivity>
38.21

>  <oscillator_strength_1>
0.0005

>  <oscillator_strength_2>
0.0293

>  <oscillator_strength_3>
0.0076

>  <oscillator_strength_4>
0.0014

>  <open_babel_can_smiles>
CCCCOC(=O)[C@H](O)C

>  <mulliken_charges>
24
1   -0.459563
2   -0.451508
3   -0.257978
4   -0.26766
5   -0.068779
6   0.087744
7   0.598774
8   -0.63791
9   -0.494731
10   -0.457116
11   0.146515
12   0.172297
13   0.137856
14   0.15492
15   0.168515
16   0.154036
17   0.142451
18   0.138645
19   0.147167
20   0.140595
21   0.157121
22   0.186299
23   0.152627
24   0.409684

>  <lowdin_charges>
24
1   -0.454123
2   -0.452118
3   -0.277203
4   -0.284503
5   -0.132262
6   -0.021248
7   0.182976
8   -0.460212
9   -0.275707
10   -0.178876
11   0.15235
12   0.158417
13   0.146051
14   0.158455
15   0.16619
16   0.156171
17   0.145433
18   0.146168
19   0.150042
20   0.152201
21   0.155017
22   0.165684
23   0.152694
24   0.348407

$$$$

