PCCDB-ID:  52816
public computational chemistry database (PCCDB) project, http://pccdb.org

 35 36  0  0  0  0  0  0  0  0999 V2000
    2.3967   -0.9135   -0.5812 C   0  0  0  0  0  0  0  0  0  0  0  0
    5.3721    5.3514    1.4549 C   0  0  0  0  0  0  0  0  0  0  0  0
    2.2237    0.6037   -0.6433 C   0  0  0  0  0  0  0  0  0  0  0  0
    4.9995    4.5550    0.2022 C   0  0  0  0  0  0  0  0  0  0  0  0
    4.7409    3.5518   -4.6109 C   0  0  0  0  0  0  0  0  0  0  0  0
    3.6158    4.2012   -4.1032 C   0  0  0  0  0  0  0  0  0  0  0  0
    5.4257    2.6296   -3.8138 C   0  0  0  0  0  0  0  0  0  0  0  0
    3.1845    3.9323   -2.8019 C   0  0  0  0  0  0  0  0  0  0  0  0
    4.9892    2.3614   -2.5173 C   0  0  0  0  0  0  0  0  0  0  0  0
    3.8342    1.1914    1.1489 C   0  0  0  0  0  0  0  0  0  0  0  0
    4.8434    2.3240    1.2788 C   0  0  0  0  0  0  0  0  0  0  0  0
    3.8653    3.0153   -1.9938 C   0  0  0  0  0  0  0  0  0  0  0  0
    3.3933    2.7590   -0.5633 C   0  0  0  0  0  0  0  0  0  0  0  0
    3.4273    1.3240   -0.2469 N   0  0  0  0  0  0  0  0  0  0  0  0
    4.1929    3.3846    0.5186 N   0  0  0  0  0  0  0  0  0  0  0  0
    1.4954   -1.4132   -0.9534 H   0  0  0  0  0  0  0  0  0  0  0  0
    2.5683   -1.2635    0.4428 H   0  0  0  0  0  0  0  0  0  0  0  0
    3.2471   -1.2273   -1.1959 H   0  0  0  0  0  0  0  0  0  0  0  0
    5.9077    6.2659    1.1757 H   0  0  0  0  0  0  0  0  0  0  0  0
    6.0250    4.7802    2.1243 H   0  0  0  0  0  0  0  0  0  0  0  0
    4.4729    5.6303    2.0147 H   0  0  0  0  0  0  0  0  0  0  0  0
    1.3544    0.9068   -0.0248 H   0  0  0  0  0  0  0  0  0  0  0  0
    1.9939    0.8954   -1.6749 H   0  0  0  0  0  0  0  0  0  0  0  0
    5.9198    4.2895   -0.3525 H   0  0  0  0  0  0  0  0  0  0  0  0
    4.4137    5.1965   -0.4648 H   0  0  0  0  0  0  0  0  0  0  0  0
    5.0788    3.7550   -5.6238 H   0  0  0  0  0  0  0  0  0  0  0  0
    3.0709    4.9125   -4.7187 H   0  0  0  0  0  0  0  0  0  0  0  0
    6.2982    2.1141   -4.2076 H   0  0  0  0  0  0  0  0  0  0  0  0
    2.3024    4.4355   -2.4099 H   0  0  0  0  0  0  0  0  0  0  0  0
    5.4980    1.6239   -1.9045 H   0  0  0  0  0  0  0  0  0  0  0  0
    2.9945    1.3432    1.8537 H   0  0  0  0  0  0  0  0  0  0  0  0
    4.2726    0.2070    1.3418 H   0  0  0  0  0  0  0  0  0  0  0  0
    5.8238    2.0255    0.8599 H   0  0  0  0  0  0  0  0  0  0  0  0
    5.0003    2.6236    2.3210 H   0  0  0  0  0  0  0  0  0  0  0  0
    2.3628    3.1605   -0.4870 H   0  0  0  0  0  0  0  0  0  0  0  0
  1 17  1  0  0  0  0
  2 21  1  0  0  0  0
  2 20  1  0  0  0  0
  3  1  1  0  0  0  0
  3 14  1  0  0  0  0
  3 22  1  0  0  0  0
  4 15  1  0  0  0  0
  4  2  1  0  0  0  0
  5  6  2  0  0  0  0
  5  7  1  0  0  0  0
  6  8  1  0  0  0  0
  7  9  2  0  0  0  0
  8 29  1  0  0  0  0
  8 12  2  0  0  0  0
  9 12  1  0  0  0  0
  9 30  1  0  0  0  0
 10 11  1  0  0  0  0
 10 32  1  0  0  0  0
 10 31  1  0  0  0  0
 11 34  1  0  0  0  0
 12 13  1  0  0  0  0
 13 35  1  0  0  0  0
 13 14  1  0  0  0  0
 13 15  1  0  0  0  0
 14 10  1  0  0  0  0
 15 11  1  0  0  0  0
 16  1  1  0  0  0  0
 18  1  1  0  0  0  0
 19  2  1  0  0  0  0
 23  3  1  0  0  0  0
 24  4  1  0  0  0  0
 25  4  1  0  0  0  0
 26  5  1  0  0  0  0
 27  6  1  0  0  0  0
 28  7  1  0  0  0  0
 33 11  1  0  0  0  0
M  END
>  <HBA>
2

>  <HBD>
0

>  <TPSA>
6.48

>  <cid>
52816

>  <dipole>
0.22

>  <excitation_energy_1>
4.366

>  <excitation_energy_2>
4.522

>  <excitation_energy_3>
4.842

>  <excitation_energy_4>
4.972

>  <homo_energy>
-5.342

>  <homo_lumo_gap>
5.323

>  <logP>
2.218

>  <lumo_energy>
-0.019

>  <melting_point>
31.02

>  <molecular_refractivity>
71.76

>  <oscillator_strength_1>
0.0144

>  <oscillator_strength_2>
0.0035

>  <oscillator_strength_3>
0.0123

>  <oscillator_strength_4>
0.0149

>  <open_babel_can_smiles>
CCN1CCN(C1c1ccccc1)CC

>  <mulliken_charges>
35
1   -0.451813
2   -0.448351
3   -0.11039
4   -0.109607
5   -0.12835
6   -0.130168
7   -0.132129
8   -0.193383
9   -0.16712
10   -0.124538
11   -0.120847
12   0.157909
13   0.150684
14   -0.433323
15   -0.440097
16   0.143963
17   0.147115
18   0.155749
19   0.141317
20   0.145013
21   0.151653
22   0.111982
23   0.147498
24   0.119376
25   0.143754
26   0.127237
27   0.127326
28   0.127408
29   0.125022
30   0.137754
31   0.11913
32   0.143381
33   0.117793
34   0.142111
35   0.106943

>  <lowdin_charges>
35
1   -0.449512
2   -0.451579
3   -0.195442
4   -0.197914
5   -0.157045
6   -0.159898
7   -0.157647
8   -0.170409
9   -0.155526
10   -0.202429
11   -0.197973
12   -0.023994
13   0.011476
14   -0.186251
15   -0.19583
16   0.153538
17   0.147651
18   0.155559
19   0.151616
20   0.148617
21   0.153129
22   0.117922
23   0.148511
24   0.122752
25   0.150498
26   0.155541
27   0.157767
28   0.156719
29   0.154388
30   0.163776
31   0.123474
32   0.146423
33   0.120039
34   0.144172
35   0.117883

$$$$

