PCCDB-ID:  67068
public computational chemistry database (PCCDB) project, http://pccdb.org

 24 24  0  0  0  0  0  0  0  0999 V2000
    3.0591   -1.2774    0.4058 C   0  0  0  0  0  0  0  0  0  0  0  0
    4.5685    1.0052   -0.3701 C   0  0  0  0  0  0  0  0  0  0  0  0
    0.8172    3.7705   -1.5949 C   0  0  0  0  0  0  0  0  0  0  0  0
    2.5835    4.7919   -0.3180 C   0  0  0  0  0  0  0  0  0  0  0  0
    1.3562    2.5134   -1.3478 C   0  0  0  0  0  0  0  0  0  0  0  0
    3.1149    3.5305   -0.0593 C   0  0  0  0  0  0  0  0  0  0  0  0
    2.3271    0.0184    0.0723 C   0  0  0  0  0  0  0  0  0  0  0  0
    1.4202    4.9341   -1.0881 C   0  0  0  0  0  0  0  0  0  0  0  0
    2.5157    2.3745   -0.5726 C   0  0  0  0  0  0  0  0  0  0  0  0
    0.8416    6.1923   -1.2962 N   0  0  0  0  0  0  0  0  0  0  0  0
    3.1084    1.0908   -0.3339 N   0  0  0  0  0  0  0  0  0  0  0  0
    1.1081    0.0839    0.1542 O   0  0  0  0  0  0  0  0  0  0  0  0
    3.5139   -1.7237   -0.4871 H   0  0  0  0  0  0  0  0  0  0  0  0
    2.3171   -1.9714    0.8018 H   0  0  0  0  0  0  0  0  0  0  0  0
    3.8539   -1.1355    1.1463 H   0  0  0  0  0  0  0  0  0  0  0  0
    4.8890    0.0313   -0.7453 H   0  0  0  0  0  0  0  0  0  0  0  0
    5.0313    1.1639    0.6143 H   0  0  0  0  0  0  0  0  0  0  0  0
    4.9459    1.7686   -1.0534 H   0  0  0  0  0  0  0  0  0  0  0  0
   -0.0876    3.8541   -2.1932 H   0  0  0  0  0  0  0  0  0  0  0  0
    3.0683    5.6740    0.0945 H   0  0  0  0  0  0  0  0  0  0  0  0
    0.8700    1.6328   -1.7467 H   0  0  0  0  0  0  0  0  0  0  0  0
    4.0060    3.4533    0.5569 H   0  0  0  0  0  0  0  0  0  0  0  0
    0.2623    6.2575   -2.1244 H   0  0  0  0  0  0  0  0  0  0  0  0
    1.4894    6.9690   -1.2432 H   0  0  0  0  0  0  0  0  0  0  0  0
  1 14  1  0  0  0  0
  1 15  1  0  0  0  0
  2 11  1  0  0  0  0
  2 17  1  0  0  0  0
  3  5  2  0  0  0  0
  3  8  1  0  0  0  0
  4  6  1  0  0  0  0
  4 20  1  0  0  0  0
  5  9  1  0  0  0  0
  6 22  1  0  0  0  0
  7 12  2  0  0  0  0
  7  1  1  0  0  0  0
  8  4  2  0  0  0  0
  9 11  1  0  0  0  0
  9  6  2  0  0  0  0
 10 24  1  0  0  0  0
 10  8  1  0  0  0  0
 11  7  1  0  0  0  0
 13  1  1  0  0  0  0
 16  2  1  0  0  0  0
 18  2  1  0  0  0  0
 19  3  1  0  0  0  0
 21  5  1  0  0  0  0
 23 10  1  0  0  0  0
M  END
>  <HBA>
3

>  <HBD>
1

>  <TPSA>
46.33

>  <cid>
67068

>  <dipole>
4.28

>  <excitation_energy_1>
4.423

>  <excitation_energy_2>
4.557

>  <excitation_energy_3>
4.733

>  <excitation_energy_4>
4.917

>  <homo_energy>
-5.119

>  <homo_lumo_gap>
5.304

>  <logP>
1.833

>  <lumo_energy>
0.185

>  <melting_point>
83.55

>  <molecular_refractivity>
50.06

>  <oscillator_strength_1>
0.0352

>  <oscillator_strength_2>
0.014

>  <oscillator_strength_3>
0.1467

>  <oscillator_strength_4>
0.1175

>  <open_babel_can_smiles>
CN(c1ccc(cc1)N)C(=O)C

>  <mulliken_charges>
24
1   -0.549699
2   -0.323946
3   -0.191179
4   -0.186494
5   -0.129395
6   -0.170257
7   0.570844
8   0.31697
9   0.285598
10   -0.788685
11   -0.507822
12   -0.495364
13   0.169419
14   0.187549
15   0.164057
16   0.166128
17   0.157847
18   0.175069
19   0.119488
20   0.11614
21   0.152856
22   0.125033
23   0.318563
24   0.317282

>  <lowdin_charges>
24
1   -0.475205
2   -0.353204
3   -0.194734
4   -0.201409
5   -0.142896
6   -0.168679
7   0.159769
8   0.055832
9   0.026247
10   -0.49048
11   -0.094516
12   -0.29655
13   0.16744
14   0.179781
15   0.164503
16   0.161131
17   0.14593
18   0.168096
19   0.154095
20   0.153212
21   0.175245
22   0.157717
23   0.274371
24   0.274304

$$$$

