PCCDB-ID:  6497
public computational chemistry database (PCCDB) project, http://pccdb.org

 13 12  0  0  0  0  0  0  0  0999 V2000
    1.1313    0.1199   -0.2303 C   0  0  0  0  0  0  0  0  0  0  0  0
    5.1504    1.1704    2.5955 C   0  0  0  0  0  0  0  0  0  0  0  0
    2.4211    2.2457    1.6284 O   0  0  0  0  0  0  0  0  0  0  0  0
    2.3012   -0.0617    2.6222 O   0  0  0  0  0  0  0  0  0  0  0  0
    2.5335    0.2200    0.1232 O   0  0  0  0  0  0  0  0  0  0  0  0
    4.4057    0.6944    1.4466 O   0  0  0  0  0  0  0  0  0  0  0  0
    2.8011    0.8401    1.5934 S   0  0  0  0  0  0  0  0  0  0  0  0
    1.1302   -0.3065   -1.2330 H   0  0  0  0  0  0  0  0  0  0  0  0
    0.6714    1.1116   -0.2383 H   0  0  0  0  0  0  0  0  0  0  0  0
    0.6117   -0.5434    0.4661 H   0  0  0  0  0  0  0  0  0  0  0  0
    6.1946    0.9954    2.3381 H   0  0  0  0  0  0  0  0  0  0  0  0
    4.8776    0.5989    3.4867 H   0  0  0  0  0  0  0  0  0  0  0  0
    4.9694    2.2376    2.7482 H   0  0  0  0  0  0  0  0  0  0  0  0
  1  5  1  0  0  0  0
  1 10  1  0  0  0  0
  2 13  1  0  0  0  0
  2 12  1  0  0  0  0
  5  7  1  0  0  0  0
  6  7  1  0  0  0  0
  6  2  1  0  0  0  0
  7  3  2  0  0  0  0
  7  4  2  0  0  0  0
  8  1  1  0  0  0  0
  9  1  1  0  0  0  0
 11  2  1  0  0  0  0
M  END
>  <HBA>
4

>  <HBD>
0

>  <TPSA>
60.98

>  <cid>
6497

>  <dipole>
1.19

>  <excitation_energy_1>
6.991

>  <excitation_energy_2>
7.328

>  <excitation_energy_3>
7.679

>  <excitation_energy_4>
7.745

>  <homo_energy>
-8.085

>  <homo_lumo_gap>
8.781

>  <logP>
0.605

>  <lumo_energy>
0.697

>  <melting_point>
-7.48

>  <molecular_refractivity>
22.86

>  <oscillator_strength_1>
0.0026

>  <oscillator_strength_2>
0.0

>  <oscillator_strength_3>
0.013

>  <oscillator_strength_4>
0.0

>  <open_babel_can_smiles>
COS(=O)(=O)OC

>  <mulliken_charges>
13
1   -0.24291
2   -0.243007
3   -0.496248
4   -0.496314
5   -0.486276
6   -0.48629
7   1.309488
8   0.191047
9   0.18956
10   0.190118
11   0.191081
12   0.189605
13   0.190147

>  <lowdin_charges>
13
1   -0.276226
2   -0.274809
3   -0.557347
4   -0.558625
5   -0.387876
6   -0.38817
7   1.418929
8   0.175593
9   0.167976
10   0.170005
11   0.174987
12   0.168757
13   0.166806

$$$$

